x0734-x2705
     RDKit          3D

 48 52  0  0  0  0  0  0  0  0999 V2000
    7.4520   -1.1710   22.0460 N   0  0  0  0  0  0  0  0  0  0  0  0
    6.8650    0.1910   21.7630 C   0  0  1  0  0  0  0  0  0  0  0  0
    7.9070    1.3440   21.8290 C   0  0  0  0  0  0  0  0  0  0  0  0
    6.5340   -2.1350   22.7050 C   0  0  0  0  0  0  0  0  0  0  0  0
    8.6770   -1.1680   22.7140 C   0  0  0  0  0  0  0  0  0  0  0  0
    6.2660    0.4460   20.4060 C   0  0  0  0  0  0  0  0  0  0  0  0
    8.8220   -0.9910   24.0440 N   0  0  0  0  0  0  0  0  0  0  0  0
    9.9560   -1.3410   22.2200 C   0  0  0  0  0  0  0  0  0  0  0  0
    7.3150   -3.3810   23.2110 C   0  0  1  0  0  0  0  0  0  0  0  0
    7.5880    2.2800   22.7770 N   0  0  0  0  0  0  0  0  0  0  0  0
    8.9020    1.4600   21.1140 O   0  0  0  0  0  0  0  0  0  0  0  0
    5.0710    1.1780   20.2950 C   0  0  0  0  0  0  0  0  0  0  0  0
    6.8710   -0.0150   19.1120 C   0  0  0  0  0  0  0  0  0  0  0  0
   10.1470   -1.0530   24.3050 N   0  0  0  0  0  0  0  0  0  0  0  0
   10.9020   -1.2730   23.1960 C   0  0  0  0  0  0  0  0  0  0  0  0
    6.5350   -4.4480   23.9310 N   0  0  0  0  0  0  0  0  0  0  0  0
    7.9530   -4.0600   22.0230 C   0  0  0  0  0  0  0  0  0  0  0  0
   12.3890   -1.3770   23.2330 C   0  0  0  0  0  0  0  0  0  0  0  0
    6.4010    0.2070   17.8850 N   0  0  0  0  0  0  0  0  0  0  0  0
    4.4840    1.4710   19.0760 C   0  0  0  0  0  0  0  0  0  0  0  0
    8.2210    3.5210   22.9170 C   0  0  0  0  0  0  0  0  0  0  0  0
    7.1550   -4.9920   25.0580 C   0  0  0  0  0  0  0  0  0  0  0  0
    6.9120   -4.6190   21.1670 N   0  0  0  0  0  0  0  0  0  0  0  0
    5.5900   -5.2900   23.1490 C   0  0  0  0  0  0  0  0  0  0  0  0
   12.8540   -0.1040   23.5520 C   0  0  0  0  0  0  0  0  0  0  0  0
   12.8480   -2.4420   24.2210 C   0  0  0  0  0  0  0  0  0  0  0  0
   12.9220   -1.7620   21.8450 C   0  0  0  0  0  0  0  0  0  0  0  0
    6.3740   -4.0050   20.0290 C   0  0  0  0  0  0  0  0  0  0  0  0
    5.1690    0.9790   17.8360 C   0  0  0  0  0  0  0  0  0  0  0  0
    9.4900    3.5200   23.5010 C   0  0  0  0  0  0  0  0  0  0  0  0
    7.6320    4.7230   22.4970 C   0  0  0  0  0  0  0  0  0  0  0  0
    6.4180   -5.0670   26.2460 C   0  0  0  0  0  0  0  0  0  0  0  0
    8.4800   -5.4520   25.0080 C   0  0  0  0  0  0  0  0  0  0  0  0
    6.1720   -5.7020   21.7950 C   0  0  0  0  0  0  0  0  0  0  0  0
   10.1570    2.2440   23.9560 C   0  0  0  0  0  0  0  0  0  0  0  0
    6.2730    4.8130   21.8510 C   0  0  0  0  0  0  0  0  0  0  0  0
    5.0490   -4.6130   26.2510 N   0  0  0  0  0  0  0  0  0  0  0  0
    5.1960   -4.1520   19.7170 O   0  0  0  0  0  0  0  0  0  0  0  0
    7.3550   -3.2410   19.1600 C   0  0  0  0  0  0  0  0  0  0  0  0
   10.2320    4.8400   23.6850 C   0  0  0  0  0  0  0  0  0  0  0  0
    8.3210    5.9380   22.6680 C   0  0  0  0  0  0  0  0  0  0  0  0
    9.1140   -5.9890   26.1380 C   0  0  0  0  0  0  0  0  0  0  0  0
    6.9410   -5.5710   27.4450 C   0  0  0  0  0  0  0  0  0  0  0  0
    9.2390    1.5360   24.9770 C   0  0  0  0  0  0  0  0  0  0  0  0
    4.2200   -5.3560   25.7020 O   0  0  0  0  0  0  0  0  0  0  0  0
    4.7770   -3.5950   26.9000 O   0  0  0  0  0  0  0  0  0  0  0  0
    9.6940    6.0580   23.2910 C   0  0  0  0  0  0  0  0  0  0  0  0
    8.3560   -6.0700   27.4730 C   0  0  0  0  0  0  0  0  0  0  0  0
  1  2  1  0
  2  3  1  6
  1  4  1  0
  1  5  1  0
  2  6  1  0
  5  7  2  0
  5  8  1  0
  9  4  1  6
  3 10  1  0
  3 11  2  0
  6 12  2  0
  6 13  1  0
  7 14  1  0
  8 15  2  0
 14 15  1  0
  9 16  1  0
  9 17  1  0
 15 18  1  0
 13 19  2  0
 12 20  1  0
 10 21  1  0
 16 22  1  0
 17 23  1  0
 16 24  1  0
 18 25  1  0
 18 26  1  0
 18 27  1  0
 23 28  1  0
 19 29  1  0
 20 29  2  0
 21 30  2  0
 21 31  1  0
 22 32  2  0
 22 33  1  0
 23 34  1  0
 24 34  1  0
 30 35  1  0
 31 36  1  0
 32 37  1  0
 28 38  2  0
 28 39  1  0
 30 40  1  0
 31 41  2  0
 33 42  2  0
 32 43  1  0
 35 44  1  0
 37 45  2  0
 37 46  1  0
 40 47  2  0
 41 47  1  0
 42 48  1  0
 43 48  2  0
M  CHG  2  37   1  46  -1
M  END
