x0731-x0967
     RDKit          3D

 41 43  0  0  0  0  0  0  0  0999 V2000
    7.6640    4.9990   22.3980 C   0  0  0  0  0  0  0  0  0  0  0  0
    7.1630    3.6460   22.9760 C   0  0  0  0  0  0  0  0  0  0  0  0
    7.9580    2.5900   22.6000 N   0  0  0  0  0  0  0  0  0  0  0  0
    6.1680    3.5650   23.6890 O   0  0  0  0  0  0  0  0  0  0  0  0
    7.7390    1.3120   23.1370 C   0  0  1  0  0  0  0  0  0  0  0  0
    6.4090    0.6770   22.7120 C   0  0  0  0  0  0  0  0  0  0  0  0
    8.9300    0.4330   22.7260 C   0  0  0  0  0  0  0  0  0  0  0  0
    9.1700   -0.7540   23.5330 N   0  0  0  0  0  0  0  0  0  0  0  0
    9.7650    0.7880   21.6320 O   0  0  0  0  0  0  0  0  0  0  0  0
    6.2050    0.7080   21.2290 C   0  0  0  0  0  0  0  0  0  0  0  0
    9.6760   -1.8860   22.7970 C   0  0  2  0  0  0  0  0  0  0  0  0
    6.9450   -0.0390   20.3920 C   0  0  0  0  0  0  0  0  0  0  0  0
    5.1460    1.5940   20.6000 C   0  0  0  0  0  0  0  0  0  0  0  0
   11.0050   -1.5780   22.0600 C   0  0  0  0  0  0  0  0  0  0  0  0
    8.6070   -2.3960   21.8590 C   0  0  0  0  0  0  0  0  0  0  0  0
    6.7840   -0.0420   18.9070 C   0  0  0  0  0  0  0  0  0  0  0  0
    4.9560    1.6310   19.2100 C   0  0  0  0  0  0  0  0  0  0  0  0
   12.1450   -1.8840   23.0180 C   0  0  0  0  0  0  0  0  0  0  0  0
    7.2600   -2.4000   22.5310 C   0  0  0  0  0  0  0  0  0  0  0  0
    5.8220    0.7710   18.3470 C   0  0  0  0  0  0  0  0  0  0  0  0
    5.5960    0.8560   17.0320 O   0  0  0  0  0  0  0  0  0  0  0  0
   13.4180   -2.3390   24.3350 Br  0  0  0  0  0  0  0  0  0  0  0  0
    6.6800   -3.7880   22.7850 C   0  0  1  0  0  0  0  0  0  0  0  0
    6.6750   -4.7680   21.6750 N   0  0  0  0  0  0  0  0  0  0  0  0
    7.1230   -4.4160   24.0630 C   0  0  0  0  0  0  0  0  0  0  0  0
    6.2040   -4.4950   20.4090 C   0  0  0  0  0  0  0  0  0  0  0  0
    6.0650   -5.4030   24.4020 N   0  0  0  0  0  0  0  0  0  0  0  0
    6.2840   -6.1320   22.1180 C   0  0  0  0  0  0  0  0  0  0  0  0
    5.2510   -5.1050   19.9820 O   0  0  0  0  0  0  0  0  0  0  0  0
    6.8960   -3.4600   19.5350 C   0  0  0  0  0  0  0  0  0  0  0  0
    5.3810   -5.3710   25.9530 S   0  0  0  0  0  0  0  0  0  0  0  0
    5.3050   -5.9950   23.2550 C   0  0  0  0  0  0  0  0  0  0  0  0
    6.4260   -4.9340   26.8460 O   0  0  0  0  0  0  0  0  0  0  0  0
    4.6900   -6.6230   26.1570 O   0  0  0  0  0  0  0  0  0  0  0  0
    4.1940   -4.1440   25.9480 C   0  0  0  0  0  0  0  0  0  0  0  0
    2.8010   -4.3540   25.3550 C   0  0  0  0  0  0  0  0  0  0  0  0
    4.4810   -2.7890   26.5440 C   0  0  0  0  0  0  0  0  0  0  0  0
    1.8610   -3.3130   25.3980 C   0  0  0  0  0  0  0  0  0  0  0  0
    3.3850   -1.8670   26.4870 C   0  0  0  0  0  0  0  0  0  0  0  0
    2.1020   -2.0550   25.9570 C   0  0  0  0  0  0  0  0  0  0  0  0
    1.0760   -0.9650   26.0150 C   0  0  0  0  0  0  0  0  0  0  0  0
  1  2  1  0
  2  3  1  0
  2  4  2  0
  3  5  1  0
  5  6  1  6
  5  7  1  0
  7  8  1  0
  7  9  2  0
  6 10  1  0
  8 11  1  0
 10 12  2  0
 10 13  1  0
 11 14  1  6
 11 15  1  0
 12 16  1  0
 13 17  2  0
 14 18  3  0
 15 19  1  0
 16 20  2  0
 17 20  1  0
 20 21  1  0
 18 22  1  0
 23 19  1  6
 23 24  1  0
 23 25  1  0
 24 26  1  0
 25 27  1  0
 24 28  1  0
 26 29  2  0
 26 30  1  0
 27 31  1  0
 27 32  1  0
 28 32  1  0
 31 33  2  0
 31 34  2  0
 31 35  1  0
 35 36  2  0
 35 37  1  0
 36 38  1  0
 37 39  2  0
 38 40  2  0
 39 40  1  0
 40 41  1  0
M  END
