x0731-x2540
     RDKit          3D

 45 48  0  0  0  0  0  0  0  0999 V2000
    7.3430   -0.8920   22.2020 N   0  0  0  0  0  0  0  0  0  0  0  0
    7.0560    0.5010   21.7410 C   0  0  1  0  0  0  0  0  0  0  0  0
    8.2130    1.5140   21.9290 C   0  0  0  0  0  0  0  0  0  0  0  0
    6.1520   -1.4640   22.9160 C   0  0  0  0  0  0  0  0  0  0  0  0
    8.5800   -1.1280   22.8290 C   0  0  0  0  0  0  0  0  0  0  0  0
    5.8150   -2.6810   22.4440 C   0  0  0  0  0  0  0  0  0  0  0  0
    6.4080    0.6520   20.3760 C   0  0  0  0  0  0  0  0  0  0  0  0
    8.7310   -1.4980   24.1010 N   0  0  0  0  0  0  0  0  0  0  0  0
    9.7900   -1.0170   22.2640 C   0  0  0  0  0  0  0  0  0  0  0  0
    8.3140    2.0370   23.2020 N   0  0  0  0  0  0  0  0  0  0  0  0
    8.9540    1.8680   21.0270 O   0  0  0  0  0  0  0  0  0  0  0  0
    5.2960    1.5060   20.3010 C   0  0  0  0  0  0  0  0  0  0  0  0
    6.8780   -0.0110   19.2150 C   0  0  0  0  0  0  0  0  0  0  0  0
   10.0700   -1.6070   24.3330 O   0  0  0  0  0  0  0  0  0  0  0  0
   10.7370   -1.3100   23.1870 C   0  0  0  0  0  0  0  0  0  0  0  0
    6.8800   -3.7770   22.6550 C   0  0  2  0  0  0  0  0  0  0  0  0
    9.0880    3.2500   23.4970 C   0  0  0  0  0  0  0  0  0  0  0  0
   12.2360   -1.3770   23.2650 C   0  0  0  0  0  0  0  0  0  0  0  0
    6.3220    0.1260   17.9870 N   0  0  0  0  0  0  0  0  0  0  0  0
    4.6690    1.6680   18.9530 C   0  0  0  0  0  0  0  0  0  0  0  0
    6.7490   -4.8490   21.6700 N   0  0  0  0  0  0  0  0  0  0  0  0
    6.9770   -4.3150   23.9750 C   0  0  0  0  0  0  0  0  0  0  0  0
    9.0520    3.5460   25.0000 C   0  0  0  0  0  0  0  0  0  0  0  0
    8.5450    4.4630   22.7270 C   0  0  0  0  0  0  0  0  0  0  0  0
   10.5390    3.0060   23.0220 C   0  0  0  0  0  0  0  0  0  0  0  0
   12.8490   -1.8030   21.9230 C   0  0  0  0  0  0  0  0  0  0  0  0
   12.8110   -0.0110   23.6120 C   0  0  0  0  0  0  0  0  0  0  0  0
   12.6680   -2.3860   24.3540 C   0  0  0  0  0  0  0  0  0  0  0  0
    6.2210   -4.6390   20.4430 C   0  0  0  0  0  0  0  0  0  0  0  0
    5.1940    0.9900   17.8740 C   0  0  0  0  0  0  0  0  0  0  0  0
    5.7760   -5.0890   24.2410 N   0  0  0  0  0  0  0  0  0  0  0  0
    6.3490   -6.1810   22.2570 C   0  0  0  0  0  0  0  0  0  0  0  0
    5.3090   -5.2980   19.9940 O   0  0  0  0  0  0  0  0  0  0  0  0
    6.8560   -3.5160   19.6300 C   0  0  0  0  0  0  0  0  0  0  0  0
    5.1960   -5.3120   25.8280 S   0  0  0  0  0  0  0  0  0  0  0  0
    5.3880   -6.0830   23.1870 C   0  0  0  0  0  0  0  0  0  0  0  0
    6.1820   -4.9130   26.8010 O   0  0  0  0  0  0  0  0  0  0  0  0
    4.5710   -6.6120   25.8990 O   0  0  0  0  0  0  0  0  0  0  0  0
    3.9640   -4.0650   25.8770 C   0  0  0  0  0  0  0  0  0  0  0  0
    2.5910   -4.2680   25.3130 C   0  0  0  0  0  0  0  0  0  0  0  0
    4.2850   -2.7450   26.5090 C   0  0  0  0  0  0  0  0  0  0  0  0
    1.7250   -3.2410   25.4210 C   0  0  0  0  0  0  0  0  0  0  0  0
    3.2870   -1.8450   26.5210 C   0  0  0  0  0  0  0  0  0  0  0  0
    1.9980   -2.0470   25.9970 C   0  0  0  0  0  0  0  0  0  0  0  0
    0.9750   -0.9590   26.0950 C   0  0  0  0  0  0  0  0  0  0  0  0
  1  2  1  0
  2  3  1  6
  1  4  1  0
  1  5  1  0
  4  6  1  0
  2  7  1  0
  5  8  2  0
  5  9  1  0
  3 10  1  0
  3 11  2  0
  7 12  2  0
  7 13  1  0
  8 14  1  0
  9 15  2  0
 14 15  1  0
 16  6  1  1
 17 10  1  0
 15 18  1  0
 13 19  2  0
 12 20  1  0
 16 21  1  0
 16 22  1  0
 17 23  1  0
 17 24  1  0
 17 25  1  0
 18 26  1  0
 18 27  1  0
 18 28  1  0
 21 29  1  0
 19 30  1  0
 20 30  2  0
 22 31  1  0
 21 32  1  0
 29 33  2  0
 29 34  1  0
 31 35  1  0
 31 36  1  0
 32 36  1  0
 35 37  2  0
 35 38  2  0
 35 39  1  0
 39 40  2  0
 39 41  1  0
 40 42  1  0
 41 43  2  0
 42 44  2  0
 43 44  1  0
 44 45  1  0
M  END
