x0734-x2569
     RDKit          3D

 37 40  0  0  0  0  0  0  0  0999 V2000
    5.2230   -4.6780   26.0890 N   0  0  0  0  0  0  0  0  0  0  0  0
    6.6890   -4.8250   26.1620 C   0  0  0  0  0  0  0  0  0  0  0  0
    7.2120   -5.3150   27.3900 C   0  0  0  0  0  0  0  0  0  0  0  0
    4.5670   -5.6030   25.5890 O   0  0  0  0  0  0  0  0  0  0  0  0
    4.7290   -3.7360   26.7270 O   0  0  0  0  0  0  0  0  0  0  0  0
    7.5580   -4.4920   25.0470 C   0  0  0  0  0  0  0  0  0  0  0  0
    8.9640   -4.6280   25.0970 C   0  0  0  0  0  0  0  0  0  0  0  0
    8.7250   -5.4670   27.4660 C   0  0  0  0  0  0  0  0  0  0  0  0
    6.8410   -4.0310   23.9490 N   0  0  0  0  0  0  0  0  0  0  0  0
    9.5720   -5.0980   26.2570 C   0  0  0  0  0  0  0  0  0  0  0  0
    5.9510   -5.0700   23.3370 C   0  0  0  0  0  0  0  0  0  0  0  0
    7.1500   -2.9480   23.1460 C   0  0  1  0  0  0  0  0  0  0  0  0
    7.6370   -1.7440   23.9330 C   0  0  0  0  0  0  0  0  0  0  0  0
    6.4690   -5.4870   21.9530 C   0  0  0  0  0  0  0  0  0  0  0  0
    7.8140   -3.5300   21.9110 C   0  0  0  0  0  0  0  0  0  0  0  0
    8.4880   -0.5620   23.3200 C   0  0  2  0  0  0  0  0  0  0  0  0
    7.0000   -4.3490   21.2150 N   0  0  0  0  0  0  0  0  0  0  0  0
    6.4140   -3.9080   20.0160 C   0  0  0  0  0  0  0  0  0  0  0  0
    8.0700   -0.0690   21.9170 C   0  0  0  0  0  0  0  0  0  0  0  0
    9.9860   -0.6310   23.3830 C   0  0  0  0  0  0  0  0  0  0  0  0
    5.2440   -4.1620   19.7260 O   0  0  0  0  0  0  0  0  0  0  0  0
    7.3330   -3.1790   19.0430 C   0  0  0  0  0  0  0  0  0  0  0  0
    8.7800    0.7820   21.3590 O   0  0  0  0  0  0  0  0  0  0  0  0
    6.8770   -0.5790   21.2950 N   0  0  0  0  0  0  0  0  0  0  0  0
   10.7290   -1.0150   22.3470 C   0  0  0  0  0  0  0  0  0  0  0  0
   10.6860   -0.2400   24.6410 C   0  0  0  0  0  0  0  0  0  0  0  0
   12.0310   -0.2190   24.8880 N   0  0  0  0  0  0  0  0  0  0  0  0
   12.2120   -1.0070   22.5590 C   0  0  0  0  0  0  0  0  0  0  0  0
    6.2190    0.1080   20.1780 C   0  0  0  0  0  0  0  0  0  0  0  0
   13.1750   -1.3840   21.4870 C   0  0  0  0  0  0  0  0  0  0  0  0
   12.8020   -0.5890   23.8840 C   0  0  0  0  0  0  0  0  0  0  0  0
    6.8410    0.0540   18.9580 C   0  0  0  0  0  0  0  0  0  0  0  0
    4.9120    0.8620   20.3200 C   0  0  0  0  0  0  0  0  0  0  0  0
   14.0310   -1.4700   20.3620 N   0  0  0  0  0  0  0  0  0  0  0  0
    6.4210    0.6180   17.8180 N   0  0  0  0  0  0  0  0  0  0  0  0
    4.4520    1.5070   18.9690 C   0  0  0  0  0  0  0  0  0  0  0  0
    5.2690    1.3120   17.8600 C   0  0  0  0  0  0  0  0  0  0  0  0
  1  2  1  0
  2  3  2  0
  1  4  2  0
  1  5  1  0
  2  6  1  0
  6  7  2  0
  3  8  1  0
  6  9  1  0
  7 10  1  0
  8 10  2  0
  9 11  1  0
  9 12  1  0
 12 13  1  1
 11 14  1  0
 12 15  1  0
 16 13  1  6
 14 17  1  0
 15 17  1  0
 17 18  1  0
 16 19  1  0
 16 20  1  0
 18 21  2  0
 18 22  1  0
 19 23  2  0
 19 24  1  0
 20 25  2  0
 20 26  1  0
 26 27  2  0
 25 28  1  0
 24 29  1  0
 28 30  1  0
 27 31  1  0
 28 31  2  0
 29 32  2  0
 29 33  1  0
 30 34  3  0
 32 35  1  0
 33 36  2  0
 35 37  2  0
 36 37  1  0
M  CHG  2   1   1   5  -1
M  END
