x0731-x0995-x2694
     RDKit          3D

 51 55  0  0  0  0  0  0  0  0999 V2000
    7.3960   -0.8880   22.2080 N   0  0  0  0  0  0  0  0  0  0  0  0
    6.9700    0.4720   21.7730 C   0  0  1  0  0  0  0  0  0  0  0  0
    8.0800    1.5430   21.8180 C   0  0  0  0  0  0  0  0  0  0  0  0
    6.8390   -2.0430   21.6720 C   0  0  0  0  0  0  0  0  0  0  0  0
    8.6620   -1.0870   22.9120 C   0  0  0  0  0  0  0  0  0  0  0  0
    5.9940   -2.8400   22.3610 C   0  0  0  0  0  0  0  0  0  0  0  0
    6.3180    0.6610   20.3630 C   0  0  0  0  0  0  0  0  0  0  0  0
    8.8230   -1.2410   24.2420 N   0  0  0  0  0  0  0  0  0  0  0  0
    9.9090   -1.1500   22.3200 C   0  0  0  0  0  0  0  0  0  0  0  0
    7.7830    2.5430   22.6550 N   0  0  0  0  0  0  0  0  0  0  0  0
    9.1110    1.5050   21.1460 O   0  0  0  0  0  0  0  0  0  0  0  0
    5.1510    1.3770   20.2470 C   0  0  0  0  0  0  0  0  0  0  0  0
    6.9190    0.1130   19.2270 C   0  0  0  0  0  0  0  0  0  0  0  0
   10.1960   -1.3950   24.4790 O   0  0  0  0  0  0  0  0  0  0  0  0
   10.8770   -1.3380   23.2970 C   0  0  0  0  0  0  0  0  0  0  0  0
    6.1590   -4.3020   21.8320 C   0  0  0  0  0  0  0  0  0  0  0  0
   12.3030   -1.4510   23.2210 C   0  0  0  0  0  0  0  0  0  0  0  0
    6.0190   -4.1970   20.3110 C   0  0  0  0  0  0  0  0  0  0  0  0
    6.4060    0.2710   17.9960 N   0  0  0  0  0  0  0  0  0  0  0  0
    4.5190    1.6050   19.0400 C   0  0  0  0  0  0  0  0  0  0  0  0
    8.6390    3.6030   23.0110 C   0  0  0  0  0  0  0  0  0  0  0  0
    7.4250   -4.8620   22.3750 C   0  0  0  0  0  0  0  0  0  0  0  0
    4.9910   -5.2690   22.2270 C   0  0  0  0  0  0  0  0  0  0  0  0
   12.8470   -0.0300   23.4230 C   0  0  0  0  0  0  0  0  0  0  0  0
   12.8070   -1.9540   21.8370 C   0  0  0  0  0  0  0  0  0  0  0  0
   12.8620   -2.3620   24.3390 C   0  0  0  0  0  0  0  0  0  0  0  0
    3.3780    2.3030   18.9350 N   0  0  0  0  0  0  0  0  0  0  0  0
    5.1160   -4.8570   19.8800 O   0  0  0  0  0  0  0  0  0  0  0  0
    6.8670   -3.3630   19.3420 C   0  0  0  0  0  0  0  0  0  0  0  0
    5.1490    1.0600   17.9280 C   0  0  0  0  0  0  0  0  0  0  0  0
    9.8610    3.4120   23.6380 C   0  0  0  0  0  0  0  0  0  0  0  0
    8.2200    4.9040   22.7060 C   0  0  0  0  0  0  0  0  0  0  0  0
    7.2790   -4.8460   23.8900 C   0  0  0  0  0  0  0  0  0  0  0  0
    5.3130   -6.1110   23.2540 C   0  0  0  0  0  0  0  0  0  0  0  0
   10.3600    2.0390   23.9920 C   0  0  0  0  0  0  0  0  0  0  0  0
   10.6560    4.5050   23.9560 C   0  0  0  0  0  0  0  0  0  0  0  0
    9.0250    6.0030   23.0380 C   0  0  0  0  0  0  0  0  0  0  0  0
    5.8950   -5.2470   24.2550 N   0  0  0  0  0  0  0  0  0  0  0  0
    5.3480   -5.2970   25.8190 S   0  0  0  0  0  0  0  0  0  0  0  0
   10.2570    5.8040   23.6730 C   0  0  0  0  0  0  0  0  0  0  0  0
   10.9760    6.9260   23.9690 O   0  0  0  0  0  0  0  0  0  0  0  0
    6.3350   -4.8130   26.7370 O   0  0  0  0  0  0  0  0  0  0  0  0
    4.7270   -6.5820   26.0130 O   0  0  0  0  0  0  0  0  0  0  0  0
    4.0580   -4.0800   25.8680 C   0  0  0  0  0  0  0  0  0  0  0  0
   11.8870    6.8090   25.0570 C   0  0  0  0  0  0  0  0  0  0  0  0
    2.7960   -4.3050   25.3290 C   0  0  0  0  0  0  0  0  0  0  0  0
    4.3040   -2.8590   26.4750 C   0  0  0  0  0  0  0  0  0  0  0  0
    1.8020   -3.3180   25.4150 C   0  0  0  0  0  0  0  0  0  0  0  0
    3.3510   -1.8790   26.5700 C   0  0  0  0  0  0  0  0  0  0  0  0
    2.0600   -2.0860   26.0440 C   0  0  0  0  0  0  0  0  0  0  0  0
    1.0140   -1.0250   26.1660 C   0  0  0  0  0  0  0  0  0  0  0  0
  1  2  1  0
  2  3  1  6
  1  4  1  0
  1  5  1  0
  4  6  1  0
  2  7  1  0
  5  8  2  0
  5  9  1  0
  3 10  1  0
  3 11  2  0
  7 12  2  0
  7 13  1  0
  8 14  1  0
  9 15  2  0
 14 15  1  0
  6 16  1  0
 15 17  1  0
 16 18  1  0
 13 19  2  0
 12 20  1  0
 10 21  1  0
 16 22  1  0
 16 23  1  0
 17 24  1  0
 17 25  1  0
 17 26  1  0
 20 27  1  0
 18 28  2  0
 18 29  1  0
 19 30  1  0
 20 30  2  0
 21 31  2  0
 21 32  1  0
 22 33  1  0
 23 34  1  0
 31 35  1  0
 31 36  1  0
 32 37  2  0
 33 38  1  0
 34 38  1  0
 38 39  1  0
 36 40  2  0
 37 40  1  0
 40 41  1  0
 39 42  2  0
 39 43  2  0
 39 44  1  0
 41 45  1  0
 44 46  2  0
 44 47  1  0
 46 48  1  0
 47 49  2  0
 48 50  2  0
 49 50  1  0
 50 51  1  0
M  END
