x0749-x0540-x0771-x3113
     RDKit          3D

 64 70  0  0  0  0  0  0  0  0999 V2000
    7.6720   -1.3580   22.1120 N   0  0  0  0  0  0  0  0  0  0  0  0
    7.0810   -0.0170   21.7960 C   0  0  1  0  0  0  0  0  0  0  0  0
    8.0750    1.1550   22.0280 C   0  0  0  0  0  0  0  0  0  0  0  0
    8.6960   -1.4330   23.0200 C   0  0  2  0  0  0  0  0  0  0  0  0
    6.8430   -2.5630   22.3300 C   0  0  0  0  0  0  0  0  0  0  0  0
    6.4520    0.2030   20.4190 C   0  0  0  0  0  0  0  0  0  0  0  0
   10.0500   -1.6810   22.3270 C   0  0  1  0  0  0  0  0  0  0  0  0
    8.6590   -2.4070   23.9400 C   0  0  0  0  0  0  0  0  0  0  0  0
    7.6030   -3.8730   21.9610 C   0  0  2  0  0  0  0  0  0  0  0  0
    8.1940    1.5760   23.3470 N   0  0  0  0  0  0  0  0  0  0  0  0
    8.7160    1.7100   21.1250 O   0  0  0  0  0  0  0  0  0  0  0  0
    5.2180    0.8280   20.4060 C   0  0  0  0  0  0  0  0  0  0  0  0
    7.0800   -0.1690   19.3020 C   0  0  0  0  0  0  0  0  0  0  0  0
   10.6140   -0.4280   22.2050 C   0  0  0  0  0  0  0  0  0  0  0  0
   10.6960   -2.6910   23.0960 C   0  0  2  0  0  0  0  0  0  0  0  0
    9.7980   -3.1490   23.9520 C   0  0  0  0  0  0  0  0  0  0  0  0
    6.7650   -4.6500   21.0840 N   0  0  0  0  0  0  0  0  0  0  0  0
    8.1880   -4.6960   22.8790 C   0  0  0  0  0  0  0  0  0  0  0  0
    9.0010    2.7300   23.7180 C   0  0  0  0  0  0  0  0  0  0  0  0
    4.5540    1.1860   21.7090 C   0  0  0  0  0  0  0  0  0  0  0  0
    6.4290    0.1440   18.0370 N   0  0  0  0  0  0  0  0  0  0  0  0
    4.4990    1.1710   19.2370 C   0  0  0  0  0  0  0  0  0  0  0  0
   11.7790   -0.1280   22.6960 C   0  0  0  0  0  0  0  0  0  0  0  0
   11.7120   -2.1360   24.0330 C   0  0  2  0  0  0  0  0  0  0  0  0
    6.3280   -4.0260   19.9510 C   0  0  0  0  0  0  0  0  0  0  0  0
    7.3120   -5.2030   23.7510 C   0  0  1  0  0  0  0  0  0  0  0  0
    5.9020   -5.6950   21.6580 C   0  0  0  0  0  0  0  0  0  0  0  0
   10.4970    2.5300   23.4520 C   0  0  0  0  0  0  0  0  0  0  0  0
   12.5040   -1.0960   23.3550 C   0  0  1  0  0  0  0  0  0  0  0  0
    5.1100    2.2370   22.4210 C   0  0  0  0  0  0  0  0  0  0  0  0
    5.1540    0.8140   17.8940 C   0  0  0  0  0  0  0  0  0  0  0  0
   12.7250   -2.9510   24.5520 C   0  0  0  0  0  0  0  0  0  0  0  0
    7.3830   -3.2500   19.1260 C   0  0  0  0  0  0  0  0  0  0  0  0
    5.1530   -4.1180   19.6500 O   0  0  0  0  0  0  0  0  0  0  0  0
    6.4070   -6.2460   22.9970 C   0  0  0  0  0  0  0  0  0  0  0  0
    8.1580   -5.6250   24.9790 C   0  0  0  0  0  0  0  0  0  0  0  0
   11.3060    3.8070   23.2160 C   0  0  0  0  0  0  0  0  0  0  0  0
   13.3840   -1.7480   22.3410 C   0  0  0  0  0  0  0  0  0  0  0  0
    4.0670    3.0420   22.6650 N   0  0  0  0  0  0  0  0  0  0  0  0
   13.0870   -0.7280   24.6160 C   0  0  0  0  0  0  0  0  0  0  0  0
    7.5490   -5.7350   26.2100 C   0  0  0  0  0  0  0  0  0  0  0  0
   13.2910   -1.8340   25.3310 C   0  0  0  0  0  0  0  0  0  0  0  0
   12.3510    3.7250   22.5920 O   0  0  0  0  0  0  0  0  0  0  0  0
    2.9210    2.6340   23.4870 C   0  0  0  0  0  0  0  0  0  0  0  0
    6.3610   -4.9160   26.2730 N   0  0  0  0  0  0  0  0  0  0  0  0
   13.2040    4.8650   22.7200 C   0  0  0  0  0  0  0  0  0  0  0  0
    2.9650    1.7020   24.4760 O   0  0  0  0  0  0  0  0  0  0  0  0
    1.8250    3.3210   23.1140 N   0  0  0  0  0  0  0  0  0  0  0  0
    4.8940   -5.7400   26.3660 S   0  0  2  0  0  0  0  0  0  0  0  0
    0.6000    3.3310   23.9090 C   0  0  0  0  0  0  0  0  0  0  0  0
    4.7560   -6.7900   25.3910 O   0  0  0  0  0  0  0  0  0  0  0  0
    3.6240   -4.5280   26.2680 C   0  0  0  0  0  0  0  0  0  0  0  0
    0.5150    4.5920   24.5310 C   0  0  0  0  0  0  0  0  0  0  0  0
   -0.4930    3.0370   23.0930 C   0  0  0  0  0  0  0  0  0  0  0  0
    2.2060   -4.7650   25.6770 C   0  0  0  0  0  0  0  0  0  0  0  0
    3.9170   -3.1300   26.8110 C   0  0  0  0  0  0  0  0  0  0  0  0
   -0.6930    4.8480   25.1780 C   0  0  0  0  0  0  0  0  0  0  0  0
   -1.6990    3.3180   23.7410 C   0  0  0  0  0  0  0  0  0  0  0  0
    1.7880   -6.0870   25.0950 C   0  0  0  0  0  0  0  0  0  0  0  0
    1.1860   -3.6520   25.6800 C   0  0  0  0  0  0  0  0  0  0  0  0
    2.7640   -2.1190   26.7340 C   0  0  0  0  0  0  0  0  0  0  0  0
   -1.7870    4.5940   24.3230 C   0  0  0  0  0  0  0  0  0  0  0  0
    1.4970   -2.3930   26.2090 C   0  0  0  0  0  0  0  0  0  0  0  0
    0.4590   -1.3190   26.2270 C   0  0  0  0  0  0  0  0  0  0  0  0
  1  2  1  0
  2  3  1  6
  4  1  1  6
  1  5  1  0
  2  6  1  0
  4  7  1  0
  4  8  1  0
  9  5  1  1
  3 10  1  0
  3 11  2  0
  6 12  1  0
  6 13  2  0
  7 14  1  1
  7 15  1  0
  8 16  2  0
 15 16  1  1
  9 17  1  0
  9 18  1  0
 10 19  1  0
 12 20  1  0
 13 21  1  0
 12 22  2  0
 14 23  2  0
 15 24  1  0
 17 25  1  0
 18 26  1  0
 17 27  1  0
 19 28  1  0
 23 29  1  0
 24 29  1  0
 20 30  1  0
 21 31  2  0
 22 31  1  0
 24 32  1  6
 25 33  1  0
 25 34  2  0
 26 35  1  0
 27 35  1  0
 26 36  1  1
 28 37  1  0
 29 38  1  6
 30 39  1  0
 29 40  1  0
 36 41  1  0
 32 42  1  0
 40 42  2  0
 37 43  1  0
 39 44  1  0
 41 45  1  0
 43 46  1  0
 44 47  2  0
 44 48  1  0
 45 49  2  0
 48 50  1  0
 49 51  2  0
 49 52  1  6
 50 53  1  0
 50 54  1  0
 52 55  2  0
 52 56  1  0
 53 57  1  0
 54 58  1  0
 55 59  1  0
 55 60  1  0
 56 61  2  0
 57 62  1  0
 58 62  1  0
 60 63  2  0
 61 63  1  0
 63 64  1  0
M  END
