x0749-x0995-x3113-x0786
     RDKit          3D

 54 60  0  0  0  0  0  0  0  0999 V2000
    7.7610   -1.1650   22.3710 N   0  0  0  0  0  0  0  0  0  0  0  0
    7.1730    0.1300   21.9640 C   0  0  1  0  0  0  0  0  0  0  0  0
    8.1860    1.2930   22.0270 C   0  0  0  0  0  0  0  0  0  0  0  0
    8.3450   -1.5770   23.5780 C   0  0  1  0  0  0  0  0  0  0  0  0
    7.0550   -2.3230   21.8400 C   0  0  0  0  0  0  0  0  0  0  0  0
    6.5540    0.3140   20.5890 C   0  0  0  0  0  0  0  0  0  0  0  0
    9.6740   -1.7830   23.3800 C   0  0  1  0  0  0  0  0  0  0  0  0
    8.3710   -0.7160   24.6500 C   0  0  0  0  0  0  0  0  0  0  0  0
    7.8480   -3.6990   21.8700 C   0  0  2  0  0  0  0  0  0  0  0  0
    8.2740    1.8800   23.2730 N   0  0  0  0  0  0  0  0  0  0  0  0
    8.8500    1.7190   21.0890 O   0  0  0  0  0  0  0  0  0  0  0  0
    5.3920    0.9990   20.4340 C   0  0  0  0  0  0  0  0  0  0  0  0
    7.0680   -0.1430   19.3780 C   0  0  0  0  0  0  0  0  0  0  0  0
   10.1340   -1.9770   22.0610 C   0  0  0  0  0  0  0  0  0  0  0  0
   10.5240   -0.8790   23.8310 C   0  0  1  0  0  0  0  0  0  0  0  0
    9.6710   -0.3240   24.8050 C   0  0  0  0  0  0  0  0  0  0  0  0
    7.0250   -4.4360   21.1590 N   0  0  0  0  0  0  0  0  0  0  0  0
    8.1650   -4.2750   23.1640 C   0  0  0  0  0  0  0  0  0  0  0  0
    9.2640    2.9040   23.5750 C   0  0  0  0  0  0  0  0  0  0  0  0
    6.4660    0.0750   18.0580 N   0  0  0  0  0  0  0  0  0  0  0  0
    4.6050    1.3260   19.1210 C   0  0  0  0  0  0  0  0  0  0  0  0
   11.6380   -2.0130   21.8540 C   0  0  0  0  0  0  0  0  0  0  0  0
   11.8300   -1.3600   24.3220 C   0  0  1  0  0  0  0  0  0  0  0  0
    6.4780   -3.9680   19.9740 C   0  0  0  0  0  0  0  0  0  0  0  0
    7.9240   -5.6540   23.3080 C   0  0  0  0  0  0  0  0  0  0  0  0
    6.2730   -5.4130   21.8910 C   0  0  1  0  0  0  0  0  0  0  0  0
   10.6980    2.2730   23.3840 C   0  0  0  0  0  0  0  0  0  0  0  0
   12.5950   -1.8120   23.0070 C   0  0  1  0  0  0  0  0  0  0  0  0
    3.3410    2.0850   19.0630 N   0  0  0  0  0  0  0  0  0  0  0  0
    5.2140    0.8320   17.9820 C   0  0  0  0  0  0  0  0  0  0  0  0
   12.5130   -0.2950   25.0450 C   0  0  0  0  0  0  0  0  0  0  0  0
    7.4230   -3.2440   19.0010 C   0  0  0  0  0  0  0  0  0  0  0  0
    5.2980   -4.1650   19.7090 O   0  0  0  0  0  0  0  0  0  0  0  0
    7.1800   -6.2910   22.3430 C   0  0  0  0  0  0  0  0  0  0  0  0
    5.4970   -4.9450   23.0800 C   0  0  0  0  0  0  0  0  0  0  0  0
   11.7870    3.3870   23.2560 C   0  0  0  0  0  0  0  0  0  0  0  0
   13.5540   -2.8970   23.3770 C   0  0  0  0  0  0  0  0  0  0  0  0
   13.0750   -0.4460   23.0700 C   0  0  0  0  0  0  0  0  0  0  0  0
    4.5810   -6.0590   23.3240 C   0  0  0  0  0  0  0  0  0  0  0  0
    5.5540   -3.7810   23.8600 C   0  0  0  0  0  0  0  0  0  0  0  0
   13.3330   -0.9340   24.2280 C   0  0  0  0  0  0  0  0  0  0  0  0
   11.8600    4.1450   22.3250 O   0  0  0  0  0  0  0  0  0  0  0  0
    3.6420   -5.9970   24.4530 C   0  0  0  0  0  0  0  0  0  0  0  0
    4.6300   -3.6170   25.0480 C   0  0  0  0  0  0  0  0  0  0  0  0
   13.0430    4.9360   22.3820 C   0  0  0  0  0  0  0  0  0  0  0  0
    2.7940   -7.1500   24.5740 C   0  0  0  0  0  0  0  0  0  0  0  0
    3.6520   -4.7560   25.3500 C   0  0  0  0  0  0  0  0  0  0  0  0
    3.3130   -8.2650   25.1740 O   0  0  0  0  0  0  0  0  0  0  0  0
    1.5890   -7.0420   24.0180 N   0  0  0  0  0  0  0  0  0  0  0  0
    1.1700   -5.8740   23.2450 C   0  0  0  0  0  0  0  0  0  0  0  0
    0.6060   -8.0720   24.2840 C   0  0  0  0  0  0  0  0  0  0  0  0
    0.0160   -5.1090   23.9110 C   0  0  0  0  0  0  0  0  0  0  0  0
   -0.2900   -7.5700   25.2170 C   0  0  0  0  0  0  0  0  0  0  0  0
   -1.2950   -6.1960   24.5540 S   0  0  0  0  0  0  0  0  0  0  0  0
  1  2  1  0
  2  3  1  6
  4  1  1  6
  1  5  1  0
  2  6  1  0
  4  7  1  0
  4  8  1  0
  9  5  1  1
  3 10  1  0
  3 11  2  0
  6 12  2  0
  6 13  1  0
  7 14  1  6
  7 15  1  0
  8 16  2  0
 15 16  1  1
  9 17  1  0
  9 18  1  0
 10 19  1  0
 13 20  2  0
 12 21  1  0
 14 22  2  0
 15 23  1  0
 17 24  1  0
 18 25  1  0
 17 26  1  0
 19 27  1  0
 22 28  1  0
 23 28  1  0
 21 29  1  0
 20 30  1  0
 21 30  2  0
 23 31  1  6
 24 32  1  0
 24 33  2  0
 25 34  1  0
 26 34  1  0
 26 35  1  1
 27 36  1  0
 28 37  1  1
 28 38  1  0
 35 39  2  0
 35 40  1  0
 31 41  1  0
 38 41  2  0
 36 42  1  0
 39 43  1  0
 40 44  2  0
 42 45  1  0
 43 46  1  0
 43 47  2  0
 44 47  1  0
 46 48  2  0
 46 49  1  0
 49 50  1  0
 49 51  1  0
 50 52  1  0
 51 53  1  0
 52 54  1  0
 53 54  1  0
M  END
