x0749-x2754
     RDKit          3D

 29 32  0  0  0  0  0  0  0  0999 V2000
    4.7710   -3.1820   25.3070 C   0  0  0  0  0  0  0  0  0  0  0  0
    5.3580   -3.0510   26.5480 N   0  0  0  0  0  0  0  0  0  0  0  0
    4.7910   -2.1350   27.5810 C   0  0  0  0  0  0  0  0  0  0  0  0
    3.4520   -2.8750   24.8940 O   0  0  0  0  0  0  0  0  0  0  0  0
    5.6160   -3.7340   24.1840 C   0  0  2  0  0  0  0  0  0  0  0  0
    6.1620   -2.7440   23.3220 C   0  0  0  0  0  0  0  0  0  0  0  0
    4.9050   -4.7450   23.4960 C   0  0  0  0  0  0  0  0  0  0  0  0
    6.6120   -3.6060   26.8610 C   0  0  0  0  0  0  0  0  0  0  0  0
    7.1430   -3.4020   22.3310 C   0  0  2  0  0  0  0  0  0  0  0  0
    5.7500   -5.2740   22.2150 C   0  0  0  0  0  0  0  0  0  0  0  0
    6.7990   -4.8990   27.6570 C   0  0  0  0  0  0  0  0  0  0  0  0
    7.9270   -2.9650   26.4270 C   0  0  0  0  0  0  0  0  0  0  0  0
    6.4320   -4.2340   21.5130 N   0  0  0  0  0  0  0  0  0  0  0  0
    8.0740   -5.4190   27.9490 C   0  0  0  0  0  0  0  0  0  0  0  0
    9.1100   -3.5290   26.7520 C   0  0  0  0  0  0  0  0  0  0  0  0
    8.0790   -4.3550   23.1220 C   0  0  0  0  0  0  0  0  0  0  0  0
    6.2040   -3.8990   20.1820 C   0  0  0  0  0  0  0  0  0  0  0  0
    9.1910   -4.7100   27.4860 C   0  0  0  0  0  0  0  0  0  0  0  0
    9.3050   -3.7230   23.6180 C   0  0  0  0  0  0  0  0  0  0  0  0
    5.1340   -4.2340   19.7160 O   0  0  0  0  0  0  0  0  0  0  0  0
    7.2340   -3.1750   19.2980 C   0  0  0  0  0  0  0  0  0  0  0  0
    9.8390   -2.4050   23.2660 N   0  0  0  0  0  0  0  0  0  0  0  0
   10.3500   -4.6080   24.7920 S   0  0  0  0  0  0  0  0  0  0  0  0
   11.5230   -3.3730   24.8470 C   0  0  0  0  0  0  0  0  0  0  0  0
   11.0880   -2.3430   24.0230 C   0  0  0  0  0  0  0  0  0  0  0  0
   11.7980   -1.1640   23.8350 C   0  0  0  0  0  0  0  0  0  0  0  0
   12.7250   -3.2900   25.5340 C   0  0  0  0  0  0  0  0  0  0  0  0
   13.0160   -0.9690   24.4750 C   0  0  0  0  0  0  0  0  0  0  0  0
   13.4770   -2.1510   25.3800 C   0  0  0  0  0  0  0  0  0  0  0  0
  1  2  1  0
  2  3  1  0
  1  4  2  0
  5  1  1  1
  5  6  1  0
  5  7  1  0
  2  8  1  0
  6  9  1  0
  7 10  1  0
  8 11  2  0
  8 12  1  0
  9 13  1  0
 10 13  1  0
 11 14  1  0
 12 15  2  0
  9 16  1  1
 13 17  1  0
 14 18  2  0
 15 18  1  0
 16 19  1  0
 17 20  2  0
 17 21  1  0
 19 22  2  0
 19 23  1  0
 23 24  1  0
 22 25  1  0
 24 25  2  0
 25 26  1  0
 24 27  1  0
 26 28  2  0
 27 29  2  0
 28 29  1  0
M  END
