x0749-x0981
     RDKit          3D

 30 32  0  0  0  0  0  0  0  0999 V2000
    1.2000   -8.6520   21.4530 C   0  0  0  0  0  0  0  0  0  0  0  0
    1.3870   -7.3520   22.1940 C   0  0  0  0  0  0  0  0  0  0  0  0
    2.6430   -7.1490   22.7370 N   0  0  0  0  0  0  0  0  0  0  0  0
    0.4980   -6.5130   22.2970 O   0  0  0  0  0  0  0  0  0  0  0  0
    2.9390   -6.0060   23.6020 C   0  0  1  0  0  0  0  0  0  0  0  0
    2.7320   -6.3990   25.0650 C   0  0  0  0  0  0  0  0  0  0  0  0
    4.4190   -5.5750   23.3770 C   0  0  0  0  0  0  0  0  0  0  0  0
    5.3850   -6.6950   23.2620 N   0  0  0  0  0  0  0  0  0  0  0  0
    4.7480   -4.3900   23.3220 O   0  0  0  0  0  0  0  0  0  0  0  0
    3.0820   -7.7000   25.3470 C   0  0  0  0  0  0  0  0  0  0  0  0
    2.4320   -8.3050   26.4090 N   0  0  0  0  0  0  0  0  0  0  0  0
    3.9330   -8.2100   24.6450 O   0  0  0  0  0  0  0  0  0  0  0  0
    6.6050   -6.2710   22.8540 C   0  0  2  0  0  0  0  0  0  0  0  0
    7.4410   -5.2790   23.6910 C   0  0  0  0  0  0  0  0  0  0  0  0
    6.6240   -5.7550   21.5850 C   0  0  0  0  0  0  0  0  0  0  0  0
    6.6290   -4.3810   21.3750 N   0  0  0  0  0  0  0  0  0  0  0  0
    8.1500   -4.4020   22.8640 C   0  0  1  0  0  0  0  0  0  0  0  0
    6.3350   -3.9050   20.1030 C   0  0  0  0  0  0  0  0  0  0  0  0
    7.3250   -3.5310   22.1900 C   0  0  0  0  0  0  0  0  0  0  0  0
    9.2920   -3.8290   23.3790 C   0  0  0  0  0  0  0  0  0  0  0  0
    7.4260   -3.1970   19.2650 C   0  0  0  0  0  0  0  0  0  0  0  0
    5.2070   -4.0700   19.6600 O   0  0  0  0  0  0  0  0  0  0  0  0
    9.7820   -2.4430   23.0490 N   0  0  0  0  0  0  0  0  0  0  0  0
   10.2960   -4.7550   24.4730 S   0  0  0  0  0  0  0  0  0  0  0  0
   11.4130   -3.2660   24.4540 C   0  0  0  0  0  0  0  0  0  0  0  0
   10.9350   -2.2740   23.6870 C   0  0  0  0  0  0  0  0  0  0  0  0
   11.7930   -1.0230   23.6200 C   0  0  0  0  0  0  0  0  0  0  0  0
   12.6000   -3.2790   25.1930 C   0  0  0  0  0  0  0  0  0  0  0  0
   12.9640   -1.0290   24.3390 C   0  0  0  0  0  0  0  0  0  0  0  0
   13.3810   -2.1340   25.1240 C   0  0  0  0  0  0  0  0  0  0  0  0
  1  2  1  0
  2  3  1  0
  2  4  2  0
  3  5  1  0
  5  6  1  1
  5  7  1  0
  7  8  1  0
  7  9  2  0
  6 10  1  0
 10 11  1  0
 10 12  2  0
 13  8  1  1
 13 14  1  0
 13 15  1  0
 15 16  1  0
 14 17  1  0
 16 18  1  0
 16 19  1  0
 17 19  1  0
 17 20  1  1
 18 21  1  0
 18 22  2  0
 20 23  2  0
 20 24  1  0
 24 25  1  0
 23 26  1  0
 25 26  2  0
 26 27  1  0
 25 28  1  0
 27 29  2  0
 28 30  2  0
 29 30  1  0
M  END
