x0749-x2569
     RDKit          3D

 36 41  0  0  0  0  0  0  0  0999 V2000
    8.1880    0.2420   21.9230 C   0  0  0  0  0  0  0  0  0  0  0  0
    8.8470   -0.3700   23.1700 C   0  0  1  0  0  0  0  0  0  0  0  0
    8.8940   -1.8730   23.1530 C   0  0  0  0  0  0  0  0  0  0  0  0
    8.8520    1.4000   21.3700 O   0  0  0  0  0  0  0  0  0  0  0  0
    7.0970   -0.3030   21.4750 N   0  0  0  0  0  0  0  0  0  0  0  0
   10.2780    0.1970   23.3250 C   0  0  1  0  0  0  0  0  0  0  0  0
    6.3820    0.2380   20.2900 C   0  0  0  0  0  0  0  0  0  0  0  0
   11.1320    0.0090   24.3720 N   0  0  0  0  0  0  0  0  0  0  0  0
   10.9990   -0.1340   22.2140 C   0  0  0  0  0  0  0  0  0  0  0  0
    6.9920   -0.0440   18.9000 C   0  0  0  0  0  0  0  0  0  0  0  0
    5.2230    0.9670   20.5090 C   0  0  0  0  0  0  0  0  0  0  0  0
    9.6040   -2.5440   24.2750 N   0  0  0  0  0  0  0  0  0  0  0  0
   12.2840    0.6200   23.7050 C   0  0  0  0  0  0  0  0  0  0  0  0
   12.2790    0.3450   22.4050 C   0  0  1  0  0  0  0  0  0  0  0  0
    6.4120    0.4400   17.7900 N   0  0  0  0  0  0  0  0  0  0  0  0
    4.4780    1.5540   19.3180 C   0  0  0  0  0  0  0  0  0  0  0  0
    9.6240   -3.9120   23.9820 C   0  0  2  0  0  0  0  0  0  0  0  0
   11.0100   -2.3880   24.3050 C   0  0  1  0  0  0  0  0  0  0  0  0
   11.6320   -1.1870   24.5790 C   0  0  2  0  0  0  0  0  0  0  0  0
   13.0880   -0.7710   21.8880 C   0  0  0  0  0  0  0  0  0  0  0  0
    5.1710    1.2300   17.9930 C   0  0  0  0  0  0  0  0  0  0  0  0
    8.4440   -4.7980   23.4470 C   0  0  2  0  0  0  0  0  0  0  0  0
   10.3870   -4.6070   25.3790 S   0  0  0  0  0  0  0  0  0  0  0  0
   11.6880   -3.5520   24.8560 C   0  0  2  0  0  0  0  0  0  0  0  0
   12.8340   -1.1640   25.2490 C   0  0  0  0  0  0  0  0  0  0  0  0
   13.6130   -1.8100   21.1770 N   0  0  0  0  0  0  0  0  0  0  0  0
    8.1410   -4.4380   22.1200 C   0  0  0  0  0  0  0  0  0  0  0  0
    7.3080   -4.8550   24.2230 C   0  0  0  0  0  0  0  0  0  0  0  0
   13.5460   -2.3630   25.8130 C   0  0  0  0  0  0  0  0  0  0  0  0
   13.0230   -3.5870   25.7450 C   0  0  0  0  0  0  0  0  0  0  0  0
    6.8640   -4.3490   21.6700 N   0  0  0  0  0  0  0  0  0  0  0  0
    6.4270   -5.7380   23.5490 C   0  0  0  0  0  0  0  0  0  0  0  0
    6.5220   -4.0300   20.3430 C   0  0  0  0  0  0  0  0  0  0  0  0
    6.0170   -5.2980   22.2730 C   0  0  0  0  0  0  0  0  0  0  0  0
    7.4890   -3.2410   19.4300 C   0  0  0  0  0  0  0  0  0  0  0  0
    5.4360   -4.4010   19.8800 O   0  0  0  0  0  0  0  0  0  0  0  0
  2  1  1  6
  2  3  1  0
  1  4  2  0
  1  5  1  0
  2  6  1  0
  5  7  1  0
  6  8  1  0
  6  9  1  6
  7 10  2  0
  7 11  1  0
  3 12  1  0
  8 13  1  0
  9 14  1  0
 13 14  1  0
 10 15  1  0
 11 16  2  0
 12 17  1  0
 18 12  1  1
  8 19  1  0
 18 19  1  0
 14 20  1  1
 15 21  2  0
 16 21  1  0
 17 22  1  0
 17 23  1  1
 18 24  1  0
 23 24  1  0
 19 25  1  1
 20 26  3  0
 22 27  1  6
 22 28  1  0
 25 29  2  0
 24 30  1  1
 29 30  1  0
 27 31  1  0
 28 32  1  0
 31 33  1  0
 31 34  1  0
 32 34  1  0
 33 35  1  0
 33 36  2  0
M  END
