x0749-x2703
     RDKit          3D

 44 50  0  0  0  0  0  0  0  0999 V2000
    7.4440   -0.9630   21.4810 N   0  0  0  0  0  0  0  0  0  0  0  0
    6.8320    0.2330   21.5500 C   0  0  1  0  0  0  0  0  0  0  0  0
    7.7920    1.3620   21.7360 C   0  0  0  0  0  0  0  0  0  0  0  0
    8.5990   -1.0040   22.3630 C   0  0  1  0  0  0  0  0  0  0  0  0
    6.1810    0.6140   20.2950 C   0  0  0  0  0  0  0  0  0  0  0  0
    8.2260   -1.5480   23.5940 C   0  0  0  0  0  0  0  0  0  0  0  0
    9.6500   -1.5930   21.6250 C   0  0  0  0  0  0  0  0  0  0  0  0
    7.4800    2.1950   22.7690 N   0  0  0  0  0  0  0  0  0  0  0  0
    8.7760    1.5530   21.0290 O   0  0  0  0  0  0  0  0  0  0  0  0
    4.8870    1.4050   20.1610 C   0  0  0  0  0  0  0  0  0  0  0  0
    6.7690    0.2550   19.1050 C   0  0  0  0  0  0  0  0  0  0  0  0
   10.7900   -1.9850   22.4780 N   0  0  0  0  0  0  0  0  0  0  0  0
    9.0640   -2.4010   24.2230 C   0  0  2  0  0  0  0  0  0  0  0  0
    6.2710    0.5840   17.7540 N   0  0  0  0  0  0  0  0  0  0  0  0
    4.4180    1.7150   18.9110 C   0  0  0  0  0  0  0  0  0  0  0  0
   10.4850   -2.0980   23.8990 C   0  0  1  0  0  0  0  0  0  0  0  0
    8.1220    3.4360   22.8920 C   0  0  0  0  0  0  0  0  0  0  0  0
    9.1600   -3.8090   23.5660 C   0  0  2  0  0  0  0  0  0  0  0  0
    5.0870    1.3280   17.7530 C   0  0  0  0  0  0  0  0  0  0  0  0
    9.3790    3.4540   23.4970 C   0  0  0  0  0  0  0  0  0  0  0  0
    7.4600    4.7060   22.3730 C   0  0  0  0  0  0  0  0  0  0  0  0
    8.0280   -4.6220   22.9620 C   0  0  2  0  0  0  0  0  0  0  0  0
   10.3570   -4.6050   24.6360 S   0  0  0  0  0  0  0  0  0  0  0  0
   11.2730   -3.0800   24.7080 C   0  0  1  0  0  0  0  0  0  0  0  0
   10.8820   -0.9180   24.5140 C   0  0  0  0  0  0  0  0  0  0  0  0
   10.0020    2.2600   23.9850 C   0  0  0  0  0  0  0  0  0  0  0  0
    6.1040    4.6600   21.7210 C   0  0  0  0  0  0  0  0  0  0  0  0
   12.3900   -1.1890   24.2470 C   0  0  2  0  0  0  0  0  0  0  0  0
   10.1890    4.6030   23.7090 C   0  0  0  0  0  0  0  0  0  0  0  0
    8.2650    5.9470   22.5690 C   0  0  0  0  0  0  0  0  0  0  0  0
    7.1890   -3.8390   22.2500 C   0  0  0  0  0  0  0  0  0  0  0  0
    7.5230   -5.6630   23.7160 C   0  0  0  0  0  0  0  0  0  0  0  0
   12.5360   -2.6790   24.0900 C   0  0  1  0  0  0  0  0  0  0  0  0
    9.1070    1.5470   25.0050 C   0  0  0  0  0  0  0  0  0  0  0  0
    9.5180    5.9050   23.1820 C   0  0  0  0  0  0  0  0  0  0  0  0
    6.5010   -4.5830   21.2420 N   0  0  0  0  0  0  0  0  0  0  0  0
    6.7240   -6.5190   22.9070 C   0  0  0  0  0  0  0  0  0  0  0  0
   13.1150   -1.1140   25.4620 C   0  0  0  0  0  0  0  0  0  0  0  0
   13.6900   -2.9760   24.6570 C   0  0  0  0  0  0  0  0  0  0  0  0
    6.2120   -3.9780   20.0360 C   0  0  0  0  0  0  0  0  0  0  0  0
    5.9770   -5.7820   21.7110 C   0  0  0  0  0  0  0  0  0  0  0  0
   13.9830   -2.2210   25.9090 C   0  0  0  0  0  0  0  0  0  0  0  0
    7.3340   -3.2650   19.2470 C   0  0  0  0  0  0  0  0  0  0  0  0
    5.0760   -4.0380   19.6030 O   0  0  0  0  0  0  0  0  0  0  0  0
  2  1  1  6
  2  3  1  0
  4  1  1  6
  2  5  1  0
  4  6  1  0
  4  7  1  0
  3  8  1  0
  3  9  2  0
  5 10  2  0
  5 11  1  0
  7 12  1  0
 13  6  1  6
 11 14  2  0
 10 15  1  0
 16 12  1  0
 13 16  1  0
  8 17  1  0
 13 18  1  0
 14 19  1  0
 15 19  2  0
 17 20  2  0
 17 21  1  0
 18 22  1  0
 18 23  1  1
 16 24  1  0
 24 23  1  6
 16 25  1  1
 20 26  1  0
 21 27  1  0
 28 25  1  1
 20 29  1  0
 21 30  2  0
 22 31  1  1
 22 32  1  0
 24 33  1  0
 28 33  1  0
 26 34  1  0
 29 35  2  0
 30 35  1  0
 31 36  1  0
 32 37  1  0
 28 38  1  0
 33 39  1  1
 36 40  1  0
 36 41  1  0
 37 41  1  0
 38 42  2  0
 39 42  1  0
 40 43  1  0
 40 44  2  0
M  END
