x0749-x2912
     RDKit          3D

 37 42  0  0  0  0  0  0  0  0999 V2000
    7.1670   -0.8290   21.5230 N   0  0  0  0  0  0  0  0  0  0  0  0
    8.5060   -0.4840   21.9810 C   0  0  0  0  0  0  0  0  0  0  0  0
    9.1010    0.3060   21.2690 O   0  0  0  0  0  0  0  0  0  0  0  0
    6.5440   -0.1440   20.3340 C   0  0  0  0  0  0  0  0  0  0  0  0
    9.2340   -0.9290   23.3350 C   0  0  2  0  0  0  0  0  0  0  0  0
    5.4740    0.7550   20.5410 C   0  0  0  0  0  0  0  0  0  0  0  0
    6.9750   -0.3440   18.9900 C   0  0  0  0  0  0  0  0  0  0  0  0
    8.5250   -0.3840   24.5580 C   0  0  0  0  0  0  0  0  0  0  0  0
    4.9530    1.0580   21.8140 C   0  0  0  0  0  0  0  0  0  0  0  0
    6.2890    0.3920   17.8440 N   0  0  0  0  0  0  0  0  0  0  0  0
    4.8380    1.4330   19.4850 C   0  0  0  0  0  0  0  0  0  0  0  0
   10.5260   -0.2640   22.9540 C   0  0  1  0  0  0  0  0  0  0  0  0
    9.7650   -2.4510   23.5840 C   0  0  2  0  0  0  0  0  0  0  0  0
    5.2000    1.2870   18.1550 C   0  0  0  0  0  0  0  0  0  0  0  0
   11.5140   -0.1170   23.8080 C   0  0  2  0  0  0  0  0  0  0  0  0
   11.1750   -1.0580   21.9610 C   0  0  0  0  0  0  0  0  0  0  0  0
    8.9960   -3.3790   24.3380 C   0  0  1  0  0  0  0  0  0  0  0  0
   11.1540   -2.5470   24.0900 C   0  0  2  0  0  0  0  0  0  0  0  0
   12.6900    0.2960   22.9500 C   0  0  0  0  0  0  0  0  0  0  0  0
   12.5620   -1.0400   22.1950 C   0  0  2  0  0  0  0  0  0  0  0  0
    8.1040   -4.2200   23.6170 C   0  0  1  0  0  0  0  0  0  0  0  0
   10.1250   -4.4620   25.1490 S   0  0  0  0  0  0  0  0  0  0  0  0
   11.2150   -3.1900   25.2530 C   0  0  1  0  0  0  0  0  0  0  0  0
   12.0350   -1.4580   24.1160 C   0  0  2  0  0  0  0  0  0  0  0  0
   13.5250   -1.1400   21.0620 C   0  0  0  0  0  0  0  0  0  0  0  0
    8.1110   -3.8150   22.1460 C   0  0  0  0  0  0  0  0  0  0  0  0
    8.1620   -5.6180   23.8480 C   0  0  0  0  0  0  0  0  0  0  0  0
   13.0070   -1.3120   25.0560 C   0  0  0  0  0  0  0  0  0  0  0  0
   12.5950   -3.5400   25.4910 C   0  0  0  0  0  0  0  0  0  0  0  0
   14.2790   -1.0600   19.9710 N   0  0  0  0  0  0  0  0  0  0  0  0
    6.8360   -4.3150   21.5860 N   0  0  0  0  0  0  0  0  0  0  0  0
    6.9070   -6.2590   23.1780 C   0  0  0  0  0  0  0  0  0  0  0  0
   13.4620   -2.5370   25.8650 C   0  0  0  0  0  0  0  0  0  0  0  0
    6.4950   -4.0000   20.2650 C   0  0  0  0  0  0  0  0  0  0  0  0
    6.3800   -5.5530   21.9540 C   0  0  0  0  0  0  0  0  0  0  0  0
    7.4720   -3.2290   19.3520 C   0  0  0  0  0  0  0  0  0  0  0  0
    5.3970   -4.3540   19.8340 O   0  0  0  0  0  0  0  0  0  0  0  0
  1  2  1  0
  2  3  2  0
  1  4  1  0
  5  2  1  0
  4  6  2  0
  4  7  1  0
  5  8  1  1
  6  9  1  0
  7 10  2  0
  6 11  1  0
  5 12  1  0
  5 13  1  0
 10 14  1  0
 11 14  2  0
 12 15  1  0
 12 16  1  6
 13 17  1  1
 13 18  1  0
 15 19  1  6
 16 20  1  0
 19 20  1  0
 17 21  1  0
 17 22  1  6
 18 23  1  1
 22 23  1  0
 15 24  1  0
 18 24  1  0
 20 25  1  6
 21 26  1  6
 21 27  1  0
 24 28  1  1
 23 29  1  6
 25 30  3  0
 26 31  1  0
 27 32  1  0
 28 33  2  0
 29 33  1  0
 31 34  1  0
 31 35  1  0
 32 35  1  0
 34 36  1  0
 34 37  2  0
M  END
