x0749-x1093
     RDKit          3D

 35 40  0  0  0  0  0  0  0  0999 V2000
    7.4280   -3.2970   19.3890 C   0  0  0  0  0  0  0  0  0  0  0  0
    6.6060   -3.9860   20.2110 C   0  0  0  0  0  0  0  0  0  0  0  0
    5.4790   -4.3220   19.8330 O   0  0  0  0  0  0  0  0  0  0  0  0
    7.0410   -4.3620   21.4890 N   0  0  0  0  0  0  0  0  0  0  0  0
    8.2630   -3.8300   22.0170 C   0  0  0  0  0  0  0  0  0  0  0  0
    6.4970   -5.5270   22.0340 C   0  0  0  0  0  0  0  0  0  0  0  0
    8.2810   -4.0970   23.3590 C   0  0  1  0  0  0  0  0  0  0  0  0
    7.2340   -6.1710   23.0450 C   0  0  0  0  0  0  0  0  0  0  0  0
    8.2860   -5.4660   23.6990 C   0  0  0  0  0  0  0  0  0  0  0  0
    9.2750   -3.2810   23.9140 C   0  0  2  0  0  0  0  0  0  0  0  0
   10.5150   -2.7210   23.0870 C   0  0  2  0  0  0  0  0  0  0  0  0
   10.0370   -3.8860   25.3430 S   0  0  0  0  0  0  0  0  0  0  0  0
   11.4590   -3.1100   24.8410 C   0  0  1  0  0  0  0  0  0  0  0  0
   11.0370   -1.8210   24.0150 C   0  0  1  0  0  0  0  0  0  0  0  0
   10.6210   -1.8200   21.9460 C   0  0  0  0  0  0  0  0  0  0  0  0
   12.2620   -1.0610   23.4610 C   0  0  2  0  0  0  0  0  0  0  0  0
   12.7290   -3.1430   25.4690 C   0  0  0  0  0  0  0  0  0  0  0  0
   10.1940   -0.5520   21.9880 C   0  0  0  0  0  0  0  0  0  0  0  0
    9.8890   -0.8830   24.1920 C   0  0  0  0  0  0  0  0  0  0  0  0
   13.1710   -1.9140   22.5810 C   0  0  0  0  0  0  0  0  0  0  0  0
   13.0180   -0.7970   24.4750 C   0  0  0  0  0  0  0  0  0  0  0  0
   13.2700   -1.8790   25.4860 C   0  0  0  0  0  0  0  0  0  0  0  0
    9.6120   -0.1100   23.0250 N   0  0  0  0  0  0  0  0  0  0  0  0
    8.3490    0.1990   22.4830 C   0  0  0  0  0  0  0  0  0  0  0  0
    7.8300    1.2990   22.6540 O   0  0  0  0  0  0  0  0  0  0  0  0
    7.7470   -0.7780   21.6490 C   0  0  0  0  0  0  0  0  0  0  0  0
    7.0000   -0.2280   20.3730 C   0  0  0  0  0  0  0  0  0  0  0  0
    7.2970   -0.4800   18.9300 C   0  0  0  0  0  0  0  0  0  0  0  0
    5.8990    0.5930   20.3950 C   0  0  0  0  0  0  0  0  0  0  0  0
    6.3260    0.2400   18.1280 N   0  0  0  0  0  0  0  0  0  0  0  0
    5.4330    0.9210   19.0870 C   0  0  0  0  0  0  0  0  0  0  0  0
    5.1620    1.1510   21.4340 C   0  0  0  0  0  0  0  0  0  0  0  0
    4.4000    1.6850   18.6860 N   0  0  0  0  0  0  0  0  0  0  0  0
    3.9870    2.0120   21.0120 C   0  0  0  0  0  0  0  0  0  0  0  0
    3.6610    2.2390   19.6870 C   0  0  0  0  0  0  0  0  0  0  0  0
  1  2  1  0
  2  3  2  0
  2  4  1  0
  4  5  1  0
  4  6  1  0
  7  5  1  6
  6  8  1  0
  7  9  1  0
  8  9  1  0
  7 10  1  0
 10 11  1  0
 10 12  1  1
 12 13  1  0
 11 14  1  0
 13 14  1  0
 11 15  1  6
 14 16  1  0
 13 17  1  1
 15 18  2  0
 14 19  1  1
 16 20  1  6
 16 21  1  0
 17 22  1  0
 21 22  2  0
 18 23  1  0
 19 23  1  0
 23 24  1  0
 24 25  2  0
 24 26  1  0
 26 27  1  0
 27 28  2  0
 27 29  1  0
 28 30  1  0
 29 31  2  0
 30 31  1  0
 29 32  1  0
 31 33  1  0
 32 34  2  0
 33 35  2  0
 34 35  1  0
M  END
