x0749-x2646
     RDKit          3D

 35 40  0  0  0  0  0  0  0  0999 V2000
    4.7240    1.2990   21.9030 C   0  0  0  0  0  0  0  0  0  0  0  0
    5.3380    0.9490   20.5900 C   0  0  0  0  0  0  0  0  0  0  0  0
    6.3930    0.0260   20.4820 C   0  0  0  0  0  0  0  0  0  0  0  0
    4.7370    1.6860   19.2710 C   0  0  0  0  0  0  0  0  0  0  0  0
    6.9040   -0.6170   21.6870 N   0  0  0  0  0  0  0  0  0  0  0  0
    6.9610   -0.2770   19.2010 C   0  0  0  0  0  0  0  0  0  0  0  0
    5.4230    1.2780   17.9860 C   0  0  0  0  0  0  0  0  0  0  0  0
    8.3300   -0.6760   21.9440 C   0  0  0  0  0  0  0  0  0  0  0  0
    6.4420    0.3820   17.9440 N   0  0  0  0  0  0  0  0  0  0  0  0
    9.0060   -0.6210   20.9620 O   0  0  0  0  0  0  0  0  0  0  0  0
    9.1130   -0.6620   23.3240 C   0  0  2  0  0  0  0  0  0  0  0  0
   10.3920   -0.1980   22.7400 C   0  0  1  0  0  0  0  0  0  0  0  0
    9.5600   -1.9120   24.2260 C   0  0  1  0  0  0  0  0  0  0  0  0
   11.6260    0.0780   23.5610 C   0  0  2  0  0  0  0  0  0  0  0  0
   11.1120   -1.2910   21.8920 C   0  0  0  0  0  0  0  0  0  0  0  0
    9.3580   -3.4360   23.9790 C   0  0  2  0  0  0  0  0  0  0  0  0
   11.0960   -2.1460   24.1510 C   0  0  2  0  0  0  0  0  0  0  0  0
   12.7150    0.0550   22.7150 C   0  0  0  0  0  0  0  0  0  0  0  0
   12.4760   -1.2030   22.0900 C   0  0  2  0  0  0  0  0  0  0  0  0
    8.1460   -4.0300   23.5670 C   0  0  1  0  0  0  0  0  0  0  0  0
   10.1700   -4.3440   25.2000 S   0  0  0  0  0  0  0  0  0  0  0  0
   11.5410   -3.4100   24.7790 C   0  0  2  0  0  0  0  0  0  0  0  0
   11.9470   -1.1340   24.1880 C   0  0  2  0  0  0  0  0  0  0  0  0
   13.5710   -1.5200   20.8780 Cl  0  0  0  0  0  0  0  0  0  0  0  0
    8.0990   -3.8290   22.1780 C   0  0  0  0  0  0  0  0  0  0  0  0
    8.0770   -5.4140   23.8430 C   0  0  0  0  0  0  0  0  0  0  0  0
   12.9940   -1.0470   25.1870 C   0  0  0  0  0  0  0  0  0  0  0  0
   12.7390   -3.4600   25.5890 C   0  0  0  0  0  0  0  0  0  0  0  0
    6.8150   -4.2830   21.6390 N   0  0  0  0  0  0  0  0  0  0  0  0
    7.1070   -6.1500   23.0980 C   0  0  0  0  0  0  0  0  0  0  0  0
   13.4470   -2.1510   25.8200 C   0  0  0  0  0  0  0  0  0  0  0  0
    6.4980   -3.9910   20.3090 C   0  0  0  0  0  0  0  0  0  0  0  0
    6.3530   -5.5070   22.1070 C   0  0  0  0  0  0  0  0  0  0  0  0
    7.5040   -3.2620   19.4030 C   0  0  0  0  0  0  0  0  0  0  0  0
    5.4070   -4.3420   19.8460 O   0  0  0  0  0  0  0  0  0  0  0  0
  1  2  1  0
  2  3  2  0
  2  4  1  0
  3  5  1  0
  3  6  1  0
  4  7  2  0
  5  8  1  0
  6  9  2  0
  7  9  1  0
  8 10  2  0
 11  8  1  6
 11 12  1  0
 13 11  1  6
 12 14  1  0
 12 15  1  6
 13 16  1  0
 13 17  1  0
 14 18  1  6
 15 19  1  0
 18 19  1  0
 16 20  1  0
 16 21  1  1
 17 22  1  1
 21 22  1  0
 14 23  1  0
 17 23  1  0
 19 24  1  6
 20 25  1  6
 20 26  1  0
 23 27  1  1
 22 28  1  1
 25 29  1  0
 26 30  1  0
 27 31  2  0
 28 31  1  0
 29 32  1  0
 29 33  1  0
 30 33  1  0
 32 34  1  0
 32 35  2  0
M  END
