x0749-x0107
     RDKit          3D

 30 34  0  0  0  0  0  0  0  0999 V2000
    7.3550   -3.2670   19.3600 C   0  0  0  0  0  0  0  0  0  0  0  0
    6.4760   -3.9210   20.1670 C   0  0  0  0  0  0  0  0  0  0  0  0
    5.3560   -4.2070   19.7520 O   0  0  0  0  0  0  0  0  0  0  0  0
    6.7870   -4.3180   21.4550 N   0  0  0  0  0  0  0  0  0  0  0  0
    7.9960   -3.8370   22.0890 C   0  0  0  0  0  0  0  0  0  0  0  0
    6.2450   -5.5660   22.0750 C   0  0  0  0  0  0  0  0  0  0  0  0
    8.1880   -4.0110   23.4420 C   0  0  1  0  0  0  0  0  0  0  0  0
    7.3280   -6.2060   22.6820 C   0  0  0  0  0  0  0  0  0  0  0  0
    7.9110   -5.5820   23.8160 C   0  0  0  0  0  0  0  0  0  0  0  0
    9.5360   -3.6040   23.7070 C   0  0  1  0  0  0  0  0  0  0  0  0
    9.6960   -2.0830   23.7060 N   0  0  0  0  0  0  0  0  0  0  0  0
   10.3160   -4.3030   25.0690 S   0  0  0  0  0  0  0  0  0  0  0  0
    9.9410   -1.4300   22.5230 C   0  0  1  0  0  0  0  0  0  0  0  0
   11.5590   -3.2350   24.7130 C   0  0  1  0  0  0  0  0  0  0  0  0
   10.7870   -1.8880   24.7050 C   0  0  1  0  0  0  0  0  0  0  0  0
    8.9810   -0.4100   21.8100 C   0  0  0  0  0  0  0  0  0  0  0  0
   11.3370   -0.7230   22.6420 C   0  0  0  0  0  0  0  0  0  0  0  0
   11.6080   -0.7730   24.1080 C   0  0  2  0  0  0  0  0  0  0  0  0
   12.7640   -3.2470   25.4090 C   0  0  0  0  0  0  0  0  0  0  0  0
    9.4460    0.7350   21.7140 O   0  0  0  0  0  0  0  0  0  0  0  0
    7.7410   -0.8640   21.3730 N   0  0  0  0  0  0  0  0  0  0  0  0
   12.9210   -0.8690   24.4090 C   0  0  0  0  0  0  0  0  0  0  0  0
   13.4860   -2.1320   25.0840 C   0  0  0  0  0  0  0  0  0  0  0  0
    6.9230   -0.1910   20.3410 C   0  0  0  0  0  0  0  0  0  0  0  0
    5.8510    0.5850   20.8220 C   0  0  0  0  0  0  0  0  0  0  0  0
    7.1620   -0.2980   18.9630 C   0  0  0  0  0  0  0  0  0  0  0  0
    5.5340    0.7350   22.2640 C   0  0  0  0  0  0  0  0  0  0  0  0
    5.0440    1.2570   19.6710 C   0  0  0  0  0  0  0  0  0  0  0  0
    6.4190    0.3260   17.8560 N   0  0  0  0  0  0  0  0  0  0  0  0
    5.3420    1.1200   18.1840 C   0  0  0  0  0  0  0  0  0  0  0  0
  1  2  1  0
  2  3  2  0
  2  4  1  0
  4  5  1  0
  4  6  1  0
  7  5  1  6
  6  8  1  0
  7  9  1  0
  8  9  1  0
  7 10  1  0
 10 11  1  0
 10 12  1  1
 11 13  1  0
 12 14  1  0
 15 11  1  6
 14 15  1  0
 13 16  1  1
 13 17  1  0
 15 18  1  0
 18 17  1  6
 14 19  1  1
 16 20  2  0
 16 21  1  0
 18 22  1  0
 19 23  1  0
 22 23  2  0
 21 24  1  0
 24 25  2  0
 24 26  1  0
 25 27  1  0
 25 28  1  0
 26 29  2  0
 28 30  2  0
 29 30  1  0
M  END
