x0749-x3303
     RDKit          3D

 36 42  0  0  0  0  0  0  0  0999 V2000
    7.3380   -3.2740   19.2530 C   0  0  0  0  0  0  0  0  0  0  0  0
    6.4680   -3.9000   20.0920 C   0  0  0  0  0  0  0  0  0  0  0  0
    5.3340   -4.1710   19.7110 O   0  0  0  0  0  0  0  0  0  0  0  0
    6.7950   -4.3000   21.3970 N   0  0  0  0  0  0  0  0  0  0  0  0
    7.9640   -3.7840   22.1350 C   0  0  2  0  0  0  0  0  0  0  0  0
    6.1390   -5.4430   22.0080 C   0  0  0  0  0  0  0  0  0  0  0  0
    7.9860   -4.1770   23.4790 C   0  0  1  0  0  0  0  0  0  0  0  0
    6.8400   -6.2300   22.9130 C   0  0  0  0  0  0  0  0  0  0  0  0
    8.3320   -2.3150   21.8160 C   0  0  2  0  0  0  0  0  0  0  0  0
    7.7280   -5.5260   23.7750 C   0  0  0  0  0  0  0  0  0  0  0  0
    9.2090   -3.7720   23.9810 C   0  0  0  0  0  0  0  0  0  0  0  0
    8.9230   -1.7690   22.8840 N   0  0  0  0  0  0  0  0  0  0  0  0
    7.4110   -1.3060   21.5450 N   0  0  0  0  0  0  0  0  0  0  0  0
    6.1860   -1.4190   21.1170 C   0  0  0  0  0  0  0  0  0  0  0  0
    9.7480   -2.5240   23.6730 C   0  0  0  0  0  0  0  0  0  0  0  0
   10.2620   -4.6580   24.9970 S   0  0  0  0  0  0  0  0  0  0  0  0
    8.1220   -0.0930   21.7150 C   0  0  0  0  0  0  0  0  0  0  0  0
    9.1360   -0.4440   22.5590 C   0  0  0  0  0  0  0  0  0  0  0  0
    5.3840   -2.3030   21.4260 O   0  0  0  0  0  0  0  0  0  0  0  0
   11.4860   -3.3760   24.9780 C   0  0  0  0  0  0  0  0  0  0  0  0
   11.0940   -2.2560   24.2330 C   0  0  0  0  0  0  0  0  0  0  0  0
    5.7390   -0.3440   20.2050 C   0  0  0  0  0  0  0  0  0  0  0  0
   11.8420   -1.1520   24.0710 C   0  0  0  0  0  0  0  0  0  0  0  0
   12.7850   -3.3830   25.6220 C   0  0  0  0  0  0  0  0  0  0  0  0
    4.7170    0.5560   20.5010 C   0  0  0  0  0  0  0  0  0  0  0  0
    6.3260   -0.1360   18.9460 C   0  0  0  0  0  0  0  0  0  0  0  0
   13.1690   -1.0680   24.6800 C   0  0  0  0  0  0  0  0  0  0  0  0
   13.6430   -2.2840   25.5020 C   0  0  0  0  0  0  0  0  0  0  0  0
    4.2690    1.5860   19.6830 C   0  0  0  0  0  0  0  0  0  0  0  0
    5.8080    0.9370   18.1830 C   0  0  0  0  0  0  0  0  0  0  0  0
    4.0940    0.3130   21.8640 C   0  0  0  0  0  0  0  0  0  0  0  0
    6.3330    1.1890   16.9720 O   0  0  0  0  0  0  0  0  0  0  0  0
    4.8180    1.7890   18.5080 N   0  0  0  0  0  0  0  0  0  0  0  0
    2.9530    1.2480   22.3010 C   0  0  0  0  0  0  0  0  0  0  0  0
    3.2650    2.4120   20.0600 C   0  0  0  0  0  0  0  0  0  0  0  0
    2.5530    2.2620   21.4250 C   0  0  0  0  0  0  0  0  0  0  0  0
  1  2  1  0
  2  3  2  0
  2  4  1  0
  5  4  1  1
  4  6  1  0
  5  7  1  0
  6  8  1  0
  5  9  1  0
  7 10  1  6
  8 10  1  0
  7 11  1  0
  9 12  1  0
  9 13  1  1
 13 14  1  0
 11 15  2  0
 12 15  1  0
 11 16  1  0
 13 17  1  0
 12 18  1  0
 17 18  1  0
 14 19  2  0
 16 20  1  0
 15 21  1  0
 20 21  2  0
 14 22  1  0
 21 23  1  0
 20 24  1  0
 22 25  1  0
 22 26  2  0
 23 27  2  0
 24 28  2  0
 27 28  1  0
 25 29  2  0
 26 30  1  0
 25 31  1  0
 30 32  1  0
 29 33  1  0
 30 33  2  0
 31 34  2  0
 29 35  1  0
 34 36  1  0
 35 36  2  0
M  END
