x0749-x0195
     RDKit          3D

 32 36  0  0  0  0  0  0  0  0999 V2000
    7.3520   -3.2370   19.2880 C   0  0  0  0  0  0  0  0  0  0  0  0
    6.4670   -3.8730   20.0790 C   0  0  0  0  0  0  0  0  0  0  0  0
    5.3260   -4.1040   19.7020 O   0  0  0  0  0  0  0  0  0  0  0  0
    6.8520   -4.3080   21.3220 N   0  0  0  0  0  0  0  0  0  0  0  0
    7.4710   -3.4950   22.2250 C   0  0  0  0  0  0  0  0  0  0  0  0
    6.1950   -5.4890   21.8740 C   0  0  0  0  0  0  0  0  0  0  0  0
    8.4110   -4.2850   23.0870 C   0  0  2  0  0  0  0  0  0  0  0  0
    6.8700   -6.2420   22.8550 C   0  0  0  0  0  0  0  0  0  0  0  0
    7.8760   -5.4160   23.6830 C   0  0  0  0  0  0  0  0  0  0  0  0
    9.2990   -3.3890   23.9560 C   0  0  2  0  0  0  0  0  0  0  0  0
    9.8200   -2.0800   23.5100 N   0  0  0  0  0  0  0  0  0  0  0  0
   10.5250   -4.3240   24.6290 S   0  0  0  0  0  0  0  0  0  0  0  0
   11.5970   -2.9510   24.8410 C   0  0  2  0  0  0  0  0  0  0  0  0
   11.2380   -1.9260   23.8000 C   0  0  2  0  0  0  0  0  0  0  0  0
    8.9210   -1.1260   23.9360 C   0  0  0  0  0  0  0  0  0  0  0  0
   11.6090   -0.7060   24.2180 C   0  0  1  0  0  0  0  0  0  0  0  0
   12.9640   -3.0380   24.9760 C   0  0  0  0  0  0  0  0  0  0  0  0
   12.1670   -1.9600   22.8110 C   0  0  0  0  0  0  0  0  0  0  0  0
    9.2080   -0.4650   25.3050 C   0  0  0  0  0  0  0  0  0  0  0  0
   12.6460   -0.6840   25.1300 C   0  0  0  0  0  0  0  0  0  0  0  0
   13.3330   -1.8700   25.4830 C   0  0  0  0  0  0  0  0  0  0  0  0
   11.1830    0.5610   23.5330 C   0  0  2  0  0  0  0  0  0  0  0  0
   12.6850   -0.7180   22.2740 C   0  0  0  0  0  0  0  0  0  0  0  0
   12.1840    0.5820   22.6890 C   0  0  2  0  0  0  0  0  0  0  0  0
   10.6610    1.9780   23.9380 C   0  0  0  0  0  0  0  0  0  0  0  0
   13.0320    1.6650   22.8090 C   0  0  0  0  0  0  0  0  0  0  0  0
   11.2360    3.0140   23.1520 C   0  0  1  0  0  0  0  0  0  0  0  0
   10.6340    4.6520   23.4350 S   0  0  0  0  0  0  0  0  0  0  0  0
   12.6350    3.0140   23.0240 C   0  0  0  0  0  0  0  0  0  0  0  0
   11.0350    5.2300   24.6850 O   0  0  0  0  0  0  0  0  0  0  0  0
    9.2450    4.6940   23.0320 O   0  0  0  0  0  0  0  0  0  0  0  0
   11.4500    5.6210   22.3350 N   0  0  0  0  0  0  0  0  0  0  0  0
  1  2  1  0
  2  3  2  0
  2  4  1  0
  4  5  1  0
  4  6  1  0
  7  5  1  1
  6  8  1  0
  7  9  1  0
  8  9  1  0
  7 10  1  0
 10 11  1  0
 10 12  1  6
 12 13  1  0
 11 14  1  0
 13 14  1  0
 11 15  1  0
 14 16  1  0
 13 17  1  6
 14 18  1  6
 15 19  1  0
 16 20  1  6
 17 21  1  0
 20 21  2  0
 16 22  1  0
 18 23  2  0
 22 24  1  0
 24 23  1  1
 22 25  1  1
 24 26  1  0
 25 27  1  0
 27 28  1  1
 26 29  2  0
 27 29  1  0
 28 30  2  0
 28 31  2  0
 28 32  1  0
M  END
