x0755-x0978-x3115
     RDKit          3D

 55 58  0  0  0  0  0  0  0  0999 V2000
    6.9710   -1.1560   21.6830 N   0  0  0  0  0  0  0  0  0  0  0  0
    6.6580    0.1890   21.6640 C   0  0  1  0  0  0  0  0  0  0  0  0
    7.5730    1.1650   21.9610 C   0  0  0  0  0  0  0  0  0  0  0  0
    5.8640   -2.0360   21.9080 C   0  0  0  0  0  0  0  0  0  0  0  0
    8.2130   -1.4060   22.4200 C   0  0  0  0  0  0  0  0  0  0  0  0
    5.9570   -3.1880   22.6680 C   0  0  0  0  0  0  0  0  0  0  0  0
    6.1630    0.5190   20.2400 C   0  0  0  0  0  0  0  0  0  0  0  0
    9.4050   -1.3420   21.6510 C   0  0  0  0  0  0  0  0  0  0  0  0
    8.3550   -1.7070   23.9220 C   0  0  0  0  0  0  0  0  0  0  0  0
    7.3360    2.0210   23.0950 N   0  0  0  0  0  0  0  0  0  0  0  0
    8.6710    1.2810   21.0440 O   0  0  0  0  0  0  0  0  0  0  0  0
    4.9520    1.4450   20.1760 C   0  0  0  0  0  0  0  0  0  0  0  0
    6.8190    0.0010   18.9920 C   0  0  0  0  0  0  0  0  0  0  0  0
   10.7000   -1.5300   22.1620 C   0  0  0  0  0  0  0  0  0  0  0  0
    9.7220   -1.9110   24.5180 C   0  0  0  0  0  0  0  0  0  0  0  0
    6.3690   -4.5720   22.0420 C   0  0  1  0  0  0  0  0  0  0  0  0
    8.1650    3.1710   23.3260 C   0  0  0  0  0  0  0  0  0  0  0  0
    6.3860   -4.2710   20.5160 C   0  0  0  0  0  0  0  0  0  0  0  0
    6.3270    0.3850   17.8160 N   0  0  0  0  0  0  0  0  0  0  0  0
    4.5260    1.7760   18.9220 C   0  0  0  0  0  0  0  0  0  0  0  0
   10.9310   -1.8230   23.6550 C   0  0  0  0  0  0  0  0  0  0  0  0
    7.4030   -5.0960   22.7720 C   0  0  0  0  0  0  0  0  0  0  0  0
    5.1570   -5.5580   22.1390 C   0  0  0  0  0  0  0  0  0  0  0  0
    7.7660    4.4220   22.5220 C   0  0  0  0  0  0  0  0  0  0  0  0
   12.2450   -2.0060   24.2510 C   0  0  0  0  0  0  0  0  0  0  0  0
    5.4580   -4.8170   19.9420 O   0  0  0  0  0  0  0  0  0  0  0  0
    7.3570   -3.3380   19.7920 C   0  0  0  0  0  0  0  0  0  0  0  0
    5.1450    1.3090   17.7420 C   0  0  0  0  0  0  0  0  0  0  0  0
    7.1490   -5.1070   24.1450 C   0  0  0  0  0  0  0  0  0  0  0  0
    5.0110   -6.2070   23.3310 C   0  0  2  0  0  0  0  0  0  0  0  0
    8.4170    5.3670   22.9910 O   0  0  0  0  0  0  0  0  0  0  0  0
   13.2690   -2.2010   23.3140 C   0  0  0  0  0  0  0  0  0  0  0  0
   12.0790   -3.2310   25.1510 C   0  0  0  0  0  0  0  0  0  0  0  0
   12.5600   -0.7620   25.0750 C   0  0  0  0  0  0  0  0  0  0  0  0
    3.4860   -6.5770   23.5040 C   0  0  2  0  0  0  0  0  0  0  0  0
    5.7030   -5.3040   24.3840 N   0  0  0  0  0  0  0  0  0  0  0  0
    8.3370    6.5310   22.1730 C   0  0  0  0  0  0  0  0  0  0  0  0
    2.4390   -5.5370   23.2760 N   0  0  0  0  0  0  0  0  0  0  0  0
    3.1740   -7.5100   24.5480 C   0  0  1  0  0  0  0  0  0  0  0  0
    5.1990   -5.0790   26.0120 S   0  0  0  0  0  0  0  0  0  0  0  0
    1.9870   -8.2990   24.4410 C   0  0  0  0  0  0  0  0  0  0  0  0
    4.2280   -8.1130   24.6330 O   0  0  0  0  0  0  0  0  0  0  0  0
    1.2940   -6.1100   22.7710 C   0  0  0  0  0  0  0  0  0  0  0  0
    4.6180   -6.3300   26.4160 O   0  0  0  0  0  0  0  0  0  0  0  0
    6.3020   -4.5110   26.7510 O   0  0  0  0  0  0  0  0  0  0  0  0
    3.8760   -3.8680   25.9590 C   0  0  0  0  0  0  0  0  0  0  0  0
    1.1480   -7.2520   22.0250 O   0  0  0  0  0  0  0  0  0  0  0  0
   -0.0500   -5.4220   23.0420 C   0  0  0  0  0  0  0  0  0  0  0  0
    2.3790   -4.1780   25.8800 C   0  0  0  0  0  0  0  0  0  0  0  0
    4.3240   -2.4050   26.0030 C   0  0  0  0  0  0  0  0  0  0  0  0
    1.9000   -5.4280   25.8430 F   0  0  0  0  0  0  0  0  0  0  0  0
    5.6050   -2.0410   26.0780 F   0  0  0  0  0  0  0  0  0  0  0  0
    3.2490   -1.2940   25.9630 C   0  0  0  0  0  0  0  0  0  0  0  0
    1.4770   -3.1320   25.8470 C   0  0  0  0  0  0  0  0  0  0  0  0
    1.8990   -1.6640   25.8900 C   0  0  0  0  0  0  0  0  0  0  0  0
  1  2  1  0
  2  3  1  6
  1  4  1  0
  1  5  1  0
  4  6  1  0
  2  7  1  0
  5  8  2  0
  5  9  1  0
  3 10  1  0
  3 11  2  0
  7 12  2  0
  7 13  1  0
  8 14  1  0
  9 15  2  0
 16  6  1  1
 10 17  1  0
 16 18  1  0
 13 19  2  0
 12 20  1  0
 14 21  2  0
 15 21  1  0
 16 22  1  0
 16 23  1  0
 17 24  1  0
 21 25  1  0
 18 26  2  0
 18 27  1  0
 19 28  1  0
 20 28  2  0
 22 29  1  0
 30 23  1  6
 24 31  1  0
 25 32  1  0
 25 33  1  0
 25 34  1  0
 30 35  1  0
 29 36  1  0
 30 36  1  0
 31 37  1  0
 35 38  1  1
 35 39  1  0
 36 40  1  0
 39 41  1  6
 39 42  1  0
 38 43  1  0
 40 44  2  0
 40 45  2  0
 40 46  1  0
 43 47  2  0
 43 48  1  0
 46 49  2  0
 46 50  1  0
 49 51  1  0
 50 52  1  0
 50 53  2  0
 49 54  1  0
 53 55  1  0
 54 55  2  0
M  END
