x0759-x0540
     RDKit          3D

 36 39  0  0  0  0  0  0  0  0999 V2000
    2.7030    1.4720   24.6000 O   0  0  0  0  0  0  0  0  0  0  0  0
    2.9280    2.3410   23.4850 C   0  0  0  0  0  0  0  0  0  0  0  0
    4.1020    2.1910   22.7410 N   0  0  0  0  0  0  0  0  0  0  0  0
    2.0530    3.2690   23.1550 N   0  0  0  0  0  0  0  0  0  0  0  0
    4.8570    1.0110   22.7430 C   0  0  0  0  0  0  0  0  0  0  0  0
    0.7910    3.2630   23.8850 C   0  0  0  0  0  0  0  0  0  0  0  0
    4.4900    0.0720   21.5820 C   0  0  2  0  0  0  0  0  0  0  0  0
    0.7890    4.4940   24.5580 C   0  0  0  0  0  0  0  0  0  0  0  0
   -0.3390    3.1210   23.0610 C   0  0  0  0  0  0  0  0  0  0  0  0
    4.7580   -1.4600   21.8210 C   0  0  0  0  0  0  0  0  0  0  0  0
    5.1280    0.3570   20.2830 C   0  0  0  0  0  0  0  0  0  0  0  0
   -0.5770    4.9570   25.0770 C   0  0  0  0  0  0  0  0  0  0  0  0
   -1.5670    3.0910   23.7500 C   0  0  0  0  0  0  0  0  0  0  0  0
    6.0640   -1.9710   22.3630 C   0  0  0  0  0  0  0  0  0  0  0  0
    6.4050   -0.2190   19.8280 C   0  0  0  0  0  0  0  0  0  0  0  0
    4.4380    1.3100   19.2900 C   0  0  0  0  0  0  0  0  0  0  0  0
   -1.7260    4.4110   24.2180 C   0  0  0  0  0  0  0  0  0  0  0  0
    6.9350    0.1400   18.4660 C   0  0  0  0  0  0  0  0  0  0  0  0
    5.1220    1.5580   17.9650 C   0  0  0  0  0  0  0  0  0  0  0  0
    6.8730   -3.0330   21.5530 C   0  0  1  0  0  0  0  0  0  0  0  0
    6.4630   -3.4320   20.0660 C   0  0  0  0  0  0  0  0  0  0  0  0
    6.3920    0.9560   17.5520 N   0  0  0  0  0  0  0  0  0  0  0  0
    8.1810   -2.6920   21.6460 C   0  0  0  0  0  0  0  0  0  0  0  0
    6.8360   -4.4280   22.2570 C   0  0  0  0  0  0  0  0  0  0  0  0
    5.4810   -4.1580   19.8130 O   0  0  0  0  0  0  0  0  0  0  0  0
    7.3430   -3.0120   18.8840 C   0  0  0  0  0  0  0  0  0  0  0  0
    8.4690   -2.3560   22.9150 C   0  0  1  0  0  0  0  0  0  0  0  0
    7.3120   -4.2500   23.5690 C   0  0  0  0  0  0  0  0  0  0  0  0
    8.4810   -3.5770   23.6410 O   0  0  0  0  0  0  0  0  0  0  0  0
    9.8390   -1.8430   23.0800 C   0  0  0  0  0  0  0  0  0  0  0  0
   10.2750   -1.8030   24.3390 C   0  0  0  0  0  0  0  0  0  0  0  0
   10.6710   -1.4250   22.0570 C   0  0  0  0  0  0  0  0  0  0  0  0
   11.5180   -1.3670   24.6310 C   0  0  0  0  0  0  0  0  0  0  0  0
   11.9360   -0.9730   22.3890 C   0  0  0  0  0  0  0  0  0  0  0  0
   12.3560   -0.9340   23.6660 C   0  0  0  0  0  0  0  0  0  0  0  0
   13.5440   -0.4900   23.9460 F   0  0  0  0  0  0  0  0  0  0  0  0
  1  2  2  0
  2  3  1  0
  2  4  1  0
  3  5  1  0
  4  6  1  0
  7  5  1  1
  6  8  1  0
  6  9  1  0
  7 10  1  0
  7 11  1  0
  8 12  1  0
  9 13  1  0
 10 14  1  0
 11 15  2  0
 11 16  1  0
 12 17  1  0
 13 17  1  0
 15 18  1  0
 16 19  2  0
 20 14  1  1
 20 21  1  0
 18 22  2  0
 19 22  1  0
 20 23  1  0
 20 24  1  0
 21 25  2  0
 21 26  1  0
 23 27  1  0
 24 28  1  0
 27 29  1  0
 28 29  1  0
 27 30  1  6
 30 31  2  0
 30 32  1  0
 31 33  1  0
 32 34  2  0
 33 35  2  0
 34 35  1  0
 35 36  1  0
M  END
