x0752-x3080
     RDKit          3D

 42 46  0  0  0  0  0  0  0  0999 V2000
    9.8980   -0.3300   23.3520 N   0  0  0  0  0  0  0  0  0  0  0  0
   10.7380    0.7450   23.5500 C   0  0  0  0  0  0  0  0  0  0  0  0
    9.7000   -0.9400   22.1380 C   0  0  0  0  0  0  0  0  0  0  0  0
    8.7910   -0.6660   24.6100 S   0  0  0  0  0  0  0  0  0  0  0  0
    7.4500   -0.7970   24.1260 O   0  0  0  0  0  0  0  0  0  0  0  0
    8.5610   -0.2140   21.3600 C   0  0  0  0  0  0  0  0  0  0  0  0
    9.0710    0.2770   25.6660 O   0  0  0  0  0  0  0  0  0  0  0  0
    9.3150   -2.2210   25.2490 C   0  0  0  0  0  0  0  0  0  0  0  0
    8.7090    1.0050   21.2530 O   0  0  0  0  0  0  0  0  0  0  0  0
    7.6190   -0.7340   20.8920 N   0  0  0  0  0  0  0  0  0  0  0  0
   10.8150   -2.4110   25.3060 C   0  0  0  0  0  0  0  0  0  0  0  0
    8.3570   -3.1530   25.6690 C   0  0  0  0  0  0  0  0  0  0  0  0
    6.9760   -1.7540   21.5760 C   0  0  0  0  0  0  0  0  0  0  0  0
    6.7860   -0.0560   20.0460 C   0  0  0  0  0  0  0  0  0  0  0  0
   11.6170   -1.4480   24.8580 N   0  0  0  0  0  0  0  0  0  0  0  0
   11.2210   -3.7300   25.9070 C   0  0  0  0  0  0  0  0  0  0  0  0
    8.7650   -4.4810   26.2480 C   0  0  0  0  0  0  0  0  0  0  0  0
    7.8070   -3.0570   21.7150 C   0  0  0  0  0  0  0  0  0  0  0  0
    5.6720    0.7340   20.4100 C   0  0  0  0  0  0  0  0  0  0  0  0
    7.1110   -0.1820   18.6480 C   0  0  0  0  0  0  0  0  0  0  0  0
   12.7580   -3.7330   25.9370 C   0  0  0  0  0  0  0  0  0  0  0  0
   13.0570   -1.5340   24.9020 C   0  0  0  0  0  0  0  0  0  0  0  0
   10.1650   -4.7220   26.3520 C   0  0  0  0  0  0  0  0  0  0  0  0
    5.3040    0.8740   21.8570 C   0  0  0  0  0  0  0  0  0  0  0  0
    7.1880   -4.2250   21.3760 N   0  0  0  0  0  0  0  0  0  0  0  0
    6.3250    0.4860   17.7100 N   0  0  0  0  0  0  0  0  0  0  0  0
    4.8810    1.4020   19.4770 C   0  0  0  0  0  0  0  0  0  0  0  0
   13.7170   -2.6240   25.4350 C   0  0  0  0  0  0  0  0  0  0  0  0
    6.5120   -4.1250   20.1760 C   0  0  0  0  0  0  0  0  0  0  0  0
    6.9130   -5.2030   22.4140 C   0  0  0  0  0  0  0  0  0  0  0  0
    5.2140    1.2760   18.1580 C   0  0  0  0  0  0  0  0  0  0  0  0
    7.2730   -3.3240   19.1320 C   0  0  0  0  0  0  0  0  0  0  0  0
    5.4390   -4.6810   19.9570 O   0  0  0  0  0  0  0  0  0  0  0  0
    5.7800   -4.6510   23.2010 C   0  0  0  0  0  0  0  0  0  0  0  0
    4.5020   -5.4060   23.3630 C   0  0  0  0  0  0  0  0  0  0  0  0
    5.9080   -3.3770   23.8020 C   0  0  0  0  0  0  0  0  0  0  0  0
    3.5220   -4.7890   24.0970 C   0  0  0  0  0  0  0  0  0  0  0  0
    4.8820   -2.8100   24.5290 C   0  0  0  0  0  0  0  0  0  0  0  0
    3.6980   -3.5300   24.6630 C   0  0  0  0  0  0  0  0  0  0  0  0
    2.2930   -5.2950   24.3630 O   0  0  0  0  0  0  0  0  0  0  0  0
    2.6080   -3.1100   25.3390 O   0  0  0  0  0  0  0  0  0  0  0  0
    1.7720   -4.2800   25.2450 C   0  0  0  0  0  0  0  0  0  0  0  0
  1  2  1  0
  1  3  1  0
  4  1  1  0
  4  5  2  0
  3  6  1  0
  4  7  2  0
  4  8  1  0
  6  9  2  0
  6 10  1  0
  8 11  1  0
  8 12  2  0
 10 13  1  0
 10 14  1  0
 11 15  2  0
 11 16  1  0
 12 17  1  0
 13 18  1  0
 14 19  2  0
 14 20  1  0
 16 21  2  0
 15 22  1  0
 16 23  1  0
 17 23  2  0
 19 24  1  0
 18 25  1  0
 20 26  2  0
 19 27  1  0
 21 28  1  0
 22 28  2  0
 25 29  1  0
 25 30  1  0
 26 31  1  0
 27 31  2  0
 29 32  1  0
 29 33  2  0
 30 34  1  0
 34 35  2  0
 34 36  1  0
 35 37  1  0
 36 38  2  0
 37 39  2  0
 38 39  1  0
 37 40  1  0
 39 41  1  0
 40 42  1  0
 41 42  1  0
M  END
