x0752-x2703
     RDKit          3D

 45 49  0  0  0  0  0  0  0  0999 V2000
    7.3620   -1.0950   21.7900 N   0  0  0  0  0  0  0  0  0  0  0  0
    6.8570    0.1740   21.6410 C   0  0  1  0  0  0  0  0  0  0  0  0
    7.8680    1.2780   21.8120 C   0  0  0  0  0  0  0  0  0  0  0  0
    6.5540   -2.2750   21.9660 C   0  0  0  0  0  0  0  0  0  0  0  0
    8.5350   -1.2210   22.5000 C   0  0  0  0  0  0  0  0  0  0  0  0
    7.4530   -3.3620   22.0110 C   0  0  0  0  0  0  0  0  0  0  0  0
    6.1910    0.4420   20.3350 C   0  0  0  0  0  0  0  0  0  0  0  0
    8.5160   -1.1610   23.8780 C   0  0  0  0  0  0  0  0  0  0  0  0
    9.7870   -1.4180   21.9460 C   0  0  0  0  0  0  0  0  0  0  0  0
    7.4720    2.2570   22.8110 N   0  0  0  0  0  0  0  0  0  0  0  0
    8.9000    1.3710   21.1450 O   0  0  0  0  0  0  0  0  0  0  0  0
    7.0750   -4.6620   21.5010 N   0  0  0  0  0  0  0  0  0  0  0  0
    4.8750    1.2110   20.1990 C   0  0  0  0  0  0  0  0  0  0  0  0
    6.8290   -0.0290   19.0360 C   0  0  0  0  0  0  0  0  0  0  0  0
   10.9890   -1.5550   22.5020 N   0  0  0  0  0  0  0  0  0  0  0  0
    9.6820   -1.2750   24.5850 C   0  0  0  0  0  0  0  0  0  0  0  0
    6.4070   -4.4390   20.3070 C   0  0  0  0  0  0  0  0  0  0  0  0
    6.7460   -5.5600   22.4760 C   0  0  0  0  0  0  0  0  0  0  0  0
    6.3170    0.2020   17.8010 N   0  0  0  0  0  0  0  0  0  0  0  0
    4.3680    1.4410   18.9780 C   0  0  0  0  0  0  0  0  0  0  0  0
   11.0050   -1.4810   23.9450 C   0  0  0  0  0  0  0  0  0  0  0  0
    8.1900    3.4450   22.9270 C   0  0  0  0  0  0  0  0  0  0  0  0
   12.2220   -1.5890   24.6390 C   0  0  0  0  0  0  0  0  0  0  0  0
    7.1260   -3.4810   19.3650 C   0  0  0  0  0  0  0  0  0  0  0  0
    5.3610   -4.9860   20.0060 O   0  0  0  0  0  0  0  0  0  0  0  0
    5.0820    0.9520   17.8700 C   0  0  0  0  0  0  0  0  0  0  0  0
    9.4750    3.5080   23.4720 C   0  0  0  0  0  0  0  0  0  0  0  0
    7.5910    4.6010   22.4740 C   0  0  0  0  0  0  0  0  0  0  0  0
    5.6810   -4.9370   23.3190 C   0  0  0  0  0  0  0  0  0  0  0  0
   10.1460    2.2460   23.9600 C   0  0  0  0  0  0  0  0  0  0  0  0
    6.2180    4.6680   21.8590 C   0  0  0  0  0  0  0  0  0  0  0  0
   12.6430   -2.9190   24.8100 C   0  0  0  0  0  0  0  0  0  0  0  0
   13.2140   -1.0570   23.8940 C   0  0  0  0  0  0  0  0  0  0  0  0
   10.2060    4.6980   23.5970 C   0  0  0  0  0  0  0  0  0  0  0  0
    8.3300    5.7630   22.6070 C   0  0  0  0  0  0  0  0  0  0  0  0
    4.3720   -5.4020   23.3060 C   0  0  0  0  0  0  0  0  0  0  0  0
    6.0230   -3.8270   24.1410 C   0  0  0  0  0  0  0  0  0  0  0  0
    9.1940    1.4870   24.8730 C   0  0  0  0  0  0  0  0  0  0  0  0
    9.5660    5.8100   23.1390 C   0  0  0  0  0  0  0  0  0  0  0  0
    3.4580   -4.7470   24.0920 C   0  0  0  0  0  0  0  0  0  0  0  0
    5.0800   -3.1760   24.9230 C   0  0  0  0  0  0  0  0  0  0  0  0
    3.8030   -3.6540   24.8760 C   0  0  0  0  0  0  0  0  0  0  0  0
    2.1450   -5.0630   24.2010 O   0  0  0  0  0  0  0  0  0  0  0  0
    2.7420   -3.1590   25.5570 O   0  0  0  0  0  0  0  0  0  0  0  0
    1.7530   -4.1630   25.2630 C   0  0  0  0  0  0  0  0  0  0  0  0
  1  2  1  0
  2  3  1  6
  1  4  1  0
  1  5  1  0
  4  6  1  0
  2  7  1  0
  5  8  2  0
  5  9  1  0
  3 10  1  0
  3 11  2  0
  6 12  1  0
  7 13  2  0
  7 14  1  0
  9 15  2  0
  8 16  1  0
 12 17  1  0
 12 18  1  0
 14 19  2  0
 13 20  1  0
 15 21  1  0
 16 21  2  0
 10 22  1  0
 21 23  1  0
 17 24  1  0
 17 25  2  0
 19 26  1  0
 20 26  2  0
 22 27  2  0
 22 28  1  0
 18 29  1  0
 27 30  1  0
 28 31  1  0
 23 32  1  0
 23 33  1  0
 27 34  1  0
 28 35  2  0
 29 36  2  0
 29 37  1  0
 30 38  1  0
 34 39  2  0
 35 39  1  0
 36 40  1  0
 37 41  2  0
 40 42  2  0
 41 42  1  0
 40 43  1  0
 42 44  1  0
 43 45  1  0
 44 45  1  0
M  END
