x0755-x2705-x2703
     RDKit          3D

 52 56  0  0  0  0  0  0  0  0999 V2000
    7.4410   -0.9830   22.1560 N   0  0  0  0  0  0  0  0  0  0  0  0
    6.8360    0.2950   21.7310 C   0  0  1  0  0  0  0  0  0  0  0  0
    7.8830    1.4160   21.7770 C   0  0  0  0  0  0  0  0  0  0  0  0
    6.8820   -2.1740   21.7460 C   0  0  0  0  0  0  0  0  0  0  0  0
    8.7110   -1.1510   22.7530 C   0  0  0  0  0  0  0  0  0  0  0  0
    5.9680   -2.9820   22.3770 C   0  0  0  0  0  0  0  0  0  0  0  0
    6.2580    0.5230   20.3350 C   0  0  0  0  0  0  0  0  0  0  0  0
    8.7030   -1.2220   24.1270 N   0  0  0  0  0  0  0  0  0  0  0  0
    9.9650   -1.2570   22.2330 C   0  0  0  0  0  0  0  0  0  0  0  0
    7.5350    2.3450   22.6530 N   0  0  0  0  0  0  0  0  0  0  0  0
    8.9090    1.4710   21.0860 O   0  0  0  0  0  0  0  0  0  0  0  0
    5.1320    1.3060   20.1570 C   0  0  0  0  0  0  0  0  0  0  0  0
    6.9250   -0.0790   19.2490 C   0  0  0  0  0  0  0  0  0  0  0  0
   10.1790   -1.3880   24.4230 N   0  0  0  0  0  0  0  0  0  0  0  0
   10.8660   -1.4000   23.2390 C   0  0  0  0  0  0  0  0  0  0  0  0
    6.1500   -4.4120   22.0000 C   0  0  0  0  0  0  0  0  0  0  0  0
   12.2750   -1.5360   23.0960 C   0  0  0  0  0  0  0  0  0  0  0  0
    6.1680   -4.5140   20.4490 C   0  0  0  0  0  0  0  0  0  0  0  0
    6.3800    0.1710   17.8900 N   0  0  0  0  0  0  0  0  0  0  0  0
    4.5930    1.5640   18.9390 C   0  0  0  0  0  0  0  0  0  0  0  0
    8.2620    3.5560   22.8760 C   0  0  0  0  0  0  0  0  0  0  0  0
    7.3870   -4.9640   22.6890 C   0  0  0  0  0  0  0  0  0  0  0  0
    4.9610   -5.1030   22.3200 C   0  0  0  0  0  0  0  0  0  0  0  0
   12.8670   -0.2680   23.7370 C   0  0  0  0  0  0  0  0  0  0  0  0
   12.7320   -2.7780   23.7940 C   0  0  0  0  0  0  0  0  0  0  0  0
   12.8600   -1.6690   21.6790 C   0  0  0  0  0  0  0  0  0  0  0  0
    5.5100   -5.3980   19.9690 O   0  0  0  0  0  0  0  0  0  0  0  0
    6.9670   -3.5210   19.5560 C   0  0  0  0  0  0  0  0  0  0  0  0
    5.1850    1.0270   17.8330 C   0  0  0  0  0  0  0  0  0  0  0  0
    9.5370    3.5420   23.4260 C   0  0  0  0  0  0  0  0  0  0  0  0
    7.6780    4.7710   22.5260 C   0  0  0  0  0  0  0  0  0  0  0  0
    7.2180   -5.0010   24.0660 C   0  0  0  0  0  0  0  0  0  0  0  0
    5.0750   -5.8190   23.4910 C   0  0  0  0  0  0  0  0  0  0  0  0
   10.2980    2.2530   23.8420 C   0  0  0  0  0  0  0  0  0  0  0  0
    6.3020    4.8420   21.9160 C   0  0  0  0  0  0  0  0  0  0  0  0
   13.3400   -2.6310   25.1760 C   0  0  0  0  0  0  0  0  0  0  0  0
   10.2640    4.7210   23.6520 C   0  0  0  0  0  0  0  0  0  0  0  0
    8.3740    5.9670   22.7360 C   0  0  0  0  0  0  0  0  0  0  0  0
    5.7570   -5.0650   24.3550 N   0  0  0  0  0  0  0  0  0  0  0  0
    9.4190    1.5730   24.6680 C   0  0  0  0  0  0  0  0  0  0  0  0
    5.1310   -5.1140   25.8980 S   0  0  0  0  0  0  0  0  0  0  0  0
    9.6560    5.9390   23.2950 C   0  0  0  0  0  0  0  0  0  0  0  0
    4.4470   -6.3810   26.0250 O   0  0  0  0  0  0  0  0  0  0  0  0
    6.1010   -4.6470   26.8490 O   0  0  0  0  0  0  0  0  0  0  0  0
    3.9110   -3.8120   25.9340 C   0  0  0  0  0  0  0  0  0  0  0  0
    2.5520   -4.1880   25.8170 C   0  0  0  0  0  0  0  0  0  0  0  0
    4.2240   -2.4500   26.0750 C   0  0  0  0  0  0  0  0  0  0  0  0
    2.1850   -5.4690   25.6740 F   0  0  0  0  0  0  0  0  0  0  0  0
    5.4780   -1.9980   26.1930 F   0  0  0  0  0  0  0  0  0  0  0  0
    3.1870   -1.5260   26.1000 C   0  0  0  0  0  0  0  0  0  0  0  0
    1.5380   -3.2240   25.8470 C   0  0  0  0  0  0  0  0  0  0  0  0
    1.8810   -1.9040   25.9930 C   0  0  0  0  0  0  0  0  0  0  0  0
  1  2  1  0
  2  3  1  6
  1  4  1  0
  1  5  1  0
  4  6  1  0
  2  7  1  0
  5  8  2  0
  5  9  1  0
  3 10  1  0
  3 11  2  0
  7 12  2  0
  7 13  1  0
  8 14  1  0
  9 15  2  0
 14 15  1  0
  6 16  1  0
 15 17  1  0
 16 18  1  0
 13 19  2  0
 12 20  1  0
 10 21  1  0
 16 22  1  0
 16 23  1  0
 17 24  1  0
 17 25  1  0
 17 26  1  0
 18 27  2  0
 18 28  1  0
 19 29  1  0
 20 29  2  0
 21 30  2  0
 21 31  1  0
 22 32  1  0
 23 33  1  0
 30 34  1  0
 31 35  1  0
 25 36  1  0
 30 37  1  0
 31 38  2  0
 32 39  1  0
 33 39  1  0
 34 40  1  0
 39 41  1  0
 37 42  2  0
 38 42  1  0
 41 43  2  0
 41 44  2  0
 41 45  1  0
 45 46  2  0
 45 47  1  0
 46 48  1  0
 47 49  1  0
 47 50  2  0
 46 51  1  0
 50 52  1  0
 51 52  2  0
M  END
