x0755-x3080
     RDKit          3D

 47 51  0  0  0  0  0  0  0  0999 V2000
    9.8760   -0.3350   23.4610 N   0  0  0  0  0  0  0  0  0  0  0  0
   10.7900    0.8260   23.4770 C   0  0  0  0  0  0  0  0  0  0  0  0
    9.5720   -0.8950   22.2550 C   0  0  0  0  0  0  0  0  0  0  0  0
    8.8890   -0.6450   24.7820 S   0  0  2  0  0  0  0  0  0  0  0  0
    7.2590   -0.5270   24.3530 N   0  0  0  0  0  0  0  0  0  0  0  0
    8.7550    0.1130   21.4240 C   0  0  0  0  0  0  0  0  0  0  0  0
    9.1610    0.3330   25.8060 O   0  0  0  0  0  0  0  0  0  0  0  0
    9.3970   -2.2280   25.3730 C   0  0  0  0  0  0  0  0  0  0  0  0
    9.0850    1.2940   21.2110 O   0  0  0  0  0  0  0  0  0  0  0  0
    7.5840   -0.4780   20.9670 N   0  0  0  0  0  0  0  0  0  0  0  0
    6.3880   -1.6840   24.4910 C   0  0  0  0  0  0  0  0  0  0  0  0
   10.7860   -2.4010   25.3410 C   0  0  0  0  0  0  0  0  0  0  0  0
    8.3630   -3.2660   25.8810 C   0  0  0  0  0  0  0  0  0  0  0  0
    5.7080   -1.9670   25.7430 O   0  0  0  0  0  0  0  0  0  0  0  0
    6.7620    0.0860   19.9790 C   0  0  0  0  0  0  0  0  0  0  0  0
   11.6350   -1.3100   24.8220 N   0  0  0  0  0  0  0  0  0  0  0  0
   11.3680   -3.6880   25.8520 C   0  0  0  0  0  0  0  0  0  0  0  0
    8.9470   -4.4210   26.3120 C   0  0  0  0  0  0  0  0  0  0  0  0
    5.6420    0.7970   20.3640 C   0  0  0  0  0  0  0  0  0  0  0  0
    7.0120   -0.0110   18.5200 C   0  0  0  0  0  0  0  0  0  0  0  0
   12.7680   -3.7770   25.8340 C   0  0  0  0  0  0  0  0  0  0  0  0
   12.9470   -1.4670   24.8220 C   0  0  0  0  0  0  0  0  0  0  0  0
   10.4060   -4.7260   26.3380 C   0  0  0  0  0  0  0  0  0  0  0  0
    4.3670   -2.3060   25.7550 C   0  0  0  0  0  0  0  0  0  0  0  0
    5.2360    0.9820   21.8520 C   0  0  0  0  0  0  0  0  0  0  0  0
    6.1760    0.5960   17.5660 N   0  0  0  0  0  0  0  0  0  0  0  0
    4.7950    1.4090   19.4200 C   0  0  0  0  0  0  0  0  0  0  0  0
   13.5380   -2.7290   25.3490 C   0  0  0  0  0  0  0  0  0  0  0  0
    3.9830   -3.8090   25.7440 C   0  0  0  0  0  0  0  0  0  0  0  0
    3.3950   -1.3180   25.7800 C   0  0  0  0  0  0  0  0  0  0  0  0
    5.1180   -5.1720   25.7390 S   0  0  0  0  0  0  0  0  0  0  0  0
    5.1330    1.2650   18.0640 C   0  0  0  0  0  0  0  0  0  0  0  0
    2.6040   -4.1160   25.7520 C   0  0  0  0  0  0  0  0  0  0  0  0
    1.9180   -1.6920   25.7960 C   0  0  0  0  0  0  0  0  0  0  0  0
    4.3270   -6.4850   26.1630 O   0  0  0  0  0  0  0  0  0  0  0  0
    6.3320   -4.8670   26.7220 O   0  0  0  0  0  0  0  0  0  0  0  0
    2.2160   -5.4150   25.7390 F   0  0  0  0  0  0  0  0  0  0  0  0
    1.5660   -3.1480   25.7760 C   0  0  0  0  0  0  0  0  0  0  0  0
    5.7180   -5.4100   24.1430 N   0  0  0  0  0  0  0  0  0  0  0  0
    6.8110   -4.5290   23.6510 C   0  0  0  0  0  0  0  0  0  0  0  0
    4.8070   -5.7920   23.0300 C   0  0  0  0  0  0  0  0  0  0  0  0
    7.5470   -5.1210   22.6330 C   0  0  0  0  0  0  0  0  0  0  0  0
    5.5820   -6.4030   22.0360 C   0  0  0  0  0  0  0  0  0  0  0  0
    6.6120   -5.4780   21.5580 N   0  0  0  0  0  0  0  0  0  0  0  0
    6.3610   -4.5690   20.5130 C   0  0  0  0  0  0  0  0  0  0  0  0
    5.2870   -4.6430   19.9350 O   0  0  0  0  0  0  0  0  0  0  0  0
    7.3790   -3.5130   20.0650 C   0  0  0  0  0  0  0  0  0  0  0  0
  1  2  1  0
  1  3  1  0
  4  1  1  6
  4  5  2  0
  3  6  1  0
  4  7  2  0
  4  8  1  0
  6  9  2  0
  6 10  1  0
  5 11  1  0
  8 12  1  0
  8 13  2  0
 11 14  1  0
 10 15  1  0
 12 16  2  0
 12 17  1  0
 13 18  1  0
 15 19  2  0
 15 20  1  0
 17 21  2  0
 16 22  1  0
 17 23  1  0
 18 23  2  0
 14 24  1  0
 19 25  1  0
 20 26  2  0
 19 27  1  0
 21 28  1  0
 22 28  2  0
 24 29  1  0
 24 30  2  0
 31 29  1  0
 26 32  1  0
 27 32  2  0
 29 33  2  0
 30 34  1  0
 31 35  2  0
 31 36  2  0
 33 37  1  0
 33 38  1  0
 34 38  2  0
 31 39  1  0
 39 40  1  0
 39 41  1  0
 40 42  1  0
 41 43  1  0
 42 44  1  0
 43 44  1  0
 44 45  1  0
 45 46  2  0
 45 47  1  0
M  END
