x0755-x3113-x3124
     RDKit          3D

 48 51  0  0  0  0  0  0  0  0999 V2000
    7.0870   -1.0820   22.2560 N   0  0  0  0  0  0  0  0  0  0  0  0
    6.8700    0.3240   21.8440 C   0  0  1  0  0  0  0  0  0  0  0  0
    8.1140    1.2280   22.0350 C   0  0  0  0  0  0  0  0  0  0  0  0
    6.1420   -1.5830   22.9760 C   0  0  0  0  0  0  0  0  0  0  0  0
    8.4580   -1.3420   22.7180 C   0  0  0  0  0  0  0  0  0  0  0  0
    6.3500    0.4770   20.4430 C   0  0  0  0  0  0  0  0  0  0  0  0
    9.5780   -1.8670   21.7950 C   0  0  0  0  0  0  0  0  0  0  0  0
    8.9070   -1.1130   24.1400 C   0  0  0  0  0  0  0  0  0  0  0  0
    5.7660   -3.0040   22.5920 C   0  0  0  0  0  0  0  0  0  0  0  0
    8.4460    1.7370   23.2400 N   0  0  0  0  0  0  0  0  0  0  0  0
    8.8580    1.5870   21.1190 O   0  0  0  0  0  0  0  0  0  0  0  0
    5.0990    1.3250   20.2410 C   0  0  0  0  0  0  0  0  0  0  0  0
    6.9510   -0.0920   19.3310 C   0  0  0  0  0  0  0  0  0  0  0  0
   10.8640   -2.0430   22.3590 C   0  0  0  0  0  0  0  0  0  0  0  0
   10.1910   -1.3330   24.5420 C   0  0  0  0  0  0  0  0  0  0  0  0
    6.8880   -4.0600   22.7800 C   0  0  2  0  0  0  0  0  0  0  0  0
    9.5010    2.4940   23.6780 C   0  0  0  0  0  0  0  0  0  0  0  0
    6.4700    0.0950   18.0970 N   0  0  0  0  0  0  0  0  0  0  0  0
    4.5530    1.5540   19.0210 C   0  0  0  0  0  0  0  0  0  0  0  0
   11.1670   -1.7780   23.6850 C   0  0  0  0  0  0  0  0  0  0  0  0
    6.7260   -5.0770   21.7370 N   0  0  0  0  0  0  0  0  0  0  0  0
    6.9670   -4.5890   24.0450 C   0  0  0  0  0  0  0  0  0  0  0  0
   10.8130    2.1030   23.3930 C   0  0  0  0  0  0  0  0  0  0  0  0
   12.5900   -1.9680   24.1330 C   0  0  0  0  0  0  0  0  0  0  0  0
    5.2720    0.9120   17.8810 C   0  0  0  0  0  0  0  0  0  0  0  0
    6.3230   -4.6170   20.5050 C   0  0  0  0  0  0  0  0  0  0  0  0
    5.7190   -5.3060   24.4000 N   0  0  0  0  0  0  0  0  0  0  0  0
    5.8510   -6.1960   22.1950 C   0  0  0  0  0  0  0  0  0  0  0  0
   11.7360    3.1460   23.2940 C   0  0  0  0  0  0  0  0  0  0  0  0
   13.3860   -2.1550   23.0230 C   0  0  0  0  0  0  0  0  0  0  0  0
   12.7720   -3.0770   25.1110 C   0  0  0  0  0  0  0  0  0  0  0  0
   12.8320   -0.7220   24.9590 C   0  0  0  0  0  0  0  0  0  0  0  0
    5.3260   -5.0570   19.9820 O   0  0  0  0  0  0  0  0  0  0  0  0
    7.1790   -3.5270   19.8360 C   0  0  0  0  0  0  0  0  0  0  0  0
    5.0390   -5.2130   25.9510 S   0  0  0  0  0  0  0  0  0  0  0  0
    4.9670   -5.8440   23.2310 C   0  0  0  0  0  0  0  0  0  0  0  0
   11.7900    3.8680   22.3110 O   0  0  0  0  0  0  0  0  0  0  0  0
    4.3300   -6.4610   26.1700 O   0  0  0  0  0  0  0  0  0  0  0  0
    6.0710   -4.7800   26.8570 O   0  0  0  0  0  0  0  0  0  0  0  0
    3.8320   -3.9490   25.8940 C   0  0  0  0  0  0  0  0  0  0  0  0
   12.9480    4.7060   22.3950 C   0  0  0  0  0  0  0  0  0  0  0  0
    2.4680   -4.1900   25.7340 C   0  0  0  0  0  0  0  0  0  0  0  0
    4.2090   -2.4920   26.0280 C   0  0  0  0  0  0  0  0  0  0  0  0
    2.0030   -5.4390   25.6050 F   0  0  0  0  0  0  0  0  0  0  0  0
    5.4860   -2.1240   26.1900 F   0  0  0  0  0  0  0  0  0  0  0  0
    3.2450   -1.4900   25.9930 C   0  0  0  0  0  0  0  0  0  0  0  0
    1.5260   -3.1590   25.7040 C   0  0  0  0  0  0  0  0  0  0  0  0
    1.9090   -1.8220   25.8350 C   0  0  0  0  0  0  0  0  0  0  0  0
  1  2  1  0
  2  3  1  6
  1  4  1  0
  1  5  1  0
  2  6  1  0
  5  7  2  0
  5  8  1  0
  4  9  1  0
  3 10  1  0
  3 11  2  0
  6 12  2  0
  6 13  1  0
  7 14  1  0
  8 15  2  0
 16  9  1  1
 10 17  1  0
 13 18  2  0
 12 19  1  0
 14 20  2  0
 15 20  1  0
 16 21  1  0
 16 22  1  0
 17 23  1  0
 20 24  1  0
 18 25  1  0
 19 25  2  0
 21 26  1  0
 22 27  1  0
 21 28  1  0
 23 29  1  0
 24 30  1  0
 24 31  1  0
 24 32  1  0
 26 33  2  0
 26 34  1  0
 27 35  1  0
 27 36  1  0
 28 36  1  0
 29 37  1  0
 35 38  2  0
 35 39  2  0
 35 40  1  0
 37 41  1  0
 40 42  2  0
 40 43  1  0
 42 44  1  0
 43 45  1  0
 43 46  2  0
 42 47  1  0
 46 48  1  0
 47 48  2  0
M  END
