x0755-x3110-x0161-x3115
     RDKit          3D

 59 63  0  0  0  0  0  0  0  0999 V2000
    7.9660    1.7130   23.3940 N   0  0  0  0  0  0  0  0  0  0  0  0
    8.6520    2.9920   23.7240 C   0  0  2  0  0  0  0  0  0  0  0  0
    8.0550    4.0480   22.8670 C   0  0  0  0  0  0  0  0  0  0  0  0
    7.8990    1.2200   22.0040 C   0  0  0  0  0  0  0  0  0  0  0  0
    8.7250    1.5740   21.1350 O   0  0  0  0  0  0  0  0  0  0  0  0
    6.7220    0.2790   21.7110 C   0  0  2  0  0  0  0  0  0  0  0  0
   10.1380    2.7610   23.4550 C   0  0  0  0  0  0  0  0  0  0  0  0
    7.0680   -1.0330   21.9560 N   0  0  0  0  0  0  0  0  0  0  0  0
    8.3610    5.3110   23.2670 O   0  0  0  0  0  0  0  0  0  0  0  0
    6.2160    0.5370   20.3300 C   0  0  0  0  0  0  0  0  0  0  0  0
   11.0720    3.8060   23.4390 C   0  0  0  0  0  0  0  0  0  0  0  0
   10.5660    1.4660   23.1960 C   0  0  0  0  0  0  0  0  0  0  0  0
   10.6970    5.2050   23.7400 C   0  0  0  0  0  0  0  0  0  0  0  0
    8.1660    6.2870   22.2100 C   0  0  0  0  0  0  0  0  0  0  0  0
    5.9170   -1.9650   21.9080 C   0  0  0  0  0  0  0  0  0  0  0  0
    5.0920    1.3650   20.1760 C   0  0  0  0  0  0  0  0  0  0  0  0
    6.8420   -0.0130   19.2120 C   0  0  0  0  0  0  0  0  0  0  0  0
    8.3860   -1.3180   22.4910 C   0  0  0  0  0  0  0  0  0  0  0  0
   11.8750    1.1260   22.8990 C   0  0  0  0  0  0  0  0  0  0  0  0
   12.3850    3.5490   23.1340 C   0  0  0  0  0  0  0  0  0  0  0  0
   13.3230    4.7140   23.1010 C   0  0  0  0  0  0  0  0  0  0  0  0
   11.1040    6.1960   23.1320 O   0  0  0  0  0  0  0  0  0  0  0  0
    9.8630    5.3060   24.7920 O   0  0  0  0  0  0  0  0  0  0  0  0
    6.1410   -3.0250   22.7680 C   0  0  0  0  0  0  0  0  0  0  0  0
    6.4110    0.2280   17.9520 N   0  0  0  0  0  0  0  0  0  0  0  0
    4.6020    1.6490   18.9220 C   0  0  0  0  0  0  0  0  0  0  0  0
    9.4180   -1.8670   21.7680 C   0  0  0  0  0  0  0  0  0  0  0  0
    8.6740   -1.0000   23.8240 C   0  0  0  0  0  0  0  0  0  0  0  0
   12.8330    2.2690   22.8670 C   0  0  0  0  0  0  0  0  0  0  0  0
   13.2080    5.4370   21.7530 C   0  0  0  0  0  0  0  0  0  0  0  0
    5.2590    1.0900   17.8620 C   0  0  0  0  0  0  0  0  0  0  0  0
   10.6960   -2.0920   22.2560 C   0  0  0  0  0  0  0  0  0  0  0  0
    9.9660   -1.2150   24.3510 C   0  0  0  0  0  0  0  0  0  0  0  0
    6.2110   -4.4800   22.1530 C   0  0  0  0  0  0  0  0  0  0  0  0
    6.3290   -4.4000   20.5900 C   0  0  0  0  0  0  0  0  0  0  0  0
   11.0110   -1.7590   23.5750 C   0  0  0  0  0  0  0  0  0  0  0  0
    7.3020   -5.1020   22.7610 C   0  0  0  0  0  0  0  0  0  0  0  0
    4.9620   -5.3560   22.4220 C   0  0  0  0  0  0  0  0  0  0  0  0
   12.4730   -1.9740   24.1150 C   0  0  0  0  0  0  0  0  0  0  0  0
    5.6110   -5.2020   20.0150 O   0  0  0  0  0  0  0  0  0  0  0  0
    7.1650   -3.4230   19.7700 C   0  0  0  0  0  0  0  0  0  0  0  0
    7.2080   -5.0970   24.1650 C   0  0  0  0  0  0  0  0  0  0  0  0
    4.9810   -6.0310   23.6040 C   0  0  0  0  0  0  0  0  0  0  0  0
   12.9130   -0.7660   24.5900 C   0  0  0  0  0  0  0  0  0  0  0  0
   13.3560   -2.2680   22.9090 C   0  0  0  0  0  0  0  0  0  0  0  0
   12.7340   -2.9760   24.9900 C   0  0  0  0  0  0  0  0  0  0  0  0
    5.7470   -5.1580   24.5040 N   0  0  0  0  0  0  0  0  0  0  0  0
   13.6620   -0.0210   23.6420 O   0  0  0  0  0  0  0  0  0  0  0  0
    5.2370   -5.1300   25.9530 S   0  0  0  0  0  0  0  0  0  0  0  0
    4.5340   -6.5260   26.2670 O   0  0  0  0  0  0  0  0  0  0  0  0
    6.3310   -4.8020   26.8290 O   0  0  0  0  0  0  0  0  0  0  0  0
    3.9770   -3.8640   25.9290 C   0  0  0  0  0  0  0  0  0  0  0  0
    2.6120   -4.1840   25.7860 C   0  0  0  0  0  0  0  0  0  0  0  0
    4.2620   -2.3550   26.0590 C   0  0  0  0  0  0  0  0  0  0  0  0
    2.2320   -5.4650   25.6640 F   0  0  0  0  0  0  0  0  0  0  0  0
    5.5070   -1.8880   26.2020 F   0  0  0  0  0  0  0  0  0  0  0  0
    3.2040   -1.4610   26.0280 C   0  0  0  0  0  0  0  0  0  0  0  0
    1.5940   -3.2200   25.7640 C   0  0  0  0  0  0  0  0  0  0  0  0
    1.9050   -1.8720   25.8870 C   0  0  0  0  0  0  0  0  0  0  0  0
  1  2  1  0
  2  3  1  6
  1  4  1  0
  4  5  2  0
  6  4  1  6
  2  7  1  0
  6  8  1  0
  3  9  1  0
  6 10  1  0
  7 11  2  0
  7 12  1  0
 11 13  1  0
  9 14  1  0
  8 15  1  0
 10 16  2  0
 10 17  1  0
  8 18  1  0
 12 19  2  0
 11 20  1  0
 20 21  1  0
 13 22  2  0
 13 23  1  0
 15 24  1  0
 17 25  2  0
 16 26  1  0
 18 27  2  0
 18 28  1  0
 19 29  1  0
 20 29  2  0
 21 30  1  0
 25 31  1  0
 26 31  2  0
 27 32  1  0
 28 33  2  0
 24 34  1  0
 34 35  1  0
 32 36  2  0
 33 36  1  0
 34 37  1  0
 34 38  1  0
 36 39  1  0
 35 40  2  0
 35 41  1  0
 37 42  1  0
 38 43  1  0
 39 44  1  0
 39 45  1  0
 39 46  1  0
 42 47  1  0
 43 47  1  0
 44 48  2  0
 47 49  1  0
 49 50  2  0
 49 51  2  0
 49 52  1  0
 52 53  2  0
 52 54  1  0
 53 55  1  0
 54 56  1  0
 54 57  2  0
 53 58  1  0
 57 59  1  0
 58 59  2  0
M  END
