x0755-x3298
     RDKit          3D

 51 55  0  0  0  0  0  0  0  0999 V2000
    7.5510    2.4880   21.3760 N   0  0  0  0  0  0  0  0  0  0  0  0
    8.2130    1.1840   21.3030 C   0  0  0  0  0  0  0  0  0  0  0  0
    7.3740   -0.0910   21.2020 C   0  0  1  0  0  0  0  0  0  0  0  0
    7.9260    3.3690   22.3890 C   0  0  0  0  0  0  0  0  0  0  0  0
    9.3960    0.9950   21.3440 O   0  0  0  0  0  0  0  0  0  0  0  0
    8.0180    4.7490   22.1670 C   0  0  0  0  0  0  0  0  0  0  0  0
    8.2010    2.8070   23.5710 C   0  0  0  0  0  0  0  0  0  0  0  0
    6.8090   -0.4630   22.2370 O   0  0  0  0  0  0  0  0  0  0  0  0
    8.0510    1.4520   23.5770 N   0  0  0  0  0  0  0  0  0  0  0  0
    6.5850    0.2320   20.0480 C   0  0  0  0  0  0  0  0  0  0  0  0
    8.4590    5.7160   23.2750 C   0  0  0  0  0  0  0  0  0  0  0  0
    8.6070    3.6150   24.6560 C   0  0  0  0  0  0  0  0  0  0  0  0
    9.3070    0.6100   24.1270 S   0  0  0  0  0  0  0  0  0  0  0  0
    5.6880   -1.3380   22.0730 C   0  0  0  0  0  0  0  0  0  0  0  0
    6.9570   -0.1220   18.7620 C   0  0  0  0  0  0  0  0  0  0  0  0
    5.2840    1.0300   20.1970 C   0  0  0  0  0  0  0  0  0  0  0  0
    8.7470    5.1210   24.5010 C   0  0  0  0  0  0  0  0  0  0  0  0
    9.7440    1.8730   24.5820 O   0  0  0  0  0  0  0  0  0  0  0  0
    8.7430   -0.4680   24.8950 O   0  0  0  0  0  0  0  0  0  0  0  0
    5.2040   -1.7920   23.4740 C   0  0  0  0  0  0  0  0  0  0  0  0
    6.1720    0.2590   17.6290 N   0  0  0  0  0  0  0  0  0  0  0  0
    4.5470    1.3800   19.0980 C   0  0  0  0  0  0  0  0  0  0  0  0
   10.6690   -0.0020   23.2420 C   0  0  0  0  0  0  0  0  0  0  0  0
    6.0570   -1.4970   24.6350 C   0  0  0  0  0  0  0  0  0  0  0  0
    5.0410    0.9790   17.8870 C   0  0  0  0  0  0  0  0  0  0  0  0
   11.9390    0.5970   23.1270 C   0  0  0  0  0  0  0  0  0  0  0  0
   10.4350   -1.2210   22.6330 C   0  0  0  0  0  0  0  0  0  0  0  0
    5.4960   -2.0770   25.8210 O   0  0  0  0  0  0  0  0  0  0  0  0
   12.9440   -0.0360   22.4170 C   0  0  0  0  0  0  0  0  0  0  0  0
   11.4380   -1.8450   21.9150 C   0  0  0  0  0  0  0  0  0  0  0  0
   12.6950   -1.2610   21.8030 C   0  0  0  0  0  0  0  0  0  0  0  0
    4.1750   -2.4190   25.8440 C   0  0  0  0  0  0  0  0  0  0  0  0
   13.6430   -1.8530   21.1020 F   0  0  0  0  0  0  0  0  0  0  0  0
    3.8620   -3.7830   25.8330 C   0  0  0  0  0  0  0  0  0  0  0  0
    3.1550   -1.4620   25.8780 C   0  0  0  0  0  0  0  0  0  0  0  0
    5.0900   -5.0560   25.8040 S   0  0  0  0  0  0  0  0  0  0  0  0
    2.5250   -4.1670   25.8450 C   0  0  0  0  0  0  0  0  0  0  0  0
    1.8220   -1.8600   25.8950 C   0  0  0  0  0  0  0  0  0  0  0  0
    4.4940   -6.3650   25.9700 O   0  0  0  0  0  0  0  0  0  0  0  0
    6.1560   -4.6350   26.6840 O   0  0  0  0  0  0  0  0  0  0  0  0
    2.1910   -5.4770   25.8280 F   0  0  0  0  0  0  0  0  0  0  0  0
    1.5020   -3.2220   25.8750 C   0  0  0  0  0  0  0  0  0  0  0  0
    5.6740   -4.9900   24.1880 N   0  0  0  0  0  0  0  0  0  0  0  0
    7.1360   -4.8630   23.9980 C   0  0  0  0  0  0  0  0  0  0  0  0
    4.9160   -5.8070   23.2030 C   0  0  0  0  0  0  0  0  0  0  0  0
    7.5330   -4.7660   22.6550 C   0  0  0  0  0  0  0  0  0  0  0  0
    5.7270   -6.2650   22.1610 C   0  0  0  0  0  0  0  0  0  0  0  0
    6.5330   -5.0880   21.8120 N   0  0  0  0  0  0  0  0  0  0  0  0
    6.3430   -4.4770   20.5680 C   0  0  0  0  0  0  0  0  0  0  0  0
    5.3220   -4.7710   19.9600 O   0  0  0  0  0  0  0  0  0  0  0  0
    7.3480   -3.4740   19.9570 C   0  0  0  0  0  0  0  0  0  0  0  0
  1  2  1  0
  2  3  1  0
  1  4  1  0
  2  5  2  0
  4  6  2  0
  4  7  1  0
  3  8  1  1
  7  9  1  0
  3 10  1  0
  6 11  1  0
  7 12  2  0
 13  9  1  0
  8 14  1  0
 10 15  2  0
 10 16  1  0
 11 17  2  0
 12 17  1  0
 13 18  2  0
 13 19  2  0
 14 20  1  0
 15 21  1  0
 16 22  2  0
 13 23  1  0
 20 24  1  0
 21 25  2  0
 22 25  1  0
 23 26  2  0
 23 27  1  0
 24 28  1  0
 26 29  1  0
 27 30  2  0
 29 31  2  0
 30 31  1  0
 28 32  1  0
 31 33  1  0
 32 34  1  0
 32 35  2  0
 36 34  1  0
 34 37  2  0
 35 38  1  0
 36 39  2  0
 36 40  2  0
 37 41  1  0
 37 42  1  0
 38 42  2  0
 36 43  1  0
 43 44  1  0
 43 45  1  0
 44 46  1  0
 45 47  1  0
 46 48  1  0
 47 48  1  0
 48 49  1  0
 49 50  2  0
 49 51  1  0
M  END
