x0759-x0769
     RDKit          3D

 31 34  0  0  0  0  0  0  0  0999 V2000
    5.6360   -5.2440   27.0390 O   0  0  0  0  0  0  0  0  0  0  0  0
    4.8600   -5.3660   25.8280 S   0  0  0  0  0  0  0  0  0  0  0  0
    3.9060   -6.5620   25.7350 O   0  0  0  0  0  0  0  0  0  0  0  0
    3.7790   -3.9660   25.9070 C   0  0  0  0  0  0  0  0  0  0  0  0
    5.6920   -5.3710   24.2410 N   0  0  0  0  0  0  0  0  0  0  0  0
    4.3060   -2.5740   26.1600 C   0  0  0  0  0  0  0  0  0  0  0  0
    2.2940   -4.0570   25.7350 C   0  0  0  0  0  0  0  0  0  0  0  0
    5.2340   -6.1090   23.1920 C   0  0  0  0  0  0  0  0  0  0  0  0
    6.7820   -4.5720   24.1610 C   0  0  0  0  0  0  0  0  0  0  0  0
    5.6480   -2.3950   26.3300 F   0  0  0  0  0  0  0  0  0  0  0  0
    1.3200   -2.9120   25.7930 C   0  0  0  0  0  0  0  0  0  0  0  0
    3.3510   -1.3370   26.2320 C   0  0  0  0  0  0  0  0  0  0  0  0
    6.1030   -6.1080   22.0220 C   0  0  0  0  0  0  0  0  0  0  0  0
    6.8380   -4.0800   22.8560 C   0  0  2  0  0  0  0  0  0  0  0  0
    1.9040   -1.5000   26.0560 C   0  0  0  0  0  0  0  0  0  0  0  0
    6.6750   -4.9420   21.6970 N   0  0  0  0  0  0  0  0  0  0  0  0
    8.2250   -3.6110   22.7840 O   0  0  0  0  0  0  0  0  0  0  0  0
    5.8920   -2.8820   22.7590 C   0  0  0  0  0  0  0  0  0  0  0  0
    6.2930   -4.4160   20.4350 C   0  0  0  0  0  0  0  0  0  0  0  0
    6.0930   -2.1760   21.6960 N   0  0  0  0  0  0  0  0  0  0  0  0
    8.5530   -2.3560   22.1220 C   0  0  1  0  0  0  0  0  0  0  0  0
    5.2350   -4.7300   19.9280 O   0  0  0  0  0  0  0  0  0  0  0  0
    7.1710   -3.4420   19.6190 C   0  0  0  0  0  0  0  0  0  0  0  0
    7.3300   -1.4310   21.9510 C   0  0  0  0  0  0  0  0  0  0  0  0
    9.6820   -1.6480   22.8560 C   0  0  0  0  0  0  0  0  0  0  0  0
    9.6160   -1.0140   24.1050 C   0  0  0  0  0  0  0  0  0  0  0  0
   10.8820   -1.6650   22.1310 C   0  0  0  0  0  0  0  0  0  0  0  0
   10.7420   -0.3990   24.6030 C   0  0  0  0  0  0  0  0  0  0  0  0
   12.0120   -1.0460   22.6310 C   0  0  0  0  0  0  0  0  0  0  0  0
   11.9230   -0.4220   23.8540 C   0  0  0  0  0  0  0  0  0  0  0  0
   12.9940    0.1650   24.3140 F   0  0  0  0  0  0  0  0  0  0  0  0
  1  2  2  0
  2  3  2  0
  2  4  1  0
  2  5  1  0
  4  6  2  0
  4  7  1  0
  5  8  1  0
  5  9  1  0
  6 10  1  0
  7 11  2  0
  6 12  1  0
  8 13  1  0
 14  9  1  1
 11 15  1  0
 12 15  2  0
 13 16  1  0
 14 16  1  0
 14 17  1  0
 14 18  1  0
 16 19  1  0
 18 20  1  0
 17 21  1  0
 19 22  2  0
 19 23  1  0
 20 24  1  0
 21 24  1  0
 21 25  1  1
 25 26  2  0
 25 27  1  0
 26 28  1  0
 27 29  2  0
 28 30  2  0
 29 30  1  0
 30 31  1  0
M  END
