x0755-x3110-x0995-x0107
     RDKit          3D

 52 56  0  0  0  0  0  0  0  0999 V2000
    8.1290    1.2820   23.4240 N   0  0  0  0  0  0  0  0  0  0  0  0
    8.8730    2.3640   24.0510 C   0  0  0  0  0  0  0  0  0  0  0  0
   10.3510    2.2930   23.7020 C   0  0  0  0  0  0  0  0  0  0  0  0
    7.8750    1.0540   22.0080 C   0  0  2  0  0  0  0  0  0  0  0  0
    7.8850    2.0260   21.2400 O   0  0  0  0  0  0  0  0  0  0  0  0
    6.8720    0.0500   21.8890 C   0  0  2  0  0  0  0  0  0  0  0  0
    9.0820    0.2980   21.4730 C   0  0  0  0  0  0  0  0  0  0  0  0
    7.1930   -1.4070   22.2170 N   0  0  0  0  0  0  0  0  0  0  0  0
   11.2070    3.5070   23.4720 C   0  0  0  0  0  0  0  0  0  0  0  0
    6.2650    0.3350   20.4590 C   0  0  0  0  0  0  0  0  0  0  0  0
    9.4860   -0.7560   22.3570 C   0  0  0  0  0  0  0  0  0  0  0  0
   11.9600    3.3390   22.5200 O   0  0  0  0  0  0  0  0  0  0  0  0
   11.1420    4.5210   24.1540 O   0  0  0  0  0  0  0  0  0  0  0  0
    6.1500   -2.1460   22.9960 C   0  0  0  0  0  0  0  0  0  0  0  0
    5.1110    1.1250   20.3700 C   0  0  0  0  0  0  0  0  0  0  0  0
    6.8390   -0.1450   19.2780 C   0  0  0  0  0  0  0  0  0  0  0  0
   10.8450   -0.9550   22.8970 C   0  0  0  0  0  0  0  0  0  0  0  0
    8.5370   -1.5650   22.6850 C   0  0  0  0  0  0  0  0  0  0  0  0
   12.3280    4.5090   21.9500 C   0  0  0  0  0  0  0  0  0  0  0  0
    5.4650   -3.2330   22.4130 C   0  0  0  0  0  0  0  0  0  0  0  0
    6.3870    0.0930   18.0120 N   0  0  0  0  0  0  0  0  0  0  0  0
    4.5310    1.4420   19.0050 C   0  0  0  0  0  0  0  0  0  0  0  0
   11.1770   -1.9700   23.7430 C   0  0  0  0  0  0  0  0  0  0  0  0
    9.0130   -2.6270   23.5820 C   0  0  0  0  0  0  0  0  0  0  0  0
   13.4030    5.1690   22.7940 C   0  0  0  0  0  0  0  0  0  0  0  0
   12.6070   -1.9820   24.2370 C   0  0  0  0  0  0  0  0  0  0  0  0
    3.4250    2.2030   18.9570 N   0  0  0  0  0  0  0  0  0  0  0  0
    5.2030    0.9120   17.8960 C   0  0  0  0  0  0  0  0  0  0  0  0
   10.3440   -3.0090   24.2310 C   0  0  0  0  0  0  0  0  0  0  0  0
    6.2460   -4.5300   21.9990 C   0  0  0  0  0  0  0  0  0  0  0  0
   12.7180   -0.7040   25.0440 C   0  0  0  0  0  0  0  0  0  0  0  0
   13.4440   -2.1450   22.9560 C   0  0  0  0  0  0  0  0  0  0  0  0
   12.8990   -2.9770   25.0200 C   0  0  0  0  0  0  0  0  0  0  0  0
    6.2760   -4.3030   20.4800 C   0  0  0  0  0  0  0  0  0  0  0  0
    7.3440   -4.8850   22.7490 C   0  0  0  0  0  0  0  0  0  0  0  0
    5.2980   -5.7550   22.0710 C   0  0  0  0  0  0  0  0  0  0  0  0
    5.3720   -4.8840   19.9250 O   0  0  0  0  0  0  0  0  0  0  0  0
    7.2810   -3.3850   19.7890 C   0  0  0  0  0  0  0  0  0  0  0  0
    7.0800   -4.9550   24.1320 C   0  0  0  0  0  0  0  0  0  0  0  0
    4.9090   -6.0590   23.4990 C   0  0  0  0  0  0  0  0  0  0  0  0
    5.6590   -5.2620   24.4550 N   0  0  0  0  0  0  0  0  0  0  0  0
    5.0520   -5.1720   26.0500 S   0  0  0  0  0  0  0  0  0  0  0  0
    4.3590   -6.4120   26.3180 O   0  0  0  0  0  0  0  0  0  0  0  0
    6.0900   -4.6800   26.9040 O   0  0  0  0  0  0  0  0  0  0  0  0
    3.8480   -3.8750   25.9860 C   0  0  0  0  0  0  0  0  0  0  0  0
    2.3470   -4.1640   25.8140 C   0  0  0  0  0  0  0  0  0  0  0  0
    4.2720   -2.4080   26.1080 C   0  0  0  0  0  0  0  0  0  0  0  0
    1.9420   -5.4370   25.7020 F   0  0  0  0  0  0  0  0  0  0  0  0
    5.5330   -1.9950   26.2610 F   0  0  0  0  0  0  0  0  0  0  0  0
    3.1420   -1.4010   26.0500 C   0  0  0  0  0  0  0  0  0  0  0  0
    1.4190   -3.2030   25.7750 C   0  0  0  0  0  0  0  0  0  0  0  0
    1.6900   -1.8300   25.8830 C   0  0  0  0  0  0  0  0  0  0  0  0
  1  2  1  0
  2  3  1  0
  1  4  1  0
  4  5  1  6
  4  6  1  0
  4  7  1  0
  6  8  1  0
  3  9  1  0
  6 10  1  6
  7 11  1  0
  9 12  1  0
  9 13  2  0
  8 14  1  0
 10 15  2  0
 10 16  1  0
 11 17  2  0
  8 18  1  0
 11 18  1  0
 12 19  1  0
 14 20  1  0
 16 21  2  0
 15 22  1  0
 17 23  1  0
 18 24  2  0
 19 25  1  0
 23 26  1  0
 22 27  1  0
 21 28  1  0
 22 28  2  0
 23 29  2  0
 24 29  1  0
 20 30  1  0
 26 31  1  0
 26 32  1  0
 26 33  1  0
 30 34  1  0
 30 35  1  0
 30 36  1  0
 34 37  2  0
 34 38  1  0
 35 39  1  0
 36 40  1  0
 39 41  1  0
 40 41  1  0
 41 42  1  0
 42 43  2  0
 42 44  2  0
 42 45  1  0
 45 46  2  0
 45 47  1  0
 46 48  1  0
 47 49  1  0
 47 50  2  0
 46 51  1  0
 50 52  1  0
 51 52  2  0
M  END
