x0755-x2764
     RDKit          3D

 38 41  0  0  0  0  0  0  0  0999 V2000
    3.9870   -7.1440   26.0430 O   0  0  0  0  0  0  0  0  0  0  0  0
    5.0310   -4.9590   25.7950 S   0  0  0  0  0  0  0  0  0  0  0  0
    6.1340   -4.5910   26.6450 O   0  0  0  0  0  0  0  0  0  0  0  0
    3.8430   -3.7500   25.8370 C   0  0  0  0  0  0  0  0  0  0  0  0
    5.6230   -4.9270   24.2090 N   0  0  0  0  0  0  0  0  0  0  0  0
    2.5030   -4.1840   25.7290 C   0  0  0  0  0  0  0  0  0  0  0  0
    4.2200   -2.4070   25.9760 C   0  0  0  0  0  0  0  0  0  0  0  0
    6.9400   -4.7670   24.0080 C   0  0  0  0  0  0  0  0  0  0  0  0
    4.9390   -5.6760   23.1430 C   0  0  0  0  0  0  0  0  0  0  0  0
    2.1680   -5.4730   25.5960 F   0  0  0  0  0  0  0  0  0  0  0  0
    5.5040   -2.0490   26.0750 F   0  0  0  0  0  0  0  0  0  0  0  0
    3.1520   -1.3160   26.0210 C   0  0  0  0  0  0  0  0  0  0  0  0
    1.4620   -3.2380   25.7630 C   0  0  0  0  0  0  0  0  0  0  0  0
    7.2370   -4.5330   22.6870 C   0  0  0  0  0  0  0  0  0  0  0  0
    5.7420   -6.1470   22.0990 C   0  0  0  0  0  0  0  0  0  0  0  0
    1.6920   -1.7350   25.9120 C   0  0  0  0  0  0  0  0  0  0  0  0
    6.5180   -5.1270   21.6930 N   0  0  0  0  0  0  0  0  0  0  0  0
    6.2500   -4.3930   20.5480 C   0  0  0  0  0  0  0  0  0  0  0  0
    5.2300   -4.6430   19.9320 O   0  0  0  0  0  0  0  0  0  0  0  0
    7.1980   -3.2910   20.0110 C   0  0  0  0  0  0  0  0  0  0  0  0
    7.3620   -2.0640   20.7610 C   0  0  0  0  0  0  0  0  0  0  0  0
    8.6440   -1.6990   21.2150 N   0  0  0  0  0  0  0  0  0  0  0  0
    6.7690   -0.8210   20.0890 C   0  0  0  0  0  0  0  0  0  0  0  0
    9.0920   -2.1980   22.4250 C   0  0  0  0  0  0  0  0  0  0  0  0
    6.3550   -0.9790   18.7660 C   0  0  0  0  0  0  0  0  0  0  0  0
    6.6020    0.4580   20.7460 C   0  0  0  0  0  0  0  0  0  0  0  0
    7.0130    0.5990   22.0290 O   0  0  0  0  0  0  0  0  0  0  0  0
   10.4950   -1.8830   22.8100 C   0  0  0  0  0  0  0  0  0  0  0  0
    5.7080    0.1560   17.9630 C   0  0  0  0  0  0  0  0  0  0  0  0
    5.9660    1.6420   20.0190 C   0  0  0  0  0  0  0  0  0  0  0  0
    7.9650    1.6500   22.3390 C   0  0  0  0  0  0  0  0  0  0  0  0
   11.6960   -1.8270   21.9310 C   0  0  0  0  0  0  0  0  0  0  0  0
   10.8800   -1.5950   24.0920 C   0  0  0  0  0  0  0  0  0  0  0  0
    5.5630    1.4470   18.7190 C   0  0  0  0  0  0  0  0  0  0  0  0
    7.2320    2.8550   22.3520 C   0  0  0  0  0  0  0  0  0  0  0  0
   12.9620   -1.5070   22.5020 N   0  0  0  0  0  0  0  0  0  0  0  0
   12.5960   -1.2960   24.1330 S   0  0  0  0  0  0  0  0  0  0  0  0
    8.0720    3.9360   22.5490 N   0  0  0  0  0  0  0  0  0  0  0  0
  1  2  2  0
  2  3  2  0
  2  4  1  0
  2  5  1  0
  4  6  2  0
  4  7  1  0
  5  8  1  0
  5  9  1  0
  6 10  1  0
  7 11  1  0
  7 12  2  0
  6 13  1  0
  8 14  1  0
  9 15  1  0
 12 16  1  0
 13 16  2  0
 14 17  1  0
 15 17  1  0
 17 18  1  0
 18 19  2  0
 18 20  1  0
 20 21  2  3
 21 22  1  0
 21 23  1  0
 22 24  1  0
 23 25  2  0
 23 26  1  0
 26 27  1  0
 24 28  1  0
 25 29  1  0
 26 30  2  0
 27 31  1  0
 28 32  1  0
 28 33  2  0
 29 34  2  0
 30 34  1  0
 31 35  1  0
 32 36  2  0
 33 37  1  0
 36 37  1  0
 35 38  3  0
M  END
