x0759-x2572
     RDKit          3D

 28 31  0  0  0  0  0  0  0  0999 V2000
    4.4880    0.8550   21.6300 C   0  0  0  0  0  0  0  0  0  0  0  0
    5.1460    0.7310   20.2800 C   0  0  0  0  0  0  0  0  0  0  0  0
    6.3310    0.0460   20.0770 C   0  0  0  0  0  0  0  0  0  0  0  0
    4.5600    1.3320   19.1880 C   0  0  0  0  0  0  0  0  0  0  0  0
    7.0050   -0.5680   21.1530 N   0  0  0  0  0  0  0  0  0  0  0  0
    6.8870   -0.0040   18.7200 C   0  0  0  0  0  0  0  0  0  0  0  0
    5.1090    1.2760   17.9240 C   0  0  0  0  0  0  0  0  0  0  0  0
    8.1710   -0.0130   21.4930 C   0  0  0  0  0  0  0  0  0  0  0  0
    6.3640    0.5200   17.8160 N   0  0  0  0  0  0  0  0  0  0  0  0
    6.6700   -1.7540   21.9290 C   0  0  1  0  0  0  0  0  0  0  0  0
    8.5780    1.1440   21.3760 O   0  0  0  0  0  0  0  0  0  0  0  0
    8.8850   -1.1550   22.0670 C   0  0  2  0  0  0  0  0  0  0  0  0
    6.4780   -3.0050   21.3810 N   0  0  0  0  0  0  0  0  0  0  0  0
    7.7640   -1.8130   22.8680 C   0  0  2  0  0  0  0  0  0  0  0  0
    6.2940   -3.3800   20.0320 C   0  0  0  0  0  0  0  0  0  0  0  0
   10.2230   -0.7760   22.5310 C   0  0  0  0  0  0  0  0  0  0  0  0
    8.1980   -3.1910   23.1160 O   0  0  0  0  0  0  0  0  0  0  0  0
    6.2600   -4.0230   22.3860 C   0  0  0  0  0  0  0  0  0  0  0  0
    5.3340   -4.0940   19.7230 O   0  0  0  0  0  0  0  0  0  0  0  0
    7.3220   -2.9740   18.9950 C   0  0  0  0  0  0  0  0  0  0  0  0
   10.5420    0.3300   23.5010 C   0  0  0  0  0  0  0  0  0  0  0  0
   11.1000   -1.6120   21.8910 C   0  0  0  0  0  0  0  0  0  0  0  0
    7.2100   -4.0570   23.4210 C   0  0  0  0  0  0  0  0  0  0  0  0
   12.0290    0.5250   23.7760 C   0  0  0  0  0  0  0  0  0  0  0  0
   12.4350   -1.4520   22.1240 C   0  0  0  0  0  0  0  0  0  0  0  0
   13.2240   -2.4050   21.3670 C   0  0  0  0  0  0  0  0  0  0  0  0
   13.0060   -0.3730   23.0810 C   0  0  0  0  0  0  0  0  0  0  0  0
   13.7450   -3.4020   20.5810 N   0  0  0  0  0  0  0  0  0  0  0  0
  1  2  1  0
  2  3  2  0
  2  4  1  0
  3  5  1  0
  3  6  1  0
  4  7  2  0
  5  8  1  0
  6  9  2  0
  7  9  1  0
 10  5  1  6
  8 11  2  0
  8 12  1  0
 10 13  1  0
 10 14  1  0
 12 14  1  0
 13 15  1  0
 12 16  1  1
 14 17  1  6
 13 18  1  0
 15 19  2  0
 15 20  1  0
 16 21  2  0
 16 22  1  0
 17 23  1  0
 18 23  1  0
 21 24  1  0
 22 25  2  0
 25 26  1  0
 24 27  2  0
 25 27  1  0
 26 28  3  0
M  END
