x0752-x3298
     RDKit          3D

 44 48  0  0  0  0  0  0  0  0999 V2000
    7.1060    2.0590   22.0140 N   0  0  0  0  0  0  0  0  0  0  0  0
    8.0390    1.2550   21.4240 C   0  0  0  0  0  0  0  0  0  0  0  0
    7.5230   -0.1390   21.2070 C   0  0  1  0  0  0  0  0  0  0  0  0
    7.7710    3.1930   22.6180 C   0  0  0  0  0  0  0  0  0  0  0  0
    9.1410    1.5990   21.0750 O   0  0  0  0  0  0  0  0  0  0  0  0
    7.6880    4.5420   22.2660 C   0  0  0  0  0  0  0  0  0  0  0  0
    8.5350    2.7380   23.6110 C   0  0  0  0  0  0  0  0  0  0  0  0
    6.8880   -0.5870   22.3800 O   0  0  0  0  0  0  0  0  0  0  0  0
    8.5850    1.2770   23.9490 N   0  0  0  0  0  0  0  0  0  0  0  0
    6.6170    0.1780   20.0950 C   0  0  0  0  0  0  0  0  0  0  0  0
    8.4480    5.5680   22.9650 C   0  0  0  0  0  0  0  0  0  0  0  0
    9.2870    3.8280   24.2840 C   0  0  0  0  0  0  0  0  0  0  0  0
    9.9760    0.7430   24.6890 S   0  0  0  0  0  0  0  0  0  0  0  0
    7.2970   -1.9150   22.6820 C   0  0  0  0  0  0  0  0  0  0  0  0
    7.0210   -0.1730   18.6600 C   0  0  0  0  0  0  0  0  0  0  0  0
    5.4000    0.8200   20.3330 C   0  0  0  0  0  0  0  0  0  0  0  0
    9.2820    5.1450   24.0230 C   0  0  0  0  0  0  0  0  0  0  0  0
   10.7490    1.9310   24.7340 O   0  0  0  0  0  0  0  0  0  0  0  0
    9.6600   -0.1240   25.8080 O   0  0  0  0  0  0  0  0  0  0  0  0
    6.3610   -2.7390   22.0500 C   0  0  0  0  0  0  0  0  0  0  0  0
    6.1890    0.1740   17.6480 N   0  0  0  0  0  0  0  0  0  0  0  0
    4.6230    1.1240   19.2400 C   0  0  0  0  0  0  0  0  0  0  0  0
   11.0180   -0.1030   23.5810 C   0  0  0  0  0  0  0  0  0  0  0  0
    6.8690   -3.9870   21.5250 N   0  0  0  0  0  0  0  0  0  0  0  0
    5.0510    0.7990   17.9810 C   0  0  0  0  0  0  0  0  0  0  0  0
   12.2470    0.4510   23.3570 C   0  0  0  0  0  0  0  0  0  0  0  0
   10.6660   -1.3550   22.8720 C   0  0  0  0  0  0  0  0  0  0  0  0
    6.4310   -4.1900   20.2600 C   0  0  0  0  0  0  0  0  0  0  0  0
    6.7840   -5.1160   22.4570 C   0  0  0  0  0  0  0  0  0  0  0  0
   13.1980   -0.0910   22.4800 C   0  0  0  0  0  0  0  0  0  0  0  0
   11.5770   -1.9060   22.0040 C   0  0  0  0  0  0  0  0  0  0  0  0
    7.1660   -3.3410   19.2440 C   0  0  0  0  0  0  0  0  0  0  0  0
    5.5310   -4.9760   20.0000 O   0  0  0  0  0  0  0  0  0  0  0  0
   12.8310   -1.3720   21.7370 C   0  0  0  0  0  0  0  0  0  0  0  0
    5.7340   -4.7080   23.4020 C   0  0  0  0  0  0  0  0  0  0  0  0
   13.6450   -1.9440   20.8750 F   0  0  0  0  0  0  0  0  0  0  0  0
    4.4610   -5.2110   23.2830 C   0  0  0  0  0  0  0  0  0  0  0  0
    6.0730   -3.7680   24.3950 C   0  0  0  0  0  0  0  0  0  0  0  0
    3.5270   -4.7370   24.1650 C   0  0  0  0  0  0  0  0  0  0  0  0
    5.1210   -3.2960   25.2720 C   0  0  0  0  0  0  0  0  0  0  0  0
    3.8540   -3.7930   25.1310 C   0  0  0  0  0  0  0  0  0  0  0  0
    2.2250   -5.0950   24.2170 O   0  0  0  0  0  0  0  0  0  0  0  0
    2.7870   -3.4430   25.8870 O   0  0  0  0  0  0  0  0  0  0  0  0
    1.7520   -4.2380   25.2740 C   0  0  0  0  0  0  0  0  0  0  0  0
  1  2  1  0
  2  3  1  0
  1  4  1  0
  2  5  2  0
  4  6  2  0
  4  7  1  0
  3  8  1  1
  7  9  1  0
  3 10  1  0
  6 11  1  0
  7 12  2  0
 13  9  1  0
  8 14  1  0
 10 15  2  0
 10 16  1  0
 11 17  2  0
 12 17  1  0
 13 18  2  0
 13 19  2  0
 14 20  1  0
 15 21  1  0
 16 22  2  0
 13 23  1  0
 20 24  1  0
 21 25  2  0
 22 25  1  0
 23 26  2  0
 23 27  1  0
 24 28  1  0
 24 29  1  0
 26 30  1  0
 27 31  2  0
 28 32  1  0
 28 33  2  0
 30 34  2  0
 31 34  1  0
 29 35  1  0
 34 36  1  0
 35 37  2  0
 35 38  1  0
 37 39  1  0
 38 40  2  0
 39 41  2  0
 40 41  1  0
 39 42  1  0
 41 43  1  0
 42 44  1  0
 43 44  1  0
M  END
