x0755-x2776
     RDKit          3D

 52 56  0  0  0  0  0  0  0  0999 V2000
    7.0620   -0.9210   21.9240 N   0  0  0  0  0  0  0  0  0  0  0  0
    6.8070    0.4240   21.7160 C   0  0  1  0  0  0  0  0  0  0  0  0
    7.9770    1.3670   21.8240 C   0  0  0  0  0  0  0  0  0  0  0  0
    6.0490   -1.9380   21.8940 C   0  0  0  0  0  0  0  0  0  0  0  0
    8.3550   -1.2110   22.4820 C   0  0  0  0  0  0  0  0  0  0  0  0
    6.1690   -3.0200   22.7790 C   0  0  0  0  0  0  0  0  0  0  0  0
    6.2390    0.6390   20.3700 C   0  0  0  0  0  0  0  0  0  0  0  0
    9.3960   -1.5420   21.6240 C   0  0  0  0  0  0  0  0  0  0  0  0
    8.6240   -1.1530   23.8700 C   0  0  0  0  0  0  0  0  0  0  0  0
    7.8610    2.2020   22.9090 N   0  0  0  0  0  0  0  0  0  0  0  0
    8.8940    1.3900   21.0200 O   0  0  0  0  0  0  0  0  0  0  0  0
    5.1210    1.4080   20.1670 C   0  0  0  0  0  0  0  0  0  0  0  0
    6.8910    0.0390   19.2960 C   0  0  0  0  0  0  0  0  0  0  0  0
   10.6820   -1.8060   22.0500 C   0  0  0  0  0  0  0  0  0  0  0  0
    9.9360   -1.4120   24.3350 C   0  0  0  0  0  0  0  0  0  0  0  0
    6.3070   -4.4940   22.2010 C   0  0  0  0  0  0  0  0  0  0  0  0
    6.5650   -4.3210   20.6930 C   0  0  0  0  0  0  0  0  0  0  0  0
    6.3290    0.2840   17.9610 N   0  0  0  0  0  0  0  0  0  0  0  0
    4.6330    1.6060   18.9030 C   0  0  0  0  0  0  0  0  0  0  0  0
    8.6550    3.3160   23.1540 C   0  0  0  0  0  0  0  0  0  0  0  0
   10.9140   -1.7240   23.4030 C   0  0  0  0  0  0  0  0  0  0  0  0
    7.3220   -5.0220   22.8910 C   0  0  0  0  0  0  0  0  0  0  0  0
    4.9990   -5.2940   22.2960 C   0  0  0  0  0  0  0  0  0  0  0  0
   12.2750   -1.9400   24.0600 C   0  0  2  0  0  0  0  0  0  0  0  0
    5.6780   -4.6920   19.9350 O   0  0  0  0  0  0  0  0  0  0  0  0
    7.9180   -3.6540   20.3730 C   0  0  0  0  0  0  0  0  0  0  0  0
    5.1940    1.0830   17.8230 C   0  0  0  0  0  0  0  0  0  0  0  0
    9.9810    3.1830   23.5680 C   0  0  0  0  0  0  0  0  0  0  0  0
    8.0670    4.5740   22.9670 C   0  0  0  0  0  0  0  0  0  0  0  0
    7.1510   -5.1330   24.2600 C   0  0  0  0  0  0  0  0  0  0  0  0
    4.9150   -5.9850   23.4860 C   0  0  0  0  0  0  0  0  0  0  0  0
   12.1910   -2.8220   24.9040 O   0  0  0  0  0  0  0  0  0  0  0  0
   10.6200    1.8400   23.7710 C   0  0  0  0  0  0  0  0  0  0  0  0
   12.8440   -0.5800   24.4520 C   0  0  0  0  0  0  0  0  0  0  0  0
   10.8360    4.4170   23.8310 C   0  0  0  0  0  0  0  0  0  0  0  0
    8.7750    5.7660   23.1930 C   0  0  0  0  0  0  0  0  0  0  0  0
    5.7000   -5.2870   24.5110 N   0  0  0  0  0  0  0  0  0  0  0  0
   13.4850   -3.0970   25.4190 C   0  0  0  0  0  0  0  0  0  0  0  0
    4.9950   -5.1480   26.0660 S   0  0  0  0  0  0  0  0  0  0  0  0
   10.1020    5.7160   23.6120 C   0  0  0  0  0  0  0  0  0  0  0  0
   10.7720    6.9030   23.8380 O   0  0  0  0  0  0  0  0  0  0  0  0
    4.2970   -6.3870   26.3200 O   0  0  0  0  0  0  0  0  0  0  0  0
    5.9590   -4.6780   27.0210 O   0  0  0  0  0  0  0  0  0  0  0  0
    3.7990   -3.8680   25.9560 C   0  0  0  0  0  0  0  0  0  0  0  0
   11.7990    6.7770   24.8250 C   0  0  0  0  0  0  0  0  0  0  0  0
    2.4490   -4.1850   25.7800 C   0  0  0  0  0  0  0  0  0  0  0  0
    4.1920   -2.5240   26.0550 C   0  0  0  0  0  0  0  0  0  0  0  0
    2.0350   -5.4590   25.6790 F   0  0  0  0  0  0  0  0  0  0  0  0
    5.4690   -2.1630   26.2250 F   0  0  0  0  0  0  0  0  0  0  0  0
    3.2440   -1.5070   25.9850 C   0  0  0  0  0  0  0  0  0  0  0  0
    1.4940   -3.1740   25.7090 C   0  0  0  0  0  0  0  0  0  0  0  0
    1.8900   -1.8320   25.8150 C   0  0  0  0  0  0  0  0  0  0  0  0
  1  2  1  0
  2  3  1  6
  1  4  1  0
  1  5  1  0
  4  6  1  0
  2  7  1  0
  5  8  2  0
  5  9  1  0
  3 10  1  0
  3 11  2  0
  7 12  2  0
  7 13  1  0
  8 14  1  0
  9 15  2  0
  6 16  1  0
 16 17  1  0
 13 18  2  0
 12 19  1  0
 10 20  1  0
 14 21  2  0
 15 21  1  0
 16 22  1  0
 16 23  1  0
 21 24  1  0
 17 25  2  0
 17 26  1  0
 18 27  1  0
 19 27  2  0
 20 28  2  0
 20 29  1  0
 22 30  1  0
 23 31  1  0
 24 32  1  0
 28 33  1  0
 24 34  1  1
 28 35  1  0
 29 36  2  0
 30 37  1  0
 31 37  1  0
 32 38  1  0
 37 39  1  0
 35 40  2  0
 36 40  1  0
 40 41  1  0
 39 42  2  0
 39 43  2  0
 39 44  1  0
 41 45  1  0
 44 46  2  0
 44 47  1  0
 46 48  1  0
 47 49  1  0
 47 50  2  0
 46 51  1  0
 50 52  1  0
 51 52  2  0
M  END
