x0752-x2694
     RDKit          3D

 45 49  0  0  0  0  0  0  0  0999 V2000
    7.5900   -0.7920   21.8310 N   0  0  0  0  0  0  0  0  0  0  0  0
    7.0640    0.4830   21.6910 C   0  0  1  0  0  0  0  0  0  0  0  0
    8.0810    1.5790   21.7440 C   0  0  0  0  0  0  0  0  0  0  0  0
    6.7540   -1.9830   21.8140 C   0  0  0  0  0  0  0  0  0  0  0  0
    8.7650   -1.0250   22.5860 C   0  0  0  0  0  0  0  0  0  0  0  0
    7.5760   -3.1250   21.9440 C   0  0  0  0  0  0  0  0  0  0  0  0
    6.3350    0.6830   20.4010 C   0  0  0  0  0  0  0  0  0  0  0  0
    8.8360   -1.2860   24.0410 N   0  0  0  0  0  0  0  0  0  0  0  0
   10.0500   -1.0690   22.1190 C   0  0  0  0  0  0  0  0  0  0  0  0
    7.7430    2.7010   22.6090 N   0  0  0  0  0  0  0  0  0  0  0  0
    9.0830    1.5450   21.0700 O   0  0  0  0  0  0  0  0  0  0  0  0
    7.1260   -4.4410   21.4790 N   0  0  0  0  0  0  0  0  0  0  0  0
    5.0800    1.5500   20.2370 C   0  0  0  0  0  0  0  0  0  0  0  0
    6.8490    0.0200   19.1360 C   0  0  0  0  0  0  0  0  0  0  0  0
   10.1750   -1.4670   24.3990 O   0  0  0  0  0  0  0  0  0  0  0  0
   11.0030   -1.3440   23.2060 C   0  0  0  0  0  0  0  0  0  0  0  0
   12.4220   -1.4700   23.1760 C   0  0  0  0  0  0  0  0  0  0  0  0
    6.4670   -4.2810   20.2700 C   0  0  0  0  0  0  0  0  0  0  0  0
    6.8300   -5.3570   22.4560 C   0  0  0  0  0  0  0  0  0  0  0  0
    6.2850    0.1520   17.9110 N   0  0  0  0  0  0  0  0  0  0  0  0
    4.5190    1.6830   19.0160 C   0  0  0  0  0  0  0  0  0  0  0  0
    8.5900    3.7480   23.0120 C   0  0  0  0  0  0  0  0  0  0  0  0
   12.9920   -0.0480   23.2430 C   0  0  0  0  0  0  0  0  0  0  0  0
   12.8720   -2.1310   21.8640 C   0  0  0  0  0  0  0  0  0  0  0  0
   12.9420   -2.2910   24.3790 C   0  0  0  0  0  0  0  0  0  0  0  0
    7.2000   -3.3820   19.2830 C   0  0  0  0  0  0  0  0  0  0  0  0
    5.4170   -4.8500   19.9930 O   0  0  0  0  0  0  0  0  0  0  0  0
    5.1200    1.0100   17.9400 C   0  0  0  0  0  0  0  0  0  0  0  0
    9.9260    3.5480   23.2930 C   0  0  0  0  0  0  0  0  0  0  0  0
    8.0570    4.9570   23.1170 C   0  0  0  0  0  0  0  0  0  0  0  0
    5.7200   -4.8030   23.2840 C   0  0  0  0  0  0  0  0  0  0  0  0
   10.5250    2.1940   23.1450 C   0  0  0  0  0  0  0  0  0  0  0  0
   10.7870    4.5610   23.7110 C   0  0  0  0  0  0  0  0  0  0  0  0
    8.8470    6.0180   23.5210 C   0  0  0  0  0  0  0  0  0  0  0  0
    4.4440   -5.3590   23.2920 C   0  0  0  0  0  0  0  0  0  0  0  0
    6.0030   -3.6570   24.0740 C   0  0  0  0  0  0  0  0  0  0  0  0
   10.1970    5.8920   23.8340 C   0  0  0  0  0  0  0  0  0  0  0  0
    3.4930   -4.7480   24.0720 C   0  0  0  0  0  0  0  0  0  0  0  0
    5.0190   -3.0600   24.8470 C   0  0  0  0  0  0  0  0  0  0  0  0
   11.0370    6.8820   24.2460 O   0  0  0  0  0  0  0  0  0  0  0  0
    3.7780   -3.6200   24.8260 C   0  0  0  0  0  0  0  0  0  0  0  0
    2.2060   -5.1380   24.2060 O   0  0  0  0  0  0  0  0  0  0  0  0
   11.9090    6.5600   25.3200 C   0  0  0  0  0  0  0  0  0  0  0  0
    2.6990   -3.1740   25.5100 O   0  0  0  0  0  0  0  0  0  0  0  0
    1.7610   -4.2290   25.2360 C   0  0  0  0  0  0  0  0  0  0  0  0
  1  2  1  0
  2  3  1  6
  1  4  1  0
  1  5  1  0
  4  6  1  0
  2  7  1  0
  5  8  2  0
  5  9  1  0
  3 10  1  0
  3 11  2  0
  6 12  1  0
  7 13  2  0
  7 14  1  0
  8 15  1  0
  9 16  2  0
 15 16  1  0
 16 17  1  0
 12 18  1  0
 12 19  1  0
 14 20  2  0
 13 21  1  0
 10 22  1  0
 17 23  1  0
 17 24  1  0
 17 25  1  0
 18 26  1  0
 18 27  2  0
 20 28  1  0
 21 28  2  0
 22 29  2  0
 22 30  1  0
 19 31  1  0
 29 32  1  0
 29 33  1  0
 30 34  2  0
 31 35  2  0
 31 36  1  0
 33 37  2  0
 34 37  1  0
 35 38  1  0
 36 39  2  0
 37 40  1  0
 38 41  2  0
 39 41  1  0
 38 42  1  0
 40 43  1  0
 41 44  1  0
 42 45  1  0
 44 45  1  0
M  END
