x0752-x2562
     RDKit          3D

 38 42  0  0  0  0  0  0  0  0999 V2000
    8.4000    0.1040   21.4440 C   0  0  0  0  0  0  0  0  0  0  0  0
    6.9670   -0.4190   21.3320 C   0  0  2  0  0  0  0  0  0  0  0  0
    6.6800   -1.8710   21.8050 C   0  0  0  0  0  0  0  0  0  0  0  0
    8.6210    1.2680   21.0430 O   0  0  0  0  0  0  0  0  0  0  0  0
    9.3530   -0.7280   22.0000 N   0  0  0  0  0  0  0  0  0  0  0  0
    6.2880    0.1670   20.1250 C   0  0  0  0  0  0  0  0  0  0  0  0
   10.6050   -0.2350   22.3240 C   0  0  0  0  0  0  0  0  0  0  0  0
    7.8150   -2.9490   21.8710 C   0  0  0  0  0  0  0  0  0  0  0  0
    6.8110    0.0160   18.8530 C   0  0  0  0  0  0  0  0  0  0  0  0
    5.1260    0.9000   20.1870 C   0  0  0  0  0  0  0  0  0  0  0  0
   11.7200   -1.0830   22.2660 C   0  0  0  0  0  0  0  0  0  0  0  0
   10.7430    1.0880   22.6890 C   0  0  0  0  0  0  0  0  0  0  0  0
    7.2120   -4.2410   21.4520 N   0  0  0  0  0  0  0  0  0  0  0  0
    4.5280    1.4510   19.1210 N   0  0  0  0  0  0  0  0  0  0  0  0
    6.2540    0.5490   17.7550 N   0  0  0  0  0  0  0  0  0  0  0  0
   12.9520   -0.5810   22.5610 C   0  0  0  0  0  0  0  0  0  0  0  0
   11.9750    1.5950   22.9840 C   0  0  0  0  0  0  0  0  0  0  0  0
   12.0640    2.9180   23.3490 O   0  0  0  0  0  0  0  0  0  0  0  0
    6.5480   -4.1480   20.2420 C   0  0  0  0  0  0  0  0  0  0  0  0
    6.9180   -5.2410   22.4740 C   0  0  0  0  0  0  0  0  0  0  0  0
    5.1330    1.2480   17.9490 C   0  0  0  0  0  0  0  0  0  0  0  0
   13.0870    0.7610   22.9130 C   0  0  0  0  0  0  0  0  0  0  0  0
    7.2640   -3.3170   19.2090 C   0  0  0  0  0  0  0  0  0  0  0  0
    5.4980   -4.7350   19.9890 O   0  0  0  0  0  0  0  0  0  0  0  0
   12.9430    3.8280   22.6670 C   0  0  1  0  0  0  0  0  0  0  0  0
    5.8180   -4.6790   23.2990 C   0  0  0  0  0  0  0  0  0  0  0  0
   12.2270    4.9230   21.9690 N   0  0  0  0  0  0  0  0  0  0  0  0
   13.5040    4.8330   23.4570 C   0  0  0  0  0  0  0  0  0  0  0  0
    4.5650   -5.3000   23.3110 C   0  0  0  0  0  0  0  0  0  0  0  0
    6.0350   -3.5110   24.0590 C   0  0  0  0  0  0  0  0  0  0  0  0
   13.4250    5.6830   22.2260 C   0  0  2  0  0  0  0  0  0  0  0  0
    3.5810   -4.7170   24.0750 C   0  0  0  0  0  0  0  0  0  0  0  0
    5.0230   -2.9450   24.8150 C   0  0  0  0  0  0  0  0  0  0  0  0
   13.2530    7.0560   22.5360 O   0  0  0  0  0  0  0  0  0  0  0  0
    3.8050   -3.5700   24.8000 C   0  0  0  0  0  0  0  0  0  0  0  0
    2.3110   -5.1690   24.2100 O   0  0  0  0  0  0  0  0  0  0  0  0
    2.7040   -3.1590   25.4710 O   0  0  0  0  0  0  0  0  0  0  0  0
    1.8140   -4.2600   25.2160 C   0  0  0  0  0  0  0  0  0  0  0  0
  1  2  1  0
  2  3  1  6
  1  4  2  0
  1  5  1  0
  2  6  1  0
  5  7  1  0
  3  8  1  0
  6  9  2  0
  6 10  1  0
  7 11  2  0
  7 12  1  0
  8 13  1  0
 10 14  2  0
  9 15  1  0
 11 16  1  0
 12 17  2  0
 17 18  1  0
 13 19  1  0
 13 20  1  0
 14 21  1  0
 15 21  2  0
 16 22  2  0
 17 22  1  0
 19 23  1  0
 19 24  2  0
 25 18  1  1
 20 26  1  0
 25 27  1  0
 25 28  1  0
 26 29  2  0
 26 30  1  0
 27 31  1  0
 28 31  1  0
 29 32  1  0
 30 33  2  0
 31 34  1  1
 32 35  2  0
 33 35  1  0
 32 36  1  0
 35 37  1  0
 36 38  1  0
 37 38  1  0
M  END
