x0752-x3303
     RDKit          3D

 40 46  0  0  0  0  0  0  0  0999 V2000
    7.0890   -4.2620   21.4870 N   0  0  0  0  0  0  0  0  0  0  0  0
    6.4860   -4.3470   20.2690 C   0  0  0  0  0  0  0  0  0  0  0  0
    7.1820   -3.4770   19.1920 C   0  0  0  0  0  0  0  0  0  0  0  0
    6.8970   -5.1980   22.5610 C   0  0  0  0  0  0  0  0  0  0  0  0
    7.2230   -2.8350   21.6940 C   0  0  1  0  0  0  0  0  0  0  0  0
    5.5090   -5.0330   20.0140 O   0  0  0  0  0  0  0  0  0  0  0  0
    6.0910   -2.2440   20.9240 N   0  0  0  0  0  0  0  0  0  0  0  0
    5.7890   -4.6970   23.4000 C   0  0  0  0  0  0  0  0  0  0  0  0
    7.4360   -1.8500   22.8340 C   0  0  1  0  0  0  0  0  0  0  0  0
    6.5000   -1.0340   20.9580 C   0  0  0  0  0  0  0  0  0  0  0  0
    4.5120   -5.2560   23.3170 C   0  0  0  0  0  0  0  0  0  0  0  0
    6.0420   -3.6340   24.2800 C   0  0  0  0  0  0  0  0  0  0  0  0
    8.7380   -2.0600   23.6170 C   0  0  0  0  0  0  0  0  0  0  0  0
    7.5990   -0.8610   21.7550 N   0  0  0  0  0  0  0  0  0  0  0  0
    3.5380   -4.7110   24.1140 C   0  0  0  0  0  0  0  0  0  0  0  0
    5.0420   -3.1000   25.0670 C   0  0  0  0  0  0  0  0  0  0  0  0
    8.2170    0.3970   22.0580 C   0  0  0  0  0  0  0  0  0  0  0  0
    9.8160   -1.0610   23.4100 N   0  0  0  0  0  0  0  0  0  0  0  0
    5.8470    0.0080   20.1730 C   0  0  0  0  0  0  0  0  0  0  0  0
    3.7960   -3.6580   24.9630 C   0  0  0  0  0  0  0  0  0  0  0  0
    2.2460   -5.1100   24.1740 O   0  0  0  0  0  0  0  0  0  0  0  0
    9.6400    0.1260   22.5240 C   0  0  0  0  0  0  0  0  0  0  0  0
    4.8330    0.8520   20.5890 C   0  0  0  0  0  0  0  0  0  0  0  0
    6.3550    0.1040   18.8950 C   0  0  0  0  0  0  0  0  0  0  0  0
   11.0720   -1.5640   23.4800 C   0  0  0  0  0  0  0  0  0  0  0  0
    2.7050   -3.2640   25.6520 O   0  0  0  0  0  0  0  0  0  0  0  0
    1.7430   -4.2400   25.2110 C   0  0  0  0  0  0  0  0  0  0  0  0
    4.3550    1.7800   19.6750 C   0  0  0  0  0  0  0  0  0  0  0  0
    5.8030    1.0560   18.1100 C   0  0  0  0  0  0  0  0  0  0  0  0
   11.8130   -1.7630   22.3240 C   0  0  0  0  0  0  0  0  0  0  0  0
   11.6610   -1.9060   24.6810 C   0  0  0  0  0  0  0  0  0  0  0  0
    4.2680    0.8270   21.8720 C   0  0  0  0  0  0  0  0  0  0  0  0
    6.2440    1.2260   16.8740 O   0  0  0  0  0  0  0  0  0  0  0  0
    4.8330    1.8880   18.4430 N   0  0  0  0  0  0  0  0  0  0  0  0
   13.0770   -2.2870   22.3680 C   0  0  0  0  0  0  0  0  0  0  0  0
   12.9360   -2.4400   24.7580 C   0  0  0  0  0  0  0  0  0  0  0  0
    3.2490    1.7090   22.2230 C   0  0  0  0  0  0  0  0  0  0  0  0
    3.3410    2.6470   20.0300 C   0  0  0  0  0  0  0  0  0  0  0  0
   13.6330   -2.6310   23.5870 C   0  0  0  0  0  0  0  0  0  0  0  0
    2.7820    2.6200   21.2960 C   0  0  0  0  0  0  0  0  0  0  0  0
  1  2  1  0
  2  3  1  0
  1  4  1  0
  5  1  1  1
  2  6  2  0
  5  7  1  0
  4  8  1  0
  5  9  1  0
  7 10  2  0
  8 11  2  0
  8 12  1  0
  9 13  1  6
  9 14  1  0
 10 14  1  0
 11 15  1  0
 12 16  2  0
 14 17  1  0
 13 18  1  0
 10 19  1  0
 15 20  2  0
 16 20  1  0
 15 21  1  0
 17 22  1  0
 18 22  1  0
 19 23  1  0
 19 24  2  0
 18 25  1  0
 20 26  1  0
 21 27  1  0
 26 27  1  0
 23 28  2  0
 24 29  1  0
 25 30  2  0
 25 31  1  0
 23 32  1  0
 29 33  1  0
 28 34  1  0
 29 34  2  0
 30 35  1  0
 31 36  2  0
 32 37  2  0
 28 38  1  0
 35 39  2  0
 36 39  1  0
 37 40  1  0
 38 40  2  0
M  END
