x0759-x0426
     RDKit          3D

 37 40  0  0  0  0  0  0  0  0999 V2000
    2.3440    1.7740   23.8410 C   0  0  0  0  0  0  0  0  0  0  0  0
    3.4390    2.3990   23.2470 N   0  0  0  0  0  0  0  0  0  0  0  0
    4.3130    1.7110   22.3990 C   0  0  2  0  0  0  0  0  0  0  0  0
    2.1910    0.3490   23.8500 O   0  0  0  0  0  0  0  0  0  0  0  0
    1.2330    2.5770   24.5350 C   0  0  0  0  0  0  0  0  0  0  0  0
    1.6100    3.8340   25.1940 C   0  0  0  0  0  0  0  0  0  0  0  0
   -0.0800    2.0720   24.5090 C   0  0  0  0  0  0  0  0  0  0  0  0
    3.5770    1.0540   21.2270 C   0  0  0  0  0  0  0  0  0  0  0  0
    2.8830    4.2550   25.1790 F   0  0  0  0  0  0  0  0  0  0  0  0
    5.0340    0.7680   23.3330 C   0  0  0  0  0  0  0  0  0  0  0  0
   -1.1260    2.7640   25.1320 C   0  0  0  0  0  0  0  0  0  0  0  0
    0.6420    4.6040   25.8450 C   0  0  0  0  0  0  0  0  0  0  0  0
    5.3390   -0.7210   22.9380 C   0  0  0  0  0  0  0  0  0  0  0  0
   -0.8230    4.1000   25.8530 C   0  0  0  0  0  0  0  0  0  0  0  0
    4.5590    0.9540   20.0520 C   0  0  0  0  0  0  0  0  0  0  0  0
    6.8200   -1.1470   22.9610 C   0  0  0  0  0  0  0  0  0  0  0  0
    5.8610    0.1360   20.0610 C   0  0  0  0  0  0  0  0  0  0  0  0
    4.3730    1.5900   18.8460 C   0  0  0  0  0  0  0  0  0  0  0  0
    6.7450    0.0250   19.0160 C   0  0  0  0  0  0  0  0  0  0  0  0
    5.2830    1.4640   17.7990 C   0  0  0  0  0  0  0  0  0  0  0  0
    7.3810   -2.1080   21.8670 C   0  0  2  0  0  0  0  0  0  0  0  0
    6.4850    0.6890   17.8230 N   0  0  0  0  0  0  0  0  0  0  0  0
    6.3440   -2.9600   21.5020 N   0  0  0  0  0  0  0  0  0  0  0  0
    8.5420   -2.6980   22.3670 C   0  0  2  0  0  0  0  0  0  0  0  0
    6.2370   -3.4940   20.1760 C   0  0  0  0  0  0  0  0  0  0  0  0
    8.2120   -3.5180   23.4880 O   0  0  0  0  0  0  0  0  0  0  0  0
    6.0620   -3.8520   22.5690 C   0  0  0  0  0  0  0  0  0  0  0  0
    9.6350   -1.7660   22.8720 C   0  0  0  0  0  0  0  0  0  0  0  0
    5.3860   -4.3410   19.8610 O   0  0  0  0  0  0  0  0  0  0  0  0
    7.2100   -3.0550   19.0900 C   0  0  0  0  0  0  0  0  0  0  0  0
    7.1670   -4.4620   23.1780 C   0  0  0  0  0  0  0  0  0  0  0  0
    9.5280   -0.9490   24.0120 C   0  0  0  0  0  0  0  0  0  0  0  0
   10.8250   -1.7240   22.1560 C   0  0  0  0  0  0  0  0  0  0  0  0
   10.5950   -0.1220   24.3890 C   0  0  0  0  0  0  0  0  0  0  0  0
   11.8720   -0.9130   22.5310 C   0  0  0  0  0  0  0  0  0  0  0  0
   11.7710   -0.0990   23.6460 C   0  0  0  0  0  0  0  0  0  0  0  0
   12.7800    0.6770   23.9820 F   0  0  0  0  0  0  0  0  0  0  0  0
  1  2  1  0
  2  3  1  0
  1  4  2  0
  1  5  1  0
  5  6  2  0
  5  7  1  0
  3  8  1  6
  6  9  1  0
  3 10  1  0
  7 11  2  0
  6 12  1  0
 10 13  1  0
 11 14  1  0
 12 14  2  0
  8 15  1  0
 13 16  1  0
 15 17  2  0
 15 18  1  0
 17 19  1  0
 18 20  2  0
 21 16  1  1
 19 22  2  0
 20 22  1  0
 21 23  1  0
 21 24  1  0
 23 25  1  0
 24 26  1  0
 23 27  1  0
 24 28  1  1
 25 29  2  0
 25 30  1  0
 26 31  1  0
 27 31  1  0
 28 32  2  0
 28 33  1  0
 32 34  1  0
 33 35  2  0
 34 36  2  0
 35 36  1  0
 36 37  1  0
M  END
