x0755-x2908
     RDKit          3D

 41 44  0  0  0  0  0  0  0  0999 V2000
    4.1980   -7.1940   26.5390 O   0  0  0  0  0  0  0  0  0  0  0  0
    5.1380   -5.0290   25.9510 S   0  0  0  0  0  0  0  0  0  0  0  0
    5.8750   -4.1660   26.8430 O   0  0  0  0  0  0  0  0  0  0  0  0
    3.8920   -3.8250   25.9000 C   0  0  0  0  0  0  0  0  0  0  0  0
    5.7920   -5.1400   24.4130 N   0  0  0  0  0  0  0  0  0  0  0  0
    2.5280   -4.1360   25.7840 C   0  0  0  0  0  0  0  0  0  0  0  0
    4.3430   -2.5000   25.9800 C   0  0  0  0  0  0  0  0  0  0  0  0
    7.0710   -4.9010   24.2600 C   0  0  0  0  0  0  0  0  0  0  0  0
    5.0600   -6.0250   23.4470 C   0  0  0  0  0  0  0  0  0  0  0  0
    2.1290   -5.4430   25.7050 F   0  0  0  0  0  0  0  0  0  0  0  0
    5.6240   -2.1280   26.0890 F   0  0  0  0  0  0  0  0  0  0  0  0
    3.3610   -1.5020   25.9440 C   0  0  0  0  0  0  0  0  0  0  0  0
    1.5660   -3.1190   25.7500 C   0  0  0  0  0  0  0  0  0  0  0  0
    7.3490   -4.3510   23.0170 C   0  0  0  0  0  0  0  0  0  0  0  0
    5.5050   -5.7620   22.1780 C   0  0  0  0  0  0  0  0  0  0  0  0
    1.9360   -1.7610   25.8300 C   0  0  0  0  0  0  0  0  0  0  0  0
    6.2750   -4.4530   22.1570 C   0  0  0  0  0  0  0  0  0  0  0  0
    6.6290   -4.2580   20.6680 C   0  0  0  0  0  0  0  0  0  0  0  0
    5.2970   -3.3320   22.4630 C   0  0  0  0  0  0  0  0  0  0  0  0
    5.7480   -4.6020   19.9010 O   0  0  0  0  0  0  0  0  0  0  0  0
    7.9840   -3.6190   20.2860 C   0  0  0  0  0  0  0  0  0  0  0  0
    5.7820   -1.8700   22.5640 C   0  0  0  0  0  0  0  0  0  0  0  0
    6.6200   -1.5470   21.4930 C   0  0  0  0  0  0  0  0  0  0  0  0
    6.8020   -0.1130   21.3010 N   0  0  0  0  0  0  0  0  0  0  0  0
    8.1610    0.2540   21.6830 C   0  0  0  0  0  0  0  0  0  0  0  0
    6.2020    0.4240   20.1340 C   0  0  0  0  0  0  0  0  0  0  0  0
    8.8130    1.3190   21.1090 O   0  0  0  0  0  0  0  0  0  0  0  0
    8.7230   -0.5100   22.6430 N   0  0  0  0  0  0  0  0  0  0  0  0
    6.8150    0.1310   18.9310 C   0  0  0  0  0  0  0  0  0  0  0  0
    4.9750    1.2750   20.2450 C   0  0  0  0  0  0  0  0  0  0  0  0
    4.2810    1.6140   21.5250 C   0  0  0  0  0  0  0  0  0  0  0  0
    6.3880    0.5860   17.7490 N   0  0  0  0  0  0  0  0  0  0  0  0
    4.4490    1.8110   18.9360 C   0  0  0  0  0  0  0  0  0  0  0  0
   10.1000   -0.3940   22.8360 C   0  0  0  0  0  0  0  0  0  0  0  0
    5.2030    1.4440   17.6780 C   0  0  0  0  0  0  0  0  0  0  0  0
   10.6250    0.5390   23.7430 C   0  0  0  0  0  0  0  0  0  0  0  0
   10.9450   -1.2050   22.0970 C   0  0  0  0  0  0  0  0  0  0  0  0
   12.0020    0.6530   23.8940 C   0  0  0  0  0  0  0  0  0  0  0  0
   12.3010   -1.0560   22.2740 C   0  0  0  0  0  0  0  0  0  0  0  0
   13.2770   -2.0420   21.3340 Cl  0  0  0  0  0  0  0  0  0  0  0  0
   12.8430   -0.1480   23.1550 C   0  0  0  0  0  0  0  0  0  0  0  0
  1  2  2  0
  2  3  2  0
  2  4  1  0
  2  5  1  0
  4  6  2  0
  4  7  1  0
  5  8  1  0
  5  9  1  0
  6 10  1  0
  7 11  1  0
  7 12  2  0
  6 13  1  0
  8 14  1  0
  9 15  1  0
 12 16  1  0
 13 16  2  0
 14 17  1  0
 15 17  1  0
 17 18  1  0
 17 19  1  0
 18 20  2  0
 18 21  1  0
 19 22  1  0
 22 23  1  0
 23 24  1  0
 24 25  1  0
 24 26  1  0
 25 27  2  0
 25 28  1  0
 26 29  2  0
 26 30  1  0
 30 31  1  0
 29 32  1  0
 30 33  2  0
 28 34  1  0
 32 35  2  0
 33 35  1  0
 34 36  2  0
 34 37  1  0
 36 38  1  0
 37 39  2  0
 39 40  1  0
 38 41  2  0
 39 41  1  0
M  END
