x0752-x2581
     RDKit          3D

 38 42  0  0  0  0  0  0  0  0999 V2000
    9.7850   -2.5170   23.9010 C   0  0  0  0  0  0  0  0  0  0  0  0
   10.5710   -1.3520   23.6190 O   0  0  0  0  0  0  0  0  0  0  0  0
   10.0850   -0.2770   22.9200 C   0  0  0  0  0  0  0  0  0  0  0  0
    9.4470   -3.3520   22.7040 C   0  0  0  0  0  0  0  0  0  0  0  0
    8.1810   -3.1100   21.8690 C   0  0  0  0  0  0  0  0  0  0  0  0
    7.4330   -4.3160   21.4370 N   0  0  0  0  0  0  0  0  0  0  0  0
   10.6420    1.0230   22.8880 C   0  0  0  0  0  0  0  0  0  0  0  0
    8.9520   -0.4570   22.1680 C   0  0  0  0  0  0  0  0  0  0  0  0
    6.7290   -4.1330   20.2340 C   0  0  0  0  0  0  0  0  0  0  0  0
    7.0760   -5.3050   22.4490 C   0  0  0  0  0  0  0  0  0  0  0  0
   10.0840    2.0700   22.1470 C   0  0  0  0  0  0  0  0  0  0  0  0
    8.3850    0.5420   21.4270 C   0  0  0  0  0  0  0  0  0  0  0  0
   10.7240    3.3840   22.1400 N   0  0  0  0  0  0  0  0  0  0  0  0
    7.5050   -3.3540   19.1840 C   0  0  0  0  0  0  0  0  0  0  0  0
    5.6180   -4.6240   19.9880 O   0  0  0  0  0  0  0  0  0  0  0  0
    8.9430    1.8900   21.3810 N   0  0  0  0  0  0  0  0  0  0  0  0
    5.9520   -4.7230   23.2390 C   0  0  0  0  0  0  0  0  0  0  0  0
   11.1500    4.0030   23.2710 C   0  0  0  0  0  0  0  0  0  0  0  0
    4.6100   -5.3870   23.3000 C   0  0  0  0  0  0  0  0  0  0  0  0
    6.1440   -3.5100   23.9370 C   0  0  0  0  0  0  0  0  0  0  0  0
   10.9540    3.6670   24.4130 O   0  0  0  0  0  0  0  0  0  0  0  0
   11.9190    5.2970   22.9380 C   0  0  0  0  0  0  0  0  0  0  0  0
    3.6370   -4.7550   24.0380 C   0  0  0  0  0  0  0  0  0  0  0  0
    5.1210   -2.9170   24.6650 C   0  0  0  0  0  0  0  0  0  0  0  0
   11.1340    6.4490   23.4690 C   0  0  0  0  0  0  0  0  0  0  0  0
    3.8750   -3.5580   24.6980 C   0  0  0  0  0  0  0  0  0  0  0  0
    2.3640   -5.1920   24.2130 O   0  0  0  0  0  0  0  0  0  0  0  0
    9.9050    6.7620   22.8790 C   0  0  0  0  0  0  0  0  0  0  0  0
   11.6130    7.1720   24.5270 C   0  0  0  0  0  0  0  0  0  0  0  0
    2.7780   -3.1120   25.3540 O   0  0  0  0  0  0  0  0  0  0  0  0
    1.8990   -4.2410   25.1950 C   0  0  0  0  0  0  0  0  0  0  0  0
    9.0740    7.7960   23.2900 C   0  0  0  0  0  0  0  0  0  0  0  0
   10.9170    8.2350   25.0590 C   0  0  0  0  0  0  0  0  0  0  0  0
    9.5410    8.6530   24.4710 C   0  0  0  0  0  0  0  0  0  0  0  0
   11.3900    8.9970   26.1420 C   0  0  0  0  0  0  0  0  0  0  0  0
    8.8760    9.7430   25.0430 C   0  0  0  0  0  0  0  0  0  0  0  0
   10.7020   10.0680   26.6780 C   0  0  0  0  0  0  0  0  0  0  0  0
    9.4690   10.5090   26.2100 C   0  0  0  0  0  0  0  0  0  0  0  0
  1  2  1  0
  2  3  1  0
  1  4  1  0
  4  5  1  0
  5  6  1  0
  3  7  2  0
  3  8  1  0
  6  9  1  0
  6 10  1  0
  7 11  1  0
  8 12  2  0
 11 13  1  0
  9 14  1  0
  9 15  2  0
 11 16  2  0
 12 16  1  0
 10 17  1  0
 13 18  1  0
 17 19  2  0
 17 20  1  0
 18 21  2  0
 18 22  1  0
 19 23  1  0
 20 24  2  0
 22 25  1  0
 23 26  2  0
 24 26  1  0
 23 27  1  0
 25 28  2  0
 25 29  1  0
 26 30  1  0
 27 31  1  0
 30 31  1  0
 28 32  1  0
 29 33  2  0
 32 34  2  0
 33 34  1  0
 33 35  1  0
 34 36  1  0
 35 37  2  0
 36 38  2  0
 37 38  1  0
M  END
