x0755-x2572
     RDKit          3D

 42 45  0  0  0  0  0  0  0  0999 V2000
    4.4720   -6.3340   26.0070 O   0  0  0  0  0  0  0  0  0  0  0  0
    5.1290   -5.0540   25.8400 S   0  0  0  0  0  0  0  0  0  0  0  0
    6.2040   -4.6480   26.7140 O   0  0  0  0  0  0  0  0  0  0  0  0
    3.9290   -3.7540   25.8630 C   0  0  0  0  0  0  0  0  0  0  0  0
    5.7660   -4.9770   24.2780 N   0  0  0  0  0  0  0  0  0  0  0  0
    2.4770   -4.1560   25.8990 C   0  0  0  0  0  0  0  0  0  0  0  0
    4.3840   -2.4220   25.8460 C   0  0  0  0  0  0  0  0  0  0  0  0
    7.1120   -4.9550   24.0890 C   0  0  0  0  0  0  0  0  0  0  0  0
    4.9970   -5.7980   23.3080 C   0  0  0  0  0  0  0  0  0  0  0  0
    2.1310   -5.4550   25.9070 F   0  0  0  0  0  0  0  0  0  0  0  0
    5.5710   -2.1310   25.8020 O   0  0  0  0  0  0  0  0  0  0  0  0
    3.1770   -1.4540   25.8810 C   0  0  0  0  0  0  0  0  0  0  0  0
    1.4370   -3.2310   25.9260 C   0  0  0  0  0  0  0  0  0  0  0  0
    7.4430   -4.5430   22.7970 C   0  0  0  0  0  0  0  0  0  0  0  0
    5.8720   -6.2340   22.1400 C   0  0  0  0  0  0  0  0  0  0  0  0
    6.0480   -1.9020   24.4740 C   0  0  0  0  0  0  0  0  0  0  0  0
    1.7120   -1.8810   25.9220 C   0  0  0  0  0  0  0  0  0  0  0  0
    6.7490   -5.1680   21.6830 N   0  0  0  0  0  0  0  0  0  0  0  0
    6.3650   -4.5300   20.4940 C   0  0  0  0  0  0  0  0  0  0  0  0
    7.4990   -1.4050   24.4650 C   0  0  0  0  0  0  0  0  0  0  0  0
    5.3130   -4.8660   19.9740 O   0  0  0  0  0  0  0  0  0  0  0  0
    7.2600   -3.4510   19.8550 C   0  0  0  0  0  0  0  0  0  0  0  0
    7.5860    0.0710   24.0360 C   0  0  0  0  0  0  0  0  0  0  0  0
    8.7520    0.4690   23.1050 C   0  0  2  0  0  0  0  0  0  0  0  0
    8.4040    0.6430   21.7740 C   0  0  0  0  0  0  0  0  0  0  0  0
   10.1400   -0.0260   23.4050 C   0  0  0  0  0  0  0  0  0  0  0  0
    8.9840    1.5120   21.1180 O   0  0  0  0  0  0  0  0  0  0  0  0
    7.3510   -0.1920   21.2900 N   0  0  0  0  0  0  0  0  0  0  0  0
   10.7180    0.1090   24.6700 C   0  0  0  0  0  0  0  0  0  0  0  0
   10.8960   -0.6160   22.4180 C   0  0  0  0  0  0  0  0  0  0  0  0
    6.5900    0.2190   20.1890 C   0  0  0  0  0  0  0  0  0  0  0  0
   12.0290   -0.3420   24.8880 C   0  0  0  0  0  0  0  0  0  0  0  0
   12.1690   -1.0410   22.6600 C   0  0  0  0  0  0  0  0  0  0  0  0
   12.9530   -1.6520   21.6260 C   0  0  0  0  0  0  0  0  0  0  0  0
    7.0290   -0.0990   18.9150 C   0  0  0  0  0  0  0  0  0  0  0  0
    5.4160    0.9520   20.3080 C   0  0  0  0  0  0  0  0  0  0  0  0
   12.7500   -0.9090   23.8870 C   0  0  0  0  0  0  0  0  0  0  0  0
    4.7180    1.4150   21.5730 C   0  0  0  0  0  0  0  0  0  0  0  0
   13.6880   -2.2550   20.6200 N   0  0  0  0  0  0  0  0  0  0  0  0
    6.3130    0.3360   17.8020 N   0  0  0  0  0  0  0  0  0  0  0  0
    4.6690    1.4020   19.2340 C   0  0  0  0  0  0  0  0  0  0  0  0
    5.0950    1.1190   17.9460 C   0  0  0  0  0  0  0  0  0  0  0  0
  1  2  2  0
  2  3  2  0
  2  4  1  0
  2  5  1  0
  4  6  2  0
  4  7  1  0
  5  8  1  0
  5  9  1  0
  6 10  1  0
  7 11  1  0
  7 12  2  0
  6 13  1  0
  8 14  1  0
  9 15  1  0
 11 16  1  0
 12 17  1  0
 13 17  2  0
 14 18  1  0
 15 18  1  0
 18 19  1  0
 16 20  1  0
 19 21  2  0
 19 22  1  0
 20 23  1  0
 24 23  1  6
 24 25  1  0
 24 26  1  0
 25 27  2  0
 25 28  1  0
 26 29  2  0
 26 30  1  0
 28 31  1  0
 29 32  1  0
 30 33  2  0
 33 34  1  0
 31 35  2  0
 31 36  1  0
 32 37  2  0
 33 37  1  0
 36 38  1  0
 34 39  3  0
 35 40  1  0
 36 41  2  0
 40 42  2  0
 41 42  1  0
M  END
