x0752-x2912
     RDKit          3D

 36 39  0  0  0  0  0  0  0  0999 V2000
    7.0440   -0.6470   21.3260 N   0  0  0  0  0  0  0  0  0  0  0  0
    8.1880    0.0170   21.9040 C   0  0  0  0  0  0  0  0  0  0  0  0
    8.6580    1.0490   21.4220 O   0  0  0  0  0  0  0  0  0  0  0  0
    6.5520   -1.9330   21.6490 C   0  0  0  0  0  0  0  0  0  0  0  0
    6.4640   -0.0280   20.1880 C   0  0  0  0  0  0  0  0  0  0  0  0
    8.7600   -0.6730   23.1390 C   0  0  2  0  0  0  0  0  0  0  0  0
    7.4900   -2.9790   21.8780 C   0  0  0  0  0  0  0  0  0  0  0  0
    5.3960    0.8840   20.3640 C   0  0  0  0  0  0  0  0  0  0  0  0
    6.8670   -0.2290   18.8490 C   0  0  0  0  0  0  0  0  0  0  0  0
    7.9790   -0.4090   24.4260 C   0  0  0  0  0  0  0  0  0  0  0  0
    4.8590    1.2120   21.7220 C   0  0  0  0  0  0  0  0  0  0  0  0
    7.0810   -4.1730   21.4340 N   0  0  0  0  0  0  0  0  0  0  0  0
    6.2150    0.4660   17.7090 N   0  0  0  0  0  0  0  0  0  0  0  0
    4.8150    1.5090   19.2710 C   0  0  0  0  0  0  0  0  0  0  0  0
   10.2040   -0.4020   23.1100 C   0  0  0  0  0  0  0  0  0  0  0  0
    6.4440   -4.1830   20.2200 C   0  0  0  0  0  0  0  0  0  0  0  0
    6.7870   -5.2200   22.4150 C   0  0  0  0  0  0  0  0  0  0  0  0
    5.2070    1.3140   17.9770 C   0  0  0  0  0  0  0  0  0  0  0  0
   10.8070    0.6650   23.7350 C   0  0  0  0  0  0  0  0  0  0  0  0
   10.9950   -1.2660   22.3920 C   0  0  0  0  0  0  0  0  0  0  0  0
    7.1980   -3.3570   19.2000 C   0  0  0  0  0  0  0  0  0  0  0  0
    5.4230   -4.8180   19.9820 O   0  0  0  0  0  0  0  0  0  0  0  0
   12.2890    0.8420   23.5900 C   0  0  0  0  0  0  0  0  0  0  0  0
   12.4730   -1.1410   22.2190 C   0  0  0  0  0  0  0  0  0  0  0  0
    5.6950   -4.6810   23.2740 C   0  0  0  0  0  0  0  0  0  0  0  0
   13.0700   -2.1430   21.4320 C   0  0  0  0  0  0  0  0  0  0  0  0
   13.1920   -0.1030   22.7870 C   0  0  0  0  0  0  0  0  0  0  0  0
    4.5030   -5.2880   23.3040 C   0  0  0  0  0  0  0  0  0  0  0  0
    5.9180   -3.5170   24.0450 C   0  0  0  0  0  0  0  0  0  0  0  0
   13.5430   -3.1740   20.6690 N   0  0  0  0  0  0  0  0  0  0  0  0
    3.5220   -4.7330   24.0910 C   0  0  0  0  0  0  0  0  0  0  0  0
    4.9250   -2.9660   24.8290 C   0  0  0  0  0  0  0  0  0  0  0  0
    3.6930   -3.5970   24.8450 C   0  0  0  0  0  0  0  0  0  0  0  0
    2.2570   -5.1920   24.2540 O   0  0  0  0  0  0  0  0  0  0  0  0
    2.6440   -3.1590   25.5640 O   0  0  0  0  0  0  0  0  0  0  0  0
    1.7400   -4.2420   25.2400 C   0  0  0  0  0  0  0  0  0  0  0  0
  1  2  1  0
  2  3  2  0
  1  4  1  0
  1  5  1  0
  2  6  1  0
  4  7  1  0
  5  8  2  0
  5  9  1  0
  6 10  1  1
  8 11  1  0
  7 12  1  0
  9 13  2  0
  8 14  1  0
  6 15  1  0
 12 16  1  0
 12 17  1  0
 13 18  1  0
 14 18  2  0
 15 19  2  0
 15 20  1  0
 16 21  1  0
 16 22  2  0
 19 23  1  0
 20 24  2  0
 17 25  1  0
 24 26  1  0
 23 27  2  0
 24 27  1  0
 25 28  2  0
 25 29  1  0
 26 30  3  0
 28 31  1  0
 29 32  2  0
 31 33  2  0
 32 33  1  0
 31 34  1  0
 33 35  1  0
 34 36  1  0
 35 36  1  0
M  END
