x0752-x0967
     RDKit          3D

 36 38  0  0  0  0  0  0  0  0999 V2000
    7.5980    5.0260   22.4280 C   0  0  0  0  0  0  0  0  0  0  0  0
    7.1730    3.6620   22.9580 C   0  0  0  0  0  0  0  0  0  0  0  0
    7.8870    2.5720   22.5030 N   0  0  0  0  0  0  0  0  0  0  0  0
    6.2380    3.5610   23.7510 O   0  0  0  0  0  0  0  0  0  0  0  0
    7.7870    1.2100   23.0540 C   0  0  1  0  0  0  0  0  0  0  0  0
    6.5280    0.4680   22.6000 C   0  0  0  0  0  0  0  0  0  0  0  0
    9.0530    0.5790   22.6800 C   0  0  0  0  0  0  0  0  0  0  0  0
    9.2110   -0.7760   22.9120 N   0  0  0  0  0  0  0  0  0  0  0  0
    9.9530    1.2480   22.1650 O   0  0  0  0  0  0  0  0  0  0  0  0
    6.3140    0.5190   21.1080 C   0  0  0  0  0  0  0  0  0  0  0  0
    9.8550   -1.5810   21.8780 C   0  0  1  0  0  0  0  0  0  0  0  0
    7.0070   -0.4210   20.3620 C   0  0  0  0  0  0  0  0  0  0  0  0
    5.4420    1.5030   20.5750 C   0  0  0  0  0  0  0  0  0  0  0  0
   11.2640   -1.3710   21.8470 C   0  0  0  0  0  0  0  0  0  0  0  0
    9.5570   -3.0330   21.9830 C   0  0  0  0  0  0  0  0  0  0  0  0
    6.7930   -0.3550   18.8620 C   0  0  0  0  0  0  0  0  0  0  0  0
    5.2100    1.6080   19.2200 C   0  0  0  0  0  0  0  0  0  0  0  0
   12.0680   -1.8230   23.0620 C   0  0  0  0  0  0  0  0  0  0  0  0
    8.2470   -3.4110   22.2980 C   0  0  0  0  0  0  0  0  0  0  0  0
    5.8400    0.7360   18.3530 C   0  0  0  0  0  0  0  0  0  0  0  0
    5.6720    0.7970   17.1590 O   0  0  0  0  0  0  0  0  0  0  0  0
   13.1740   -2.3430   24.5120 Br  0  0  0  0  0  0  0  0  0  0  0  0
    7.4370   -4.4690   21.6050 N   0  0  0  0  0  0  0  0  0  0  0  0
    6.8230   -4.1820   20.3580 C   0  0  0  0  0  0  0  0  0  0  0  0
    6.9490   -5.3940   22.4760 C   0  0  0  0  0  0  0  0  0  0  0  0
    7.6280   -3.3590   19.3750 C   0  0  0  0  0  0  0  0  0  0  0  0
    5.7190   -4.6590   20.0220 O   0  0  0  0  0  0  0  0  0  0  0  0
    5.8270   -4.7380   23.2290 C   0  0  0  0  0  0  0  0  0  0  0  0
    4.5750   -5.4220   23.4050 C   0  0  0  0  0  0  0  0  0  0  0  0
    5.9540   -3.4290   23.7840 C   0  0  0  0  0  0  0  0  0  0  0  0
    3.5590   -4.8020   24.0880 C   0  0  0  0  0  0  0  0  0  0  0  0
    4.9180   -2.8180   24.4700 C   0  0  0  0  0  0  0  0  0  0  0  0
    3.7180   -3.5310   24.6100 C   0  0  0  0  0  0  0  0  0  0  0  0
    2.3280   -5.3080   24.3380 O   0  0  0  0  0  0  0  0  0  0  0  0
    2.6090   -3.0900   25.2460 O   0  0  0  0  0  0  0  0  0  0  0  0
    1.8020   -4.2830   25.2110 C   0  0  0  0  0  0  0  0  0  0  0  0
  1  2  1  0
  2  3  1  0
  2  4  2  0
  3  5  1  0
  5  6  1  6
  5  7  1  0
  7  8  1  0
  7  9  2  0
  6 10  1  0
  8 11  1  0
 10 12  2  0
 10 13  1  0
 11 14  1  1
 11 15  1  0
 12 16  1  0
 13 17  2  0
 14 18  3  0
 15 19  1  0
 16 20  2  0
 17 20  1  0
 20 21  1  0
 18 22  1  0
 19 23  1  0
 23 24  1  0
 23 25  1  0
 24 26  1  0
 24 27  2  0
 25 28  1  0
 28 29  2  0
 28 30  1  0
 29 31  1  0
 30 32  2  0
 31 33  2  0
 32 33  1  0
 31 34  1  0
 33 35  1  0
 34 36  1  0
 35 36  1  0
M  END
