x0759-x0771
     RDKit          3D

 32 35  0  0  0  0  0  0  0  0999 V2000
    0.5110   -1.1510   26.3340 C   0  0  0  0  0  0  0  0  0  0  0  0
    1.5520   -2.3040   26.1520 C   0  0  0  0  0  0  0  0  0  0  0  0
    2.9200   -2.1870   26.4780 C   0  0  0  0  0  0  0  0  0  0  0  0
    1.1680   -3.6340   25.6170 C   0  0  0  0  0  0  0  0  0  0  0  0
    2.1580   -4.7700   25.4420 C   0  0  0  0  0  0  0  0  0  0  0  0
    3.9680   -3.2410   26.3440 C   0  0  0  0  0  0  0  0  0  0  0  0
    1.8190   -6.1410   24.9020 C   0  0  0  0  0  0  0  0  0  0  0  0
    3.6040   -4.5170   25.8390 C   0  0  0  0  0  0  0  0  0  0  0  0
    4.9210   -5.7330   25.7110 S   0  0  0  0  0  0  0  0  0  0  0  0
    4.2750   -7.0040   25.9320 O   0  0  0  0  0  0  0  0  0  0  0  0
    5.9960   -5.3000   26.7080 O   0  0  0  0  0  0  0  0  0  0  0  0
    5.5210   -5.2400   24.1100 N   0  0  0  0  0  0  0  0  0  0  0  0
    5.2170   -6.0240   23.0360 C   0  0  0  0  0  0  0  0  0  0  0  0
    6.9350   -4.7600   24.0410 C   0  0  0  0  0  0  0  0  0  0  0  0
    6.3140   -6.0890   21.9470 C   0  0  0  0  0  0  0  0  0  0  0  0
    7.0770   -4.0480   22.7060 C   0  0  2  0  0  0  0  0  0  0  0  0
    6.8070   -4.8000   21.6380 N   0  0  0  0  0  0  0  0  0  0  0  0
    8.2290   -3.6020   22.5710 O   0  0  0  0  0  0  0  0  0  0  0  0
    6.0070   -2.9690   22.6910 C   0  0  0  0  0  0  0  0  0  0  0  0
    6.3710   -4.2780   20.3820 C   0  0  0  0  0  0  0  0  0  0  0  0
    6.2580   -1.9150   21.7270 N   0  0  0  0  0  0  0  0  0  0  0  0
    8.4930   -2.2870   21.9980 C   0  0  1  0  0  0  0  0  0  0  0  0
    5.2810   -4.5710   19.9130 O   0  0  0  0  0  0  0  0  0  0  0  0
    7.2350   -3.3590   19.5010 C   0  0  0  0  0  0  0  0  0  0  0  0
    7.4510   -1.3490   22.0090 C   0  0  0  0  0  0  0  0  0  0  0  0
    9.6890   -1.6710   22.6660 C   0  0  0  0  0  0  0  0  0  0  0  0
    9.6030   -0.9990   23.8840 C   0  0  0  0  0  0  0  0  0  0  0  0
   10.9150   -1.7670   22.0290 C   0  0  0  0  0  0  0  0  0  0  0  0
   10.7120   -0.4100   24.4790 C   0  0  0  0  0  0  0  0  0  0  0  0
   12.1550   -1.1120   22.6780 C   0  0  0  0  0  0  0  0  0  0  0  0
   11.9590   -0.4600   23.8880 C   0  0  0  0  0  0  0  0  0  0  0  0
   12.9740    0.1130   24.4730 F   0  0  0  0  0  0  0  0  0  0  0  0
  1  2  1  0
  2  3  2  0
  2  4  1  0
  4  5  2  0
  3  6  1  0
  5  7  1  0
  5  8  1  0
  6  8  2  0
  9  8  1  0
  9 10  2  0
  9 11  2  0
  9 12  1  0
 12 13  1  0
 12 14  1  0
 13 15  1  0
 16 14  1  1
 15 17  1  0
 16 17  1  0
 16 18  1  0
 16 19  1  0
 17 20  1  0
 19 21  1  0
 18 22  1  0
 20 23  2  0
 20 24  1  0
 21 25  1  0
 22 25  1  0
 22 26  1  1
 26 27  2  0
 26 28  1  0
 27 29  1  0
 28 30  2  0
 29 31  2  0
 30 31  1  0
 31 32  1  0
M  END
