x0755-x2608-x2776-x3115
     RDKit          3D

 56 60  0  0  0  0  0  0  0  0999 V2000
    7.7010   -0.7500   22.5040 N   0  0  0  0  0  0  0  0  0  0  0  0
    6.6630    0.3280   22.0880 C   0  0  1  0  0  0  0  0  0  0  0  0
    7.0880    1.8250   22.2010 C   0  0  0  0  0  0  0  0  0  0  0  0
    7.3160   -2.0690   21.9880 C   0  0  0  0  0  0  0  0  0  0  0  0
    8.5170   -0.5520   23.7350 C   0  0  2  0  0  0  0  0  0  0  0  0
    6.1840   -2.9750   22.5560 C   0  0  0  0  0  0  0  0  0  0  0  0
    6.2390    0.4560   20.6140 C   0  0  0  0  0  0  0  0  0  0  0  0
    9.8000   -1.2450   24.2230 C   0  0  1  0  0  0  0  0  0  0  0  0
    7.7870   -0.6900   24.9430 C   0  0  0  0  0  0  0  0  0  0  0  0
    7.4580    2.3130   23.4240 N   0  0  0  0  0  0  0  0  0  0  0  0
    5.0700    1.1750   20.3200 C   0  0  0  0  0  0  0  0  0  0  0  0
    6.9300   -0.0760   19.3650 C   0  0  0  0  0  0  0  0  0  0  0  0
    9.0480   -2.5770   24.3660 C   0  0  0  0  0  0  0  0  0  0  0  0
   11.2080   -1.3540   23.7740 C   0  0  1  0  0  0  0  0  0  0  0  0
    6.4180   -4.3820   22.0800 C   0  0  0  0  0  0  0  0  0  0  0  0
    7.7380   -2.1430   24.8770 C   0  0  0  0  0  0  0  0  0  0  0  0
   11.9070   -2.6630   23.9120 C   0  0  0  0  0  0  0  0  0  0  0  0
    6.7770   -4.2880   20.6780 C   0  0  0  0  0  0  0  0  0  0  0  0
    6.5150    0.1040   18.0680 N   0  0  0  0  0  0  0  0  0  0  0  0
    4.6020    1.3870   19.0490 C   0  0  0  0  0  0  0  0  0  0  0  0
    7.8370    3.6220   23.6980 C   0  0  0  0  0  0  0  0  0  0  0  0
   11.7190   -0.5070   22.8380 C   0  0  2  0  0  0  0  0  0  0  0  0
    7.3650   -5.0900   22.8360 C   0  0  0  0  0  0  0  0  0  0  0  0
    5.1340   -5.2360   22.0860 C   0  0  0  0  0  0  0  0  0  0  0  0
   12.2930   -2.7170   25.2800 O   0  0  0  0  0  0  0  0  0  0  0  0
   13.0870    0.1600   22.9370 C   0  0  0  0  0  0  0  0  0  0  0  0
    5.8900   -4.5340   19.8700 O   0  0  0  0  0  0  0  0  0  0  0  0
    8.2210   -3.8070   20.3210 C   0  0  0  0  0  0  0  0  0  0  0  0
    5.2920    0.8720   17.8280 C   0  0  0  0  0  0  0  0  0  0  0  0
    8.3020    4.4930   22.7130 C   0  0  0  0  0  0  0  0  0  0  0  0
   10.7460    0.8110   22.7660 S   0  0  0  0  0  0  0  0  0  0  0  0
    7.0050   -5.1500   24.1920 C   0  0  0  0  0  0  0  0  0  0  0  0
    4.9430   -5.9290   23.3820 C   0  0  0  0  0  0  0  0  0  0  0  0
    9.4170    1.3600   22.0360 O   0  0  0  0  0  0  0  0  0  0  0  0
   11.0420    2.2830   23.6680 C   0  0  0  0  0  0  0  0  0  0  0  0
   13.6380   -3.0320   25.4210 C   0  0  0  0  0  0  0  0  0  0  0  0
    8.7170    5.8130   22.9680 C   0  0  2  0  0  0  0  0  0  0  0  0
    9.8510   -0.3910   21.5930 C   0  0  0  0  0  0  0  0  0  0  0  0
    5.5560   -5.0190   24.3450 N   0  0  0  0  0  0  0  0  0  0  0  0
    8.0680    6.7670   22.0120 C   0  0  0  0  0  0  0  0  0  0  0  0
    5.0690   -5.0420   25.8100 S   0  0  0  0  0  0  0  0  0  0  0  0
   10.3490    3.5820   23.8270 C   0  0  0  0  0  0  0  0  0  0  0  0
   10.1100    5.8900   23.1790 C   0  0  1  0  0  0  0  0  0  0  0  0
   10.4060    6.4810   24.3890 O   0  0  0  0  0  0  0  0  0  0  0  0
    4.4110   -6.2710   26.2010 O   0  0  0  0  0  0  0  0  0  0  0  0
    5.9370   -4.5380   26.8400 O   0  0  0  0  0  0  0  0  0  0  0  0
   10.6950    4.6870   23.0820 C   0  0  0  0  0  0  0  0  0  0  0  0
    3.8460   -3.8990   25.8690 C   0  0  0  0  0  0  0  0  0  0  0  0
   11.7790    6.5500   24.7870 C   0  0  0  0  0  0  0  0  0  0  0  0
    2.3950   -4.2660   25.6910 C   0  0  0  0  0  0  0  0  0  0  0  0
    4.2350   -2.4200   26.1210 C   0  0  0  0  0  0  0  0  0  0  0  0
    2.0360   -5.5420   25.4750 F   0  0  0  0  0  0  0  0  0  0  0  0
    5.5190   -2.0500   26.2930 F   0  0  0  0  0  0  0  0  0  0  0  0
    3.1120   -1.3730   26.1750 C   0  0  0  0  0  0  0  0  0  0  0  0
    1.3680   -3.3220   25.7400 C   0  0  0  0  0  0  0  0  0  0  0  0
    1.6410   -1.8330   25.9820 C   0  0  0  0  0  0  0  0  0  0  0  0
  1  2  1  0
  2  3  1  0
  1  4  1  0
  1  5  1  0
  4  6  1  0
  2  7  1  6
  5  8  1  0
  5  9  1  1
  3 10  1  0
  7 11  2  0
  7 12  1  0
  8 13  1  6
  8 14  1  0
  6 15  1  0
  9 16  1  0
 13 16  2  0
 14 17  1  6
 15 18  1  0
 12 19  2  0
 11 20  1  0
 10 21  1  0
 14 22  1  0
 15 23  1  0
 15 24  1  0
 17 25  1  0
 22 26  1  1
 18 27  2  0
 18 28  1  0
 19 29  1  0
 20 29  2  0
 21 30  2  0
 22 31  1  0
 23 32  1  0
 24 33  1  0
 31 34  1  0
 31 35  2  0
 25 36  1  0
 30 37  1  0
 31 38  1  0
 32 39  1  0
 33 39  1  0
 37 40  1  6
 39 41  1  0
 35 42  1  0
 37 43  1  0
 43 44  1  1
 41 45  2  0
 41 46  2  0
 42 47  2  0
 43 47  1  0
 41 48  1  0
 44 49  1  0
 48 50  2  0
 48 51  1  0
 50 52  1  0
 51 53  1  0
 51 54  2  0
 50 55  1  0
 54 56  1  0
 55 56  2  0
M  END
