x0755-x3124
     RDKit          3D

 44 47  0  0  0  0  0  0  0  0999 V2000
    7.2610   -1.1200   22.1530 N   0  0  0  0  0  0  0  0  0  0  0  0
    6.7940    0.1580   21.8820 C   0  0  1  0  0  0  0  0  0  0  0  0
    7.8870    1.1930   22.0500 C   0  0  0  0  0  0  0  0  0  0  0  0
    6.5290   -2.3500   22.4200 C   0  0  0  0  0  0  0  0  0  0  0  0
    8.5180   -1.2680   22.6030 C   0  0  0  0  0  0  0  0  0  0  0  0
    6.2570    0.4410   20.5350 C   0  0  0  0  0  0  0  0  0  0  0  0
    9.5340   -1.6250   21.7530 C   0  0  0  0  0  0  0  0  0  0  0  0
    8.8280   -1.0940   23.9380 C   0  0  0  0  0  0  0  0  0  0  0  0
    7.6470   -3.4220   22.6210 C   0  0  0  0  0  0  0  0  0  0  0  0
    7.8940    1.7130   23.3290 N   0  0  0  0  0  0  0  0  0  0  0  0
    8.6430    1.5250   21.1270 O   0  0  0  0  0  0  0  0  0  0  0  0
    5.0130    1.3320   20.2860 C   0  0  0  0  0  0  0  0  0  0  0  0
    6.9190   -0.1270   19.2420 C   0  0  0  0  0  0  0  0  0  0  0  0
   10.8300   -1.8120   22.2050 C   0  0  0  0  0  0  0  0  0  0  0  0
   10.0950   -1.2680   24.4110 C   0  0  0  0  0  0  0  0  0  0  0  0
    7.2810   -4.7310   22.7500 C   0  0  2  0  0  0  0  0  0  0  0  0
    8.8570    2.5990   23.8150 C   0  0  0  0  0  0  0  0  0  0  0  0
    6.2930    0.2660   17.9360 N   0  0  0  0  0  0  0  0  0  0  0  0
    4.5380    1.6050   18.9150 C   0  0  0  0  0  0  0  0  0  0  0  0
   11.1200   -1.6320   23.5540 C   0  0  0  0  0  0  0  0  0  0  0  0
    6.4580   -5.0600   21.7700 N   0  0  0  0  0  0  0  0  0  0  0  0
    6.8500   -4.9550   24.0390 C   0  0  0  0  0  0  0  0  0  0  0  0
   12.5170   -1.8030   24.1050 C   0  0  0  0  0  0  0  0  0  0  0  0
    5.2020    1.0650   17.8470 C   0  0  0  0  0  0  0  0  0  0  0  0
    6.2470   -4.4830   20.4990 C   0  0  0  0  0  0  0  0  0  0  0  0
    5.5080   -5.0540   24.1110 N   0  0  0  0  0  0  0  0  0  0  0  0
    5.6300   -6.2200   22.1220 C   0  0  0  0  0  0  0  0  0  0  0  0
   12.7990   -0.5620   24.8620 C   0  0  0  0  0  0  0  0  0  0  0  0
   13.4380   -1.8780   22.9450 C   0  0  0  0  0  0  0  0  0  0  0  0
   12.7280   -2.9740   25.0280 C   0  0  0  0  0  0  0  0  0  0  0  0
    5.2280   -4.8200   19.9380 O   0  0  0  0  0  0  0  0  0  0  0  0
    7.1830   -3.4580   19.7770 C   0  0  0  0  0  0  0  0  0  0  0  0
    4.9810   -5.0880   25.7420 S   0  0  0  0  0  0  0  0  0  0  0  0
    4.9630   -6.0920   23.3570 C   0  0  0  0  0  0  0  0  0  0  0  0
    4.0660   -6.1810   25.9580 O   0  0  0  0  0  0  0  0  0  0  0  0
    6.0380   -4.7250   26.6530 O   0  0  0  0  0  0  0  0  0  0  0  0
    3.7230   -3.8280   25.8270 C   0  0  0  0  0  0  0  0  0  0  0  0
    2.3660   -4.1520   25.7220 C   0  0  0  0  0  0  0  0  0  0  0  0
    4.1420   -2.5010   26.0030 C   0  0  0  0  0  0  0  0  0  0  0  0
    1.9370   -5.4140   25.5550 F   0  0  0  0  0  0  0  0  0  0  0  0
    5.4310   -2.1550   26.1110 F   0  0  0  0  0  0  0  0  0  0  0  0
    3.1860   -1.4940   26.0720 C   0  0  0  0  0  0  0  0  0  0  0  0
    1.4130   -3.1270   25.7940 C   0  0  0  0  0  0  0  0  0  0  0  0
    1.8390   -1.8110   25.9690 C   0  0  0  0  0  0  0  0  0  0  0  0
  1  2  1  0
  2  3  1  6
  1  4  1  0
  1  5  1  0
  2  6  1  0
  5  7  2  0
  5  8  1  0
  4  9  1  0
  3 10  1  0
  3 11  2  0
  6 12  2  0
  6 13  1  0
  7 14  1  0
  8 15  2  0
 16  9  1  1
 10 17  1  0
 13 18  2  0
 12 19  1  0
 14 20  2  0
 15 20  1  0
 16 21  1  0
 16 22  1  0
 20 23  1  0
 18 24  1  0
 19 24  2  0
 21 25  1  0
 22 26  1  0
 21 27  1  0
 23 28  1  0
 23 29  1  0
 23 30  1  0
 25 31  2  0
 25 32  1  0
 26 33  1  0
 26 34  1  0
 27 34  1  0
 33 35  2  0
 33 36  2  0
 33 37  1  0
 37 38  2  0
 37 39  1  0
 38 40  1  0
 39 41  1  0
 39 42  2  0
 38 43  1  0
 42 44  1  0
 43 44  2  0
M  END
