x0752-x2705
     RDKit          3D

 45 49  0  0  0  0  0  0  0  0999 V2000
    7.7270   -1.1310   21.6880 N   0  0  0  0  0  0  0  0  0  0  0  0
    7.0770    0.1940   21.5700 C   0  0  1  0  0  0  0  0  0  0  0  0
    8.0220    1.3770   21.8250 C   0  0  0  0  0  0  0  0  0  0  0  0
    6.9190   -2.3040   21.8620 C   0  0  0  0  0  0  0  0  0  0  0  0
    8.8250   -1.1910   22.5570 C   0  0  0  0  0  0  0  0  0  0  0  0
    7.7610   -3.4200   22.0400 C   0  0  0  0  0  0  0  0  0  0  0  0
    6.3800    0.4160   20.2640 C   0  0  0  0  0  0  0  0  0  0  0  0
    8.7120   -1.1960   23.9170 N   0  0  0  0  0  0  0  0  0  0  0  0
   10.1170   -1.2750   22.1540 C   0  0  0  0  0  0  0  0  0  0  0  0
    7.5600    2.2510   22.7730 N   0  0  0  0  0  0  0  0  0  0  0  0
    9.0670    1.5580   21.2120 O   0  0  0  0  0  0  0  0  0  0  0  0
    7.0940   -4.5680   21.4860 N   0  0  0  0  0  0  0  0  0  0  0  0
    5.1020    1.1870   20.2200 C   0  0  0  0  0  0  0  0  0  0  0  0
    6.8760   -0.0480   19.0640 C   0  0  0  0  0  0  0  0  0  0  0  0
    9.9890   -1.2850   24.3400 N   0  0  0  0  0  0  0  0  0  0  0  0
   10.9030   -1.3400   23.1960 C   0  0  0  0  0  0  0  0  0  0  0  0
   12.3910   -1.4410   23.3110 C   0  0  0  0  0  0  0  0  0  0  0  0
    6.4520   -4.2960   20.2920 C   0  0  0  0  0  0  0  0  0  0  0  0
    6.7030   -5.5510   22.4600 C   0  0  0  0  0  0  0  0  0  0  0  0
    6.2860    0.1670   17.8750 N   0  0  0  0  0  0  0  0  0  0  0  0
    4.5100    1.3940   18.9850 C   0  0  0  0  0  0  0  0  0  0  0  0
    8.2300    3.4630   22.9410 C   0  0  0  0  0  0  0  0  0  0  0  0
   12.8820   -0.0430   23.7380 C   0  0  0  0  0  0  0  0  0  0  0  0
   12.7820   -2.4730   24.3710 C   0  0  0  0  0  0  0  0  0  0  0  0
   12.9510   -1.9580   21.9190 C   0  0  0  0  0  0  0  0  0  0  0  0
    7.1850   -3.3970   19.3070 C   0  0  0  0  0  0  0  0  0  0  0  0
    5.3740   -4.7910   19.9790 O   0  0  0  0  0  0  0  0  0  0  0  0
    5.1390    0.8740   17.8720 C   0  0  0  0  0  0  0  0  0  0  0  0
    9.5100    3.5550   23.5040 C   0  0  0  0  0  0  0  0  0  0  0  0
    7.6910    4.6330   22.5620 C   0  0  0  0  0  0  0  0  0  0  0  0
    5.7450   -4.8440   23.3540 C   0  0  0  0  0  0  0  0  0  0  0  0
   10.2140    2.2940   23.9520 C   0  0  0  0  0  0  0  0  0  0  0  0
    6.3210    4.6560   21.9320 C   0  0  0  0  0  0  0  0  0  0  0  0
   10.2500    4.8540   23.6950 C   0  0  0  0  0  0  0  0  0  0  0  0
    8.3540    5.9780   22.7110 C   0  0  0  0  0  0  0  0  0  0  0  0
    4.4830   -5.3200   23.3270 C   0  0  0  0  0  0  0  0  0  0  0  0
    6.0810   -3.8020   24.1180 C   0  0  0  0  0  0  0  0  0  0  0  0
    9.3130    1.4590   24.8750 C   0  0  0  0  0  0  0  0  0  0  0  0
    9.5900    6.0660   23.2620 C   0  0  0  0  0  0  0  0  0  0  0  0
    3.5100   -4.7070   24.1000 C   0  0  0  0  0  0  0  0  0  0  0  0
    5.0370   -3.1260   24.9520 C   0  0  0  0  0  0  0  0  0  0  0  0
    3.7530   -3.6350   24.8930 C   0  0  0  0  0  0  0  0  0  0  0  0
    2.1930   -5.0940   24.1640 O   0  0  0  0  0  0  0  0  0  0  0  0
    2.6610   -3.1860   25.5520 O   0  0  0  0  0  0  0  0  0  0  0  0
    1.7250   -4.2270   25.2180 C   0  0  0  0  0  0  0  0  0  0  0  0
  1  2  1  0
  2  3  1  6
  1  4  1  0
  1  5  1  0
  4  6  1  0
  2  7  1  0
  5  8  2  0
  5  9  1  0
  3 10  1  0
  3 11  2  0
  6 12  1  0
  7 13  2  0
  7 14  1  0
  8 15  1  0
  9 16  2  0
 15 16  1  0
 16 17  1  0
 12 18  1  0
 12 19  1  0
 14 20  2  0
 13 21  1  0
 10 22  1  0
 17 23  1  0
 17 24  1  0
 17 25  1  0
 18 26  1  0
 18 27  2  0
 20 28  1  0
 21 28  2  0
 22 29  2  0
 22 30  1  0
 19 31  1  0
 29 32  1  0
 30 33  1  0
 29 34  1  0
 30 35  2  0
 31 36  2  0
 31 37  1  0
 32 38  1  0
 34 39  2  0
 35 39  1  0
 36 40  1  0
 37 41  2  0
 40 42  2  0
 41 42  1  0
 40 43  1  0
 42 44  1  0
 43 45  1  0
 44 45  1  0
M  END
