x0759-x0981
     RDKit          3D

 29 30  0  0  0  0  0  0  0  0999 V2000
    1.2150   -8.7610   21.3070 C   0  0  0  0  0  0  0  0  0  0  0  0
    1.3420   -7.4860   22.1000 C   0  0  0  0  0  0  0  0  0  0  0  0
    2.5530   -7.3050   22.7350 N   0  0  0  0  0  0  0  0  0  0  0  0
    0.4290   -6.6640   22.1510 O   0  0  0  0  0  0  0  0  0  0  0  0
    2.8350   -6.1070   23.5350 C   0  0  1  0  0  0  0  0  0  0  0  0
    2.4840   -6.3950   24.9840 C   0  0  0  0  0  0  0  0  0  0  0  0
    4.3250   -5.6140   23.4000 C   0  0  0  0  0  0  0  0  0  0  0  0
    5.2290   -6.1310   22.4880 N   0  0  0  0  0  0  0  0  0  0  0  0
    4.7320   -4.7220   24.1410 O   0  0  0  0  0  0  0  0  0  0  0  0
    2.9910   -7.7560   25.3450 C   0  0  0  0  0  0  0  0  0  0  0  0
    2.4280   -8.3670   26.4180 N   0  0  0  0  0  0  0  0  0  0  0  0
    3.8720   -8.2540   24.6760 O   0  0  0  0  0  0  0  0  0  0  0  0
    6.6410   -5.7030   22.3640 C   0  0  0  0  0  0  0  0  0  0  0  0
    6.8390   -4.2690   22.9860 C   0  0  1  0  0  0  0  0  0  0  0  0
    8.2090   -3.8480   22.9260 O   0  0  0  0  0  0  0  0  0  0  0  0
    5.7970   -3.2690   22.4190 C   0  0  0  0  0  0  0  0  0  0  0  0
    6.3320   -2.6390   21.2140 N   0  0  0  0  0  0  0  0  0  0  0  0
    8.5960   -2.6480   22.1820 C   0  0  1  0  0  0  0  0  0  0  0  0
    6.2920   -3.3490   19.9860 C   0  0  0  0  0  0  0  0  0  0  0  0
    7.4710   -1.8140   21.5980 C   0  0  0  0  0  0  0  0  0  0  0  0
    9.6550   -1.7810   22.8080 C   0  0  0  0  0  0  0  0  0  0  0  0
    5.4580   -4.2430   19.8020 O   0  0  0  0  0  0  0  0  0  0  0  0
    7.2890   -3.0160   18.8790 C   0  0  0  0  0  0  0  0  0  0  0  0
    9.4670   -1.0530   23.9820 C   0  0  0  0  0  0  0  0  0  0  0  0
   10.8840   -1.7020   22.1550 C   0  0  0  0  0  0  0  0  0  0  0  0
   10.6450   -0.2130   24.4430 C   0  0  0  0  0  0  0  0  0  0  0  0
   11.9600   -0.9320   22.5840 C   0  0  0  0  0  0  0  0  0  0  0  0
   11.8310   -0.1770   23.7380 C   0  0  0  0  0  0  0  0  0  0  0  0
   12.8390    0.5570   24.1340 F   0  0  0  0  0  0  0  0  0  0  0  0
  1  2  1  0
  2  3  1  0
  2  4  2  0
  3  5  1  0
  5  6  1  1
  5  7  1  0
  7  8  1  0
  7  9  2  0
  6 10  1  0
 10 11  1  0
 10 12  2  0
  8 13  1  0
 14 13  1  6
 14 15  1  0
 14 16  1  0
 16 17  1  0
 15 18  1  0
 17 19  1  0
 17 20  1  0
 18 20  1  0
 18 21  1  1
 19 22  2  0
 19 23  1  0
 21 24  2  0
 21 25  1  0
 24 26  1  0
 25 27  2  0
 26 28  2  0
 27 28  1  0
 28 29  1  0
M  END
