x0755-x2608
     RDKit          3D

 38 41  0  0  0  0  0  0  0  0999 V2000
    4.0850   -7.1240   26.3640 O   0  0  0  0  0  0  0  0  0  0  0  0
    5.1950   -4.9820   26.0420 S   0  0  0  0  0  0  0  0  0  0  0  0
    6.2820   -4.5990   26.9030 O   0  0  0  0  0  0  0  0  0  0  0  0
    3.9870   -3.7780   25.9690 C   0  0  0  0  0  0  0  0  0  0  0  0
    5.8040   -5.0140   24.4850 N   0  0  0  0  0  0  0  0  0  0  0  0
    2.6450   -4.2390   25.8230 C   0  0  0  0  0  0  0  0  0  0  0  0
    4.3310   -2.4160   26.0580 C   0  0  0  0  0  0  0  0  0  0  0  0
    7.2550   -4.8890   24.2550 C   0  0  0  0  0  0  0  0  0  0  0  0
    5.1300   -5.7940   23.5470 C   0  0  0  0  0  0  0  0  0  0  0  0
    2.3160   -5.5320   25.7370 F   0  0  0  0  0  0  0  0  0  0  0  0
    5.5990   -2.0240   26.1920 F   0  0  0  0  0  0  0  0  0  0  0  0
    3.2430   -1.3390   26.0040 C   0  0  0  0  0  0  0  0  0  0  0  0
    1.6030   -3.2960   25.7680 C   0  0  0  0  0  0  0  0  0  0  0  0
    7.3180   -4.9090   22.7150 C   0  0  0  0  0  0  0  0  0  0  0  0
    5.0280   -5.1660   22.3140 C   0  0  0  0  0  0  0  0  0  0  0  0
    1.8020   -1.7940   25.8530 C   0  0  0  0  0  0  0  0  0  0  0  0
    6.2760   -4.2920   22.0560 C   0  0  0  0  0  0  0  0  0  0  0  0
    6.3980   -4.3440   20.5060 C   0  0  0  0  0  0  0  0  0  0  0  0
    6.1210   -2.8440   22.4960 C   0  0  0  0  0  0  0  0  0  0  0  0
    5.6850   -5.1770   19.9940 O   0  0  0  0  0  0  0  0  0  0  0  0
    7.2940   -3.3840   19.7070 C   0  0  0  0  0  0  0  0  0  0  0  0
    5.6560   -1.8260   21.6240 C   0  0  0  0  0  0  0  0  0  0  0  0
    6.6150   -0.9980   21.0020 N   0  0  0  0  0  0  0  0  0  0  0  0
    7.9050   -0.5170   21.5310 C   0  0  0  0  0  0  0  0  0  0  0  0
    6.0740   -0.2020   20.0250 C   0  0  0  0  0  0  0  0  0  0  0  0
    8.6400   -1.3270   22.4260 N   0  0  0  0  0  0  0  0  0  0  0  0
    8.3410    0.5840   21.1810 O   0  0  0  0  0  0  0  0  0  0  0  0
    6.6730   -0.0960   18.7730 C   0  0  0  0  0  0  0  0  0  0  0  0
    4.8920    0.5460   20.2650 C   0  0  0  0  0  0  0  0  0  0  0  0
    9.9770   -0.7860   22.6370 C   0  0  0  0  0  0  0  0  0  0  0  0
    6.2220    0.7150   17.6620 N   0  0  0  0  0  0  0  0  0  0  0  0
    4.3320    1.3720   19.2980 C   0  0  0  0  0  0  0  0  0  0  0  0
   11.1890   -1.3960   22.9150 C   0  0  0  0  0  0  0  0  0  0  0  0
   10.3790    0.9890   22.5630 S   0  0  0  0  0  0  0  0  0  0  0  0
    5.0200    1.4670   17.9420 C   0  0  0  0  0  0  0  0  0  0  0  0
   12.0540    0.7440   22.8520 C   0  0  0  0  0  0  0  0  0  0  0  0
   12.2920   -0.5980   23.0310 C   0  0  0  0  0  0  0  0  0  0  0  0
   12.8990    1.9230   22.8510 C   0  0  0  0  0  0  0  0  0  0  0  0
  1  2  2  0
  2  3  2  0
  2  4  1  0
  2  5  1  0
  4  6  2  0
  4  7  1  0
  5  8  1  0
  5  9  1  0
  6 10  1  0
  7 11  1  0
  7 12  2  0
  6 13  1  0
  8 14  1  0
  9 15  1  0
 12 16  1  0
 13 16  2  0
 14 17  1  0
 15 17  1  0
 17 18  1  0
 17 19  1  0
 18 20  2  0
 18 21  1  0
 19 22  1  0
 22 23  1  0
 23 24  1  0
 23 25  1  0
 24 26  1  0
 24 27  2  0
 25 28  2  0
 25 29  1  0
 26 30  1  0
 28 31  1  0
 29 32  2  0
 30 33  2  0
 30 34  1  0
 31 35  2  0
 32 35  1  0
 34 36  1  0
 33 37  1  0
 36 37  2  0
 36 38  1  0
M  END
