x0755-x0426
     RDKit          3D

 41 45  0  0  0  0  0  0  0  0999 V2000
    4.3680   -6.4860   26.2110 O   0  0  0  0  0  0  0  0  0  0  0  0
    5.1260   -5.2790   25.9770 S   0  0  0  0  0  0  0  0  0  0  0  0
    6.2380   -4.8950   26.8120 O   0  0  0  0  0  0  0  0  0  0  0  0
    3.9690   -3.9450   25.9080 C   0  0  0  0  0  0  0  0  0  0  0  0
    5.7490   -5.3290   24.4020 N   0  0  0  0  0  0  0  0  0  0  0  0
    2.5860   -4.0660   26.1730 C   0  0  0  0  0  0  0  0  0  0  0  0
    4.4870   -2.7250   25.5620 C   0  0  0  0  0  0  0  0  0  0  0  0
    6.9380   -4.5120   23.9920 C   0  0  0  0  0  0  0  0  0  0  0  0
    5.0770   -5.9960   23.4520 C   0  0  0  0  0  0  0  0  0  0  0  0
    2.0350   -5.2470   26.5040 F   0  0  0  0  0  0  0  0  0  0  0  0
    5.7650   -2.4120   25.2730 O   0  0  0  0  0  0  0  0  0  0  0  0
    3.8010   -1.5620   25.4270 C   0  0  0  0  0  0  0  0  0  0  0  0
    1.7580   -2.9340   26.0860 C   0  0  0  0  0  0  0  0  0  0  0  0
    7.6200   -5.0530   22.7230 C   0  0  0  0  0  0  0  0  0  0  0  0
    5.7540   -6.2580   22.1160 C   0  0  0  0  0  0  0  0  0  0  0  0
    5.5110   -1.3520   24.3140 C   0  0  0  0  0  0  0  0  0  0  0  0
    4.6840   -0.3350   24.9760 C   0  0  2  0  0  0  0  0  0  0  0  0
    2.2870   -1.6800   25.7250 C   0  0  0  0  0  0  0  0  0  0  0  0
    6.6220   -5.3310   21.6920 N   0  0  0  0  0  0  0  0  0  0  0  0
    6.3580   -4.5640   20.5380 C   0  0  0  0  0  0  0  0  0  0  0  0
    4.3470    0.8390   25.8480 C   0  0  0  0  0  0  0  0  0  0  0  0
    5.3010   -4.7700   19.9600 O   0  0  0  0  0  0  0  0  0  0  0  0
    7.3490   -3.5040   20.0120 C   0  0  0  0  0  0  0  0  0  0  0  0
    3.0480    1.4080   25.5680 N   0  0  0  0  0  0  0  0  0  0  0  0
    2.5270    2.1300   24.4190 C   0  0  0  0  0  0  0  0  0  0  0  0
    3.2740    2.3830   23.2540 N   0  0  0  0  0  0  0  0  0  0  0  0
    1.1880    2.6890   24.6440 C   0  0  0  0  0  0  0  0  0  0  0  0
    3.6880    1.3550   22.4120 C   0  0  0  0  0  0  0  0  0  0  0  0
    1.2200    3.9780   25.1950 C   0  0  0  0  0  0  0  0  0  0  0  0
   -0.0150    2.0290   24.3820 C   0  0  0  0  0  0  0  0  0  0  0  0
    3.4860    1.6370   20.9400 C   0  0  0  0  0  0  0  0  0  0  0  0
    2.4060    4.5670   25.4260 F   0  0  0  0  0  0  0  0  0  0  0  0
   -1.1920    2.7230   24.7050 C   0  0  0  0  0  0  0  0  0  0  0  0
    0.0540    4.6640   25.5120 C   0  0  0  0  0  0  0  0  0  0  0  0
   -1.1370    4.0000   25.2540 C   0  0  0  0  0  0  0  0  0  0  0  0
    4.5600    1.1500   19.9870 C   0  0  0  0  0  0  0  0  0  0  0  0
    5.5200    0.1800   20.3210 C   0  0  0  0  0  0  0  0  0  0  0  0
    4.5990    1.6920   18.7060 C   0  0  0  0  0  0  0  0  0  0  0  0
    6.4350   -0.1590   19.3240 C   0  0  0  0  0  0  0  0  0  0  0  0
    5.5710    1.2610   17.8030 C   0  0  0  0  0  0  0  0  0  0  0  0
    6.5000    0.3350   18.0780 N   0  0  0  0  0  0  0  0  0  0  0  0
  1  2  2  0
  2  3  2  0
  2  4  1  0
  2  5  1  0
  4  6  2  0
  4  7  1  0
  5  8  1  0
  5  9  1  0
  6 10  1  0
  7 11  1  0
  7 12  2  0
  6 13  1  0
  8 14  1  0
  9 15  1  0
 11 16  1  0
 12 17  1  0
 16 17  1  0
 12 18  1  0
 13 18  2  0
 14 19  1  0
 15 19  1  0
 19 20  1  0
 17 21  1  1
 20 22  2  0
 20 23  1  0
 21 24  1  0
 24 25  2  3
 25 26  1  0
 25 27  1  0
 26 28  1  0
 27 29  2  0
 27 30  1  0
 28 31  1  0
 29 32  1  0
 30 33  2  0
 29 34  1  0
 33 35  1  0
 34 35  2  0
 31 36  1  0
 36 37  2  0
 36 38  1  0
 37 39  1  0
 38 40  2  0
 39 41  2  0
 40 41  1  0
M  END
