x0755-x2705-x3117
     RDKit          3D

 52 56  0  0  0  0  0  0  0  0999 V2000
    7.4070   -0.9810   21.7920 N   0  0  0  0  0  0  0  0  0  0  0  0
    6.9950    0.3150   21.6240 C   0  0  1  0  0  0  0  0  0  0  0  0
    8.0050    1.4000   21.8240 C   0  0  0  0  0  0  0  0  0  0  0  0
    6.2170   -1.8860   21.8020 C   0  0  0  0  0  0  0  0  0  0  0  0
    8.5600   -1.1810   22.6440 C   0  0  0  0  0  0  0  0  0  0  0  0
    6.3260   -3.0770   22.7390 C   0  0  0  0  0  0  0  0  0  0  0  0
    6.3060    0.6100   20.3370 C   0  0  0  0  0  0  0  0  0  0  0  0
    8.5200   -1.3640   24.0520 N   0  0  0  0  0  0  0  0  0  0  0  0
    9.8650   -1.2010   22.1390 C   0  0  0  0  0  0  0  0  0  0  0  0
    7.5890    2.2350   22.8380 N   0  0  0  0  0  0  0  0  0  0  0  0
    9.0180    1.5170   21.1480 O   0  0  0  0  0  0  0  0  0  0  0  0
    5.1640    1.3890   20.2240 C   0  0  0  0  0  0  0  0  0  0  0  0
    6.8880    0.0340   19.0590 C   0  0  0  0  0  0  0  0  0  0  0  0
    9.9500   -1.4930   24.3940 N   0  0  0  0  0  0  0  0  0  0  0  0
   10.7390   -1.3870   23.1960 C   0  0  0  0  0  0  0  0  0  0  0  0
    6.3190   -4.5150   22.1130 C   0  0  0  0  0  0  0  0  0  0  0  0
   12.0780   -1.4700   23.2520 C   0  0  0  0  0  0  0  0  0  0  0  0
    6.4050   -4.4820   20.5690 C   0  0  0  0  0  0  0  0  0  0  0  0
    6.2540    0.3290   17.7950 N   0  0  0  0  0  0  0  0  0  0  0  0
    4.5460    1.6770   19.0370 C   0  0  0  0  0  0  0  0  0  0  0  0
    8.2510    3.4680   22.9440 C   0  0  0  0  0  0  0  0  0  0  0  0
    7.3180   -5.1560   22.7170 C   0  0  0  0  0  0  0  0  0  0  0  0
    4.9180   -5.1240   22.3640 C   0  0  0  0  0  0  0  0  0  0  0  0
   12.6470   -0.2460   23.8090 C   0  0  0  0  0  0  0  0  0  0  0  0
   12.4780   -2.6970   24.0820 C   0  0  0  0  0  0  0  0  0  0  0  0
   12.7140   -1.6830   21.8650 C   0  0  0  0  0  0  0  0  0  0  0  0
    5.6740   -5.2560   19.9880 O   0  0  0  0  0  0  0  0  0  0  0  0
    7.3500   -3.4500   19.9000 C   0  0  0  0  0  0  0  0  0  0  0  0
    5.1380    1.1160   17.7810 C   0  0  0  0  0  0  0  0  0  0  0  0
    9.5500    3.4660   23.4910 C   0  0  0  0  0  0  0  0  0  0  0  0
    7.6350    4.6510   22.5200 C   0  0  0  0  0  0  0  0  0  0  0  0
    7.1790   -5.1370   24.0980 C   0  0  0  0  0  0  0  0  0  0  0  0
    4.9070   -5.9350   23.4800 C   0  0  0  0  0  0  0  0  0  0  0  0
   10.2290    2.2140   23.9380 C   0  0  0  0  0  0  0  0  0  0  0  0
    6.2540    4.6450   21.9280 C   0  0  0  0  0  0  0  0  0  0  0  0
   13.4320   -2.4830   25.2480 C   0  0  0  0  0  0  0  0  0  0  0  0
   10.2370    4.6760   23.6220 C   0  0  0  0  0  0  0  0  0  0  0  0
    8.3340    5.8590   22.6550 C   0  0  0  0  0  0  0  0  0  0  0  0
    5.7250   -5.1850   24.4250 N   0  0  0  0  0  0  0  0  0  0  0  0
    9.3180    1.3770   24.8330 C   0  0  0  0  0  0  0  0  0  0  0  0
    5.1060   -5.1140   26.0180 S   0  0  0  0  0  0  0  0  0  0  0  0
    9.6110    5.8500   23.2000 C   0  0  0  0  0  0  0  0  0  0  0  0
    4.4220   -6.3590   26.2660 O   0  0  0  0  0  0  0  0  0  0  0  0
    6.1070   -4.6240   26.9190 O   0  0  0  0  0  0  0  0  0  0  0  0
    3.8610   -3.8740   25.9400 C   0  0  0  0  0  0  0  0  0  0  0  0
    2.5110   -4.2270   25.7730 C   0  0  0  0  0  0  0  0  0  0  0  0
    4.2140   -2.5100   26.0520 C   0  0  0  0  0  0  0  0  0  0  0  0
    2.1060   -5.5020   25.6570 F   0  0  0  0  0  0  0  0  0  0  0  0
    5.4770   -2.1060   26.2140 F   0  0  0  0  0  0  0  0  0  0  0  0
    3.2220   -1.5300   26.0030 C   0  0  0  0  0  0  0  0  0  0  0  0
    1.5580   -3.2150   25.7290 C   0  0  0  0  0  0  0  0  0  0  0  0
    1.8770   -1.8630   25.8440 C   0  0  0  0  0  0  0  0  0  0  0  0
  1  2  1  0
  2  3  1  6
  1  4  1  0
  1  5  1  0
  4  6  1  0
  2  7  1  0
  5  8  2  0
  5  9  1  0
  3 10  1  0
  3 11  2  0
  7 12  2  0
  7 13  1  0
  8 14  1  0
  9 15  2  0
 14 15  1  0
  6 16  1  0
 15 17  1  0
 16 18  1  0
 13 19  2  0
 12 20  1  0
 10 21  1  0
 16 22  1  0
 16 23  1  0
 17 24  1  0
 17 25  1  0
 17 26  1  0
 18 27  2  0
 18 28  1  0
 19 29  1  0
 20 29  2  0
 21 30  2  0
 21 31  1  0
 22 32  1  0
 23 33  1  0
 30 34  1  0
 31 35  1  0
 25 36  1  0
 30 37  1  0
 31 38  2  0
 32 39  1  0
 33 39  1  0
 34 40  1  0
 39 41  1  0
 37 42  2  0
 38 42  1  0
 41 43  2  0
 41 44  2  0
 41 45  1  0
 45 46  2  0
 45 47  1  0
 46 48  1  0
 47 49  1  0
 47 50  2  0
 46 51  1  0
 50 52  1  0
 51 52  2  0
M  END
