x0755-x2912
     RDKit          3D

 42 45  0  0  0  0  0  0  0  0999 V2000
    3.9160   -7.1570   26.1120 O   0  0  0  0  0  0  0  0  0  0  0  0
    5.0310   -5.0190   25.7770 S   0  0  0  0  0  0  0  0  0  0  0  0
    6.1070   -4.6020   26.6370 O   0  0  0  0  0  0  0  0  0  0  0  0
    3.8620   -3.7920   25.8360 C   0  0  0  0  0  0  0  0  0  0  0  0
    5.6280   -5.0430   24.1910 N   0  0  0  0  0  0  0  0  0  0  0  0
    2.5250   -4.2140   25.7780 C   0  0  0  0  0  0  0  0  0  0  0  0
    4.1300   -2.2830   25.9460 C   0  0  0  0  0  0  0  0  0  0  0  0
    6.9560   -4.8550   24.0150 C   0  0  0  0  0  0  0  0  0  0  0  0
    4.7890   -5.5830   23.0990 C   0  0  0  0  0  0  0  0  0  0  0  0
    2.2400   -5.5430   25.6770 F   0  0  0  0  0  0  0  0  0  0  0  0
    5.4170   -1.8790   25.9920 O   0  0  0  0  0  0  0  0  0  0  0  0
    3.0830   -1.3960   25.9910 C   0  0  0  0  0  0  0  0  0  0  0  0
    1.3260   -3.3380   25.8170 C   0  0  0  0  0  0  0  0  0  0  0  0
    7.4080   -4.5190   22.6310 C   0  0  0  0  0  0  0  0  0  0  0  0
    5.7480   -6.1270   22.2370 C   0  0  0  0  0  0  0  0  0  0  0  0
    5.9980   -1.6730   24.7120 C   0  0  0  0  0  0  0  0  0  0  0  0
    1.6520   -1.8490   25.9330 C   0  0  0  0  0  0  0  0  0  0  0  0
    6.6000   -5.0720   21.7420 N   0  0  0  0  0  0  0  0  0  0  0  0
    6.3160   -4.4850   20.5250 C   0  0  0  0  0  0  0  0  0  0  0  0
    7.3100   -1.2720   24.9180 C   0  0  0  0  0  0  0  0  0  0  0  0
    5.2930   -4.7990   19.9510 O   0  0  0  0  0  0  0  0  0  0  0  0
    7.2560   -3.4380   19.9050 C   0  0  0  0  0  0  0  0  0  0  0  0
    7.8290   -0.1810   24.0160 C   0  0  0  0  0  0  0  0  0  0  0  0
    8.6430   -0.5450   22.9400 C   0  0  1  0  0  0  0  0  0  0  0  0
    8.3720    0.1080   21.7250 C   0  0  0  0  0  0  0  0  0  0  0  0
   10.1060   -0.6280   23.2870 C   0  0  0  0  0  0  0  0  0  0  0  0
    7.2540   -0.5250   20.9990 N   0  0  0  0  0  0  0  0  0  0  0  0
    9.0130    1.1170   21.3510 O   0  0  0  0  0  0  0  0  0  0  0  0
   10.6130   -0.3750   24.5670 C   0  0  0  0  0  0  0  0  0  0  0  0
   10.9960   -0.9740   22.2830 C   0  0  0  0  0  0  0  0  0  0  0  0
    6.5170    0.1380   20.0510 C   0  0  0  0  0  0  0  0  0  0  0  0
   12.0840   -0.4640   24.8950 C   0  0  0  0  0  0  0  0  0  0  0  0
   12.3530   -1.0560   22.5480 C   0  0  0  0  0  0  0  0  0  0  0  0
   13.1860   -1.3760   21.5120 C   0  0  0  0  0  0  0  0  0  0  0  0
    5.4280    0.9370   20.3600 C   0  0  0  0  0  0  0  0  0  0  0  0
    6.8280    0.0500   18.7050 C   0  0  0  0  0  0  0  0  0  0  0  0
   12.9470   -0.8290   23.7730 C   0  0  0  0  0  0  0  0  0  0  0  0
   14.0130   -1.4540   20.3680 N   0  0  0  0  0  0  0  0  0  0  0  0
    4.9060    1.1760   21.7710 C   0  0  0  0  0  0  0  0  0  0  0  0
    6.2390    0.6280   17.6510 N   0  0  0  0  0  0  0  0  0  0  0  0
    4.7630    1.5920   19.1500 C   0  0  0  0  0  0  0  0  0  0  0  0
    5.1770    1.4330   17.8310 C   0  0  0  0  0  0  0  0  0  0  0  0
  1  2  2  0
  2  3  2  0
  2  4  1  0
  2  5  1  0
  4  6  2  0
  4  7  1  0
  5  8  1  0
  5  9  1  0
  6 10  1  0
  7 11  1  0
  7 12  2  0
  6 13  1  0
  8 14  1  0
  9 15  1  0
 11 16  1  0
 12 17  1  0
 13 17  2  0
 14 18  1  0
 15 18  1  0
 18 19  1  0
 16 20  1  0
 19 21  2  0
 19 22  1  0
 20 23  1  0
 24 23  1  1
 24 25  1  0
 24 26  1  0
 25 27  1  0
 25 28  2  0
 26 29  2  0
 26 30  1  0
 27 31  1  0
 29 32  1  0
 30 33  2  0
 33 34  1  0
 31 35  2  0
 31 36  1  0
 32 37  2  0
 33 37  1  0
 34 38  3  0
 35 39  1  0
 36 40  2  0
 35 41  1  0
 40 42  1  0
 41 42  2  0
M  END
