x0755-x2908-x2581
     RDKit          3D

 57 63  0  0  0  0  0  0  0  0999 V2000
    4.1770   -6.8050   25.7080 O   0  0  0  0  0  0  0  0  0  0  0  0
    5.4040   -6.0900   25.4110 S   0  0  0  0  0  0  0  0  0  0  0  0
    6.5200   -6.1690   26.3310 O   0  0  0  0  0  0  0  0  0  0  0  0
    4.4670   -4.6150   25.5050 C   0  0  0  0  0  0  0  0  0  0  0  0
    5.9960   -6.3890   23.8020 N   0  0  0  0  0  0  0  0  0  0  0  0
    3.2590   -4.3950   24.7380 C   0  0  0  0  0  0  0  0  0  0  0  0
    4.9290   -3.5800   26.3930 C   0  0  0  0  0  0  0  0  0  0  0  0
    7.3890   -5.9620   23.3550 C   0  0  0  0  0  0  0  0  0  0  0  0
    5.3270   -6.9490   22.7630 C   0  0  0  0  0  0  0  0  0  0  0  0
    2.7320   -5.2810   23.8770 F   0  0  0  0  0  0  0  0  0  0  0  0
    6.0270   -3.6310   27.1670 F   0  0  0  0  0  0  0  0  0  0  0  0
    4.1770   -2.3590   26.4850 C   0  0  0  0  0  0  0  0  0  0  0  0
    2.5270   -3.1840   24.8460 C   0  0  0  0  0  0  0  0  0  0  0  0
    7.2060   -4.8330   22.2770 C   0  0  2  0  0  0  0  0  0  0  0  0
    5.1960   -6.2170   21.5410 C   0  0  0  0  0  0  0  0  0  0  0  0
    7.0760   -3.4480   23.0010 C   0  0  0  0  0  0  0  0  0  0  0  0
    3.0000   -2.1780   25.7220 C   0  0  0  0  0  0  0  0  0  0  0  0
    6.0790   -5.0220   21.2320 N   0  0  0  0  0  0  0  0  0  0  0  0
    5.8580   -4.2060   20.0920 C   0  0  0  0  0  0  0  0  0  0  0  0
    8.0250   -3.0200   24.1850 C   0  0  0  0  0  0  0  0  0  0  0  0
    4.7470   -4.1860   19.5910 O   0  0  0  0  0  0  0  0  0  0  0  0
    7.0050   -3.3960   19.4320 C   0  0  0  0  0  0  0  0  0  0  0  0
    9.4950   -3.0080   23.7890 C   0  0  0  0  0  0  0  0  0  0  0  0
    9.8050   -1.9120   23.2430 O   0  0  0  0  0  0  0  0  0  0  0  0
   11.0780   -1.5140   23.4690 C   0  0  0  0  0  0  0  0  0  0  0  0
   10.4460   -0.0930   22.8350 C   0  0  0  0  0  0  0  0  0  0  0  0
   12.4190   -1.0970   23.7070 C   0  0  0  0  0  0  0  0  0  0  0  0
   13.3420   -2.3900   24.3950 Cl  0  0  0  0  0  0  0  0  0  0  0  0
   11.2010    1.1930   22.6370 C   0  0  0  0  0  0  0  0  0  0  0  0
    9.0150    0.1290   22.3630 C   0  0  0  0  0  0  0  0  0  0  0  0
   13.1730    0.0280   23.5460 C   0  0  0  0  0  0  0  0  0  0  0  0
   10.6030    2.3930   22.0890 C   0  0  0  0  0  0  0  0  0  0  0  0
    8.4490    1.3170   21.8250 C   0  0  0  0  0  0  0  0  0  0  0  0
   12.5580    1.2320   22.9920 C   0  0  0  0  0  0  0  0  0  0  0  0
   11.2780    3.6120   21.8960 N   0  0  0  0  0  0  0  0  0  0  0  0
    7.1480    1.4060   21.4400 N   0  0  0  0  0  0  0  0  0  0  0  0
    9.2550    2.3720   21.7120 N   0  0  0  0  0  0  0  0  0  0  0  0
   11.6960    4.5810   22.9300 C   0  0  0  0  0  0  0  0  0  0  0  0
    6.4830    1.4440   20.1120 C   0  0  0  0  0  0  0  0  0  0  0  0
   11.6830    4.2590   24.1150 O   0  0  0  0  0  0  0  0  0  0  0  0
   12.1200    5.9860   22.4590 C   0  0  0  0  0  0  0  0  0  0  0  0
    6.8840    0.6010   19.1200 C   0  0  0  0  0  0  0  0  0  0  0  0
    5.4400    2.4060   20.0220 C   0  0  0  0  0  0  0  0  0  0  0  0
    5.0180    3.3280   21.1560 C   0  0  0  0  0  0  0  0  0  0  0  0
   11.3490    7.0610   23.2350 C   0  0  0  0  0  0  0  0  0  0  0  0
    6.2620    0.5970   17.7920 N   0  0  0  0  0  0  0  0  0  0  0  0
    4.7860    2.4660   18.7790 C   0  0  0  0  0  0  0  0  0  0  0  0
   10.0210    7.4280   22.8880 C   0  0  0  0  0  0  0  0  0  0  0  0
   11.9420    7.7120   24.3210 C   0  0  0  0  0  0  0  0  0  0  0  0
    5.1670    1.5340   17.5510 C   0  0  0  0  0  0  0  0  0  0  0  0
    9.3120    8.4370   23.6220 C   0  0  0  0  0  0  0  0  0  0  0  0
   11.2800    8.7140   25.0760 C   0  0  0  0  0  0  0  0  0  0  0  0
    9.9420    9.0450   24.6800 C   0  0  0  0  0  0  0  0  0  0  0  0
   11.8750    9.3750   26.1670 C   0  0  0  0  0  0  0  0  0  0  0  0
    9.2300   10.1730   25.5320 C   0  0  0  0  0  0  0  0  0  0  0  0
   11.1430   10.4520   26.9550 C   0  0  0  0  0  0  0  0  0  0  0  0
    9.8140   10.8180   26.5960 C   0  0  0  0  0  0  0  0  0  0  0  0
  1  2  2  0
  2  3  2  0
  2  4  1  0
  2  5  1  0
  4  6  2  0
  4  7  1  0
  5  8  1  0
  5  9  1  0
  6 10  1  0
  7 11  1  0
  7 12  2  0
  6 13  1  0
  8 14  1  0
  9 15  1  0
 14 16  1  1
 12 17  1  0
 13 17  2  0
 14 18  1  0
 15 18  1  0
 18 19  1  0
 16 20  1  0
 19 21  2  0
 19 22  1  0
 20 23  1  0
 23 24  1  0
 24 25  1  0
 25 26  1  0
 25 27  2  0
 27 28  1  0
 26 29  2  0
 26 30  1  0
 27 31  1  0
 29 32  1  0
 30 33  2  0
 29 34  1  0
 31 34  2  0
 32 35  1  0
 33 36  1  0
 32 37  2  0
 33 37  1  0
 35 38  1  0
 36 39  1  0
 38 40  2  0
 38 41  1  0
 39 42  2  0
 39 43  1  0
 43 44  1  0
 41 45  1  0
 42 46  1  0
 43 47  2  0
 45 48  2  0
 45 49  1  0
 46 50  2  0
 47 50  1  0
 48 51  1  0
 49 52  2  0
 51 53  2  0
 52 53  1  0
 52 54  1  0
 53 55  1  0
 54 56  2  0
 55 57  2  0
 56 57  1  0
M  END
