x0755-x0967
     RDKit          3D

 43 45  0  0  0  0  0  0  0  0999 V2000
    7.6840    4.8410   22.4470 C   0  0  0  0  0  0  0  0  0  0  0  0
    7.1940    3.4850   22.8900 C   0  0  0  0  0  0  0  0  0  0  0  0
    7.8180    2.4350   22.2520 N   0  0  0  0  0  0  0  0  0  0  0  0
    6.3220    3.3560   23.7440 O   0  0  0  0  0  0  0  0  0  0  0  0
    7.8890    1.1000   22.8720 C   0  0  1  0  0  0  0  0  0  0  0  0
    6.6780    0.2290   22.5200 C   0  0  1  0  0  0  0  0  0  0  0  0
    9.2000    0.5440   22.2640 C   0  0  0  0  0  0  0  0  0  0  0  0
    9.2560   -0.7280   21.5480 N   0  0  0  0  0  0  0  0  0  0  0  0
   10.2520    1.1640   22.3650 O   0  0  0  0  0  0  0  0  0  0  0  0
    5.4970    0.3490   23.5360 C   0  0  0  0  0  0  0  0  0  0  0  0
    6.2620    0.5390   21.0840 C   0  0  0  0  0  0  0  0  0  0  0  0
    9.4730   -2.0230   22.0890 C   0  0  0  0  0  0  0  0  0  0  0  0
    5.8790    0.1320   24.8700 C   0  0  0  0  0  0  0  0  0  0  0  0
    6.8460   -0.3700   20.2200 C   0  0  0  0  0  0  0  0  0  0  0  0
    5.4430    1.5450   20.6060 C   0  0  0  0  0  0  0  0  0  0  0  0
   10.7380   -2.0570   22.7470 C   0  0  0  0  0  0  0  0  0  0  0  0
    6.1000   -1.3910   24.6950 C   0  0  0  0  0  0  0  0  0  0  0  0
    6.6350   -0.2900   18.8670 C   0  0  0  0  0  0  0  0  0  0  0  0
    5.2590    1.5830   19.2190 C   0  0  0  0  0  0  0  0  0  0  0  0
   12.0200   -2.1610   23.5200 C   0  0  0  0  0  0  0  0  0  0  0  0
    5.5430   -2.0430   25.8480 O   0  0  0  0  0  0  0  0  0  0  0  0
    5.8300    0.6970   18.3060 C   0  0  0  0  0  0  0  0  0  0  0  0
    5.6520    0.7710   17.1240 O   0  0  0  0  0  0  0  0  0  0  0  0
   13.5180   -2.3960   24.6150 Br  0  0  0  0  0  0  0  0  0  0  0  0
    4.2230   -2.3950   25.8430 C   0  0  0  0  0  0  0  0  0  0  0  0
    3.8950   -3.7530   25.8040 C   0  0  0  0  0  0  0  0  0  0  0  0
    3.1910   -1.4510   25.8740 C   0  0  0  0  0  0  0  0  0  0  0  0
    5.1160   -4.9830   25.7680 S   0  0  0  0  0  0  0  0  0  0  0  0
    2.5540   -4.1560   25.7910 C   0  0  0  0  0  0  0  0  0  0  0  0
    1.8560   -1.8530   25.8640 C   0  0  0  0  0  0  0  0  0  0  0  0
    4.5040   -6.2810   25.9520 O   0  0  0  0  0  0  0  0  0  0  0  0
    6.1830   -4.5790   26.6590 O   0  0  0  0  0  0  0  0  0  0  0  0
    2.2030   -5.4530   25.7500 F   0  0  0  0  0  0  0  0  0  0  0  0
    1.5320   -3.2080   25.8200 C   0  0  0  0  0  0  0  0  0  0  0  0
    5.6940   -4.9490   24.1790 N   0  0  0  0  0  0  0  0  0  0  0  0
    7.0860   -4.7360   24.0100 C   0  0  0  0  0  0  0  0  0  0  0  0
    5.0110   -5.7280   23.3080 C   0  0  0  0  0  0  0  0  0  0  0  0
    7.6210   -4.8850   22.7160 C   0  0  0  0  0  0  0  0  0  0  0  0
    5.7450   -6.2230   22.2320 C   0  0  0  0  0  0  0  0  0  0  0  0
    6.5450   -5.2410   21.7810 N   0  0  0  0  0  0  0  0  0  0  0  0
    6.3170   -4.5700   20.5600 C   0  0  0  0  0  0  0  0  0  0  0  0
    5.2920   -4.8540   19.9640 O   0  0  0  0  0  0  0  0  0  0  0  0
    7.2820   -3.5080   19.9790 C   0  0  0  0  0  0  0  0  0  0  0  0
  1  2  1  0
  2  3  1  0
  2  4  2  0
  5  3  1  6
  5  6  1  0
  5  7  1  0
  7  8  1  0
  7  9  2  0
  6 10  1  1
  6 11  1  0
  8 12  1  0
 10 13  1  0
 11 14  2  0
 11 15  1  0
 12 16  1  0
 13 17  1  0
 14 18  1  0
 15 19  2  0
 16 20  3  0
 17 21  1  0
 18 22  2  0
 19 22  1  0
 22 23  1  0
 20 24  1  0
 21 25  1  0
 25 26  1  0
 25 27  2  0
 28 26  1  0
 26 29  2  0
 27 30  1  0
 28 31  2  0
 28 32  2  0
 29 33  1  0
 29 34  1  0
 30 34  2  0
 28 35  1  0
 35 36  1  0
 35 37  1  0
 36 38  1  0
 37 39  1  0
 38 40  1  0
 39 40  1  0
 40 41  1  0
 41 42  2  0
 41 43  1  0
M  END
