x0755-x3115
     RDKit          3D

 47 50  0  0  0  0  0  0  0  0999 V2000
    7.3330   -1.1060   21.9370 N   0  0  0  0  0  0  0  0  0  0  0  0
    6.8700    0.2670   21.7430 C   0  0  1  0  0  0  0  0  0  0  0  0
    8.0370    1.2490   22.0120 C   0  0  0  0  0  0  0  0  0  0  0  0
    6.5820   -2.2790   22.3570 C   0  0  0  0  0  0  0  0  0  0  0  0
    8.6180   -1.2350   22.5800 C   0  0  0  0  0  0  0  0  0  0  0  0
    6.2280    0.5550   20.4180 C   0  0  0  0  0  0  0  0  0  0  0  0
    9.6330   -1.6060   21.7590 C   0  0  0  0  0  0  0  0  0  0  0  0
    8.8980   -1.0520   23.9190 C   0  0  0  0  0  0  0  0  0  0  0  0
    7.7030   -3.3290   22.6760 C   0  0  0  0  0  0  0  0  0  0  0  0
    8.2650    1.8230   23.2140 N   0  0  0  0  0  0  0  0  0  0  0  0
    8.8150    1.6240   21.1290 O   0  0  0  0  0  0  0  0  0  0  0  0
    5.0740    1.3540   20.3420 C   0  0  0  0  0  0  0  0  0  0  0  0
    6.8290    0.0090   19.2430 C   0  0  0  0  0  0  0  0  0  0  0  0
   10.9170   -1.7950   22.2410 C   0  0  0  0  0  0  0  0  0  0  0  0
   10.1590   -1.2370   24.4070 C   0  0  0  0  0  0  0  0  0  0  0  0
    7.1710   -4.6830   22.9670 C   0  0  2  0  0  0  0  0  0  0  0  0
    8.5120    3.1260   23.5730 C   0  0  0  0  0  0  0  0  0  0  0  0
    6.3400    0.2320   17.9830 N   0  0  0  0  0  0  0  0  0  0  0  0
    4.4680    1.6520   19.0140 C   0  0  0  0  0  0  0  0  0  0  0  0
   11.2260   -1.6140   23.5950 C   0  0  0  0  0  0  0  0  0  0  0  0
    6.5040   -5.2910   21.7860 N   0  0  0  0  0  0  0  0  0  0  0  0
    6.3250   -4.4170   24.0260 C   0  0  0  0  0  0  0  0  0  0  0  0
    8.0950    4.1730   22.7290 C   0  0  0  0  0  0  0  0  0  0  0  0
   12.5960   -1.7870   24.1490 C   0  0  0  0  0  0  0  0  0  0  0  0
    5.1770    1.0460   17.8550 C   0  0  0  0  0  0  0  0  0  0  0  0
    6.2640   -4.6090   20.5630 C   0  0  0  0  0  0  0  0  0  0  0  0
    5.5540   -5.5840   24.4200 N   0  0  0  0  0  0  0  0  0  0  0  0
    5.5910   -6.3610   22.2160 C   0  0  0  0  0  0  0  0  0  0  0  0
    8.7260    5.3340   23.0750 O   0  0  0  0  0  0  0  0  0  0  0  0
   13.3980   -1.8710   22.9780 C   0  0  0  0  0  0  0  0  0  0  0  0
   12.7250   -2.9670   25.0270 C   0  0  0  0  0  0  0  0  0  0  0  0
   12.7410   -0.6610   25.0720 C   0  0  0  0  0  0  0  0  0  0  0  0
    5.2390   -4.8550   19.9630 O   0  0  0  0  0  0  0  0  0  0  0  0
    7.2210   -3.5690   19.9110 C   0  0  0  0  0  0  0  0  0  0  0  0
    4.9080   -5.4040   25.9680 S   0  0  0  0  0  0  0  0  0  0  0  0
    4.7200   -6.0360   23.2730 C   0  0  0  0  0  0  0  0  0  0  0  0
    8.3710    6.4350   22.2330 C   0  0  0  0  0  0  0  0  0  0  0  0
    4.1440   -6.6060   26.2420 O   0  0  0  0  0  0  0  0  0  0  0  0
    6.0070   -5.0030   26.8180 O   0  0  0  0  0  0  0  0  0  0  0  0
    3.7990   -4.0350   25.9080 C   0  0  0  0  0  0  0  0  0  0  0  0
    2.4210   -4.2630   25.7450 C   0  0  0  0  0  0  0  0  0  0  0  0
    4.3200   -2.5940   26.0390 C   0  0  0  0  0  0  0  0  0  0  0  0
    1.9370   -5.5030   25.6280 F   0  0  0  0  0  0  0  0  0  0  0  0
    5.6020   -2.2430   26.1990 F   0  0  0  0  0  0  0  0  0  0  0  0
    3.2520   -1.5320   25.9800 C   0  0  0  0  0  0  0  0  0  0  0  0
    1.4950   -3.1890   25.7020 C   0  0  0  0  0  0  0  0  0  0  0  0
    1.9090   -1.8650   25.8190 C   0  0  0  0  0  0  0  0  0  0  0  0
  1  2  1  0
  2  3  1  6
  1  4  1  0
  1  5  1  0
  2  6  1  0
  5  7  2  0
  5  8  1  0
  4  9  1  0
  3 10  1  0
  3 11  2  0
  6 12  2  0
  6 13  1  0
  7 14  1  0
  8 15  2  0
 16  9  1  6
 10 17  1  0
 13 18  2  0
 12 19  1  0
 14 20  2  0
 15 20  1  0
 16 21  1  0
 16 22  1  0
 17 23  1  0
 20 24  1  0
 18 25  1  0
 19 25  2  0
 21 26  1  0
 22 27  1  0
 21 28  1  0
 23 29  1  0
 24 30  1  0
 24 31  1  0
 24 32  1  0
 26 33  2  0
 26 34  1  0
 27 35  1  0
 27 36  1  0
 28 36  1  0
 29 37  1  0
 35 38  2  0
 35 39  2  0
 35 40  1  0
 40 41  2  0
 40 42  1  0
 41 43  1  0
 42 44  1  0
 42 45  2  0
 41 46  1  0
 45 47  1  0
 46 47  2  0
M  END
