x0752-x0434
     RDKit          3D

 32 35  0  0  0  0  0  0  0  0999 V2000
    6.6560   -3.7690   21.4510 N   0  0  0  0  0  0  0  0  0  0  0  0
    6.3480   -4.0960   20.2150 C   0  0  0  0  0  0  0  0  0  0  0  0
    7.1340   -3.3140   19.1860 C   0  0  0  0  0  0  0  0  0  0  0  0
    6.8020   -4.8130   22.4420 C   0  0  0  0  0  0  0  0  0  0  0  0
    5.7490   -2.6420   21.7850 C   0  0  0  0  0  0  0  0  0  0  0  0
    5.5090   -4.9490   19.9740 O   0  0  0  0  0  0  0  0  0  0  0  0
    6.3890   -1.3430   22.2560 C   0  0  0  0  0  0  0  0  0  0  0  0
    5.7590   -4.4670   23.3910 C   0  0  0  0  0  0  0  0  0  0  0  0
    7.1090   -0.6570   21.1840 N   0  0  0  0  0  0  0  0  0  0  0  0
    4.5490   -5.1210   23.3810 C   0  0  0  0  0  0  0  0  0  0  0  0
    6.0350   -3.4180   24.2790 C   0  0  0  0  0  0  0  0  0  0  0  0
    8.3720   -0.1700   21.5060 C   0  0  0  0  0  0  0  0  0  0  0  0
    3.5910   -4.6990   24.2650 C   0  0  0  0  0  0  0  0  0  0  0  0
    4.9660   -2.9770   25.2340 C   0  0  0  0  0  0  0  0  0  0  0  0
    6.4130    0.0050   20.1160 C   0  0  0  0  0  0  0  0  0  0  0  0
    8.7000    0.9700   21.1840 O   0  0  0  0  0  0  0  0  0  0  0  0
    9.1580   -1.0530   22.1950 N   0  0  0  0  0  0  0  0  0  0  0  0
    3.7850   -3.6620   25.1550 C   0  0  0  0  0  0  0  0  0  0  0  0
    2.2880   -5.2380   24.3960 O   0  0  0  0  0  0  0  0  0  0  0  0
    5.2140    0.7140   20.2800 C   0  0  0  0  0  0  0  0  0  0  0  0
    6.9140   -0.0150   18.8180 C   0  0  0  0  0  0  0  0  0  0  0  0
    2.6950   -3.4140   25.9170 O   0  0  0  0  0  0  0  0  0  0  0  0
    1.7200   -4.2850   25.3090 C   0  0  0  0  0  0  0  0  0  0  0  0
   10.4330   -0.6710   22.5720 C   0  0  0  0  0  0  0  0  0  0  0  0
    4.6120    1.3360   19.2190 C   0  0  0  0  0  0  0  0  0  0  0  0
    6.3480    0.5900   17.7570 N   0  0  0  0  0  0  0  0  0  0  0  0
   10.6400    0.4150   23.3970 C   0  0  0  0  0  0  0  0  0  0  0  0
   11.5220   -1.4000   22.0870 C   0  0  0  0  0  0  0  0  0  0  0  0
    5.2070    1.2560   17.9790 C   0  0  0  0  0  0  0  0  0  0  0  0
   11.9280    0.7690   23.7160 C   0  0  0  0  0  0  0  0  0  0  0  0
   12.8080   -1.0180   22.4280 C   0  0  0  0  0  0  0  0  0  0  0  0
   12.9920    0.0780   23.2440 C   0  0  0  0  0  0  0  0  0  0  0  0
  1  2  1  0
  2  3  1  0
  1  4  1  0
  1  5  1  0
  2  6  2  0
  5  7  1  0
  4  8  1  0
  7  9  1  0
  8 10  2  0
  8 11  1  0
  9 12  1  0
 10 13  1  0
 11 14  2  0
  9 15  1  0
 12 16  2  0
 12 17  1  0
 13 18  2  0
 14 18  1  0
 13 19  1  0
 15 20  2  0
 15 21  1  0
 18 22  1  0
 19 23  1  0
 22 23  1  0
 17 24  1  0
 20 25  1  0
 21 26  2  0
 24 27  2  0
 24 28  1  0
 25 29  2  0
 26 29  1  0
 27 30  1  0
 28 31  2  0
 30 32  2  0
 31 32  1  0
M  END
