x0755-x1458-x2562
     RDKit          3D

 47 51  0  0  0  0  0  0  0  0999 V2000
    7.2440   -3.8670   26.4450 N   0  0  0  0  0  0  0  0  0  0  0  0
    7.7260   -4.7940   27.3710 C   0  0  0  0  0  0  0  0  0  0  0  0
    8.9510   -5.5310   26.8310 C   0  0  0  0  0  0  0  0  0  0  0  0
    7.5450   -2.4350   26.5240 C   0  0  0  0  0  0  0  0  0  0  0  0
    6.1250   -4.1450   25.4990 C   0  0  2  0  0  0  0  0  0  0  0  0
    5.2480   -3.1490   25.2950 O   0  0  0  0  0  0  0  0  0  0  0  0
    6.6520   -5.7130   27.9300 C   0  0  0  0  0  0  0  0  0  0  0  0
    5.4090   -5.3450   25.9170 O   0  0  0  0  0  0  0  0  0  0  0  0
    6.5810   -4.2670   24.0380 C   0  0  1  0  0  0  0  0  0  0  0  0
    7.5280   -3.3860   23.5050 C   0  0  0  0  0  0  0  0  0  0  0  0
    6.7110   -5.5480   23.5460 C   0  0  0  0  0  0  0  0  0  0  0  0
    3.8810   -3.0630   25.5820 C   0  0  0  0  0  0  0  0  0  0  0  0
    7.2940   -3.0540   22.1650 C   0  0  2  0  0  0  0  0  0  0  0  0
    6.6860   -5.5440   22.2050 C   0  0  0  0  0  0  0  0  0  0  0  0
    2.7880   -3.9290   25.6600 C   0  0  0  0  0  0  0  0  0  0  0  0
    3.6250   -1.7510   25.8380 C   0  0  0  0  0  0  0  0  0  0  0  0
    2.8510   -5.2560   25.4420 F   0  0  0  0  0  0  0  0  0  0  0  0
    6.3220   -1.8500   22.0770 C   0  0  0  0  0  0  0  0  0  0  0  0
    6.7600   -4.2520   21.4990 N   0  0  0  0  0  0  0  0  0  0  0  0
    2.4010   -1.2060   26.1590 C   0  0  0  0  0  0  0  0  0  0  0  0
    1.3920   -3.2970   26.0250 C   0  0  0  0  0  0  0  0  0  0  0  0
    6.2500   -4.1210   20.2360 C   0  0  0  0  0  0  0  0  0  0  0  0
    6.8920   -0.4790   21.5930 C   0  0  1  0  0  0  0  0  0  0  0  0
    1.1820   -1.9260   26.2790 C   0  0  0  0  0  0  0  0  0  0  0  0
    5.2280   -4.7090   19.9160 O   0  0  0  0  0  0  0  0  0  0  0  0
    7.0450   -3.2710   19.2660 C   0  0  0  0  0  0  0  0  0  0  0  0
    8.3520   -0.0230   21.5410 C   0  0  0  0  0  0  0  0  0  0  0  0
    6.2440    0.1120   20.3360 C   0  0  0  0  0  0  0  0  0  0  0  0
    8.5930    1.2440   21.0410 O   0  0  0  0  0  0  0  0  0  0  0  0
    9.3900   -0.9410   22.0500 N   0  0  0  0  0  0  0  0  0  0  0  0
    6.8670   -0.0740   18.9620 C   0  0  0  0  0  0  0  0  0  0  0  0
    5.0260    0.9010   20.3660 C   0  0  0  0  0  0  0  0  0  0  0  0
    4.4370    1.4960   19.1670 N   0  0  0  0  0  0  0  0  0  0  0  0
    6.2900    0.5170   17.7610 N   0  0  0  0  0  0  0  0  0  0  0  0
   10.6940   -0.4720   22.3190 C   0  0  0  0  0  0  0  0  0  0  0  0
    5.0730    1.2900   17.9780 C   0  0  0  0  0  0  0  0  0  0  0  0
   11.8620   -1.2110   22.2420 C   0  0  0  0  0  0  0  0  0  0  0  0
   10.8640    0.8230   22.6830 C   0  0  0  0  0  0  0  0  0  0  0  0
   13.0010   -0.6060   22.5120 C   0  0  0  0  0  0  0  0  0  0  0  0
   11.9960    1.4990   22.9700 C   0  0  0  0  0  0  0  0  0  0  0  0
   12.0590    2.8400   23.3350 O   0  0  0  0  0  0  0  0  0  0  0  0
   13.1350    0.7720   22.8820 C   0  0  0  0  0  0  0  0  0  0  0  0
   12.9580    3.8050   22.7340 C   0  0  1  0  0  0  0  0  0  0  0  0
   12.2480    4.5360   21.6200 N   0  0  0  0  0  0  0  0  0  0  0  0
   13.3420    4.8720   23.3930 C   0  0  0  0  0  0  0  0  0  0  0  0
   12.6080    5.5970   22.3920 C   0  0  1  0  0  0  0  0  0  0  0  0
   13.3530    6.5280   21.6510 O   0  0  0  0  0  0  0  0  0  0  0  0
  1  2  1  0
  2  3  1  0
  1  4  1  0
  1  5  1  0
  5  6  1  0
  2  7  1  0
  5  8  1  1
  5  9  1  0
  9 10  1  1
  9 11  1  0
  6 12  1  0
 10 13  1  0
 11 14  1  0
 12 15  2  0
 12 16  1  0
 15 17  1  0
 13 18  1  1
 13 19  1  0
 14 19  1  0
 16 20  2  0
 15 21  1  0
 19 22  1  0
 23 18  1  6
 20 24  1  0
 21 24  2  0
 22 25  2  0
 22 26  1  0
 23 27  1  0
 23 28  1  0
 27 29  2  0
 27 30  1  0
 28 31  2  0
 28 32  1  0
 32 33  2  0
 31 34  1  0
 30 35  1  0
 33 36  1  0
 34 36  2  0
 35 37  2  0
 35 38  1  0
 37 39  1  0
 38 40  2  0
 40 41  1  0
 39 42  2  0
 40 42  1  0
 43 41  1  1
 43 44  1  0
 43 45  1  0
 44 46  1  0
 45 46  1  0
 46 47  1  6
M  END
