x0755-x3110-x3113-x2929
     RDKit          3D

 77 83  0  0  0  0  0  0  0  0999 V2000
    8.3460    1.4970   23.3610 N   0  0  0  0  0  0  0  0  0  0  0  0
    9.2360    2.5330   23.7200 C   0  0  0  0  0  0  0  0  0  0  0  0
   10.7040    2.3280   23.3940 C   0  0  0  0  0  0  0  0  0  0  0  0
    8.0660    1.1760   21.9460 C   0  0  0  0  0  0  0  0  0  0  0  0
    8.7920    1.6470   21.0670 O   0  0  0  0  0  0  0  0  0  0  0  0
    6.9170    0.3470   21.6340 C   0  0  2  0  0  0  0  0  0  0  0  0
    7.1580   -1.0750   21.9450 N   0  0  0  0  0  0  0  0  0  0  0  0
   11.5570    3.4620   23.3260 C   0  0  0  0  0  0  0  0  0  0  0  0
    6.2980    0.6640   20.2930 C   0  0  0  0  0  0  0  0  0  0  0  0
   12.5530    3.3160   22.5810 O   0  0  0  0  0  0  0  0  0  0  0  0
   11.3210    4.4870   23.9690 O   0  0  0  0  0  0  0  0  0  0  0  0
    5.9490   -1.9280   22.0570 C   0  0  0  0  0  0  0  0  0  0  0  0
    5.2180    1.5140   20.1930 C   0  0  0  0  0  0  0  0  0  0  0  0
    6.8350    0.0990   19.1660 C   0  0  0  0  0  0  0  0  0  0  0  0
    8.4430   -1.2860   22.6030 C   0  0  0  0  0  0  0  0  0  0  0  0
   13.3800    4.5040   22.3700 C   0  0  0  0  0  0  0  0  0  0  0  0
    6.1100   -3.0590   22.8270 C   0  0  0  0  0  0  0  0  0  0  0  0
    6.3330    0.3630   17.9280 N   0  0  0  0  0  0  0  0  0  0  0  0
    4.6780    1.8090   18.9650 C   0  0  0  0  0  0  0  0  0  0  0  0
    9.5100   -1.5310   21.7680 C   0  0  0  0  0  0  0  0  0  0  0  0
    8.6510   -1.2290   23.9680 C   0  0  0  0  0  0  0  0  0  0  0  0
   14.9380    4.2260   22.1460 C   0  0  0  0  0  0  0  0  0  0  0  0
    5.1910    1.2710   17.7730 C   0  0  0  0  0  0  0  0  0  0  0  0
   10.9740   -1.7390   22.1850 C   0  0  0  0  0  0  0  0  0  0  0  0
    9.9350   -1.3940   24.4510 C   0  0  0  0  0  0  0  0  0  0  0  0
    6.2920   -4.4210   22.0770 C   0  0  0  0  0  0  0  0  0  0  0  0
    6.3390   -4.3380   20.5320 C   0  0  0  0  0  0  0  0  0  0  0  0
   15.9280    4.9670   23.1520 C   0  0  0  0  0  0  0  0  0  0  0  0
   11.1410   -1.6470   23.5750 C   0  0  0  0  0  0  0  0  0  0  0  0
    7.3700   -5.0820   22.6200 C   0  0  0  0  0  0  0  0  0  0  0  0
    5.0390   -5.3280   22.2810 C   0  0  0  0  0  0  0  0  0  0  0  0
   12.5060   -1.7680   24.1740 C   0  0  0  0  0  0  0  0  0  0  0  0
    5.5620   -5.1010   19.9980 O   0  0  0  0  0  0  0  0  0  0  0  0
    7.2220   -3.3780   19.7150 C   0  0  0  0  0  0  0  0  0  0  0  0
   17.3490    4.7810   23.2540 C   0  0  0  0  0  0  0  0  0  0  0  0
    7.2130   -5.1070   24.1540 C   0  0  0  0  0  0  0  0  0  0  0  0
    5.0030   -6.0770   23.5670 C   0  0  0  0  0  0  0  0  0  0  0  0
   12.6730   -0.5730   24.8370 C   0  0  0  0  0  0  0  0  0  0  0  0
   13.4200   -2.0330   23.0350 C   0  0  0  0  0  0  0  0  0  0  0  0
   12.6400   -2.9860   24.9790 C   0  0  0  0  0  0  0  0  0  0  0  0
   18.4310    5.9500   23.5930 C   0  0  0  0  0  0  0  0  0  0  0  0
    5.7720   -5.2780   24.5160 N   0  0  0  0  0  0  0  0  0  0  0  0
    5.1140   -5.1230   26.0850 S   0  0  0  0  0  0  0  0  0  0  0  0
   19.6620    5.7040   24.4790 C   0  0  0  0  0  0  0  0  0  0  0  0
    4.5150   -6.4020   26.3840 O   0  0  0  0  0  0  0  0  0  0  0  0
    6.0990   -4.5170   26.9300 O   0  0  0  0  0  0  0  0  0  0  0  0
   20.7410    6.3740   23.6480 C   0  0  0  0  0  0  0  0  0  0  0  0
    3.8250   -3.9040   25.9630 C   0  0  0  0  0  0  0  0  0  0  0  0
   21.9810    6.5920   24.4840 C   0  0  0  0  0  0  0  0  0  0  0  0
    2.4680   -4.2350   25.7780 C   0  0  0  0  0  0  0  0  0  0  0  0
    4.2600   -2.5450   26.0780 C   0  0  0  0  0  0  0  0  0  0  0  0
    2.0740   -5.5160   25.6710 F   0  0  0  0  0  0  0  0  0  0  0  0
    5.5390   -2.1960   26.2530 F   0  0  0  0  0  0  0  0  0  0  0  0
   22.3340    5.5670   25.3520 N   0  0  0  0  0  0  0  0  0  0  0  0
    3.3080   -1.5220   26.0090 C   0  0  0  0  0  0  0  0  0  0  0  0
    1.4890   -3.2460   25.7040 C   0  0  0  0  0  0  0  0  0  0  0  0
   23.0910    4.4980   24.7090 C   0  0  0  0  0  0  0  0  0  0  0  0
    1.9960   -1.8040   25.8380 C   0  0  0  0  0  0  0  0  0  0  0  0
   23.4330    4.5560   23.4240 N   0  0  0  0  0  0  0  0  0  0  0  0
   23.4690    3.2410   25.5040 C   0  0  1  0  0  0  0  0  0  0  0  0
   23.8730    2.1520   24.7310 C   0  0  0  0  0  0  0  0  0  0  0  0
   24.3820    3.2630   26.7540 C   0  0  1  0  0  0  0  0  0  0  0  0
   24.8590    1.3930   25.5450 N   0  0  0  0  0  0  0  0  0  0  0  0
   25.2430    2.1430   26.6050 C   0  0  0  0  0  0  0  0  0  0  0  0
   25.1780    4.4650   27.2720 C   0  0  0  0  0  0  0  0  0  0  0  0
   24.5220   -0.0250   25.8260 C   0  0  0  0  0  0  0  0  0  0  0  0
   25.2050    4.6030   28.6760 C   0  0  0  0  0  0  0  0  0  0  0  0
   25.8470    5.3860   26.4730 C   0  0  0  0  0  0  0  0  0  0  0  0
   23.2600   -0.5930   25.2170 C   0  0  0  0  0  0  0  0  0  0  0  0
   25.8960    5.6550   29.2810 C   0  0  0  0  0  0  0  0  0  0  0  0
   26.5440    6.4480   27.0840 C   0  0  0  0  0  0  0  0  0  0  0  0
   22.1800   -0.9550   26.0660 C   0  0  0  0  0  0  0  0  0  0  0  0
   23.1020   -0.7850   23.8280 C   0  0  0  0  0  0  0  0  0  0  0  0
   26.5640    6.5730   28.4770 C   0  0  0  0  0  0  0  0  0  0  0  0
   20.9250   -1.5090   25.5670 N   0  0  0  0  0  0  0  0  0  0  0  0
   21.9060   -1.3190   23.3070 C   0  0  0  0  0  0  0  0  0  0  0  0
   20.8130   -1.6850   24.1210 C   0  0  0  0  0  0  0  0  0  0  0  0
  1  2  1  0
  2  3  1  0
  1  4  1  0
  4  5  2  0
  6  4  1  6
  6  7  1  0
  3  8  1  0
  6  9  1  0
  8 10  1  0
  8 11  2  0
  7 12  1  0
  9 13  2  0
  9 14  1  0
  7 15  1  0
 10 16  1  0
 12 17  1  0
 14 18  2  0
 13 19  1  0
 15 20  2  0
 15 21  1  0
 16 22  1  0
 18 23  1  0
 19 23  2  0
 20 24  1  0
 21 25  2  0
 17 26  1  0
 26 27  1  0
 22 28  1  0
 24 29  2  0
 25 29  1  0
 26 30  1  0
 26 31  1  0
 29 32  1  0
 27 33  2  0
 27 34  1  0
 28 35  1  0
 30 36  1  0
 31 37  1  0
 32 38  1  0
 32 39  1  0
 32 40  1  0
 35 41  1  0
 36 42  1  0
 37 42  1  0
 42 43  1  0
 41 44  1  0
 43 45  2  0
 43 46  2  0
 44 47  1  0
 43 48  1  0
 47 49  1  0
 48 50  2  0
 48 51  1  0
 50 52  1  0
 51 53  1  0
 49 54  1  0
 51 55  2  0
 50 56  1  0
 54 57  2  3
 55 58  1  0
 56 58  2  0
 57 59  1  0
 60 57  1  6
 60 61  1  0
 60 62  1  0
 61 63  1  0
 62 64  1  0
 63 64  1  0
 62 65  1  6
 63 66  1  0
 65 67  2  0
 65 68  1  0
 66 69  1  0
 67 70  1  0
 68 71  2  0
 69 72  2  0
 69 73  1  0
 70 74  2  0
 71 74  1  0
 72 75  1  0
 73 76  2  0
 75 77  2  0
 76 77  1  0
M  END
