x0752-x2608
     RDKit          3D

 32 35  0  0  0  0  0  0  0  0999 V2000
    7.1160   -4.2620   21.4790 N   0  0  0  0  0  0  0  0  0  0  0  0
    6.4540   -4.2270   20.2600 C   0  0  0  0  0  0  0  0  0  0  0  0
    7.1910   -3.3730   19.2460 C   0  0  0  0  0  0  0  0  0  0  0  0
    6.7670   -5.3270   22.4290 C   0  0  0  0  0  0  0  0  0  0  0  0
    7.6280   -2.9850   21.9610 C   0  0  0  0  0  0  0  0  0  0  0  0
    5.4260   -4.8430   19.9970 O   0  0  0  0  0  0  0  0  0  0  0  0
    6.6490   -1.9400   21.8910 C   0  0  0  0  0  0  0  0  0  0  0  0
    5.7340   -4.7810   23.2570 C   0  0  0  0  0  0  0  0  0  0  0  0
    7.0850   -0.8810   21.0140 N   0  0  0  0  0  0  0  0  0  0  0  0
    4.4520   -5.3240   23.2820 C   0  0  0  0  0  0  0  0  0  0  0  0
    6.0180   -3.6240   24.0770 C   0  0  0  0  0  0  0  0  0  0  0  0
    8.1710   -0.1580   21.6050 C   0  0  0  0  0  0  0  0  0  0  0  0
    3.4780   -4.7770   24.0500 C   0  0  0  0  0  0  0  0  0  0  0  0
    5.0440   -3.0260   24.8790 C   0  0  0  0  0  0  0  0  0  0  0  0
    6.2880   -0.1630   20.1780 C   0  0  0  0  0  0  0  0  0  0  0  0
    8.8220   -0.7900   22.6560 N   0  0  0  0  0  0  0  0  0  0  0  0
    8.4730    0.9570   21.1730 O   0  0  0  0  0  0  0  0  0  0  0  0
    3.7710   -3.5660   24.8890 C   0  0  0  0  0  0  0  0  0  0  0  0
    2.1900   -5.1590   24.2010 O   0  0  0  0  0  0  0  0  0  0  0  0
    6.7790   -0.1290   18.7710 C   0  0  0  0  0  0  0  0  0  0  0  0
    5.0090    0.6040   20.4830 C   0  0  0  0  0  0  0  0  0  0  0  0
    2.6230   -3.1660   25.5900 O   0  0  0  0  0  0  0  0  0  0  0  0
    1.7320   -4.2600   25.2330 C   0  0  0  0  0  0  0  0  0  0  0  0
   10.1750   -0.3810   22.8410 C   0  0  0  0  0  0  0  0  0  0  0  0
    6.0860    0.6070   17.7310 N   0  0  0  0  0  0  0  0  0  0  0  0
    4.3770    1.3190   19.3930 C   0  0  0  0  0  0  0  0  0  0  0  0
   11.2900   -1.1640   23.1620 C   0  0  0  0  0  0  0  0  0  0  0  0
   10.5020    1.3410   22.6220 S   0  0  0  0  0  0  0  0  0  0  0  0
    4.9680    1.2630   18.1310 C   0  0  0  0  0  0  0  0  0  0  0  0
   12.2280    1.1690   22.8920 C   0  0  0  0  0  0  0  0  0  0  0  0
   12.5150   -0.2710   23.1990 C   0  0  0  0  0  0  0  0  0  0  0  0
   12.9620    2.2470   22.7820 C   0  0  0  0  0  0  0  0  0  0  0  0
  1  2  1  0
  2  3  1  0
  1  4  1  0
  1  5  1  0
  2  6  2  0
  5  7  1  0
  4  8  1  0
  7  9  1  0
  8 10  2  0
  8 11  1  0
  9 12  1  0
 10 13  1  0
 11 14  2  0
  9 15  1  0
 12 16  1  0
 12 17  2  0
 13 18  2  0
 14 18  1  0
 13 19  1  0
 15 20  2  0
 15 21  1  0
 18 22  1  0
 19 23  1  0
 22 23  1  0
 16 24  1  0
 20 25  1  0
 21 26  2  0
 24 27  2  0
 24 28  1  0
 25 29  2  0
 26 29  1  0
 28 30  1  0
 27 31  1  0
 30 31  2  0
 30 32  1  0
M  END
