x0752-x3110
     RDKit          3D

 44 47  0  0  0  0  0  0  0  0999 V2000
    7.9060    1.6150   23.3980 N   0  0  0  0  0  0  0  0  0  0  0  0
    8.9050    2.5210   23.9680 C   0  0  0  0  0  0  0  0  0  0  0  0
   10.3510    2.1870   23.5960 C   0  0  0  0  0  0  0  0  0  0  0  0
    7.8560    1.3090   22.0500 C   0  0  0  0  0  0  0  0  0  0  0  0
    8.6850    1.9280   21.1580 O   0  0  0  0  0  0  0  0  0  0  0  0
    6.8200    0.2220   21.6610 C   0  0  2  0  0  0  0  0  0  0  0  0
    7.5770   -1.0230   21.7590 N   0  0  0  0  0  0  0  0  0  0  0  0
   11.1890    3.4250   23.4380 C   0  0  0  0  0  0  0  0  0  0  0  0
    6.2150    0.5530   20.3160 C   0  0  0  0  0  0  0  0  0  0  0  0
   12.0730    3.3190   22.4230 O   0  0  0  0  0  0  0  0  0  0  0  0
   11.0730    4.4170   24.1500 O   0  0  0  0  0  0  0  0  0  0  0  0
    6.8200   -2.1590   21.8870 C   0  0  0  0  0  0  0  0  0  0  0  0
    5.0780    1.3480   20.1940 C   0  0  0  0  0  0  0  0  0  0  0  0
    6.7760    0.0910   19.1550 C   0  0  0  0  0  0  0  0  0  0  0  0
    8.7110   -1.1990   22.4880 C   0  0  0  0  0  0  0  0  0  0  0  0
   12.4280    4.5200   21.9050 C   0  0  0  0  0  0  0  0  0  0  0  0
    7.5320   -3.3450   21.9740 C   0  0  0  0  0  0  0  0  0  0  0  0
    6.3200    0.3510   17.9130 N   0  0  0  0  0  0  0  0  0  0  0  0
    4.5810    1.6370   18.9390 C   0  0  0  0  0  0  0  0  0  0  0  0
    9.8400   -1.2640   21.7540 C   0  0  0  0  0  0  0  0  0  0  0  0
    8.8380   -1.3240   23.8620 C   0  0  0  0  0  0  0  0  0  0  0  0
   13.4030    5.1840   22.8440 C   0  0  0  0  0  0  0  0  0  0  0  0
    7.0830   -4.4760   21.4370 N   0  0  0  0  0  0  0  0  0  0  0  0
    5.2280    1.1250   17.8410 C   0  0  0  0  0  0  0  0  0  0  0  0
   11.0810   -1.4540   22.2690 C   0  0  0  0  0  0  0  0  0  0  0  0
   10.0970   -1.5060   24.4160 C   0  0  0  0  0  0  0  0  0  0  0  0
    6.4320   -4.2750   20.2580 C   0  0  0  0  0  0  0  0  0  0  0  0
    6.7030   -5.4920   22.4260 C   0  0  0  0  0  0  0  0  0  0  0  0
   11.2080   -1.5780   23.6220 C   0  0  0  0  0  0  0  0  0  0  0  0
   12.5630   -1.7630   24.2120 C   0  0  0  0  0  0  0  0  0  0  0  0
    7.1620   -3.3570   19.2830 C   0  0  0  0  0  0  0  0  0  0  0  0
    5.3760   -4.8160   19.9730 O   0  0  0  0  0  0  0  0  0  0  0  0
    5.6900   -4.8490   23.3100 C   0  0  0  0  0  0  0  0  0  0  0  0
   12.8430   -0.6860   24.9060 C   0  0  0  0  0  0  0  0  0  0  0  0
   13.5070   -1.9720   23.0400 C   0  0  0  0  0  0  0  0  0  0  0  0
   12.7760   -2.9860   25.0920 C   0  0  0  0  0  0  0  0  0  0  0  0
    4.3950   -5.3640   23.3180 C   0  0  0  0  0  0  0  0  0  0  0  0
    5.9920   -3.7290   24.1190 C   0  0  0  0  0  0  0  0  0  0  0  0
    3.4630   -4.7420   24.1120 C   0  0  0  0  0  0  0  0  0  0  0  0
    5.0340   -3.1150   24.9090 C   0  0  0  0  0  0  0  0  0  0  0  0
    3.7710   -3.6470   24.8790 C   0  0  0  0  0  0  0  0  0  0  0  0
    2.1670   -5.1090   24.2380 O   0  0  0  0  0  0  0  0  0  0  0  0
    2.7090   -3.1800   25.5740 O   0  0  0  0  0  0  0  0  0  0  0  0
    1.7380   -4.1970   25.2690 C   0  0  0  0  0  0  0  0  0  0  0  0
  1  2  1  0
  2  3  1  0
  1  4  1  0
  4  5  2  0
  6  4  1  6
  6  7  1  0
  3  8  1  0
  6  9  1  0
  8 10  1  0
  8 11  2  0
  7 12  1  0
  9 13  2  0
  9 14  1  0
  7 15  1  0
 10 16  1  0
 12 17  1  0
 14 18  2  0
 13 19  1  0
 15 20  2  0
 15 21  1  0
 16 22  1  0
 17 23  1  0
 18 24  1  0
 19 24  2  0
 20 25  1  0
 21 26  2  0
 23 27  1  0
 23 28  1  0
 25 29  2  0
 26 29  1  0
 29 30  1  0
 27 31  1  0
 27 32  2  0
 28 33  1  0
 30 34  1  0
 30 35  1  0
 30 36  1  0
 33 37  2  0
 33 38  1  0
 37 39  1  0
 38 40  2  0
 39 41  2  0
 40 41  1  0
 39 42  1  0
 41 43  1  0
 42 44  1  0
 43 44  1  0
M  END
