x0755-x2703
     RDKit          3D

 51 55  0  0  0  0  0  0  0  0999 V2000
    7.0760   -1.0900   21.7030 N   0  0  0  0  0  0  0  0  0  0  0  0
    6.5710    0.2770   21.6100 C   0  0  1  0  0  0  0  0  0  0  0  0
    7.6310    1.3520   21.9030 C   0  0  0  0  0  0  0  0  0  0  0  0
    5.9020   -1.9830   21.8250 C   0  0  0  0  0  0  0  0  0  0  0  0
    8.2950   -1.2600   22.5020 C   0  0  0  0  0  0  0  0  0  0  0  0
    6.0160    0.5180   20.4480 C   0  0  0  0  0  0  0  0  0  0  0  0
    8.3300   -0.9930   24.0140 C   0  0  0  0  0  0  0  0  0  0  0  0
    9.4150   -1.6470   21.8200 C   0  0  0  0  0  0  0  0  0  0  0  0
    5.9870   -2.9640   22.9790 C   0  0  0  0  0  0  0  0  0  0  0  0
    7.3880    2.2400   22.8920 N   0  0  0  0  0  0  0  0  0  0  0  0
    8.6830    1.5000   21.2550 O   0  0  0  0  0  0  0  0  0  0  0  0
    4.7170    1.2260   20.2500 C   0  0  0  0  0  0  0  0  0  0  0  0
    6.7830    0.0610   19.2250 C   0  0  0  0  0  0  0  0  0  0  0  0
   10.7200   -1.8100   22.4470 N   0  0  0  0  0  0  0  0  0  0  0  0
    9.6830   -1.1530   24.6640 C   0  0  0  0  0  0  0  0  0  0  0  0
    7.0280   -4.0950   22.8610 C   0  0  2  0  0  0  0  0  0  0  0  0
    6.2640    0.3320   17.8750 N   0  0  0  0  0  0  0  0  0  0  0  0
    4.3140    1.4310   18.8250 C   0  0  0  0  0  0  0  0  0  0  0  0
   10.7540   -1.5260   23.8790 C   0  0  0  0  0  0  0  0  0  0  0  0
    8.1200    3.4090   22.9740 C   0  0  0  0  0  0  0  0  0  0  0  0
    6.6900   -5.0250   21.7800 N   0  0  0  0  0  0  0  0  0  0  0  0
    7.0110   -4.7140   24.0770 C   0  0  0  0  0  0  0  0  0  0  0  0
   12.1750   -1.6560   24.4720 C   0  0  0  0  0  0  0  0  0  0  0  0
    5.0790    0.9980   17.7820 C   0  0  0  0  0  0  0  0  0  0  0  0
    9.3600    3.3350   23.5970 C   0  0  0  0  0  0  0  0  0  0  0  0
    7.5650    4.5730   22.4290 C   0  0  0  0  0  0  0  0  0  0  0  0
    6.3650   -4.5620   20.4990 C   0  0  0  0  0  0  0  0  0  0  0  0
    5.6280   -5.1630   24.3060 N   0  0  0  0  0  0  0  0  0  0  0  0
    5.9430   -6.2000   22.2520 C   0  0  0  0  0  0  0  0  0  0  0  0
    9.7820    1.9920   24.1320 C   0  0  0  0  0  0  0  0  0  0  0  0
    6.1980    4.5860   21.7590 C   0  0  0  0  0  0  0  0  0  0  0  0
   12.5430   -3.0030   24.7380 C   0  0  0  0  0  0  0  0  0  0  0  0
   13.0480   -0.7630   23.6870 C   0  0  0  0  0  0  0  0  0  0  0  0
   10.2640    4.5810   23.7380 C   0  0  0  0  0  0  0  0  0  0  0  0
    8.3510    5.8610   22.5090 C   0  0  0  0  0  0  0  0  0  0  0  0
    5.3660   -5.0240   19.9880 O   0  0  0  0  0  0  0  0  0  0  0  0
    7.2390   -3.5090   19.7910 C   0  0  0  0  0  0  0  0  0  0  0  0
    4.9670   -5.1880   25.8790 S   0  0  0  0  0  0  0  0  0  0  0  0
    5.0550   -5.8640   23.2880 C   0  0  0  0  0  0  0  0  0  0  0  0
   11.0780    1.6440   23.8190 C   0  0  0  0  0  0  0  0  0  0  0  0
    9.5920    5.8110   23.1220 C   0  0  0  0  0  0  0  0  0  0  0  0
    4.2820   -6.4490   26.0450 O   0  0  0  0  0  0  0  0  0  0  0  0
    6.0000   -4.7920   26.8160 O   0  0  0  0  0  0  0  0  0  0  0  0
    3.7860   -3.8890   25.8760 C   0  0  0  0  0  0  0  0  0  0  0  0
    2.4410   -4.1990   25.7290 C   0  0  0  0  0  0  0  0  0  0  0  0
    4.2580   -2.4310   26.0390 C   0  0  0  0  0  0  0  0  0  0  0  0
    2.0140   -5.4640   25.5850 F   0  0  0  0  0  0  0  0  0  0  0  0
    5.5290   -2.0410   26.1880 F   0  0  0  0  0  0  0  0  0  0  0  0
    3.2080   -1.4950   26.0230 C   0  0  0  0  0  0  0  0  0  0  0  0
    1.4880   -3.1710   25.7300 C   0  0  0  0  0  0  0  0  0  0  0  0
    1.8670   -1.8490   25.8750 C   0  0  0  0  0  0  0  0  0  0  0  0
  1  2  1  0
  2  3  1  6
  1  4  1  0
  1  5  1  0
  2  6  1  0
  5  7  2  0
  5  8  1  0
  4  9  1  0
  3 10  1  0
  3 11  2  0
  6 12  2  0
  6 13  1  0
  8 14  2  0
  7 15  1  0
 16  9  1  1
 13 17  2  0
 12 18  1  0
 14 19  1  0
 15 19  2  0
 10 20  1  0
 16 21  1  0
 16 22  1  0
 19 23  1  0
 17 24  1  0
 18 24  2  0
 20 25  2  0
 20 26  1  0
 21 27  1  0
 22 28  1  0
 21 29  1  0
 25 30  1  0
 26 31  1  0
 23 32  1  0
 23 33  1  0
 25 34  1  0
 26 35  2  0
 27 36  2  0
 27 37  1  0
 28 38  1  0
 28 39  1  0
 29 39  1  0
 30 40  1  0
 34 41  2  0
 35 41  1  0
 38 42  2  0
 38 43  2  0
 38 44  1  0
 44 45  2  0
 44 46  1  0
 45 47  1  0
 46 48  1  0
 46 49  2  0
 45 50  1  0
 49 51  1  0
 50 51  2  0
M  END
