x0755-x3113
     RDKit          3D

 48 51  0  0  0  0  0  0  0  0999 V2000
    7.0820   -1.0750   22.2560 N   0  0  0  0  0  0  0  0  0  0  0  0
    6.8660    0.3300   21.8420 C   0  0  1  0  0  0  0  0  0  0  0  0
    8.1110    1.2360   22.0350 C   0  0  0  0  0  0  0  0  0  0  0  0
    6.1310   -1.5780   22.9680 C   0  0  0  0  0  0  0  0  0  0  0  0
    8.4520   -1.3310   22.7200 C   0  0  0  0  0  0  0  0  0  0  0  0
    6.3480    0.4840   20.4410 C   0  0  0  0  0  0  0  0  0  0  0  0
    9.5740   -1.8420   21.7920 C   0  0  0  0  0  0  0  0  0  0  0  0
    8.9010   -1.1110   24.1470 C   0  0  0  0  0  0  0  0  0  0  0  0
    5.7570   -2.9940   22.5680 C   0  0  0  0  0  0  0  0  0  0  0  0
    8.4410    1.7420   23.2390 N   0  0  0  0  0  0  0  0  0  0  0  0
    8.8550    1.5990   21.1200 O   0  0  0  0  0  0  0  0  0  0  0  0
    5.0960    1.3300   20.2360 C   0  0  0  0  0  0  0  0  0  0  0  0
    6.9520   -0.0840   19.3320 C   0  0  0  0  0  0  0  0  0  0  0  0
   10.8620   -2.0160   22.3530 C   0  0  0  0  0  0  0  0  0  0  0  0
   10.1860   -1.3280   24.5440 C   0  0  0  0  0  0  0  0  0  0  0  0
    6.8750   -4.0480   22.7770 C   0  0  2  0  0  0  0  0  0  0  0  0
    9.4990    2.4970   23.6810 C   0  0  0  0  0  0  0  0  0  0  0  0
    6.4720    0.1020   18.0960 N   0  0  0  0  0  0  0  0  0  0  0  0
    4.5520    1.5580   19.0140 C   0  0  0  0  0  0  0  0  0  0  0  0
   11.1630   -1.7600   23.6840 C   0  0  0  0  0  0  0  0  0  0  0  0
    6.7270   -5.0770   21.7430 N   0  0  0  0  0  0  0  0  0  0  0  0
    6.9460   -4.5500   24.0540 C   0  0  0  0  0  0  0  0  0  0  0  0
   10.8070    2.1020   23.3920 C   0  0  0  0  0  0  0  0  0  0  0  0
   12.5910   -1.9490   24.1150 C   0  0  0  0  0  0  0  0  0  0  0  0
    5.2740    0.9170   17.8770 C   0  0  0  0  0  0  0  0  0  0  0  0
    6.3240   -4.6270   20.5090 C   0  0  0  0  0  0  0  0  0  0  0  0
    5.7250   -5.3110   24.4060 N   0  0  0  0  0  0  0  0  0  0  0  0
    5.8500   -6.1950   22.2010 C   0  0  0  0  0  0  0  0  0  0  0  0
   11.7320    3.1450   23.2950 C   0  0  0  0  0  0  0  0  0  0  0  0
   13.3510   -2.0980   22.9760 C   0  0  0  0  0  0  0  0  0  0  0  0
   12.7880   -3.0640   25.0900 C   0  0  0  0  0  0  0  0  0  0  0  0
   12.8310   -0.7060   24.9480 C   0  0  0  0  0  0  0  0  0  0  0  0
    5.3330   -5.0760   19.9820 O   0  0  0  0  0  0  0  0  0  0  0  0
    7.1730   -3.5300   19.8380 C   0  0  0  0  0  0  0  0  0  0  0  0
    5.0380   -5.2170   25.9530 S   0  0  0  0  0  0  0  0  0  0  0  0
    4.9670   -5.8370   23.2340 C   0  0  0  0  0  0  0  0  0  0  0  0
   11.7860    3.8700   22.3130 O   0  0  0  0  0  0  0  0  0  0  0  0
    4.3270   -6.4660   26.1680 O   0  0  0  0  0  0  0  0  0  0  0  0
    6.0720   -4.7870   26.8590 O   0  0  0  0  0  0  0  0  0  0  0  0
    3.8330   -3.9520   25.8970 C   0  0  0  0  0  0  0  0  0  0  0  0
   12.9430    4.7070   22.4000 C   0  0  0  0  0  0  0  0  0  0  0  0
    2.4690   -4.1910   25.7370 C   0  0  0  0  0  0  0  0  0  0  0  0
    4.2110   -2.4950   26.0300 C   0  0  0  0  0  0  0  0  0  0  0  0
    2.0030   -5.4400   25.6080 F   0  0  0  0  0  0  0  0  0  0  0  0
    5.4900   -2.1280   26.1910 F   0  0  0  0  0  0  0  0  0  0  0  0
    3.2510   -1.4930   25.9950 C   0  0  0  0  0  0  0  0  0  0  0  0
    1.5290   -3.1590   25.7070 C   0  0  0  0  0  0  0  0  0  0  0  0
    1.9130   -1.8220   25.8370 C   0  0  0  0  0  0  0  0  0  0  0  0
  1  2  1  0
  2  3  1  6
  1  4  1  0
  1  5  1  0
  2  6  1  0
  5  7  2  0
  5  8  1  0
  4  9  1  0
  3 10  1  0
  3 11  2  0
  6 12  2  0
  6 13  1  0
  7 14  1  0
  8 15  2  0
 16  9  1  1
 10 17  1  0
 13 18  2  0
 12 19  1  0
 14 20  2  0
 15 20  1  0
 16 21  1  0
 16 22  1  0
 17 23  1  0
 20 24  1  0
 18 25  1  0
 19 25  2  0
 21 26  1  0
 22 27  1  0
 21 28  1  0
 23 29  1  0
 24 30  1  0
 24 31  1  0
 24 32  1  0
 26 33  2  0
 26 34  1  0
 27 35  1  0
 27 36  1  0
 28 36  1  0
 29 37  1  0
 35 38  2  0
 35 39  2  0
 35 40  1  0
 37 41  1  0
 40 42  2  0
 40 43  1  0
 42 44  1  0
 43 45  1  0
 43 46  2  0
 42 47  1  0
 46 48  1  0
 47 48  2  0
M  END
