x0755-x3108
     RDKit          3D

 42 46  0  0  0  0  0  0  0  0999 V2000
    4.1650   -7.1140   26.6800 O   0  0  0  0  0  0  0  0  0  0  0  0
    5.0380   -5.0570   25.7170 S   0  0  2  0  0  0  0  0  0  0  0  0
    6.2990   -4.4450   26.6540 N   0  0  0  0  0  0  0  0  0  0  0  0
    3.9070   -3.8350   25.7720 C   0  0  0  0  0  0  0  0  0  0  0  0
    5.6470   -5.2950   24.1600 N   0  0  0  0  0  0  0  0  0  0  0  0
    2.5490   -4.0590   25.6130 C   0  0  0  0  0  0  0  0  0  0  0  0
    4.4210   -2.4290   26.0280 C   0  0  0  0  0  0  0  0  0  0  0  0
    6.6170   -4.3720   23.6170 C   0  0  0  0  0  0  0  0  0  0  0  0
    4.9240   -5.9440   23.2380 C   0  0  0  0  0  0  0  0  0  0  0  0
    7.6360   -4.3170   26.1010 C   0  0  0  0  0  0  0  0  0  0  0  0
    2.1050   -5.3070   25.3960 F   0  0  0  0  0  0  0  0  0  0  0  0
    5.6440   -2.2020   26.1850 O   0  0  0  0  0  0  0  0  0  0  0  0
    3.3030   -1.3730   26.0770 C   0  0  0  0  0  0  0  0  0  0  0  0
    1.5320   -2.9830   25.6760 C   0  0  0  0  0  0  0  0  0  0  0  0
    7.3510   -5.0130   22.6400 C   0  0  0  0  0  0  0  0  0  0  0  0
    5.6440   -6.2350   22.0460 C   0  0  0  0  0  0  0  0  0  0  0  0
    8.1840   -3.2750   25.2900 C   0  0  0  0  0  0  0  0  0  0  0  0
    8.5530   -5.4590   26.4120 C   0  0  0  0  0  0  0  0  0  0  0  0
    7.5010   -1.9260   24.7400 C   0  0  1  0  0  0  0  0  0  0  0  0
    6.2300   -1.4310   25.1510 C   0  0  0  0  0  0  0  0  0  0  0  0
    1.9630   -1.6850   25.9060 C   0  0  0  0  0  0  0  0  0  0  0  0
    6.6190   -5.4040   21.5860 N   0  0  0  0  0  0  0  0  0  0  0  0
    9.5320   -3.4620   24.8780 C   0  0  0  0  0  0  0  0  0  0  0  0
    9.8270   -5.4770   25.9270 C   0  0  0  0  0  0  0  0  0  0  0  0
    6.3040   -4.5840   20.5020 C   0  0  0  0  0  0  0  0  0  0  0  0
    8.4530   -0.9030   24.6410 C   0  0  0  0  0  0  0  0  0  0  0  0
   10.3290   -4.5070   25.1760 N   0  0  0  0  0  0  0  0  0  0  0  0
    5.2380   -4.6820   19.9280 O   0  0  0  0  0  0  0  0  0  0  0  0
    7.3360   -3.5320   20.0370 C   0  0  0  0  0  0  0  0  0  0  0  0
    8.4120    0.0630   25.3940 O   0  0  0  0  0  0  0  0  0  0  0  0
    9.3910   -0.9900   23.6420 N   0  0  0  0  0  0  0  0  0  0  0  0
   10.0560    0.1360   22.9610 C   0  0  0  0  0  0  0  0  0  0  0  0
    9.2150    0.7410   21.8670 C   0  0  0  0  0  0  0  0  0  0  0  0
    9.3540    1.8950   21.4430 O   0  0  0  0  0  0  0  0  0  0  0  0
    8.1500   -0.1120   21.2740 N   0  0  0  0  0  0  0  0  0  0  0  0
    7.1810    0.1960   20.2010 C   0  0  0  0  0  0  0  0  0  0  0  0
    7.1270   -0.2520   18.8790 C   0  0  0  0  0  0  0  0  0  0  0  0
    6.1250    1.1770   20.7430 C   0  0  0  0  0  0  0  0  0  0  0  0
    6.0240    1.7640   22.1380 C   0  0  0  0  0  0  0  0  0  0  0  0
    6.2510    0.0510   17.9050 N   0  0  0  0  0  0  0  0  0  0  0  0
    5.1490    1.4960   19.6300 C   0  0  0  0  0  0  0  0  0  0  0  0
    5.2570    0.9200   18.2630 C   0  0  0  0  0  0  0  0  0  0  0  0
  1  2  2  0
  2  3  2  0
  2  4  1  0
  2  5  1  6
  4  6  2  0
  4  7  1  0
  5  8  1  0
  5  9  1  0
  3 10  1  0
  6 11  1  0
  7 12  1  0
  7 13  2  0
  6 14  1  0
  8 15  1  0
  9 16  1  0
 10 17  2  0
 10 18  1  0
 17 19  1  0
 12 20  1  0
 19 20  1  0
 13 21  1  0
 14 21  2  0
 15 22  1  0
 16 22  1  0
 17 23  1  0
 18 24  2  0
 22 25  1  0
 19 26  1  1
 23 27  2  0
 24 27  1  0
 25 28  2  0
 25 29  1  0
 26 30  2  0
 26 31  1  0
 31 32  1  0
 32 33  1  0
 33 34  2  0
 33 35  1  0
 35 36  1  0
 36 37  2  0
 36 38  1  0
 38 39  1  0
 37 40  1  0
 38 41  2  0
 40 42  2  0
 41 42  1  0
M  END
