x0755-x0540-x3113-x3124
     RDKit          3D

 60 64  0  0  0  0  0  0  0  0999 V2000
    7.1750   -1.1950   22.2340 N   0  0  0  0  0  0  0  0  0  0  0  0
    6.9820    0.0950   21.8620 C   0  0  1  0  0  0  0  0  0  0  0  0
    8.1730    1.0130   22.0180 C   0  0  0  0  0  0  0  0  0  0  0  0
    6.2500   -1.7080   23.1580 C   0  0  0  0  0  0  0  0  0  0  0  0
    8.5450   -1.4390   22.7240 C   0  0  0  0  0  0  0  0  0  0  0  0
    6.3620    0.3330   20.5100 C   0  0  0  0  0  0  0  0  0  0  0  0
    9.6020   -2.0090   21.8020 C   0  0  0  0  0  0  0  0  0  0  0  0
    8.8890   -1.1090   24.1240 C   0  0  0  0  0  0  0  0  0  0  0  0
    5.7530   -3.0730   22.7120 C   0  0  0  0  0  0  0  0  0  0  0  0
    8.4130    1.5020   23.2870 N   0  0  0  0  0  0  0  0  0  0  0  0
    8.8620    1.3420   21.0520 O   0  0  0  0  0  0  0  0  0  0  0  0
    5.1880    0.9420   20.4770 C   0  0  0  0  0  0  0  0  0  0  0  0
    6.9950   -0.0570   19.1620 C   0  0  0  0  0  0  0  0  0  0  0  0
   10.8320   -2.1730   22.2880 C   0  0  0  0  0  0  0  0  0  0  0  0
   10.2450   -1.3050   24.6220 C   0  0  0  0  0  0  0  0  0  0  0  0
    6.8540   -4.1680   22.6940 C   0  0  2  0  0  0  0  0  0  0  0  0
    9.3320    2.4970   23.5530 C   0  0  0  0  0  0  0  0  0  0  0  0
    4.4540    1.3430   21.7520 C   0  0  0  0  0  0  0  0  0  0  0  0
    6.4040    0.2330   17.8460 N   0  0  0  0  0  0  0  0  0  0  0  0
    4.5260    1.2670   19.1660 C   0  0  0  0  0  0  0  0  0  0  0  0
   11.3150   -1.8660   23.6640 C   0  0  0  0  0  0  0  0  0  0  0  0
    6.6040   -5.0560   21.7100 N   0  0  0  0  0  0  0  0  0  0  0  0
    6.9860   -4.6630   23.9820 C   0  0  0  0  0  0  0  0  0  0  0  0
   10.7700    2.0660   23.3510 C   0  0  0  0  0  0  0  0  0  0  0  0
   12.6860   -2.0180   24.1790 C   0  0  0  0  0  0  0  0  0  0  0  0
    4.9340    2.4800   22.3600 C   0  0  0  0  0  0  0  0  0  0  0  0
    5.1300    0.9280   17.8290 C   0  0  0  0  0  0  0  0  0  0  0  0
    6.3090   -4.4950   20.4740 C   0  0  0  0  0  0  0  0  0  0  0  0
    5.7440   -5.3340   24.3910 N   0  0  0  0  0  0  0  0  0  0  0  0
    5.8300   -6.2010   22.2350 C   0  0  0  0  0  0  0  0  0  0  0  0
   11.7150    3.0760   23.2740 C   0  0  0  0  0  0  0  0  0  0  0  0
   13.5050   -2.0470   23.1350 C   0  0  0  0  0  0  0  0  0  0  0  0
   12.8630   -3.0980   25.1740 C   0  0  0  0  0  0  0  0  0  0  0  0
   12.9420   -0.8520   24.7630 C   0  0  0  0  0  0  0  0  0  0  0  0
    4.0680    3.2650   23.0340 N   0  0  0  0  0  0  0  0  0  0  0  0
    5.2700   -4.8150   19.9360 O   0  0  0  0  0  0  0  0  0  0  0  0
    7.2300   -3.4610   19.7770 C   0  0  0  0  0  0  0  0  0  0  0  0
    5.0480   -5.1930   25.9460 S   0  0  0  0  0  0  0  0  0  0  0  0
    4.9420   -5.9120   23.2650 C   0  0  0  0  0  0  0  0  0  0  0  0
   11.7940    3.8410   22.3290 O   0  0  0  0  0  0  0  0  0  0  0  0
    3.0020    2.6510   23.5820 C   0  0  0  0  0  0  0  0  0  0  0  0
    4.3670   -6.4420   26.1870 O   0  0  0  0  0  0  0  0  0  0  0  0
    6.1010   -4.7870   26.8420 O   0  0  0  0  0  0  0  0  0  0  0  0
    3.8360   -3.9300   25.9240 C   0  0  0  0  0  0  0  0  0  0  0  0
   12.9180    4.7080   22.4190 C   0  0  0  0  0  0  0  0  0  0  0  0
    3.0530    1.7370   24.3990 O   0  0  0  0  0  0  0  0  0  0  0  0
    1.7450    3.2430   23.0640 N   0  0  0  0  0  0  0  0  0  0  0  0
    2.5310   -4.2810   25.7730 C   0  0  0  0  0  0  0  0  0  0  0  0
    4.2300   -2.5880   26.0740 C   0  0  0  0  0  0  0  0  0  0  0  0
    0.5590    3.3250   23.9030 C   0  0  0  0  0  0  0  0  0  0  0  0
    2.1140   -5.5430   25.6270 F   0  0  0  0  0  0  0  0  0  0  0  0
    5.5160   -2.2500   26.2240 F   0  0  0  0  0  0  0  0  0  0  0  0
    3.3110   -1.5450   26.0810 C   0  0  0  0  0  0  0  0  0  0  0  0
    1.4290   -3.0750   25.7790 C   0  0  0  0  0  0  0  0  0  0  0  0
    0.5720    4.5410   24.5940 C   0  0  0  0  0  0  0  0  0  0  0  0
   -0.5070    3.1210   23.1050 C   0  0  0  0  0  0  0  0  0  0  0  0
    1.7940   -1.7640   25.9290 C   0  0  0  0  0  0  0  0  0  0  0  0
   -0.7760    5.0860   25.0830 C   0  0  0  0  0  0  0  0  0  0  0  0
   -1.6760    3.1510   23.7770 C   0  0  0  0  0  0  0  0  0  0  0  0
   -1.9920    4.5160   24.3330 C   0  0  0  0  0  0  0  0  0  0  0  0
  1  2  1  0
  2  3  1  6
  1  4  1  0
  1  5  1  0
  2  6  1  0
  5  7  2  0
  5  8  1  0
  4  9  1  0
  3 10  1  0
  3 11  2  0
  6 12  1  0
  6 13  2  0
  7 14  1  0
  8 15  2  0
 16  9  1  1
 10 17  1  0
 12 18  1  0
 13 19  1  0
 12 20  2  0
 14 21  2  0
 15 21  1  0
 16 22  1  0
 16 23  1  0
 17 24  1  0
 21 25  1  0
 18 26  1  0
 19 27  2  0
 20 27  1  0
 22 28  1  0
 23 29  1  0
 22 30  1  0
 24 31  1  0
 25 32  1  0
 25 33  1  0
 25 34  1  0
 26 35  1  0
 28 36  2  0
 28 37  1  0
 29 38  1  0
 29 39  1  0
 30 39  1  0
 31 40  1  0
 35 41  1  0
 38 42  2  0
 38 43  2  0
 38 44  1  0
 40 45  1  0
 41 46  2  0
 41 47  1  0
 44 48  2  0
 44 49  1  0
 47 50  1  0
 48 51  1  0
 49 52  1  0
 49 53  2  0
 48 54  1  0
 50 55  1  0
 50 56  1  0
 53 57  1  0
 54 57  2  0
 55 58  1  0
 56 59  1  0
 58 60  1  0
 59 60  1  0
M  END
