x0755-x3110-x3113-x0946
     RDKit          3D

 56 60  0  0  0  0  0  0  0  0999 V2000
    8.0250    1.4280   23.3160 N   0  0  0  0  0  0  0  0  0  0  0  0
    8.6700    2.5620   23.7210 C   0  0  0  0  0  0  0  0  0  0  0  0
   10.1630    2.4940   23.4500 C   0  0  0  0  0  0  0  0  0  0  0  0
    7.8480    1.0570   21.9860 C   0  0  0  0  0  0  0  0  0  0  0  0
    8.5990    1.5360   21.1090 O   0  0  0  0  0  0  0  0  0  0  0  0
    6.7950    0.1680   21.7540 C   0  0  2  0  0  0  0  0  0  0  0  0
    7.0710   -0.9600   21.9060 N   0  0  0  0  0  0  0  0  0  0  0  0
    6.2580    0.5320   20.3400 C   0  0  0  0  0  0  0  0  0  0  0  0
   11.0020    3.6380   23.3650 C   0  0  0  0  0  0  0  0  0  0  0  0
   10.7140    1.2350   23.2710 C   0  0  0  0  0  0  0  0  0  0  0  0
   10.3910    5.0620   23.5670 C   0  0  0  0  0  0  0  0  0  0  0  0
    5.9660   -1.9060   21.8770 C   0  0  0  0  0  0  0  0  0  0  0  0
    5.1870    1.4020   20.1990 C   0  0  0  0  0  0  0  0  0  0  0  0
    6.9070   -0.0610   19.1060 C   0  0  0  0  0  0  0  0  0  0  0  0
    8.3410   -1.2550   22.5010 C   0  0  0  0  0  0  0  0  0  0  0  0
   12.0610    1.1240   23.0020 C   0  0  0  0  0  0  0  0  0  0  0  0
   12.3750    3.5000   23.0970 C   0  0  0  0  0  0  0  0  0  0  0  0
   13.2400    4.7280   23.0300 C   0  0  0  0  0  0  0  0  0  0  0  0
    9.4090    5.2770   22.9810 N   0  0  0  0  0  0  0  0  0  0  0  0
   10.1750    5.3360   24.7430 O   0  0  0  0  0  0  0  0  0  0  0  0
   11.2780    6.0910   23.2230 O   0  0  0  0  0  0  0  0  0  0  0  0
    5.8640   -3.0470   22.6800 C   0  0  0  0  0  0  0  0  0  0  0  0
    6.3150    0.3740   17.8120 N   0  0  0  0  0  0  0  0  0  0  0  0
    4.6910    1.7560   18.9620 C   0  0  0  0  0  0  0  0  0  0  0  0
    9.4830   -1.2550   21.7060 C   0  0  0  0  0  0  0  0  0  0  0  0
    8.5310   -1.5290   23.8630 C   0  0  0  0  0  0  0  0  0  0  0  0
   12.8670    2.2120   22.9140 C   0  0  0  0  0  0  0  0  0  0  0  0
   13.1360    5.4030   21.6600 C   0  0  0  0  0  0  0  0  0  0  0  0
    5.2860    1.2230   17.8290 C   0  0  0  0  0  0  0  0  0  0  0  0
   10.9370   -1.5340   22.2650 C   0  0  0  0  0  0  0  0  0  0  0  0
    9.7950   -1.7680   24.3590 C   0  0  0  0  0  0  0  0  0  0  0  0
    6.3280   -4.4120   22.0550 C   0  0  0  0  0  0  0  0  0  0  0  0
    6.3300   -4.2860   20.5230 C   0  0  0  0  0  0  0  0  0  0  0  0
   10.9940   -1.7740   23.6320 C   0  0  0  0  0  0  0  0  0  0  0  0
    7.5350   -4.9110   22.8330 C   0  0  0  0  0  0  0  0  0  0  0  0
    5.2150   -5.4720   22.2730 C   0  0  0  0  0  0  0  0  0  0  0  0
   12.3130   -2.0280   24.3070 C   0  0  0  0  0  0  0  0  0  0  0  0
    5.4610   -4.9510   19.9880 O   0  0  0  0  0  0  0  0  0  0  0  0
    7.2940   -3.3810   19.7180 C   0  0  0  0  0  0  0  0  0  0  0  0
    7.3160   -5.0110   24.1620 C   0  0  0  0  0  0  0  0  0  0  0  0
    5.1490   -5.9470   23.5130 C   0  0  0  0  0  0  0  0  0  0  0  0
   12.7110   -0.9440   25.0880 C   0  0  0  0  0  0  0  0  0  0  0  0
   13.4040   -2.2780   23.2700 C   0  0  0  0  0  0  0  0  0  0  0  0
   12.1020   -3.2610   25.1760 C   0  0  0  0  0  0  0  0  0  0  0  0
    5.8350   -5.0560   24.3830 N   0  0  0  0  0  0  0  0  0  0  0  0
    5.2380   -5.1030   25.9700 S   0  0  0  0  0  0  0  0  0  0  0  0
    4.6020   -6.3840   26.1790 O   0  0  0  0  0  0  0  0  0  0  0  0
    6.2890   -4.6250   26.8380 O   0  0  0  0  0  0  0  0  0  0  0  0
    3.9450   -3.8680   25.9650 C   0  0  0  0  0  0  0  0  0  0  0  0
    2.5750   -4.2250   25.8520 C   0  0  0  0  0  0  0  0  0  0  0  0
    4.3060   -2.5170   26.0800 C   0  0  0  0  0  0  0  0  0  0  0  0
    2.1960   -5.5080   25.7370 F   0  0  0  0  0  0  0  0  0  0  0  0
    5.5690   -2.0990   26.1870 F   0  0  0  0  0  0  0  0  0  0  0  0
    3.1880   -1.4970   26.0850 C   0  0  0  0  0  0  0  0  0  0  0  0
    1.5780   -3.2400   25.8620 C   0  0  0  0  0  0  0  0  0  0  0  0
    1.8860   -1.8910   25.9820 C   0  0  0  0  0  0  0  0  0  0  0  0
  1  2  1  0
  2  3  1  0
  1  4  1  0
  4  5  2  0
  6  4  1  6
  6  7  1  0
  6  8  1  0
  3  9  2  0
  3 10  1  0
  9 11  1  0
  7 12  1  0
  8 13  2  0
  8 14  1  0
  7 15  1  0
 10 16  2  0
  9 17  1  0
 17 18  1  0
 11 19  1  0
 11 20  1  0
 11 21  1  0
 12 22  1  0
 14 23  2  0
 13 24  1  0
 15 25  2  0
 15 26  1  0
 16 27  1  0
 17 27  2  0
 18 28  1  0
 23 29  1  0
 24 29  2  0
 25 30  1  0
 26 31  2  0
 22 32  1  0
 32 33  1  0
 30 34  2  0
 31 34  1  0
 32 35  1  0
 32 36  1  0
 34 37  1  0
 33 38  2  0
 33 39  1  0
 35 40  1  0
 36 41  1  0
 37 42  1  0
 37 43  1  0
 37 44  1  0
 40 45  1  0
 41 45  1  0
 45 46  1  0
 46 47  2  0
 46 48  2  0
 46 49  1  0
 49 50  2  0
 49 51  1  0
 50 52  1  0
 51 53  1  0
 51 54  2  0
 50 55  1  0
 54 56  1  0
 55 56  2  0
M  END
