x0755-x0540-x2193-x2705
     RDKit          3D

 69 75  0  0  0  0  0  0  0  0999 V2000
    7.7070   -1.1360   21.8140 N   0  0  0  0  0  0  0  0  0  0  0  0
    7.0450    0.0700   21.6920 C   0  0  1  0  0  0  0  0  0  0  0  0
    8.0460    1.2400   21.7920 C   0  0  0  0  0  0  0  0  0  0  0  0
    8.8820   -1.3260   22.6420 C   0  0  0  0  0  0  0  0  0  0  0  0
    6.3480    0.2970   20.3680 C   0  0  0  0  0  0  0  0  0  0  0  0
    9.0770   -1.7100   23.9900 N   0  0  0  0  0  0  0  0  0  0  0  0
   10.2280   -1.0850   22.0370 C   0  0  0  0  0  0  0  0  0  0  0  0
    7.7120    2.1700   22.7740 N   0  0  0  0  0  0  0  0  0  0  0  0
    9.0160    1.3940   21.0780 O   0  0  0  0  0  0  0  0  0  0  0  0
    5.0200    0.9540   20.1980 C   0  0  0  0  0  0  0  0  0  0  0  0
    7.0020   -0.1180   19.2260 C   0  0  0  0  0  0  0  0  0  0  0  0
   10.3600   -1.7520   24.4020 N   0  0  0  0  0  0  0  0  0  0  0  0
   11.0980   -1.3760   23.2220 C   0  0  0  0  0  0  0  0  0  0  0  0
    8.1030   -2.0680   25.0010 C   0  0  0  0  0  0  0  0  0  0  0  0
   12.5470   -1.2910   23.2180 C   0  0  0  0  0  0  0  0  0  0  0  0
    4.0340    1.5130   21.2450 C   0  0  0  0  0  0  0  0  0  0  0  0
    6.4530    0.0870   17.8890 N   0  0  0  0  0  0  0  0  0  0  0  0
    4.4740    1.1620   18.9630 C   0  0  0  0  0  0  0  0  0  0  0  0
    8.3110    3.4340   22.9120 C   0  0  0  0  0  0  0  0  0  0  0  0
    8.4330   -3.4170   25.5570 N   0  0  0  0  0  0  0  0  0  0  0  0
   12.8510    0.1790   23.4180 C   0  0  0  0  0  0  0  0  0  0  0  0
   13.1230   -2.3000   24.1770 C   0  0  0  0  0  0  0  0  0  0  0  0
   12.9910   -1.7320   21.7800 C   0  0  0  0  0  0  0  0  0  0  0  0
    4.6870    1.6840   22.4390 C   0  0  0  0  0  0  0  0  0  0  0  0
    5.1610    0.7540   17.8400 C   0  0  0  0  0  0  0  0  0  0  0  0
    9.5850    3.4460   23.4740 C   0  0  0  0  0  0  0  0  0  0  0  0
    7.6810    4.6150   22.5090 C   0  0  0  0  0  0  0  0  0  0  0  0
    8.0580   -3.6330   26.9580 C   0  0  0  0  0  0  0  0  0  0  0  0
    9.6870   -4.1320   25.1970 C   0  0  0  0  0  0  0  0  0  0  0  0
   10.2400    2.1400   23.8880 C   0  0  0  0  0  0  0  0  0  0  0  0
    6.3040    4.6180   21.8920 C   0  0  0  0  0  0  0  0  0  0  0  0
    3.9940    2.6760   23.0700 N   0  0  0  0  0  0  0  0  0  0  0  0
   10.2850    4.6440   23.6610 C   0  0  0  0  0  0  0  0  0  0  0  0
    8.3670    5.9400   22.6760 C   0  0  0  0  0  0  0  0  0  0  0  0
    7.5330   -5.0010   26.9890 C   0  0  1  0  0  0  0  0  0  0  0  0
    9.7700   -5.4110   25.7970 C   0  0  0  0  0  0  0  0  0  0  0  0
    9.4090    1.2940   24.7280 C   0  0  0  0  0  0  0  0  0  0  0  0
    2.7440    2.4110   23.6870 C   0  0  0  0  0  0  0  0  0  0  0  0
    9.5860    5.9030   23.2220 C   0  0  0  0  0  0  0  0  0  0  0  0
    6.7250   -5.1380   25.7000 C   0  0  0  0  0  0  0  0  0  0  0  0
    8.7740   -5.8450   26.8880 N   0  0  0  0  0  0  0  0  0  0  0  0
    2.4730    1.5620   24.5360 O   0  0  0  0  0  0  0  0  0  0  0  0
    1.7440    3.1960   23.2750 N   0  0  0  0  0  0  0  0  0  0  0  0
    5.1360   -4.5790   25.2800 S   0  0  0  0  0  0  0  0  0  0  0  0
    7.5270   -5.8290   24.7470 C   0  0  0  0  0  0  0  0  0  0  0  0
    0.5320    3.3440   24.0680 C   0  0  0  0  0  0  0  0  0  0  0  0
    4.3190   -4.6950   24.1290 O   0  0  0  0  0  0  0  0  0  0  0  0
    3.8330   -3.6850   25.8980 C   0  0  0  0  0  0  0  0  0  0  0  0
    5.6350   -5.1620   23.8120 N   0  0  0  0  0  0  0  0  0  0  0  0
    0.4940    4.6140   24.6500 C   0  0  0  0  0  0  0  0  0  0  0  0
   -0.5770    3.0000   23.1890 C   0  0  0  0  0  0  0  0  0  0  0  0
    2.5290   -4.2000   25.9870 C   0  0  0  0  0  0  0  0  0  0  0  0
    4.0570   -2.2260   26.3300 C   0  0  0  0  0  0  0  0  0  0  0  0
    6.5480   -4.2110   23.1550 C   0  0  0  0  0  0  0  0  0  0  0  0
    4.7860   -5.7960   22.7870 C   0  0  0  0  0  0  0  0  0  0  0  0
   -0.7750    5.0270   25.0570 C   0  0  0  0  0  0  0  0  0  0  0  0
   -1.7760    3.2660   23.6930 C   0  0  0  0  0  0  0  0  0  0  0  0
    2.2820   -5.4690   25.6200 F   0  0  0  0  0  0  0  0  0  0  0  0
    5.2530   -1.6320   26.2860 F   0  0  0  0  0  0  0  0  0  0  0  0
    2.9450   -1.5060   26.7700 C   0  0  0  0  0  0  0  0  0  0  0  0
    1.4750   -3.4120   26.4390 C   0  0  0  0  0  0  0  0  0  0  0  0
    7.4300   -4.8070   22.2740 C   0  0  0  0  0  0  0  0  0  0  0  0
    5.6770   -6.3170   21.6610 C   0  0  0  0  0  0  0  0  0  0  0  0
   -1.9180    4.5620   24.2080 C   0  0  0  0  0  0  0  0  0  0  0  0
    1.6770   -2.0870   26.8210 C   0  0  0  0  0  0  0  0  0  0  0  0
    6.6450   -5.3110   21.2090 N   0  0  0  0  0  0  0  0  0  0  0  0
    6.2380   -4.4220   20.2220 C   0  0  0  0  0  0  0  0  0  0  0  0
    5.1040   -4.4530   19.8170 O   0  0  0  0  0  0  0  0  0  0  0  0
    7.2940   -3.4500   19.6640 C   0  0  0  0  0  0  0  0  0  0  0  0
  2  1  1  6
  2  3  1  0
  1  4  1  0
  2  5  1  0
  4  6  1  0
  4  7  2  0
  3  8  1  0
  3  9  2  0
  5 10  1  0
  5 11  2  0
  6 12  1  0
  7 13  1  0
 12 13  2  0
  6 14  1  0
 13 15  1  0
 10 16  1  0
 11 17  1  0
 10 18  2  0
  8 19  1  0
 14 20  1  0
 15 21  1  0
 15 22  1  0
 15 23  1  0
 16 24  1  0
 17 25  2  0
 18 25  1  0
 19 26  2  0
 19 27  1  0
 20 28  1  0
 20 29  1  0
 26 30  1  0
 27 31  1  0
 24 32  1  0
 26 33  1  0
 27 34  2  0
 28 35  1  0
 29 36  1  0
 30 37  1  0
 32 38  1  0
 33 39  2  0
 34 39  1  0
 35 40  1  6
 35 41  1  0
 36 41  1  0
 38 42  2  0
 38 43  1  0
 40 44  2  0
 40 45  1  0
 43 46  1  0
 44 47  2  0
 44 48  1  0
 44 49  1  0
 46 50  1  0
 46 51  1  0
 48 52  2  0
 48 53  1  0
 49 54  1  0
 49 55  1  0
 50 56  1  0
 51 57  1  0
 52 58  1  0
 53 59  1  0
 53 60  2  0
 52 61  1  0
 54 62  1  0
 55 63  1  0
 56 64  1  0
 57 64  1  0
 60 65  1  0
 61 65  2  0
 62 66  1  0
 63 66  1  0
 66 67  1  0
 67 68  2  0
 67 69  1  0
M  END
