x0759-x2908
     RDKit          3D

 27 30  0  0  0  0  0  0  0  0999 V2000
    4.8340    1.1060   21.7790 C   0  0  0  0  0  0  0  0  0  0  0  0
    5.3390    0.9110   20.3410 C   0  0  0  0  0  0  0  0  0  0  0  0
    6.5520    0.0690   20.0500 C   0  0  0  0  0  0  0  0  0  0  0  0
    4.5650    1.6150   19.2090 C   0  0  0  0  0  0  0  0  0  0  0  0
    7.2480   -0.5470   21.1710 N   0  0  0  0  0  0  0  0  0  0  0  0
    6.9340   -0.0220   18.6040 C   0  0  0  0  0  0  0  0  0  0  0  0
    5.1800    1.3570   17.8140 C   0  0  0  0  0  0  0  0  0  0  0  0
    8.1320    0.0890   21.9900 C   0  0  0  0  0  0  0  0  0  0  0  0
    6.2560    0.6130   17.5100 N   0  0  0  0  0  0  0  0  0  0  0  0
    7.5380   -1.8950   21.4500 C   0  0  2  0  0  0  0  0  0  0  0  0
    8.7050    1.1650   21.8150 O   0  0  0  0  0  0  0  0  0  0  0  0
    8.4340   -0.5370   23.0940 N   0  0  0  0  0  0  0  0  0  0  0  0
    6.6050   -2.8950   21.2870 N   0  0  0  0  0  0  0  0  0  0  0  0
    7.8190   -1.8280   22.7880 C   0  0  2  0  0  0  0  0  0  0  0  0
    6.3380   -3.4310   20.0080 C   0  0  0  0  0  0  0  0  0  0  0  0
    9.8750   -0.5450   23.0280 C   0  0  0  0  0  0  0  0  0  0  0  0
    8.4760   -3.0050   23.2740 O   0  0  0  0  0  0  0  0  0  0  0  0
    6.3760   -3.7360   22.5050 C   0  0  0  0  0  0  0  0  0  0  0  0
    5.3890   -4.1950   19.7830 O   0  0  0  0  0  0  0  0  0  0  0  0
    7.3180   -3.0740   18.9110 C   0  0  0  0  0  0  0  0  0  0  0  0
   10.6880    0.4610   23.8560 C   0  0  0  0  0  0  0  0  0  0  0  0
   10.7540   -1.4520   22.1850 C   0  0  0  0  0  0  0  0  0  0  0  0
    7.4800   -3.9530   23.3550 C   0  0  0  0  0  0  0  0  0  0  0  0
   12.0820    0.5060   23.8070 C   0  0  0  0  0  0  0  0  0  0  0  0
   12.2700   -1.3570   22.1720 C   0  0  0  0  0  0  0  0  0  0  0  0
   13.2110   -2.3810   21.2070 Cl  0  0  0  0  0  0  0  0  0  0  0  0
   12.8210   -0.3690   22.9960 C   0  0  0  0  0  0  0  0  0  0  0  0
  1  2  1  0
  2  3  2  0
  2  4  1  0
  3  5  1  0
  3  6  1  0
  4  7  2  0
  5  8  1  0
  6  9  2  0
  7  9  1  0
 10  5  1  1
  8 11  2  0
  8 12  1  0
 10 13  1  0
 10 14  1  0
 12 14  1  0
 13 15  1  0
 12 16  1  0
 14 17  1  6
 13 18  1  0
 15 19  2  0
 15 20  1  0
 16 21  2  0
 16 22  1  0
 17 23  1  0
 18 23  1  0
 21 24  1  0
 22 25  2  0
 25 26  1  0
 24 27  2  0
 25 27  1  0
M  END
