x0769-x3115-x3117
     RDKit          3D

 48 52  0  0  0  0  0  0  0  0999 V2000
    7.1930   -1.4210   21.9960 N   0  0  0  0  0  0  0  0  0  0  0  0
    6.7460    0.0250   21.8370 C   0  0  1  0  0  0  0  0  0  0  0  0
    7.8390    1.1020   21.8480 C   0  0  0  0  0  0  0  0  0  0  0  0
    6.2440   -2.4610   22.4800 C   0  0  0  0  0  0  0  0  0  0  0  0
    8.4790   -1.5310   22.5930 C   0  0  0  0  0  0  0  0  0  0  0  0
    6.1070    0.4160   20.4660 C   0  0  0  0  0  0  0  0  0  0  0  0
    9.5360   -1.9650   21.8450 C   0  0  0  0  0  0  0  0  0  0  0  0
    8.6890   -1.1780   24.0550 C   0  0  0  0  0  0  0  0  0  0  0  0
    6.9850   -3.8650   22.6890 C   0  0  2  0  0  0  0  0  0  0  0  0
    7.6950    2.1630   22.8880 N   0  0  0  0  0  0  0  0  0  0  0  0
    8.7730    1.1560   21.0490 O   0  0  0  0  0  0  0  0  0  0  0  0
    4.9380    1.1830   20.3490 C   0  0  0  0  0  0  0  0  0  0  0  0
    6.8380   -0.0640   19.3430 C   0  0  0  0  0  0  0  0  0  0  0  0
   10.8030   -2.0840   22.3740 C   0  0  0  0  0  0  0  0  0  0  0  0
    9.9640   -1.3070   24.5450 C   0  0  0  0  0  0  0  0  0  0  0  0
    6.5580   -4.8530   21.6510 N   0  0  0  0  0  0  0  0  0  0  0  0
    6.7610   -4.3630   23.9880 C   0  0  0  0  0  0  0  0  0  0  0  0
    6.2650   -4.3140   20.4160 C   0  0  0  0  0  0  0  0  0  0  0  0
    6.3990    0.2370   18.0760 N   0  0  0  0  0  0  0  0  0  0  0  0
    4.4560    1.5100   19.0990 C   0  0  0  0  0  0  0  0  0  0  0  0
   11.1440   -1.7860   23.6860 C   0  0  0  0  0  0  0  0  0  0  0  0
    8.6220    3.2740   22.8260 C   0  0  2  0  0  0  0  0  0  0  0  0
    5.9640   -6.0980   22.1470 C   0  0  0  0  0  0  0  0  0  0  0  0
    5.4500   -5.0480   24.1810 N   0  0  0  0  0  0  0  0  0  0  0  0
   12.5240   -1.9030   24.1980 C   0  0  0  0  0  0  0  0  0  0  0  0
    5.2050   -4.5480   19.8740 O   0  0  0  0  0  0  0  0  0  0  0  0
    7.2910   -3.4030   19.7100 C   0  0  0  0  0  0  0  0  0  0  0  0
    4.7830   -5.1990   25.6870 S   0  0  0  0  0  0  0  0  0  0  0  0
    5.1950    1.0400   17.8680 C   0  0  0  0  0  0  0  0  0  0  0  0
    9.8970    3.0150   23.6420 C   0  0  0  0  0  0  0  0  0  0  0  0
    8.0660    4.5390   23.1640 C   0  0  2  0  0  0  0  0  0  0  0  0
    4.9160   -5.8060   23.0290 C   0  0  0  0  0  0  0  0  0  0  0  0
    7.2730    5.0870   22.0170 C   0  0  0  0  0  0  0  0  0  0  0  0
   13.4560   -1.7320   22.9950 C   0  0  0  0  0  0  0  0  0  0  0  0
   12.7510   -2.9850   25.0480 C   0  0  0  0  0  0  0  0  0  0  0  0
   12.6750   -0.6340   25.0190 C   0  0  0  0  0  0  0  0  0  0  0  0
    5.8090   -5.0710   26.7060 O   0  0  0  0  0  0  0  0  0  0  0  0
    3.9460   -6.3830   25.6950 O   0  0  0  0  0  0  0  0  0  0  0  0
   10.6950    4.1550   23.6920 C   0  0  0  0  0  0  0  0  0  0  0  0
    8.9190    5.5790   23.5760 C   0  0  0  0  0  0  0  0  0  0  0  0
    3.7010   -3.8140   25.8270 C   0  0  0  0  0  0  0  0  0  0  0  0
    9.9680    5.1850   24.3470 O   0  0  0  0  0  0  0  0  0  0  0  0
    4.2240   -2.5410   26.0880 C   0  0  0  0  0  0  0  0  0  0  0  0
    2.3340   -3.9740   25.6790 C   0  0  0  0  0  0  0  0  0  0  0  0
    5.5370   -2.3350   26.2410 F   0  0  0  0  0  0  0  0  0  0  0  0
    1.4720   -2.8840   25.7870 C   0  0  0  0  0  0  0  0  0  0  0  0
    3.3580   -1.4350   26.1970 C   0  0  0  0  0  0  0  0  0  0  0  0
    1.9820   -1.6110   26.0470 C   0  0  0  0  0  0  0  0  0  0  0  0
  1  2  1  0
  2  3  1  6
  1  4  1  0
  1  5  1  0
  2  6  1  0
  5  7  2  0
  5  8  1  0
  9  4  1  6
  3 10  1  0
  3 11  2  0
  6 12  2  0
  6 13  1  0
  7 14  1  0
  8 15  2  0
  9 16  1  0
  9 17  1  0
 16 18  1  0
 13 19  2  0
 12 20  1  0
 14 21  2  0
 15 21  1  0
 22 10  1  1
 16 23  1  0
 17 24  1  0
 21 25  1  0
 18 26  2  0
 18 27  1  0
 24 28  1  0
 19 29  1  0
 20 29  2  0
 22 30  1  0
 22 31  1  0
 23 32  1  0
 24 32  1  0
 31 33  1  6
 25 34  1  0
 25 35  1  0
 25 36  1  0
 28 37  2  0
 28 38  2  0
 30 39  1  0
 31 40  1  0
 28 41  1  0
 39 42  1  0
 40 42  1  0
 41 43  2  0
 41 44  1  0
 43 45  1  0
 44 46  2  0
 43 47  1  0
 46 48  1  0
 47 48  2  0
M  END
