x0769-x1249
     RDKit          3D

 38 41  0  0  0  0  0  0  0  0999 V2000
    5.9250   -4.9650   26.7620 O   0  0  0  0  0  0  0  0  0  0  0  0
    4.8700   -5.2180   25.8120 S   0  0  0  0  0  0  0  0  0  0  0  0
    4.0930   -6.4390   25.8580 O   0  0  0  0  0  0  0  0  0  0  0  0
    3.7160   -3.8620   25.9190 C   0  0  0  0  0  0  0  0  0  0  0  0
    5.5270   -5.2490   24.2540 N   0  0  0  0  0  0  0  0  0  0  0  0
    4.1390   -2.3860   25.9990 C   0  0  0  0  0  0  0  0  0  0  0  0
    2.3570   -4.1720   25.9420 C   0  0  0  0  0  0  0  0  0  0  0  0
    4.9280   -5.9450   23.2300 C   0  0  0  0  0  0  0  0  0  0  0  0
    6.1780   -4.0410   23.7270 C   0  0  0  0  0  0  0  0  0  0  0  0
    5.2800   -1.8870   25.9740 O   0  0  0  0  0  0  0  0  0  0  0  0
    1.3390   -3.0380   26.0600 C   0  0  0  0  0  0  0  0  0  0  0  0
    3.1320   -1.4150   26.1220 C   0  0  0  0  0  0  0  0  0  0  0  0
    5.7860   -6.2480   22.1950 C   0  0  0  0  0  0  0  0  0  0  0  0
    7.2650   -4.4060   22.9300 C   0  0  0  0  0  0  0  0  0  0  0  0
    5.6970   -1.1960   24.7280 C   0  0  0  0  0  0  0  0  0  0  0  0
    1.7710   -1.7060   26.1510 C   0  0  0  0  0  0  0  0  0  0  0  0
    6.6750   -5.1550   21.7640 N   0  0  0  0  0  0  0  0  0  0  0  0
    6.3340   -4.5060   20.5560 C   0  0  0  0  0  0  0  0  0  0  0  0
    5.4600    0.3170   24.7000 C   0  0  1  0  0  0  0  0  0  0  0  0
    5.2970   -4.7870   19.9720 O   0  0  0  0  0  0  0  0  0  0  0  0
    7.2620   -3.4610   19.9450 C   0  0  0  0  0  0  0  0  0  0  0  0
    6.3590    0.9030   23.7920 N   0  0  0  0  0  0  0  0  0  0  0  0
    4.0900    0.6590   24.5760 C   0  0  0  0  0  0  0  0  0  0  0  0
    7.6230    1.3120   24.1450 C   0  0  0  0  0  0  0  0  0  0  0  0
    3.7890    1.4650   23.4400 O   0  0  0  0  0  0  0  0  0  0  0  0
    5.8830    1.5890   22.7640 C   0  0  0  0  0  0  0  0  0  0  0  0
    8.1760    0.5920   24.8460 N   0  0  0  0  0  0  0  0  0  0  0  0
    8.1210    2.3570   23.7400 O   0  0  0  0  0  0  0  0  0  0  0  0
    4.6650    1.0990   22.3740 C   0  0  0  0  0  0  0  0  0  0  0  0
    9.5650    0.8670   25.2810 C   0  0  0  0  0  0  0  0  0  0  0  0
   10.6200    0.2140   24.2450 C   0  0  0  0  0  0  0  0  0  0  0  0
   11.8100    0.8320   23.7950 C   0  0  0  0  0  0  0  0  0  0  0  0
   10.2080   -1.0270   23.8520 C   0  0  0  0  0  0  0  0  0  0  0  0
   12.6440    0.1560   22.8920 C   0  0  0  0  0  0  0  0  0  0  0  0
   10.9580   -1.7400   22.9770 C   0  0  0  0  0  0  0  0  0  0  0  0
   12.2380   -1.1220   22.4710 C   0  0  0  0  0  0  0  0  0  0  0  0
   12.9580   -1.9150   21.5710 C   0  0  0  0  0  0  0  0  0  0  0  0
   13.4690   -2.8090   20.7410 N   0  0  0  0  0  0  0  0  0  0  0  0
  1  2  2  0
  2  3  2  0
  2  4  1  0
  2  5  1  0
  4  6  1  0
  4  7  2  0
  5  8  1  0
  5  9  1  0
  6 10  1  0
  7 11  1  0
  6 12  2  0
  8 13  1  0
  9 14  1  0
 10 15  1  0
 11 16  2  0
 12 16  1  0
 13 17  1  0
 14 17  1  0
 17 18  1  0
 19 15  1  6
 18 20  2  0
 18 21  1  0
 19 22  1  0
 19 23  1  0
 22 24  1  0
 23 25  1  0
 22 26  1  0
 24 27  1  0
 24 28  2  0
 25 29  1  0
 26 29  1  0
 27 30  1  0
 30 31  1  0
 31 32  2  0
 31 33  1  0
 32 34  1  0
 33 35  2  0
 34 36  2  0
 35 36  1  0
 36 37  1  0
 37 38  3  0
M  END
