x0769-x2562
     RDKit          3D

 43 47  0  0  0  0  0  0  0  0999 V2000
    5.8450   -5.0260   27.0410 O   0  0  0  0  0  0  0  0  0  0  0  0
    4.8900   -5.2670   25.9860 S   0  0  0  0  0  0  0  0  0  0  0  0
    4.1050   -6.4840   25.9290 O   0  0  0  0  0  0  0  0  0  0  0  0
    3.7440   -3.9070   25.9770 C   0  0  0  0  0  0  0  0  0  0  0  0
    5.6530   -5.0760   24.4520 N   0  0  0  0  0  0  0  0  0  0  0  0
    4.2700   -2.4910   26.1180 C   0  0  0  0  0  0  0  0  0  0  0  0
    2.3740   -4.1110   25.8400 C   0  0  0  0  0  0  0  0  0  0  0  0
    5.1960   -5.9490   23.3820 C   0  0  0  0  0  0  0  0  0  0  0  0
    7.0320   -4.6000   24.3270 C   0  0  0  0  0  0  0  0  0  0  0  0
    5.5800   -2.2420   26.2510 F   0  0  0  0  0  0  0  0  0  0  0  0
    1.4760   -2.8720   25.8460 C   0  0  0  0  0  0  0  0  0  0  0  0
    3.3770   -1.4010   26.1150 C   0  0  0  0  0  0  0  0  0  0  0  0
    4.8570   -5.0840   22.3700 C   0  0  0  0  0  0  0  0  0  0  0  0
    7.2400   -4.7040   22.7380 C   0  0  0  0  0  0  0  0  0  0  0  0
    1.9940   -1.5670   25.9830 C   0  0  0  0  0  0  0  0  0  0  0  0
    5.9290   -4.2920   21.9770 C   0  0  0  0  0  0  0  0  0  0  0  0
    6.1190   -4.4950   20.4720 C   0  0  0  0  0  0  0  0  0  0  0  0
    5.7060   -2.7670   22.1190 C   0  0  0  0  0  0  0  0  0  0  0  0
    5.6320   -5.4970   20.0050 O   0  0  0  0  0  0  0  0  0  0  0  0
    6.8450   -3.4860   19.5780 C   0  0  0  0  0  0  0  0  0  0  0  0
    7.0560   -1.9420   22.0830 C   0  0  0  0  0  0  0  0  0  0  0  0
    7.0600   -0.4840   21.5630 C   0  0  1  0  0  0  0  0  0  0  0  0
    8.4310    0.0590   21.4640 C   0  0  0  0  0  0  0  0  0  0  0  0
    6.3270    0.0440   20.2930 C   0  0  0  0  0  0  0  0  0  0  0  0
    8.6020    1.2560   21.1600 O   0  0  0  0  0  0  0  0  0  0  0  0
    9.2620   -0.7160   21.6750 N   0  0  0  0  0  0  0  0  0  0  0  0
    6.8770   -0.2030   19.0150 C   0  0  0  0  0  0  0  0  0  0  0  0
    5.1660    0.7820   20.4000 C   0  0  0  0  0  0  0  0  0  0  0  0
    4.3890    1.3930   19.3050 N   0  0  0  0  0  0  0  0  0  0  0  0
    6.2340    0.3360   17.8120 N   0  0  0  0  0  0  0  0  0  0  0  0
   10.5350   -0.2770   22.1430 C   0  0  0  0  0  0  0  0  0  0  0  0
    5.0340    1.1050   18.0440 C   0  0  0  0  0  0  0  0  0  0  0  0
   11.6010   -1.1930   22.1700 C   0  0  0  0  0  0  0  0  0  0  0  0
   10.7500    1.0510   22.5480 C   0  0  0  0  0  0  0  0  0  0  0  0
   12.9970   -0.7120   22.6160 C   0  0  0  0  0  0  0  0  0  0  0  0
   11.9480    1.5620   22.9520 C   0  0  0  0  0  0  0  0  0  0  0  0
   12.0920    2.8800   23.3260 O   0  0  0  0  0  0  0  0  0  0  0  0
   13.1480    0.6220   22.9770 C   0  0  0  0  0  0  0  0  0  0  0  0
   13.0180    3.7830   22.6810 C   0  0  1  0  0  0  0  0  0  0  0  0
   12.4520    4.5850   21.7370 N   0  0  0  0  0  0  0  0  0  0  0  0
   13.3790    4.9190   23.4530 C   0  0  0  0  0  0  0  0  0  0  0  0
   12.6850    5.7780   22.6640 C   0  0  1  0  0  0  0  0  0  0  0  0
   13.4460    6.7700   22.1590 O   0  0  0  0  0  0  0  0  0  0  0  0
  1  2  2  0
  2  3  2  0
  2  4  1  0
  2  5  1  0
  4  6  2  0
  4  7  1  0
  5  8  1  0
  5  9  1  0
  6 10  1  0
  7 11  2  0
  6 12  1  0
  8 13  1  0
  9 14  1  0
 11 15  1  0
 12 15  2  0
 13 16  1  0
 14 16  1  0
 16 17  1  0
 16 18  1  0
 17 19  2  0
 17 20  1  0
 18 21  1  0
 22 21  1  6
 22 23  1  0
 22 24  1  0
 23 25  2  0
 23 26  1  0
 24 27  2  0
 24 28  1  0
 28 29  2  0
 27 30  1  0
 26 31  1  0
 29 32  1  0
 30 32  2  0
 31 33  2  0
 31 34  1  0
 33 35  1  0
 34 36  2  0
 36 37  1  0
 35 38  2  0
 36 38  1  0
 39 37  1  1
 39 40  1  0
 39 41  1  0
 40 42  1  0
 41 42  1  0
 42 43  1  6
M  END
