x0769-x0195
     RDKit          3D

 37 40  0  0  0  0  0  0  0  0999 V2000
    5.9140   -5.0580   26.6960 O   0  0  0  0  0  0  0  0  0  0  0  0
    4.8530   -5.3120   25.7500 S   0  0  0  0  0  0  0  0  0  0  0  0
    4.0400   -6.5050   25.8500 O   0  0  0  0  0  0  0  0  0  0  0  0
    3.7390   -3.9260   25.8440 C   0  0  0  0  0  0  0  0  0  0  0  0
    5.6310   -5.3030   24.2300 N   0  0  0  0  0  0  0  0  0  0  0  0
    4.2560   -2.5110   26.1180 C   0  0  0  0  0  0  0  0  0  0  0  0
    2.3650   -4.0970   25.6730 C   0  0  0  0  0  0  0  0  0  0  0  0
    4.9850   -5.8000   23.1400 C   0  0  0  0  0  0  0  0  0  0  0  0
    6.3970   -4.2380   23.8630 C   0  0  0  0  0  0  0  0  0  0  0  0
    5.4330   -2.1840   26.2930 O   0  0  0  0  0  0  0  0  0  0  0  0
    1.4450   -2.8870   25.7670 C   0  0  0  0  0  0  0  0  0  0  0  0
    3.3170   -1.4510   26.1870 C   0  0  0  0  0  0  0  0  0  0  0  0
    5.8490   -6.1750   22.1300 C   0  0  0  0  0  0  0  0  0  0  0  0
    7.3890   -4.4650   22.8850 C   0  0  0  0  0  0  0  0  0  0  0  0
    5.8530   -1.0100   25.5690 C   0  0  0  0  0  0  0  0  0  0  0  0
    1.9410   -1.6010   26.0210 C   0  0  0  0  0  0  0  0  0  0  0  0
    6.7620   -5.1100   21.7250 N   0  0  0  0  0  0  0  0  0  0  0  0
    6.4700   -4.4460   20.5170 C   0  0  0  0  0  0  0  0  0  0  0  0
    7.3390   -0.6630   25.8180 C   0  0  0  0  0  0  0  0  0  0  0  0
    5.4030   -4.7150   19.9720 O   0  0  0  0  0  0  0  0  0  0  0  0
    7.4200   -3.4230   19.8650 C   0  0  0  0  0  0  0  0  0  0  0  0
    8.4210   -1.0620   24.7500 C   0  0  0  0  0  0  0  0  0  0  0  0
    9.7820   -0.3630   25.0020 C   0  0  0  0  0  0  0  0  0  0  0  0
   10.5340   -0.3750   23.8360 N   0  0  0  0  0  0  0  0  0  0  0  0
   11.0720    0.8760   23.5710 C   0  0  0  0  0  0  0  0  0  0  0  0
   11.3000   -1.5070   23.5340 C   0  0  0  0  0  0  0  0  0  0  0  0
   12.3930    0.8940   23.1530 C   0  0  0  0  0  0  0  0  0  0  0  0
   12.5290   -1.4050   22.7980 C   0  0  0  0  0  0  0  0  0  0  0  0
   10.3710    2.1130   23.6980 C   0  0  0  0  0  0  0  0  0  0  0  0
   13.2130   -0.2280   22.9760 C   0  0  0  0  0  0  0  0  0  0  0  0
   13.0680    2.1020   22.8510 C   0  0  0  0  0  0  0  0  0  0  0  0
   10.9800    3.3510   23.4050 C   0  0  0  0  0  0  0  0  0  0  0  0
   10.1250    4.9130   23.5460 S   0  0  0  0  0  0  0  0  0  0  0  0
   12.4300    3.3290   22.9480 C   0  0  0  0  0  0  0  0  0  0  0  0
    9.8200    5.2620   24.9140 O   0  0  0  0  0  0  0  0  0  0  0  0
    9.0390    4.9470   22.6070 O   0  0  0  0  0  0  0  0  0  0  0  0
   11.2880    6.0300   23.0670 N   0  0  0  0  0  0  0  0  0  0  0  0
  1  2  2  0
  2  3  2  0
  2  4  1  0
  2  5  1  0
  4  6  1  0
  4  7  2  0
  5  8  1  0
  5  9  1  0
  6 10  1  0
  7 11  1  0
  6 12  2  0
  8 13  1  0
  9 14  1  0
 10 15  1  0
 11 16  2  0
 12 16  1  0
 13 17  1  0
 14 17  1  0
 17 18  1  0
 15 19  1  0
 18 20  2  0
 18 21  1  0
 19 22  1  0
 22 23  1  0
 23 24  1  0
 24 25  1  0
 24 26  1  0
 25 27  2  0
 26 28  1  0
 25 29  1  0
 27 30  1  0
 28 30  1  0
 27 31  1  0
 29 32  2  0
 32 33  1  0
 31 34  2  0
 32 34  1  0
 33 35  2  0
 33 36  2  0
 33 37  1  0
M  END
