x0769-x3080
     RDKit          3D

 46 50  0  0  0  0  0  0  0  0999 V2000
    9.6840   -0.3720   23.4630 N   0  0  0  0  0  0  0  0  0  0  0  0
   10.6450    0.7250   23.6860 C   0  0  0  0  0  0  0  0  0  0  0  0
    9.5750   -0.9600   22.2280 C   0  0  0  0  0  0  0  0  0  0  0  0
    8.7260   -0.7710   24.6130 S   0  0  2  0  0  0  0  0  0  0  0  0
    7.0940   -0.5820   24.1140 N   0  0  0  0  0  0  0  0  0  0  0  0
    8.6980   -0.0860   21.3730 C   0  0  0  0  0  0  0  0  0  0  0  0
    8.8620    0.2260   25.6550 O   0  0  0  0  0  0  0  0  0  0  0  0
    9.3770   -2.2690   25.2720 C   0  0  0  0  0  0  0  0  0  0  0  0
    9.0580    1.2280   21.1930 O   0  0  0  0  0  0  0  0  0  0  0  0
    7.5750   -0.6210   20.8430 N   0  0  0  0  0  0  0  0  0  0  0  0
    6.0640   -1.6620   24.2110 C   0  0  0  0  0  0  0  0  0  0  0  0
   10.7560   -2.4050   25.2840 C   0  0  0  0  0  0  0  0  0  0  0  0
    8.5220   -3.2500   25.7680 C   0  0  0  0  0  0  0  0  0  0  0  0
    5.7320   -2.2560   25.5160 O   0  0  0  0  0  0  0  0  0  0  0  0
    6.7170    0.0680   19.9180 C   0  0  0  0  0  0  0  0  0  0  0  0
   11.5830   -1.4490   24.7930 N   0  0  0  0  0  0  0  0  0  0  0  0
   11.2970   -3.6880   25.8950 C   0  0  0  0  0  0  0  0  0  0  0  0
    9.0340   -4.4100   26.3040 C   0  0  0  0  0  0  0  0  0  0  0  0
    5.5390    0.8700   20.4000 C   0  0  0  0  0  0  0  0  0  0  0  0
    6.9700    0.0040   18.5870 C   0  0  0  0  0  0  0  0  0  0  0  0
   12.6900   -3.8180   25.9480 C   0  0  0  0  0  0  0  0  0  0  0  0
   13.0220   -1.6310   24.8490 C   0  0  0  0  0  0  0  0  0  0  0  0
   10.3870   -4.6500   26.3800 C   0  0  0  0  0  0  0  0  0  0  0  0
    4.3670   -2.4410   25.6760 C   0  0  0  0  0  0  0  0  0  0  0  0
    5.1380    1.0180   21.8410 C   0  0  0  0  0  0  0  0  0  0  0  0
    6.2100    0.6550   17.5670 N   0  0  0  0  0  0  0  0  0  0  0  0
    4.7510    1.5510   19.3060 C   0  0  0  0  0  0  0  0  0  0  0  0
   13.4980   -2.7990   25.4280 C   0  0  0  0  0  0  0  0  0  0  0  0
    3.8620   -3.7630   25.8090 C   0  0  0  0  0  0  0  0  0  0  0  0
    3.4910   -1.3460   25.7090 C   0  0  0  0  0  0  0  0  0  0  0  0
    4.6870   -5.2750   25.8310 S   0  0  0  0  0  0  0  0  0  0  0  0
    5.1620    1.3840   17.9900 C   0  0  0  0  0  0  0  0  0  0  0  0
    2.4810   -3.9270   25.9580 C   0  0  0  0  0  0  0  0  0  0  0  0
    2.1100   -1.5480   25.8660 C   0  0  0  0  0  0  0  0  0  0  0  0
    5.7360   -5.1840   26.8350 O   0  0  0  0  0  0  0  0  0  0  0  0
    3.7600   -6.3730   26.0640 O   0  0  0  0  0  0  0  0  0  0  0  0
    1.6280   -2.8350   25.9840 C   0  0  0  0  0  0  0  0  0  0  0  0
    5.4340   -5.5420   24.3210 N   0  0  0  0  0  0  0  0  0  0  0  0
    4.6110   -5.7360   23.0700 C   0  0  0  0  0  0  0  0  0  0  0  0
    6.7530   -4.8570   24.1750 C   0  0  0  0  0  0  0  0  0  0  0  0
    5.4550   -6.2910   22.1060 C   0  0  0  0  0  0  0  0  0  0  0  0
    7.4240   -5.1490   22.9660 C   0  0  0  0  0  0  0  0  0  0  0  0
    6.4930   -5.3260   21.8470 N   0  0  0  0  0  0  0  0  0  0  0  0
    6.4480   -4.5600   20.6960 C   0  0  0  0  0  0  0  0  0  0  0  0
    5.4630   -4.6260   19.9520 O   0  0  0  0  0  0  0  0  0  0  0  0
    7.6430   -3.6520   20.4130 C   0  0  0  0  0  0  0  0  0  0  0  0
  1  2  1  0
  1  3  1  0
  4  1  1  6
  4  5  2  0
  3  6  1  0
  4  7  2  0
  4  8  1  0
  6  9  2  0
  6 10  1  0
  5 11  1  0
  8 12  1  0
  8 13  2  0
 11 14  1  0
 10 15  1  0
 12 16  2  0
 12 17  1  0
 13 18  1  0
 15 19  2  0
 15 20  1  0
 17 21  2  0
 16 22  1  0
 17 23  1  0
 18 23  2  0
 14 24  1  0
 19 25  1  0
 20 26  2  0
 19 27  1  0
 21 28  1  0
 22 28  2  0
 24 29  1  0
 24 30  2  0
 31 29  1  0
 26 32  1  0
 27 32  2  0
 29 33  2  0
 30 34  1  0
 31 35  2  0
 31 36  2  0
 33 37  1  0
 34 37  2  0
 31 38  1  0
 38 39  1  0
 38 40  1  0
 39 41  1  0
 40 42  1  0
 41 43  1  0
 42 43  1  0
 43 44  1  0
 44 45  2  0
 44 46  1  0
M  END
