x0769-x3303
     RDKit          3D

 45 51  0  0  0  0  0  0  0  0999 V2000
    5.6860   -5.2360   27.0600 O   0  0  0  0  0  0  0  0  0  0  0  0
    4.6590   -5.3780   26.0570 S   0  0  0  0  0  0  0  0  0  0  0  0
    3.7480   -6.5000   26.0500 O   0  0  0  0  0  0  0  0  0  0  0  0
    3.7250   -3.9320   26.0700 C   0  0  0  0  0  0  0  0  0  0  0  0
    5.3670   -5.3290   24.4920 N   0  0  0  0  0  0  0  0  0  0  0  0
    4.3000   -2.6740   26.2550 C   0  0  0  0  0  0  0  0  0  0  0  0
    2.3020   -3.7920   25.9080 C   0  0  0  0  0  0  0  0  0  0  0  0
    4.8780   -6.1810   23.4610 C   0  0  0  0  0  0  0  0  0  0  0  0
    6.6670   -5.0720   24.3010 C   0  0  0  0  0  0  0  0  0  0  0  0
    5.6120   -2.4690   26.4330 F   0  0  0  0  0  0  0  0  0  0  0  0
    1.4060   -3.0460   25.8670 C   0  0  0  0  0  0  0  0  0  0  0  0
    3.3150   -1.4940   26.2460 C   0  0  0  0  0  0  0  0  0  0  0  0
    5.1180   -5.6990   22.1940 C   0  0  0  0  0  0  0  0  0  0  0  0
    7.1060   -4.9750   22.9950 C   0  0  0  0  0  0  0  0  0  0  0  0
    1.8150   -1.7210   26.0430 C   0  0  0  0  0  0  0  0  0  0  0  0
    5.9900   -4.6370   22.2310 C   0  0  0  0  0  0  0  0  0  0  0  0
    6.4220   -4.2590   20.8220 C   0  0  0  0  0  0  0  0  0  0  0  0
    5.2900   -3.3560   22.7190 C   0  0  0  0  0  0  0  0  0  0  0  0
    5.5960   -4.3640   19.9030 O   0  0  0  0  0  0  0  0  0  0  0  0
    7.8670   -3.8110   20.6770 C   0  0  0  0  0  0  0  0  0  0  0  0
    5.0450   -2.2710   21.6510 N   0  0  0  0  0  0  0  0  0  0  0  0
    6.0890   -1.3710   21.1290 C   0  0  0  0  0  0  0  0  0  0  0  0
    8.3070   -2.4190   21.3650 C   0  0  2  0  0  0  0  0  0  0  0  0
    8.7570   -2.5370   22.8260 C   0  0  0  0  0  0  0  0  0  0  0  0
    7.4040   -1.3180   21.3910 N   0  0  0  0  0  0  0  0  0  0  0  0
    5.6440   -0.2770   20.2060 C   0  0  0  0  0  0  0  0  0  0  0  0
    8.0000    0.0050   21.4490 C   0  0  0  0  0  0  0  0  0  0  0  0
    9.5410   -1.3370   23.2120 N   0  0  0  0  0  0  0  0  0  0  0  0
    4.7400    0.7200   20.5810 C   0  0  0  0  0  0  0  0  0  0  0  0
    6.1440   -0.1790   18.9090 C   0  0  0  0  0  0  0  0  0  0  0  0
    9.2840   -0.1360   22.3900 C   0  0  0  0  0  0  0  0  0  0  0  0
    4.3580    1.7670   19.6400 C   0  0  0  0  0  0  0  0  0  0  0  0
    5.7180    0.8830   18.0960 C   0  0  0  0  0  0  0  0  0  0  0  0
   10.8610   -1.7140   23.3620 C   0  0  0  0  0  0  0  0  0  0  0  0
    4.1980    0.7310   21.8700 C   0  0  0  0  0  0  0  0  0  0  0  0
    6.1610    1.0620   16.8670 O   0  0  0  0  0  0  0  0  0  0  0  0
    4.8490    1.8320   18.4270 N   0  0  0  0  0  0  0  0  0  0  0  0
   11.6750   -1.8010   22.2440 C   0  0  0  0  0  0  0  0  0  0  0  0
   11.4080   -2.0280   24.6200 C   0  0  0  0  0  0  0  0  0  0  0  0
    3.2070    1.7970   22.3100 C   0  0  0  0  0  0  0  0  0  0  0  0
    3.4560    2.7720   19.9630 C   0  0  0  0  0  0  0  0  0  0  0  0
   13.1090   -2.2440   22.3900 C   0  0  0  0  0  0  0  0  0  0  0  0
   12.7200   -2.4470   24.8170 C   0  0  0  0  0  0  0  0  0  0  0  0
    2.8080    2.8600   21.3280 C   0  0  0  0  0  0  0  0  0  0  0  0
   13.6290   -2.5730   23.6150 C   0  0  0  0  0  0  0  0  0  0  0  0
  1  2  2  0
  2  3  2  0
  2  4  1  0
  2  5  1  0
  4  6  2  0
  4  7  1  0
  5  8  1  0
  5  9  1  0
  6 10  1  0
  7 11  2  0
  6 12  1  0
  8 13  1  0
  9 14  1  0
 11 15  1  0
 12 15  2  0
 13 16  1  0
 14 16  1  0
 16 17  1  0
 16 18  1  0
 17 19  2  0
 17 20  1  0
 18 21  1  0
 21 22  2  0
 23 20  1  1
 23 24  1  0
 22 25  1  0
 23 25  1  0
 22 26  1  0
 25 27  1  0
 24 28  1  0
 26 29  1  0
 26 30  2  0
 27 31  1  0
 28 31  1  0
 29 32  2  0
 30 33  1  0
 28 34  1  0
 29 35  1  0
 33 36  1  0
 32 37  1  0
 33 37  2  0
 34 38  2  0
 34 39  1  0
 35 40  2  0
 32 41  1  0
 38 42  1  0
 39 43  2  0
 40 44  1  0
 41 44  2  0
 42 45  2  0
 43 45  1  0
M  END
