x0769-x2581
     RDKit          3D

 43 47  0  0  0  0  0  0  0  0999 V2000
    5.9400   -4.9660   26.7780 O   0  0  0  0  0  0  0  0  0  0  0  0
    4.9650   -5.2380   25.7460 S   0  0  0  0  0  0  0  0  0  0  0  0
    4.2080   -6.4730   25.7670 O   0  0  0  0  0  0  0  0  0  0  0  0
    3.8360   -3.9510   25.7840 C   0  0  0  0  0  0  0  0  0  0  0  0
    5.9120   -5.2020   24.3070 N   0  0  0  0  0  0  0  0  0  0  0  0
    4.3320   -2.6970   26.0580 C   0  0  0  0  0  0  0  0  0  0  0  0
    2.3350   -4.1290   25.5450 C   0  0  0  0  0  0  0  0  0  0  0  0
    5.8800   -6.1690   23.3190 C   0  0  0  0  0  0  0  0  0  0  0  0
    6.7230   -4.1260   24.0900 C   0  0  1  0  0  0  0  0  0  0  0  0
    5.6440   -2.4710   26.2820 F   0  0  0  0  0  0  0  0  0  0  0  0
    8.2370   -4.4230   23.8930 C   0  0  0  0  0  0  0  0  0  0  0  0
    1.4710   -3.0240   25.6050 C   0  0  0  0  0  0  0  0  0  0  0  0
    3.4410   -1.6050   26.1100 C   0  0  0  0  0  0  0  0  0  0  0  0
    5.6080   -5.6550   22.0450 C   0  0  0  0  0  0  0  0  0  0  0  0
    6.2150   -3.5350   22.7390 C   0  0  0  0  0  0  0  0  0  0  0  0
    8.8520   -3.2460   23.2320 C   0  0  0  0  0  0  0  0  0  0  0  0
    2.0660   -1.7630   25.8940 C   0  0  0  0  0  0  0  0  0  0  0  0
    6.3100   -4.4580   21.6490 N   0  0  0  0  0  0  0  0  0  0  0  0
    6.1860   -4.0880   20.3300 C   0  0  0  0  0  0  0  0  0  0  0  0
   10.2430   -2.7800   23.4540 C   0  0  0  0  0  0  0  0  0  0  0  0
    5.1610   -4.4580   19.8110 O   0  0  0  0  0  0  0  0  0  0  0  0
    7.2410   -3.2450   19.5750 C   0  0  0  0  0  0  0  0  0  0  0  0
   10.2850   -1.5920   23.8230 O   0  0  0  0  0  0  0  0  0  0  0  0
    9.9120   -0.5070   23.0230 C   0  0  0  0  0  0  0  0  0  0  0  0
   10.5010    0.7500   23.0360 C   0  0  0  0  0  0  0  0  0  0  0  0
    8.8630   -0.5980   22.1180 C   0  0  0  0  0  0  0  0  0  0  0  0
   10.0550    1.9310   22.1980 C   0  0  0  0  0  0  0  0  0  0  0  0
    8.4240    0.4550   21.3150 C   0  0  0  0  0  0  0  0  0  0  0  0
   10.6400    3.1950   22.2280 N   0  0  0  0  0  0  0  0  0  0  0  0
    9.0140    1.8110   21.3210 N   0  0  0  0  0  0  0  0  0  0  0  0
   11.1200    4.0560   23.3520 C   0  0  0  0  0  0  0  0  0  0  0  0
   10.9450    3.8840   24.5360 O   0  0  0  0  0  0  0  0  0  0  0  0
   11.8310    5.2170   22.6400 C   0  0  0  0  0  0  0  0  0  0  0  0
   11.0450    6.3700   23.2380 C   0  0  0  0  0  0  0  0  0  0  0  0
    9.8060    6.7520   22.7500 C   0  0  0  0  0  0  0  0  0  0  0  0
   11.5250    7.1860   24.4170 C   0  0  0  0  0  0  0  0  0  0  0  0
    9.1250    7.8180   23.3560 C   0  0  0  0  0  0  0  0  0  0  0  0
   10.8540    8.2310   25.0040 C   0  0  0  0  0  0  0  0  0  0  0  0
    9.5920    8.5730   24.4550 C   0  0  0  0  0  0  0  0  0  0  0  0
   11.4350    8.9070   26.0970 C   0  0  0  0  0  0  0  0  0  0  0  0
    8.9400    9.6550   25.0740 C   0  0  0  0  0  0  0  0  0  0  0  0
   10.7990    9.9750   26.7110 C   0  0  0  0  0  0  0  0  0  0  0  0
    9.5640   10.3830   26.2420 C   0  0  0  0  0  0  0  0  0  0  0  0
  1  2  2  0
  2  3  2  0
  2  4  1  0
  2  5  1  0
  4  6  2  0
  4  7  1  0
  5  8  1  0
  5  9  1  0
  6 10  1  0
  9 11  1  6
  7 12  2  0
  6 13  1  0
  8 14  1  0
  9 15  1  0
 11 16  1  0
 12 17  1  0
 13 17  2  0
 14 18  1  0
 15 18  1  0
 18 19  1  0
 16 20  1  0
 19 21  2  0
 19 22  1  0
 20 23  1  0
 23 24  1  0
 24 25  2  0
 24 26  1  0
 25 27  1  0
 26 28  2  0
 27 29  1  0
 27 30  2  0
 28 30  1  0
 29 31  1  0
 31 32  2  0
 31 33  1  0
 33 34  1  0
 34 35  2  0
 34 36  1  0
 35 37  1  0
 36 38  2  0
 37 39  2  0
 38 39  1  0
 38 40  1  0
 39 41  1  0
 40 42  2  0
 41 43  2  0
 42 43  1  0
M  END
