x0769-x3113
     RDKit          3D

 46 49  0  0  0  0  0  0  0  0999 V2000
    7.2310   -1.3500   22.0580 N   0  0  0  0  0  0  0  0  0  0  0  0
    6.8960    0.0810   21.7290 C   0  0  1  0  0  0  0  0  0  0  0  0
    8.0240    1.0600   21.9760 C   0  0  0  0  0  0  0  0  0  0  0  0
    6.2770   -2.4340   22.5290 C   0  0  0  0  0  0  0  0  0  0  0  0
    8.5270   -1.5100   22.5680 C   0  0  0  0  0  0  0  0  0  0  0  0
    6.3550    0.3140   20.5200 C   0  0  0  0  0  0  0  0  0  0  0  0
    9.5500   -1.9080   21.7790 C   0  0  0  0  0  0  0  0  0  0  0  0
    8.8250   -1.2410   24.0220 C   0  0  0  0  0  0  0  0  0  0  0  0
    6.9560   -3.8550   22.7060 C   0  0  2  0  0  0  0  0  0  0  0  0
    8.2150    1.5400   23.2560 N   0  0  0  0  0  0  0  0  0  0  0  0
    8.7610    1.4950   21.0850 O   0  0  0  0  0  0  0  0  0  0  0  0
    5.2100    1.0750   20.3440 C   0  0  0  0  0  0  0  0  0  0  0  0
    7.0270   -0.2410   19.4180 C   0  0  0  0  0  0  0  0  0  0  0  0
   10.8740   -2.0710   22.2280 C   0  0  0  0  0  0  0  0  0  0  0  0
   10.1230   -1.4050   24.4380 C   0  0  0  0  0  0  0  0  0  0  0  0
    6.5980   -4.8150   21.6640 N   0  0  0  0  0  0  0  0  0  0  0  0
    6.6920   -4.4490   24.0980 C   0  0  0  0  0  0  0  0  0  0  0  0
    9.2960    2.4860   23.6090 C   0  0  0  0  0  0  0  0  0  0  0  0
    6.2290   -4.3400   20.4060 C   0  0  0  0  0  0  0  0  0  0  0  0
    6.4200    0.0670   18.0830 N   0  0  0  0  0  0  0  0  0  0  0  0
    4.7220    1.3050   19.1000 C   0  0  0  0  0  0  0  0  0  0  0  0
   11.1540   -1.8110   23.5700 C   0  0  0  0  0  0  0  0  0  0  0  0
    5.9710   -6.0640   22.1210 C   0  0  0  0  0  0  0  0  0  0  0  0
    5.3570   -5.1220   24.2450 N   0  0  0  0  0  0  0  0  0  0  0  0
   10.7100    1.9980   23.3590 C   0  0  0  0  0  0  0  0  0  0  0  0
   12.5800   -1.9480   24.0840 C   0  0  0  0  0  0  0  0  0  0  0  0
    5.1810   -4.6990   19.9150 O   0  0  0  0  0  0  0  0  0  0  0  0
    7.1670   -3.3950   19.6640 C   0  0  0  0  0  0  0  0  0  0  0  0
    4.6770   -5.2370   25.7950 S   0  0  0  0  0  0  0  0  0  0  0  0
    5.3090    0.8180   17.9700 C   0  0  0  0  0  0  0  0  0  0  0  0
    4.8460   -5.7580   23.1040 C   0  0  0  0  0  0  0  0  0  0  0  0
   11.7040    3.1760   23.2520 C   0  0  0  0  0  0  0  0  0  0  0  0
   13.3430   -2.0730   23.1760 C   0  0  0  0  0  0  0  0  0  0  0  0
   12.8820   -3.0300   25.1150 C   0  0  0  0  0  0  0  0  0  0  0  0
   12.8290   -0.6160   24.7820 C   0  0  0  0  0  0  0  0  0  0  0  0
    5.9900   -5.0230   27.0210 O   0  0  0  0  0  0  0  0  0  0  0  0
    3.8310   -6.4070   25.7860 O   0  0  0  0  0  0  0  0  0  0  0  0
    3.6200   -3.8300   25.8730 C   0  0  0  0  0  0  0  0  0  0  0  0
   11.8110    3.9400   22.3130 O   0  0  0  0  0  0  0  0  0  0  0  0
    4.1850   -2.5770   26.1100 C   0  0  0  0  0  0  0  0  0  0  0  0
    2.2390   -3.9840   25.7000 C   0  0  0  0  0  0  0  0  0  0  0  0
   13.0070    4.7090   22.4510 C   0  0  0  0  0  0  0  0  0  0  0  0
    5.5290   -2.4540   26.2760 F   0  0  0  0  0  0  0  0  0  0  0  0
    1.4050   -2.8910   25.7630 C   0  0  0  0  0  0  0  0  0  0  0  0
    3.3880   -1.4220   26.1860 C   0  0  0  0  0  0  0  0  0  0  0  0
    1.9980   -1.5100   26.0230 C   0  0  0  0  0  0  0  0  0  0  0  0
  1  2  1  0
  2  3  1  6
  1  4  1  0
  1  5  1  0
  2  6  1  0
  5  7  2  0
  5  8  1  0
  9  4  1  6
  3 10  1  0
  3 11  2  0
  6 12  2  0
  6 13  1  0
  7 14  1  0
  8 15  2  0
  9 16  1  0
  9 17  1  0
 10 18  1  0
 16 19  1  0
 13 20  2  0
 12 21  1  0
 14 22  2  0
 15 22  1  0
 16 23  1  0
 17 24  1  0
 18 25  1  0
 22 26  1  0
 19 27  2  0
 19 28  1  0
 24 29  1  0
 20 30  1  0
 21 30  2  0
 23 31  1  0
 24 31  1  0
 25 32  1  0
 26 33  1  0
 26 34  1  0
 26 35  1  0
 29 36  2  0
 29 37  2  0
 29 38  1  0
 32 39  1  0
 38 40  2  0
 38 41  1  0
 39 42  1  0
 40 43  1  0
 41 44  2  0
 40 45  1  0
 44 46  1  0
 45 46  2  0
M  END
