x0769-x3110
     RDKit          3D

 49 52  0  0  0  0  0  0  0  0999 V2000
    8.0890    1.4420   23.3270 N   0  0  0  0  0  0  0  0  0  0  0  0
    8.9750    2.5010   23.7760 C   0  0  0  0  0  0  0  0  0  0  0  0
   10.4390    2.1270   23.5960 C   0  0  0  0  0  0  0  0  0  0  0  0
    7.9490    1.0950   22.0040 C   0  0  0  0  0  0  0  0  0  0  0  0
    8.7140    1.5830   21.1490 O   0  0  0  0  0  0  0  0  0  0  0  0
    6.8270    0.1670   21.7410 C   0  0  2  0  0  0  0  0  0  0  0  0
    7.1470   -1.2760   22.0890 N   0  0  0  0  0  0  0  0  0  0  0  0
   11.1980    3.4020   23.4100 C   0  0  0  0  0  0  0  0  0  0  0  0
    6.2650    0.4690   20.3270 C   0  0  0  0  0  0  0  0  0  0  0  0
   12.0780    3.3000   22.3940 O   0  0  0  0  0  0  0  0  0  0  0  0
   11.0230    4.3940   24.0990 O   0  0  0  0  0  0  0  0  0  0  0  0
    6.2010   -1.9000   22.8630 C   0  0  0  0  0  0  0  0  0  0  0  0
    5.0480    1.3460   20.1610 C   0  0  0  0  0  0  0  0  0  0  0  0
    6.8170   -0.0030   19.1440 C   0  0  0  0  0  0  0  0  0  0  0  0
    8.4440   -1.4100   22.6280 C   0  0  0  0  0  0  0  0  0  0  0  0
   12.4980    4.5680   21.8800 C   0  0  0  0  0  0  0  0  0  0  0  0
    5.4680   -3.0110   22.3900 C   0  0  0  0  0  0  0  0  0  0  0  0
    6.3250    0.2990   17.9300 N   0  0  0  0  0  0  0  0  0  0  0  0
    4.5880    1.6210   18.8990 C   0  0  0  0  0  0  0  0  0  0  0  0
    9.4690   -1.9030   21.8300 C   0  0  0  0  0  0  0  0  0  0  0  0
    8.6710   -1.0390   23.9300 C   0  0  0  0  0  0  0  0  0  0  0  0
   13.4010    5.2100   22.9020 C   0  0  0  0  0  0  0  0  0  0  0  0
    5.2310    1.1000   17.7990 C   0  0  0  0  0  0  0  0  0  0  0  0
   10.7730   -2.0480   22.2720 C   0  0  0  0  0  0  0  0  0  0  0  0
    9.9310   -1.1390   24.4600 C   0  0  0  0  0  0  0  0  0  0  0  0
    6.2050   -4.3550   22.0170 C   0  0  0  0  0  0  0  0  0  0  0  0
    6.3850   -4.3450   20.5010 C   0  0  0  0  0  0  0  0  0  0  0  0
   11.0510   -1.6710   23.5890 C   0  0  0  0  0  0  0  0  0  0  0  0
    5.3710   -5.6360   22.1510 C   0  0  0  0  0  0  0  0  0  0  0  0
    7.4630   -4.5500   22.9110 C   0  0  0  0  0  0  0  0  0  0  0  0
   12.4590   -1.7670   24.1480 C   0  0  0  0  0  0  0  0  0  0  0  0
    5.6790   -5.1750   19.9800 O   0  0  0  0  0  0  0  0  0  0  0  0
    7.2740   -3.3810   19.6870 C   0  0  0  0  0  0  0  0  0  0  0  0
    4.9440   -5.9860   23.5720 C   0  0  0  0  0  0  0  0  0  0  0  0
    7.0330   -4.7600   24.3970 C   0  0  0  0  0  0  0  0  0  0  0  0
   12.6890   -0.6090   24.8640 C   0  0  0  0  0  0  0  0  0  0  0  0
   13.4750   -1.9170   22.9840 C   0  0  0  0  0  0  0  0  0  0  0  0
   12.8880   -2.9970   24.9970 C   0  0  0  0  0  0  0  0  0  0  0  0
    5.5740   -5.0700   24.5440 N   0  0  0  0  0  0  0  0  0  0  0  0
    4.9670   -5.2850   25.9300 S   0  0  0  0  0  0  0  0  0  0  0  0
    5.9870   -4.9410   26.8900 O   0  0  0  0  0  0  0  0  0  0  0  0
    4.1440   -6.4550   26.1650 O   0  0  0  0  0  0  0  0  0  0  0  0
    3.8180   -3.9240   25.9430 C   0  0  0  0  0  0  0  0  0  0  0  0
    4.2670   -2.4590   26.1220 C   0  0  0  0  0  0  0  0  0  0  0  0
    2.3080   -4.1120   25.7790 C   0  0  0  0  0  0  0  0  0  0  0  0
    5.5610   -2.1760   26.2730 F   0  0  0  0  0  0  0  0  0  0  0  0
    1.4720   -2.8640   25.8150 C   0  0  0  0  0  0  0  0  0  0  0  0
    3.3770   -1.3520   26.1390 C   0  0  0  0  0  0  0  0  0  0  0  0
    2.0020   -1.5690   25.9880 C   0  0  0  0  0  0  0  0  0  0  0  0
  1  2  1  0
  2  3  1  0
  1  4  1  0
  4  5  2  0
  6  4  1  6
  6  7  1  0
  3  8  1  0
  6  9  1  0
  8 10  1  0
  8 11  2  0
  7 12  1  0
  9 13  2  0
  9 14  1  0
  7 15  1  0
 10 16  1  0
 12 17  1  0
 14 18  2  0
 13 19  1  0
 15 20  2  0
 15 21  1  0
 16 22  1  0
 18 23  1  0
 19 23  2  0
 20 24  1  0
 21 25  2  0
 17 26  1  0
 26 27  1  0
 24 28  2  0
 25 28  1  0
 26 29  1  0
 26 30  1  0
 28 31  1  0
 27 32  2  0
 27 33  1  0
 29 34  1  0
 30 35  1  0
 31 36  1  0
 31 37  1  0
 31 38  1  0
 34 39  1  0
 35 39  1  0
 39 40  1  0
 40 41  2  0
 40 42  2  0
 40 43  1  0
 43 44  2  0
 43 45  1  0
 44 46  1  0
 45 47  2  0
 44 48  1  0
 47 49  1  0
 48 49  2  0
M  END
