x0769-x0104
     RDKit          3D

 39 42  0  0  0  0  0  0  0  0999 V2000
    5.9290   -4.9630   26.6850 O   0  0  0  0  0  0  0  0  0  0  0  0
    4.8150   -5.1190   25.7830 S   0  0  0  0  0  0  0  0  0  0  0  0
    3.9290   -6.2590   25.8990 O   0  0  0  0  0  0  0  0  0  0  0  0
    3.8520   -3.7170   25.8920 C   0  0  0  0  0  0  0  0  0  0  0  0
    5.5170   -5.1450   24.2310 N   0  0  0  0  0  0  0  0  0  0  0  0
    4.3780   -2.4220   26.0360 C   0  0  0  0  0  0  0  0  0  0  0  0
    2.4850   -3.9510   25.8280 C   0  0  0  0  0  0  0  0  0  0  0  0
    4.9840   -6.0720   23.2190 C   0  0  0  0  0  0  0  0  0  0  0  0
    6.9240   -4.7190   24.0530 C   0  0  0  0  0  0  0  0  0  0  0  0
    5.6070   -2.2460   26.0880 O   0  0  0  0  0  0  0  0  0  0  0  0
    1.4940   -2.7890   25.9190 C   0  0  0  0  0  0  0  0  0  0  0  0
    3.3530   -1.2600   26.1260 C   0  0  0  0  0  0  0  0  0  0  0  0
    5.9680   -6.1940   22.2440 C   0  0  0  0  0  0  0  0  0  0  0  0
    7.2160   -4.1750   22.7950 C   0  0  0  0  0  0  0  0  0  0  0  0
    6.2500   -1.3430   25.1640 C   0  0  0  0  0  0  0  0  0  0  0  0
    1.9870   -1.4870   26.0670 C   0  0  0  0  0  0  0  0  0  0  0  0
    6.6170   -4.9850   21.7210 N   0  0  0  0  0  0  0  0  0  0  0  0
    6.2640   -4.4760   20.4790 C   0  0  0  0  0  0  0  0  0  0  0  0
    6.9350   -0.4760   25.6860 C   0  0  0  0  0  0  0  0  0  0  0  0
    5.2870   -4.9710   19.9680 O   0  0  0  0  0  0  0  0  0  0  0  0
    7.0330   -3.3670   19.7590 C   0  0  0  0  0  0  0  0  0  0  0  0
    8.1450   -0.2030   25.0060 C   0  0  0  0  0  0  0  0  0  0  0  0
    8.5200    1.2960   24.8010 C   0  0  0  0  0  0  0  0  0  0  0  0
    9.7440    1.4210   24.1800 N   0  0  0  0  0  0  0  0  0  0  0  0
   10.4080    2.5910   23.8520 C   0  0  0  0  0  0  0  0  0  0  0  0
   10.6480    0.3720   23.6910 C   0  0  0  0  0  0  0  0  0  0  0  0
   11.6350    2.3980   23.2100 C   0  0  0  0  0  0  0  0  0  0  0  0
   11.8050    1.0070   23.1050 C   0  0  0  0  0  0  0  0  0  0  0  0
   10.5050   -1.0360   23.7310 C   0  0  0  0  0  0  0  0  0  0  0  0
   12.5390    3.5340   22.7340 C   0  0  0  0  0  0  0  0  0  0  0  0
   11.6210   -1.8880   23.1090 C   0  0  0  0  0  0  0  0  0  0  0  0
   12.8140    0.2040   22.5640 C   0  0  0  0  0  0  0  0  0  0  0  0
   12.3300    4.8080   23.2810 C   0  0  0  0  0  0  0  0  0  0  0  0
   12.7190   -1.3090   22.5490 C   0  0  0  0  0  0  0  0  0  0  0  0
   11.3440    5.6470   22.5570 N   0  0  0  0  0  0  0  0  0  0  0  0
   13.6240   -2.0780   22.0270 F   0  0  0  0  0  0  0  0  0  0  0  0
   10.2000    6.2070   23.3390 C   0  0  0  0  0  0  0  0  0  0  0  0
    8.9280    6.5740   22.6330 C   0  0  0  0  0  0  0  0  0  0  0  0
   10.3360    6.3570   24.5510 O   0  0  0  0  0  0  0  0  0  0  0  0
  1  2  2  0
  2  3  2  0
  2  4  1  0
  2  5  1  0
  4  6  1  0
  4  7  2  0
  5  8  1  0
  5  9  1  0
  6 10  1  0
  7 11  1  0
  6 12  2  0
  8 13  1  0
  9 14  1  0
 10 15  1  0
 11 16  2  0
 12 16  1  0
 13 17  1  0
 14 17  1  0
 17 18  1  0
 15 19  1  0
 18 20  2  0
 18 21  1  0
 19 22  1  0
 22 23  1  0
 23 24  1  0
 24 25  1  0
 24 26  1  0
 25 27  2  0
 26 28  2  0
 27 28  1  0
 26 29  1  0
 27 30  1  0
 29 31  2  0
 28 32  1  0
 30 33  1  0
 31 34  1  0
 32 34  2  0
 33 35  1  0
 34 36  1  0
 35 37  1  0
 37 38  1  0
 37 39  2  0
M  END
