x0769-x0967
     RDKit          3D

 42 44  0  0  0  0  0  0  0  0999 V2000
    7.6440    4.9720   22.3980 C   0  0  0  0  0  0  0  0  0  0  0  0
    7.1700    3.6620   22.9690 C   0  0  0  0  0  0  0  0  0  0  0  0
    7.9500    2.5940   22.6100 N   0  0  0  0  0  0  0  0  0  0  0  0
    6.1810    3.5720   23.6890 O   0  0  0  0  0  0  0  0  0  0  0  0
    7.7080    1.2520   23.1560 C   0  0  1  0  0  0  0  0  0  0  0  0
    6.3660    0.6890   22.6920 C   0  0  2  0  0  0  0  0  0  0  0  0
    8.8760    0.4280   22.6230 C   0  0  0  0  0  0  0  0  0  0  0  0
    8.9320   -0.9120   22.7300 N   0  0  0  0  0  0  0  0  0  0  0  0
    9.8350    0.9780   22.0730 O   0  0  0  0  0  0  0  0  0  0  0  0
    5.9370   -0.6790   23.2340 C   0  0  0  0  0  0  0  0  0  0  0  0
    6.2390    0.6730   21.1820 C   0  0  0  0  0  0  0  0  0  0  0  0
    9.8260   -1.6200   21.8450 C   0  0  0  0  0  0  0  0  0  0  0  0
    5.9490   -0.8480   24.6350 C   0  0  0  0  0  0  0  0  0  0  0  0
    6.9910   -0.2130   20.3800 C   0  0  0  0  0  0  0  0  0  0  0  0
    5.3270    1.5950   20.6110 C   0  0  0  0  0  0  0  0  0  0  0  0
   11.0630   -1.8490   22.5680 C   0  0  0  0  0  0  0  0  0  0  0  0
    6.2300   -2.1240   25.1020 C   0  0  0  0  0  0  0  0  0  0  0  0
    6.8700   -0.2160   18.9980 C   0  0  0  0  0  0  0  0  0  0  0  0
    5.1490    1.6440   19.1120 C   0  0  0  0  0  0  0  0  0  0  0  0
   12.0130   -2.0400   23.2370 C   0  0  0  0  0  0  0  0  0  0  0  0
    5.5100   -2.3330   26.3180 O   0  0  0  0  0  0  0  0  0  0  0  0
    5.8700    0.7970   18.3180 C   0  0  0  0  0  0  0  0  0  0  0  0
    5.7160    0.8480   17.0120 O   0  0  0  0  0  0  0  0  0  0  0  0
   13.4130   -2.3820   24.4450 Br  0  0  0  0  0  0  0  0  0  0  0  0
    4.1720   -2.5500   26.1490 C   0  0  0  0  0  0  0  0  0  0  0  0
    3.7340   -3.8460   25.8490 C   0  0  0  0  0  0  0  0  0  0  0  0
    3.3190   -1.4300   26.2950 C   0  0  0  0  0  0  0  0  0  0  0  0
    4.8400   -5.2280   25.6840 S   0  0  0  0  0  0  0  0  0  0  0  0
    2.3630   -4.0500   25.6780 C   0  0  0  0  0  0  0  0  0  0  0  0
    1.9500   -1.6080   26.1330 C   0  0  0  0  0  0  0  0  0  0  0  0
    5.8770   -5.0540   26.6720 O   0  0  0  0  0  0  0  0  0  0  0  0
    4.0320   -6.4300   25.6690 O   0  0  0  0  0  0  0  0  0  0  0  0
    1.4570   -3.0070   25.8040 C   0  0  0  0  0  0  0  0  0  0  0  0
    5.5080   -5.0860   24.1210 N   0  0  0  0  0  0  0  0  0  0  0  0
    4.8890   -5.8590   23.0060 C   0  0  0  0  0  0  0  0  0  0  0  0
    6.9800   -4.8990   24.0620 C   0  0  0  0  0  0  0  0  0  0  0  0
    5.7860   -6.1940   21.9880 C   0  0  0  0  0  0  0  0  0  0  0  0
    7.4910   -4.5520   22.6650 C   0  0  0  0  0  0  0  0  0  0  0  0
    6.5890   -5.0190   21.6270 N   0  0  0  0  0  0  0  0  0  0  0  0
    6.3150   -4.3530   20.4230 C   0  0  0  0  0  0  0  0  0  0  0  0
    5.2400   -4.5630   19.8910 O   0  0  0  0  0  0  0  0  0  0  0  0
    7.3210   -3.3740   19.7750 C   0  0  0  0  0  0  0  0  0  0  0  0
  1  2  1  0
  2  3  1  0
  2  4  2  0
  5  3  1  6
  5  6  1  0
  5  7  1  0
  7  8  1  0
  7  9  2  0
  6 10  1  6
  6 11  1  0
  8 12  1  0
 10 13  1  0
 11 14  2  0
 11 15  1  0
 12 16  1  0
 13 17  1  0
 14 18  1  0
 15 19  2  0
 16 20  3  0
 17 21  1  0
 18 22  2  0
 19 22  1  0
 22 23  1  0
 20 24  1  0
 21 25  1  0
 25 26  1  0
 25 27  2  0
 28 26  1  0
 26 29  2  0
 27 30  1  0
 28 31  2  0
 28 32  2  0
 29 33  1  0
 30 33  2  0
 28 34  1  0
 34 35  1  0
 34 36  1  0
 35 37  1  0
 36 38  1  0
 37 39  1  0
 38 39  1  0
 39 40  1  0
 40 41  2  0
 40 42  1  0
M  END
