x0769-x2776
     RDKit          3D

 51 55  0  0  0  0  0  0  0  0999 V2000
    6.9150   -1.0030   21.9120 N   0  0  0  0  0  0  0  0  0  0  0  0
    6.6360    0.4040   21.6300 C   0  0  1  0  0  0  0  0  0  0  0  0
    7.7770    1.3670   21.7610 C   0  0  0  0  0  0  0  0  0  0  0  0
    5.8280   -1.9200   21.7310 C   0  0  0  0  0  0  0  0  0  0  0  0
    8.2180   -1.2850   22.5210 C   0  0  0  0  0  0  0  0  0  0  0  0
    5.7100   -2.9820   22.6580 C   0  0  0  0  0  0  0  0  0  0  0  0
    6.1690    0.6770   20.2520 C   0  0  0  0  0  0  0  0  0  0  0  0
    9.2670   -1.7190   21.7610 C   0  0  0  0  0  0  0  0  0  0  0  0
    8.5570   -1.1100   24.0040 C   0  0  0  0  0  0  0  0  0  0  0  0
    7.6360    2.3600   22.6930 N   0  0  0  0  0  0  0  0  0  0  0  0
    8.7930    1.3350   21.0710 O   0  0  0  0  0  0  0  0  0  0  0  0
    5.0830    1.4900   20.0430 C   0  0  0  0  0  0  0  0  0  0  0  0
    6.8420    0.1190   19.1500 C   0  0  0  0  0  0  0  0  0  0  0  0
   10.5200   -1.9590   22.3080 C   0  0  0  0  0  0  0  0  0  0  0  0
    9.8410   -1.3630   24.5060 C   0  0  0  0  0  0  0  0  0  0  0  0
    6.1860   -4.3950   22.1750 C   0  0  0  0  0  0  0  0  0  0  0  0
    6.4750   -4.2690   20.6790 C   0  0  0  0  0  0  0  0  0  0  0  0
    6.3320    0.4630   17.7800 N   0  0  0  0  0  0  0  0  0  0  0  0
    4.6440    1.7810   18.8050 C   0  0  0  0  0  0  0  0  0  0  0  0
    8.6050    3.2550   23.0490 C   0  0  0  0  0  0  0  0  0  0  0  0
   10.8320   -1.7900   23.6380 C   0  0  0  0  0  0  0  0  0  0  0  0
    5.0470   -5.4180   22.2290 C   0  0  0  0  0  0  0  0  0  0  0  0
    7.3050   -4.8960   23.0720 C   0  0  0  0  0  0  0  0  0  0  0  0
   12.2400   -2.0640   24.0810 C   0  0  2  0  0  0  0  0  0  0  0  0
    5.6030   -4.7000   19.9370 O   0  0  0  0  0  0  0  0  0  0  0  0
    7.7780   -3.5760   20.2780 C   0  0  0  0  0  0  0  0  0  0  0  0
    5.2460    1.2920   17.6920 C   0  0  0  0  0  0  0  0  0  0  0  0
   10.0550    3.1910   23.5140 C   0  0  0  0  0  0  0  0  0  0  0  0
    8.1040    4.5570   22.9470 C   0  0  0  0  0  0  0  0  0  0  0  0
    4.9260   -6.1770   23.5210 C   0  0  0  0  0  0  0  0  0  0  0  0
    6.8360   -4.9980   24.5110 C   0  0  0  0  0  0  0  0  0  0  0  0
   12.2850   -2.7050   25.1240 O   0  0  0  0  0  0  0  0  0  0  0  0
   10.9020    1.9700   23.7250 C   0  0  0  0  0  0  0  0  0  0  0  0
   12.9150   -0.6840   24.3320 C   0  0  0  0  0  0  0  0  0  0  0  0
   10.7210    4.3880   23.7880 C   0  0  0  0  0  0  0  0  0  0  0  0
    8.8760    5.7320   23.2560 C   0  0  0  0  0  0  0  0  0  0  0  0
    5.3900   -5.2730   24.5720 N   0  0  0  0  0  0  0  0  0  0  0  0
   13.6220   -2.9660   25.4970 C   0  0  0  0  0  0  0  0  0  0  0  0
    4.6920   -5.3330   25.9300 S   0  0  0  0  0  0  0  0  0  0  0  0
   10.1940    5.6850   23.6870 C   0  0  0  0  0  0  0  0  0  0  0  0
   10.8860    6.8210   23.9780 O   0  0  0  0  0  0  0  0  0  0  0  0
    5.7070   -5.0790   26.9160 O   0  0  0  0  0  0  0  0  0  0  0  0
    3.7690   -6.4220   26.1740 O   0  0  0  0  0  0  0  0  0  0  0  0
    3.7140   -3.9690   25.9220 C   0  0  0  0  0  0  0  0  0  0  0  0
   11.8400    6.7180   25.0290 C   0  0  0  0  0  0  0  0  0  0  0  0
    4.3060   -2.6940   26.0960 C   0  0  0  0  0  0  0  0  0  0  0  0
    2.3170   -4.1630   25.7430 C   0  0  0  0  0  0  0  0  0  0  0  0
    5.6290   -2.5810   26.2580 F   0  0  0  0  0  0  0  0  0  0  0  0
    1.4200   -2.9290   25.7450 C   0  0  0  0  0  0  0  0  0  0  0  0
    3.5890   -1.4980   26.1130 C   0  0  0  0  0  0  0  0  0  0  0  0
    2.0720   -1.5670   25.9360 C   0  0  0  0  0  0  0  0  0  0  0  0
  1  2  1  0
  2  3  1  6
  1  4  1  0
  1  5  1  0
  4  6  1  0
  2  7  1  0
  5  8  2  0
  5  9  1  0
  3 10  1  0
  3 11  2  0
  7 12  2  0
  7 13  1  0
  8 14  1  0
  9 15  2  0
  6 16  1  0
 16 17  1  0
 13 18  2  0
 12 19  1  0
 10 20  1  0
 14 21  2  0
 15 21  1  0
 16 22  1  0
 16 23  1  0
 21 24  1  0
 17 25  2  0
 17 26  1  0
 18 27  1  0
 19 27  2  0
 20 28  2  0
 20 29  1  0
 22 30  1  0
 23 31  1  0
 24 32  1  0
 28 33  1  0
 24 34  1  1
 28 35  1  0
 29 36  2  0
 30 37  1  0
 31 37  1  0
 32 38  1  0
 37 39  1  0
 35 40  2  0
 36 40  1  0
 40 41  1  0
 39 42  2  0
 39 43  2  0
 39 44  1  0
 41 45  1  0
 44 46  2  0
 44 47  1  0
 46 48  1  0
 47 49  2  0
 46 50  1  0
 49 51  1  0
 50 51  2  0
M  END
