x0769-x2569
     RDKit          3D

 40 43  0  0  0  0  0  0  0  0999 V2000
    5.9070   -5.1660   26.6610 O   0  0  0  0  0  0  0  0  0  0  0  0
    4.8320   -5.3040   25.7100 S   0  0  0  0  0  0  0  0  0  0  0  0
    3.9700   -6.4680   25.7060 O   0  0  0  0  0  0  0  0  0  0  0  0
    3.7660   -3.8610   25.8230 C   0  0  0  0  0  0  0  0  0  0  0  0
    5.4730   -5.2810   24.1340 N   0  0  0  0  0  0  0  0  0  0  0  0
    4.2840   -2.4610   25.8980 C   0  0  0  0  0  0  0  0  0  0  0  0
    2.3790   -4.1080   25.8440 C   0  0  0  0  0  0  0  0  0  0  0  0
    4.6460   -5.7480   23.0130 C   0  0  0  0  0  0  0  0  0  0  0  0
    6.2810   -4.1930   23.8700 C   0  0  0  0  0  0  0  0  0  0  0  0
    5.6560   -2.0240   25.8820 O   0  0  0  0  0  0  0  0  0  0  0  0
    1.5130   -2.9910   25.9410 C   0  0  0  0  0  0  0  0  0  0  0  0
    3.3560   -1.4040   25.9970 C   0  0  0  0  0  0  0  0  0  0  0  0
    5.7530   -6.2440   22.3360 C   0  0  0  0  0  0  0  0  0  0  0  0
    7.2690   -4.5970   22.9870 C   0  0  0  0  0  0  0  0  0  0  0  0
    5.6710   -1.0210   24.8200 C   0  0  0  0  0  0  0  0  0  0  0  0
    2.0020   -1.6820   26.0170 C   0  0  0  0  0  0  0  0  0  0  0  0
    6.5180   -5.2670   21.9070 N   0  0  0  0  0  0  0  0  0  0  0  0
    6.2870   -4.6280   20.6610 C   0  0  0  0  0  0  0  0  0  0  0  0
    6.9630   -1.0980   24.1160 C   0  0  0  0  0  0  0  0  0  0  0  0
    5.3350   -5.0050   19.9940 O   0  0  0  0  0  0  0  0  0  0  0  0
    7.1620   -3.4860   20.1240 C   0  0  0  0  0  0  0  0  0  0  0  0
    7.8920   -1.4970   23.4470 C   0  0  0  0  0  0  0  0  0  0  0  0
    8.6590   -0.2540   23.0640 C   0  0  2  0  0  0  0  0  0  0  0  0
    8.2990    0.3300   21.7260 C   0  0  0  0  0  0  0  0  0  0  0  0
   10.1890   -0.4390   23.1260 C   0  0  0  0  0  0  0  0  0  0  0  0
    8.9360    1.2800   21.2430 O   0  0  0  0  0  0  0  0  0  0  0  0
    7.2260   -0.2830   21.1430 N   0  0  0  0  0  0  0  0  0  0  0  0
   10.8810   -1.2410   22.2500 C   0  0  0  0  0  0  0  0  0  0  0  0
   10.9350    0.2110   24.0930 C   0  0  0  0  0  0  0  0  0  0  0  0
   12.2680    0.1400   24.2540 N   0  0  0  0  0  0  0  0  0  0  0  0
   12.2940   -1.3920   22.3370 C   0  0  0  0  0  0  0  0  0  0  0  0
    6.4900    0.2740   20.0990 C   0  0  0  0  0  0  0  0  0  0  0  0
   12.9760   -2.2270   21.4490 C   0  0  0  0  0  0  0  0  0  0  0  0
   12.9350   -0.6820   23.3460 C   0  0  0  0  0  0  0  0  0  0  0  0
    6.9410    0.0950   18.8010 C   0  0  0  0  0  0  0  0  0  0  0  0
    5.1950    1.1020   20.2130 C   0  0  0  0  0  0  0  0  0  0  0  0
   13.5870   -3.2380   20.5930 N   0  0  0  0  0  0  0  0  0  0  0  0
    6.3310    0.6070   17.6930 N   0  0  0  0  0  0  0  0  0  0  0  0
    4.6220    1.5890   19.0670 C   0  0  0  0  0  0  0  0  0  0  0  0
    5.1960    1.3400   17.8460 C   0  0  0  0  0  0  0  0  0  0  0  0
  1  2  2  0
  2  3  2  0
  2  4  1  0
  2  5  1  0
  4  6  1  0
  4  7  2  0
  5  8  1  0
  5  9  1  0
  6 10  1  0
  7 11  1  0
  6 12  2  0
  8 13  1  0
  9 14  1  0
 10 15  1  0
 11 16  2  0
 12 16  1  0
 13 17  1  0
 14 17  1  0
 17 18  1  0
 15 19  1  0
 18 20  2  0
 18 21  1  0
 19 22  1  0
 23 22  1  6
 23 24  1  0
 23 25  1  0
 24 26  2  0
 24 27  1  0
 25 28  2  0
 25 29  1  0
 29 30  2  0
 28 31  1  0
 27 32  1  0
 31 33  1  0
 30 34  1  0
 31 34  2  0
 32 35  2  0
 32 36  1  0
 33 37  3  0
 35 38  1  0
 36 39  2  0
 38 40  2  0
 39 40  1  0
M  END
