x0769-x2908
     RDKit          3D

 39 42  0  0  0  0  0  0  0  0999 V2000
    5.7900   -5.0630   26.9320 O   0  0  0  0  0  0  0  0  0  0  0  0
    4.7560   -5.3130   25.9540 S   0  0  0  0  0  0  0  0  0  0  0  0
    3.9330   -6.5020   25.9970 O   0  0  0  0  0  0  0  0  0  0  0  0
    3.6650   -3.9110   25.9560 C   0  0  0  0  0  0  0  0  0  0  0  0
    5.5960   -5.2700   24.4840 N   0  0  0  0  0  0  0  0  0  0  0  0
    4.2290   -2.5130   26.1320 C   0  0  0  0  0  0  0  0  0  0  0  0
    2.2960   -4.0560   25.7980 C   0  0  0  0  0  0  0  0  0  0  0  0
    5.2060   -5.9510   23.3940 C   0  0  0  0  0  0  0  0  0  0  0  0
    6.8950   -4.9210   24.4780 C   0  0  0  0  0  0  0  0  0  0  0  0
    5.5430   -2.2990   26.2890 F   0  0  0  0  0  0  0  0  0  0  0  0
    1.4190   -2.8070   25.8100 C   0  0  0  0  0  0  0  0  0  0  0  0
    3.3610   -1.3960   26.1330 C   0  0  0  0  0  0  0  0  0  0  0  0
    5.0130   -5.0150   22.3880 C   0  0  0  0  0  0  0  0  0  0  0  0
    7.3450   -4.8890   22.9520 C   0  0  0  0  0  0  0  0  0  0  0  0
    1.9740   -1.5200   25.9780 C   0  0  0  0  0  0  0  0  0  0  0  0
    6.1620   -4.2610   22.1810 C   0  0  0  0  0  0  0  0  0  0  0  0
    6.4940   -4.2070   20.6890 C   0  0  0  0  0  0  0  0  0  0  0  0
    6.1030   -2.7800   22.6470 C   0  0  0  0  0  0  0  0  0  0  0  0
    5.6420   -4.6740   19.9400 O   0  0  0  0  0  0  0  0  0  0  0  0
    7.8140   -3.5360   20.2980 C   0  0  0  0  0  0  0  0  0  0  0  0
    5.7500   -1.6900   21.5500 C   0  0  0  0  0  0  0  0  0  0  0  0
    6.7890   -0.7350   21.0260 N   0  0  0  0  0  0  0  0  0  0  0  0
    8.0350   -0.1390   21.6400 C   0  0  0  0  0  0  0  0  0  0  0  0
    6.2470    0.0030   20.0120 C   0  0  0  0  0  0  0  0  0  0  0  0
    8.4610    0.9550   21.2750 O   0  0  0  0  0  0  0  0  0  0  0  0
    8.5830   -0.7500   22.4480 N   0  0  0  0  0  0  0  0  0  0  0  0
    6.7020   -0.1870   18.5910 C   0  0  0  0  0  0  0  0  0  0  0  0
    5.2450    0.9640   20.2930 C   0  0  0  0  0  0  0  0  0  0  0  0
    4.6790    1.2960   21.6410 C   0  0  0  0  0  0  0  0  0  0  0  0
    6.2170    0.5040   17.5350 N   0  0  0  0  0  0  0  0  0  0  0  0
    4.7760    1.6410   19.1800 C   0  0  0  0  0  0  0  0  0  0  0  0
    9.9000   -0.3810   22.8680 C   0  0  0  0  0  0  0  0  0  0  0  0
    5.2450    1.4100   17.9040 C   0  0  0  0  0  0  0  0  0  0  0  0
   10.4730    0.5510   23.7340 C   0  0  0  0  0  0  0  0  0  0  0  0
   10.8840   -1.2550   22.1430 C   0  0  0  0  0  0  0  0  0  0  0  0
   11.8850    0.5920   23.8470 C   0  0  0  0  0  0  0  0  0  0  0  0
   12.2330   -1.1930   22.2710 C   0  0  0  0  0  0  0  0  0  0  0  0
   13.1770   -2.2520   21.3640 Cl  0  0  0  0  0  0  0  0  0  0  0  0
   12.7450   -0.2550   23.1370 C   0  0  0  0  0  0  0  0  0  0  0  0
  1  2  2  0
  2  3  2  0
  2  4  1  0
  2  5  1  0
  4  6  2  0
  4  7  1  0
  5  8  1  0
  5  9  1  0
  6 10  1  0
  7 11  2  0
  6 12  1  0
  8 13  1  0
  9 14  1  0
 11 15  1  0
 12 15  2  0
 13 16  1  0
 14 16  1  0
 16 17  1  0
 16 18  1  0
 17 19  2  0
 17 20  1  0
 18 21  1  0
 21 22  1  0
 22 23  1  0
 22 24  1  0
 23 25  2  0
 23 26  1  0
 24 27  2  0
 24 28  1  0
 28 29  1  0
 27 30  1  0
 28 31  2  0
 26 32  1  0
 30 33  2  0
 31 33  1  0
 32 34  2  0
 32 35  1  0
 34 36  1  0
 35 37  2  0
 37 38  1  0
 36 39  2  0
 37 39  1  0
M  END
