x0769-x2694-x3115
     RDKit          3D

 52 56  0  0  0  0  0  0  0  0999 V2000
    7.4110   -1.1460   22.1520 N   0  0  0  0  0  0  0  0  0  0  0  0
    6.9330    0.2260   21.7280 C   0  0  1  0  0  0  0  0  0  0  0  0
    8.0240    1.3330   21.8010 C   0  0  0  0  0  0  0  0  0  0  0  0
    6.5030   -1.9850   22.8760 C   0  0  0  0  0  0  0  0  0  0  0  0
    8.7090   -1.2320   22.7300 C   0  0  0  0  0  0  0  0  0  0  0  0
    5.5810   -2.9300   22.3780 C   0  0  0  0  0  0  0  0  0  0  0  0
    6.3370    0.5300   20.3470 C   0  0  0  0  0  0  0  0  0  0  0  0
    8.8940   -1.3220   24.1850 N   0  0  0  0  0  0  0  0  0  0  0  0
    9.9720   -1.2510   22.1900 C   0  0  0  0  0  0  0  0  0  0  0  0
    7.7230    2.2980   22.6770 N   0  0  0  0  0  0  0  0  0  0  0  0
    9.0480    1.3630   21.1160 O   0  0  0  0  0  0  0  0  0  0  0  0
    5.2400    1.3670   20.2050 C   0  0  0  0  0  0  0  0  0  0  0  0
    6.9530   -0.0600   19.2270 C   0  0  0  0  0  0  0  0  0  0  0  0
   10.3760   -1.3870   24.3910 O   0  0  0  0  0  0  0  0  0  0  0  0
   11.0130   -1.3370   23.0920 C   0  0  0  0  0  0  0  0  0  0  0  0
    6.0310   -4.3570   22.1720 C   0  0  0  0  0  0  0  0  0  0  0  0
   12.4420   -1.3650   22.9430 C   0  0  0  0  0  0  0  0  0  0  0  0
    6.4070   -4.3680   20.6910 C   0  0  0  0  0  0  0  0  0  0  0  0
    6.3990    0.2520   17.8870 N   0  0  0  0  0  0  0  0  0  0  0  0
    4.6850    1.6880   19.0010 C   0  0  0  0  0  0  0  0  0  0  0  0
    8.5660    3.4370   22.9690 C   0  0  0  0  0  0  0  0  0  0  0  0
    4.8510   -5.3490   22.3120 C   0  0  0  0  0  0  0  0  0  0  0  0
    7.1770   -4.6410   22.9470 C   0  0  0  0  0  0  0  0  0  0  0  0
   12.9090    0.0890   23.1150 C   0  0  0  0  0  0  0  0  0  0  0  0
   12.8940   -1.8730   21.5480 C   0  0  0  0  0  0  0  0  0  0  0  0
   13.1840   -2.2120   23.9860 C   0  0  0  0  0  0  0  0  0  0  0  0
    5.6440   -4.9610   19.9670 O   0  0  0  0  0  0  0  0  0  0  0  0
    7.6520   -3.5690   20.3230 C   0  0  0  0  0  0  0  0  0  0  0  0
    5.2370    1.1590   17.8630 C   0  0  0  0  0  0  0  0  0  0  0  0
    9.7800    3.2950   23.6120 C   0  0  0  0  0  0  0  0  0  0  0  0
    8.1710    4.7170   22.5990 C   0  0  0  0  0  0  0  0  0  0  0  0
    4.9660   -6.1540   23.3980 C   0  0  0  0  0  0  0  0  0  0  0  0
    6.8880   -4.9040   24.3010 C   0  0  0  0  0  0  0  0  0  0  0  0
   10.3760    1.9550   24.0880 C   0  0  0  0  0  0  0  0  0  0  0  0
   12.3320   -2.9920   24.9580 C   0  0  0  0  0  0  0  0  0  0  0  0
   10.6060    4.3840   23.8990 C   0  0  0  0  0  0  0  0  0  0  0  0
    8.9800    5.8230   22.8800 C   0  0  0  0  0  0  0  0  0  0  0  0
    5.4620   -5.2920   24.4570 N   0  0  0  0  0  0  0  0  0  0  0  0
    8.5910    7.1840   22.4950 C   0  0  0  0  0  0  0  0  0  0  0  0
    4.8130   -5.3150   25.8480 S   0  0  0  0  0  0  0  0  0  0  0  0
   10.2120    5.6710   23.5420 C   0  0  0  0  0  0  0  0  0  0  0  0
   10.9300    6.8110   23.7850 O   0  0  0  0  0  0  0  0  0  0  0  0
    5.8590   -4.9880   26.7710 O   0  0  0  0  0  0  0  0  0  0  0  0
    4.0240   -6.5170   25.9430 O   0  0  0  0  0  0  0  0  0  0  0  0
    3.6920   -3.9240   25.8860 C   0  0  0  0  0  0  0  0  0  0  0  0
   11.8740    6.7410   24.8540 C   0  0  0  0  0  0  0  0  0  0  0  0
    4.2420   -2.6380   26.0980 C   0  0  0  0  0  0  0  0  0  0  0  0
    2.3080   -3.9860   25.7270 C   0  0  0  0  0  0  0  0  0  0  0  0
    5.5560   -2.4570   26.2640 F   0  0  0  0  0  0  0  0  0  0  0  0
    1.4950   -2.8680   25.7720 C   0  0  0  0  0  0  0  0  0  0  0  0
    3.4120   -1.4980   26.1420 C   0  0  0  0  0  0  0  0  0  0  0  0
    2.0500   -1.6340   25.9800 C   0  0  0  0  0  0  0  0  0  0  0  0
  1  2  1  0
  2  3  1  6
  1  4  1  0
  1  5  1  0
  4  6  1  0
  2  7  1  0
  5  8  2  0
  5  9  1  0
  3 10  1  0
  3 11  2  0
  7 12  2  0
  7 13  1  0
  8 14  1  0
  9 15  2  0
 14 15  1  0
  6 16  1  0
 15 17  1  0
 16 18  1  0
 13 19  2  0
 12 20  1  0
 10 21  1  0
 16 22  1  0
 16 23  1  0
 17 24  1  0
 17 25  1  0
 17 26  1  0
 18 27  2  0
 18 28  1  0
 19 29  1  0
 20 29  2  0
 21 30  2  0
 21 31  1  0
 22 32  1  0
 23 33  1  0
 30 34  1  0
 26 35  1  0
 30 36  1  0
 31 37  2  0
 32 38  1  0
 33 38  1  0
 37 39  1  0
 38 40  1  0
 36 41  2  0
 37 41  1  0
 41 42  1  0
 40 43  2  0
 40 44  2  0
 40 45  1  0
 42 46  1  0
 45 47  2  0
 45 48  1  0
 47 49  1  0
 48 50  2  0
 47 51  1  0
 50 52  1  0
 51 52  2  0
M  END
