x0769-x0540-x3113-x3110-x0946
     RDKit          3D

 67 72  0  0  0  0  0  0  0  0999 V2000
    7.9720    1.3480   23.3650 N   0  0  0  0  0  0  0  0  0  0  0  0
    8.7140    2.5110   23.8920 C   0  0  0  0  0  0  0  0  0  0  0  0
   10.1880    2.5110   23.5330 C   0  0  0  0  0  0  0  0  0  0  0  0
    7.8950    0.9950   22.0180 C   0  0  0  0  0  0  0  0  0  0  0  0
    8.6840    1.4830   21.0050 O   0  0  0  0  0  0  0  0  0  0  0  0
    6.7590    0.0010   21.6750 C   0  0  2  0  0  0  0  0  0  0  0  0
    7.1220   -1.3700   22.0800 N   0  0  0  0  0  0  0  0  0  0  0  0
    6.1930    0.3650   20.3040 C   0  0  0  0  0  0  0  0  0  0  0  0
   10.9640    3.6770   23.4610 C   0  0  0  0  0  0  0  0  0  0  0  0
   10.7700    1.2540   23.2620 C   0  0  0  0  0  0  0  0  0  0  0  0
   10.4340    5.1010   23.7470 C   0  0  0  0  0  0  0  0  0  0  0  0
    6.0630   -1.9690   22.8310 C   0  0  0  0  0  0  0  0  0  0  0  0
    5.0270    1.0720   20.0780 C   0  0  0  0  0  0  0  0  0  0  0  0
    6.8750   -0.0080   19.2610 C   0  0  0  0  0  0  0  0  0  0  0  0
    8.4110   -1.4680   22.7110 C   0  0  0  0  0  0  0  0  0  0  0  0
   12.1070    1.0810   22.9210 C   0  0  0  0  0  0  0  0  0  0  0  0
   12.4040    3.5490   23.0910 C   0  0  0  0  0  0  0  0  0  0  0  0
   13.3630    4.6890   22.9700 C   0  0  0  0  0  0  0  0  0  0  0  0
    4.0740    1.5980   21.0860 C   0  0  0  0  0  0  0  0  0  0  0  0
   11.2760    5.7930   24.6170 N   0  0  0  0  0  0  0  0  0  0  0  0
    9.1930    5.1290   24.3630 O   0  0  0  0  0  0  0  0  0  0  0  0
   10.3660    5.9050   22.8020 O   0  0  0  0  0  0  0  0  0  0  0  0
    5.3570   -3.2090   22.3770 C   0  0  0  0  0  0  0  0  0  0  0  0
    6.5500    0.2470   17.9670 N   0  0  0  0  0  0  0  0  0  0  0  0
    4.6790    1.3410   18.7930 C   0  0  0  0  0  0  0  0  0  0  0  0
    9.5010   -1.9020   21.7940 C   0  0  0  0  0  0  0  0  0  0  0  0
    8.7420   -1.2000   24.0350 C   0  0  0  0  0  0  0  0  0  0  0  0
   12.9180    2.1470   22.8320 C   0  0  0  0  0  0  0  0  0  0  0  0
   13.1780    5.3700   21.6720 C   0  0  0  0  0  0  0  0  0  0  0  0
    4.7400    1.9480   22.3950 C   0  0  0  0  0  0  0  0  0  0  0  0
    5.4130    0.9470   17.8120 C   0  0  0  0  0  0  0  0  0  0  0  0
   10.8480   -2.0580   22.2010 C   0  0  0  0  0  0  0  0  0  0  0  0
   10.1670   -1.3440   24.4980 C   0  0  0  0  0  0  0  0  0  0  0  0
    6.2140   -4.4960   22.1050 C   0  0  0  0  0  0  0  0  0  0  0  0
    4.0820    2.9610   22.9450 N   0  0  0  0  0  0  0  0  0  0  0  0
    6.5600   -4.3230   20.6410 C   0  0  0  0  0  0  0  0  0  0  0  0
   11.1860   -1.7510   23.6660 C   0  0  0  0  0  0  0  0  0  0  0  0
    5.4820   -5.6860   22.1630 C   0  0  0  0  0  0  0  0  0  0  0  0
    7.4080   -4.6540   23.0780 C   0  0  0  0  0  0  0  0  0  0  0  0
   12.5620   -1.8590   24.1920 C   0  0  0  0  0  0  0  0  0  0  0  0
    2.9790    2.6350   23.6360 C   0  0  0  0  0  0  0  0  0  0  0  0
    5.6890   -4.7240   19.9120 O   0  0  0  0  0  0  0  0  0  0  0  0
    7.8760   -3.6250   20.2830 C   0  0  0  0  0  0  0  0  0  0  0  0
    5.0020   -6.0180   23.3890 C   0  0  0  0  0  0  0  0  0  0  0  0
    6.9770   -4.7870   24.3830 C   0  0  0  0  0  0  0  0  0  0  0  0
   12.8340   -0.7320   24.9240 C   0  0  0  0  0  0  0  0  0  0  0  0
   13.5060   -1.9780   23.0110 C   0  0  0  0  0  0  0  0  0  0  0  0
   12.8410   -3.0610   25.0730 C   0  0  0  0  0  0  0  0  0  0  0  0
    2.9130    1.6490   24.5720 O   0  0  0  0  0  0  0  0  0  0  0  0
    1.8580    3.4860   23.2410 N   0  0  0  0  0  0  0  0  0  0  0  0
    5.5360   -5.1210   24.4350 N   0  0  0  0  0  0  0  0  0  0  0  0
    4.8400   -5.2800   25.9610 S   0  0  0  0  0  0  0  0  0  0  0  0
    0.5320    3.3170   23.8990 C   0  0  0  0  0  0  0  0  0  0  0  0
    5.8770   -5.0440   26.9380 O   0  0  0  0  0  0  0  0  0  0  0  0
    4.0700   -6.4990   25.9190 O   0  0  0  0  0  0  0  0  0  0  0  0
    0.4210    4.3550   24.8280 C   0  0  0  0  0  0  0  0  0  0  0  0
   -0.7040    3.0820   23.0300 C   0  0  0  0  0  0  0  0  0  0  0  0
    3.7640   -3.8900   25.9780 C   0  0  0  0  0  0  0  0  0  0  0  0
   -0.6710    5.1720   24.5290 C   0  0  0  0  0  0  0  0  0  0  0  0
   -1.8160    3.1890   23.8660 C   0  0  0  0  0  0  0  0  0  0  0  0
    4.2400   -2.5460   26.1640 C   0  0  0  0  0  0  0  0  0  0  0  0
    2.2680   -4.0610   25.7940 C   0  0  0  0  0  0  0  0  0  0  0  0
    5.5410   -2.2980   26.3330 F   0  0  0  0  0  0  0  0  0  0  0  0
   -1.8550    4.4170   24.5510 C   0  0  0  0  0  0  0  0  0  0  0  0
    1.4780   -2.9320   25.8220 C   0  0  0  0  0  0  0  0  0  0  0  0
    3.3720   -1.4320   26.1820 C   0  0  0  0  0  0  0  0  0  0  0  0
    1.9900   -1.6510   26.0100 C   0  0  0  0  0  0  0  0  0  0  0  0
  1  2  1  0
  2  3  1  0
  1  4  1  0
  4  5  2  0
  6  4  1  6
  6  7  1  0
  6  8  1  0
  3  9  2  0
  3 10  1  0
  9 11  1  0
  7 12  1  0
  8 13  1  0
  8 14  2  0
  7 15  1  0
 10 16  2  0
  9 17  1  0
 17 18  1  0
 13 19  1  0
 11 20  1  0
 11 21  1  0
 11 22  1  0
 12 23  1  0
 14 24  1  0
 13 25  2  0
 15 26  2  0
 15 27  1  0
 16 28  1  0
 17 28  2  0
 18 29  1  0
 19 30  1  0
 24 31  2  0
 25 31  1  0
 26 32  1  0
 27 33  2  0
 23 34  1  0
 30 35  1  0
 34 36  1  0
 32 37  2  0
 33 37  1  0
 34 38  1  0
 34 39  1  0
 37 40  1  0
 35 41  1  0
 36 42  2  0
 36 43  1  0
 38 44  1  0
 39 45  1  0
 40 46  1  0
 40 47  1  0
 40 48  1  0
 41 49  2  0
 41 50  1  0
 44 51  1  0
 45 51  1  0
 51 52  1  0
 50 53  1  0
 52 54  2  0
 52 55  2  0
 53 56  1  0
 53 57  1  0
 52 58  1  0
 56 59  1  0
 57 60  1  0
 58 61  2  0
 58 62  1  0
 61 63  1  0
 59 64  1  0
 60 64  1  0
 62 65  2  0
 61 66  1  0
 65 67  1  0
 66 67  2  0
M  END
