x0769-x2705
     RDKit          3D

 50 54  0  0  0  0  0  0  0  0999 V2000
    7.4090   -1.1510   21.9830 N   0  0  0  0  0  0  0  0  0  0  0  0
    6.9200    0.2110   21.5920 C   0  0  1  0  0  0  0  0  0  0  0  0
    7.9100    1.3140   21.7980 C   0  0  0  0  0  0  0  0  0  0  0  0
    6.4130   -1.8530   22.6840 C   0  0  0  0  0  0  0  0  0  0  0  0
    8.5970   -1.2680   22.7190 C   0  0  0  0  0  0  0  0  0  0  0  0
    5.4980   -2.7440   22.1020 C   0  0  0  0  0  0  0  0  0  0  0  0
    6.3640    0.3620   20.3920 C   0  0  0  0  0  0  0  0  0  0  0  0
    8.6690   -1.3810   24.0790 N   0  0  0  0  0  0  0  0  0  0  0  0
    9.8640   -1.2780   22.1270 C   0  0  0  0  0  0  0  0  0  0  0  0
    7.6180    2.2280   22.7830 N   0  0  0  0  0  0  0  0  0  0  0  0
    8.9240    1.4600   21.1210 O   0  0  0  0  0  0  0  0  0  0  0  0
    5.2000    1.0710   20.1960 C   0  0  0  0  0  0  0  0  0  0  0  0
    7.0240   -0.2140   19.3120 C   0  0  0  0  0  0  0  0  0  0  0  0
    9.9960   -1.4630   24.3710 N   0  0  0  0  0  0  0  0  0  0  0  0
   10.7370   -1.4010   23.1950 C   0  0  0  0  0  0  0  0  0  0  0  0
    5.9430   -4.2490   21.9710 C   0  0  0  0  0  0  0  0  0  0  0  0
   12.2550   -1.4610   23.1840 C   0  0  0  0  0  0  0  0  0  0  0  0
    6.1390   -4.4170   20.4680 C   0  0  0  0  0  0  0  0  0  0  0  0
    6.3700    0.0300   17.9990 N   0  0  0  0  0  0  0  0  0  0  0  0
    4.6350    1.2640   18.9850 C   0  0  0  0  0  0  0  0  0  0  0  0
    8.2660    3.4840   22.9340 C   0  0  0  0  0  0  0  0  0  0  0  0
    4.8120   -5.2780   22.2760 C   0  0  0  0  0  0  0  0  0  0  0  0
    7.1840   -4.6190   22.8220 C   0  0  0  0  0  0  0  0  0  0  0  0
   12.7900   -0.1500   23.5950 C   0  0  0  0  0  0  0  0  0  0  0  0
   12.7070   -2.4190   24.2350 C   0  0  0  0  0  0  0  0  0  0  0  0
   12.7490   -2.0150   21.7830 C   0  0  0  0  0  0  0  0  0  0  0  0
    5.5860   -5.3690   19.9780 O   0  0  0  0  0  0  0  0  0  0  0  0
    6.9360   -3.4160   19.6290 C   0  0  0  0  0  0  0  0  0  0  0  0
    5.2310    0.7420   17.8760 C   0  0  0  0  0  0  0  0  0  0  0  0
    9.5420    3.4920   23.4930 C   0  0  0  0  0  0  0  0  0  0  0  0
    7.6480    4.6690   22.5320 C   0  0  0  0  0  0  0  0  0  0  0  0
    5.0280   -6.1020   23.5120 C   0  0  0  0  0  0  0  0  0  0  0  0
    6.9200   -4.7730   24.3210 C   0  0  0  0  0  0  0  0  0  0  0  0
   10.2600    2.2530   23.9320 C   0  0  0  0  0  0  0  0  0  0  0  0
    6.2750    4.6980   21.9170 C   0  0  0  0  0  0  0  0  0  0  0  0
   10.2160    4.7100   23.6620 C   0  0  0  0  0  0  0  0  0  0  0  0
    8.3110    5.8760   22.6960 C   0  0  0  0  0  0  0  0  0  0  0  0
    5.5230   -5.1640   24.5120 N   0  0  0  0  0  0  0  0  0  0  0  0
    9.3330    1.4420   24.8330 C   0  0  0  0  0  0  0  0  0  0  0  0
    4.8100   -5.2170   26.0510 S   0  0  0  0  0  0  0  0  0  0  0  0
    9.5920    5.9010   23.2610 C   0  0  0  0  0  0  0  0  0  0  0  0
    5.8240   -5.0120   27.0530 O   0  0  0  0  0  0  0  0  0  0  0  0
    3.7840   -6.7110   26.1520 O   0  0  0  0  0  0  0  0  0  0  0  0
    3.7930   -3.8890   26.0300 C   0  0  0  0  0  0  0  0  0  0  0  0
    4.2890   -2.5980   26.1830 C   0  0  0  0  0  0  0  0  0  0  0  0
    2.2880   -4.0120   25.8420 C   0  0  0  0  0  0  0  0  0  0  0  0
    5.6020   -2.4030   26.3520 F   0  0  0  0  0  0  0  0  0  0  0  0
    1.3720   -2.9230   25.8180 C   0  0  0  0  0  0  0  0  0  0  0  0
    3.4740   -1.4460   26.1750 C   0  0  0  0  0  0  0  0  0  0  0  0
    1.9700   -1.5220   25.9960 C   0  0  0  0  0  0  0  0  0  0  0  0
  1  2  1  0
  2  3  1  6
  1  4  1  0
  1  5  1  0
  4  6  1  0
  2  7  1  0
  5  8  2  0
  5  9  1  0
  3 10  1  0
  3 11  2  0
  7 12  2  0
  7 13  1  0
  8 14  1  0
  9 15  2  0
 14 15  1  0
  6 16  1  0
 15 17  1  0
 16 18  1  0
 13 19  2  0
 12 20  1  0
 10 21  1  0
 16 22  1  0
 16 23  1  0
 17 24  1  0
 17 25  1  0
 17 26  1  0
 18 27  2  0
 18 28  1  0
 19 29  1  0
 20 29  2  0
 21 30  2  0
 21 31  1  0
 22 32  1  0
 23 33  1  0
 30 34  1  0
 31 35  1  0
 30 36  1  0
 31 37  2  0
 32 38  1  0
 33 38  1  0
 34 39  1  0
 38 40  1  0
 36 41  2  0
 37 41  1  0
 40 42  2  0
 40 43  2  0
 40 44  1  0
 44 45  2  0
 44 46  1  0
 45 47  1  0
 46 48  2  0
 45 49  1  0
 48 50  1  0
 49 50  2  0
M  END
