x0769-x2764
     RDKit          3D

 37 40  0  0  0  0  0  0  0  0999 V2000
    5.8510   -5.1090   26.8050 O   0  0  0  0  0  0  0  0  0  0  0  0
    4.8090   -5.3380   25.8340 S   0  0  0  0  0  0  0  0  0  0  0  0
    3.9870   -6.5300   25.8510 O   0  0  0  0  0  0  0  0  0  0  0  0
    3.7200   -3.9310   25.8660 C   0  0  0  0  0  0  0  0  0  0  0  0
    5.5070   -5.3610   24.2890 N   0  0  0  0  0  0  0  0  0  0  0  0
    4.2860   -2.5390   26.0750 C   0  0  0  0  0  0  0  0  0  0  0  0
    2.3420   -4.0860   25.7050 C   0  0  0  0  0  0  0  0  0  0  0  0
    4.8660   -5.9630   23.2240 C   0  0  0  0  0  0  0  0  0  0  0  0
    6.2740   -4.1900   23.8200 C   0  0  0  0  0  0  0  0  0  0  0  0
    5.5950   -2.3150   26.2370 F   0  0  0  0  0  0  0  0  0  0  0  0
    1.4490   -2.8380   25.7510 C   0  0  0  0  0  0  0  0  0  0  0  0
    3.4010   -1.4530   26.1030 C   0  0  0  0  0  0  0  0  0  0  0  0
    5.6890   -6.2320   22.1500 C   0  0  0  0  0  0  0  0  0  0  0  0
    7.3030   -4.5650   22.9470 C   0  0  0  0  0  0  0  0  0  0  0  0
    2.0200   -1.5600   25.9520 C   0  0  0  0  0  0  0  0  0  0  0  0
    6.6280   -5.1710   21.7540 N   0  0  0  0  0  0  0  0  0  0  0  0
    6.2910   -4.4270   20.5990 C   0  0  0  0  0  0  0  0  0  0  0  0
    5.2800   -4.7280   19.9690 O   0  0  0  0  0  0  0  0  0  0  0  0
    7.1570   -3.2800   20.0580 C   0  0  0  0  0  0  0  0  0  0  0  0
    7.3590   -2.0510   20.7730 C   0  0  0  0  0  0  0  0  0  0  0  0
    8.4550   -1.7430   21.0920 N   0  0  0  0  0  0  0  0  0  0  0  0
    6.7520   -0.8200   20.1070 C   0  0  0  0  0  0  0  0  0  0  0  0
    8.9060   -1.5710   22.5250 C   0  0  0  0  0  0  0  0  0  0  0  0
    6.3450   -0.8900   18.7780 C   0  0  0  0  0  0  0  0  0  0  0  0
    6.5480    0.4270   20.7560 C   0  0  0  0  0  0  0  0  0  0  0  0
    6.8840    0.6780   22.0520 O   0  0  0  0  0  0  0  0  0  0  0  0
   10.4470   -1.6350   22.9340 C   0  0  0  0  0  0  0  0  0  0  0  0
    5.7590    0.1320   18.0450 C   0  0  0  0  0  0  0  0  0  0  0  0
    5.9020    1.5700   19.9580 C   0  0  0  0  0  0  0  0  0  0  0  0
    7.8750    1.7160   22.1920 C   0  0  0  0  0  0  0  0  0  0  0  0
   11.4850   -1.7870   22.0290 C   0  0  0  0  0  0  0  0  0  0  0  0
   10.8670   -1.5350   24.2440 C   0  0  0  0  0  0  0  0  0  0  0  0
    5.5340    1.3710   18.6380 C   0  0  0  0  0  0  0  0  0  0  0  0
    7.2060    3.1440   22.2420 C   0  0  0  0  0  0  0  0  0  0  0  0
   12.7020   -1.8070   22.5720 N   0  0  0  0  0  0  0  0  0  0  0  0
   12.5740   -1.6400   24.2320 S   0  0  0  0  0  0  0  0  0  0  0  0
    8.1470    4.2380   22.6750 N   0  0  0  0  0  0  0  0  0  0  0  0
  1  2  2  0
  2  3  2  0
  2  4  1  0
  2  5  1  0
  4  6  2  0
  4  7  1  0
  5  8  1  0
  5  9  1  0
  6 10  1  0
  7 11  2  0
  6 12  1  0
  8 13  1  0
  9 14  1  0
 11 15  1  0
 12 15  2  0
 13 16  1  0
 14 16  1  0
 16 17  1  0
 17 18  2  0
 17 19  1  0
 19 20  2  3
 20 21  1  0
 20 22  1  0
 21 23  1  0
 22 24  2  0
 22 25  1  0
 25 26  1  0
 23 27  1  0
 24 28  1  0
 25 29  2  0
 26 30  1  0
 27 31  1  0
 27 32  2  0
 28 33  2  0
 29 33  1  0
 30 34  1  0
 31 35  2  0
 32 36  1  0
 35 36  1  0
 34 37  3  0
M  END
