x0769-x0978-x2705
     RDKit          3D

 59 63  0  0  0  0  0  0  0  0999 V2000
    7.2960   -1.0280   22.0110 N   0  0  0  0  0  0  0  0  0  0  0  0
    6.9610    0.3150   21.7650 C   0  0  1  0  0  0  0  0  0  0  0  0
    7.8410    1.3460   21.9800 C   0  0  0  0  0  0  0  0  0  0  0  0
    6.2560   -1.6860   22.7450 C   0  0  0  0  0  0  0  0  0  0  0  0
    8.6240   -1.1860   22.6350 C   0  0  0  0  0  0  0  0  0  0  0  0
    5.5290   -2.6870   22.1000 C   0  0  0  0  0  0  0  0  0  0  0  0
    6.3850    0.4760   20.3320 C   0  0  0  0  0  0  0  0  0  0  0  0
    8.7550   -1.4090   24.1370 N   0  0  0  0  0  0  0  0  0  0  0  0
    9.9190   -1.1700   22.1080 C   0  0  0  0  0  0  0  0  0  0  0  0
    7.5650    2.2650   23.0640 N   0  0  0  0  0  0  0  0  0  0  0  0
    8.9270    1.4220   21.0610 O   0  0  0  0  0  0  0  0  0  0  0  0
    5.1460    1.3640   20.2020 C   0  0  0  0  0  0  0  0  0  0  0  0
    6.9330   -0.1390   19.0630 C   0  0  0  0  0  0  0  0  0  0  0  0
   10.0430   -1.5100   24.4970 N   0  0  0  0  0  0  0  0  0  0  0  0
   10.8330   -1.3730   23.3050 C   0  0  0  0  0  0  0  0  0  0  0  0
    6.1630   -4.1330   22.0980 C   0  0  2  0  0  0  0  0  0  0  0  0
   12.3060   -1.4150   23.2500 C   0  0  0  0  0  0  0  0  0  0  0  0
    6.6600   -4.1580   20.6590 C   0  0  0  0  0  0  0  0  0  0  0  0
    6.3680    0.0920   17.8660 N   0  0  0  0  0  0  0  0  0  0  0  0
    4.6260    1.5520   18.9650 C   0  0  0  0  0  0  0  0  0  0  0  0
    8.2360    3.4850   23.0520 C   0  0  0  0  0  0  0  0  0  0  0  0
    5.1930   -5.3320   22.0570 C   0  0  0  0  0  0  0  0  0  0  0  0
    7.1570   -4.4090   23.2420 C   0  0  0  0  0  0  0  0  0  0  0  0
   12.8320   -0.1640   23.6050 C   0  0  0  0  0  0  0  0  0  0  0  0
   12.7900   -2.4640   24.2790 C   0  0  0  0  0  0  0  0  0  0  0  0
   12.8430   -1.8120   21.8640 C   0  0  0  0  0  0  0  0  0  0  0  0
    5.8200   -4.5670   19.8770 O   0  0  0  0  0  0  0  0  0  0  0  0
    8.0390   -3.6200   20.3430 C   0  0  0  0  0  0  0  0  0  0  0  0
    5.1610    0.9800   17.8060 C   0  0  0  0  0  0  0  0  0  0  0  0
    9.5590    3.5030   23.5190 C   0  0  0  0  0  0  0  0  0  0  0  0
    7.5690    4.7680   22.5540 C   0  0  0  0  0  0  0  0  0  0  0  0
    4.3770   -5.3760   23.3430 C   0  0  2  0  0  0  0  0  0  0  0  0
    6.6780   -5.6230   24.0190 C   0  0  0  0  0  0  0  0  0  0  0  0
   10.2150    2.2260   23.9830 C   0  0  0  0  0  0  0  0  0  0  0  0
    6.1480    4.7940   22.0200 C   0  0  0  0  0  0  0  0  0  0  0  0
    3.0820   -6.3780   23.3040 C   0  0  2  0  0  0  0  0  0  0  0  0
    3.9590   -4.1050   23.4650 O   0  0  0  0  0  0  0  0  0  0  0  0
   10.2860    4.7010   23.5550 C   0  0  0  0  0  0  0  0  0  0  0  0
    8.3760    6.0670   22.5980 C   0  0  0  0  0  0  0  0  0  0  0  0
    5.2410   -5.5300   24.3810 N   0  0  0  0  0  0  0  0  0  0  0  0
    9.2820    1.3740   24.8770 C   0  0  0  0  0  0  0  0  0  0  0  0
    1.8120   -5.6200   23.3430 N   0  0  0  0  0  0  0  0  0  0  0  0
    3.1000   -7.3780   24.3210 C   0  0  1  0  0  0  0  0  0  0  0  0
    4.8310   -5.2000   25.9960 S   0  0  0  0  0  0  0  0  0  0  0  0
    9.8100    5.9380   23.1490 C   0  0  0  0  0  0  0  0  0  0  0  0
    2.0760   -8.3780   24.3100 C   0  0  0  0  0  0  0  0  0  0  0  0
    4.2530   -8.0710   24.5110 O   0  0  0  0  0  0  0  0  0  0  0  0
    0.8400   -6.2030   22.6010 C   0  0  0  0  0  0  0  0  0  0  0  0
    5.9920   -4.6730   26.6370 O   0  0  0  0  0  0  0  0  0  0  0  0
    4.1890   -6.3690   26.5360 O   0  0  0  0  0  0  0  0  0  0  0  0
    3.7110   -3.8170   25.9940 C   0  0  0  0  0  0  0  0  0  0  0  0
    0.9670   -7.4140   21.8610 O   0  0  0  0  0  0  0  0  0  0  0  0
   -0.4600   -5.3960   22.6350 C   0  0  0  0  0  0  0  0  0  0  0  0
    4.2510   -2.4140   26.1610 C   0  0  0  0  0  0  0  0  0  0  0  0
    2.3460   -3.9900   25.8450 C   0  0  0  0  0  0  0  0  0  0  0  0
    5.5650   -2.1820   26.3110 F   0  0  0  0  0  0  0  0  0  0  0  0
    1.4350   -2.9310   25.8430 C   0  0  0  0  0  0  0  0  0  0  0  0
    3.3740   -1.3410   26.1620 C   0  0  0  0  0  0  0  0  0  0  0  0
    1.8610   -1.6120   25.9930 C   0  0  0  0  0  0  0  0  0  0  0  0
  1  2  1  0
  2  3  1  6
  1  4  1  0
  1  5  1  0
  4  6  1  0
  2  7  1  0
  5  8  2  0
  5  9  1  0
  3 10  1  0
  3 11  2  0
  7 12  2  0
  7 13  1  0
  8 14  1  0
  9 15  2  0
 14 15  1  0
 16  6  1  1
 15 17  1  0
 16 18  1  0
 13 19  2  0
 12 20  1  0
 10 21  1  0
 16 22  1  0
 16 23  1  0
 17 24  1  0
 17 25  1  0
 17 26  1  0
 18 27  2  0
 18 28  1  0
 19 29  1  0
 20 29  2  0
 21 30  2  0
 21 31  1  0
 22 32  1  0
 23 33  1  0
 30 34  1  0
 31 35  1  0
 32 36  1  0
 32 37  1  1
 30 38  1  0
 31 39  2  0
 32 40  1  0
 33 40  1  0
 34 41  1  0
 36 42  1  1
 36 43  1  0
 40 44  1  0
 38 45  2  0
 39 45  1  0
 43 46  1  6
 43 47  1  0
 42 48  1  0
 44 49  2  0
 44 50  2  0
 44 51  1  0
 48 52  2  0
 48 53  1  0
 51 54  2  0
 51 55  1  0
 54 56  1  0
 55 57  2  0
 54 58  1  0
 57 59  1  0
 58 59  2  0
M  END
