x0769-x3117
     RDKit          3D

 48 52  0  0  0  0  0  0  0  0999 V2000
    6.9450   -1.0270   22.1850 N   0  0  0  0  0  0  0  0  0  0  0  0
    6.7470    0.4410   21.8870 C   0  0  1  0  0  0  0  0  0  0  0  0
    8.0200    1.3550   21.8960 C   0  0  0  0  0  0  0  0  0  0  0  0
    5.9360   -1.9580   21.9360 C   0  0  0  0  0  0  0  0  0  0  0  0
    8.2770   -1.2790   22.5720 C   0  0  0  0  0  0  0  0  0  0  0  0
    5.5620   -3.1080   22.6670 C   0  0  0  0  0  0  0  0  0  0  0  0
    6.1120    0.6620   20.5560 C   0  0  0  0  0  0  0  0  0  0  0  0
    9.2590   -1.6510   21.6960 C   0  0  0  0  0  0  0  0  0  0  0  0
    8.6600   -1.1310   23.8980 C   0  0  0  0  0  0  0  0  0  0  0  0
    7.9930    2.3550   22.8530 N   0  0  0  0  0  0  0  0  0  0  0  0
    8.9580    1.2610   21.1140 O   0  0  0  0  0  0  0  0  0  0  0  0
    4.8370    1.4380   20.3580 C   0  0  0  0  0  0  0  0  0  0  0  0
    6.7210    0.1250   19.2420 C   0  0  0  0  0  0  0  0  0  0  0  0
   10.6980   -1.8990   22.0800 C   0  0  0  0  0  0  0  0  0  0  0  0
    9.9830   -1.3350   24.3270 C   0  0  0  0  0  0  0  0  0  0  0  0
    6.2350   -4.4440   22.1970 C   0  0  0  0  0  0  0  0  0  0  0  0
    6.5570   -4.2540   20.6970 C   0  0  0  0  0  0  0  0  0  0  0  0
    6.2650    0.2730   17.9760 N   0  0  0  0  0  0  0  0  0  0  0  0
    4.3240    1.6070   18.9540 C   0  0  0  0  0  0  0  0  0  0  0  0
    8.8820    3.5090   22.7120 C   0  0  0  0  0  0  0  0  0  0  0  0
   11.0820   -1.7440   23.3850 C   0  0  0  0  0  0  0  0  0  0  0  0
    5.3550   -5.6970   22.1820 C   0  0  0  0  0  0  0  0  0  0  0  0
    7.3500   -4.7960   23.1770 C   0  0  0  0  0  0  0  0  0  0  0  0
   12.5100   -1.9470   23.8420 C   0  0  0  0  0  0  0  0  0  0  0  0
    5.6950   -4.6590   19.9260 O   0  0  0  0  0  0  0  0  0  0  0  0
    7.8280   -3.5220   20.2740 C   0  0  0  0  0  0  0  0  0  0  0  0
    5.1240    0.9820   17.8260 C   0  0  0  0  0  0  0  0  0  0  0  0
    9.9060    3.3820   23.8600 C   0  0  0  0  0  0  0  0  0  0  0  0
    8.0680    4.6490   22.8100 C   0  0  0  0  0  0  0  0  0  0  0  0
    4.8460   -6.1120   23.5700 C   0  0  0  0  0  0  0  0  0  0  0  0
    6.8750   -4.8900   24.4850 C   0  0  0  0  0  0  0  0  0  0  0  0
   13.0020   -0.5760   24.1980 C   0  0  0  0  0  0  0  0  0  0  0  0
   13.3460   -2.4320   22.6830 C   0  0  0  0  0  0  0  0  0  0  0  0
   12.8330   -2.8880   25.0010 C   0  0  0  0  0  0  0  0  0  0  0  0
   10.6170    4.5710   23.7650 C   0  0  0  0  0  0  0  0  0  0  0  0
    8.7590    5.8340   23.0830 C   0  0  0  0  0  0  0  0  0  0  0  0
    5.4040   -5.1650   24.5560 N   0  0  0  0  0  0  0  0  0  0  0  0
    4.7670   -5.2880   25.9360 S   0  0  0  0  0  0  0  0  0  0  0  0
    9.7430    5.6400   24.0980 O   0  0  0  0  0  0  0  0  0  0  0  0
    5.8470   -4.9980   26.8550 O   0  0  0  0  0  0  0  0  0  0  0  0
    3.9060   -6.4140   26.2280 O   0  0  0  0  0  0  0  0  0  0  0  0
    3.6920   -3.8890   25.9440 C   0  0  0  0  0  0  0  0  0  0  0  0
    4.2750   -2.5910   26.0900 C   0  0  0  0  0  0  0  0  0  0  0  0
    2.3000   -4.0850   25.8100 C   0  0  0  0  0  0  0  0  0  0  0  0
    5.5910   -2.4250   26.2140 F   0  0  0  0  0  0  0  0  0  0  0  0
    1.4440   -2.9830   25.8210 C   0  0  0  0  0  0  0  0  0  0  0  0
    3.4670   -1.4350   26.1090 C   0  0  0  0  0  0  0  0  0  0  0  0
    1.9910   -1.5730   25.9760 C   0  0  0  0  0  0  0  0  0  0  0  0
  1  2  1  0
  2  3  1  6
  1  4  1  0
  1  5  1  0
  4  6  1  0
  2  7  1  0
  5  8  2  0
  5  9  1  0
  3 10  1  0
  3 11  2  0
  7 12  2  0
  7 13  1  0
  8 14  1  0
  9 15  2  0
  6 16  1  0
 16 17  1  0
 13 18  2  0
 12 19  1  0
 10 20  1  0
 14 21  2  0
 15 21  1  0
 16 22  1  0
 16 23  1  0
 21 24  1  0
 17 25  2  0
 17 26  1  0
 18 27  1  0
 19 27  2  0
 20 28  1  0
 20 29  1  0
 22 30  1  0
 23 31  1  0
 24 32  1  0
 24 33  1  0
 24 34  1  0
 28 35  1  0
 29 36  1  0
 30 37  1  0
 31 37  1  0
 37 38  1  0
 35 39  1  0
 36 39  1  0
 38 40  2  0
 38 41  2  0
 38 42  1  0
 42 43  2  0
 42 44  1  0
 43 45  1  0
 44 46  2  0
 43 47  1  0
 46 48  1  0
 47 48  2  0
M  END
