x0769-x2608
     RDKit          3D

 37 40  0  0  0  0  0  0  0  0999 V2000
    5.7630   -5.1460   26.8120 O   0  0  0  0  0  0  0  0  0  0  0  0
    4.7550   -5.3380   25.7940 S   0  0  0  0  0  0  0  0  0  0  0  0
    3.9320   -6.5270   25.7560 O   0  0  0  0  0  0  0  0  0  0  0  0
    3.6650   -3.9340   25.8640 C   0  0  0  0  0  0  0  0  0  0  0  0
    5.6410   -5.2050   24.3510 N   0  0  0  0  0  0  0  0  0  0  0  0
    4.2280   -2.5420   26.0980 C   0  0  0  0  0  0  0  0  0  0  0  0
    2.2950   -4.0730   25.7110 C   0  0  0  0  0  0  0  0  0  0  0  0
    5.5960   -6.1270   23.3630 C   0  0  0  0  0  0  0  0  0  0  0  0
    6.8670   -4.6630   24.4640 C   0  0  0  0  0  0  0  0  0  0  0  0
    5.5400   -2.3270   26.2560 F   0  0  0  0  0  0  0  0  0  0  0  0
    1.4160   -2.8260   25.7860 C   0  0  0  0  0  0  0  0  0  0  0  0
    3.3580   -1.4270   26.1550 C   0  0  0  0  0  0  0  0  0  0  0  0
    5.3580   -5.4770   22.1660 C   0  0  0  0  0  0  0  0  0  0  0  0
    7.3850   -4.3670   22.9960 C   0  0  0  0  0  0  0  0  0  0  0  0
    1.9700   -1.5480   26.0040 C   0  0  0  0  0  0  0  0  0  0  0  0
    6.1300   -4.3170   22.0620 C   0  0  0  0  0  0  0  0  0  0  0  0
    6.6290   -4.1380   20.6390 C   0  0  0  0  0  0  0  0  0  0  0  0
    5.2810   -3.0440   22.3060 C   0  0  0  0  0  0  0  0  0  0  0  0
    5.7640   -4.3060   19.7960 O   0  0  0  0  0  0  0  0  0  0  0  0
    8.1070   -3.7450   20.4340 C   0  0  0  0  0  0  0  0  0  0  0  0
    5.9780   -1.6120   22.3800 C   0  0  0  0  0  0  0  0  0  0  0  0
    6.7390   -1.1280   21.1480 N   0  0  0  0  0  0  0  0  0  0  0  0
    8.0210   -0.5160   21.5070 C   0  0  0  0  0  0  0  0  0  0  0  0
    6.0750   -0.2740   20.1280 C   0  0  0  0  0  0  0  0  0  0  0  0
    8.8960   -1.2820   22.4590 N   0  0  0  0  0  0  0  0  0  0  0  0
    8.3210    0.5810   21.0410 O   0  0  0  0  0  0  0  0  0  0  0  0
    6.6760   -0.1840   18.8680 C   0  0  0  0  0  0  0  0  0  0  0  0
    4.8950    0.4480   20.4110 C   0  0  0  0  0  0  0  0  0  0  0  0
   10.1930   -0.6840   22.6510 C   0  0  0  0  0  0  0  0  0  0  0  0
    6.1850    0.6350   17.7480 N   0  0  0  0  0  0  0  0  0  0  0  0
    4.3110    1.2650   19.4480 C   0  0  0  0  0  0  0  0  0  0  0  0
   11.4040   -1.4210   22.8820 C   0  0  0  0  0  0  0  0  0  0  0  0
   10.4550    1.0050   22.6070 S   0  0  0  0  0  0  0  0  0  0  0  0
    4.9730    1.3830   18.0490 C   0  0  0  0  0  0  0  0  0  0  0  0
   12.1310    0.7840   22.8420 C   0  0  0  0  0  0  0  0  0  0  0  0
   12.4710   -0.5640   22.9880 C   0  0  0  0  0  0  0  0  0  0  0  0
   12.9180    2.0010   22.8420 C   0  0  0  0  0  0  0  0  0  0  0  0
  1  2  2  0
  2  3  2  0
  2  4  1  0
  2  5  1  0
  4  6  2  0
  4  7  1  0
  5  8  1  0
  5  9  1  0
  6 10  1  0
  7 11  2  0
  6 12  1  0
  8 13  1  0
  9 14  1  0
 11 15  1  0
 12 15  2  0
 13 16  1  0
 14 16  1  0
 16 17  1  0
 16 18  1  0
 17 19  2  0
 17 20  1  0
 18 21  1  0
 21 22  1  0
 22 23  1  0
 22 24  1  0
 23 25  1  0
 23 26  2  0
 24 27  2  0
 24 28  1  0
 25 29  1  0
 27 30  1  0
 28 31  2  0
 29 32  2  0
 29 33  1  0
 30 34  2  0
 31 34  1  0
 33 35  1  0
 32 36  1  0
 35 36  2  0
 35 37  1  0
M  END
