x0769-x3124-x2694
     RDKit          3D

 51 55  0  0  0  0  0  0  0  0999 V2000
    7.4310   -0.8430   21.9140 N   0  0  0  0  0  0  0  0  0  0  0  0
    7.0320    0.4870   21.7440 C   0  0  1  0  0  0  0  0  0  0  0  0
    8.0750    1.5690   21.7570 C   0  0  0  0  0  0  0  0  0  0  0  0
    6.1750   -1.6790   21.8810 C   0  0  0  0  0  0  0  0  0  0  0  0
    8.6590   -1.1050   22.6400 C   0  0  0  0  0  0  0  0  0  0  0  0
    6.2260   -2.8610   22.8760 C   0  0  0  0  0  0  0  0  0  0  0  0
    6.3440    0.7160   20.4130 C   0  0  0  0  0  0  0  0  0  0  0  0
    8.7750   -1.3650   23.9350 N   0  0  0  0  0  0  0  0  0  0  0  0
    9.8910   -1.0960   22.0490 C   0  0  0  0  0  0  0  0  0  0  0  0
    7.6800    2.6530   22.5310 N   0  0  0  0  0  0  0  0  0  0  0  0
    9.0970    1.4950   21.1140 O   0  0  0  0  0  0  0  0  0  0  0  0
    5.2220    1.5140   20.3440 C   0  0  0  0  0  0  0  0  0  0  0  0
    6.8700    0.0940   19.1200 C   0  0  0  0  0  0  0  0  0  0  0  0
   10.0420   -1.5030   24.1820 O   0  0  0  0  0  0  0  0  0  0  0  0
   10.8150   -1.3500   23.0330 C   0  0  0  0  0  0  0  0  0  0  0  0
    6.1730   -4.2740   22.1930 C   0  0  0  0  0  0  0  0  0  0  0  0
   12.3450   -1.4240   22.9130 C   0  0  0  0  0  0  0  0  0  0  0  0
    6.5160   -4.1560   20.6990 C   0  0  0  0  0  0  0  0  0  0  0  0
    6.3150    0.2820   17.9070 N   0  0  0  0  0  0  0  0  0  0  0  0
    4.6440    1.6870   18.9670 C   0  0  0  0  0  0  0  0  0  0  0  0
    8.5090    3.6700   22.9430 C   0  0  0  0  0  0  0  0  0  0  0  0
    4.9440   -4.9390   22.3500 C   0  0  0  0  0  0  0  0  0  0  0  0
    7.2670   -5.0890   22.8870 C   0  0  0  0  0  0  0  0  0  0  0  0
   12.9180   -0.0220   23.1870 C   0  0  0  0  0  0  0  0  0  0  0  0
   12.7490   -1.8670   21.5350 C   0  0  0  0  0  0  0  0  0  0  0  0
   13.1450   -2.3650   23.8500 C   0  0  0  0  0  0  0  0  0  0  0  0
    5.6560   -4.4960   19.8890 O   0  0  0  0  0  0  0  0  0  0  0  0
    7.8900   -3.5560   20.3730 C   0  0  0  0  0  0  0  0  0  0  0  0
    5.1970    1.0900   17.8600 C   0  0  0  0  0  0  0  0  0  0  0  0
    9.8230    3.4700   23.2500 C   0  0  0  0  0  0  0  0  0  0  0  0
    8.0060    4.9640   23.0530 C   0  0  0  0  0  0  0  0  0  0  0  0
    4.9010   -6.0280   23.1480 C   0  0  0  0  0  0  0  0  0  0  0  0
    6.9520   -5.2000   24.2200 C   0  0  0  0  0  0  0  0  0  0  0  0
   10.5890    2.1880   23.1840 C   0  0  0  0  0  0  0  0  0  0  0  0
   12.2910   -2.7000   25.0450 C   0  0  0  0  0  0  0  0  0  0  0  0
   10.6850    4.4690   23.6810 C   0  0  0  0  0  0  0  0  0  0  0  0
    8.8460    5.9970   23.4780 C   0  0  0  0  0  0  0  0  0  0  0  0
    5.6030   -5.7750   24.4260 N   0  0  0  0  0  0  0  0  0  0  0  0
    4.7110   -5.3020   25.7970 S   0  0  0  0  0  0  0  0  0  0  0  0
   10.1980    5.7760   23.8060 C   0  0  0  0  0  0  0  0  0  0  0  0
   10.9180    6.6930   24.1850 O   0  0  0  0  0  0  0  0  0  0  0  0
    5.7300   -5.0220   26.7810 O   0  0  0  0  0  0  0  0  0  0  0  0
    3.8650   -6.4480   26.0310 O   0  0  0  0  0  0  0  0  0  0  0  0
    3.6650   -3.8770   25.8800 C   0  0  0  0  0  0  0  0  0  0  0  0
   11.9010    6.4080   25.1780 C   0  0  0  0  0  0  0  0  0  0  0  0
    4.2180   -2.6160   26.0950 C   0  0  0  0  0  0  0  0  0  0  0  0
    2.2750   -3.9560   25.7380 C   0  0  0  0  0  0  0  0  0  0  0  0
    5.5430   -2.4560   26.2420 F   0  0  0  0  0  0  0  0  0  0  0  0
    1.4790   -2.8230   25.8130 C   0  0  0  0  0  0  0  0  0  0  0  0
    3.4140   -1.4710   26.1700 C   0  0  0  0  0  0  0  0  0  0  0  0
    2.0360   -1.5710   26.0300 C   0  0  0  0  0  0  0  0  0  0  0  0
  1  2  1  0
  2  3  1  6
  1  4  1  0
  1  5  1  0
  4  6  1  0
  2  7  1  0
  5  8  2  0
  5  9  1  0
  3 10  1  0
  3 11  2  0
  7 12  2  0
  7 13  1  0
  8 14  1  0
  9 15  2  0
 14 15  1  0
  6 16  1  0
 15 17  1  0
 16 18  1  0
 13 19  2  0
 12 20  1  0
 10 21  1  0
 16 22  1  0
 16 23  1  0
 17 24  1  0
 17 25  1  0
 17 26  1  0
 18 27  2  0
 18 28  1  0
 19 29  1  0
 20 29  2  0
 21 30  2  0
 21 31  1  0
 22 32  1  0
 23 33  1  0
 30 34  1  0
 26 35  1  0
 30 36  1  0
 31 37  2  0
 32 38  1  0
 33 38  1  0
 38 39  1  0
 36 40  2  0
 37 40  1  0
 40 41  1  0
 39 42  2  0
 39 43  2  0
 39 44  1  0
 41 45  1  0
 44 46  2  0
 44 47  1  0
 46 48  1  0
 47 49  2  0
 46 50  1  0
 49 51  1  0
 50 51  2  0
M  END
