x0769-x3115
     RDKit          3D

 45 48  0  0  0  0  0  0  0  0999 V2000
    7.1380   -1.4920   21.9990 N   0  0  0  0  0  0  0  0  0  0  0  0
    6.7080   -0.0710   21.8110 C   0  0  1  0  0  0  0  0  0  0  0  0
    7.8120    0.9630   21.9830 C   0  0  0  0  0  0  0  0  0  0  0  0
    6.3070   -2.4460   22.5720 C   0  0  0  0  0  0  0  0  0  0  0  0
    8.4190   -1.5710   22.5870 C   0  0  0  0  0  0  0  0  0  0  0  0
    6.1490    0.3120   20.4960 C   0  0  0  0  0  0  0  0  0  0  0  0
    9.4990   -1.8920   21.8300 C   0  0  0  0  0  0  0  0  0  0  0  0
    8.6440   -1.3380   23.9280 C   0  0  0  0  0  0  0  0  0  0  0  0
    7.0190   -3.8580   22.7350 C   0  0  2  0  0  0  0  0  0  0  0  0
    7.9590    1.5760   23.2200 N   0  0  0  0  0  0  0  0  0  0  0  0
    8.5680    1.3100   21.0640 O   0  0  0  0  0  0  0  0  0  0  0  0
    5.0120    1.0640   20.3320 C   0  0  0  0  0  0  0  0  0  0  0  0
    6.8300   -0.1030   19.1110 C   0  0  0  0  0  0  0  0  0  0  0  0
   10.7910   -1.9980   22.2710 C   0  0  0  0  0  0  0  0  0  0  0  0
    9.9570   -1.4380   24.4060 C   0  0  0  0  0  0  0  0  0  0  0  0
    6.5960   -4.7660   21.6440 N   0  0  0  0  0  0  0  0  0  0  0  0
    6.7800   -4.4740   24.1000 C   0  0  0  0  0  0  0  0  0  0  0  0
    8.6220    2.8890   23.4370 C   0  0  0  0  0  0  0  0  0  0  0  0
    6.2860   -4.2820   20.3710 C   0  0  0  0  0  0  0  0  0  0  0  0
    6.3490    0.2560   17.8940 N   0  0  0  0  0  0  0  0  0  0  0  0
    4.5520    1.4070   19.0740 C   0  0  0  0  0  0  0  0  0  0  0  0
   11.1350   -1.7740   23.6110 C   0  0  0  0  0  0  0  0  0  0  0  0
    6.0350   -6.0630   22.0950 C   0  0  0  0  0  0  0  0  0  0  0  0
    5.4440   -5.0720   24.2080 N   0  0  0  0  0  0  0  0  0  0  0  0
    8.1060    4.0800   22.6320 C   0  0  0  0  0  0  0  0  0  0  0  0
   12.5150   -1.8540   24.1170 C   0  0  0  0  0  0  0  0  0  0  0  0
    5.2230   -4.6110   19.8890 O   0  0  0  0  0  0  0  0  0  0  0  0
    7.2620   -3.3530   19.6140 C   0  0  0  0  0  0  0  0  0  0  0  0
    4.6750   -5.2120   25.7150 S   0  0  0  0  0  0  0  0  0  0  0  0
    5.2260    1.0010   17.9500 C   0  0  0  0  0  0  0  0  0  0  0  0
    4.9870   -5.8710   23.0410 C   0  0  0  0  0  0  0  0  0  0  0  0
    8.6090    5.1410   23.0140 O   0  0  0  0  0  0  0  0  0  0  0  0
   13.4700   -2.0450   23.0420 C   0  0  0  0  0  0  0  0  0  0  0  0
   12.7440   -2.9890   25.0110 C   0  0  0  0  0  0  0  0  0  0  0  0
   12.6520   -0.5620   24.9760 C   0  0  0  0  0  0  0  0  0  0  0  0
    5.9550   -5.0840   26.9940 O   0  0  0  0  0  0  0  0  0  0  0  0
    3.8120   -6.3660   25.6370 O   0  0  0  0  0  0  0  0  0  0  0  0
    3.7190   -3.8310   25.8540 C   0  0  0  0  0  0  0  0  0  0  0  0
    8.2390    6.2650   22.2170 C   0  0  0  0  0  0  0  0  0  0  0  0
    4.2260   -2.5700   26.1110 C   0  0  0  0  0  0  0  0  0  0  0  0
    2.1910   -3.9870   25.6790 C   0  0  0  0  0  0  0  0  0  0  0  0
    5.5560   -2.3830   26.2720 F   0  0  0  0  0  0  0  0  0  0  0  0
    1.3910   -2.8480   25.7890 C   0  0  0  0  0  0  0  0  0  0  0  0
    3.3540   -1.4920   26.2020 C   0  0  0  0  0  0  0  0  0  0  0  0
    1.9540   -1.5930   26.0510 C   0  0  0  0  0  0  0  0  0  0  0  0
  1  2  1  0
  2  3  1  6
  1  4  1  0
  1  5  1  0
  2  6  1  0
  5  7  2  0
  5  8  1  0
  9  4  1  1
  3 10  1  0
  3 11  2  0
  6 12  2  0
  6 13  1  0
  7 14  1  0
  8 15  2  0
  9 16  1  0
  9 17  1  0
 10 18  1  0
 16 19  1  0
 13 20  2  0
 12 21  1  0
 14 22  2  0
 15 22  1  0
 16 23  1  0
 17 24  1  0
 18 25  1  0
 22 26  1  0
 19 27  2  0
 19 28  1  0
 24 29  1  0
 20 30  1  0
 21 30  2  0
 23 31  1  0
 24 31  1  0
 25 32  1  0
 26 33  1  0
 26 34  1  0
 26 35  1  0
 29 36  2  0
 29 37  2  0
 29 38  1  0
 32 39  1  0
 38 40  2  0
 38 41  1  0
 40 42  1  0
 41 43  2  0
 40 44  1  0
 43 45  1  0
 44 45  2  0
M  END
