x0769-x2703-x3117
     RDKit          3D

 50 54  0  0  0  0  0  0  0  0999 V2000
    7.1580   -1.4590   21.9290 N   0  0  0  0  0  0  0  0  0  0  0  0
    6.7150   -0.0320   21.6650 C   0  0  1  0  0  0  0  0  0  0  0  0
    7.7630    1.0910   21.8630 C   0  0  0  0  0  0  0  0  0  0  0  0
    6.1750   -2.4510   22.4390 C   0  0  0  0  0  0  0  0  0  0  0  0
    8.4070   -1.5430   22.5480 C   0  0  0  0  0  0  0  0  0  0  0  0
    6.1210    0.2780   20.3030 C   0  0  0  0  0  0  0  0  0  0  0  0
    8.6740   -1.3970   23.8860 C   0  0  0  0  0  0  0  0  0  0  0  0
    9.4580   -1.8020   21.7470 C   0  0  0  0  0  0  0  0  0  0  0  0
    6.8840   -3.7670   22.7150 C   0  0  2  0  0  0  0  0  0  0  0  0
    7.4480    1.9750   22.8750 N   0  0  0  0  0  0  0  0  0  0  0  0
    8.7700    1.2480   21.1620 O   0  0  0  0  0  0  0  0  0  0  0  0
    4.8100    1.0290   20.2190 C   0  0  0  0  0  0  0  0  0  0  0  0
    6.8210   -0.1160   19.1780 C   0  0  0  0  0  0  0  0  0  0  0  0
   10.8390   -1.9250   22.1970 N   0  0  0  0  0  0  0  0  0  0  0  0
    9.9500   -1.4940   24.3880 C   0  0  0  0  0  0  0  0  0  0  0  0
    6.5480   -4.8060   21.7310 N   0  0  0  0  0  0  0  0  0  0  0  0
    6.7900   -4.4000   24.1040 C   0  0  0  0  0  0  0  0  0  0  0  0
    6.1840   -4.4520   20.4440 C   0  0  0  0  0  0  0  0  0  0  0  0
    6.3030    0.2050   17.9540 N   0  0  0  0  0  0  0  0  0  0  0  0
    4.3370    1.3210   18.9700 C   0  0  0  0  0  0  0  0  0  0  0  0
   11.0750   -1.7490   23.6240 C   0  0  0  0  0  0  0  0  0  0  0  0
    8.1450    3.2770   22.9460 C   0  0  0  0  0  0  0  0  0  0  0  0
    5.9690   -6.0590   22.2770 C   0  0  0  0  0  0  0  0  0  0  0  0
    5.4160   -4.9770   24.2360 N   0  0  0  0  0  0  0  0  0  0  0  0
   12.4680   -1.8330   24.1160 C   0  0  0  0  0  0  0  0  0  0  0  0
    5.2310   -5.0100   19.9710 O   0  0  0  0  0  0  0  0  0  0  0  0
    6.9630   -3.4280   19.6200 C   0  0  0  0  0  0  0  0  0  0  0  0
    4.7930   -5.2170   25.8070 S   0  0  0  0  0  0  0  0  0  0  0  0
    5.1200    0.8930   17.8880 C   0  0  0  0  0  0  0  0  0  0  0  0
    9.4360    3.3190   23.5060 C   0  0  0  0  0  0  0  0  0  0  0  0
    7.5450    4.4470   22.4680 C   0  0  0  0  0  0  0  0  0  0  0  0
    4.8920   -5.7360   23.0690 C   0  0  0  0  0  0  0  0  0  0  0  0
   10.0910    2.0560   24.0110 C   0  0  0  0  0  0  0  0  0  0  0  0
    6.1700    4.4470   21.8530 C   0  0  0  0  0  0  0  0  0  0  0  0
   12.8290   -2.9820   25.0580 C   0  0  0  0  0  0  0  0  0  0  0  0
   12.7210   -0.5310   24.8460 C   0  0  0  0  0  0  0  0  0  0  0  0
   13.4050   -1.9130   22.9230 C   0  0  0  0  0  0  0  0  0  0  0  0
    5.6280   -5.0740   26.9750 O   0  0  0  0  0  0  0  0  0  0  0  0
    3.9500   -6.3870   25.7250 O   0  0  0  0  0  0  0  0  0  0  0  0
   10.1450    4.5210   23.6070 C   0  0  0  0  0  0  0  0  0  0  0  0
    8.2710    5.6340   22.5800 C   0  0  0  0  0  0  0  0  0  0  0  0
    3.6920   -3.8380   25.8920 C   0  0  0  0  0  0  0  0  0  0  0  0
    9.1590    1.3390   24.9960 C   0  0  0  0  0  0  0  0  0  0  0  0
    9.5500    5.7080   23.1360 C   0  0  0  0  0  0  0  0  0  0  0  0
    4.2170   -2.5650   26.1230 C   0  0  0  0  0  0  0  0  0  0  0  0
    2.3690   -4.0570   25.7280 C   0  0  0  0  0  0  0  0  0  0  0  0
    5.5380   -2.4130   26.2790 F   0  0  0  0  0  0  0  0  0  0  0  0
    1.5150   -2.9240   25.8020 C   0  0  0  0  0  0  0  0  0  0  0  0
    3.4010   -1.4550   26.1960 C   0  0  0  0  0  0  0  0  0  0  0  0
    2.0290   -1.6110   26.0390 C   0  0  0  0  0  0  0  0  0  0  0  0
  1  2  1  0
  2  3  1  6
  1  4  1  0
  1  5  1  0
  2  6  1  0
  5  7  2  0
  5  8  1  0
  9  4  1  1
  3 10  1  0
  3 11  2  0
  6 12  2  0
  6 13  1  0
  8 14  2  0
  7 15  1  0
  9 16  1  0
  9 17  1  0
 16 18  1  0
 13 19  2  0
 12 20  1  0
 14 21  1  0
 15 21  2  0
 10 22  1  0
 16 23  1  0
 17 24  1  0
 21 25  1  0
 18 26  2  0
 18 27  1  0
 24 28  1  0
 19 29  1  0
 20 29  2  0
 22 30  2  0
 22 31  1  0
 23 32  1  0
 24 32  1  0
 30 33  1  0
 31 34  1  0
 25 35  1  0
 25 36  1  0
 25 37  1  0
 28 38  2  0
 28 39  2  0
 30 40  1  0
 31 41  2  0
 28 42  1  0
 33 43  1  0
 40 44  2  0
 41 44  1  0
 42 45  2  0
 42 46  1  0
 45 47  1  0
 46 48  2  0
 45 49  1  0
 48 50  1  0
 49 50  2  0
M  END
