x0769-x0978-x3124-x2540
     RDKit          3D

 55 58  0  0  0  0  0  0  0  0999 V2000
    7.2990   -1.0610   22.0630 N   0  0  0  0  0  0  0  0  0  0  0  0
    7.0670    0.3190   21.7580 C   0  0  1  0  0  0  0  0  0  0  0  0
    8.1560    1.3590   22.0140 C   0  0  0  0  0  0  0  0  0  0  0  0
    6.2560   -1.7890   22.7610 C   0  0  0  0  0  0  0  0  0  0  0  0
    8.5430   -1.2680   22.8200 C   0  0  0  0  0  0  0  0  0  0  0  0
    5.5030   -2.7310   22.0090 C   0  0  0  0  0  0  0  0  0  0  0  0
    6.3950    0.5860   20.3660 C   0  0  0  0  0  0  0  0  0  0  0  0
    8.7400   -1.6370   24.2260 N   0  0  0  0  0  0  0  0  0  0  0  0
    9.7660   -1.1380   22.2950 C   0  0  0  0  0  0  0  0  0  0  0  0
    8.2740    1.7800   23.1000 N   0  0  0  0  0  0  0  0  0  0  0  0
    8.8610    1.7750   21.0880 O   0  0  0  0  0  0  0  0  0  0  0  0
    5.3160    1.4360   20.2430 C   0  0  0  0  0  0  0  0  0  0  0  0
    6.9010   -0.0430   19.2090 C   0  0  0  0  0  0  0  0  0  0  0  0
   10.1290   -1.6800   24.3970 O   0  0  0  0  0  0  0  0  0  0  0  0
   10.7760   -1.3800   23.2230 C   0  0  0  0  0  0  0  0  0  0  0  0
    5.9500   -4.2850   21.9700 C   0  0  2  0  0  0  0  0  0  0  0  0
    8.9540    2.9260   23.3680 C   0  0  0  0  0  0  0  0  0  0  0  0
   12.3250   -1.3390   23.1000 C   0  0  0  0  0  0  0  0  0  0  0  0
    6.2550   -4.4830   20.5060 C   0  0  0  0  0  0  0  0  0  0  0  0
    6.3880    0.1460   17.9620 N   0  0  0  0  0  0  0  0  0  0  0  0
    4.7290    1.6860   19.0140 C   0  0  0  0  0  0  0  0  0  0  0  0
    5.0430   -5.3460   22.2710 C   0  0  0  0  0  0  0  0  0  0  0  0
    7.1190   -4.6260   22.9360 C   0  0  0  0  0  0  0  0  0  0  0  0
    8.9740    3.3690   24.8450 C   0  0  0  0  0  0  0  0  0  0  0  0
    8.3790    4.1200   22.4970 C   0  0  0  0  0  0  0  0  0  0  0  0
   10.4440    2.8650   22.9240 C   0  0  0  0  0  0  0  0  0  0  0  0
   12.7600   -1.7030   21.6840 C   0  0  0  0  0  0  0  0  0  0  0  0
   12.8670   -0.0350   23.6310 C   0  0  0  0  0  0  0  0  0  0  0  0
   12.9070   -2.3830   23.7060 C   0  0  0  0  0  0  0  0  0  0  0  0
    5.7620   -5.4590   19.9910 O   0  0  0  0  0  0  0  0  0  0  0  0
    7.0420   -3.4550   19.6870 C   0  0  0  0  0  0  0  0  0  0  0  0
    5.2220    1.0810   17.8880 C   0  0  0  0  0  0  0  0  0  0  0  0
    4.3800   -5.3010   23.4530 C   0  0  2  0  0  0  0  0  0  0  0  0
    6.7530   -4.8410   24.2770 C   0  0  0  0  0  0  0  0  0  0  0  0
   12.4390   -2.5580   24.9930 C   0  0  0  0  0  0  0  0  0  0  0  0
    3.1990   -6.2780   23.3800 C   0  0  2  0  0  0  0  0  0  0  0  0
    3.8760   -3.9500   23.5130 O   0  0  0  0  0  0  0  0  0  0  0  0
    5.3620   -5.3240   24.5860 N   0  0  0  0  0  0  0  0  0  0  0  0
    2.0510   -5.5490   23.2470 N   0  0  0  0  0  0  0  0  0  0  0  0
    3.0910   -7.2730   24.3540 C   0  0  1  0  0  0  0  0  0  0  0  0
    4.9130   -5.1550   25.9540 S   0  0  0  0  0  0  0  0  0  0  0  0
    2.1170   -8.2700   24.2490 C   0  0  0  0  0  0  0  0  0  0  0  0
    4.3590   -7.9480   24.4010 O   0  0  0  0  0  0  0  0  0  0  0  0
    0.8590   -6.1350   22.5990 C   0  0  0  0  0  0  0  0  0  0  0  0
    6.0490   -4.6840   26.6920 O   0  0  0  0  0  0  0  0  0  0  0  0
    4.2280   -6.3240   26.4430 O   0  0  0  0  0  0  0  0  0  0  0  0
    3.7620   -3.8110   25.9680 C   0  0  0  0  0  0  0  0  0  0  0  0
    0.9220   -7.2080   22.0180 O   0  0  0  0  0  0  0  0  0  0  0  0
   -0.3680   -5.4600   22.6350 C   0  0  0  0  0  0  0  0  0  0  0  0
    4.2330   -2.4940   26.1370 C   0  0  0  0  0  0  0  0  0  0  0  0
    2.2490   -4.0380   25.8020 C   0  0  0  0  0  0  0  0  0  0  0  0
    5.5350   -2.2250   26.2900 F   0  0  0  0  0  0  0  0  0  0  0  0
    1.3920   -2.9300   25.8250 C   0  0  0  0  0  0  0  0  0  0  0  0
    3.3330   -1.4310   26.1520 C   0  0  0  0  0  0  0  0  0  0  0  0
    1.9560   -1.6660   25.9990 C   0  0  0  0  0  0  0  0  0  0  0  0
  1  2  1  0
  2  3  1  6
  1  4  1  0
  1  5  1  0
  4  6  1  0
  2  7  1  0
  5  8  2  0
  5  9  1  0
  3 10  1  0
  3 11  2  0
  7 12  2  0
  7 13  1  0
  8 14  1  0
  9 15  2  0
 14 15  1  0
 16  6  1  6
 17 10  1  0
 15 18  1  0
 16 19  1  0
 13 20  2  0
 12 21  1  0
 16 22  1  0
 16 23  1  0
 17 24  1  0
 17 25  1  0
 17 26  1  0
 18 27  1  0
 18 28  1  0
 18 29  1  0
 19 30  2  0
 19 31  1  0
 20 32  1  0
 21 32  2  0
 22 33  1  0
 23 34  1  0
 29 35  1  0
 33 36  1  0
 33 37  1  6
 33 38  1  0
 34 38  1  0
 36 39  1  1
 36 40  1  0
 38 41  1  0
 40 42  1  6
 40 43  1  0
 39 44  1  0
 41 45  2  0
 41 46  2  0
 41 47  1  0
 44 48  2  0
 44 49  1  0
 47 50  2  0
 47 51  1  0
 50 52  1  0
 51 53  2  0
 50 54  1  0
 53 55  1  0
 54 55  2  0
M  END
