x0769-x2600
     RDKit          3D

 40 43  0  0  0  0  0  0  0  0999 V2000
    5.9450   -5.1440   26.6640 O   0  0  0  0  0  0  0  0  0  0  0  0
    4.8730   -5.2870   25.7120 S   0  0  0  0  0  0  0  0  0  0  0  0
    3.9980   -6.4430   25.7300 O   0  0  0  0  0  0  0  0  0  0  0  0
    3.8180   -3.8280   25.8020 C   0  0  0  0  0  0  0  0  0  0  0  0
    5.5190   -5.3120   24.1380 N   0  0  0  0  0  0  0  0  0  0  0  0
    4.3290   -2.4160   25.8370 C   0  0  0  0  0  0  0  0  0  0  0  0
    2.4320   -4.0830   25.8450 C   0  0  0  0  0  0  0  0  0  0  0  0
    4.6930   -5.8150   23.0320 C   0  0  0  0  0  0  0  0  0  0  0  0
    6.2530   -4.1860   23.8410 C   0  0  0  0  0  0  0  0  0  0  0  0
    5.6950   -1.9440   25.7950 O   0  0  0  0  0  0  0  0  0  0  0  0
    1.5590   -2.9680   25.9260 C   0  0  0  0  0  0  0  0  0  0  0  0
    3.3900   -1.3670   25.9220 C   0  0  0  0  0  0  0  0  0  0  0  0
    5.8100   -6.2480   22.3230 C   0  0  0  0  0  0  0  0  0  0  0  0
    7.2680   -4.5440   22.9750 C   0  0  0  0  0  0  0  0  0  0  0  0
    5.7820   -1.1780   24.5480 C   0  0  0  0  0  0  0  0  0  0  0  0
    2.0390   -1.6580   25.9660 C   0  0  0  0  0  0  0  0  0  0  0  0
    6.5330   -5.2350   21.8970 N   0  0  0  0  0  0  0  0  0  0  0  0
    6.2930   -4.6050   20.6490 C   0  0  0  0  0  0  0  0  0  0  0  0
    7.0040   -0.3490   24.5860 C   0  0  0  0  0  0  0  0  0  0  0  0
    5.3270   -4.9580   19.9910 O   0  0  0  0  0  0  0  0  0  0  0  0
    7.2010   -3.5030   20.0910 C   0  0  0  0  0  0  0  0  0  0  0  0
    7.8850    0.4100   24.2520 C   0  0  0  0  0  0  0  0  0  0  0  0
    8.6200   -0.3130   23.1470 C   0  0  1  0  0  0  0  0  0  0  0  0
    8.3140    0.3050   21.8090 C   0  0  0  0  0  0  0  0  0  0  0  0
   10.1060   -0.4920   23.3970 C   0  0  0  0  0  0  0  0  0  0  0  0
    8.9460    1.2830   21.3580 O   0  0  0  0  0  0  0  0  0  0  0  0
    7.2850   -0.3260   21.1680 N   0  0  0  0  0  0  0  0  0  0  0  0
   10.6620   -0.2970   24.7070 C   0  0  0  0  0  0  0  0  0  0  0  0
   10.9330   -0.8440   22.3490 C   0  0  0  0  0  0  0  0  0  0  0  0
    6.5190    0.2800   20.0180 C   0  0  0  0  0  0  0  0  0  0  0  0
   12.0310   -0.4560   24.9400 C   0  0  0  0  0  0  0  0  0  0  0  0
   12.4060   -1.0080   22.5940 C   0  0  0  0  0  0  0  0  0  0  0  0
   13.2100   -1.3290   21.5400 C   0  0  0  0  0  0  0  0  0  0  0  0
    6.9390   -0.0070   18.7250 C   0  0  0  0  0  0  0  0  0  0  0  0
    5.4520    1.0960   20.2780 C   0  0  0  0  0  0  0  0  0  0  0  0
   12.9610   -0.8380   23.7990 C   0  0  0  0  0  0  0  0  0  0  0  0
   14.0070   -1.4750   20.3790 N   0  0  0  0  0  0  0  0  0  0  0  0
    6.2800    0.5480   17.6570 N   0  0  0  0  0  0  0  0  0  0  0  0
    4.7760    1.6610   19.2320 C   0  0  0  0  0  0  0  0  0  0  0  0
    5.1360    1.4370   17.9170 C   0  0  0  0  0  0  0  0  0  0  0  0
  1  2  2  0
  2  3  2  0
  2  4  1  0
  2  5  1  0
  4  6  1  0
  4  7  2  0
  5  8  1  0
  5  9  1  0
  6 10  1  0
  7 11  1  0
  6 12  2  0
  8 13  1  0
  9 14  1  0
 10 15  1  0
 11 16  2  0
 12 16  1  0
 13 17  1  0
 14 17  1  0
 17 18  1  0
 15 19  1  0
 18 20  2  0
 18 21  1  0
 19 22  1  0
 23 22  1  1
 23 24  1  0
 23 25  1  0
 24 26  2  0
 24 27  1  0
 25 28  2  0
 25 29  1  0
 27 30  1  0
 28 31  1  0
 29 32  2  0
 32 33  1  0
 30 34  2  0
 30 35  1  0
 31 36  2  0
 32 36  1  0
 33 37  3  0
 34 38  1  0
 35 39  2  0
 38 40  2  0
 39 40  1  0
M  END
