x0769-x2910
     RDKit          3D

 45 49  0  0  0  0  0  0  0  0999 V2000
    7.1910   -1.3260   21.0230 N   0  0  0  0  0  0  0  0  0  0  0  0
    7.6570   -2.0520   22.1520 C   0  0  1  0  0  0  0  0  0  0  0  0
    8.4860   -1.0420   22.9320 C   0  0  0  0  0  0  0  0  0  0  0  0
    5.7880   -1.5100   20.6190 C   0  0  0  0  0  0  0  0  0  0  0  0
    5.0900   -2.5070   20.8230 O   0  0  0  0  0  0  0  0  0  0  0  0
    6.5930   -2.9540   22.8220 C   0  0  0  0  0  0  0  0  0  0  0  0
    5.3450   -0.3170   19.8990 C   0  0  0  0  0  0  0  0  0  0  0  0
    9.5770   -1.5860   23.0170 O   0  0  0  0  0  0  0  0  0  0  0  0
    4.3580    0.5060   20.3610 C   0  0  0  0  0  0  0  0  0  0  0  0
    6.0690   -0.0130   18.5610 C   0  0  0  0  0  0  0  0  0  0  0  0
    6.4770   -4.3840   22.1450 C   0  0  0  0  0  0  0  0  0  0  0  0
    6.6540   -4.3480   20.5800 C   0  0  0  0  0  0  0  0  0  0  0  0
   10.8410   -0.9360   22.8710 C   0  0  0  0  0  0  0  0  0  0  0  0
    4.0280    1.6150   19.5820 C   0  0  0  0  0  0  0  0  0  0  0  0
    5.6490    1.0970   17.9190 C   0  0  0  0  0  0  0  0  0  0  0  0
    3.6780    0.2790   21.5720 C   0  0  0  0  0  0  0  0  0  0  0  0
    5.1670   -5.1470   22.3210 C   0  0  0  0  0  0  0  0  0  0  0  0
    7.5360   -5.2210   22.8930 C   0  0  0  0  0  0  0  0  0  0  0  0
    6.2640    1.4260   16.7180 O   0  0  0  0  0  0  0  0  0  0  0  0
    5.8260   -5.0430   20.0030 O   0  0  0  0  0  0  0  0  0  0  0  0
    7.6480   -3.4640   19.7710 C   0  0  0  0  0  0  0  0  0  0  0  0
   11.0540    0.3490   23.3420 C   0  0  0  0  0  0  0  0  0  0  0  0
   11.9950   -1.6530   22.1970 C   0  0  0  0  0  0  0  0  0  0  0  0
    4.6830    1.9270   18.3360 N   0  0  0  0  0  0  0  0  0  0  0  0
    3.0110    2.4860   20.0100 C   0  0  0  0  0  0  0  0  0  0  0  0
    2.6720    1.1540   21.9890 C   0  0  0  0  0  0  0  0  0  0  0  0
    4.9660   -5.8700   23.5000 C   0  0  0  0  0  0  0  0  0  0  0  0
    7.1940   -5.1790   24.3950 C   0  0  0  0  0  0  0  0  0  0  0  0
   10.0620    1.0700   23.9560 O   0  0  0  0  0  0  0  0  0  0  0  0
   13.2370   -1.0800   22.0440 C   0  0  0  0  0  0  0  0  0  0  0  0
   12.3300    0.9120   23.1810 C   0  0  0  0  0  0  0  0  0  0  0  0
    2.2900    2.3160   21.2050 C   0  0  0  0  0  0  0  0  0  0  0  0
    5.7060   -5.1490   24.5510 N   0  0  0  0  0  0  0  0  0  0  0  0
   10.2240    2.4720   23.6710 C   0  0  0  0  0  0  0  0  0  0  0  0
    4.9450   -5.2430   26.1100 S   0  0  0  0  0  0  0  0  0  0  0  0
   13.3500    0.2220   22.5670 C   0  0  0  0  0  0  0  0  0  0  0  0
    6.0450   -5.1010   27.0360 O   0  0  0  0  0  0  0  0  0  0  0  0
    4.0920   -6.4100   26.1020 O   0  0  0  0  0  0  0  0  0  0  0  0
    3.9280   -3.8790   26.1450 C   0  0  0  0  0  0  0  0  0  0  0  0
    4.4390   -2.4330   26.0920 C   0  0  0  0  0  0  0  0  0  0  0  0
    2.5620   -4.1500   26.2310 C   0  0  0  0  0  0  0  0  0  0  0  0
    5.7460   -2.1600   26.0190 F   0  0  0  0  0  0  0  0  0  0  0  0
    1.5630   -2.9400   26.2690 C   0  0  0  0  0  0  0  0  0  0  0  0
    3.5490   -1.3530   26.1230 C   0  0  0  0  0  0  0  0  0  0  0  0
    2.0350   -1.6250   26.2150 C   0  0  0  0  0  0  0  0  0  0  0  0
  1  2  1  0
  2  3  1  1
  1  4  1  0
  4  5  2  0
  2  6  1  0
  4  7  1  0
  3  8  1  0
  7  9  1  0
  7 10  2  0
  6 11  1  0
 11 12  1  0
  8 13  1  0
  9 14  2  0
 10 15  1  0
  9 16  1  0
 11 17  1  0
 11 18  1  0
 15 19  1  0
 12 20  2  0
 12 21  1  0
 13 22  2  0
 13 23  1  0
 14 24  1  0
 15 24  2  0
 14 25  1  0
 16 26  2  0
 17 27  1  0
 18 28  1  0
 22 29  1  0
 23 30  2  0
 22 31  1  0
 25 32  2  0
 26 32  1  0
 27 33  1  0
 28 33  1  0
 29 34  1  0
 33 35  1  0
 30 36  1  0
 31 36  2  0
 35 37  2  0
 35 38  2  0
 35 39  1  0
 39 40  2  0
 39 41  1  0
 40 42  1  0
 41 43  2  0
 40 44  1  0
 43 45  1  0
 44 45  2  0
M  END
