x0769-x3115-x0426
     RDKit          3D

 57 61  0  0  0  0  0  0  0  0999 V2000
    7.0320   -1.4710   22.0450 N   0  0  0  0  0  0  0  0  0  0  0  0
    6.6600   -0.1230   21.9110 C   0  0  1  0  0  0  0  0  0  0  0  0
    7.8770    0.7760   21.9970 C   0  0  0  0  0  0  0  0  0  0  0  0
    6.1940   -2.5160   22.5530 C   0  0  0  0  0  0  0  0  0  0  0  0
    8.3450   -1.5870   22.5570 C   0  0  0  0  0  0  0  0  0  0  0  0
    6.0580    0.2430   20.4570 C   0  0  0  0  0  0  0  0  0  0  0  0
    9.4340   -1.9690   21.8300 C   0  0  0  0  0  0  0  0  0  0  0  0
    8.6170   -1.2780   23.9750 C   0  0  0  0  0  0  0  0  0  0  0  0
    6.9570   -3.9030   22.7610 C   0  0  2  0  0  0  0  0  0  0  0  0
    7.8180    1.7730   22.8030 N   0  0  0  0  0  0  0  0  0  0  0  0
    8.8690    0.5980   21.3130 O   0  0  0  0  0  0  0  0  0  0  0  0
    4.7540    0.7960   20.3280 C   0  0  0  0  0  0  0  0  0  0  0  0
    6.8060    0.0430   19.3410 C   0  0  0  0  0  0  0  0  0  0  0  0
   10.7370   -2.0760   22.2950 C   0  0  0  0  0  0  0  0  0  0  0  0
   10.0240   -1.3910   24.4780 C   0  0  0  0  0  0  0  0  0  0  0  0
    6.6360   -4.9280   21.7610 N   0  0  0  0  0  0  0  0  0  0  0  0
    6.7320   -4.3750   24.0670 C   0  0  0  0  0  0  0  0  0  0  0  0
    8.5960    3.0090   22.5080 C   0  0  0  0  0  0  0  0  0  0  0  0
    3.7580    1.0710   21.4370 C   0  0  0  0  0  0  0  0  0  0  0  0
    6.2490   -4.4800   20.4920 C   0  0  0  0  0  0  0  0  0  0  0  0
    6.4750    0.3290   18.0740 N   0  0  0  0  0  0  0  0  0  0  0  0
    4.4080    1.1000   19.0080 C   0  0  0  0  0  0  0  0  0  0  0  0
   10.9960   -1.7750   23.6290 C   0  0  0  0  0  0  0  0  0  0  0  0
    5.9770   -6.1400   22.2670 C   0  0  0  0  0  0  0  0  0  0  0  0
    5.4000   -4.9890   24.2470 N   0  0  0  0  0  0  0  0  0  0  0  0
    7.8090    4.2590   22.8750 C   0  0  0  0  0  0  0  0  0  0  0  0
   12.4230   -1.8610   24.1370 C   0  0  0  0  0  0  0  0  0  0  0  0
    4.2000    2.0330   22.3400 C   0  0  0  0  0  0  0  0  0  0  0  0
    5.2460   -4.9230   19.9740 O   0  0  0  0  0  0  0  0  0  0  0  0
    7.1220   -3.4580   19.7440 C   0  0  0  0  0  0  0  0  0  0  0  0
    4.7990   -5.1990   25.8320 S   0  0  0  0  0  0  0  0  0  0  0  0
    5.2540    0.8770   17.9010 C   0  0  0  0  0  0  0  0  0  0  0  0
    4.9410   -5.9200   23.1770 C   0  0  0  0  0  0  0  0  0  0  0  0
    8.6380    5.1630   23.0260 O   0  0  0  0  0  0  0  0  0  0  0  0
   13.3950   -2.0870   22.9880 C   0  0  0  0  0  0  0  0  0  0  0  0
   12.6670   -2.9180   24.9590 C   0  0  0  0  0  0  0  0  0  0  0  0
   12.7530   -0.5570   24.8240 C   0  0  0  0  0  0  0  0  0  0  0  0
    3.2740    2.5850   23.1770 N   0  0  0  0  0  0  0  0  0  0  0  0
    5.8910   -5.0760   26.7660 O   0  0  0  0  0  0  0  0  0  0  0  0
    3.9760   -6.3930   25.8390 O   0  0  0  0  0  0  0  0  0  0  0  0
    3.7160   -3.8210   26.0350 C   0  0  0  0  0  0  0  0  0  0  0  0
    8.3480    6.3280   22.2510 C   0  0  0  0  0  0  0  0  0  0  0  0
    2.2850    1.8770   23.7750 C   0  0  0  0  0  0  0  0  0  0  0  0
    4.2600   -2.5280   26.1030 C   0  0  0  0  0  0  0  0  0  0  0  0
    2.3370   -4.0520   26.1150 C   0  0  0  0  0  0  0  0  0  0  0  0
    2.2150    0.4690   23.7070 O   0  0  0  0  0  0  0  0  0  0  0  0
    5.5860   -2.3510   26.0320 F   0  0  0  0  0  0  0  0  0  0  0  0
    1.2380    2.6310   24.5250 C   0  0  0  0  0  0  0  0  0  0  0  0
    1.3390   -2.8660   26.2760 C   0  0  0  0  0  0  0  0  0  0  0  0
    3.4840   -1.3660   26.2450 C   0  0  0  0  0  0  0  0  0  0  0  0
    1.5380    3.8290   25.2120 C   0  0  0  0  0  0  0  0  0  0  0  0
   -0.0670    2.0860   24.5140 C   0  0  0  0  0  0  0  0  0  0  0  0
    1.9520   -1.4510   26.3400 C   0  0  0  0  0  0  0  0  0  0  0  0
    2.7780    4.3460   25.2230 F   0  0  0  0  0  0  0  0  0  0  0  0
   -1.0910    2.7320   25.1880 C   0  0  0  0  0  0  0  0  0  0  0  0
    0.5300    4.5160   25.9080 C   0  0  0  0  0  0  0  0  0  0  0  0
   -0.7690    4.0350   25.9350 C   0  0  0  0  0  0  0  0  0  0  0  0
  1  2  1  0
  2  3  1  6
  1  4  1  0
  1  5  1  0
  2  6  1  0
  5  7  2  0
  5  8  1  0
  9  4  1  6
  3 10  1  0
  3 11  2  0
  6 12  1  0
  6 13  2  0
  7 14  1  0
  8 15  2  0
  9 16  1  0
  9 17  1  0
 10 18  1  0
 12 19  1  0
 16 20  1  0
 13 21  1  0
 12 22  2  0
 14 23  2  0
 15 23  1  0
 16 24  1  0
 17 25  1  0
 18 26  1  0
 23 27  1  0
 19 28  1  0
 20 29  2  0
 20 30  1  0
 25 31  1  0
 21 32  2  0
 22 32  1  0
 24 33  1  0
 25 33  1  0
 26 34  1  0
 27 35  1  0
 27 36  1  0
 27 37  1  0
 28 38  1  0
 31 39  2  0
 31 40  2  0
 31 41  1  0
 34 42  1  0
 38 43  1  0
 41 44  2  0
 41 45  1  0
 43 46  2  0
 44 47  1  0
 43 48  1  0
 45 49  2  0
 44 50  1  0
 48 51  2  0
 48 52  1  0
 49 53  1  0
 50 53  2  0
 51 54  1  0
 52 55  2  0
 51 56  1  0
 55 57  1  0
 56 57  2  0
M  END
