x0771-x3108
     RDKit          3D

 42 45  0  0  0  0  0  0  0  0999 V2000
    0.2650   -1.3840   26.3340 C   0  0  0  0  0  0  0  0  0  0  0  0
    1.4650   -2.3300   26.1900 C   0  0  0  0  0  0  0  0  0  0  0  0
    2.9040   -1.9710   26.6560 C   0  0  0  0  0  0  0  0  0  0  0  0
    1.1890   -3.5620   25.6090 C   0  0  0  0  0  0  0  0  0  0  0  0
    2.2420   -4.6620   25.3810 C   0  0  0  0  0  0  0  0  0  0  0  0
    3.8990   -2.9430   26.4710 C   0  0  0  0  0  0  0  0  0  0  0  0
    1.8700   -5.9740   24.7500 C   0  0  0  0  0  0  0  0  0  0  0  0
    3.6630   -4.3460   25.8310 C   0  0  0  0  0  0  0  0  0  0  0  0
    5.0090   -5.5290   25.6430 S   0  0  0  0  0  0  0  0  0  0  0  0
    4.4510   -6.8650   25.6160 O   0  0  0  0  0  0  0  0  0  0  0  0
    6.0170   -5.1500   26.7170 O   0  0  0  0  0  0  0  0  0  0  0  0
    5.6220   -5.1960   24.0930 N   0  0  0  0  0  0  0  0  0  0  0  0
    5.0790   -5.9920   22.9790 C   0  0  0  0  0  0  0  0  0  0  0  0
    6.1980   -3.9550   23.4860 C   0  0  1  0  0  0  0  0  0  0  0  0
    6.3050   -2.6840   24.3300 C   0  0  0  0  0  0  0  0  0  0  0  0
    5.9350   -6.2280   21.8950 C   0  0  0  0  0  0  0  0  0  0  0  0
    7.2460   -4.4400   22.7490 C   0  0  0  0  0  0  0  0  0  0  0  0
    7.5530   -2.3490   25.0520 C   0  0  2  0  0  0  0  0  0  0  0  0
    6.7130   -4.9930   21.6290 N   0  0  0  0  0  0  0  0  0  0  0  0
    6.6930   -4.2150   20.4690 C   0  0  0  0  0  0  0  0  0  0  0  0
    8.1750   -1.2620   24.4130 C   0  0  0  0  0  0  0  0  0  0  0  0
    8.3240   -3.5990   25.3330 C   0  0  0  0  0  0  0  0  0  0  0  0
    5.6720   -4.1030   19.7720 O   0  0  0  0  0  0  0  0  0  0  0  0
    8.0250   -3.5280   20.1130 C   0  0  0  0  0  0  0  0  0  0  0  0
    7.7830    0.0490   24.8300 O   0  0  0  0  0  0  0  0  0  0  0  0
    9.2370   -1.3640   23.3810 N   0  0  0  0  0  0  0  0  0  0  0  0
    9.2270   -4.1590   24.4430 C   0  0  0  0  0  0  0  0  0  0  0  0
    8.0790   -4.2030   26.5750 C   0  0  0  0  0  0  0  0  0  0  0  0
    9.9350   -0.1520   22.8810 C   0  0  0  0  0  0  0  0  0  0  0  0
    9.9390   -5.3770   24.7210 N   0  0  0  0  0  0  0  0  0  0  0  0
    8.7450   -5.3840   26.8900 C   0  0  0  0  0  0  0  0  0  0  0  0
    9.1130    0.5240   21.8050 C   0  0  0  0  0  0  0  0  0  0  0  0
    9.6350   -5.9210   25.9620 C   0  0  0  0  0  0  0  0  0  0  0  0
    9.3440    1.6980   21.4650 O   0  0  0  0  0  0  0  0  0  0  0  0
    8.0470   -0.2780   21.2150 N   0  0  0  0  0  0  0  0  0  0  0  0
    7.1530    0.1570   20.2720 C   0  0  0  0  0  0  0  0  0  0  0  0
    7.1770   -0.3320   18.8050 C   0  0  0  0  0  0  0  0  0  0  0  0
    6.0730    1.1710   20.6370 C   0  0  0  0  0  0  0  0  0  0  0  0
    5.9140    1.7460   22.0480 C   0  0  0  0  0  0  0  0  0  0  0  0
    6.2110    0.1770   17.8360 N   0  0  0  0  0  0  0  0  0  0  0  0
    5.2020    1.5760   19.6160 C   0  0  0  0  0  0  0  0  0  0  0  0
    5.2800    1.1030   18.3070 C   0  0  0  0  0  0  0  0  0  0  0  0
  1  2  1  0
  2  3  2  0
  2  4  1  0
  4  5  2  0
  3  6  1  0
  5  7  1  0
  5  8  1  0
  6  8  2  0
  9  8  1  0
  9 10  2  0
  9 11  2  0
  9 12  1  0
 12 13  1  0
 12 14  1  0
 14 15  1  1
 13 16  1  0
 14 17  1  0
 18 15  1  6
 16 19  1  0
 17 19  1  0
 19 20  1  0
 18 21  1  0
 18 22  1  0
 20 23  2  0
 20 24  1  0
 21 25  2  0
 21 26  1  0
 22 27  2  0
 22 28  1  0
 26 29  1  0
 27 30  1  0
 28 31  2  0
 29 32  1  0
 30 33  2  0
 31 33  1  0
 32 34  2  0
 32 35  1  0
 35 36  1  0
 36 37  2  0
 36 38  1  0
 38 39  1  0
 37 40  1  0
 38 41  2  0
 40 42  2  0
 41 42  1  0
M  END
