x0771-x2776
     RDKit          3D

 52 56  0  0  0  0  0  0  0  0999 V2000
    7.0370   -0.9630   21.8750 N   0  0  0  0  0  0  0  0  0  0  0  0
    6.8270    0.4780   21.6290 C   0  0  1  0  0  0  0  0  0  0  0  0
    8.0130    1.3500   21.8850 C   0  0  0  0  0  0  0  0  0  0  0  0
    5.9890   -1.9310   21.8670 C   0  0  0  0  0  0  0  0  0  0  0  0
    8.3090   -1.1970   22.5150 C   0  0  0  0  0  0  0  0  0  0  0  0
    5.8880   -3.2310   22.7040 C   0  0  0  0  0  0  0  0  0  0  0  0
    6.2340    0.7960   20.2900 C   0  0  0  0  0  0  0  0  0  0  0  0
    9.3540   -1.6850   21.7210 C   0  0  0  0  0  0  0  0  0  0  0  0
    8.5710   -0.9450   23.8650 C   0  0  0  0  0  0  0  0  0  0  0  0
    8.0430    2.0230   22.9790 N   0  0  0  0  0  0  0  0  0  0  0  0
    8.9080    1.4510   21.0560 O   0  0  0  0  0  0  0  0  0  0  0  0
    5.1160    1.6390   20.2390 C   0  0  0  0  0  0  0  0  0  0  0  0
    6.8430    0.2380   19.1450 C   0  0  0  0  0  0  0  0  0  0  0  0
   10.6080   -1.9150   22.2340 C   0  0  0  0  0  0  0  0  0  0  0  0
    9.8530   -1.1720   24.3830 C   0  0  0  0  0  0  0  0  0  0  0  0
    6.4710   -4.4970   22.0040 C   0  0  0  0  0  0  0  0  0  0  0  0
    6.7330   -4.1070   20.5480 C   0  0  0  0  0  0  0  0  0  0  0  0
    6.3450    0.5260   17.7770 N   0  0  0  0  0  0  0  0  0  0  0  0
    4.6360    1.9190   18.9780 C   0  0  0  0  0  0  0  0  0  0  0  0
    8.6310    3.2780   23.1530 C   0  0  0  0  0  0  0  0  0  0  0  0
   10.8750   -1.6580   23.5670 C   0  0  0  0  0  0  0  0  0  0  0  0
    5.4770   -5.6450   21.9550 C   0  0  0  0  0  0  0  0  0  0  0  0
    7.6990   -4.9240   22.8360 C   0  0  0  0  0  0  0  0  0  0  0  0
   12.2570   -1.9010   24.0790 C   0  0  2  0  0  0  0  0  0  0  0  0
    5.7770   -4.1920   19.7720 O   0  0  0  0  0  0  0  0  0  0  0  0
    8.1190   -3.6010   20.1640 C   0  0  0  0  0  0  0  0  0  0  0  0
    5.1830    1.4180   17.6570 C   0  0  0  0  0  0  0  0  0  0  0  0
    9.9580    3.3120   23.5780 C   0  0  0  0  0  0  0  0  0  0  0  0
    7.9790    4.6140   22.9250 C   0  0  0  0  0  0  0  0  0  0  0  0
    5.3060   -6.2770   23.3050 C   0  0  0  0  0  0  0  0  0  0  0  0
    7.2870   -5.0700   24.3060 C   0  0  0  0  0  0  0  0  0  0  0  0
   12.2610   -2.7690   24.9410 O   0  0  0  0  0  0  0  0  0  0  0  0
   10.7280    1.9550   23.8340 C   0  0  0  0  0  0  0  0  0  0  0  0
   12.8580   -0.5640   24.3990 C   0  0  0  0  0  0  0  0  0  0  0  0
   10.7430    4.4430   23.8190 C   0  0  0  0  0  0  0  0  0  0  0  0
    8.6850    5.7670   23.1460 C   0  0  0  0  0  0  0  0  0  0  0  0
    5.8240   -5.3660   24.3490 N   0  0  0  0  0  0  0  0  0  0  0  0
   13.5690   -3.0410   25.3870 C   0  0  0  0  0  0  0  0  0  0  0  0
    5.1680   -5.5970   25.8590 S   0  0  0  0  0  0  0  0  0  0  0  0
   10.1640    5.7130   23.6290 C   0  0  0  0  0  0  0  0  0  0  0  0
   10.9760    6.7800   23.8940 O   0  0  0  0  0  0  0  0  0  0  0  0
    4.4890   -7.0760   25.9580 O   0  0  0  0  0  0  0  0  0  0  0  0
    6.1980   -5.1680   26.7750 O   0  0  0  0  0  0  0  0  0  0  0  0
    3.8150   -4.4300   25.9340 C   0  0  0  0  0  0  0  0  0  0  0  0
   11.8260    6.6730   25.0350 C   0  0  0  0  0  0  0  0  0  0  0  0
    2.4760   -4.7210   25.5690 C   0  0  0  0  0  0  0  0  0  0  0  0
    4.1240   -3.1510   26.3960 C   0  0  0  0  0  0  0  0  0  0  0  0
    2.0290   -6.0660   25.0500 C   0  0  0  0  0  0  0  0  0  0  0  0
    1.4940   -3.7390   25.6860 C   0  0  0  0  0  0  0  0  0  0  0  0
    3.0220   -2.1020   26.5100 C   0  0  0  0  0  0  0  0  0  0  0  0
    1.7250   -2.4470   26.1490 C   0  0  0  0  0  0  0  0  0  0  0  0
    0.6070   -1.4590   26.2610 C   0  0  0  0  0  0  0  0  0  0  0  0
  1  2  1  0
  2  3  1  6
  1  4  1  0
  1  5  1  0
  4  6  1  0
  2  7  1  0
  5  8  2  0
  5  9  1  0
  3 10  1  0
  3 11  2  0
  7 12  2  0
  7 13  1  0
  8 14  1  0
  9 15  2  0
  6 16  1  0
 16 17  1  0
 13 18  2  0
 12 19  1  0
 10 20  1  0
 14 21  2  0
 15 21  1  0
 16 22  1  0
 16 23  1  0
 21 24  1  0
 17 25  2  0
 17 26  1  0
 18 27  1  0
 19 27  2  0
 20 28  2  0
 20 29  1  0
 22 30  1  0
 23 31  1  0
 24 32  1  0
 28 33  1  0
 24 34  1  1
 28 35  1  0
 29 36  2  0
 30 37  1  0
 31 37  1  0
 32 38  1  0
 37 39  1  0
 35 40  2  0
 36 40  1  0
 40 41  1  0
 39 42  2  0
 39 43  2  0
 39 44  1  0
 41 45  1  0
 44 46  2  0
 44 47  1  0
 46 48  1  0
 46 49  1  0
 47 50  2  0
 49 51  2  0
 50 51  1  0
 51 52  1  0
M  END
