x0770-x2694-x0426
     RDKit          3D

 52 57  0  0  0  0  0  0  0  0999 V2000
    7.5880    2.5870   22.3880 N   0  0  0  0  0  0  0  0  0  0  0  0
    7.9160    1.3340   21.6700 C   0  0  0  0  0  0  0  0  0  0  0  0
    9.0010    1.2800   21.1200 O   0  0  0  0  0  0  0  0  0  0  0  0
    8.3940    3.7320   22.7520 C   0  0  0  0  0  0  0  0  0  0  0  0
    6.8820    0.1370   21.5410 C   0  0  1  0  0  0  0  0  0  0  0  0
    9.5800    3.5460   23.4190 C   0  0  0  0  0  0  0  0  0  0  0  0
    7.9830    5.1580   22.4290 C   0  0  0  0  0  0  0  0  0  0  0  0
   10.0060    2.2130   23.7470 C   0  0  0  0  0  0  0  0  0  0  0  0
    6.1410    0.5690   20.2750 C   0  0  0  0  0  0  0  0  0  0  0  0
   10.3840    4.5840   23.7930 C   0  0  0  0  0  0  0  0  0  0  0  0
    8.8190    6.1770   22.8280 C   0  0  0  0  0  0  0  0  0  0  0  0
    7.4090   -1.3830   21.3600 C   0  0  1  0  0  0  0  0  0  0  0  0
    4.8680    1.1450   20.2030 C   0  0  0  0  0  0  0  0  0  0  0  0
    6.8230    0.3730   18.9490 C   0  0  0  0  0  0  0  0  0  0  0  0
    8.4420   -1.9760   22.4660 C   0  0  2  0  0  0  0  0  0  0  0  0
   10.0190    5.8810   23.5140 C   0  0  0  0  0  0  0  0  0  0  0  0
    6.4320   -2.3540   21.1180 N   0  0  0  0  0  0  0  0  0  0  0  0
   10.7740    6.9670   23.8730 O   0  0  0  0  0  0  0  0  0  0  0  0
    6.3430   -3.1330   19.9200 C   0  0  0  0  0  0  0  0  0  0  0  0
    3.8450    1.4810   21.3110 C   0  0  0  0  0  0  0  0  0  0  0  0
    6.3500    0.7070   17.7580 N   0  0  0  0  0  0  0  0  0  0  0  0
    4.3890    1.4940   18.9450 C   0  0  0  0  0  0  0  0  0  0  0  0
    8.5790   -1.1990   23.5920 N   0  0  0  0  0  0  0  0  0  0  0  0
    9.7330   -2.1040   21.9780 C   0  0  0  0  0  0  0  0  0  0  0  0
    8.1660   -3.2770   22.8250 N   0  0  0  0  0  0  0  0  0  0  0  0
    6.0160   -2.8740   22.2820 C   0  0  0  0  0  0  0  0  0  0  0  0
   11.8240    6.7470   24.8480 C   0  0  0  0  0  0  0  0  0  0  0  0
    7.3050   -2.9230   18.7490 C   0  0  0  0  0  0  0  0  0  0  0  0
    5.4980   -4.0520   19.7650 O   0  0  0  0  0  0  0  0  0  0  0  0
    7.9480   -1.7330   24.7740 C   0  0  0  0  0  0  0  0  0  0  0  0
    4.4040    1.9250   22.5010 C   0  0  0  0  0  0  0  0  0  0  0  0
    5.1510    1.2630   17.8100 C   0  0  0  0  0  0  0  0  0  0  0  0
    9.9160   -1.0950   23.8790 N   0  0  0  0  0  0  0  0  0  0  0  0
   10.6120   -1.5660   22.8010 C   0  0  0  0  0  0  0  0  0  0  0  0
    6.8860   -3.6680   23.0180 C   0  0  0  0  0  0  0  0  0  0  0  0
    3.3030    2.5520   23.2880 N   0  0  0  0  0  0  0  0  0  0  0  0
   10.4360    0.1280   24.5940 C   0  0  0  0  0  0  0  0  0  0  0  0
   12.1030   -1.4090   22.7160 C   0  0  0  0  0  0  0  0  0  0  0  0
   13.0000   -2.2820   22.0600 C   0  0  0  0  0  0  0  0  0  0  0  0
    2.3000    1.8410   23.8380 C   0  0  0  0  0  0  0  0  0  0  0  0
   11.7550    0.5390   24.3180 C   0  0  0  0  0  0  0  0  0  0  0  0
   12.4450   -0.3910   23.4540 C   0  0  0  0  0  0  0  0  0  0  0  0
    2.2290    0.4730   23.7650 O   0  0  0  0  0  0  0  0  0  0  0  0
    1.2330    2.6000   24.5520 C   0  0  0  0  0  0  0  0  0  0  0  0
   13.7040   -2.6540   23.3550 C   0  0  0  0  0  0  0  0  0  0  0  0
    1.5090    3.7980   25.2210 C   0  0  0  0  0  0  0  0  0  0  0  0
   -0.0550    2.0450   24.5150 C   0  0  0  0  0  0  0  0  0  0  0  0
   12.7530   -2.9570   24.5090 C   0  0  0  0  0  0  0  0  0  0  0  0
    2.7600    4.2880   25.2280 F   0  0  0  0  0  0  0  0  0  0  0  0
   -1.2480    2.7580   25.2310 C   0  0  0  0  0  0  0  0  0  0  0  0
    0.5430    4.5450   25.9040 C   0  0  0  0  0  0  0  0  0  0  0  0
   -0.9220    4.0850   25.9660 C   0  0  0  0  0  0  0  0  0  0  0  0
  1  2  1  0
  2  3  2  0
  1  4  1  0
  5  2  1  6
  4  6  2  0
  4  7  1  0
  6  8  1  0
  5  9  1  0
  6 10  1  0
  7 11  2  0
  5 12  1  0
  9 13  1  0
  9 14  2  0
 12 15  1  0
 10 16  2  0
 11 16  1  0
 12 17  1  1
 16 18  1  0
 17 19  1  0
 13 20  1  0
 14 21  1  0
 13 22  2  0
 15 23  1  0
 15 24  1  6
 15 25  1  0
 17 26  1  0
 18 27  1  0
 19 28  1  0
 19 29  2  0
 23 30  1  0
 20 31  1  0
 21 32  2  0
 22 32  1  0
 23 33  1  0
 24 34  2  0
 33 34  1  0
 25 35  1  0
 26 35  1  0
 31 36  1  0
 33 37  1  0
 34 38  1  0
 38 39  1  0
 36 40  1  0
 37 41  2  0
 38 42  2  0
 41 42  1  0
 40 43  2  0
 40 44  1  0
 39 45  1  0
 44 46  2  0
 44 47  1  0
 45 48  1  0
 46 49  1  0
 47 50  2  0
 46 51  1  0
 50 52  1  0
 51 52  2  0
M  END
