x0771-x3303
     RDKit          3D

 46 52  0  0  0  0  0  0  0  0999 V2000
    0.5990   -1.2280   26.0140 C   0  0  0  0  0  0  0  0  0  0  0  0
    1.6480   -2.3590   26.0210 C   0  0  0  0  0  0  0  0  0  0  0  0
    3.0920   -2.0880   26.4770 C   0  0  0  0  0  0  0  0  0  0  0  0
    1.2110   -3.7420   25.5650 C   0  0  0  0  0  0  0  0  0  0  0  0
    2.2660   -4.8770   25.5830 C   0  0  0  0  0  0  0  0  0  0  0  0
    4.1020   -3.2520   26.4760 C   0  0  0  0  0  0  0  0  0  0  0  0
    1.9490   -6.2670   25.1640 C   0  0  0  0  0  0  0  0  0  0  0  0
    3.5950   -4.6260   26.0140 C   0  0  0  0  0  0  0  0  0  0  0  0
    4.7500   -5.8760   26.0530 S   0  0  0  0  0  0  0  0  0  0  0  0
    3.9980   -7.0510   26.3990 O   0  0  0  0  0  0  0  0  0  0  0  0
    5.7890   -5.3660   27.0500 O   0  0  0  0  0  0  0  0  0  0  0  0
    5.5360   -5.7130   24.4720 N   0  0  0  0  0  0  0  0  0  0  0  0
    5.1270   -6.4930   23.3100 C   0  0  0  0  0  0  0  0  0  0  0  0
    6.7840   -5.0800   24.3150 C   0  0  0  0  0  0  0  0  0  0  0  0
    5.0740   -5.6730   22.0310 C   0  0  0  0  0  0  0  0  0  0  0  0
    7.2510   -4.8850   23.0460 C   0  0  0  0  0  0  0  0  0  0  0  0
    6.0220   -4.4730   22.1540 C   0  0  0  0  0  0  0  0  0  0  0  0
    6.4890   -4.2370   20.7750 C   0  0  0  0  0  0  0  0  0  0  0  0
    5.2850   -3.2090   22.6600 C   0  0  0  0  0  0  0  0  0  0  0  0
    5.6680   -4.3350   19.8650 O   0  0  0  0  0  0  0  0  0  0  0  0
    7.9280   -3.8740   20.6260 C   0  0  0  0  0  0  0  0  0  0  0  0
    5.1520   -2.1160   21.6470 N   0  0  0  0  0  0  0  0  0  0  0  0
    6.2320   -1.3590   20.9960 C   0  0  0  0  0  0  0  0  0  0  0  0
    8.1050   -2.6300   21.5970 C   0  0  1  0  0  0  0  0  0  0  0  0
    9.4070   -2.6700   22.0640 C   0  0  0  0  0  0  0  0  0  0  0  0
    7.6090   -1.4810   21.1250 N   0  0  0  0  0  0  0  0  0  0  0  0
    5.7960   -0.2470   20.0750 C   0  0  0  0  0  0  0  0  0  0  0  0
    8.2110   -0.2330   21.6320 C   0  0  0  0  0  0  0  0  0  0  0  0
    9.7520   -1.6120   22.8180 N   0  0  0  0  0  0  0  0  0  0  0  0
    4.7830    0.7730   20.5740 C   0  0  0  0  0  0  0  0  0  0  0  0
    6.2880   -0.0790   18.7900 C   0  0  0  0  0  0  0  0  0  0  0  0
    9.4880   -0.3260   22.1740 C   0  0  0  0  0  0  0  0  0  0  0  0
    4.4030    1.7940   19.6970 C   0  0  0  0  0  0  0  0  0  0  0  0
    5.8310    0.9910   18.0400 C   0  0  0  0  0  0  0  0  0  0  0  0
   10.9910   -1.7700   23.3590 C   0  0  0  0  0  0  0  0  0  0  0  0
    4.2250    0.7290   21.8760 C   0  0  0  0  0  0  0  0  0  0  0  0
    6.3330    1.1430   16.8220 O   0  0  0  0  0  0  0  0  0  0  0  0
    4.9510    1.9040   18.3750 N   0  0  0  0  0  0  0  0  0  0  0  0
   12.0140   -0.9770   22.9370 C   0  0  0  0  0  0  0  0  0  0  0  0
   11.2170   -2.7310   24.3180 C   0  0  0  0  0  0  0  0  0  0  0  0
    3.2880    1.6720   22.3240 C   0  0  0  0  0  0  0  0  0  0  0  0
    3.4870    2.7300   20.0920 C   0  0  0  0  0  0  0  0  0  0  0  0
   13.2790   -1.1180   23.4540 C   0  0  0  0  0  0  0  0  0  0  0  0
   12.4750   -2.8930   24.8460 C   0  0  0  0  0  0  0  0  0  0  0  0
    2.8990    2.6720   21.4620 C   0  0  0  0  0  0  0  0  0  0  0  0
   13.5060   -2.0980   24.4260 C   0  0  0  0  0  0  0  0  0  0  0  0
  1  2  1  0
  2  3  2  0
  2  4  1  0
  4  5  2  0
  3  6  1  0
  5  7  1  0
  5  8  1  0
  6  8  2  0
  9  8  1  0
  9 10  2  0
  9 11  2  0
  9 12  1  0
 12 13  1  0
 12 14  1  0
 13 15  1  0
 14 16  1  0
 15 17  1  0
 16 17  1  0
 17 18  1  0
 17 19  1  0
 18 20  2  0
 18 21  1  0
 19 22  1  0
 22 23  2  0
 24 21  1  6
 24 25  1  0
 23 26  1  0
 24 26  1  0
 23 27  1  0
 26 28  1  0
 25 29  1  0
 27 30  1  0
 27 31  2  0
 28 32  1  0
 29 32  1  0
 30 33  2  0
 31 34  1  0
 29 35  1  0
 30 36  1  0
 34 37  1  0
 33 38  1  0
 34 38  2  0
 35 39  2  0
 35 40  1  0
 36 41  2  0
 33 42  1  0
 39 43  1  0
 40 44  2  0
 41 45  1  0
 42 45  2  0
 43 46  2  0
 44 46  1  0
M  END
