x0770-x0426-x1351-x2694
     RDKit          3D

 62 68  0  0  0  0  0  0  0  0999 V2000
    7.6170    2.4750   22.5190 N   0  0  0  0  0  0  0  0  0  0  0  0
    7.9720    1.3670   21.7180 C   0  0  0  0  0  0  0  0  0  0  0  0
    9.0260    1.2370   21.1250 O   0  0  0  0  0  0  0  0  0  0  0  0
    8.3330    3.6820   22.7800 C   0  0  0  0  0  0  0  0  0  0  0  0
    6.8890    0.2650   21.4720 C   0  0  1  0  0  0  0  0  0  0  0  0
    9.5350    3.5430   23.4500 C   0  0  0  0  0  0  0  0  0  0  0  0
    7.8700    5.0900   22.3820 C   0  0  0  0  0  0  0  0  0  0  0  0
    9.9780    2.2250   23.8280 C   0  0  0  0  0  0  0  0  0  0  0  0
    6.2390    0.6600   20.1990 C   0  0  0  0  0  0  0  0  0  0  0  0
   10.3690    4.5950   23.7980 C   0  0  0  0  0  0  0  0  0  0  0  0
    8.8330    6.2040   22.8030 C   0  0  0  0  0  0  0  0  0  0  0  0
    7.1760   -1.2650   21.7830 C   0  0  2  0  0  0  0  0  0  0  0  0
    4.8930    1.3890   20.0830 C   0  0  0  0  0  0  0  0  0  0  0  0
    6.8910    0.3700   19.0340 C   0  0  0  0  0  0  0  0  0  0  0  0
    8.4080   -1.8950   22.5810 C   0  0  2  0  0  0  0  0  0  0  0  0
   10.0370    6.0320   23.4830 C   0  0  0  0  0  0  0  0  0  0  0  0
    6.3240   -2.3450   21.1660 N   0  0  0  0  0  0  0  0  0  0  0  0
   10.9250    7.0150   23.8840 O   0  0  0  0  0  0  0  0  0  0  0  0
    6.3190   -3.0960   19.9290 C   0  0  0  0  0  0  0  0  0  0  0  0
    3.8300    1.8790   21.0800 C   0  0  0  0  0  0  0  0  0  0  0  0
    6.4120    0.7360   17.7020 N   0  0  0  0  0  0  0  0  0  0  0  0
    4.3940    1.7760   18.7190 C   0  0  0  0  0  0  0  0  0  0  0  0
    8.7160   -1.0470   23.7850 N   0  0  0  0  0  0  0  0  0  0  0  0
    9.5870   -1.9390   21.9050 C   0  0  0  0  0  0  0  0  0  0  0  0
    8.1120   -3.1960   23.0100 N   0  0  0  0  0  0  0  0  0  0  0  0
    5.9080   -3.1080   22.2180 C   0  0  0  0  0  0  0  0  0  0  0  0
   11.8430    6.6750   24.9280 C   0  0  0  0  0  0  0  0  0  0  0  0
    7.3280   -2.8720   18.8190 C   0  0  0  0  0  0  0  0  0  0  0  0
    5.4790   -4.0070   19.7310 O   0  0  0  0  0  0  0  0  0  0  0  0
    8.6440   -1.7760   24.8760 C   0  0  0  0  0  0  0  0  0  0  0  0
    4.2390    1.9100   22.5410 C   0  0  0  0  0  0  0  0  0  0  0  0
    5.1390    1.4650   17.6180 C   0  0  0  0  0  0  0  0  0  0  0  0
   10.0780   -0.8550   23.8750 N   0  0  0  0  0  0  0  0  0  0  0  0
   10.5890   -1.3620   22.6200 C   0  0  0  0  0  0  0  0  0  0  0  0
    6.8550   -3.7780   22.9820 C   0  0  2  0  0  0  0  0  0  0  0  0
    3.5040    2.4270   23.4790 N   0  0  0  0  0  0  0  0  0  0  0  0
   10.6760    0.1970   24.5020 C   0  0  0  0  0  0  0  0  0  0  0  0
   12.0020   -1.1530   22.4250 C   0  0  0  0  0  0  0  0  0  0  0  0
    6.2330   -3.9520   24.4000 C   0  0  0  0  0  0  0  0  0  0  0  0
   12.8240   -1.9900   21.6210 C   0  0  0  0  0  0  0  0  0  0  0  0
    2.3050    1.7430   23.9680 C   0  0  0  0  0  0  0  0  0  0  0  0
   11.9640    0.6340   24.1190 C   0  0  0  0  0  0  0  0  0  0  0  0
   12.4290   -0.1840   23.2020 C   0  0  0  0  0  0  0  0  0  0  0  0
    5.8030   -2.7180   25.0760 N   0  0  0  0  0  0  0  0  0  0  0  0
    2.1360    0.3970   23.8490 O   0  0  0  0  0  0  0  0  0  0  0  0
    1.2460    2.5620   24.6210 C   0  0  0  0  0  0  0  0  0  0  0  0
   13.4940   -2.7150   22.7680 C   0  0  0  0  0  0  0  0  0  0  0  0
    6.1650   -2.4860   26.3940 C   0  0  0  0  0  0  0  0  0  0  0  0
    1.5180    3.8040   25.2380 C   0  0  0  0  0  0  0  0  0  0  0  0
   -0.0520    2.0540   24.6070 C   0  0  0  0  0  0  0  0  0  0  0  0
   12.6970   -2.8100   24.0920 C   0  0  0  0  0  0  0  0  0  0  0  0
    6.5710   -3.3670   27.1190 O   0  0  0  0  0  0  0  0  0  0  0  0
    6.0410   -1.1090   26.9490 C   0  0  0  0  0  0  0  0  0  0  0  0
    2.7690    4.2950   25.2520 F   0  0  0  0  0  0  0  0  0  0  0  0
   -1.2410    2.7740   25.2380 C   0  0  0  0  0  0  0  0  0  0  0  0
    0.5330    4.5860   25.8620 C   0  0  0  0  0  0  0  0  0  0  0  0
    6.7820   -0.8120   28.1080 C   0  0  0  0  0  0  0  0  0  0  0  0
    5.1510   -0.0530   26.3130 C   0  0  0  0  0  0  0  0  0  0  0  0
   -0.9270    4.1400   25.9160 C   0  0  0  0  0  0  0  0  0  0  0  0
    6.7110    0.4620   28.7020 C   0  0  0  0  0  0  0  0  0  0  0  0
    5.0860    1.2040   26.9060 C   0  0  0  0  0  0  0  0  0  0  0  0
    5.9070    1.4730   28.1660 C   0  0  0  0  0  0  0  0  0  0  0  0
  1  2  1  0
  2  3  2  0
  1  4  1  0
  5  2  1  6
  4  6  2  0
  4  7  1  0
  6  8  1  0
  5  9  1  0
  6 10  1  0
  7 11  2  0
  5 12  1  0
  9 13  1  0
  9 14  2  0
 12 15  1  0
 10 16  2  0
 11 16  1  0
 12 17  1  6
 16 18  1  0
 17 19  1  0
 13 20  1  0
 14 21  1  0
 13 22  2  0
 15 23  1  0
 15 24  1  6
 15 25  1  0
 17 26  1  0
 18 27  1  0
 19 28  1  0
 19 29  2  0
 23 30  1  0
 20 31  1  0
 21 32  2  0
 22 32  1  0
 23 33  1  0
 24 34  2  0
 33 34  1  0
 25 35  1  0
 26 35  1  0
 31 36  1  0
 33 37  1  0
 34 38  1  0
 35 39  1  1
 38 40  1  0
 36 41  1  0
 37 42  2  0
 38 43  2  0
 42 43  1  0
 39 44  1  0
 41 45  2  0
 41 46  1  0
 40 47  1  0
 44 48  1  0
 46 49  2  0
 46 50  1  0
 47 51  1  0
 48 52  2  0
 48 53  1  0
 49 54  1  0
 50 55  2  0
 49 56  1  0
 53 57  2  0
 53 58  1  0
 55 59  1  0
 56 59  2  0
 57 60  1  0
 58 61  2  0
 60 62  2  0
 61 62  1  0
M  END
