x0771-x0195
     RDKit          3D

 38 41  0  0  0  0  0  0  0  0999 V2000
    0.4820   -1.4560   26.2160 C   0  0  0  0  0  0  0  0  0  0  0  0
    1.6210   -2.4380   26.0800 C   0  0  0  0  0  0  0  0  0  0  0  0
    2.9090   -2.0890   26.4600 C   0  0  0  0  0  0  0  0  0  0  0  0
    1.4460   -3.7270   25.5770 C   0  0  0  0  0  0  0  0  0  0  0  0
    2.4390   -4.7130   25.4210 C   0  0  0  0  0  0  0  0  0  0  0  0
    4.0440   -3.1200   26.3190 C   0  0  0  0  0  0  0  0  0  0  0  0
    2.0530   -6.0660   24.8560 C   0  0  0  0  0  0  0  0  0  0  0  0
    3.7530   -4.3830   25.8080 C   0  0  0  0  0  0  0  0  0  0  0  0
    4.9520   -5.5640   25.6380 S   0  0  0  0  0  0  0  0  0  0  0  0
    4.3110   -6.8540   25.5260 O   0  0  0  0  0  0  0  0  0  0  0  0
    5.9040   -5.3200   26.8060 O   0  0  0  0  0  0  0  0  0  0  0  0
    5.7930   -5.2800   24.1970 N   0  0  0  0  0  0  0  0  0  0  0  0
    5.2960   -5.9120   23.0130 C   0  0  0  0  0  0  0  0  0  0  0  0
    6.2300   -3.9110   23.8480 C   0  0  1  0  0  0  0  0  0  0  0  0
    6.9370   -3.3320   24.9380 C   0  0  0  0  0  0  0  0  0  0  0  0
    6.2620   -5.9700   21.9870 C   0  0  0  0  0  0  0  0  0  0  0  0
    7.0600   -3.8860   22.7330 C   0  0  0  0  0  0  0  0  0  0  0  0
    7.1340   -1.7910   24.8600 C   0  0  0  0  0  0  0  0  0  0  0  0
    6.5580   -4.7070   21.6970 N   0  0  0  0  0  0  0  0  0  0  0  0
    6.2480   -4.2200   20.4080 C   0  0  0  0  0  0  0  0  0  0  0  0
    8.3090   -1.3080   24.0010 C   0  0  0  0  0  0  0  0  0  0  0  0
    5.2060   -4.5380   19.8740 O   0  0  0  0  0  0  0  0  0  0  0  0
    7.1760   -3.2810   19.6270 C   0  0  0  0  0  0  0  0  0  0  0  0
    9.4000   -0.4970   24.7380 C   0  0  0  0  0  0  0  0  0  0  0  0
   10.5860   -0.4420   24.0030 N   0  0  0  0  0  0  0  0  0  0  0  0
   11.0970    0.9080   23.6650 C   0  0  0  0  0  0  0  0  0  0  0  0
   11.1100   -1.5870   23.4570 C   0  0  0  0  0  0  0  0  0  0  0  0
   12.3740    0.8670   23.2420 C   0  0  0  0  0  0  0  0  0  0  0  0
   12.3490   -1.5280   22.8130 C   0  0  0  0  0  0  0  0  0  0  0  0
   10.4180    2.0930   23.7500 C   0  0  0  0  0  0  0  0  0  0  0  0
   13.1790   -0.2460   23.0920 C   0  0  0  0  0  0  0  0  0  0  0  0
   13.1180    2.1130   22.8550 C   0  0  0  0  0  0  0  0  0  0  0  0
   10.9870    3.3410   23.4060 C   0  0  0  0  0  0  0  0  0  0  0  0
   10.0990    4.8900   23.5010 S   0  0  0  0  0  0  0  0  0  0  0  0
   12.4300    3.3000   22.9330 C   0  0  0  0  0  0  0  0  0  0  0  0
   10.0780    5.5900   25.2040 O   0  0  0  0  0  0  0  0  0  0  0  0
    8.8720    4.7360   22.7690 O   0  0  0  0  0  0  0  0  0  0  0  0
   11.0740    5.9340   22.6090 N   0  0  0  0  0  0  0  0  0  0  0  0
  1  2  1  0
  2  3  2  0
  2  4  1  0
  4  5  2  0
  3  6  1  0
  5  7  1  0
  5  8  1  0
  6  8  2  0
  9  8  1  0
  9 10  2  0
  9 11  2  0
  9 12  1  0
 12 13  1  0
 12 14  1  0
 14 15  1  1
 13 16  1  0
 14 17  1  0
 15 18  1  0
 16 19  1  0
 17 19  1  0
 19 20  1  0
 18 21  1  0
 20 22  2  0
 20 23  1  0
 21 24  1  0
 24 25  1  0
 25 26  1  0
 25 27  1  0
 26 28  2  0
 27 29  1  0
 26 30  1  0
 28 31  1  0
 29 31  1  0
 28 32  1  0
 30 33  2  0
 33 34  1  0
 32 35  2  0
 33 35  1  0
 34 36  2  0
 34 37  2  0
 34 38  1  0
M  END
