x0771-x0874
     RDKit          3D

 34 37  0  0  0  0  0  0  0  0999 V2000
    0.4330   -1.3480   26.3000 C   0  0  0  0  0  0  0  0  0  0  0  0
    1.5840   -2.3590   26.1540 C   0  0  0  0  0  0  0  0  0  0  0  0
    3.0110   -1.9880   26.5670 C   0  0  0  0  0  0  0  0  0  0  0  0
    1.2920   -3.7560   25.5960 C   0  0  0  0  0  0  0  0  0  0  0  0
    2.4740   -4.7700   25.4770 C   0  0  0  0  0  0  0  0  0  0  0  0
    4.1180   -3.0190   26.4270 C   0  0  0  0  0  0  0  0  0  0  0  0
    2.2970   -6.1550   24.9510 C   0  0  0  0  0  0  0  0  0  0  0  0
    3.7960   -4.4050   25.8770 C   0  0  0  0  0  0  0  0  0  0  0  0
    5.1060   -5.4790   25.7860 S   0  0  0  0  0  0  0  0  0  0  0  0
    4.4950   -6.7620   26.0520 O   0  0  0  0  0  0  0  0  0  0  0  0
    6.0830   -4.9420   26.8310 O   0  0  0  0  0  0  0  0  0  0  0  0
    5.8620   -5.1170   24.2010 N   0  0  0  0  0  0  0  0  0  0  0  0
    5.2530   -5.9660   23.1790 C   0  0  0  0  0  0  0  0  0  0  0  0
    6.0810   -3.7760   23.5880 C   0  0  1  0  0  0  0  0  0  0  0  0
    6.5370   -2.6190   24.5490 C   0  0  0  0  0  0  0  0  0  0  0  0
    6.1890   -6.0780   21.9590 C   0  0  0  0  0  0  0  0  0  0  0  0
    7.0470   -3.8370   22.6050 C   0  0  0  0  0  0  0  0  0  0  0  0
    7.8890   -1.8890   24.3030 C   0  0  0  0  0  0  0  0  0  0  0  0
    6.7000   -4.7680   21.5280 N   0  0  0  0  0  0  0  0  0  0  0  0
    6.2940   -4.1780   20.3250 C   0  0  0  0  0  0  0  0  0  0  0  0
    8.1520   -0.9100   23.1080 C   0  0  1  0  0  0  0  0  0  0  0  0
    5.1980   -4.3960   19.8380 O   0  0  0  0  0  0  0  0  0  0  0  0
    7.2560   -3.2580   19.5810 C   0  0  0  0  0  0  0  0  0  0  0  0
    9.0040    0.1130   23.6060 C   0  0  1  0  0  0  0  0  0  0  0  0
    9.0070   -1.6250   22.2750 C   0  0  0  0  0  0  0  0  0  0  0  0
   10.2400   -0.1020   22.9450 C   0  0  2  0  0  0  0  0  0  0  0  0
   10.2530   -1.4640   22.8720 C   0  0  2  0  0  0  0  0  0  0  0  0
    8.3660    1.3630   23.1510 C   0  0  0  0  0  0  0  0  0  0  0  0
   11.5380   -1.8750   22.1660 C   0  0  0  0  0  0  0  0  0  0  0  0
   11.6240    0.3420   23.1580 C   0  0  0  0  0  0  0  0  0  0  0  0
    8.9420    2.2010   22.0250 C   0  0  0  0  0  0  0  0  0  0  0  0
   12.8640   -0.7610   22.4500 S   0  0  0  0  0  0  0  0  0  0  0  0
    9.8210    3.1980   22.2350 N   0  0  0  0  0  0  0  0  0  0  0  0
    8.6090    1.9510   20.8840 O   0  0  0  0  0  0  0  0  0  0  0  0
  1  2  1  0
  2  3  2  0
  2  4  1  0
  4  5  2  0
  3  6  1  0
  5  7  1  0
  5  8  1  0
  6  8  2  0
  9  8  1  0
  9 10  2  0
  9 11  2  0
  9 12  1  0
 12 13  1  0
 12 14  1  0
 14 15  1  1
 13 16  1  0
 14 17  1  0
 15 18  1  0
 16 19  1  0
 17 19  1  0
 19 20  1  0
 21 18  1  1
 20 22  2  0
 20 23  1  0
 21 24  1  0
 21 25  1  0
 24 26  1  0
 27 25  1  6
 26 27  1  0
 24 28  1  6
 27 29  1  0
 26 30  1  1
 28 31  1  0
 29 32  2  0
 30 32  2  0
 31 33  1  0
 31 34  2  0
M  END
