x0771-x2694
     RDKit          3D

 51 55  0  0  0  0  0  0  0  0999 V2000
    7.3810   -0.8810   21.8360 N   0  0  0  0  0  0  0  0  0  0  0  0
    6.9310    0.5200   21.6430 C   0  0  1  0  0  0  0  0  0  0  0  0
    7.9750    1.5890   21.7850 C   0  0  0  0  0  0  0  0  0  0  0  0
    6.1840   -1.7660   21.8150 C   0  0  0  0  0  0  0  0  0  0  0  0
    8.5030   -1.1470   22.6420 C   0  0  0  0  0  0  0  0  0  0  0  0
    6.1980   -3.0340   22.6690 C   0  0  0  0  0  0  0  0  0  0  0  0
    6.3340    0.7660   20.2810 C   0  0  0  0  0  0  0  0  0  0  0  0
    8.6330   -1.4900   24.0900 N   0  0  0  0  0  0  0  0  0  0  0  0
    9.9750   -1.1210   22.1980 C   0  0  0  0  0  0  0  0  0  0  0  0
    7.7150    2.5530   22.6150 N   0  0  0  0  0  0  0  0  0  0  0  0
    9.0080    1.5570   21.1300 O   0  0  0  0  0  0  0  0  0  0  0  0
    5.2380    1.6020   20.1380 C   0  0  0  0  0  0  0  0  0  0  0  0
    6.8890    0.1570   19.1750 C   0  0  0  0  0  0  0  0  0  0  0  0
   10.0240   -1.6190   24.3640 O   0  0  0  0  0  0  0  0  0  0  0  0
   10.8230   -1.4000   23.2570 C   0  0  0  0  0  0  0  0  0  0  0  0
    6.4090   -4.4070   21.9150 C   0  0  0  0  0  0  0  0  0  0  0  0
   12.2580   -1.4510   23.2750 C   0  0  0  0  0  0  0  0  0  0  0  0
    6.6830   -3.9940   20.4730 C   0  0  0  0  0  0  0  0  0  0  0  0
    6.3350    0.3970   17.8560 N   0  0  0  0  0  0  0  0  0  0  0  0
    4.6570    1.8710   18.8940 C   0  0  0  0  0  0  0  0  0  0  0  0
    8.5840    3.5960   22.9540 C   0  0  0  0  0  0  0  0  0  0  0  0
    5.1980   -5.3530   21.9600 C   0  0  0  0  0  0  0  0  0  0  0  0
    7.5740   -5.0170   22.7150 C   0  0  0  0  0  0  0  0  0  0  0  0
   12.7750   -0.0600   23.5750 C   0  0  0  0  0  0  0  0  0  0  0  0
   12.8590   -1.8820   21.9250 C   0  0  0  0  0  0  0  0  0  0  0  0
   12.7600   -2.3950   24.3930 C   0  0  0  0  0  0  0  0  0  0  0  0
    5.7430   -4.0510   19.6820 O   0  0  0  0  0  0  0  0  0  0  0  0
    8.0930   -3.5020   20.1620 C   0  0  0  0  0  0  0  0  0  0  0  0
    5.2650    1.2340   17.8000 C   0  0  0  0  0  0  0  0  0  0  0  0
    9.8160    3.3930   23.5980 C   0  0  0  0  0  0  0  0  0  0  0  0
    8.2070    4.9030   22.6400 C   0  0  0  0  0  0  0  0  0  0  0  0
    5.2580   -6.2900   23.1870 C   0  0  0  0  0  0  0  0  0  0  0  0
    7.1720   -5.1370   24.1890 C   0  0  0  0  0  0  0  0  0  0  0  0
   10.3260    2.0220   23.9900 C   0  0  0  0  0  0  0  0  0  0  0  0
   10.6420    4.4760   23.9120 C   0  0  0  0  0  0  0  0  0  0  0  0
    8.9720    6.0200   22.9300 C   0  0  0  0  0  0  0  0  0  0  0  0
    5.7250   -5.4470   24.2860 N   0  0  0  0  0  0  0  0  0  0  0  0
    4.9880   -5.7060   25.8250 S   0  0  0  0  0  0  0  0  0  0  0  0
   10.3090    5.7940   23.6310 C   0  0  0  0  0  0  0  0  0  0  0  0
   11.0650    6.8900   23.9280 O   0  0  0  0  0  0  0  0  0  0  0  0
    4.3980   -7.0170   25.7400 O   0  0  0  0  0  0  0  0  0  0  0  0
    6.0370   -5.3210   27.0000 O   0  0  0  0  0  0  0  0  0  0  0  0
    3.6810   -4.4850   25.8920 C   0  0  0  0  0  0  0  0  0  0  0  0
   11.8800    6.7460   25.0880 C   0  0  0  0  0  0  0  0  0  0  0  0
    2.3700   -4.7530   25.5080 C   0  0  0  0  0  0  0  0  0  0  0  0
    4.0220   -3.2170   26.3650 C   0  0  0  0  0  0  0  0  0  0  0  0
    1.9230   -6.0910   24.9810 C   0  0  0  0  0  0  0  0  0  0  0  0
    1.3990   -3.7530   25.6110 C   0  0  0  0  0  0  0  0  0  0  0  0
    3.0580   -2.2170   26.4690 C   0  0  0  0  0  0  0  0  0  0  0  0
    1.7300   -2.4830   26.0960 C   0  0  0  0  0  0  0  0  0  0  0  0
    0.6870   -1.4140   26.2240 C   0  0  0  0  0  0  0  0  0  0  0  0
  1  2  1  0
  2  3  1  6
  1  4  1  0
  1  5  1  0
  4  6  1  0
  2  7  1  0
  5  8  2  0
  5  9  1  0
  3 10  1  0
  3 11  2  0
  7 12  2  0
  7 13  1  0
  8 14  1  0
  9 15  2  0
 14 15  1  0
  6 16  1  0
 15 17  1  0
 16 18  1  0
 13 19  2  0
 12 20  1  0
 10 21  1  0
 16 22  1  0
 16 23  1  0
 17 24  1  0
 17 25  1  0
 17 26  1  0
 18 27  2  0
 18 28  1  0
 19 29  1  0
 20 29  2  0
 21 30  2  0
 21 31  1  0
 22 32  1  0
 23 33  1  0
 30 34  1  0
 30 35  1  0
 31 36  2  0
 32 37  1  0
 33 37  1  0
 37 38  1  0
 35 39  2  0
 36 39  1  0
 39 40  1  0
 38 41  2  0
 38 42  2  0
 38 43  1  0
 40 44  1  0
 43 45  2  0
 43 46  1  0
 45 47  1  0
 45 48  1  0
 46 49  2  0
 48 50  2  0
 49 50  1  0
 50 51  1  0
M  END
