x0770-x2572
     RDKit          3D

 29 32  0  0  0  0  0  0  0  0999 V2000
    4.7440    1.2610   21.5990 C   0  0  0  0  0  0  0  0  0  0  0  0
    5.1830    1.0900   20.3420 C   0  0  0  0  0  0  0  0  0  0  0  0
    6.3860    0.3080   19.8240 C   0  0  0  0  0  0  0  0  0  0  0  0
    4.7030    1.5640   19.1620 C   0  0  0  0  0  0  0  0  0  0  0  0
    7.1880   -0.3400   20.8020 N   0  0  0  0  0  0  0  0  0  0  0  0
    6.8530    0.1240   18.5330 C   0  0  0  0  0  0  0  0  0  0  0  0
    5.1950    1.3740   17.8420 C   0  0  0  0  0  0  0  0  0  0  0  0
    8.2950    0.3140   21.4700 C   0  0  0  0  0  0  0  0  0  0  0  0
    6.2200    0.6800   17.5460 N   0  0  0  0  0  0  0  0  0  0  0  0
    6.9160   -1.4840   21.6070 C   0  0  1  0  0  0  0  0  0  0  0  0
    8.8190    1.3960   21.1700 O   0  0  0  0  0  0  0  0  0  0  0  0
    8.8170   -0.5150   22.6560 C   0  0  1  0  0  0  0  0  0  0  0  0
    6.2100   -2.6000   21.2420 N   0  0  0  0  0  0  0  0  0  0  0  0
    8.1440   -1.8660   22.4220 C   0  0  1  0  0  0  0  0  0  0  0  0
    6.1970   -3.2460   19.9800 C   0  0  0  0  0  0  0  0  0  0  0  0
   10.2940   -0.4470   22.6210 C   0  0  0  0  0  0  0  0  0  0  0  0
    7.7980   -2.6390   23.5960 N   0  0  0  0  0  0  0  0  0  0  0  0
    5.8830   -3.3890   22.4630 C   0  0  0  0  0  0  0  0  0  0  0  0
    7.2650   -2.9530   18.9340 C   0  0  0  0  0  0  0  0  0  0  0  0
    5.3290   -4.1000   19.7460 O   0  0  0  0  0  0  0  0  0  0  0  0
    8.9840   -2.9550   24.3820 C   0  0  0  0  0  0  0  0  0  0  0  0
   10.9370    0.6410   23.1870 C   0  0  0  0  0  0  0  0  0  0  0  0
   11.0630   -1.5410   21.9690 C   0  0  0  0  0  0  0  0  0  0  0  0
    7.0290   -3.8210   23.1720 C   0  0  0  0  0  0  0  0  0  0  0  0
   12.3230    0.7610   23.1870 C   0  0  0  0  0  0  0  0  0  0  0  0
   12.3930   -1.3910   21.9720 C   0  0  0  0  0  0  0  0  0  0  0  0
   13.1630   -2.3750   21.3430 C   0  0  0  0  0  0  0  0  0  0  0  0
   13.1010   -0.2220   22.5960 C   0  0  0  0  0  0  0  0  0  0  0  0
   13.6960   -3.4000   20.6310 N   0  0  0  0  0  0  0  0  0  0  0  0
  1  2  1  0
  2  3  2  0
  2  4  1  0
  3  5  1  0
  3  6  1  0
  4  7  2  0
  5  8  1  0
  6  9  2  0
  7  9  1  0
 10  5  1  6
  8 11  2  0
  8 12  1  0
 10 13  1  0
 10 14  1  0
 12 14  1  0
 13 15  1  0
 12 16  1  6
 14 17  1  1
 13 18  1  0
 15 19  1  0
 15 20  2  0
 17 21  1  0
 16 22  2  0
 16 23  1  0
 17 24  1  0
 18 24  1  0
 22 25  1  0
 23 26  2  0
 26 27  1  0
 25 28  2  0
 26 28  1  0
 27 29  3  0
M  END
