x0771-x0426
     RDKit          3D

 40 43  0  0  0  0  0  0  0  0999 V2000
    0.6800   -1.3720   26.6490 C   0  0  0  0  0  0  0  0  0  0  0  0
    1.1050   -0.0220   26.0830 C   0  0  0  0  0  0  0  0  0  0  0  0
    1.4100   -0.1790   24.5890 C   0  0  0  0  0  0  0  0  0  0  0  0
    1.7820   -2.4040   26.4580 C   0  0  0  0  0  0  0  0  0  0  0  0
    1.4440   -3.7480   26.1950 C   0  0  0  0  0  0  0  0  0  0  0  0
    3.2710   -2.0020   26.5440 C   0  0  0  0  0  0  0  0  0  0  0  0
    2.3360    0.5210   23.9680 N   0  0  0  0  0  0  0  0  0  0  0  0
    2.3410   -4.8180   25.9900 C   0  0  0  0  0  0  0  0  0  0  0  0
    4.2950   -3.1310   26.3340 C   0  0  0  0  0  0  0  0  0  0  0  0
    1.7400   -6.1370   25.7210 C   0  0  0  0  0  0  0  0  0  0  0  0
    2.3190    1.9560   23.8970 C   0  0  0  0  0  0  0  0  0  0  0  0
    3.8700   -4.5810   26.0500 C   0  0  0  0  0  0  0  0  0  0  0  0
    5.0220   -5.7750   25.8340 S   0  0  0  0  0  0  0  0  0  0  0  0
    3.3510    2.5090   23.1930 N   0  0  0  0  0  0  0  0  0  0  0  0
    1.2190    2.7290   24.5750 C   0  0  0  0  0  0  0  0  0  0  0  0
    4.3690   -7.0620   25.8360 O   0  0  0  0  0  0  0  0  0  0  0  0
    6.1330   -5.4540   26.8320 O   0  0  0  0  0  0  0  0  0  0  0  0
    4.2880    1.7450   22.4750 C   0  0  0  0  0  0  0  0  0  0  0  0
    5.6190   -5.5150   24.2820 N   0  0  0  0  0  0  0  0  0  0  0  0
    1.5150    3.8890   25.2870 C   0  0  0  0  0  0  0  0  0  0  0  0
   -0.2280    2.2380   24.4850 C   0  0  0  0  0  0  0  0  0  0  0  0
    3.6480    1.3170   21.1150 C   0  0  0  0  0  0  0  0  0  0  0  0
    2.7780    4.3360   25.3730 F   0  0  0  0  0  0  0  0  0  0  0  0
    4.9350   -6.0800   23.1130 C   0  0  0  0  0  0  0  0  0  0  0  0
    6.2930   -4.2460   24.0390 C   0  0  0  0  0  0  0  0  0  0  0  0
   -1.3280    3.0410   25.1950 C   0  0  0  0  0  0  0  0  0  0  0  0
    0.5150    4.6350   25.9420 C   0  0  0  0  0  0  0  0  0  0  0  0
    5.8630   -6.2170   22.0700 C   0  0  0  0  0  0  0  0  0  0  0  0
    7.2100   -4.3590   23.0120 C   0  0  0  0  0  0  0  0  0  0  0  0
   -0.9430    4.1910   25.8900 C   0  0  0  0  0  0  0  0  0  0  0  0
    4.6630    1.0030   20.0230 C   0  0  0  0  0  0  0  0  0  0  0  0
    6.7010   -5.0310   21.7890 N   0  0  0  0  0  0  0  0  0  0  0  0
    5.7060    0.0950   20.2270 C   0  0  0  0  0  0  0  0  0  0  0  0
    4.5760    1.6200   18.7760 C   0  0  0  0  0  0  0  0  0  0  0  0
    6.5190   -4.3380   20.5920 C   0  0  0  0  0  0  0  0  0  0  0  0
    6.5850   -0.1270   19.1530 C   0  0  0  0  0  0  0  0  0  0  0  0
    5.5050    1.3220   17.7880 C   0  0  0  0  0  0  0  0  0  0  0  0
    5.4960   -4.4140   19.8960 O   0  0  0  0  0  0  0  0  0  0  0  0
    7.6990   -3.4680   20.1980 C   0  0  0  0  0  0  0  0  0  0  0  0
    6.4850    0.4760   17.9510 N   0  0  0  0  0  0  0  0  0  0  0  0
  1  2  1  0
  2  3  1  0
  1  4  1  0
  4  5  2  0
  4  6  1  0
  3  7  1  0
  5  8  1  0
  6  9  2  0
  8 10  1  0
  7 11  2  3
  8 12  2  0
  9 12  1  0
 13 12  1  0
 11 14  1  0
 11 15  1  0
 13 16  2  0
 13 17  2  0
 14 18  1  0
 13 19  1  0
 15 20  2  0
 15 21  1  0
 18 22  1  0
 20 23  1  0
 19 24  1  0
 19 25  1  0
 21 26  2  0
 20 27  1  0
 24 28  1  0
 25 29  1  0
 26 30  1  0
 27 30  2  0
 22 31  1  0
 28 32  1  0
 29 32  1  0
 31 33  2  0
 31 34  1  0
 32 35  1  0
 33 36  1  0
 34 37  2  0
 35 38  2  0
 35 39  1  0
 36 40  2  0
 37 40  1  0
M  END
