x0771-x0072
     RDKit          3D

 32 35  0  0  0  0  0  0  0  0999 V2000
    0.4580   -1.3660   26.2110 C   0  0  0  0  0  0  0  0  0  0  0  0
    1.6300   -2.3570   26.0620 C   0  0  0  0  0  0  0  0  0  0  0  0
    3.0670   -1.9390   26.3870 C   0  0  0  0  0  0  0  0  0  0  0  0
    1.3420   -3.7830   25.5840 C   0  0  0  0  0  0  0  0  0  0  0  0
    2.5410   -4.7800   25.4510 C   0  0  0  0  0  0  0  0  0  0  0  0
    4.1930   -2.9570   26.2360 C   0  0  0  0  0  0  0  0  0  0  0  0
    2.3600   -6.1870   25.0020 C   0  0  0  0  0  0  0  0  0  0  0  0
    3.8780   -4.3730   25.7640 C   0  0  0  0  0  0  0  0  0  0  0  0
    5.2070   -5.4350   25.6500 S   0  0  2  0  0  0  0  0  0  0  0  0
    4.7120   -6.7740   25.8850 O   0  0  0  0  0  0  0  0  0  0  0  0
    6.4200   -5.1100   26.7340 N   0  0  0  0  0  0  0  0  0  0  0  0
    5.9240   -5.3160   24.1220 N   0  0  0  0  0  0  0  0  0  0  0  0
    8.0020   -4.8530   26.1800 S   0  0  0  0  0  0  0  0  0  0  0  0
    5.2240   -5.9090   23.1320 C   0  0  0  0  0  0  0  0  0  0  0  0
    6.9420   -4.2350   23.7990 C   0  0  1  0  0  0  0  0  0  0  0  0
    8.8200   -5.9800   25.7990 O   0  0  0  0  0  0  0  0  0  0  0  0
    8.9470   -3.7120   27.2530 O   0  0  0  0  0  0  0  0  0  0  0  0
    7.8650   -3.9670   24.7540 N   0  0  0  0  0  0  0  0  0  0  0  0
    5.9340   -6.2110   21.8080 C   0  0  0  0  0  0  0  0  0  0  0  0
    7.6070   -4.6040   22.6060 C   0  0  0  0  0  0  0  0  0  0  0  0
    9.1120   -3.4060   24.3170 C   0  0  0  0  0  0  0  0  0  0  0  0
    6.6990   -5.0320   21.5290 N   0  0  0  0  0  0  0  0  0  0  0  0
    6.4310   -4.2290   20.4000 C   0  0  0  0  0  0  0  0  0  0  0  0
    9.0810   -2.0660   23.5910 C   0  0  0  0  0  0  0  0  0  0  0  0
    5.3450   -4.2710   19.8270 O   0  0  0  0  0  0  0  0  0  0  0  0
    7.5180   -3.3180   19.8220 C   0  0  0  0  0  0  0  0  0  0  0  0
   10.4220   -1.4040   23.3920 C   0  0  0  0  0  0  0  0  0  0  0  0
   11.3980   -1.9270   22.5190 C   0  0  0  0  0  0  0  0  0  0  0  0
   10.8010   -0.1220   24.1250 C   0  0  0  0  0  0  0  0  0  0  0  0
   12.6630   -1.3390   22.3020 C   0  0  0  0  0  0  0  0  0  0  0  0
   12.1970    0.4780   23.8410 C   0  0  0  0  0  0  0  0  0  0  0  0
   13.0410   -0.1730   22.9440 C   0  0  0  0  0  0  0  0  0  0  0  0
  1  2  1  0
  2  3  2  0
  2  4  1  0
  4  5  2  0
  3  6  1  0
  5  7  1  0
  5  8  1  0
  6  8  2  0
  9  8  1  6
  9 10  2  0
  9 11  2  0
  9 12  1  0
 13 11  1  0
 12 14  1  0
 12 15  1  0
 13 16  2  0
 13 17  2  0
 13 18  1  0
 15 18  1  0
 14 19  1  0
 15 20  1  6
 18 21  1  0
 19 22  1  0
 20 22  1  0
 22 23  1  0
 21 24  1  0
 23 25  2  0
 23 26  1  0
 24 27  1  0
 27 28  2  0
 27 29  1  0
 28 30  1  0
 29 31  2  0
 30 32  2  0
 31 32  1  0
M  END
