x0771-x3298
     RDKit          3D

 50 54  0  0  0  0  0  0  0  0999 V2000
    7.1590    1.9390   22.0400 N   0  0  0  0  0  0  0  0  0  0  0  0
    7.9770    1.0210   21.4460 C   0  0  0  0  0  0  0  0  0  0  0  0
    7.3240   -0.3050   21.1090 C   0  0  1  0  0  0  0  0  0  0  0  0
    7.7140    2.9720   22.6720 C   0  0  0  0  0  0  0  0  0  0  0  0
    9.1240    1.2870   21.1380 O   0  0  0  0  0  0  0  0  0  0  0  0
    7.5810    4.3090   22.3090 C   0  0  0  0  0  0  0  0  0  0  0  0
    8.4740    2.6430   23.7420 C   0  0  0  0  0  0  0  0  0  0  0  0
    6.6720   -0.9570   22.2250 O   0  0  0  0  0  0  0  0  0  0  0  0
    8.6020    1.2660   24.0790 N   0  0  0  0  0  0  0  0  0  0  0  0
    6.4930    0.2300   19.9980 C   0  0  0  0  0  0  0  0  0  0  0  0
    8.2980    5.3730   23.1300 C   0  0  0  0  0  0  0  0  0  0  0  0
    9.1170    3.6220   24.4870 C   0  0  0  0  0  0  0  0  0  0  0  0
   10.0660    0.7690   24.6710 S   0  0  0  0  0  0  0  0  0  0  0  0
    5.5750   -1.7760   21.7700 C   0  0  0  0  0  0  0  0  0  0  0  0
    6.9890    0.0170   18.6610 C   0  0  0  0  0  0  0  0  0  0  0  0
    5.3200    0.9200   20.2470 C   0  0  0  0  0  0  0  0  0  0  0  0
    9.0550    4.9960   24.2110 C   0  0  0  0  0  0  0  0  0  0  0  0
   10.7970    1.9910   24.6650 O   0  0  0  0  0  0  0  0  0  0  0  0
    9.8010   -0.2270   25.9450 O   0  0  0  0  0  0  0  0  0  0  0  0
    5.4260   -3.0950   22.5720 C   0  0  0  0  0  0  0  0  0  0  0  0
    6.3550    0.5020   17.5800 N   0  0  0  0  0  0  0  0  0  0  0  0
    4.6070    1.4430   19.2150 C   0  0  0  0  0  0  0  0  0  0  0  0
   11.0530   -0.0320   23.5770 C   0  0  0  0  0  0  0  0  0  0  0  0
    5.1160    1.2620   17.7910 C   0  0  0  0  0  0  0  0  0  0  0  0
   12.3410    0.4440   23.3800 C   0  0  0  0  0  0  0  0  0  0  0  0
   10.4660   -1.2360   22.8770 C   0  0  0  0  0  0  0  0  0  0  0  0
    6.2510   -4.3470   22.0400 C   0  0  0  0  0  0  0  0  0  0  0  0
    6.5680   -4.0440   20.5800 C   0  0  0  0  0  0  0  0  0  0  0  0
   13.1960   -0.1620   22.5090 C   0  0  0  0  0  0  0  0  0  0  0  0
   11.4740   -1.8440   21.9350 C   0  0  0  0  0  0  0  0  0  0  0  0
    5.4770   -5.5030   22.0220 C   0  0  0  0  0  0  0  0  0  0  0  0
    7.4500   -4.6010   22.9650 C   0  0  0  0  0  0  0  0  0  0  0  0
    5.6560   -4.2220   19.7760 O   0  0  0  0  0  0  0  0  0  0  0  0
    7.9520   -3.4980   20.2490 C   0  0  0  0  0  0  0  0  0  0  0  0
   12.7710   -1.3890   21.7170 C   0  0  0  0  0  0  0  0  0  0  0  0
    5.2900   -6.1750   23.2110 C   0  0  0  0  0  0  0  0  0  0  0  0
    7.0110   -4.7590   24.4060 C   0  0  0  0  0  0  0  0  0  0  0  0
   13.5770   -1.9850   20.8600 F   0  0  0  0  0  0  0  0  0  0  0  0
    5.6330   -5.2970   24.3650 N   0  0  0  0  0  0  0  0  0  0  0  0
    4.9890   -5.6340   25.8260 S   0  0  0  0  0  0  0  0  0  0  0  0
    4.4800   -6.9840   25.7570 O   0  0  0  0  0  0  0  0  0  0  0  0
    5.9720   -5.2410   26.8140 O   0  0  0  0  0  0  0  0  0  0  0  0
    3.6550   -4.4540   25.9120 C   0  0  0  0  0  0  0  0  0  0  0  0
    2.3330   -4.7340   25.5330 C   0  0  0  0  0  0  0  0  0  0  0  0
    3.9960   -3.1770   26.3940 C   0  0  0  0  0  0  0  0  0  0  0  0
    1.9420   -6.0870   25.0090 C   0  0  0  0  0  0  0  0  0  0  0  0
    1.3740   -3.7210   25.6550 C   0  0  0  0  0  0  0  0  0  0  0  0
    3.0210   -2.1720   26.5090 C   0  0  0  0  0  0  0  0  0  0  0  0
    1.7060   -2.4550   26.1400 C   0  0  0  0  0  0  0  0  0  0  0  0
    0.6580   -1.3930   26.2770 C   0  0  0  0  0  0  0  0  0  0  0  0
  1  2  1  0
  2  3  1  0
  1  4  1  0
  2  5  2  0
  4  6  2  0
  4  7  1  0
  3  8  1  1
  7  9  1  0
  3 10  1  0
  6 11  1  0
  7 12  2  0
 13  9  1  0
  8 14  1  0
 10 15  2  0
 10 16  1  0
 11 17  2  0
 12 17  1  0
 13 18  2  0
 13 19  2  0
 14 20  1  0
 15 21  1  0
 16 22  2  0
 13 23  1  0
 21 24  2  0
 22 24  1  0
 23 25  2  0
 23 26  1  0
 20 27  1  0
 27 28  1  0
 25 29  1  0
 26 30  2  0
 27 31  1  0
 27 32  1  0
 28 33  2  0
 28 34  1  0
 29 35  2  0
 30 35  1  0
 31 36  1  0
 32 37  1  0
 35 38  1  0
 36 39  1  0
 37 39  1  0
 39 40  1  0
 40 41  2  0
 40 42  2  0
 40 43  1  0
 43 44  2  0
 43 45  1  0
 44 46  1  0
 44 47  1  0
 45 48  2  0
 47 49  2  0
 48 49  1  0
 49 50  1  0
M  END
