x0771-x3115
     RDKit          3D

 46 49  0  0  0  0  0  0  0  0999 V2000
    7.1040   -1.4190   21.9630 N   0  0  0  0  0  0  0  0  0  0  0  0
    6.6030   -0.0220   21.7270 C   0  0  1  0  0  0  0  0  0  0  0  0
    7.6320    1.0670   21.9090 C   0  0  0  0  0  0  0  0  0  0  0  0
    6.1980   -2.4030   22.3940 C   0  0  0  0  0  0  0  0  0  0  0  0
    8.3520   -1.5350   22.5310 C   0  0  0  0  0  0  0  0  0  0  0  0
    6.1210    0.3360   20.3360 C   0  0  0  0  0  0  0  0  0  0  0  0
    9.4420   -1.4710   21.6980 C   0  0  0  0  0  0  0  0  0  0  0  0
    8.5430   -1.7450   24.0090 C   0  0  0  0  0  0  0  0  0  0  0  0
    6.9300   -3.8090   22.6230 C   0  0  2  0  0  0  0  0  0  0  0  0
    7.4760    1.8510   22.9210 N   0  0  0  0  0  0  0  0  0  0  0  0
    8.5600    1.2320   21.1010 O   0  0  0  0  0  0  0  0  0  0  0  0
    4.9830    1.1240   20.1970 C   0  0  0  0  0  0  0  0  0  0  0  0
    6.8130   -0.0960   19.2150 C   0  0  0  0  0  0  0  0  0  0  0  0
   10.7370   -1.6050   22.1860 C   0  0  0  0  0  0  0  0  0  0  0  0
    9.9490   -1.8790   24.4850 C   0  0  0  0  0  0  0  0  0  0  0  0
    6.5850   -4.7640   21.5670 N   0  0  0  0  0  0  0  0  0  0  0  0
    6.7050   -4.3580   23.9120 C   0  0  0  0  0  0  0  0  0  0  0  0
    8.2530    2.9580   23.1780 C   0  0  0  0  0  0  0  0  0  0  0  0
    6.2290   -4.2180   20.3260 C   0  0  0  0  0  0  0  0  0  0  0  0
    6.3330    0.3000   17.8960 N   0  0  0  0  0  0  0  0  0  0  0  0
    4.4880    1.5250   18.9540 C   0  0  0  0  0  0  0  0  0  0  0  0
   11.0650   -1.8250   23.6580 C   0  0  0  0  0  0  0  0  0  0  0  0
    6.1830   -6.1130   22.0090 C   0  0  0  0  0  0  0  0  0  0  0  0
    5.4200   -5.1140   24.0100 N   0  0  0  0  0  0  0  0  0  0  0  0
    7.7970    4.2300   22.4740 C   0  0  0  0  0  0  0  0  0  0  0  0
   12.3670   -1.9820   24.3170 C   0  0  0  0  0  0  0  0  0  0  0  0
    5.1540   -4.5050   19.8480 O   0  0  0  0  0  0  0  0  0  0  0  0
    7.1550   -3.2810   19.5530 C   0  0  0  0  0  0  0  0  0  0  0  0
    4.9810   -5.5150   25.6320 S   0  0  0  0  0  0  0  0  0  0  0  0
    5.2190    1.0780   17.8450 C   0  0  0  0  0  0  0  0  0  0  0  0
    5.1850   -6.1280   22.9780 C   0  0  0  0  0  0  0  0  0  0  0  0
    8.4140    5.1910   22.9670 O   0  0  0  0  0  0  0  0  0  0  0  0
   13.4320   -2.2950   23.2420 C   0  0  0  0  0  0  0  0  0  0  0  0
   12.2630   -3.1290   25.3130 C   0  0  0  0  0  0  0  0  0  0  0  0
   12.6550   -0.6750   25.0250 C   0  0  0  0  0  0  0  0  0  0  0  0
    4.3510   -6.8110   25.5880 O   0  0  0  0  0  0  0  0  0  0  0  0
    6.2630   -5.2090   26.5940 O   0  0  0  0  0  0  0  0  0  0  0  0
    3.7910   -4.2900   25.8620 C   0  0  0  0  0  0  0  0  0  0  0  0
    8.3410    6.3570   22.2690 C   0  0  0  0  0  0  0  0  0  0  0  0
    2.4850   -4.6930   25.4900 C   0  0  0  0  0  0  0  0  0  0  0  0
    3.9910   -2.9830   26.3600 C   0  0  0  0  0  0  0  0  0  0  0  0
    2.1100   -6.0460   24.9390 C   0  0  0  0  0  0  0  0  0  0  0  0
    1.4560   -3.7620   25.6450 C   0  0  0  0  0  0  0  0  0  0  0  0
    2.9120   -2.0950   26.4910 C   0  0  0  0  0  0  0  0  0  0  0  0
    1.6230   -2.4710   26.1380 C   0  0  0  0  0  0  0  0  0  0  0  0
    0.4650   -1.5340   26.2810 C   0  0  0  0  0  0  0  0  0  0  0  0
  1  2  1  0
  2  3  1  6
  1  4  1  0
  1  5  1  0
  2  6  1  0
  5  7  2  0
  5  8  1  0
  9  4  1  6
  3 10  1  0
  3 11  2  0
  6 12  2  0
  6 13  1  0
  7 14  1  0
  8 15  2  0
  9 16  1  0
  9 17  1  0
 10 18  1  0
 16 19  1  0
 13 20  2  0
 12 21  1  0
 14 22  2  0
 15 22  1  0
 16 23  1  0
 17 24  1  0
 18 25  1  0
 22 26  1  0
 19 27  2  0
 19 28  1  0
 24 29  1  0
 20 30  1  0
 21 30  2  0
 23 31  1  0
 24 31  1  0
 25 32  1  0
 26 33  1  0
 26 34  1  0
 26 35  1  0
 29 36  2  0
 29 37  2  0
 29 38  1  0
 32 39  1  0
 38 40  2  0
 38 41  1  0
 40 42  1  0
 40 43  1  0
 41 44  2  0
 43 45  2  0
 44 45  1  0
 45 46  1  0
M  END
