x0771-x3117
     RDKit          3D

 48 52  0  0  0  0  0  0  0  0999 V2000
    7.1910   -1.2760   21.9930 N   0  0  0  0  0  0  0  0  0  0  0  0
    6.8090    0.1730   21.8150 C   0  0  1  0  0  0  0  0  0  0  0  0
    7.9160    1.1930   22.0810 C   0  0  0  0  0  0  0  0  0  0  0  0
    6.2460   -2.3440   22.4070 C   0  0  0  0  0  0  0  0  0  0  0  0
    8.4220   -1.3790   22.6060 C   0  0  0  0  0  0  0  0  0  0  0  0
    6.2560    0.4690   20.4490 C   0  0  0  0  0  0  0  0  0  0  0  0
    9.4620   -1.8600   21.8370 C   0  0  0  0  0  0  0  0  0  0  0  0
    8.6340   -1.0290   23.9180 C   0  0  0  0  0  0  0  0  0  0  0  0
    6.9390   -3.7530   22.6490 C   0  0  2  0  0  0  0  0  0  0  0  0
    7.9460    1.7910   23.2500 N   0  0  0  0  0  0  0  0  0  0  0  0
    8.7330    1.4690   21.1870 O   0  0  0  0  0  0  0  0  0  0  0  0
    5.0260    1.3500   20.2580 C   0  0  0  0  0  0  0  0  0  0  0  0
    6.8460   -0.0270   19.2980 C   0  0  0  0  0  0  0  0  0  0  0  0
   10.8600   -2.0090   22.3850 C   0  0  0  0  0  0  0  0  0  0  0  0
    9.9860   -1.1400   24.5540 C   0  0  0  0  0  0  0  0  0  0  0  0
    6.6020   -4.7040   21.5600 N   0  0  0  0  0  0  0  0  0  0  0  0
    6.7670   -4.4230   24.0240 C   0  0  0  0  0  0  0  0  0  0  0  0
    6.2520   -4.1690   20.3150 C   0  0  0  0  0  0  0  0  0  0  0  0
    6.3370    0.2790   17.9390 N   0  0  0  0  0  0  0  0  0  0  0  0
    4.4980    1.6690   18.8750 C   0  0  0  0  0  0  0  0  0  0  0  0
    8.6430    3.0430   23.5150 C   0  0  0  0  0  0  0  0  0  0  0  0
   11.1290   -1.6570   23.6990 C   0  0  0  0  0  0  0  0  0  0  0  0
    6.1460   -6.0490   21.9760 C   0  0  0  0  0  0  0  0  0  0  0  0
    5.4820   -5.1850   24.0810 N   0  0  0  0  0  0  0  0  0  0  0  0
   12.4920   -1.7520   24.2620 C   0  0  0  0  0  0  0  0  0  0  0  0
    5.1690   -4.4420   19.8350 O   0  0  0  0  0  0  0  0  0  0  0  0
    7.2090   -3.2730   19.5390 C   0  0  0  0  0  0  0  0  0  0  0  0
    4.9060   -5.5540   25.6630 S   0  0  0  0  0  0  0  0  0  0  0  0
    5.1450    1.1500   17.7780 C   0  0  0  0  0  0  0  0  0  0  0  0
   10.0310    2.9130   23.5840 C   0  0  0  0  0  0  0  0  0  0  0  0
    8.2800    4.0650   22.6470 C   0  0  0  0  0  0  0  0  0  0  0  0
    5.2250   -6.0910   23.0230 C   0  0  0  0  0  0  0  0  0  0  0  0
   12.6630   -0.5480   25.1150 C   0  0  0  0  0  0  0  0  0  0  0  0
   13.4870   -1.7770   23.1180 C   0  0  0  0  0  0  0  0  0  0  0  0
   12.7930   -3.0340   25.0590 C   0  0  0  0  0  0  0  0  0  0  0  0
    4.2730   -6.9500   25.6590 O   0  0  0  0  0  0  0  0  0  0  0  0
    5.9790   -5.2470   26.5690 O   0  0  0  0  0  0  0  0  0  0  0  0
   10.6730    4.1570   23.5750 C   0  0  0  0  0  0  0  0  0  0  0  0
    8.6780    5.2930   23.2060 C   0  0  0  0  0  0  0  0  0  0  0  0
    3.7410   -4.3110   25.8820 C   0  0  0  0  0  0  0  0  0  0  0  0
    9.7600    5.0940   24.1110 O   0  0  0  0  0  0  0  0  0  0  0  0
    2.4440   -4.6850   25.5030 C   0  0  0  0  0  0  0  0  0  0  0  0
    3.9640   -3.0380   26.3680 C   0  0  0  0  0  0  0  0  0  0  0  0
    2.0900   -6.0740   24.9450 C   0  0  0  0  0  0  0  0  0  0  0  0
    1.3950   -3.7600   25.6340 C   0  0  0  0  0  0  0  0  0  0  0  0
    2.9360   -2.1130   26.5010 C   0  0  0  0  0  0  0  0  0  0  0  0
    1.6350   -2.4720   26.1350 C   0  0  0  0  0  0  0  0  0  0  0  0
    0.5040   -1.4990   26.2770 C   0  0  0  0  0  0  0  0  0  0  0  0
  1  2  1  0
  2  3  1  6
  1  4  1  0
  1  5  1  0
  2  6  1  0
  5  7  2  0
  5  8  1  0
  9  4  1  1
  3 10  1  0
  3 11  2  0
  6 12  2  0
  6 13  1  0
  7 14  1  0
  8 15  2  0
  9 16  1  0
  9 17  1  0
 16 18  1  0
 13 19  2  0
 12 20  1  0
 10 21  1  0
 14 22  2  0
 15 22  1  0
 16 23  1  0
 17 24  1  0
 22 25  1  0
 18 26  2  0
 18 27  1  0
 24 28  1  0
 19 29  1  0
 20 29  2  0
 21 30  1  0
 21 31  1  0
 23 32  1  0
 24 32  1  0
 25 33  1  0
 25 34  1  0
 25 35  1  0
 28 36  2  0
 28 37  2  0
 30 38  1  0
 31 39  1  0
 28 40  1  0
 38 41  1  0
 39 41  1  0
 40 42  2  0
 40 43  1  0
 42 44  1  0
 42 45  1  0
 43 46  2  0
 45 47  2  0
 46 47  1  0
 47 48  1  0
M  END
