x0771-x2562
     RDKit          3D

 44 48  0  0  0  0  0  0  0  0999 V2000
    0.5730   -1.5010   26.1690 C   0  0  0  0  0  0  0  0  0  0  0  0
    1.7140   -2.4890   26.0840 C   0  0  0  0  0  0  0  0  0  0  0  0
    3.0050   -2.1230   26.4370 C   0  0  0  0  0  0  0  0  0  0  0  0
    1.5330   -3.7980   25.6610 C   0  0  0  0  0  0  0  0  0  0  0  0
    2.5370   -4.7770   25.5720 C   0  0  0  0  0  0  0  0  0  0  0  0
    4.1780   -3.1320   26.3740 C   0  0  0  0  0  0  0  0  0  0  0  0
    2.1580   -6.1630   25.0920 C   0  0  0  0  0  0  0  0  0  0  0  0
    3.8570   -4.4200   25.9430 C   0  0  0  0  0  0  0  0  0  0  0  0
    5.0440   -5.6290   25.8550 S   0  0  0  0  0  0  0  0  0  0  0  0
    4.3580   -6.8630   26.1530 O   0  0  0  0  0  0  0  0  0  0  0  0
    6.1310   -5.1690   26.8340 O   0  0  0  0  0  0  0  0  0  0  0  0
    5.7870   -5.3440   24.2630 N   0  0  0  0  0  0  0  0  0  0  0  0
    4.9640   -5.5310   23.0970 C   0  0  0  0  0  0  0  0  0  0  0  0
    6.9120   -4.4470   24.1510 C   0  0  0  0  0  0  0  0  0  0  0  0
    5.6060   -5.3690   21.8770 C   0  0  0  0  0  0  0  0  0  0  0  0
    7.4420   -4.2830   22.8720 C   0  0  0  0  0  0  0  0  0  0  0  0
    6.2720   -4.1180   21.8780 C   0  0  0  0  0  0  0  0  0  0  0  0
    6.6350   -3.8880   20.4030 C   0  0  0  0  0  0  0  0  0  0  0  0
    5.4590   -2.8390   22.2790 C   0  0  0  0  0  0  0  0  0  0  0  0
    5.6970   -4.0600   19.6410 O   0  0  0  0  0  0  0  0  0  0  0  0
    8.0150   -3.4000   19.9600 C   0  0  0  0  0  0  0  0  0  0  0  0
    6.3200   -1.5420   22.4870 C   0  0  0  0  0  0  0  0  0  0  0  0
    7.1080   -1.0180   21.2350 C   0  0  2  0  0  0  0  0  0  0  0  0
    8.3230   -0.1250   21.5940 C   0  0  0  0  0  0  0  0  0  0  0  0
    6.3720   -0.2100   20.1970 C   0  0  0  0  0  0  0  0  0  0  0  0
    8.3440    1.0970   21.3810 O   0  0  0  0  0  0  0  0  0  0  0  0
    9.2010   -0.7420   22.0560 N   0  0  0  0  0  0  0  0  0  0  0  0
    6.7750   -0.1380   18.6920 C   0  0  0  0  0  0  0  0  0  0  0  0
    5.1450    0.6510   20.4990 C   0  0  0  0  0  0  0  0  0  0  0  0
    4.4980    1.4280   19.4190 N   0  0  0  0  0  0  0  0  0  0  0  0
    6.1660    0.5770   17.7260 N   0  0  0  0  0  0  0  0  0  0  0  0
   10.4630   -0.2130   22.3650 C   0  0  0  0  0  0  0  0  0  0  0  0
    5.1070    1.2970   18.1180 C   0  0  0  0  0  0  0  0  0  0  0  0
   11.5600   -1.0570   22.3360 C   0  0  0  0  0  0  0  0  0  0  0  0
   10.6230    1.1180   22.6870 C   0  0  0  0  0  0  0  0  0  0  0  0
   12.8470   -0.5630   22.6230 C   0  0  0  0  0  0  0  0  0  0  0  0
   11.8570    1.6400   22.9720 C   0  0  0  0  0  0  0  0  0  0  0  0
   12.0350    2.9760   23.2970 O   0  0  0  0  0  0  0  0  0  0  0  0
   12.9790    0.8000   22.9350 C   0  0  0  0  0  0  0  0  0  0  0  0
   12.9540    3.7580   22.6350 C   0  0  1  0  0  0  0  0  0  0  0  0
   12.3970    4.5670   21.6710 N   0  0  0  0  0  0  0  0  0  0  0  0
   13.5690    4.7930   23.4870 C   0  0  0  0  0  0  0  0  0  0  0  0
   13.3640    5.5410   22.2440 C   0  0  2  0  0  0  0  0  0  0  0  0
   12.8800    6.8430   22.5480 O   0  0  0  0  0  0  0  0  0  0  0  0
  1  2  1  0
  2  3  2  0
  2  4  1  0
  4  5  2  0
  3  6  1  0
  5  7  1  0
  5  8  1  0
  6  8  2  0
  9  8  1  0
  9 10  2  0
  9 11  2  0
  9 12  1  0
 12 13  1  0
 12 14  1  0
 13 15  1  0
 14 16  1  0
 15 17  1  0
 16 17  1  0
 17 18  1  0
 17 19  1  0
 18 20  2  0
 18 21  1  0
 19 22  1  0
 23 22  1  1
 23 24  1  0
 23 25  1  0
 24 26  2  0
 24 27  1  0
 25 28  2  0
 25 29  1  0
 29 30  2  0
 28 31  1  0
 27 32  1  0
 30 33  1  0
 31 33  2  0
 32 34  2  0
 32 35  1  0
 34 36  1  0
 35 37  2  0
 37 38  1  0
 36 39  2  0
 37 39  1  0
 40 38  1  1
 40 41  1  0
 40 42  1  0
 41 43  1  0
 42 43  1  0
 43 44  1  1
M  END
