x0770-x0978-x0540
     RDKit          3D

 48 51  0  0  0  0  0  0  0  0999 V2000
    1.7900   -5.7440   23.3050 N   0  0  0  0  0  0  0  0  0  0  0  0
    3.0460   -6.4980   23.3260 C   0  0  2  0  0  0  0  0  0  0  0  0
    3.3470   -7.3770   24.5520 C   0  0  1  0  0  0  0  0  0  0  0  0
    0.6400   -6.2220   22.5270 C   0  0  0  0  0  0  0  0  0  0  0  0
    0.6640   -7.2610   21.8760 O   0  0  0  0  0  0  0  0  0  0  0  0
   -0.5750   -5.3370   22.5890 C   0  0  0  0  0  0  0  0  0  0  0  0
    4.1870   -5.4380   23.1410 C   0  0  0  0  0  0  0  0  0  0  0  0
    2.1360   -8.2570   24.7910 C   0  0  0  0  0  0  0  0  0  0  0  0
    4.4220   -7.9050   24.3410 O   0  0  0  0  0  0  0  0  0  0  0  0
    5.2400   -5.8030   22.1840 N   0  0  0  0  0  0  0  0  0  0  0  0
    4.1950   -4.3720   23.7520 O   0  0  0  0  0  0  0  0  0  0  0  0
    6.4960   -5.0270   22.0040 C   0  0  0  0  0  0  0  0  0  0  0  0
    6.4420   -3.5020   22.3130 C   0  0  2  0  0  0  0  0  0  0  0  0
    6.4350   -2.7370   21.1750 N   0  0  0  0  0  0  0  0  0  0  0  0
    7.2490   -3.1350   23.4130 C   0  0  0  0  0  0  0  0  0  0  0  0
    6.2210   -3.3470   19.9530 C   0  0  0  0  0  0  0  0  0  0  0  0
    7.2720   -1.5970   21.2310 C   0  0  1  0  0  0  0  0  0  0  0  0
    8.4730   -2.6690   23.0570 N   0  0  0  0  0  0  0  0  0  0  0  0
    7.2100   -3.0230   18.8340 C   0  0  0  0  0  0  0  0  0  0  0  0
    5.3080   -4.1520   19.7310 O   0  0  0  0  0  0  0  0  0  0  0  0
    9.3560   -2.4860   24.2090 C   0  0  0  0  0  0  0  0  0  0  0  0
    6.5450   -0.2240   21.4220 C   0  0  2  0  0  0  0  0  0  0  0  0
    8.4110   -1.6780   21.9910 C   0  0  0  0  0  0  0  0  0  0  0  0
    5.3730   -0.0210   22.4430 C   0  0  0  0  0  0  0  0  0  0  0  0
   10.5040   -1.5740   23.8450 C   0  0  0  0  0  0  0  0  0  0  0  0
    6.0730    0.3150   20.0980 C   0  0  0  0  0  0  0  0  0  0  0  0
    5.3370    1.2960   22.9660 C   0  0  0  0  0  0  0  0  0  0  0  0
   10.7600   -0.3530   24.4870 C   0  0  0  0  0  0  0  0  0  0  0  0
   11.4030   -1.9790   22.7450 C   0  0  0  0  0  0  0  0  0  0  0  0
    6.7560    0.2450   18.9160 C   0  0  0  0  0  0  0  0  0  0  0  0
    4.8350    0.9550   20.0580 C   0  0  0  0  0  0  0  0  0  0  0  0
    4.1280    2.0840   22.6710 N   0  0  0  0  0  0  0  0  0  0  0  0
   11.8280    0.4830   24.1140 C   0  0  0  0  0  0  0  0  0  0  0  0
   12.4400   -1.2240   22.3470 C   0  0  0  0  0  0  0  0  0  0  0  0
    6.3710    0.7410   17.7180 N   0  0  0  0  0  0  0  0  0  0  0  0
    4.4200    1.4750   18.8490 C   0  0  0  0  0  0  0  0  0  0  0  0
   13.3910   -1.7720   21.0760 Cl  0  0  0  0  0  0  0  0  0  0  0  0
    2.9800    2.1620   23.5880 C   0  0  0  0  0  0  0  0  0  0  0  0
   12.6880    0.1160   23.0800 C   0  0  0  0  0  0  0  0  0  0  0  0
    5.1820    1.3750   17.6960 C   0  0  0  0  0  0  0  0  0  0  0  0
    2.8570    1.4330   24.5610 O   0  0  0  0  0  0  0  0  0  0  0  0
    1.9900    3.1970   23.2160 N   0  0  0  0  0  0  0  0  0  0  0  0
    0.7490    3.3600   23.9940 C   0  0  0  0  0  0  0  0  0  0  0  0
    0.6650    4.6450   24.5840 C   0  0  0  0  0  0  0  0  0  0  0  0
   -0.3960    2.8660   23.3150 C   0  0  0  0  0  0  0  0  0  0  0  0
   -0.6400    4.9310   25.0340 C   0  0  0  0  0  0  0  0  0  0  0  0
   -1.6610    3.3010   23.7620 C   0  0  0  0  0  0  0  0  0  0  0  0
   -1.6640    4.6500   24.1320 C   0  0  0  0  0  0  0  0  0  0  0  0
  2  1  1  1
  2  3  1  0
  1  4  1  0
  4  5  2  0
  4  6  1  0
  2  7  1  0
  3  8  1  6
  3  9  1  0
  7 10  1  0
  7 11  2  0
 10 12  1  0
 13 12  1  6
 13 14  1  0
 13 15  1  0
 14 16  1  0
 14 17  1  0
 15 18  1  0
 16 19  1  0
 16 20  2  0
 18 21  1  0
 17 22  1  0
 17 23  1  1
 18 23  1  0
 22 24  1  1
 21 25  1  0
 22 26  1  0
 24 27  1  0
 25 28  2  0
 25 29  1  0
 26 30  2  0
 26 31  1  0
 27 32  1  0
 28 33  1  0
 29 34  2  0
 30 35  1  0
 31 36  2  0
 34 37  1  0
 32 38  1  0
 33 39  2  0
 34 39  1  0
 35 40  2  0
 36 40  1  0
 38 41  2  0
 38 42  1  0
 42 43  1  0
 43 44  1  0
 43 45  1  0
 44 46  1  0
 45 47  1  0
 46 48  1  0
 47 48  1  0
M  END
