x0770-x0540-x0981-x2694
     RDKit          3D

 66 71  0  0  0  0  0  0  0  0999 V2000
    7.3810    2.4340   22.2430 N   0  0  0  0  0  0  0  0  0  0  0  0
    7.9380    1.5100   21.4510 C   0  0  0  0  0  0  0  0  0  0  0  0
    8.9830    1.4870   20.7850 O   0  0  0  0  0  0  0  0  0  0  0  0
    7.5790    3.9090   22.2940 C   0  0  0  0  0  0  0  0  0  0  0  0
    7.0680    0.1790   21.3300 C   0  0  1  0  0  0  0  0  0  0  0  0
    8.1650    4.9170   22.8750 C   0  0  0  0  0  0  0  0  0  0  0  0
    6.8500    5.0760   21.3670 C   0  0  0  0  0  0  0  0  0  0  0  0
    8.9510    4.0020   23.9920 C   0  0  0  0  0  0  0  0  0  0  0  0
    6.2710    0.5010   20.0120 C   0  0  0  0  0  0  0  0  0  0  0  0
    8.8030    6.0120   23.5070 C   0  0  0  0  0  0  0  0  0  0  0  0
    7.1730    6.6080   21.5200 C   0  0  0  0  0  0  0  0  0  0  0  0
    7.7840   -1.3230   21.7190 C   0  0  1  0  0  0  0  0  0  0  0  0
    4.8320    0.8090   20.0680 C   0  0  0  0  0  0  0  0  0  0  0  0
    6.8360    0.5260   18.7610 C   0  0  0  0  0  0  0  0  0  0  0  0
    8.5600   -1.3650   23.1900 C   0  0  2  0  0  0  0  0  0  0  0  0
    8.1800    7.0570   22.5920 C   0  0  0  0  0  0  0  0  0  0  0  0
    7.1390   -2.6790   21.4880 C   0  0  1  0  0  0  0  0  0  0  0  0
    8.5500    8.3420   22.8070 O   0  0  0  0  0  0  0  0  0  0  0  0
    6.6720   -3.0520   19.9170 C   0  0  0  0  0  0  0  0  0  0  0  0
    3.8630    0.9260   21.3350 C   0  0  0  0  0  0  0  0  0  0  0  0
    7.7360   -4.1620   21.8150 C   0  0  0  0  0  0  0  0  0  0  0  0
    6.2360    0.7890   17.5880 N   0  0  0  0  0  0  0  0  0  0  0  0
    4.1650    1.0830   18.8240 C   0  0  0  0  0  0  0  0  0  0  0  0
    9.0900   -0.2040   23.8480 N   0  0  0  0  0  0  0  0  0  0  0  0
    9.8230   -1.9500   23.0670 C   0  0  0  0  0  0  0  0  0  0  0  0
    7.6390   -2.0850   24.1250 N   0  0  0  0  0  0  0  0  0  0  0  0
    5.8380   -2.5060   22.4030 C   0  0  0  0  0  0  0  0  0  0  0  0
    8.0430    9.1300   23.8770 C   0  0  0  0  0  0  0  0  0  0  0  0
    7.5970   -2.7770   18.7080 C   0  0  0  0  0  0  0  0  0  0  0  0
    5.6110   -3.6500   19.6260 O   0  0  0  0  0  0  0  0  0  0  0  0
    9.0280    0.0690   25.3420 C   0  0  0  0  0  0  0  0  0  0  0  0
    3.5730    2.2650   21.7050 C   0  0  0  0  0  0  0  0  0  0  0  0
    7.0830   -5.4620   21.6870 C   0  0  0  0  0  0  0  0  0  0  0  0
    4.9090    1.0540   17.6240 C   0  0  0  0  0  0  0  0  0  0  0  0
   10.5310    0.0590   23.4120 N   0  0  0  0  0  0  0  0  0  0  0  0
   10.9750   -1.1630   23.1610 C   0  0  0  0  0  0  0  0  0  0  0  0
    6.2080   -2.3670   23.8100 C   0  0  0  0  0  0  0  0  0  0  0  0
    3.4560    2.6370   23.0240 N   0  0  0  0  0  0  0  0  0  0  0  0
    5.7470   -5.7790   22.0850 N   0  0  0  0  0  0  0  0  0  0  0  0
   11.1670    1.3300   22.9590 C   0  0  0  0  0  0  0  0  0  0  0  0
   12.4460   -1.3900   23.0720 C   0  0  0  0  0  0  0  0  0  0  0  0
   12.9720   -2.8060   23.2230 C   0  0  0  0  0  0  0  0  0  0  0  0
    2.3510    2.4020   23.7960 C   0  0  0  0  0  0  0  0  0  0  0  0
    5.3300   -6.7860   22.9250 C   0  0  0  0  0  0  0  0  0  0  0  0
   12.5560    0.9000   22.7210 C   0  0  0  0  0  0  0  0  0  0  0  0
   13.4380   -0.3990   22.8670 C   0  0  0  0  0  0  0  0  0  0  0  0
    2.3180    1.3840   24.7790 O   0  0  0  0  0  0  0  0  0  0  0  0
    1.2190    3.3560   23.5700 N   0  0  0  0  0  0  0  0  0  0  0  0
    3.7860   -6.6270   23.3930 C   0  0  1  0  0  0  0  0  0  0  0  0
    6.0500   -7.7080   23.2640 O   0  0  0  0  0  0  0  0  0  0  0  0
   13.7770   -3.0580   24.5100 C   0  0  0  0  0  0  0  0  0  0  0  0
    3.0630   -7.3440   22.4810 N   0  0  0  0  0  0  0  0  0  0  0  0
    3.5680   -7.0860   24.6880 C   0  0  0  0  0  0  0  0  0  0  0  0
   -0.0040    3.3750   24.3750 C   0  0  0  0  0  0  0  0  0  0  0  0
   13.1920   -2.3960   25.7900 C   0  0  0  0  0  0  0  0  0  0  0  0
    1.6260   -7.2220   22.1170 C   0  0  0  0  0  0  0  0  0  0  0  0
    4.0440   -6.4060   25.8530 C   0  0  0  0  0  0  0  0  0  0  0  0
   -0.1170    4.7750   25.0880 C   0  0  0  0  0  0  0  0  0  0  0  0
   -1.1110    2.9580   23.5810 C   0  0  0  0  0  0  0  0  0  0  0  0
    1.1390   -8.2860   21.3090 C   0  0  0  0  0  0  0  0  0  0  0  0
    0.7440   -6.1780   22.4870 O   0  0  0  0  0  0  0  0  0  0  0  0
    3.4690   -6.7980   27.0100 N   0  0  0  0  0  0  0  0  0  0  0  0
    4.9150   -5.5010   25.8500 O   0  0  0  0  0  0  0  0  0  0  0  0
   -1.5270    5.1380   25.5340 C   0  0  0  0  0  0  0  0  0  0  0  0
   -2.4140    3.2000   24.0940 C   0  0  0  0  0  0  0  0  0  0  0  0
   -2.5510    4.6680   24.7010 C   0  0  0  0  0  0  0  0  0  0  0  0
  1  2  1  0
  2  3  2  0
  1  4  1  0
  5  2  1  6
  4  6  2  0
  4  7  1  0
  6  8  1  0
  5  9  1  0
  6 10  1  0
  7 11  2  0
 12  5  1  1
  9 13  1  0
  9 14  2  0
 12 15  1  0
 10 16  2  0
 11 16  1  0
 12 17  1  0
 16 18  1  0
 17 19  1  0
 13 20  1  0
 17 21  1  1
 14 22  1  0
 13 23  2  0
 15 24  1  0
 15 25  1  6
 15 26  1  0
 17 27  1  0
 18 28  1  0
 19 29  1  0
 19 30  2  0
 24 31  1  0
 20 32  1  0
 21 33  1  0
 22 34  2  0
 23 34  1  0
 24 35  1  0
 25 36  2  0
 35 36  1  0
 26 37  1  0
 27 37  1  0
 32 38  1  0
 33 39  1  0
 35 40  1  0
 36 41  1  0
 41 42  1  0
 38 43  1  0
 39 44  1  0
 40 45  2  0
 41 46  2  0
 45 46  1  0
 43 47  2  0
 43 48  1  0
 44 49  1  0
 44 50  2  0
 42 51  1  0
 49 52  1  0
 49 53  1  1
 48 54  1  0
 51 55  1  0
 52 56  1  0
 53 57  1  0
 54 58  1  0
 54 59  1  0
 56 60  1  0
 56 61  2  0
 57 62  1  0
 57 63  2  0
 58 64  1  0
 59 65  1  0
 64 66  1  0
 65 66  1  0
M  END
