x0771-x2705-x3115
     RDKit          3D

 51 55  0  0  0  0  0  0  0  0999 V2000
    7.4030   -1.2250   21.9640 N   0  0  0  0  0  0  0  0  0  0  0  0
    6.9310    0.0590   21.7280 C   0  0  1  0  0  0  0  0  0  0  0  0
    7.9380    1.1750   21.8710 C   0  0  0  0  0  0  0  0  0  0  0  0
    6.4020   -2.2020   22.2410 C   0  0  0  0  0  0  0  0  0  0  0  0
    8.5860   -1.3520   22.8320 C   0  0  0  0  0  0  0  0  0  0  0  0
    6.3170    0.3230   20.3830 C   0  0  0  0  0  0  0  0  0  0  0  0
    8.7400   -1.5140   24.1730 N   0  0  0  0  0  0  0  0  0  0  0  0
    9.9060   -1.3010   22.1790 C   0  0  0  0  0  0  0  0  0  0  0  0
    6.9050   -3.6540   22.6090 C   0  0  2  0  0  0  0  0  0  0  0  0
    7.6550    2.1040   22.8480 N   0  0  0  0  0  0  0  0  0  0  0  0
    8.9110    1.2770   21.1330 O   0  0  0  0  0  0  0  0  0  0  0  0
    5.0470    1.1260   20.2230 C   0  0  0  0  0  0  0  0  0  0  0  0
    6.9120   -0.1600   19.0910 C   0  0  0  0  0  0  0  0  0  0  0  0
   10.1420   -1.5540   24.3340 N   0  0  0  0  0  0  0  0  0  0  0  0
   10.7760   -1.4270   23.1510 C   0  0  0  0  0  0  0  0  0  0  0  0
    6.5940   -4.6460   21.5440 N   0  0  0  0  0  0  0  0  0  0  0  0
    6.6250   -3.9450   23.9560 C   0  0  0  0  0  0  0  0  0  0  0  0
   12.3760   -1.4210   22.9750 C   0  0  0  0  0  0  0  0  0  0  0  0
    6.3080   -4.1140   20.3010 C   0  0  0  0  0  0  0  0  0  0  0  0
    6.3880    0.0970   17.8800 N   0  0  0  0  0  0  0  0  0  0  0  0
    4.4560    1.4280   19.0790 C   0  0  0  0  0  0  0  0  0  0  0  0
    8.2170    3.3910   22.9380 C   0  0  0  0  0  0  0  0  0  0  0  0
    5.6290   -5.6630   21.9660 C   0  0  0  0  0  0  0  0  0  0  0  0
    5.8430   -5.2180   24.1070 N   0  0  0  0  0  0  0  0  0  0  0  0
   12.9490   -0.0460   23.2160 C   0  0  0  0  0  0  0  0  0  0  0  0
   13.1510   -2.3870   23.8920 C   0  0  0  0  0  0  0  0  0  0  0  0
   12.7900   -1.8940   21.5580 C   0  0  0  0  0  0  0  0  0  0  0  0
    5.2210   -4.3400   19.8000 O   0  0  0  0  0  0  0  0  0  0  0  0
    7.3340   -3.2660   19.5530 C   0  0  0  0  0  0  0  0  0  0  0  0
    5.0840   -5.6030   25.5890 S   0  0  0  0  0  0  0  0  0  0  0  0
    5.1670    0.8910   17.8740 C   0  0  0  0  0  0  0  0  0  0  0  0
    9.5020    3.4450   23.4900 C   0  0  0  0  0  0  0  0  0  0  0  0
    7.5360    4.6520   22.4830 C   0  0  0  0  0  0  0  0  0  0  0  0
    6.0330   -6.2080   23.1470 C   0  0  0  0  0  0  0  0  0  0  0  0
   10.2150    2.1880   23.9450 C   0  0  0  0  0  0  0  0  0  0  0  0
    6.3300    4.8030   21.9310 C   0  0  0  0  0  0  0  0  0  0  0  0
   12.5730   -2.7410   25.0930 C   0  0  0  0  0  0  0  0  0  0  0  0
    4.4540   -6.9060   25.5590 O   0  0  0  0  0  0  0  0  0  0  0  0
    6.0170   -5.4180   26.6730 O   0  0  0  0  0  0  0  0  0  0  0  0
   10.1780    4.6690   23.6400 C   0  0  0  0  0  0  0  0  0  0  0  0
    8.2960    5.8090   22.6760 C   0  0  0  0  0  0  0  0  0  0  0  0
    3.8760   -4.3230   25.7990 C   0  0  0  0  0  0  0  0  0  0  0  0
    9.3640    1.3230   24.8650 C   0  0  0  0  0  0  0  0  0  0  0  0
    9.5690    5.8560   23.2300 C   0  0  0  0  0  0  0  0  0  0  0  0
    2.5130   -4.6190   25.4870 C   0  0  0  0  0  0  0  0  0  0  0  0
    4.0570   -3.0190   26.2440 C   0  0  0  0  0  0  0  0  0  0  0  0
    1.9690   -5.9260   24.9780 C   0  0  0  0  0  0  0  0  0  0  0  0
    1.4200   -3.7250   25.6050 C   0  0  0  0  0  0  0  0  0  0  0  0
    2.9930   -2.1220   26.3670 C   0  0  0  0  0  0  0  0  0  0  0  0
    1.5590   -2.4670   26.0360 C   0  0  0  0  0  0  0  0  0  0  0  0
    0.4260   -1.5030   26.1810 C   0  0  0  0  0  0  0  0  0  0  0  0
  1  2  1  0
  2  3  1  6
  1  4  1  0
  1  5  1  0
  2  6  1  0
  5  7  2  0
  5  8  1  0
  9  4  1  6
  3 10  1  0
  3 11  2  0
  6 12  2  0
  6 13  1  0
  7 14  1  0
  8 15  2  0
 14 15  1  0
  9 16  1  0
  9 17  1  0
 15 18  1  0
 16 19  1  0
 13 20  2  0
 12 21  1  0
 10 22  1  0
 16 23  1  0
 17 24  1  0
 18 25  1  0
 18 26  1  0
 18 27  1  0
 19 28  2  0
 19 29  1  0
 24 30  1  0
 20 31  1  0
 21 31  2  0
 22 32  2  0
 22 33  1  0
 23 34  1  0
 24 34  1  0
 32 35  1  0
 33 36  1  0
 26 37  1  0
 30 38  2  0
 30 39  2  0
 32 40  1  0
 33 41  2  0
 30 42  1  0
 35 43  1  0
 40 44  2  0
 41 44  1  0
 42 45  2  0
 42 46  1  0
 45 47  1  0
 45 48  1  0
 46 49  2  0
 48 50  2  0
 49 50  1  0
 50 51  1  0
M  END
