x0770-x1418-x2694-x0354
     RDKit          3D

 52 57  0  0  0  0  0  0  0  0999 V2000
    7.4490    2.3610   22.6470 N   0  0  0  0  0  0  0  0  0  0  0  0
    7.8700    1.3230   21.7860 C   0  0  0  0  0  0  0  0  0  0  0  0
    9.1110    1.5770   21.1380 O   0  0  0  0  0  0  0  0  0  0  0  0
    8.1930    3.5550   22.9430 C   0  0  0  0  0  0  0  0  0  0  0  0
    7.0110    0.0650   21.4790 C   0  0  1  0  0  0  0  0  0  0  0  0
    9.0560    3.5750   24.0430 C   0  0  0  0  0  0  0  0  0  0  0  0
    8.1360    4.8590   22.1420 C   0  0  0  0  0  0  0  0  0  0  0  0
    9.1310    2.3610   24.9250 C   0  0  0  0  0  0  0  0  0  0  0  0
    6.3690    0.5410   20.1600 C   0  0  0  0  0  0  0  0  0  0  0  0
    9.8290    4.7430   24.3040 C   0  0  0  0  0  0  0  0  0  0  0  0
    8.9460    5.9500   22.5240 C   0  0  0  0  0  0  0  0  0  0  0  0
    7.6110   -1.3600   21.2100 C   0  0  1  0  0  0  0  0  0  0  0  0
    5.2100    1.3320   20.1480 C   0  0  0  0  0  0  0  0  0  0  0  0
    6.9090    0.2300   18.7900 C   0  0  0  0  0  0  0  0  0  0  0  0
    8.7800   -2.0060   22.1840 C   0  0  2  0  0  0  0  0  0  0  0  0
    9.8070    5.8980   23.6020 C   0  0  0  0  0  0  0  0  0  0  0  0
    6.5880   -2.3060   21.0100 N   0  0  0  0  0  0  0  0  0  0  0  0
   10.6220    7.0220   23.9440 O   0  0  0  0  0  0  0  0  0  0  0  0
    6.4320   -3.1180   19.8450 C   0  0  0  0  0  0  0  0  0  0  0  0
    6.2650    0.7320   17.5980 N   0  0  0  0  0  0  0  0  0  0  0  0
    4.5820    1.8180   19.0670 C   0  0  0  0  0  0  0  0  0  0  0  0
    8.9360   -1.2140   23.3980 N   0  0  0  0  0  0  0  0  0  0  0  0
   10.0940   -2.0630   21.7640 C   0  0  0  0  0  0  0  0  0  0  0  0
    8.2820   -3.1980   22.5850 N   0  0  0  0  0  0  0  0  0  0  0  0
    6.0420   -2.7800   22.1440 C   0  0  0  0  0  0  0  0  0  0  0  0
   11.7670    6.7090   24.7460 C   0  0  0  0  0  0  0  0  0  0  0  0
    7.4010   -2.9490   18.6950 C   0  0  0  0  0  0  0  0  0  0  0  0
    5.5430   -3.9970   19.7300 O   0  0  0  0  0  0  0  0  0  0  0  0
    9.4440   -1.9590   24.5000 C   0  0  0  0  0  0  0  0  0  0  0  0
    5.0900    1.5380   17.8200 C   0  0  0  0  0  0  0  0  0  0  0  0
   10.0920   -0.4240   23.1950 N   0  0  0  0  0  0  0  0  0  0  0  0
   10.8940   -1.1830   22.4000 C   0  0  0  0  0  0  0  0  0  0  0  0
    7.0070   -3.2310   23.2260 C   0  0  0  0  0  0  0  0  0  0  0  0
   10.0750    1.0510   23.3830 C   0  0  0  0  0  0  0  0  0  0  0  0
   12.2560   -0.9120   22.4520 C   0  0  0  0  0  0  0  0  0  0  0  0
    9.6740   -0.9350   25.5480 C   0  0  0  0  0  0  0  0  0  0  0  0
   13.2310   -1.9250   22.1320 C   0  0  0  0  0  0  0  0  0  0  0  0
   11.6110    1.2770   23.1990 C   0  0  0  0  0  0  0  0  0  0  0  0
   12.5850    0.4050   22.9080 C   0  0  0  0  0  0  0  0  0  0  0  0
    8.2860   -0.9500   26.1780 C   0  0  0  0  0  0  0  0  0  0  0  0
    7.1880   -1.7370   25.7290 O   0  0  0  0  0  0  0  0  0  0  0  0
    8.2360   -0.0790   27.3520 C   0  0  0  0  0  0  0  0  0  0  0  0
   13.3910   -2.7410   23.4090 C   0  0  0  0  0  0  0  0  0  0  0  0
    7.0050   -0.2650   28.0010 O   0  0  0  0  0  0  0  0  0  0  0  0
   13.2550   -1.9530   24.7090 C   0  0  0  0  0  0  0  0  0  0  0  0
    6.5850    0.8120   28.6500 C   0  0  0  0  0  0  0  0  0  0  0  0
    6.7970    2.1160   28.2260 C   0  0  0  0  0  0  0  0  0  0  0  0
    5.9010    0.5120   29.8220 C   0  0  0  0  0  0  0  0  0  0  0  0
    6.3330    3.1410   28.9770 C   0  0  0  0  0  0  0  0  0  0  0  0
    5.4140    1.4910   30.6130 C   0  0  0  0  0  0  0  0  0  0  0  0
    5.5950    2.8220   30.2570 C   0  0  0  0  0  0  0  0  0  0  0  0
    5.0740    3.9280   31.1160 C   0  0  0  0  0  0  0  0  0  0  0  0
  1  2  1  0
  2  3  2  0
  1  4  1  0
  5  2  1  6
  4  6  2  0
  4  7  1  0
  6  8  1  0
  5  9  1  0
  6 10  1  0
  7 11  2  0
  5 12  1  0
  9 13  2  0
  9 14  1  0
 12 15  1  0
 10 16  2  0
 11 16  1  0
 12 17  1  1
 16 18  1  0
 17 19  1  0
 14 20  2  0
 13 21  1  0
 15 22  1  0
 15 23  1  6
 15 24  1  0
 17 25  1  0
 18 26  1  0
 19 27  1  0
 19 28  2  0
 22 29  1  0
 20 30  1  0
 21 30  2  0
 22 31  1  0
 23 32  2  0
 31 32  1  0
 24 33  1  0
 25 33  1  0
 31 34  1  0
 32 35  1  0
 29 36  1  0
 35 37  1  0
 34 38  2  0
 35 39  2  0
 38 39  1  0
 36 40  1  0
 40 41  2  0
 40 42  1  0
 37 43  1  0
 42 44  1  0
 43 45  1  0
 44 46  1  0
 46 47  2  0
 46 48  1  0
 47 49  1  0
 48 50  2  0
 49 51  2  0
 50 51  1  0
 51 52  1  0
M  END
