x0770-x2581
     RDKit          3D

 37 41  0  0  0  0  0  0  0  0999 V2000
    9.3580   -2.7310   24.0830 C   0  0  0  0  0  0  0  0  0  0  0  0
    8.1540   -2.5120   23.3080 N   0  0  0  0  0  0  0  0  0  0  0  0
    8.1860   -1.7540   22.0210 C   0  0  2  0  0  0  0  0  0  0  0  0
   10.6140   -1.9340   23.8260 C   0  0  0  0  0  0  0  0  0  0  0  0
    7.3830   -3.7100   23.2780 C   0  0  0  0  0  0  0  0  0  0  0  0
   11.0250   -0.9550   24.7420 C   0  0  0  0  0  0  0  0  0  0  0  0
   11.3560   -2.1610   22.6840 C   0  0  0  0  0  0  0  0  0  0  0  0
    8.6700   -0.3370   22.1250 C   0  0  0  0  0  0  0  0  0  0  0  0
    6.9280   -1.6450   21.3920 C   0  0  0  0  0  0  0  0  0  0  0  0
    6.1280   -3.6800   22.4710 C   0  0  0  0  0  0  0  0  0  0  0  0
   12.2460   -0.1450   24.4700 C   0  0  0  0  0  0  0  0  0  0  0  0
   12.5020   -1.4480   22.3950 C   0  0  0  0  0  0  0  0  0  0  0  0
   13.3340   -1.8270   20.9830 Cl  0  0  0  0  0  0  0  0  0  0  0  0
    9.4270    0.0770   23.2430 C   0  0  0  0  0  0  0  0  0  0  0  0
    8.3560    0.6680   21.0460 C   0  0  0  0  0  0  0  0  0  0  0  0
    6.3600   -2.9750   21.2250 N   0  0  0  0  0  0  0  0  0  0  0  0
   13.0450   -0.3530   23.2680 C   0  0  0  0  0  0  0  0  0  0  0  0
    6.0870   -3.4900   19.9800 C   0  0  0  0  0  0  0  0  0  0  0  0
    8.7940    2.0420   21.0330 N   0  0  0  0  0  0  0  0  0  0  0  0
    9.8430    1.4320   23.1700 C   0  0  0  0  0  0  0  0  0  0  0  0
    7.1020   -3.0220   18.9250 C   0  0  0  0  0  0  0  0  0  0  0  0
    5.1730   -4.2580   19.7400 O   0  0  0  0  0  0  0  0  0  0  0  0
    9.5970    2.3980   22.1760 C   0  0  0  0  0  0  0  0  0  0  0  0
   10.1330    3.6240   22.3230 N   0  0  0  0  0  0  0  0  0  0  0  0
   11.4050    3.9510   22.9110 C   0  0  0  0  0  0  0  0  0  0  0  0
   12.0110    3.1350   23.5490 O   0  0  0  0  0  0  0  0  0  0  0  0
   11.9840    5.3560   22.7000 C   0  0  0  0  0  0  0  0  0  0  0  0
   11.1910    6.4590   23.3500 C   0  0  0  0  0  0  0  0  0  0  0  0
    9.9640    6.8360   22.8530 C   0  0  0  0  0  0  0  0  0  0  0  0
   11.7050    7.1510   24.5110 C   0  0  0  0  0  0  0  0  0  0  0  0
    9.0080    7.8660   23.2830 C   0  0  0  0  0  0  0  0  0  0  0  0
   10.9490    8.1320   25.0170 C   0  0  0  0  0  0  0  0  0  0  0  0
    9.6810    8.4510   24.4190 C   0  0  0  0  0  0  0  0  0  0  0  0
   11.4380    8.8910   26.1980 C   0  0  0  0  0  0  0  0  0  0  0  0
    8.8720    9.5080   24.9450 C   0  0  0  0  0  0  0  0  0  0  0  0
   10.5910    9.9850   26.7310 C   0  0  0  0  0  0  0  0  0  0  0  0
    9.2640   10.2870   26.0610 C   0  0  0  0  0  0  0  0  0  0  0  0
  1  2  1  0
  2  3  1  0
  1  4  1  0
  2  5  1  0
  4  6  2  0
  4  7  1  0
  3  8  1  1
  3  9  1  0
  5 10  1  0
  6 11  1  0
  7 12  2  0
 12 13  1  0
  8 14  2  0
  8 15  1  0
  9 16  1  0
 10 16  1  0
 11 17  2  0
 12 17  1  0
 16 18  1  0
 15 19  2  0
 14 20  1  0
 18 21  1  0
 18 22  2  0
 19 23  1  0
 20 23  2  0
 23 24  1  0
 24 25  1  0
 25 26  2  0
 25 27  1  0
 27 28  1  0
 28 29  2  0
 28 30  1  0
 29 31  1  0
 30 32  2  0
 31 33  2  0
 32 33  1  0
 32 34  1  0
 33 35  1  0
 34 36  2  0
 35 37  2  0
 36 37  1  0
M  END
