x0771-x3115-x0161-x3124
     RDKit          3D

 56 60  0  0  0  0  0  0  0  0999 V2000
    7.1540   -1.3650   22.0290 N   0  0  0  0  0  0  0  0  0  0  0  0
    6.7970    0.0640   21.7390 C   0  0  1  0  0  0  0  0  0  0  0  0
    7.9380    1.0920   22.0030 C   0  0  0  0  0  0  0  0  0  0  0  0
    6.1910   -2.3860   22.5290 C   0  0  0  0  0  0  0  0  0  0  0  0
    8.4550   -1.4900   22.6840 C   0  0  0  0  0  0  0  0  0  0  0  0
    6.2130    0.3390   20.3740 C   0  0  0  0  0  0  0  0  0  0  0  0
    9.4950   -1.8790   21.8680 C   0  0  0  0  0  0  0  0  0  0  0  0
    8.6700   -1.2680   23.9780 C   0  0  0  0  0  0  0  0  0  0  0  0
    6.9310   -3.7830   22.6810 C   0  0  2  0  0  0  0  0  0  0  0  0
    7.8970    1.6780   23.2550 N   0  0  0  0  0  0  0  0  0  0  0  0
    8.7710    1.4050   21.1450 O   0  0  0  0  0  0  0  0  0  0  0  0
    4.9440    1.1270   20.2740 C   0  0  0  0  0  0  0  0  0  0  0  0
    6.8010   -0.0780   19.1830 C   0  0  0  0  0  0  0  0  0  0  0  0
   10.7960   -2.0790   22.2120 C   0  0  0  0  0  0  0  0  0  0  0  0
   10.1000   -1.4800   24.3940 C   0  0  0  0  0  0  0  0  0  0  0  0
    6.6310   -4.6600   21.5470 N   0  0  0  0  0  0  0  0  0  0  0  0
    6.7070   -4.4400   24.0450 C   0  0  0  0  0  0  0  0  0  0  0  0
    7.5560    3.1000   23.4620 C   0  0  0  0  0  0  0  0  0  0  0  0
    6.2390   -4.2010   20.3230 C   0  0  0  0  0  0  0  0  0  0  0  0
    6.2890    0.2070   17.9630 N   0  0  0  0  0  0  0  0  0  0  0  0
    4.4500    1.3950   19.0070 C   0  0  0  0  0  0  0  0  0  0  0  0
   11.2140   -1.9080   23.4700 C   0  0  0  0  0  0  0  0  0  0  0  0
    6.1090   -6.0010   21.8280 C   0  0  0  0  0  0  0  0  0  0  0  0
    5.5130   -5.2020   24.1250 N   0  0  0  0  0  0  0  0  0  0  0  0
    8.3250    4.0190   22.4870 C   0  0  0  0  0  0  0  0  0  0  0  0
   12.5960   -2.0790   23.9760 C   0  0  0  0  0  0  0  0  0  0  0  0
    5.1580   -4.4960   19.8460 O   0  0  0  0  0  0  0  0  0  0  0  0
    7.1990   -3.3070   19.5420 C   0  0  0  0  0  0  0  0  0  0  0  0
    4.9820   -5.6010   25.6900 S   0  0  0  0  0  0  0  0  0  0  0  0
    5.1480    0.9260   17.9080 C   0  0  0  0  0  0  0  0  0  0  0  0
    5.1980   -6.1310   23.0320 C   0  0  0  0  0  0  0  0  0  0  0  0
    8.6250    5.2670   23.0310 N   0  0  0  0  0  0  0  0  0  0  0  0
   13.4330   -2.5420   22.7990 C   0  0  0  0  0  0  0  0  0  0  0  0
   12.8360   -3.0090   25.1140 C   0  0  0  0  0  0  0  0  0  0  0  0
   13.0360   -0.6840   24.4060 C   0  0  0  0  0  0  0  0  0  0  0  0
    4.4000   -6.9220   25.6290 O   0  0  0  0  0  0  0  0  0  0  0  0
    6.0020   -5.2710   26.6530 O   0  0  0  0  0  0  0  0  0  0  0  0
    3.7020   -4.3960   25.8500 C   0  0  0  0  0  0  0  0  0  0  0  0
    8.3740    6.4820   22.2060 C   0  0  0  0  0  0  0  0  0  0  0  0
   13.7650    0.0640   23.5220 O   0  0  0  0  0  0  0  0  0  0  0  0
   10.0390    5.4700   23.8930 S   0  0  0  0  0  0  0  0  0  0  0  0
    2.2580   -4.6880   25.4910 C   0  0  0  0  0  0  0  0  0  0  0  0
    4.0830   -3.0080   26.3730 C   0  0  0  0  0  0  0  0  0  0  0  0
   10.8300    6.5050   23.2610 O   0  0  0  0  0  0  0  0  0  0  0  0
    9.6930    5.6090   25.2870 O   0  0  0  0  0  0  0  0  0  0  0  0
    1.8070   -6.0220   24.9680 C   0  0  0  0  0  0  0  0  0  0  0  0
   10.9090    3.9460   23.6140 C   0  0  0  0  0  0  0  0  0  0  0  0
    1.3270   -3.7090   25.6460 C   0  0  0  0  0  0  0  0  0  0  0  0
    2.9230   -2.0360   26.4840 C   0  0  0  0  0  0  0  0  0  0  0  0
   12.2430    4.0590   22.9360 C   0  0  0  0  0  0  0  0  0  0  0  0
   10.3930    2.7610   23.9880 C   0  0  0  0  0  0  0  0  0  0  0  0
    1.6300   -2.4610   26.1150 C   0  0  0  0  0  0  0  0  0  0  0  0
    0.4870   -1.4940   26.2400 C   0  0  0  0  0  0  0  0  0  0  0  0
   12.8670    2.8990   22.7250 C   0  0  0  0  0  0  0  0  0  0  0  0
   11.0420    1.5200   23.7640 C   0  0  0  0  0  0  0  0  0  0  0  0
   12.2670    1.5880   23.1310 C   0  0  0  0  0  0  0  0  0  0  0  0
  1  2  1  0
  2  3  1  6
  1  4  1  0
  1  5  1  0
  2  6  1  0
  5  7  2  0
  5  8  1  0
  9  4  1  1
  3 10  1  0
  3 11  2  0
  6 12  2  0
  6 13  1  0
  7 14  1  0
  8 15  2  0
  9 16  1  0
  9 17  1  0
 10 18  1  0
 16 19  1  0
 13 20  2  0
 12 21  1  0
 14 22  2  0
 15 22  1  0
 16 23  1  0
 17 24  1  0
 18 25  1  0
 22 26  1  0
 19 27  2  0
 19 28  1  0
 24 29  1  0
 20 30  1  0
 21 30  2  0
 23 31  1  0
 24 31  1  0
 25 32  1  0
 26 33  1  0
 26 34  1  0
 26 35  1  0
 29 36  2  0
 29 37  2  0
 29 38  1  0
 32 39  1  0
 35 40  2  0
 41 32  1  0
 38 42  2  0
 38 43  1  0
 41 44  2  0
 41 45  2  0
 42 46  1  0
 41 47  1  0
 42 48  1  0
 43 49  2  0
 47 50  2  0
 47 51  1  0
 48 52  2  0
 49 52  1  0
 52 53  1  0
 50 54  1  0
 51 55  2  0
 54 56  2  0
 55 56  1  0
M  END
