x0770-x2193-x2694
     RDKit          3D

 46 51  0  0  0  0  0  0  0  0999 V2000
    7.5960    2.4300   22.4970 N   0  0  0  0  0  0  0  0  0  0  0  0
    8.0140    1.3310   21.7200 C   0  0  0  0  0  0  0  0  0  0  0  0
    9.0830    1.2150   21.1590 O   0  0  0  0  0  0  0  0  0  0  0  0
    8.2900    3.6550   22.8010 C   0  0  0  0  0  0  0  0  0  0  0  0
    6.9930    0.2020   21.4340 C   0  0  1  0  0  0  0  0  0  0  0  0
    9.6670    3.5430   23.4450 C   0  0  0  0  0  0  0  0  0  0  0  0
    7.9690    5.0110   22.6320 C   0  0  0  0  0  0  0  0  0  0  0  0
   10.3770    2.3260   23.7800 C   0  0  0  0  0  0  0  0  0  0  0  0
    6.3610    0.5830   20.0800 C   0  0  0  0  0  0  0  0  0  0  0  0
   10.4500    4.6360   23.8060 C   0  0  0  0  0  0  0  0  0  0  0  0
    8.8230    6.1200   23.0250 C   0  0  0  0  0  0  0  0  0  0  0  0
    7.1880   -1.3520   21.7640 C   0  0  2  0  0  0  0  0  0  0  0  0
    5.2400    1.3610   20.2270 C   0  0  0  0  0  0  0  0  0  0  0  0
    6.9050    0.1870   18.8850 C   0  0  0  0  0  0  0  0  0  0  0  0
    8.4090   -1.9690   22.6130 C   0  0  2  0  0  0  0  0  0  0  0  0
   10.0700    5.9570   23.6210 C   0  0  0  0  0  0  0  0  0  0  0  0
    6.3660   -2.3650   21.2410 N   0  0  0  0  0  0  0  0  0  0  0  0
   10.8470    7.0160   23.9910 O   0  0  0  0  0  0  0  0  0  0  0  0
    6.4270   -3.0840   19.9810 C   0  0  0  0  0  0  0  0  0  0  0  0
    6.2630    0.6340   17.6560 N   0  0  0  0  0  0  0  0  0  0  0  0
    4.5350    1.8480   19.0020 C   0  0  0  0  0  0  0  0  0  0  0  0
    8.6050   -1.6280   24.0560 N   0  0  0  0  0  0  0  0  0  0  0  0
    9.5890   -1.8670   22.0080 C   0  0  0  0  0  0  0  0  0  0  0  0
    8.2270   -3.4420   22.6640 N   0  0  0  0  0  0  0  0  0  0  0  0
    5.9220   -3.1530   22.3900 C   0  0  0  0  0  0  0  0  0  0  0  0
   11.8490    6.7520   24.9730 C   0  0  0  0  0  0  0  0  0  0  0  0
    7.4990   -2.8800   18.9040 C   0  0  0  0  0  0  0  0  0  0  0  0
    5.5700   -3.9650   19.7270 O   0  0  0  0  0  0  0  0  0  0  0  0
    8.3020   -2.6600   25.0610 C   0  0  0  0  0  0  0  0  0  0  0  0
    5.1360    1.4320   17.7200 C   0  0  0  0  0  0  0  0  0  0  0  0
    9.9770   -1.2700   24.0960 N   0  0  0  0  0  0  0  0  0  0  0  0
   10.5750   -1.4600   22.8610 C   0  0  0  0  0  0  0  0  0  0  0  0
    6.9950   -4.0220   22.6330 C   0  0  0  0  0  0  0  0  0  0  0  0
   10.4430   -0.0210   24.6990 C   0  0  0  0  0  0  0  0  0  0  0  0
   12.0600   -1.1790   22.7350 C   0  0  0  0  0  0  0  0  0  0  0  0
    9.4030   -3.5550   25.5090 N   0  0  0  0  0  0  0  0  0  0  0  0
   12.9910   -1.9410   21.9750 C   0  0  0  0  0  0  0  0  0  0  0  0
   11.7220    0.4500   24.3100 C   0  0  0  0  0  0  0  0  0  0  0  0
   12.5370   -0.1870   23.4880 C   0  0  0  0  0  0  0  0  0  0  0  0
    9.1820   -4.1920   26.7140 C   0  0  0  0  0  0  0  0  0  0  0  0
    9.9060   -4.4520   24.5750 C   0  0  0  0  0  0  0  0  0  0  0  0
    8.1310   -5.0610   26.5480 C   0  0  0  0  0  0  0  0  0  0  0  0
    9.1370   -5.7700   24.6430 C   0  0  0  0  0  0  0  0  0  0  0  0
   13.6120   -2.6420   23.1920 C   0  0  0  0  0  0  0  0  0  0  0  0
    8.7170   -6.1130   26.0060 N   0  0  0  0  0  0  0  0  0  0  0  0
   12.6110   -2.8310   24.3280 C   0  0  0  0  0  0  0  0  0  0  0  0
  1  2  1  0
  2  3  2  0
  1  4  1  0
  5  2  1  6
  4  6  2  0
  4  7  1  0
  6  8  1  0
  5  9  1  0
  6 10  1  0
  7 11  2  0
  5 12  1  0
  9 13  2  0
  9 14  1  0
 12 15  1  0
 10 16  2  0
 11 16  1  0
 12 17  1  6
 16 18  1  0
 17 19  1  0
 14 20  2  0
 13 21  1  0
 15 22  1  0
 15 23  1  6
 15 24  1  0
 17 25  1  0
 18 26  1  0
 19 27  1  0
 19 28  2  0
 22 29  1  0
 20 30  1  0
 21 30  2  0
 22 31  1  0
 23 32  2  0
 31 32  1  0
 24 33  1  0
 25 33  1  0
 31 34  1  0
 32 35  1  0
 29 36  1  0
 35 37  1  0
 34 38  2  0
 35 39  2  0
 38 39  1  0
 36 40  1  0
 36 41  1  0
 40 42  1  0
 41 43  1  0
 37 44  1  0
 42 45  1  0
 43 45  1  0
 44 46  1  0
M  END
