x0771-x0161
     RDKit          3D

 38 40  0  0  0  0  0  0  0  0999 V2000
    0.4490   -1.3740   26.2490 C   0  0  0  0  0  0  0  0  0  0  0  0
    1.6130   -2.3690   26.1150 C   0  0  0  0  0  0  0  0  0  0  0  0
    3.0870   -2.0470   26.4750 C   0  0  0  0  0  0  0  0  0  0  0  0
    1.2760   -3.6340   25.6400 C   0  0  0  0  0  0  0  0  0  0  0  0
    2.3050   -4.7810   25.4520 C   0  0  0  0  0  0  0  0  0  0  0  0
    4.0570   -3.0480   26.3260 C   0  0  0  0  0  0  0  0  0  0  0  0
    1.8650   -6.1210   24.9380 C   0  0  0  0  0  0  0  0  0  0  0  0
    3.7630   -4.4890   25.8130 C   0  0  0  0  0  0  0  0  0  0  0  0
    5.0740   -5.7340   25.6720 S   0  0  0  0  0  0  0  0  0  0  0  0
    4.4720   -7.0450   25.6050 O   0  0  0  0  0  0  0  0  0  0  0  0
    6.0430   -5.3700   26.7950 O   0  0  0  0  0  0  0  0  0  0  0  0
    5.8110   -5.4120   24.1930 N   0  0  0  0  0  0  0  0  0  0  0  0
    5.0970   -5.8820   22.9800 C   0  0  0  0  0  0  0  0  0  0  0  0
    6.4030   -4.0860   23.9600 C   0  0  0  0  0  0  0  0  0  0  0  0
    6.0190   -6.0170   21.9420 C   0  0  0  0  0  0  0  0  0  0  0  0
    7.1310   -4.0070   22.7840 C   0  0  1  0  0  0  0  0  0  0  0  0
    8.5570   -4.2630   23.1070 C   0  0  0  0  0  0  0  0  0  0  0  0
    6.7710   -4.8440   21.6430 N   0  0  0  0  0  0  0  0  0  0  0  0
    6.4920   -4.2100   20.4110 C   0  0  0  0  0  0  0  0  0  0  0  0
    9.4580   -3.1360   22.5810 C   0  0  0  0  0  0  0  0  0  0  0  0
    5.4000   -4.3540   19.8690 O   0  0  0  0  0  0  0  0  0  0  0  0
    7.5560   -3.3540   19.7110 C   0  0  0  0  0  0  0  0  0  0  0  0
   10.5730   -2.9700   23.6270 C   0  0  0  0  0  0  0  0  0  0  0  0
   11.7640   -2.3710   23.2470 C   0  0  0  0  0  0  0  0  0  0  0  0
   12.8770   -2.2260   24.3030 C   0  0  0  0  0  0  0  0  0  0  0  0
   13.0150   -1.0190   24.5100 O   0  0  0  0  0  0  0  0  0  0  0  0
   13.0520   -0.2610   23.2980 C   0  0  0  0  0  0  0  0  0  0  0  0
   13.6140   -0.6120   22.2710 O   0  0  0  0  0  0  0  0  0  0  0  0
   12.3030    1.0530   23.4110 C   0  0  0  0  0  0  0  0  0  0  0  0
   12.8960    2.3520   22.9210 C   0  0  0  0  0  0  0  0  0  0  0  0
   11.0270    1.0390   23.9920 C   0  0  0  0  0  0  0  0  0  0  0  0
   12.1980    3.6900   23.0160 C   0  0  0  0  0  0  0  0  0  0  0  0
   10.2800    2.3920   24.1100 C   0  0  0  0  0  0  0  0  0  0  0  0
   10.9450    3.6810   23.5980 C   0  0  0  0  0  0  0  0  0  0  0  0
   10.1070    5.2440   23.7490 S   0  0  0  0  0  0  0  0  0  0  0  0
   11.0130    6.2720   23.2740 O   0  0  0  0  0  0  0  0  0  0  0  0
    9.4390    5.3500   25.0330 O   0  0  0  0  0  0  0  0  0  0  0  0
    8.8610    5.0770   22.6300 N   0  0  0  0  0  0  0  0  0  0  0  0
  1  2  1  0
  2  3  2  0
  2  4  1  0
  4  5  2  0
  3  6  1  0
  5  7  1  0
  5  8  1  0
  6  8  2  0
  9  8  1  0
  9 10  2  0
  9 11  2  0
  9 12  1  0
 12 13  1  0
 12 14  1  0
 13 15  1  0
 14 16  1  0
 16 17  1  1
 15 18  1  0
 16 18  1  0
 18 19  1  0
 17 20  1  0
 19 21  2  0
 19 22  1  0
 20 23  1  0
 23 24  1  0
 24 25  1  0
 25 26  1  0
 26 27  1  0
 27 28  2  0
 27 29  1  0
 29 30  2  0
 29 31  1  0
 30 32  1  0
 31 33  2  0
 32 34  2  0
 33 34  1  0
 34 35  1  0
 35 36  2  0
 35 37  2  0
 35 38  1  0
M  END
