x0771-x1093
     RDKit          3D

 41 45  0  0  0  0  0  0  0  0999 V2000
    0.4570   -1.4370   26.0720 C   0  0  0  0  0  0  0  0  0  0  0  0
    1.6340   -2.4030   26.0010 C   0  0  0  0  0  0  0  0  0  0  0  0
    3.0690   -1.9910   26.3960 C   0  0  0  0  0  0  0  0  0  0  0  0
    1.3890   -3.7210   25.5640 C   0  0  0  0  0  0  0  0  0  0  0  0
    2.3310   -4.7600   25.4430 C   0  0  0  0  0  0  0  0  0  0  0  0
    4.1470   -3.0910   26.2880 C   0  0  0  0  0  0  0  0  0  0  0  0
    1.8030   -6.0500   24.9600 C   0  0  0  0  0  0  0  0  0  0  0  0
    3.8180   -4.5180   25.8110 C   0  0  0  0  0  0  0  0  0  0  0  0
    5.0290   -5.6790   25.7310 S   0  0  0  0  0  0  0  0  0  0  0  0
    4.4220   -6.9880   25.6650 O   0  0  0  0  0  0  0  0  0  0  0  0
    6.0200   -5.3170   26.8310 O   0  0  0  0  0  0  0  0  0  0  0  0
    5.7910   -5.4190   24.2540 N   0  0  0  0  0  0  0  0  0  0  0  0
    5.1790   -5.8350   23.0710 C   0  0  0  0  0  0  0  0  0  0  0  0
    6.9060   -4.6640   24.0780 C   0  0  0  0  0  0  0  0  0  0  0  0
    5.0970   -4.7950   22.1520 C   0  0  0  0  0  0  0  0  0  0  0  0
    7.3350   -4.3230   22.8140 C   0  0  0  0  0  0  0  0  0  0  0  0
    6.2310   -3.9550   22.0350 C   0  0  0  0  0  0  0  0  0  0  0  0
    6.6060   -3.9650   20.5510 C   0  0  0  0  0  0  0  0  0  0  0  0
    5.8440   -2.4400   22.2940 C   0  0  0  0  0  0  0  0  0  0  0  0
    5.7240   -4.2430   19.7550 O   0  0  0  0  0  0  0  0  0  0  0  0
    8.0210   -3.5510   20.1750 C   0  0  0  0  0  0  0  0  0  0  0  0
    6.9650   -1.3480   22.5090 C   0  0  0  0  0  0  0  0  0  0  0  0
    7.8770   -0.8760   21.2980 C   0  0  2  0  0  0  0  0  0  0  0  0
    8.8430    0.2110   21.7670 C   0  0  0  0  0  0  0  0  0  0  0  0
    7.0160   -0.3120   20.1840 C   0  0  0  0  0  0  0  0  0  0  0  0
    8.8420    1.3540   21.2470 O   0  0  0  0  0  0  0  0  0  0  0  0
    9.7350   -0.1030   22.7670 N   0  0  0  0  0  0  0  0  0  0  0  0
    7.2210   -0.5210   18.7080 C   0  0  0  0  0  0  0  0  0  0  0  0
    5.9040    0.4850   20.2850 C   0  0  0  0  0  0  0  0  0  0  0  0
   10.8080    0.7410   23.2010 C   0  0  0  0  0  0  0  0  0  0  0  0
    9.9420   -1.4710   23.0580 C   0  0  0  0  0  0  0  0  0  0  0  0
    6.2560    0.1510   18.0360 N   0  0  0  0  0  0  0  0  0  0  0  0
    5.4090    0.7960   18.9890 C   0  0  0  0  0  0  0  0  0  0  0  0
    5.1840    1.0340   21.3510 C   0  0  0  0  0  0  0  0  0  0  0  0
   12.2540    0.1270   23.2870 C   0  0  0  0  0  0  0  0  0  0  0  0
   11.2140   -1.9770   22.9790 C   0  0  0  0  0  0  0  0  0  0  0  0
    4.3870    1.5200   18.6530 N   0  0  0  0  0  0  0  0  0  0  0  0
    4.0770    1.8130   21.0370 C   0  0  0  0  0  0  0  0  0  0  0  0
   12.1770   -1.1650   23.7300 N   0  0  0  0  0  0  0  0  0  0  0  0
    3.7270    2.0220   19.7020 C   0  0  0  0  0  0  0  0  0  0  0  0
   13.4100   -1.8140   23.6960 C   0  0  0  0  0  0  0  0  0  0  0  0
  1  2  1  0
  2  3  2  0
  2  4  1  0
  4  5  2  0
  3  6  1  0
  5  7  1  0
  5  8  1  0
  6  8  2  0
  9  8  1  0
  9 10  2  0
  9 11  2  0
  9 12  1  0
 12 13  1  0
 12 14  1  0
 13 15  1  0
 14 16  1  0
 15 17  1  0
 16 17  1  0
 17 18  1  0
 17 19  1  0
 18 20  2  0
 18 21  1  0
 19 22  1  0
 23 22  1  1
 23 24  1  0
 23 25  1  0
 24 26  2  0
 24 27  1  0
 25 28  2  0
 25 29  1  0
 27 30  1  0
 27 31  1  0
 28 32  1  0
 29 33  2  0
 32 33  1  0
 29 34  1  0
 30 35  1  0
 31 36  1  0
 33 37  1  0
 34 38  2  0
 35 39  1  0
 36 39  1  0
 37 40  2  0
 38 40  1  0
 39 41  1  0
M  END
