x0771-x2563-x2581
     RDKit          3D

 60 67  0  0  0  0  0  0  0  0999 V2000
    0.6290   -1.5980   26.0520 C   0  0  0  0  0  0  0  0  0  0  0  0
    1.8410   -2.5140   25.9770 C   0  0  0  0  0  0  0  0  0  0  0  0
    3.2310   -2.0660   26.3150 C   0  0  0  0  0  0  0  0  0  0  0  0
    1.5190   -3.8020   25.5630 C   0  0  0  0  0  0  0  0  0  0  0  0
    2.5080   -4.7920   25.4340 C   0  0  0  0  0  0  0  0  0  0  0  0
    4.2620   -3.0100   26.2050 C   0  0  0  0  0  0  0  0  0  0  0  0
    2.1640   -6.2050   24.9850 C   0  0  0  0  0  0  0  0  0  0  0  0
    3.9410   -4.3110   25.7880 C   0  0  0  0  0  0  0  0  0  0  0  0
    5.1700   -5.5110   25.6380 S   0  0  0  0  0  0  0  0  0  0  0  0
    4.5640   -6.8200   25.7170 O   0  0  0  0  0  0  0  0  0  0  0  0
    6.2170   -5.1300   26.5600 O   0  0  0  0  0  0  0  0  0  0  0  0
    5.7730   -5.3160   24.0460 N   0  0  0  0  0  0  0  0  0  0  0  0
    4.8930   -5.8230   23.0040 C   0  0  0  0  0  0  0  0  0  0  0  0
    7.1840   -5.2510   23.6530 C   0  0  2  0  0  0  0  0  0  0  0  0
    8.1510   -4.6070   24.6490 C   0  0  0  0  0  0  0  0  0  0  0  0
    5.6800   -6.0480   21.8760 C   0  0  0  0  0  0  0  0  0  0  0  0
    7.4290   -4.5290   22.5180 C   0  0  0  0  0  0  0  0  0  0  0  0
    9.3710   -4.2820   24.0160 C   0  0  0  0  0  0  0  0  0  0  0  0
    6.5280   -4.9830   21.5010 N   0  0  0  0  0  0  0  0  0  0  0  0
    6.3010   -4.2540   20.3430 C   0  0  0  0  0  0  0  0  0  0  0  0
    9.4990   -2.8310   23.4810 C   0  0  0  0  0  0  0  0  0  0  0  0
    5.2130   -4.3480   19.8070 O   0  0  0  0  0  0  0  0  0  0  0  0
    7.4320   -3.3470   19.8010 C   0  0  0  0  0  0  0  0  0  0  0  0
   10.6000   -2.2670   23.5910 O   0  0  0  0  0  0  0  0  0  0  0  0
   10.7470   -0.9300   23.0460 C   0  0  1  0  0  0  0  0  0  0  0  0
    9.4920    0.0000   23.4170 C   0  0  1  0  0  0  0  0  0  0  0  0
   11.9080   -0.5450   23.6810 C   0  0  0  0  0  0  0  0  0  0  0  0
    9.7370    1.3660   23.4850 C   0  0  0  0  0  0  0  0  0  0  0  0
    8.4050   -0.3300   22.6680 C   0  0  0  0  0  0  0  0  0  0  0  0
   11.7520   -0.2750   25.0240 C   0  0  0  0  0  0  0  0  0  0  0  0
    9.2760   -0.2110   24.8680 C   0  0  0  0  0  0  0  0  0  0  0  0
    9.7910    1.8820   22.2310 C   0  0  2  0  0  0  0  0  0  0  0  0
    8.5790    0.1140   21.4170 C   0  0  1  0  0  0  0  0  0  0  0  0
   10.5000   -0.3370   25.6900 C   0  0  0  0  0  0  0  0  0  0  0  0
   10.0780    3.3250   22.1930 N   0  0  0  0  0  0  0  0  0  0  0  0
    7.5430   -0.5920   20.5480 C   0  0  0  0  0  0  0  0  0  0  0  0
    8.8380    1.5730   21.3090 N   0  0  0  0  0  0  0  0  0  0  0  0
   11.3220    3.7400   22.8550 C   0  0  0  0  0  0  0  0  0  0  0  0
    6.5950    0.1980   19.7660 C   0  0  0  0  0  0  0  0  0  0  0  0
   11.9850    2.8590   23.6100 O   0  0  0  0  0  0  0  0  0  0  0  0
   11.8380    5.1740   22.6390 C   0  0  0  0  0  0  0  0  0  0  0  0
    5.3600    0.8760   20.3320 C   0  0  0  0  0  0  0  0  0  0  0  0
    7.0230    0.2040   18.4840 C   0  0  0  0  0  0  0  0  0  0  0  0
   11.0760    6.3130   23.2790 C   0  0  0  0  0  0  0  0  0  0  0  0
    6.2720    0.9300   17.4720 N   0  0  0  0  0  0  0  0  0  0  0  0
    4.5700    1.6390   19.2740 C   0  0  0  0  0  0  0  0  0  0  0  0
    4.9510    0.8370   21.6730 C   0  0  0  0  0  0  0  0  0  0  0  0
    9.8260    6.6840   22.7780 C   0  0  0  0  0  0  0  0  0  0  0  0
   11.6000    7.0210   24.3760 C   0  0  0  0  0  0  0  0  0  0  0  0
    5.0640    1.6460   17.8610 C   0  0  0  0  0  0  0  0  0  0  0  0
    3.3060    2.3490   19.8070 C   0  0  0  0  0  0  0  0  0  0  0  0
    3.7130    1.5390   22.1770 C   0  0  0  0  0  0  0  0  0  0  0  0
    9.0650    7.8280   23.4010 C   0  0  0  0  0  0  0  0  0  0  0  0
   10.9100    8.0880   24.9660 C   0  0  0  0  0  0  0  0  0  0  0  0
    2.9650    2.2410   21.2570 C   0  0  0  0  0  0  0  0  0  0  0  0
    9.6350    8.4880   24.4670 C   0  0  0  0  0  0  0  0  0  0  0  0
   11.4590    8.7990   26.0620 C   0  0  0  0  0  0  0  0  0  0  0  0
    8.9560    9.5640   25.0510 C   0  0  0  0  0  0  0  0  0  0  0  0
   10.7390    9.8570   26.5970 C   0  0  0  0  0  0  0  0  0  0  0  0
    9.5150   10.2430   26.1120 C   0  0  0  0  0  0  0  0  0  0  0  0
  1  2  1  0
  2  3  2  0
  2  4  1  0
  4  5  2  0
  3  6  1  0
  5  7  1  0
  5  8  1  0
  6  8  2  0
  9  8  1  0
  9 10  2  0
  9 11  2  0
  9 12  1  0
 12 13  1  0
 12 14  1  0
 14 15  1  1
 13 16  1  0
 14 17  1  0
 15 18  1  0
 16 19  1  0
 17 19  1  0
 19 20  1  0
 18 21  1  0
 20 22  2  0
 20 23  1  0
 21 24  1  0
 25 24  1  1
 25 26  1  0
 25 27  1  0
 26 28  1  1
 26 29  1  0
 27 30  2  0
 26 31  1  0
 28 32  1  0
 29 33  1  0
 30 34  1  0
 31 34  2  0
 32 35  1  1
 33 36  1  6
 32 37  1  0
 33 37  1  0
 35 38  1  0
 36 39  1  0
 38 40  2  0
 38 41  1  0
 39 42  1  0
 39 43  2  0
 41 44  1  0
 43 45  1  0
 42 46  2  0
 42 47  1  0
 44 48  2  0
 44 49  1  0
 45 50  2  0
 46 50  1  0
 46 51  1  0
 47 52  2  0
 48 53  1  0
 49 54  2  0
 51 55  2  0
 52 55  1  0
 53 56  2  0
 54 56  1  0
 54 57  1  0
 56 58  1  0
 57 59  2  0
 58 60  2  0
 59 60  1  0
M  END
