x0771-x3115-x1308
     RDKit          3D

 53 56  0  0  0  0  0  0  0  0999 V2000
    7.2120   -1.4660   22.0020 N   0  0  0  0  0  0  0  0  0  0  0  0
    6.7990   -0.1580   21.7410 C   0  0  1  0  0  0  0  0  0  0  0  0
    7.8090    0.9210   21.9720 C   0  0  0  0  0  0  0  0  0  0  0  0
    6.2120   -2.1940   22.8230 C   0  0  0  0  0  0  0  0  0  0  0  0
    8.5610   -1.6030   22.5970 C   0  0  0  0  0  0  0  0  0  0  0  0
    6.2400    0.2610   20.3410 C   0  0  0  0  0  0  0  0  0  0  0  0
    9.6780   -1.3790   21.8210 C   0  0  0  0  0  0  0  0  0  0  0  0
    8.6580   -1.9900   24.0570 C   0  0  0  0  0  0  0  0  0  0  0  0
    6.4920   -3.6380   23.1650 C   0  0  2  0  0  0  0  0  0  0  0  0
    7.3780    1.8980   22.8460 N   0  0  0  0  0  0  0  0  0  0  0  0
    8.9000    0.9710   21.4140 O   0  0  0  0  0  0  0  0  0  0  0  0
    5.1100    1.0330   20.1910 C   0  0  0  0  0  0  0  0  0  0  0  0
    6.9250   -0.1460   19.1880 C   0  0  0  0  0  0  0  0  0  0  0  0
   10.9130   -1.4950   22.3500 C   0  0  0  0  0  0  0  0  0  0  0  0
    9.9290   -2.1040   24.5820 C   0  0  0  0  0  0  0  0  0  0  0  0
    5.9140   -4.6090   22.0970 C   0  0  2  0  0  0  0  0  0  0  0  0
    5.8320   -3.7960   24.3920 C   0  0  0  0  0  0  0  0  0  0  0  0
    8.1860    2.9510   23.2450 C   0  0  0  0  0  0  0  0  0  0  0  0
    6.6960   -4.7820   20.8380 C   0  0  0  0  0  0  0  0  0  0  0  0
    4.9190   -3.9770   21.2710 N   0  0  0  0  0  0  0  0  0  0  0  0
    6.3390    0.3360   17.8600 N   0  0  0  0  0  0  0  0  0  0  0  0
    4.6220    1.4310   19.0620 C   0  0  0  0  0  0  0  0  0  0  0  0
   11.0190   -1.8590   23.7510 C   0  0  0  0  0  0  0  0  0  0  0  0
    5.7640   -5.9560   22.4350 C   0  0  0  0  0  0  0  0  0  0  0  0
    5.5980   -5.2420   24.7870 C   0  0  2  0  0  0  0  0  0  0  0  0
    7.7950    4.2340   22.5160 C   0  0  0  0  0  0  0  0  0  0  0  0
   12.4660   -1.9220   24.2530 C   0  0  0  0  0  0  0  0  0  0  0  0
    6.0270   -5.3400   19.9830 O   0  0  0  0  0  0  0  0  0  0  0  0
    8.0960   -4.2630   20.6130 C   0  0  0  0  0  0  0  0  0  0  0  0
    4.5510   -5.3620   26.1710 S   0  0  0  0  0  0  0  0  0  0  0  0
    5.5700   -3.0160   20.3540 C   0  0  0  0  0  0  0  0  0  0  0  0
    6.9600   -5.6850   25.6520 S   0  0  0  0  0  0  0  0  0  0  0  0
    5.2180    1.1020   17.8580 C   0  0  0  0  0  0  0  0  0  0  0  0
    5.1480   -6.1610   23.6260 C   0  0  0  0  0  0  0  0  0  0  0  0
    8.4220    5.2000   22.9800 O   0  0  0  0  0  0  0  0  0  0  0  0
   13.3480   -2.0910   23.2150 C   0  0  0  0  0  0  0  0  0  0  0  0
   12.8080   -3.0220   25.2710 C   0  0  0  0  0  0  0  0  0  0  0  0
   12.7360   -0.5850   24.9150 C   0  0  0  0  0  0  0  0  0  0  0  0
    3.9230   -6.6660   26.0940 O   0  0  0  0  0  0  0  0  0  0  0  0
    5.3570   -4.9780   27.3090 O   0  0  0  0  0  0  0  0  0  0  0  0
    5.0400   -2.2890   19.3450 C   0  0  0  0  0  0  0  0  0  0  0  0
    7.6370   -4.5320   26.1740 O   0  0  0  0  0  0  0  0  0  0  0  0
    6.4310   -6.6480   26.5990 O   0  0  0  0  0  0  0  0  0  0  0  0
    3.3570   -4.1390   26.0470 C   0  0  0  0  0  0  0  0  0  0  0  0
    8.2630    6.3880   22.2070 C   0  0  0  0  0  0  0  0  0  0  0  0
    1.9750   -4.5120   25.4950 C   0  0  0  0  0  0  0  0  0  0  0  0
    3.7330   -2.7360   26.5020 C   0  0  0  0  0  0  0  0  0  0  0  0
    1.5350   -5.8720   25.0220 C   0  0  0  0  0  0  0  0  0  0  0  0
    1.0880   -3.4500   25.4610 C   0  0  0  0  0  0  0  0  0  0  0  0
    2.5680   -1.7870   26.3470 C   0  0  0  0  0  0  0  0  0  0  0  0
    1.3310   -2.1460   25.8580 C   0  0  0  0  0  0  0  0  0  0  0  0
    0.2670   -1.1100   25.7710 C   0  0  0  0  0  0  0  0  0  0  0  0
   -0.2730   -0.7710   27.3480 Cl  0  0  0  0  0  0  0  0  0  0  0  0
  1  2  1  0
  2  3  1  6
  1  4  1  0
  1  5  1  0
  2  6  1  0
  5  7  2  0
  5  8  1  0
  9  4  1  6
  3 10  1  0
  3 11  2  0
  6 12  2  0
  6 13  1  0
  7 14  1  0
  8 15  2  0
  9 16  1  0
  9 17  1  0
 10 18  1  0
 16 19  1  0
 16 20  1  6
 13 21  2  0
 12 22  1  0
 14 23  2  0
 15 23  1  0
 16 24  1  0
 25 17  1  0
 18 26  1  0
 23 27  1  0
 19 28  2  0
 19 29  1  0
 25 30  1  0
 20 31  2  3
 25 32  1  1
 21 33  1  0
 22 33  2  0
 24 34  1  0
 25 34  1  0
 26 35  1  0
 27 36  1  0
 27 37  1  0
 27 38  1  0
 30 39  2  0
 30 40  2  0
 31 41  1  0
 32 42  2  0
 32 43  2  0
 30 44  1  0
 35 45  1  0
 44 46  2  0
 44 47  1  0
 46 48  1  0
 46 49  1  0
 47 50  2  0
 49 51  2  0
 50 51  1  0
 51 52  1  0
 52 53  1  0
M  END
