x0771-x0434
     RDKit          3D

 38 41  0  0  0  0  0  0  0  0999 V2000
    0.6210   -1.4340   26.1300 C   0  0  0  0  0  0  0  0  0  0  0  0
    1.7800   -2.4180   26.0730 C   0  0  0  0  0  0  0  0  0  0  0  0
    3.0820   -2.0480   26.3590 C   0  0  0  0  0  0  0  0  0  0  0  0
    1.4710   -3.8750   25.6870 C   0  0  0  0  0  0  0  0  0  0  0  0
    2.4340   -4.8780   25.6100 C   0  0  0  0  0  0  0  0  0  0  0  0
    4.0900   -3.0040   26.3000 C   0  0  0  0  0  0  0  0  0  0  0  0
    2.0680   -6.3070   25.2270 C   0  0  0  0  0  0  0  0  0  0  0  0
    3.7590   -4.4760   25.9170 C   0  0  0  0  0  0  0  0  0  0  0  0
    5.0010   -5.6410   25.8630 S   0  0  0  0  0  0  0  0  0  0  0  0
    4.3320   -6.9190   25.8920 O   0  0  0  0  0  0  0  0  0  0  0  0
    6.0670   -5.2580   26.8950 O   0  0  0  0  0  0  0  0  0  0  0  0
    5.6790   -5.4140   24.3550 N   0  0  0  0  0  0  0  0  0  0  0  0
    5.1440   -6.0550   23.2020 C   0  0  0  0  0  0  0  0  0  0  0  0
    7.0820   -4.9750   24.2090 C   0  0  0  0  0  0  0  0  0  0  0  0
    5.1150   -5.1090   22.1940 C   0  0  0  0  0  0  0  0  0  0  0  0
    7.5050   -4.8320   22.8800 C   0  0  0  0  0  0  0  0  0  0  0  0
    6.3590   -4.1810   22.1400 C   0  0  0  0  0  0  0  0  0  0  0  0
    6.6690   -4.0110   20.6380 C   0  0  0  0  0  0  0  0  0  0  0  0
    6.3580   -2.8020   22.7820 C   0  0  0  0  0  0  0  0  0  0  0  0
    5.7710   -4.2750   19.8250 O   0  0  0  0  0  0  0  0  0  0  0  0
    8.0510   -3.4980   20.2630 C   0  0  0  0  0  0  0  0  0  0  0  0
    5.9330   -1.5540   21.9460 C   0  0  0  0  0  0  0  0  0  0  0  0
    6.9660   -0.8900   21.0600 N   0  0  0  0  0  0  0  0  0  0  0  0
    8.1980   -0.3810   21.5820 C   0  0  0  0  0  0  0  0  0  0  0  0
    6.3600   -0.1270   20.0450 C   0  0  0  0  0  0  0  0  0  0  0  0
    8.4680    0.7830   21.2660 O   0  0  0  0  0  0  0  0  0  0  0  0
    8.8910   -1.0450   22.2480 N   0  0  0  0  0  0  0  0  0  0  0  0
    5.1970    0.6200   20.2290 C   0  0  0  0  0  0  0  0  0  0  0  0
    6.9140   -0.0890   18.7900 C   0  0  0  0  0  0  0  0  0  0  0  0
   10.2160   -0.6950   22.5620 C   0  0  0  0  0  0  0  0  0  0  0  0
    4.6580    1.3530   19.1780 C   0  0  0  0  0  0  0  0  0  0  0  0
    6.4410    0.6030   17.7400 N   0  0  0  0  0  0  0  0  0  0  0  0
   10.4890    0.4140   23.3720 C   0  0  0  0  0  0  0  0  0  0  0  0
   11.4000   -1.4900   22.0320 C   0  0  0  0  0  0  0  0  0  0  0  0
    5.2650    1.3670   17.9070 C   0  0  0  0  0  0  0  0  0  0  0  0
   11.7510    0.8360   23.7120 C   0  0  0  0  0  0  0  0  0  0  0  0
   12.6850   -1.0880   22.3600 C   0  0  0  0  0  0  0  0  0  0  0  0
   12.8720    0.1640   23.2590 C   0  0  0  0  0  0  0  0  0  0  0  0
  1  2  1  0
  2  3  2  0
  2  4  1  0
  4  5  2  0
  3  6  1  0
  5  7  1  0
  5  8  1  0
  6  8  2  0
  9  8  1  0
  9 10  2  0
  9 11  2  0
  9 12  1  0
 12 13  1  0
 12 14  1  0
 13 15  1  0
 14 16  1  0
 15 17  1  0
 16 17  1  0
 17 18  1  0
 17 19  1  0
 18 20  2  0
 18 21  1  0
 19 22  1  0
 22 23  1  0
 23 24  1  0
 23 25  1  0
 24 26  2  0
 24 27  1  0
 25 28  2  0
 25 29  1  0
 27 30  1  0
 28 31  1  0
 29 32  2  0
 30 33  2  0
 30 34  1  0
 31 35  2  0
 32 35  1  0
 33 36  1  0
 34 37  2  0
 36 38  2  0
 37 38  1  0
M  END
