x0771-x3113
     RDKit          3D

 47 50  0  0  0  0  0  0  0  0999 V2000
    7.1810   -1.3570   21.9470 N   0  0  0  0  0  0  0  0  0  0  0  0
    6.8160    0.0880   21.7550 C   0  0  1  0  0  0  0  0  0  0  0  0
    7.9750    1.0610   21.9480 C   0  0  0  0  0  0  0  0  0  0  0  0
    6.2760   -2.3370   22.4130 C   0  0  0  0  0  0  0  0  0  0  0  0
    8.4120   -1.5350   22.5490 C   0  0  0  0  0  0  0  0  0  0  0  0
    6.2310    0.4700   20.4010 C   0  0  0  0  0  0  0  0  0  0  0  0
    9.6570   -1.3580   21.7300 C   0  0  0  0  0  0  0  0  0  0  0  0
    8.5940   -1.9140   24.0000 C   0  0  0  0  0  0  0  0  0  0  0  0
    6.8820   -3.7900   22.6050 C   0  0  2  0  0  0  0  0  0  0  0  0
    8.2160    1.5520   23.1320 N   0  0  0  0  0  0  0  0  0  0  0  0
    8.6720    1.4090   20.9910 O   0  0  0  0  0  0  0  0  0  0  0  0
    5.0960    1.2500   20.2670 C   0  0  0  0  0  0  0  0  0  0  0  0
    6.9440   -0.0290   19.3230 C   0  0  0  0  0  0  0  0  0  0  0  0
   11.0360   -1.5710   22.3130 C   0  0  0  0  0  0  0  0  0  0  0  0
    9.9460   -2.1160   24.5860 C   0  0  0  0  0  0  0  0  0  0  0  0
    6.5700   -4.7320   21.5440 N   0  0  0  0  0  0  0  0  0  0  0  0
    6.7090   -4.4140   23.9950 C   0  0  0  0  0  0  0  0  0  0  0  0
    9.1610    2.5410   23.3910 C   0  0  0  0  0  0  0  0  0  0  0  0
    6.2170   -4.1800   20.3060 C   0  0  0  0  0  0  0  0  0  0  0  0
    6.5140    0.2680   18.0590 N   0  0  0  0  0  0  0  0  0  0  0  0
    4.6410    1.5620   19.0020 C   0  0  0  0  0  0  0  0  0  0  0  0
   11.1890   -1.9600   23.7650 C   0  0  0  0  0  0  0  0  0  0  0  0
    6.1730   -5.9940   21.9760 C   0  0  0  0  0  0  0  0  0  0  0  0
    5.5700   -5.0830   24.0730 N   0  0  0  0  0  0  0  0  0  0  0  0
   10.5740    1.9750   23.3080 C   0  0  0  0  0  0  0  0  0  0  0  0
   12.5260   -2.1750   24.3720 C   0  0  0  0  0  0  0  0  0  0  0  0
    5.1370   -4.4530   19.8290 O   0  0  0  0  0  0  0  0  0  0  0  0
    7.1620   -3.2590   19.5430 C   0  0  0  0  0  0  0  0  0  0  0  0
    5.0040   -5.5070   25.6490 S   0  0  0  0  0  0  0  0  0  0  0  0
    5.3440    1.0790   17.9170 C   0  0  0  0  0  0  0  0  0  0  0  0
    5.2640   -5.9950   23.0240 C   0  0  0  0  0  0  0  0  0  0  0  0
   11.6140    3.0620   23.3130 C   0  0  0  0  0  0  0  0  0  0  0  0
   13.5270   -2.3920   23.2550 C   0  0  0  0  0  0  0  0  0  0  0  0
   12.2590   -3.2350   25.3710 C   0  0  0  0  0  0  0  0  0  0  0  0
   12.8360   -0.8610   25.0820 C   0  0  0  0  0  0  0  0  0  0  0  0
    4.4120   -6.8190   25.5390 O   0  0  0  0  0  0  0  0  0  0  0  0
    6.2080   -5.1920   26.7030 O   0  0  0  0  0  0  0  0  0  0  0  0
    3.8050   -4.2890   25.8610 C   0  0  0  0  0  0  0  0  0  0  0  0
   11.7910    3.8140   22.3700 O   0  0  0  0  0  0  0  0  0  0  0  0
    2.5100   -4.7120   25.4920 C   0  0  0  0  0  0  0  0  0  0  0  0
    4.0040   -2.9780   26.3410 C   0  0  0  0  0  0  0  0  0  0  0  0
   12.9780    4.5980   22.5280 C   0  0  0  0  0  0  0  0  0  0  0  0
    2.1280   -6.0680   24.9570 C   0  0  0  0  0  0  0  0  0  0  0  0
    1.4880   -3.7740   25.6420 C   0  0  0  0  0  0  0  0  0  0  0  0
    2.9420   -2.0840   26.4680 C   0  0  0  0  0  0  0  0  0  0  0  0
    1.6720   -2.4830   26.1200 C   0  0  0  0  0  0  0  0  0  0  0  0
    0.5250   -1.5300   26.2650 C   0  0  0  0  0  0  0  0  0  0  0  0
  1  2  1  0
  2  3  1  6
  1  4  1  0
  1  5  1  0
  2  6  1  0
  5  7  2  0
  5  8  1  0
  9  4  1  1
  3 10  1  0
  3 11  2  0
  6 12  2  0
  6 13  1  0
  7 14  1  0
  8 15  2  0
  9 16  1  0
  9 17  1  0
 10 18  1  0
 16 19  1  0
 13 20  2  0
 12 21  1  0
 14 22  2  0
 15 22  1  0
 16 23  1  0
 17 24  1  0
 18 25  1  0
 22 26  1  0
 19 27  2  0
 19 28  1  0
 24 29  1  0
 20 30  1  0
 21 30  2  0
 23 31  1  0
 24 31  1  0
 25 32  1  0
 26 33  1  0
 26 34  1  0
 26 35  1  0
 29 36  2  0
 29 37  2  0
 29 38  1  0
 32 39  1  0
 38 40  2  0
 38 41  1  0
 39 42  1  0
 40 43  1  0
 40 44  1  0
 41 45  2  0
 44 46  2  0
 45 46  1  0
 46 47  1  0
M  END
