x0771-x2646
     RDKit          3D

 40 43  0  0  0  0  0  0  0  0999 V2000
    0.2520   -1.4170   26.0880 C   0  0  0  0  0  0  0  0  0  0  0  0
    1.4550   -2.3470   26.0190 C   0  0  0  0  0  0  0  0  0  0  0  0
    2.8700   -1.9140   26.4300 C   0  0  0  0  0  0  0  0  0  0  0  0
    1.2760   -3.6650   25.5580 C   0  0  0  0  0  0  0  0  0  0  0  0
    2.2850   -4.6450   25.4300 C   0  0  0  0  0  0  0  0  0  0  0  0
    4.0380   -2.9040   26.3300 C   0  0  0  0  0  0  0  0  0  0  0  0
    1.8380   -5.9520   24.9150 C   0  0  0  0  0  0  0  0  0  0  0  0
    3.7600   -4.3250   25.8130 C   0  0  0  0  0  0  0  0  0  0  0  0
    5.0330   -5.3950   25.6900 S   0  0  0  0  0  0  0  0  0  0  0  0
    4.5260   -6.7500   25.6730 O   0  0  0  0  0  0  0  0  0  0  0  0
    6.0700   -4.9400   26.7110 O   0  0  0  0  0  0  0  0  0  0  0  0
    5.4970   -4.9580   24.1320 N   0  0  0  0  0  0  0  0  0  0  0  0
    4.8480   -5.7060   23.0170 C   0  0  0  0  0  0  0  0  0  0  0  0
    6.7040   -4.0950   23.8700 C   0  0  2  0  0  0  0  0  0  0  0  0
    6.3850   -2.6190   23.6810 C   0  0  0  0  0  0  0  0  0  0  0  0
    5.8070   -6.0580   22.0730 C   0  0  0  0  0  0  0  0  0  0  0  0
    7.4540   -4.5930   22.8310 C   0  0  0  0  0  0  0  0  0  0  0  0
    7.6690   -1.7210   23.9160 C   0  0  0  0  0  0  0  0  0  0  0  0
    6.6790   -5.0690   21.6890 N   0  0  0  0  0  0  0  0  0  0  0  0
    6.3550   -4.3730   20.4990 C   0  0  0  0  0  0  0  0  0  0  0  0
    8.6020   -1.4060   22.6910 C   0  0  1  0  0  0  0  0  0  0  0  0
    5.2920   -4.5660   19.9180 O   0  0  0  0  0  0  0  0  0  0  0  0
    7.3150   -3.3790   19.8750 C   0  0  0  0  0  0  0  0  0  0  0  0
    8.0630   -0.3770   21.7380 C   0  0  0  0  0  0  0  0  0  0  0  0
   10.0350   -0.9830   22.9500 C   0  0  0  0  0  0  0  0  0  0  0  0
    8.6620    0.6980   21.5780 O   0  0  0  0  0  0  0  0  0  0  0  0
    6.8540   -0.7310   21.0270 N   0  0  0  0  0  0  0  0  0  0  0  0
   10.4650   -0.0290   23.9160 C   0  0  0  0  0  0  0  0  0  0  0  0
   10.9560   -1.5920   22.1360 C   0  0  0  0  0  0  0  0  0  0  0  0
    6.2590    0.0380   20.0380 C   0  0  0  0  0  0  0  0  0  0  0  0
   11.8270    0.2720   24.0080 C   0  0  0  0  0  0  0  0  0  0  0  0
   12.2800   -1.2900   22.2360 C   0  0  0  0  0  0  0  0  0  0  0  0
   13.2860   -2.1060   21.1630 Cl  0  0  0  0  0  0  0  0  0  0  0  0
    6.5970    0.1700   18.7580 C   0  0  0  0  0  0  0  0  0  0  0  0
    5.0490    0.9110   20.2830 C   0  0  0  0  0  0  0  0  0  0  0  0
   12.7330   -0.3670   23.1580 C   0  0  0  0  0  0  0  0  0  0  0  0
    4.3440    1.0670   21.5570 C   0  0  0  0  0  0  0  0  0  0  0  0
    6.3370    0.7640   17.5050 N   0  0  0  0  0  0  0  0  0  0  0  0
    4.5470    1.6990   19.0260 C   0  0  0  0  0  0  0  0  0  0  0  0
    5.1990    1.5830   17.7590 C   0  0  0  0  0  0  0  0  0  0  0  0
  1  2  1  0
  2  3  2  0
  2  4  1  0
  4  5  2  0
  3  6  1  0
  5  7  1  0
  5  8  1  0
  6  8  2  0
  9  8  1  0
  9 10  2  0
  9 11  2  0
  9 12  1  0
 12 13  1  0
 12 14  1  0
 14 15  1  6
 13 16  1  0
 14 17  1  0
 15 18  1  0
 16 19  1  0
 17 19  1  0
 19 20  1  0
 21 18  1  1
 20 22  2  0
 20 23  1  0
 21 24  1  0
 21 25  1  0
 24 26  2  0
 24 27  1  0
 25 28  2  0
 25 29  1  0
 27 30  1  0
 28 31  1  0
 29 32  2  0
 32 33  1  0
 30 34  2  0
 30 35  1  0
 31 36  2  0
 32 36  1  0
 35 37  1  0
 34 38  1  0
 35 39  2  0
 38 40  2  0
 39 40  1  0
M  END
