x0786-x2193
     RDKit          3D

 36 39  0  0  0  0  0  0  0  0999 V2000
    6.1790   -3.5270   21.9720 N   0  0  0  0  0  0  0  0  0  0  0  0
    6.5430   -4.2370   20.8300 C   0  0  0  0  0  0  0  0  0  0  0  0
    8.0380   -4.6300   20.7150 C   0  0  0  0  0  0  0  0  0  0  0  0
    7.2070   -2.9620   22.5980 C   0  0  0  0  0  0  0  0  0  0  0  0
    5.3450   -4.0820   22.9110 C   0  0  0  0  0  0  0  0  0  0  0  0
    5.6700   -4.4960   19.9670 O   0  0  0  0  0  0  0  0  0  0  0  0
    4.8170   -5.3470   22.8180 C   0  0  0  0  0  0  0  0  0  0  0  0
    5.0750   -3.2480   24.0180 C   0  0  0  0  0  0  0  0  0  0  0  0
    7.7090   -4.0490   23.6050 C   0  0  0  0  0  0  0  0  0  0  0  0
    3.9380   -5.7420   23.9990 C   0  0  0  0  0  0  0  0  0  0  0  0
    4.2770   -3.6110   25.1010 C   0  0  0  0  0  0  0  0  0  0  0  0
    8.8240   -3.7280   24.4060 C   0  0  0  0  0  0  0  0  0  0  0  0
    3.2140   -7.0280   24.1820 C   0  0  0  0  0  0  0  0  0  0  0  0
    3.7030   -4.8830   25.0790 C   0  0  0  0  0  0  0  0  0  0  0  0
    9.1610   -2.5040   23.8760 C   0  0  0  0  0  0  0  0  0  0  0  0
    8.2400   -3.7130   25.6900 C   0  0  0  0  0  0  0  0  0  0  0  0
    9.8040   -4.6280   24.1740 C   0  0  0  0  0  0  0  0  0  0  0  0
    3.8180   -7.9750   24.6760 O   0  0  0  0  0  0  0  0  0  0  0  0
    1.8710   -7.0500   23.7810 N   0  0  0  0  0  0  0  0  0  0  0  0
    8.3520   -1.4320   24.1960 C   0  0  0  0  0  0  0  0  0  0  0  0
   10.2070   -2.1760   23.0180 C   0  0  0  0  0  0  0  0  0  0  0  0
    8.3010   -4.9250   26.4640 C   0  0  0  0  0  0  0  0  0  0  0  0
    9.3460   -5.8740   24.5230 C   0  0  0  0  0  0  0  0  0  0  0  0
    1.2890   -5.8130   23.2130 C   0  0  0  0  0  0  0  0  0  0  0  0
    0.9870   -8.0810   24.0340 C   0  0  0  0  0  0  0  0  0  0  0  0
    8.4880   -0.1300   23.7400 C   0  0  0  0  0  0  0  0  0  0  0  0
   10.3970   -0.6960   22.4980 C   0  0  0  0  0  0  0  0  0  0  0  0
    9.2240   -5.9310   25.9620 N   0  0  0  0  0  0  0  0  0  0  0  0
    0.4440   -5.2060   24.1480 C   0  0  0  0  0  0  0  0  0  0  0  0
   -0.0180   -7.6970   24.9410 C   0  0  0  0  0  0  0  0  0  0  0  0
    9.4870    0.2940   22.9020 C   0  0  0  0  0  0  0  0  0  0  0  0
   -0.9410   -6.2530   24.4900 S   0  0  0  0  0  0  0  0  0  0  0  0
    9.4920    2.0000   22.4430 S   0  0  0  0  0  0  0  0  0  0  0  0
   11.0530    2.6250   22.7770 C   0  0  0  0  0  0  0  0  0  0  0  0
    9.2240    1.9780   21.0360 O   0  0  0  0  0  0  0  0  0  0  0  0
    8.5480    2.6620   23.3130 O   0  0  0  0  0  0  0  0  0  0  0  0
  1  2  1  0
  2  3  1  0
  1  4  1  0
  1  5  1  0
  2  6  2  0
  5  7  2  0
  5  8  1  0
  4  9  1  0
  7 10  1  0
  8 11  2  0
 12  9  1  0
 10 13  1  0
 10 14  2  0
 11 14  1  0
 12 15  1  0
 12 16  1  0
 12 17  1  0
 13 18  2  0
 13 19  1  0
 15 20  2  0
 15 21  1  0
 16 22  1  0
 17 23  1  0
 19 24  1  0
 19 25  1  0
 20 26  1  0
 21 27  2  0
 22 28  1  0
 23 28  1  0
 24 29  1  0
 25 30  1  0
 26 31  2  0
 27 31  1  0
 29 32  1  0
 30 32  1  0
 31 33  1  0
 33 34  1  0
 33 35  2  0
 33 36  2  0
M  END
