x0786-x3113-x0540
     RDKit          3D

 57 61  0  0  0  0  0  0  0  0999 V2000
    7.2240   -1.3370   21.9350 N   0  0  0  0  0  0  0  0  0  0  0  0
    6.9350   -0.0130   21.7180 C   0  0  1  0  0  0  0  0  0  0  0  0
    8.0790    0.9880   21.8720 C   0  0  0  0  0  0  0  0  0  0  0  0
    6.0350   -2.0370   22.2390 C   0  0  0  0  0  0  0  0  0  0  0  0
    8.5000   -1.5410   22.5720 C   0  0  0  0  0  0  0  0  0  0  0  0
    6.0130   -3.4940   22.0430 N   0  0  0  0  0  0  0  0  0  0  0  0
    6.3270    0.3180   20.3420 C   0  0  0  0  0  0  0  0  0  0  0  0
    9.5680   -1.9480   21.7880 C   0  0  0  0  0  0  0  0  0  0  0  0
    8.7610   -1.3250   23.9240 C   0  0  0  0  0  0  0  0  0  0  0  0
    8.2690    1.4010   23.1820 N   0  0  0  0  0  0  0  0  0  0  0  0
    8.7370    1.4110   20.9300 O   0  0  0  0  0  0  0  0  0  0  0  0
    6.2410   -4.1440   20.8230 C   0  0  0  0  0  0  0  0  0  0  0  0
    5.0810    0.9230   20.2510 C   0  0  0  0  0  0  0  0  0  0  0  0
    6.9640    0.0510   19.1320 C   0  0  0  0  0  0  0  0  0  0  0  0
   10.8440   -2.1000   22.3280 C   0  0  0  0  0  0  0  0  0  0  0  0
   10.0370   -1.4730   24.4950 C   0  0  0  0  0  0  0  0  0  0  0  0
    5.5880   -4.0950   23.1960 C   0  0  0  0  0  0  0  0  0  0  0  0
    9.1910    2.3790   23.5640 C   0  0  0  0  0  0  0  0  0  0  0  0
    4.4070    1.1470   21.6160 C   0  0  0  0  0  0  0  0  0  0  0  0
    7.6840   -4.4350   20.6290 C   0  0  0  0  0  0  0  0  0  0  0  0
    5.3800   -4.4470   19.9510 O   0  0  0  0  0  0  0  0  0  0  0  0
    6.4760    0.3640   17.9220 N   0  0  0  0  0  0  0  0  0  0  0  0
    4.5110    1.2780   19.0420 C   0  0  0  0  0  0  0  0  0  0  0  0
   11.0920   -1.8560   23.6760 C   0  0  0  0  0  0  0  0  0  0  0  0
    4.7800   -5.1890   23.1570 C   0  0  0  0  0  0  0  0  0  0  0  0
    6.0150   -3.5100   24.4130 C   0  0  0  0  0  0  0  0  0  0  0  0
   10.6170    1.9230   23.2810 C   0  0  0  0  0  0  0  0  0  0  0  0
   12.3480   -1.9770   24.1430 C   0  0  0  0  0  0  0  0  0  0  0  0
    4.9010    2.1820   22.3040 C   0  0  0  0  0  0  0  0  0  0  0  0
    5.1850    1.0240   17.8540 C   0  0  0  0  0  0  0  0  0  0  0  0
    4.3130   -5.7930   24.3160 C   0  0  0  0  0  0  0  0  0  0  0  0
    5.5430   -4.1150   25.7430 C   0  0  0  0  0  0  0  0  0  0  0  0
   11.5970    3.0680   23.2820 C   0  0  0  0  0  0  0  0  0  0  0  0
   13.4060   -2.1730   23.0600 C   0  0  0  0  0  0  0  0  0  0  0  0
   12.6010   -3.0120   24.9760 C   0  0  0  0  0  0  0  0  0  0  0  0
   12.7060   -0.6780   24.8690 C   0  0  0  0  0  0  0  0  0  0  0  0
    3.9800    2.9450   23.1120 N   0  0  0  0  0  0  0  0  0  0  0  0
    3.4080   -7.0150   24.2050 C   0  0  0  0  0  0  0  0  0  0  0  0
    4.7160   -5.2220   25.6850 C   0  0  0  0  0  0  0  0  0  0  0  0
   11.7890    3.8120   22.3370 O   0  0  0  0  0  0  0  0  0  0  0  0
    2.9130    2.3130   23.7070 C   0  0  0  0  0  0  0  0  0  0  0  0
    3.8930   -8.0560   24.6150 O   0  0  0  0  0  0  0  0  0  0  0  0
    2.0420   -6.8950   23.6830 N   0  0  0  0  0  0  0  0  0  0  0  0
   12.9800    4.5760   22.5310 C   0  0  0  0  0  0  0  0  0  0  0  0
    3.0240    1.4910   24.6140 O   0  0  0  0  0  0  0  0  0  0  0  0
    1.6120    2.7140   23.1130 N   0  0  0  0  0  0  0  0  0  0  0  0
    1.5380   -5.5540   23.4040 C   0  0  0  0  0  0  0  0  0  0  0  0
    1.0130   -7.9730   23.8670 C   0  0  0  0  0  0  0  0  0  0  0  0
    0.5350    3.1400   24.0040 C   0  0  0  0  0  0  0  0  0  0  0  0
    0.7060   -5.0720   24.4010 C   0  0  0  0  0  0  0  0  0  0  0  0
   -0.0690   -7.6640   24.6970 C   0  0  0  0  0  0  0  0  0  0  0  0
    0.6570    4.4890   24.3740 C   0  0  0  0  0  0  0  0  0  0  0  0
   -0.6720    2.7510   23.3980 C   0  0  0  0  0  0  0  0  0  0  0  0
   -0.7560   -6.0410   24.2250 S   0  0  0  0  0  0  0  0  0  0  0  0
   -0.5220    5.0680   24.8720 C   0  0  0  0  0  0  0  0  0  0  0  0
   -1.8450    3.3560   23.8280 C   0  0  0  0  0  0  0  0  0  0  0  0
   -1.7580    4.6560   24.3460 C   0  0  0  0  0  0  0  0  0  0  0  0
  1  2  1  0
  2  3  1  6
  1  4  1  0
  1  5  1  0
  4  6  1  0
  2  7  1  0
  5  8  2  0
  5  9  1  0
  3 10  1  0
  3 11  2  0
  6 12  1  0
  7 13  1  0
  7 14  2  0
  8 15  1  0
  9 16  2  0
  6 17  1  0
 10 18  1  0
 13 19  1  0
 12 20  1  0
 12 21  2  0
 14 22  1  0
 13 23  2  0
 15 24  2  0
 16 24  1  0
 17 25  2  0
 17 26  1  0
 18 27  1  0
 24 28  1  0
 19 29  1  0
 22 30  2  0
 23 30  1  0
 25 31  1  0
 26 32  2  0
 27 33  1  0
 28 34  1  0
 28 35  1  0
 28 36  1  0
 29 37  1  0
 31 38  1  0
 31 39  2  0
 32 39  1  0
 33 40  1  0
 37 41  1  0
 38 42  2  0
 38 43  1  0
 40 44  1  0
 41 45  2  0
 41 46  1  0
 43 47  1  0
 43 48  1  0
 46 49  1  0
 47 50  1  0
 48 51  1  0
 49 52  1  0
 49 53  1  0
 50 54  1  0
 51 54  1  0
 52 55  1  0
 53 56  1  0
 55 57  1  0
 56 57  1  0
M  END
