x0786-x0434
     RDKit          3D

 36 39  0  0  0  0  0  0  0  0999 V2000
    5.8010   -3.5280   21.9200 N   0  0  0  0  0  0  0  0  0  0  0  0
    6.2720   -4.1730   20.7980 C   0  0  0  0  0  0  0  0  0  0  0  0
    7.7650   -4.3570   20.6340 C   0  0  0  0  0  0  0  0  0  0  0  0
    5.4380   -2.1970   21.7570 C   0  0  0  0  0  0  0  0  0  0  0  0
    5.4000   -4.0930   23.1830 C   0  0  0  0  0  0  0  0  0  0  0  0
    5.4460   -4.5660   19.9560 O   0  0  0  0  0  0  0  0  0  0  0  0
    6.3540   -1.2810   22.2320 C   0  0  0  0  0  0  0  0  0  0  0  0
    4.5910   -5.2360   23.1910 C   0  0  0  0  0  0  0  0  0  0  0  0
    5.8200   -3.4770   24.3550 C   0  0  0  0  0  0  0  0  0  0  0  0
    7.1450   -0.7400   21.1510 N   0  0  0  0  0  0  0  0  0  0  0  0
    4.1800   -5.7700   24.3950 C   0  0  0  0  0  0  0  0  0  0  0  0
    5.3840   -4.0500   25.6880 C   0  0  0  0  0  0  0  0  0  0  0  0
    3.2800   -7.0050   24.3240 C   0  0  0  0  0  0  0  0  0  0  0  0
    8.3430   -0.2220   21.5510 C   0  0  0  0  0  0  0  0  0  0  0  0
    4.5730   -5.1830   25.6070 C   0  0  0  0  0  0  0  0  0  0  0  0
    6.4140   -0.0260   20.0900 C   0  0  0  0  0  0  0  0  0  0  0  0
    3.7190   -8.0550   24.7790 O   0  0  0  0  0  0  0  0  0  0  0  0
    8.6550    0.9150   21.1970 O   0  0  0  0  0  0  0  0  0  0  0  0
    9.0150   -0.8900   22.2230 N   0  0  0  0  0  0  0  0  0  0  0  0
    2.0100   -6.8780   23.7560 N   0  0  0  0  0  0  0  0  0  0  0  0
    5.2450    0.7120   20.2910 C   0  0  0  0  0  0  0  0  0  0  0  0
    6.9470   -0.0940   18.8050 C   0  0  0  0  0  0  0  0  0  0  0  0
    1.4830   -5.6950   23.3850 C   0  0  0  0  0  0  0  0  0  0  0  0
    1.0210   -7.9350   23.9750 C   0  0  0  0  0  0  0  0  0  0  0  0
   10.3480   -0.5100   22.4800 C   0  0  0  0  0  0  0  0  0  0  0  0
    4.6430    1.3670   19.2100 C   0  0  0  0  0  0  0  0  0  0  0  0
    6.3380    0.5620   17.7600 N   0  0  0  0  0  0  0  0  0  0  0  0
    0.4580   -5.1920   24.1900 C   0  0  0  0  0  0  0  0  0  0  0  0
    0.0540   -7.6130   24.9480 C   0  0  0  0  0  0  0  0  0  0  0  0
   10.6120    0.7870   22.9780 C   0  0  0  0  0  0  0  0  0  0  0  0
   11.4290   -1.3920   22.2280 C   0  0  0  0  0  0  0  0  0  0  0  0
    5.2120    1.2790   17.9570 C   0  0  0  0  0  0  0  0  0  0  0  0
   -0.9120   -6.2810   24.4800 S   0  0  0  0  0  0  0  0  0  0  0  0
   12.0280    1.2520   23.2290 C   0  0  0  0  0  0  0  0  0  0  0  0
   12.7500   -1.0510   22.4350 C   0  0  0  0  0  0  0  0  0  0  0  0
   13.1590    0.3300   22.9550 C   0  0  0  0  0  0  0  0  0  0  0  0
  1  2  1  0
  2  3  1  0
  1  4  1  0
  1  5  1  0
  2  6  2  0
  4  7  1  0
  5  8  2  0
  5  9  1  0
  7 10  1  0
  8 11  1  0
  9 12  2  0
 11 13  1  0
 10 14  1  0
 11 15  2  0
 12 15  1  0
 10 16  1  0
 13 17  2  0
 14 18  2  0
 14 19  1  0
 13 20  1  0
 16 21  2  0
 16 22  1  0
 20 23  1  0
 20 24  1  0
 19 25  1  0
 21 26  1  0
 22 27  2  0
 23 28  1  0
 24 29  1  0
 25 30  2  0
 25 31  1  0
 26 32  2  0
 27 32  1  0
 28 33  1  0
 29 33  1  0
 30 34  1  0
 31 35  2  0
 34 36  2  0
 35 36  1  0
M  END
