x0786-x2776
     RDKit          3D

 50 54  0  0  0  0  0  0  0  0999 V2000
    7.1990   -0.8770   22.0450 N   0  0  0  0  0  0  0  0  0  0  0  0
    6.8810    0.4020   21.6870 C   0  0  1  0  0  0  0  0  0  0  0  0
    8.0130    1.4210   21.8660 C   0  0  0  0  0  0  0  0  0  0  0  0
    6.2550   -1.6050   22.6380 C   0  0  0  0  0  0  0  0  0  0  0  0
    8.4630   -1.1330   22.5610 C   0  0  0  0  0  0  0  0  0  0  0  0
    5.5670   -2.4230   21.7900 C   0  0  0  0  0  0  0  0  0  0  0  0
    6.3110    0.6270   20.2670 C   0  0  0  0  0  0  0  0  0  0  0  0
    9.4360   -1.6980   21.7510 C   0  0  0  0  0  0  0  0  0  0  0  0
    8.8020   -0.8340   23.8920 C   0  0  0  0  0  0  0  0  0  0  0  0
    7.8800    2.2850   22.9770 N   0  0  0  0  0  0  0  0  0  0  0  0
    8.8910    1.3830   21.0210 O   0  0  0  0  0  0  0  0  0  0  0  0
    5.8230   -3.7020   21.9090 N   0  0  0  0  0  0  0  0  0  0  0  0
    5.1940    1.4500   20.1310 C   0  0  0  0  0  0  0  0  0  0  0  0
    6.9010    0.0340   19.1600 C   0  0  0  0  0  0  0  0  0  0  0  0
   10.7020   -1.9440   22.2240 C   0  0  0  0  0  0  0  0  0  0  0  0
   10.0900   -1.0870   24.3700 C   0  0  0  0  0  0  0  0  0  0  0  0
    6.0950   -4.4060   20.7690 C   0  0  0  0  0  0  0  0  0  0  0  0
    6.3240    0.3060   17.8400 N   0  0  0  0  0  0  0  0  0  0  0  0
    4.6600    1.6940   18.8790 C   0  0  0  0  0  0  0  0  0  0  0  0
    8.6190    3.4380   23.1870 C   0  0  0  0  0  0  0  0  0  0  0  0
   11.0650   -1.6440   23.5260 C   0  0  0  0  0  0  0  0  0  0  0  0
    5.4230   -4.2710   23.1960 C   0  0  0  0  0  0  0  0  0  0  0  0
   12.2940   -1.8610   23.9560 C   0  0  2  0  0  0  0  0  0  0  0  0
    7.5480   -4.7280   20.5800 C   0  0  0  0  0  0  0  0  0  0  0  0
    5.2240   -4.7030   19.9650 O   0  0  0  0  0  0  0  0  0  0  0  0
    5.2530    1.1120   17.7880 C   0  0  0  0  0  0  0  0  0  0  0  0
   10.0700    3.2960   23.6010 C   0  0  0  0  0  0  0  0  0  0  0  0
    8.1300    4.7390   23.0450 C   0  0  0  0  0  0  0  0  0  0  0  0
    4.5710   -5.3500   23.1460 C   0  0  0  0  0  0  0  0  0  0  0  0
    5.8640   -3.7360   24.4170 C   0  0  0  0  0  0  0  0  0  0  0  0
   12.2890   -2.7260   25.0830 O   0  0  0  0  0  0  0  0  0  0  0  0
   10.7650    1.9770   23.7940 C   0  0  0  0  0  0  0  0  0  0  0  0
   12.9090   -0.6910   24.3220 C   0  0  0  0  0  0  0  0  0  0  0  0
   10.8720    4.5710   23.8340 C   0  0  0  0  0  0  0  0  0  0  0  0
    8.8890    5.8890   23.2690 C   0  0  0  0  0  0  0  0  0  0  0  0
    4.1350   -5.9050   24.3430 C   0  0  0  0  0  0  0  0  0  0  0  0
    5.4280   -4.2950   25.6120 C   0  0  0  0  0  0  0  0  0  0  0  0
   13.6110   -3.0410   25.4640 C   0  0  0  0  0  0  0  0  0  0  0  0
    3.2180   -7.0440   24.3260 C   0  0  0  0  0  0  0  0  0  0  0  0
   10.2270    5.7990   23.6590 C   0  0  0  0  0  0  0  0  0  0  0  0
    4.5510   -5.3910   25.5710 C   0  0  0  0  0  0  0  0  0  0  0  0
   11.0350    6.8720   23.9090 O   0  0  0  0  0  0  0  0  0  0  0  0
    3.6690   -8.2510   24.9150 O   0  0  0  0  0  0  0  0  0  0  0  0
    2.0000   -6.8890   23.7780 N   0  0  0  0  0  0  0  0  0  0  0  0
   11.8110    6.8180   25.1020 C   0  0  0  0  0  0  0  0  0  0  0  0
    1.4410   -5.6200   23.3150 C   0  0  0  0  0  0  0  0  0  0  0  0
    1.0440   -7.9080   23.9420 C   0  0  0  0  0  0  0  0  0  0  0  0
    0.4060   -5.0610   24.2940 C   0  0  0  0  0  0  0  0  0  0  0  0
    0.0060   -7.6880   24.8690 C   0  0  0  0  0  0  0  0  0  0  0  0
   -0.9940   -6.2050   24.4720 S   0  0  0  0  0  0  0  0  0  0  0  0
  1  2  1  0
  2  3  1  6
  1  4  1  0
  1  5  1  0
  4  6  1  0
  2  7  1  0
  5  8  2  0
  5  9  1  0
  3 10  1  0
  3 11  2  0
  6 12  1  0
  7 13  2  0
  7 14  1  0
  8 15  1  0
  9 16  2  0
 12 17  1  0
 14 18  2  0
 13 19  1  0
 10 20  1  0
 15 21  2  0
 16 21  1  0
 12 22  1  0
 21 23  1  0
 17 24  1  0
 17 25  2  0
 18 26  1  0
 19 26  2  0
 20 27  2  0
 20 28  1  0
 22 29  2  0
 22 30  1  0
 23 31  1  0
 27 32  1  0
 23 33  1  1
 27 34  1  0
 28 35  2  0
 29 36  1  0
 30 37  2  0
 31 38  1  0
 36 39  1  0
 34 40  2  0
 35 40  1  0
 36 41  2  0
 37 41  1  0
 40 42  1  0
 39 43  2  0
 39 44  1  0
 42 45  1  0
 44 46  1  0
 44 47  1  0
 46 48  1  0
 47 49  1  0
 48 50  1  0
 49 50  1  0
M  END
