x0786-x3124
     RDKit          3D

 41 44  0  0  0  0  0  0  0  0999 V2000
    6.9260   -1.2460   21.8550 N   0  0  0  0  0  0  0  0  0  0  0  0
    6.6140    0.0900   21.7320 C   0  0  1  0  0  0  0  0  0  0  0  0
    7.7760    1.1280   21.9530 C   0  0  0  0  0  0  0  0  0  0  0  0
    5.9030   -2.1830   21.8280 C   0  0  0  0  0  0  0  0  0  0  0  0
    8.2120   -1.4200   22.4820 C   0  0  0  0  0  0  0  0  0  0  0  0
    6.1110   -3.5150   21.9410 N   0  0  0  0  0  0  0  0  0  0  0  0
    6.0750    0.5530   20.4530 C   0  0  0  0  0  0  0  0  0  0  0  0
    9.2760   -1.8100   21.6760 C   0  0  0  0  0  0  0  0  0  0  0  0
    8.4640   -1.1820   23.8490 C   0  0  0  0  0  0  0  0  0  0  0  0
    7.8680    1.7200   23.2660 N   0  0  0  0  0  0  0  0  0  0  0  0
    8.4870    1.3470   20.9670 O   0  0  0  0  0  0  0  0  0  0  0  0
    6.2250   -4.2580   20.7700 C   0  0  0  0  0  0  0  0  0  0  0  0
    4.9900    1.3860   20.1500 C   0  0  0  0  0  0  0  0  0  0  0  0
    6.7630    0.0870   19.3110 C   0  0  0  0  0  0  0  0  0  0  0  0
   10.7050   -1.9730   22.1650 C   0  0  0  0  0  0  0  0  0  0  0  0
    9.7170   -1.2810   24.4720 C   0  0  0  0  0  0  0  0  0  0  0  0
    5.6320   -4.0290   23.0760 C   0  0  0  0  0  0  0  0  0  0  0  0
    8.8870    2.6520   23.2860 C   0  0  0  0  0  0  0  0  0  0  0  0
    7.6260   -4.6900   20.5310 C   0  0  0  0  0  0  0  0  0  0  0  0
    5.3040   -4.5310   19.9760 O   0  0  0  0  0  0  0  0  0  0  0  0
    6.4300    0.4150   17.9080 N   0  0  0  0  0  0  0  0  0  0  0  0
    4.6190    1.7380   18.8750 C   0  0  0  0  0  0  0  0  0  0  0  0
   10.9660   -1.6870   23.6300 C   0  0  0  0  0  0  0  0  0  0  0  0
    4.8090   -5.1890   23.0530 C   0  0  0  0  0  0  0  0  0  0  0  0
    5.9270   -3.3900   24.4360 C   0  0  0  0  0  0  0  0  0  0  0  0
   12.3220   -1.7910   24.0970 C   0  0  0  0  0  0  0  0  0  0  0  0
    5.2940    1.2900   17.7840 C   0  0  0  0  0  0  0  0  0  0  0  0
    4.2820   -5.7140   24.2490 C   0  0  0  0  0  0  0  0  0  0  0  0
    5.3640   -3.9890   25.5320 C   0  0  0  0  0  0  0  0  0  0  0  0
   12.6580   -0.6820   24.8580 C   0  0  0  0  0  0  0  0  0  0  0  0
   13.3210   -1.9160   22.9370 C   0  0  0  0  0  0  0  0  0  0  0  0
   12.6210   -3.0050   24.9650 C   0  0  0  0  0  0  0  0  0  0  0  0
    3.3920   -6.9370   24.2770 C   0  0  0  0  0  0  0  0  0  0  0  0
    4.5590   -5.1170   25.4830 C   0  0  0  0  0  0  0  0  0  0  0  0
    3.9090   -7.9970   24.6080 O   0  0  0  0  0  0  0  0  0  0  0  0
    2.0780   -6.8150   23.9700 N   0  0  0  0  0  0  0  0  0  0  0  0
    1.6100   -5.6050   23.2950 C   0  0  0  0  0  0  0  0  0  0  0  0
    1.1470   -7.9530   24.0050 C   0  0  0  0  0  0  0  0  0  0  0  0
    0.6670   -5.0330   24.3960 C   0  0  0  0  0  0  0  0  0  0  0  0
    0.0060   -7.6620   24.7700 C   0  0  0  0  0  0  0  0  0  0  0  0
   -0.7280   -6.0840   24.2130 S   0  0  0  0  0  0  0  0  0  0  0  0
  1  2  1  0
  2  3  1  6
  1  4  1  0
  1  5  1  0
  4  6  1  0
  2  7  1  0
  5  8  2  0
  5  9  1  0
  3 10  1  0
  3 11  2  0
  6 12  1  0
  7 13  2  0
  7 14  1  0
  8 15  1  0
  9 16  2  0
  6 17  1  0
 10 18  1  0
 12 19  1  0
 12 20  2  0
 14 21  2  0
 13 22  1  0
 15 23  2  0
 16 23  1  0
 17 24  2  0
 17 25  1  0
 23 26  1  0
 21 27  1  0
 22 27  2  0
 24 28  1  0
 25 29  2  0
 26 30  1  0
 26 31  1  0
 26 32  1  0
 28 33  1  0
 28 34  2  0
 29 34  1  0
 33 35  2  0
 33 36  1  0
 36 37  1  0
 36 38  1  0
 37 39  1  0
 38 40  1  0
 39 41  1  0
 40 41  1  0
M  END
