x0786-x3298
     RDKit          3D

 48 52  0  0  0  0  0  0  0  0999 V2000
    7.0570    2.1170   22.4310 N   0  0  0  0  0  0  0  0  0  0  0  0
    7.9410    1.5000   21.5540 C   0  0  0  0  0  0  0  0  0  0  0  0
    7.5340    0.1010   21.2320 C   0  0  1  0  0  0  0  0  0  0  0  0
    7.8600    3.2810   22.7970 C   0  0  0  0  0  0  0  0  0  0  0  0
    8.9420    2.0210   21.0810 O   0  0  0  0  0  0  0  0  0  0  0  0
    7.7150    4.6460   22.5070 C   0  0  0  0  0  0  0  0  0  0  0  0
    8.9150    2.8300   23.5250 C   0  0  0  0  0  0  0  0  0  0  0  0
    7.0300   -0.3500   22.2440 O   0  0  0  0  0  0  0  0  0  0  0  0
    8.9390    1.4460   23.7780 N   0  0  0  0  0  0  0  0  0  0  0  0
    6.6840    0.3370   20.0430 C   0  0  0  0  0  0  0  0  0  0  0  0
    8.6830    5.5610   22.9680 C   0  0  0  0  0  0  0  0  0  0  0  0
    9.8680    3.7360   23.9510 C   0  0  0  0  0  0  0  0  0  0  0  0
   10.2250    0.7730   24.5970 S   0  0  0  0  0  0  0  0  0  0  0  0
    7.2250   -1.7420   22.2880 C   0  0  0  0  0  0  0  0  0  0  0  0
    6.9800   -0.1220   18.7730 C   0  0  0  0  0  0  0  0  0  0  0  0
    5.5160    1.0950   20.2400 C   0  0  0  0  0  0  0  0  0  0  0  0
    9.7820    5.1020   23.6950 C   0  0  0  0  0  0  0  0  0  0  0  0
   11.1230    1.8660   24.6330 O   0  0  0  0  0  0  0  0  0  0  0  0
    9.7860   -0.0660   25.6970 O   0  0  0  0  0  0  0  0  0  0  0  0
    5.8900   -2.3130   21.8830 C   0  0  0  0  0  0  0  0  0  0  0  0
    6.2520    0.1070   17.6940 N   0  0  0  0  0  0  0  0  0  0  0  0
    4.7030    1.3730   19.1530 C   0  0  0  0  0  0  0  0  0  0  0  0
   11.1550   -0.1330   23.4950 C   0  0  0  0  0  0  0  0  0  0  0  0
    5.8560   -3.7510   21.9030 N   0  0  0  0  0  0  0  0  0  0  0  0
    5.0770    0.8900   17.9200 C   0  0  0  0  0  0  0  0  0  0  0  0
   12.4170    0.4100   23.2740 C   0  0  0  0  0  0  0  0  0  0  0  0
   10.7040   -1.2800   22.8780 C   0  0  0  0  0  0  0  0  0  0  0  0
    6.1030   -4.4630   20.7660 C   0  0  0  0  0  0  0  0  0  0  0  0
   13.2830   -0.1620   22.4160 C   0  0  0  0  0  0  0  0  0  0  0  0
   11.5640   -1.9080   21.9800 C   0  0  0  0  0  0  0  0  0  0  0  0
    5.4140   -4.2540   23.0340 C   0  0  0  0  0  0  0  0  0  0  0  0
    7.5470   -4.7990   20.5580 C   0  0  0  0  0  0  0  0  0  0  0  0
    5.2230   -4.7550   19.9710 O   0  0  0  0  0  0  0  0  0  0  0  0
   12.8390   -1.4650   21.6680 C   0  0  0  0  0  0  0  0  0  0  0  0
    4.6030   -5.3690   23.0960 C   0  0  0  0  0  0  0  0  0  0  0  0
    5.7850   -3.5860   24.3510 C   0  0  0  0  0  0  0  0  0  0  0  0
   13.6090   -2.0840   20.8010 F   0  0  0  0  0  0  0  0  0  0  0  0
    4.1340   -5.8580   24.3010 C   0  0  0  0  0  0  0  0  0  0  0  0
    5.2920   -4.1190   25.5350 C   0  0  0  0  0  0  0  0  0  0  0  0
    3.2390   -7.0550   24.3380 C   0  0  0  0  0  0  0  0  0  0  0  0
    4.4690   -5.2480   25.5100 C   0  0  0  0  0  0  0  0  0  0  0  0
    3.7140   -8.0810   24.8170 O   0  0  0  0  0  0  0  0  0  0  0  0
    1.9690   -6.9660   23.8600 N   0  0  0  0  0  0  0  0  0  0  0  0
    1.4540   -5.6450   23.4640 C   0  0  0  0  0  0  0  0  0  0  0  0
    0.9410   -8.0200   23.9360 C   0  0  0  0  0  0  0  0  0  0  0  0
    0.5180   -5.1180   24.3600 C   0  0  0  0  0  0  0  0  0  0  0  0
   -0.0830   -7.6880   24.8590 C   0  0  0  0  0  0  0  0  0  0  0  0
   -0.9660   -6.1600   24.3990 S   0  0  0  0  0  0  0  0  0  0  0  0
  1  2  1  0
  2  3  1  0
  1  4  1  0
  2  5  2  0
  4  6  2  0
  4  7  1  0
  3  8  1  1
  7  9  1  0
  3 10  1  0
  6 11  1  0
  7 12  2  0
 13  9  1  0
  8 14  1  0
 10 15  2  0
 10 16  1  0
 11 17  2  0
 12 17  1  0
 13 18  2  0
 13 19  2  0
 14 20  1  0
 15 21  1  0
 16 22  2  0
 13 23  1  0
 20 24  1  0
 21 25  2  0
 22 25  1  0
 23 26  2  0
 23 27  1  0
 24 28  1  0
 26 29  1  0
 27 30  2  0
 24 31  1  0
 28 32  1  0
 28 33  2  0
 29 34  2  0
 30 34  1  0
 31 35  2  0
 31 36  1  0
 34 37  1  0
 35 38  1  0
 36 39  2  0
 38 40  1  0
 38 41  2  0
 39 41  1  0
 40 42  2  0
 40 43  1  0
 43 44  1  0
 43 45  1  0
 44 46  1  0
 45 47  1  0
 46 48  1  0
 47 48  1  0
M  END
