x0786-x0540-x3110
     RDKit          3D

 59 63  0  0  0  0  0  0  0  0999 V2000
    8.2020    1.1610   23.2810 N   0  0  0  0  0  0  0  0  0  0  0  0
    9.0110    2.3100   23.7440 C   0  0  0  0  0  0  0  0  0  0  0  0
   10.4030    2.0590   23.5550 C   0  0  0  0  0  0  0  0  0  0  0  0
    7.9890    0.8470   21.8600 C   0  0  0  0  0  0  0  0  0  0  0  0
    8.7240    1.3800   21.0090 O   0  0  0  0  0  0  0  0  0  0  0  0
    6.8750   -0.0160   21.5640 C   0  0  2  0  0  0  0  0  0  0  0  0
    7.1960   -1.4240   21.7830 N   0  0  0  0  0  0  0  0  0  0  0  0
   11.1830    3.3660   23.3770 C   0  0  0  0  0  0  0  0  0  0  0  0
    6.3180    0.3500   20.2160 C   0  0  0  0  0  0  0  0  0  0  0  0
   12.0250    3.2720   22.4950 O   0  0  0  0  0  0  0  0  0  0  0  0
   10.9500    4.5400   24.1370 O   0  0  0  0  0  0  0  0  0  0  0  0
    5.9750   -2.1560   22.1260 C   0  0  0  0  0  0  0  0  0  0  0  0
    5.0890    1.0120   20.2150 C   0  0  0  0  0  0  0  0  0  0  0  0
    6.9460    0.0830   18.9830 C   0  0  0  0  0  0  0  0  0  0  0  0
    8.4360   -1.5540   22.4700 C   0  0  0  0  0  0  0  0  0  0  0  0
   12.3630    4.4620   21.9540 C   0  0  0  0  0  0  0  0  0  0  0  0
    4.3170    1.3020   21.5790 C   0  0  0  0  0  0  0  0  0  0  0  0
    6.0220   -3.5120   21.9840 N   0  0  0  0  0  0  0  0  0  0  0  0
    6.4600    0.4510   17.7850 N   0  0  0  0  0  0  0  0  0  0  0  0
    4.5090    1.4300   19.0470 C   0  0  0  0  0  0  0  0  0  0  0  0
    9.5510   -1.8730   21.7480 C   0  0  0  0  0  0  0  0  0  0  0  0
    8.6160   -1.3620   23.8180 C   0  0  0  0  0  0  0  0  0  0  0  0
   13.3880    5.1750   22.8320 C   0  0  0  0  0  0  0  0  0  0  0  0
    5.0280    2.1540   22.4310 C   0  0  0  0  0  0  0  0  0  0  0  0
    6.1900   -4.1850   20.7740 C   0  0  0  0  0  0  0  0  0  0  0  0
    5.1950    1.1670   17.7860 C   0  0  0  0  0  0  0  0  0  0  0  0
   10.8530   -1.9980   22.2160 C   0  0  0  0  0  0  0  0  0  0  0  0
    9.9120   -1.4760   24.3120 C   0  0  0  0  0  0  0  0  0  0  0  0
    5.5200   -4.1900   23.1300 C   0  0  0  0  0  0  0  0  0  0  0  0
    4.0460    3.0460   23.0540 N   0  0  0  0  0  0  0  0  0  0  0  0
    7.5790   -4.6540   20.5450 C   0  0  0  0  0  0  0  0  0  0  0  0
    5.2980   -4.3900   19.9280 O   0  0  0  0  0  0  0  0  0  0  0  0
   10.9790   -1.7690   23.5430 C   0  0  0  0  0  0  0  0  0  0  0  0
    4.6810   -5.2980   23.0900 C   0  0  0  0  0  0  0  0  0  0  0  0
    5.8900   -3.6810   24.3760 C   0  0  0  0  0  0  0  0  0  0  0  0
   12.3690   -1.8280   24.1180 C   0  0  0  0  0  0  0  0  0  0  0  0
    2.8790    2.5610   23.5530 C   0  0  0  0  0  0  0  0  0  0  0  0
    4.2120   -5.8700   24.2700 C   0  0  0  0  0  0  0  0  0  0  0  0
    5.4390   -4.2390   25.5560 C   0  0  0  0  0  0  0  0  0  0  0  0
   12.6030   -0.5910   24.9670 C   0  0  0  0  0  0  0  0  0  0  0  0
   13.4280   -1.8930   23.0290 C   0  0  0  0  0  0  0  0  0  0  0  0
   12.6480   -3.0260   25.0030 C   0  0  0  0  0  0  0  0  0  0  0  0
    2.9000    1.5330   24.4560 O   0  0  0  0  0  0  0  0  0  0  0  0
    1.7050    3.1210   23.1400 N   0  0  0  0  0  0  0  0  0  0  0  0
    3.3060   -7.0300   24.2740 C   0  0  0  0  0  0  0  0  0  0  0  0
    4.5910   -5.3410   25.5050 C   0  0  0  0  0  0  0  0  0  0  0  0
    3.7500   -8.1610   24.8730 O   0  0  0  0  0  0  0  0  0  0  0  0
    0.5480    3.3480   24.0010 C   0  0  0  0  0  0  0  0  0  0  0  0
    2.0460   -6.9130   23.6870 N   0  0  0  0  0  0  0  0  0  0  0  0
    0.4610    4.6250   24.5160 C   0  0  0  0  0  0  0  0  0  0  0  0
   -0.5800    2.8090   23.3730 C   0  0  0  0  0  0  0  0  0  0  0  0
    1.4740   -5.6260   23.2810 C   0  0  0  0  0  0  0  0  0  0  0  0
    1.0710   -7.9790   23.9560 C   0  0  0  0  0  0  0  0  0  0  0  0
   -0.7770    4.9650   25.0890 C   0  0  0  0  0  0  0  0  0  0  0  0
   -1.8320    3.3560   23.6700 C   0  0  0  0  0  0  0  0  0  0  0  0
    0.5200   -5.1300   24.3470 C   0  0  0  0  0  0  0  0  0  0  0  0
    0.0040   -7.5100   24.9570 C   0  0  0  0  0  0  0  0  0  0  0  0
   -1.9170    4.5640   24.3730 C   0  0  0  0  0  0  0  0  0  0  0  0
   -0.9230   -6.0770   24.2870 S   0  0  0  0  0  0  0  0  0  0  0  0
  1  2  1  0
  2  3  1  0
  1  4  1  0
  4  5  2  0
  6  4  1  6
  6  7  1  0
  3  8  1  0
  6  9  1  0
  8 10  1  0
  8 11  2  0
  7 12  1  0
  9 13  1  0
  9 14  2  0
  7 15  1  0
 10 16  1  0
 13 17  1  0
 12 18  1  0
 14 19  1  0
 13 20  2  0
 15 21  2  0
 15 22  1  0
 16 23  1  0
 17 24  1  0
 18 25  1  0
 19 26  2  0
 20 26  1  0
 21 27  1  0
 22 28  2  0
 18 29  1  0
 24 30  1  0
 25 31  1  0
 25 32  2  0
 27 33  2  0
 28 33  1  0
 29 34  2  0
 29 35  1  0
 33 36  1  0
 30 37  1  0
 34 38  1  0
 35 39  2  0
 36 40  1  0
 36 41  1  0
 36 42  1  0
 37 43  2  0
 37 44  1  0
 38 45  1  0
 38 46  2  0
 39 46  1  0
 45 47  2  0
 44 48  1  0
 45 49  1  0
 48 50  1  0
 48 51  1  0
 49 52  1  0
 49 53  1  0
 50 54  1  0
 51 55  1  0
 52 56  1  0
 53 57  1  0
 54 58  1  0
 55 58  1  0
 56 59  1  0
 57 59  1  0
M  END
