x0786-x2193-x2705
     RDKit          3D

 56 61  0  0  0  0  0  0  0  0999 V2000
    7.7130   -0.8430   21.6810 N   0  0  0  0  0  0  0  0  0  0  0  0
    7.0090    0.4130   21.6830 C   0  0  1  0  0  0  0  0  0  0  0  0
    7.9090    1.5650   21.9070 C   0  0  0  0  0  0  0  0  0  0  0  0
    7.1740   -1.9110   21.0110 C   0  0  0  0  0  0  0  0  0  0  0  0
    8.7930   -1.1430   22.5590 C   0  0  0  0  0  0  0  0  0  0  0  0
    6.0120   -2.3770   21.3900 C   0  0  0  0  0  0  0  0  0  0  0  0
    6.2910    0.7530   20.2540 C   0  0  0  0  0  0  0  0  0  0  0  0
    8.5830   -1.6780   23.9240 N   0  0  0  0  0  0  0  0  0  0  0  0
   10.0530   -0.9570   22.1540 C   0  0  0  0  0  0  0  0  0  0  0  0
    7.6050    2.3080   22.7140 N   0  0  0  0  0  0  0  0  0  0  0  0
    9.0420    1.5940   21.0560 O   0  0  0  0  0  0  0  0  0  0  0  0
    5.8800   -3.7750   21.6400 N   0  0  0  0  0  0  0  0  0  0  0  0
    5.0280    1.5700   20.2790 C   0  0  0  0  0  0  0  0  0  0  0  0
    6.8670    0.2890   19.1180 C   0  0  0  0  0  0  0  0  0  0  0  0
   10.0830   -1.7260   24.1820 N   0  0  0  0  0  0  0  0  0  0  0  0
   10.8080   -1.3140   23.1540 C   0  0  0  0  0  0  0  0  0  0  0  0
    8.6780   -2.1580   25.1670 C   0  0  0  0  0  0  0  0  0  0  0  0
   12.2940   -1.3030   23.2390 C   0  0  0  0  0  0  0  0  0  0  0  0
    6.3920   -4.6610   20.7630 C   0  0  0  0  0  0  0  0  0  0  0  0
    6.3510    0.5320   17.8520 N   0  0  0  0  0  0  0  0  0  0  0  0
    4.4350    1.8550   18.9180 C   0  0  0  0  0  0  0  0  0  0  0  0
    8.2370    3.5360   22.9050 C   0  0  0  0  0  0  0  0  0  0  0  0
    5.3910   -4.2070   22.9340 C   0  0  0  0  0  0  0  0  0  0  0  0
    8.5540   -3.6350   25.2200 N   0  0  0  0  0  0  0  0  0  0  0  0
   12.7560    0.0970   23.6900 C   0  0  0  0  0  0  0  0  0  0  0  0
   12.7960   -2.3280   24.2680 C   0  0  0  0  0  0  0  0  0  0  0  0
   13.0430   -1.4930   21.9260 C   0  0  0  0  0  0  0  0  0  0  0  0
    7.9290   -4.7640   20.7620 C   0  0  0  0  0  0  0  0  0  0  0  0
    5.5970   -5.2650   20.0480 O   0  0  0  0  0  0  0  0  0  0  0  0
    5.1150    1.3380   17.8090 C   0  0  0  0  0  0  0  0  0  0  0  0
    9.5200    3.5340   23.4840 C   0  0  0  0  0  0  0  0  0  0  0  0
    7.6460    4.7460   22.5370 C   0  0  0  0  0  0  0  0  0  0  0  0
    4.6480   -5.3230   23.0240 C   0  0  0  0  0  0  0  0  0  0  0  0
    5.6970   -3.4090   24.1920 C   0  0  0  0  0  0  0  0  0  0  0  0
    8.5370   -4.0910   26.6210 C   0  0  0  0  0  0  0  0  0  0  0  0
    9.5680   -4.3910   24.4260 C   0  0  0  0  0  0  0  0  0  0  0  0
   10.2090    2.2590   23.8830 C   0  0  0  0  0  0  0  0  0  0  0  0
    6.2560    4.7950   21.8930 C   0  0  0  0  0  0  0  0  0  0  0  0
   10.2280    4.8900   23.7000 C   0  0  0  0  0  0  0  0  0  0  0  0
    8.3330    5.9700   22.7510 C   0  0  0  0  0  0  0  0  0  0  0  0
    4.0920   -5.8030   24.3590 C   0  0  0  0  0  0  0  0  0  0  0  0
    5.1460   -3.9010   25.4840 C   0  0  0  0  0  0  0  0  0  0  0  0
    8.2960   -5.5860   26.6840 C   0  0  0  0  0  0  0  0  0  0  0  0
    9.2260   -5.7270   24.5040 C   0  0  0  0  0  0  0  0  0  0  0  0
    9.3120    1.3800   24.7530 C   0  0  0  0  0  0  0  0  0  0  0  0
    3.2720   -7.0090   24.3890 C   0  0  0  0  0  0  0  0  0  0  0  0
    9.5910    6.0380   23.3200 C   0  0  0  0  0  0  0  0  0  0  0  0
    4.3610   -5.0800   25.5220 C   0  0  0  0  0  0  0  0  0  0  0  0
    9.3490   -6.1960   25.8950 N   0  0  0  0  0  0  0  0  0  0  0  0
    3.7680   -8.0360   24.8370 O   0  0  0  0  0  0  0  0  0  0  0  0
    1.9770   -6.8950   23.8970 N   0  0  0  0  0  0  0  0  0  0  0  0
    1.4070   -5.6720   23.3120 C   0  0  0  0  0  0  0  0  0  0  0  0
    1.0320   -8.0060   24.0830 C   0  0  0  0  0  0  0  0  0  0  0  0
    0.5600   -5.1520   24.2310 C   0  0  0  0  0  0  0  0  0  0  0  0
   -0.0400   -7.7160   24.9420 C   0  0  0  0  0  0  0  0  0  0  0  0
   -0.9030   -6.2100   24.3610 S   0  0  0  0  0  0  0  0  0  0  0  0
  1  2  1  0
  2  3  1  6
  1  4  1  0
  1  5  1  0
  4  6  1  0
  2  7  1  0
  5  8  1  0
  5  9  2  0
  3 10  1  0
  3 11  2  0
  6 12  1  0
  7 13  2  0
  7 14  1  0
  8 15  1  0
  9 16  1  0
 15 16  2  0
  8 17  1  0
 16 18  1  0
 12 19  1  0
 14 20  2  0
 13 21  1  0
 10 22  1  0
 12 23  1  0
 17 24  1  0
 18 25  1  0
 18 26  1  0
 18 27  1  0
 19 28  1  0
 19 29  2  0
 20 30  1  0
 21 30  2  0
 22 31  2  0
 22 32  1  0
 23 33  2  0
 23 34  1  0
 24 35  1  0
 24 36  1  0
 31 37  1  0
 32 38  1  0
 31 39  1  0
 32 40  2  0
 33 41  1  0
 34 42  2  0
 35 43  1  0
 36 44  1  0
 37 45  1  0
 41 46  1  0
 39 47  2  0
 40 47  1  0
 41 48  2  0
 42 48  1  0
 43 49  1  0
 44 49  1  0
 46 50  2  0
 46 51  1  0
 51 52  1  0
 51 53  1  0
 52 54  1  0
 53 55  1  0
 54 56  1  0
 55 56  1  0
M  END
