x0786-x1093
     RDKit          3D

 39 43  0  0  0  0  0  0  0  0999 V2000
    5.7590   -3.3870   21.8630 N   0  0  0  0  0  0  0  0  0  0  0  0
    6.1790   -4.1020   20.7620 C   0  0  0  0  0  0  0  0  0  0  0  0
    7.6380   -4.4270   20.6430 C   0  0  0  0  0  0  0  0  0  0  0  0
    5.8100   -1.9250   21.8910 C   0  0  0  0  0  0  0  0  0  0  0  0
    5.3590   -3.9930   23.0550 C   0  0  0  0  0  0  0  0  0  0  0  0
    5.3500   -4.4440   19.9070 O   0  0  0  0  0  0  0  0  0  0  0  0
    7.0340   -1.3380   22.2710 C   0  0  0  0  0  0  0  0  0  0  0  0
    4.6000   -5.1730   23.0710 C   0  0  0  0  0  0  0  0  0  0  0  0
    5.7270   -3.3830   24.2670 C   0  0  0  0  0  0  0  0  0  0  0  0
    7.9390   -0.8000   21.0980 C   0  0  2  0  0  0  0  0  0  0  0  0
    4.2030   -5.7280   24.2810 C   0  0  0  0  0  0  0  0  0  0  0  0
    5.3290   -3.9510   25.4710 C   0  0  0  0  0  0  0  0  0  0  0  0
    3.3900   -6.9590   24.2950 C   0  0  0  0  0  0  0  0  0  0  0  0
    8.8740    0.1270   21.5750 C   0  0  0  0  0  0  0  0  0  0  0  0
    4.5680   -5.1180   25.4800 C   0  0  0  0  0  0  0  0  0  0  0  0
    7.0490   -0.2290   20.0310 C   0  0  0  0  0  0  0  0  0  0  0  0
    3.9040   -7.9730   24.7570 O   0  0  0  0  0  0  0  0  0  0  0  0
    8.8370    1.5090   21.1490 O   0  0  0  0  0  0  0  0  0  0  0  0
    2.0770   -6.9180   23.7870 N   0  0  0  0  0  0  0  0  0  0  0  0
    9.8470   -0.2610   22.4480 N   0  0  0  0  0  0  0  0  0  0  0  0
    7.2050   -0.4400   18.6840 C   0  0  0  0  0  0  0  0  0  0  0  0
    5.9510    0.5750   20.2010 C   0  0  0  0  0  0  0  0  0  0  0  0
    1.5050   -5.6630   23.3170 C   0  0  0  0  0  0  0  0  0  0  0  0
    1.0780   -7.9710   24.0600 C   0  0  0  0  0  0  0  0  0  0  0  0
   10.6110    0.7710   23.1970 C   0  0  0  0  0  0  0  0  0  0  0  0
   10.0540   -1.6340   22.9340 C   0  0  0  0  0  0  0  0  0  0  0  0
    6.2510    0.2050   17.9240 N   0  0  0  0  0  0  0  0  0  0  0  0
    5.4330    0.8670   18.9170 C   0  0  0  0  0  0  0  0  0  0  0  0
    5.2030    1.1920   21.4450 C   0  0  0  0  0  0  0  0  0  0  0  0
    0.6240   -5.1910   24.2840 C   0  0  0  0  0  0  0  0  0  0  0  0
   -0.0800   -7.5830   24.7710 C   0  0  0  0  0  0  0  0  0  0  0  0
   12.0420    0.1900   23.4140 C   0  0  0  0  0  0  0  0  0  0  0  0
   11.3720   -2.0940   22.9330 C   0  0  0  0  0  0  0  0  0  0  0  0
    4.3390    1.6460   18.6910 N   0  0  0  0  0  0  0  0  0  0  0  0
    4.0880    1.9760   21.1920 C   0  0  0  0  0  0  0  0  0  0  0  0
   -0.8090   -6.0580   24.4430 S   0  0  0  0  0  0  0  0  0  0  0  0
   12.1120   -1.2220   23.8200 N   0  0  0  0  0  0  0  0  0  0  0  0
    3.7190    2.1630   19.8920 C   0  0  0  0  0  0  0  0  0  0  0  0
   13.3860   -1.6610   23.8720 C   0  0  0  0  0  0  0  0  0  0  0  0
  1  2  1  0
  2  3  1  0
  1  4  1  0
  1  5  1  0
  2  6  2  0
  4  7  1  0
  5  8  2  0
  5  9  1  0
 10  7  1  1
  8 11  1  0
  9 12  2  0
 11 13  1  0
 10 14  1  0
 11 15  2  0
 12 15  1  0
 10 16  1  0
 13 17  2  0
 14 18  2  0
 13 19  1  0
 14 20  1  0
 16 21  2  0
 16 22  1  0
 19 23  1  0
 19 24  1  0
 20 25  1  0
 20 26  1  0
 21 27  1  0
 22 28  2  0
 27 28  1  0
 22 29  1  0
 23 30  1  0
 24 31  1  0
 25 32  1  0
 26 33  1  0
 28 34  1  0
 29 35  2  0
 30 36  1  0
 31 36  1  0
 32 37  1  0
 33 37  1  0
 34 38  2  0
 35 38  1  0
 37 39  1  0
M  END
