x0786-x3115
     RDKit          3D

 44 47  0  0  0  0  0  0  0  0999 V2000
    7.0150   -1.2480   21.7640 N   0  0  0  0  0  0  0  0  0  0  0  0
    6.6510    0.0630   21.5580 C   0  0  1  0  0  0  0  0  0  0  0  0
    7.6850    1.1480   21.9340 C   0  0  0  0  0  0  0  0  0  0  0  0
    5.7880   -2.0630   21.9940 C   0  0  0  0  0  0  0  0  0  0  0  0
    8.2680   -1.4630   22.4480 C   0  0  0  0  0  0  0  0  0  0  0  0
    5.9770   -3.4010   21.9640 N   0  0  0  0  0  0  0  0  0  0  0  0
    6.1660    0.3960   20.2770 C   0  0  0  0  0  0  0  0  0  0  0  0
    9.3990   -1.3940   21.6480 C   0  0  0  0  0  0  0  0  0  0  0  0
    8.3960   -1.7050   23.8160 C   0  0  0  0  0  0  0  0  0  0  0  0
    7.3470    1.8830   23.1040 N   0  0  0  0  0  0  0  0  0  0  0  0
    8.6390    1.2810   21.1490 O   0  0  0  0  0  0  0  0  0  0  0  0
    6.2330   -4.0680   20.7760 C   0  0  0  0  0  0  0  0  0  0  0  0
    5.0440    1.1970   20.1440 C   0  0  0  0  0  0  0  0  0  0  0  0
    6.8190   -0.0510   19.0030 C   0  0  0  0  0  0  0  0  0  0  0  0
   10.6820   -1.5510   22.1450 C   0  0  0  0  0  0  0  0  0  0  0  0
    9.6650   -1.8770   24.4220 C   0  0  0  0  0  0  0  0  0  0  0  0
    5.4460   -4.0430   23.0130 C   0  0  0  0  0  0  0  0  0  0  0  0
    8.2510    2.8750   23.2940 C   0  0  0  0  0  0  0  0  0  0  0  0
    7.6880   -4.3550   20.6070 C   0  0  0  0  0  0  0  0  0  0  0  0
    5.3770   -4.3900   19.9190 O   0  0  0  0  0  0  0  0  0  0  0  0
    6.2610    0.3870   17.7290 N   0  0  0  0  0  0  0  0  0  0  0  0
    4.5150    1.6060   18.9440 C   0  0  0  0  0  0  0  0  0  0  0  0
   10.8600   -1.8140   23.6850 C   0  0  0  0  0  0  0  0  0  0  0  0
    4.6990   -5.2300   22.9740 C   0  0  0  0  0  0  0  0  0  0  0  0
    5.6450   -3.4320   24.3930 C   0  0  0  0  0  0  0  0  0  0  0  0
    7.8890    4.1660   22.5150 C   0  0  0  0  0  0  0  0  0  0  0  0
   12.2090   -1.9780   24.2940 C   0  0  0  0  0  0  0  0  0  0  0  0
    5.1630    1.1790   17.7890 C   0  0  0  0  0  0  0  0  0  0  0  0
    4.1600   -5.8090   24.1320 C   0  0  0  0  0  0  0  0  0  0  0  0
    5.0850   -4.0670   25.4960 C   0  0  0  0  0  0  0  0  0  0  0  0
    8.4330    5.1790   22.9820 O   0  0  0  0  0  0  0  0  0  0  0  0
   13.3150   -2.2590   23.2830 C   0  0  0  0  0  0  0  0  0  0  0  0
   12.1060   -3.1780   25.2330 C   0  0  0  0  0  0  0  0  0  0  0  0
   12.4670   -0.8270   25.0030 C   0  0  0  0  0  0  0  0  0  0  0  0
    3.4180   -6.9230   24.1980 C   0  0  0  0  0  0  0  0  0  0  0  0
    4.3440   -5.2430   25.3900 C   0  0  0  0  0  0  0  0  0  0  0  0
    8.2300    6.3510   22.1770 C   0  0  0  0  0  0  0  0  0  0  0  0
    3.9540   -7.9360   24.6560 O   0  0  0  0  0  0  0  0  0  0  0  0
    2.1330   -6.8580   23.7790 N   0  0  0  0  0  0  0  0  0  0  0  0
    1.4840   -5.6300   23.3250 C   0  0  0  0  0  0  0  0  0  0  0  0
    1.2270   -7.9990   24.0320 C   0  0  0  0  0  0  0  0  0  0  0  0
    0.5250   -5.1270   24.2100 C   0  0  0  0  0  0  0  0  0  0  0  0
    0.1810   -7.7170   24.9550 C   0  0  0  0  0  0  0  0  0  0  0  0
   -0.8330   -6.3200   24.3810 S   0  0  0  0  0  0  0  0  0  0  0  0
  1  2  1  0
  2  3  1  6
  1  4  1  0
  1  5  1  0
  4  6  1  0
  2  7  1  0
  5  8  2  0
  5  9  1  0
  3 10  1  0
  3 11  2  0
  6 12  1  0
  7 13  2  0
  7 14  1  0
  8 15  1  0
  9 16  2  0
  6 17  1  0
 10 18  1  0
 12 19  1  0
 12 20  2  0
 14 21  2  0
 13 22  1  0
 15 23  2  0
 16 23  1  0
 17 24  2  0
 17 25  1  0
 18 26  1  0
 23 27  1  0
 21 28  1  0
 22 28  2  0
 24 29  1  0
 25 30  2  0
 26 31  1  0
 27 32  1  0
 27 33  1  0
 27 34  1  0
 29 35  1  0
 29 36  2  0
 30 36  1  0
 31 37  1  0
 35 38  2  0
 35 39  1  0
 39 40  1  0
 39 41  1  0
 40 42  1  0
 41 43  1  0
 42 44  1  0
 43 44  1  0
M  END
