x0786-x3108
     RDKit          3D

 41 45  0  0  0  0  0  0  0  0999 V2000
    6.0420    1.7380   21.9910 C   0  0  0  0  0  0  0  0  0  0  0  0
    6.1700    1.1640   20.6070 C   0  0  0  0  0  0  0  0  0  0  0  0
    7.1530    0.2360   20.2650 C   0  0  0  0  0  0  0  0  0  0  0  0
    5.2720    1.5720   19.6210 C   0  0  0  0  0  0  0  0  0  0  0  0
    8.1150   -0.2350   21.1870 N   0  0  0  0  0  0  0  0  0  0  0  0
    7.1730   -0.2790   18.8250 C   0  0  0  0  0  0  0  0  0  0  0  0
    5.3680    1.0580   18.3320 C   0  0  0  0  0  0  0  0  0  0  0  0
    9.0970    0.5800   21.7150 C   0  0  0  0  0  0  0  0  0  0  0  0
    6.2840    0.1600   17.9270 N   0  0  0  0  0  0  0  0  0  0  0  0
    9.2970    1.7580   21.4030 O   0  0  0  0  0  0  0  0  0  0  0  0
    9.9650   -0.1320   22.7450 C   0  0  0  0  0  0  0  0  0  0  0  0
    9.3680   -1.2140   23.4140 N   0  0  0  0  0  0  0  0  0  0  0  0
    8.3490   -0.9370   24.3050 C   0  0  0  0  0  0  0  0  0  0  0  0
    8.2260    0.1860   24.7750 O   0  0  0  0  0  0  0  0  0  0  0  0
    7.4630   -1.9720   24.6300 C   0  0  1  0  0  0  0  0  0  0  0  0
    6.3510   -2.1040   23.7780 C   0  0  1  0  0  0  0  0  0  0  0  0
    8.1910   -3.3010   24.9520 C   0  0  0  0  0  0  0  0  0  0  0  0
    6.5950   -2.4510   22.4310 C   0  0  0  0  0  0  0  0  0  0  0  0
    9.0840   -3.9900   24.0810 C   0  0  0  0  0  0  0  0  0  0  0  0
    7.9330   -3.9300   26.3140 C   0  0  0  0  0  0  0  0  0  0  0  0
    5.5300   -3.2980   24.1240 C   0  0  0  0  0  0  0  0  0  0  0  0
    6.1620   -3.6500   21.9810 N   0  0  0  0  0  0  0  0  0  0  0  0
    9.6920   -5.1490   24.4230 N   0  0  0  0  0  0  0  0  0  0  0  0
    8.6030   -5.2210   26.7060 C   0  0  0  0  0  0  0  0  0  0  0  0
    5.4340   -4.1730   23.0730 C   0  0  0  0  0  0  0  0  0  0  0  0
    4.8840   -3.5940   25.3270 C   0  0  0  0  0  0  0  0  0  0  0  0
    6.5760   -4.1090   20.7570 C   0  0  0  0  0  0  0  0  0  0  0  0
    9.4370   -5.7520   25.7530 C   0  0  0  0  0  0  0  0  0  0  0  0
    4.7080   -5.3590   23.1580 C   0  0  0  0  0  0  0  0  0  0  0  0
    4.1630   -4.7890   25.3720 C   0  0  0  0  0  0  0  0  0  0  0  0
    8.1090   -4.2910   20.6740 C   0  0  0  0  0  0  0  0  0  0  0  0
    5.7260   -4.3310   19.8820 O   0  0  0  0  0  0  0  0  0  0  0  0
    4.0410   -5.6910   24.3330 C   0  0  0  0  0  0  0  0  0  0  0  0
    3.2850   -6.9720   24.2880 C   0  0  0  0  0  0  0  0  0  0  0  0
    3.9160   -8.1120   24.8560 O   0  0  0  0  0  0  0  0  0  0  0  0
    2.0190   -6.9660   23.7100 N   0  0  0  0  0  0  0  0  0  0  0  0
    1.3870   -5.6610   23.4080 C   0  0  0  0  0  0  0  0  0  0  0  0
    0.9840   -8.0270   23.8690 C   0  0  0  0  0  0  0  0  0  0  0  0
    0.4640   -5.0960   24.2980 C   0  0  0  0  0  0  0  0  0  0  0  0
    0.0280   -7.7150   24.8580 C   0  0  0  0  0  0  0  0  0  0  0  0
   -0.9480   -6.2090   24.5040 S   0  0  0  0  0  0  0  0  0  0  0  0
  1  2  1  0
  2  3  2  0
  2  4  1  0
  3  5  1  0
  3  6  1  0
  4  7  2  0
  5  8  1  0
  6  9  2  0
  7  9  1  0
  8 10  2  0
  8 11  1  0
 11 12  1  0
 12 13  1  0
 13 14  2  0
 15 13  1  6
 15 16  1  0
 15 17  1  0
 16 18  1  6
 17 19  2  0
 17 20  1  0
 16 21  1  0
 18 22  1  0
 19 23  1  0
 20 24  2  0
 21 25  2  0
 22 25  1  0
 21 26  1  0
 22 27  1  0
 23 28  2  0
 24 28  1  0
 25 29  1  0
 26 30  2  0
 27 31  1  0
 27 32  2  0
 29 33  2  0
 30 33  1  0
 33 34  1  0
 34 35  2  0
 34 36  1  0
 36 37  1  0
 36 38  1  0
 37 39  1  0
 38 40  1  0
 39 41  1  0
 40 41  1  0
M  END
