x0786-x2776-x2608
     RDKit          3D

 53 57  0  0  0  0  0  0  0  0999 V2000
    7.9370   -1.0290   21.9710 N   0  0  0  0  0  0  0  0  0  0  0  0
    7.1630    0.1250   21.7660 C   0  0  1  0  0  0  0  0  0  0  0  0
    7.9870    1.3560   22.0560 C   0  0  0  0  0  0  0  0  0  0  0  0
    7.5660   -2.0940   21.2960 C   0  0  0  0  0  0  0  0  0  0  0  0
    8.3010   -1.2610   23.3010 C   0  0  1  0  0  0  0  0  0  0  0  0
    6.2300   -2.4100   21.5730 C   0  0  0  0  0  0  0  0  0  0  0  0
    6.4800    0.4280   20.3630 C   0  0  0  0  0  0  0  0  0  0  0  0
    9.6680   -1.6020   23.8260 C   0  0  2  0  0  0  0  0  0  0  0  0
    7.6250   -0.5260   24.3120 C   0  0  0  0  0  0  0  0  0  0  0  0
    7.3340    2.6060   22.2530 N   0  0  0  0  0  0  0  0  0  0  0  0
    5.9440   -3.6840   21.7840 N   0  0  0  0  0  0  0  0  0  0  0  0
    5.3150    1.2220   20.3000 C   0  0  0  0  0  0  0  0  0  0  0  0
    6.9920   -0.0510   19.1510 C   0  0  0  0  0  0  0  0  0  0  0  0
    9.8340   -1.0850   25.0970 C   0  0  0  0  0  0  0  0  0  0  0  0
   10.9230   -1.7570   23.0890 C   0  0  2  0  0  0  0  0  0  0  0  0
    8.5560   -0.4080   25.4540 C   0  0  0  0  0  0  0  0  0  0  0  0
   11.7590   -2.6610   24.0460 C   0  0  0  0  0  0  0  0  0  0  0  0
    6.0300   -4.4740   20.6670 C   0  0  0  0  0  0  0  0  0  0  0  0
    6.3680    0.2560   17.8530 N   0  0  0  0  0  0  0  0  0  0  0  0
    4.7280    1.5060   19.0610 C   0  0  0  0  0  0  0  0  0  0  0  0
    8.0570    3.8040   22.2280 C   0  0  0  0  0  0  0  0  0  0  0  0
   11.5700   -0.7090   22.4260 C   0  0  2  0  0  0  0  0  0  0  0  0
    5.5480   -4.1260   23.0450 C   0  0  0  0  0  0  0  0  0  0  0  0
   12.5420   -1.9660   25.0160 O   0  0  0  0  0  0  0  0  0  0  0  0
   12.9830   -0.4260   22.6130 C   0  0  0  0  0  0  0  0  0  0  0  0
    7.3780   -5.0270   20.3970 C   0  0  0  0  0  0  0  0  0  0  0  0
    5.1050   -4.6630   19.9120 O   0  0  0  0  0  0  0  0  0  0  0  0
    5.2760    1.0180   17.8960 C   0  0  0  0  0  0  0  0  0  0  0  0
    7.8960    4.9910   22.9630 C   0  0  0  0  0  0  0  0  0  0  0  0
   10.8240    0.8790   22.6960 S   0  0  0  0  0  0  0  0  0  0  0  0
    4.6700   -5.2240   23.0410 C   0  0  0  0  0  0  0  0  0  0  0  0
    5.9520   -3.5510   24.2480 C   0  0  0  0  0  0  0  0  0  0  0  0
   10.1570    2.0140   22.1070 O   0  0  0  0  0  0  0  0  0  0  0  0
   10.4640    2.1180   23.8960 C   0  0  0  0  0  0  0  0  0  0  0  0
   13.5990   -2.8500   25.3460 C   0  0  0  0  0  0  0  0  0  0  0  0
    8.6880    6.1580   22.8870 C   0  0  0  0  0  0  0  0  0  0  0  0
   11.1950    0.8790   24.2790 C   0  0  0  0  0  0  0  0  0  0  0  0
    4.1840   -5.7420   24.2500 C   0  0  0  0  0  0  0  0  0  0  0  0
    5.4720   -4.0670   25.4380 C   0  0  0  0  0  0  0  0  0  0  0  0
    3.2340   -6.8970   24.2730 C   0  0  0  0  0  0  0  0  0  0  0  0
    9.8040    3.4530   23.9090 C   0  0  0  0  0  0  0  0  0  0  0  0
    9.9960    6.0190   23.3990 C   0  0  1  0  0  0  0  0  0  0  0  0
    4.5990   -5.1460   25.4370 C   0  0  0  0  0  0  0  0  0  0  0  0
   10.4090    6.6430   24.5550 O   0  0  0  0  0  0  0  0  0  0  0  0
    3.8400   -8.0730   24.7950 O   0  0  0  0  0  0  0  0  0  0  0  0
   10.6530    4.5980   23.3810 C   0  0  0  0  0  0  0  0  0  0  0  0
    1.9580   -6.8820   23.8770 N   0  0  0  0  0  0  0  0  0  0  0  0
   11.8010    6.6250   24.8780 C   0  0  0  0  0  0  0  0  0  0  0  0
    1.2930   -5.8170   23.1310 C   0  0  0  0  0  0  0  0  0  0  0  0
    1.0830   -8.0460   24.1170 C   0  0  0  0  0  0  0  0  0  0  0  0
    0.3570   -5.2300   23.9870 C   0  0  0  0  0  0  0  0  0  0  0  0
    0.0400   -7.6950   24.9850 C   0  0  0  0  0  0  0  0  0  0  0  0
   -0.9620   -6.2450   24.5130 S   0  0  0  0  0  0  0  0  0  0  0  0
  1  2  1  0
  2  3  1  0
  1  4  1  0
  1  5  1  0
  4  6  1  0
  2  7  1  6
  5  8  1  0
  5  9  1  1
  3 10  1  0
  6 11  1  0
  7 12  2  0
  7 13  1  0
  8 14  1  1
  8 15  1  0
  9 16  1  0
 14 16  2  0
 15 17  1  1
 11 18  1  0
 13 19  2  0
 12 20  1  0
 10 21  1  0
 15 22  1  0
 11 23  1  0
 17 24  1  0
 22 25  1  1
 18 26  1  0
 18 27  2  0
 19 28  1  0
 20 28  2  0
 21 29  2  0
 22 30  1  0
 23 31  2  0
 23 32  1  0
 30 33  1  0
 30 34  2  0
 24 35  1  0
 29 36  1  0
 30 37  1  0
 31 38  1  0
 32 39  2  0
 38 40  1  0
 34 41  1  0
 36 42  1  0
 38 43  2  0
 39 43  1  0
 42 44  1  1
 40 45  2  0
 41 46  2  0
 42 46  1  0
 40 47  1  0
 44 48  1  0
 47 49  1  0
 47 50  1  0
 49 51  1  0
 50 52  1  0
 51 53  1  0
 52 53  1  0
M  END
