x0786-x3110
     RDKit          3D

 47 50  0  0  0  0  0  0  0  0999 V2000
    8.1600    1.3430   23.4010 N   0  0  0  0  0  0  0  0  0  0  0  0
    8.9570    2.3950   23.8590 C   0  0  0  0  0  0  0  0  0  0  0  0
   10.4490    2.1290   23.5650 C   0  0  0  0  0  0  0  0  0  0  0  0
    8.0380    1.0150   21.9710 C   0  0  0  0  0  0  0  0  0  0  0  0
    8.7910    1.5340   21.1290 O   0  0  0  0  0  0  0  0  0  0  0  0
    6.9080    0.0450   21.5620 C   0  0  2  0  0  0  0  0  0  0  0  0
    7.2050   -1.0990   21.7180 N   0  0  0  0  0  0  0  0  0  0  0  0
   11.1740    3.3120   23.3780 C   0  0  0  0  0  0  0  0  0  0  0  0
    6.4080    0.3710   20.2130 C   0  0  0  0  0  0  0  0  0  0  0  0
   12.0070    3.3020   22.4790 O   0  0  0  0  0  0  0  0  0  0  0  0
   10.9800    4.3000   24.0750 O   0  0  0  0  0  0  0  0  0  0  0  0
    5.9790   -1.9080   21.9680 C   0  0  0  0  0  0  0  0  0  0  0  0
    5.3450    1.2590   20.1610 C   0  0  0  0  0  0  0  0  0  0  0  0
    6.8610   -0.0670   18.9780 C   0  0  0  0  0  0  0  0  0  0  0  0
    8.3610   -1.2970   22.4610 C   0  0  0  0  0  0  0  0  0  0  0  0
   12.3260    4.3970   22.0130 C   0  0  0  0  0  0  0  0  0  0  0  0
    6.0650   -3.2780   21.9340 N   0  0  0  0  0  0  0  0  0  0  0  0
    6.3200    0.3530   17.8210 N   0  0  0  0  0  0  0  0  0  0  0  0
    4.7890    1.6880   18.9680 C   0  0  0  0  0  0  0  0  0  0  0  0
    9.4670   -1.4960   21.7120 C   0  0  0  0  0  0  0  0  0  0  0  0
    8.5420   -1.2860   23.8440 C   0  0  0  0  0  0  0  0  0  0  0  0
   13.5690    5.1380   22.4960 C   0  0  0  0  0  0  0  0  0  0  0  0
    6.2250   -3.9220   20.7060 C   0  0  0  0  0  0  0  0  0  0  0  0
    5.2110    1.2970   17.7130 C   0  0  0  0  0  0  0  0  0  0  0  0
   10.7660   -1.6750   22.2230 C   0  0  0  0  0  0  0  0  0  0  0  0
    9.8150   -1.4510   24.4040 C   0  0  0  0  0  0  0  0  0  0  0  0
    5.5510   -3.9570   23.1110 C   0  0  0  0  0  0  0  0  0  0  0  0
    7.6220   -4.3840   20.5290 C   0  0  0  0  0  0  0  0  0  0  0  0
    5.3490   -4.1430   19.8420 O   0  0  0  0  0  0  0  0  0  0  0  0
   10.9330   -1.6410   23.6160 C   0  0  0  0  0  0  0  0  0  0  0  0
    4.7700   -5.1130   23.0260 C   0  0  0  0  0  0  0  0  0  0  0  0
    5.8510   -3.4100   24.3560 C   0  0  0  0  0  0  0  0  0  0  0  0
   12.3570   -1.7980   24.0860 C   0  0  0  0  0  0  0  0  0  0  0  0
    4.2100   -5.8080   24.3100 C   0  0  0  0  0  0  0  0  0  0  0  0
    5.3980   -3.9660   25.5290 C   0  0  0  0  0  0  0  0  0  0  0  0
   12.6600   -0.6620   24.8030 C   0  0  0  0  0  0  0  0  0  0  0  0
   13.3320   -1.9540   22.9160 C   0  0  0  0  0  0  0  0  0  0  0  0
   12.7020   -2.9800   24.9900 C   0  0  0  0  0  0  0  0  0  0  0  0
    3.3690   -7.0170   24.3010 C   0  0  0  0  0  0  0  0  0  0  0  0
    4.6050   -5.1090   25.6450 C   0  0  0  0  0  0  0  0  0  0  0  0
    3.8550   -8.0440   24.7590 O   0  0  0  0  0  0  0  0  0  0  0  0
    2.0010   -6.9040   23.7560 N   0  0  0  0  0  0  0  0  0  0  0  0
    1.4490   -5.6030   23.3830 C   0  0  0  0  0  0  0  0  0  0  0  0
    1.0580   -8.0130   23.9660 C   0  0  0  0  0  0  0  0  0  0  0  0
    0.4930   -5.0890   24.2630 C   0  0  0  0  0  0  0  0  0  0  0  0
    0.0770   -7.6900   24.9290 C   0  0  0  0  0  0  0  0  0  0  0  0
   -0.8960   -6.2470   24.3900 S   0  0  0  0  0  0  0  0  0  0  0  0
  1  2  1  0
  2  3  1  0
  1  4  1  0
  4  5  2  0
  6  4  1  6
  6  7  1  0
  3  8  1  0
  6  9  1  0
  8 10  1  0
  8 11  2  0
  7 12  1  0
  9 13  2  0
  9 14  1  0
  7 15  1  0
 10 16  1  0
 12 17  1  0
 14 18  2  0
 13 19  1  0
 15 20  2  0
 15 21  1  0
 16 22  1  0
 17 23  1  0
 18 24  1  0
 19 24  2  0
 20 25  1  0
 21 26  2  0
 17 27  1  0
 23 28  1  0
 23 29  2  0
 25 30  2  0
 26 30  1  0
 27 31  2  0
 27 32  1  0
 30 33  1  0
 31 34  1  0
 32 35  2  0
 33 36  1  0
 33 37  1  0
 33 38  1  0
 34 39  1  0
 34 40  2  0
 35 40  1  0
 39 41  2  0
 39 42  1  0
 42 43  1  0
 42 44  1  0
 43 45  1  0
 44 46  1  0
 45 47  1  0
 46 47  1  0
M  END
