x0786-x1249
     RDKit          3D

 40 44  0  0  0  0  0  0  0  0999 V2000
    6.0900   -3.6970   21.8830 N   0  0  0  0  0  0  0  0  0  0  0  0
    6.0840   -4.3080   20.6310 C   0  0  0  0  0  0  0  0  0  0  0  0
    7.2400   -5.1040   20.2230 C   0  0  0  0  0  0  0  0  0  0  0  0
    7.1470   -2.8900   22.3050 C   0  0  0  0  0  0  0  0  0  0  0  0
    5.5600   -4.2910   23.0500 C   0  0  0  0  0  0  0  0  0  0  0  0
    5.1740   -4.1970   19.8120 O   0  0  0  0  0  0  0  0  0  0  0  0
    7.1080   -2.7370   23.7370 C   0  0  2  0  0  0  0  0  0  0  0  0
    4.6000   -5.2750   23.0740 C   0  0  0  0  0  0  0  0  0  0  0  0
    6.0970   -3.7780   24.1570 C   0  0  0  0  0  0  0  0  0  0  0  0
    6.5840   -1.5390   24.1890 C   0  0  0  0  0  0  0  0  0  0  0  0
    4.1700   -5.7360   24.2990 C   0  0  0  0  0  0  0  0  0  0  0  0
    5.6820   -4.2320   25.5430 C   0  0  0  0  0  0  0  0  0  0  0  0
    3.0890   -6.7880   24.1510 C   0  0  0  0  0  0  0  0  0  0  0  0
    4.6940   -5.2310   25.5070 C   0  0  0  0  0  0  0  0  0  0  0  0
    6.5520   -0.4480   23.1410 C   0  0  0  0  0  0  0  0  0  0  0  0
    3.6420   -7.7920   24.6300 O   0  0  0  0  0  0  0  0  0  0  0  0
    1.8230   -7.1560   23.7290 N   0  0  0  0  0  0  0  0  0  0  0  0
    6.2530    0.9980   23.6670 C   0  0  0  0  0  0  0  0  0  0  0  0
    1.2060   -6.0700   23.0170 C   0  0  0  0  0  0  0  0  0  0  0  0
    0.9080   -8.1020   24.3520 C   0  0  0  0  0  0  0  0  0  0  0  0
    7.5000    1.4990   24.0370 C   0  0  0  0  0  0  0  0  0  0  0  0
    5.6300    1.7140   22.6400 C   0  0  0  0  0  0  0  0  0  0  0  0
    5.4790    0.8590   24.8390 C   0  0  0  0  0  0  0  0  0  0  0  0
    0.2110   -5.3670   23.6840 C   0  0  0  0  0  0  0  0  0  0  0  0
    0.1180   -7.4130   25.2930 C   0  0  0  0  0  0  0  0  0  0  0  0
    8.2170    0.6530   24.9610 N   0  0  0  0  0  0  0  0  0  0  0  0
    7.9580    2.5570   23.6170 O   0  0  0  0  0  0  0  0  0  0  0  0
    4.2890    1.4270   22.4250 C   0  0  0  0  0  0  0  0  0  0  0  0
    4.1570    0.4640   24.5470 C   0  0  0  0  0  0  0  0  0  0  0  0
   -0.9970   -6.3510   24.5350 S   0  0  0  0  0  0  0  0  0  0  0  0
    9.5580    0.9280   25.2980 C   0  0  0  0  0  0  0  0  0  0  0  0
    3.5410    1.2620   23.6350 O   0  0  0  0  0  0  0  0  0  0  0  0
   10.4920    0.2870   24.3400 C   0  0  0  0  0  0  0  0  0  0  0  0
   11.6470    0.9190   23.8440 C   0  0  0  0  0  0  0  0  0  0  0  0
   10.2160   -1.0030   23.9060 C   0  0  0  0  0  0  0  0  0  0  0  0
   12.4730    0.2610   22.9520 C   0  0  0  0  0  0  0  0  0  0  0  0
   11.0260   -1.6710   23.0140 C   0  0  0  0  0  0  0  0  0  0  0  0
   12.1550   -1.0260   22.5420 C   0  0  0  0  0  0  0  0  0  0  0  0
   12.9180   -1.7500   21.6470 C   0  0  0  0  0  0  0  0  0  0  0  0
   13.5750   -2.6050   20.6970 N   0  0  0  0  0  0  0  0  0  0  0  0
  1  2  1  0
  2  3  1  0
  1  4  1  0
  1  5  1  0
  2  6  2  0
  4  7  1  0
  5  8  1  0
  5  9  2  0
  7  9  1  0
  7 10  1  6
  8 11  2  0
  9 12  1  0
 11 13  1  0
 11 14  1  0
 12 14  2  0
 10 15  1  0
 13 16  2  0
 13 17  1  0
 15 18  1  0
 17 19  1  0
 17 20  1  0
 18 21  1  0
 18 22  1  0
 18 23  1  0
 19 24  1  0
 20 25  1  0
 21 26  1  0
 21 27  2  0
 22 28  1  0
 23 29  1  0
 24 30  1  0
 25 30  1  0
 26 31  1  0
 28 32  1  0
 29 32  1  0
 31 33  1  0
 33 34  2  0
 33 35  1  0
 34 36  1  0
 35 37  2  0
 36 38  2  0
 37 38  1  0
 38 39  1  0
 39 40  3  0
M  END
