x0786-x0104
     RDKit          3D

 39 43  0  0  0  0  0  0  0  0999 V2000
    7.0620   -4.3020   21.9950 N   0  0  0  0  0  0  0  0  0  0  0  0
    6.7290   -4.1870   20.5800 C   0  0  0  0  0  0  0  0  0  0  0  0
    7.6060   -3.3890   19.5960 C   0  0  0  0  0  0  0  0  0  0  0  0
    8.4420   -4.3220   22.4790 C   0  0  0  0  0  0  0  0  0  0  0  0
    6.0760   -4.3400   23.0890 C   0  0  0  0  0  0  0  0  0  0  0  0
    5.7160   -4.7490   20.0780 O   0  0  0  0  0  0  0  0  0  0  0  0
    9.1050   -3.2880   23.2010 C   0  0  0  0  0  0  0  0  0  0  0  0
    5.2280   -5.4570   23.1780 C   0  0  0  0  0  0  0  0  0  0  0  0
    5.9040   -3.2850   24.1280 C   0  0  0  0  0  0  0  0  0  0  0  0
   10.5310   -3.4820   23.3310 C   0  0  0  0  0  0  0  0  0  0  0  0
    4.2430   -5.6230   24.1830 C   0  0  0  0  0  0  0  0  0  0  0  0
    4.9360   -3.4450   25.1160 C   0  0  0  0  0  0  0  0  0  0  0  0
    3.3700   -6.8650   24.2030 C   0  0  0  0  0  0  0  0  0  0  0  0
   11.3550   -2.6440   24.1290 C   0  0  1  0  0  0  0  0  0  0  0  0
    4.1230   -4.5960   25.1380 C   0  0  0  0  0  0  0  0  0  0  0  0
    3.9050   -7.9060   24.5860 O   0  0  0  0  0  0  0  0  0  0  0  0
   12.7840   -2.6120   23.9500 C   0  0  0  0  0  0  0  0  0  0  0  0
    2.2370   -6.8040   23.8860 N   0  0  0  0  0  0  0  0  0  0  0  0
   11.2450   -1.2500   23.5400 C   0  0  0  0  0  0  0  0  0  0  0  0
   13.3320   -2.1110   22.9320 O   0  0  0  0  0  0  0  0  0  0  0  0
    1.5860   -5.5810   23.3720 C   0  0  0  0  0  0  0  0  0  0  0  0
    1.3010   -7.9340   23.9320 C   0  0  0  0  0  0  0  0  0  0  0  0
   10.2320   -0.3680   23.5030 C   0  0  0  0  0  0  0  0  0  0  0  0
   12.6200   -0.9710   22.9620 C   0  0  0  0  0  0  0  0  0  0  0  0
    0.6690   -5.0780   24.2990 C   0  0  0  0  0  0  0  0  0  0  0  0
    0.2330   -7.6690   24.8250 C   0  0  0  0  0  0  0  0  0  0  0  0
   10.4520    0.9320   22.8370 C   0  0  1  0  0  0  0  0  0  0  0  0
   12.8840    0.4970   22.6020 C   0  0  0  0  0  0  0  0  0  0  0  0
   -0.7280   -6.2420   24.3500 S   0  0  0  0  0  0  0  0  0  0  0  0
    9.4680    1.9430   23.2300 N   0  0  0  0  0  0  0  0  0  0  0  0
   11.7850    1.4280   22.7860 C   0  0  0  0  0  0  0  0  0  0  0  0
   11.7680    2.8030   22.8540 C   0  0  0  0  0  0  0  0  0  0  0  0
   10.4120    3.0560   23.1450 C   0  0  0  0  0  0  0  0  0  0  0  0
   12.7810    3.8850   22.7250 C   0  0  0  0  0  0  0  0  0  0  0  0
   12.3680    5.1570   23.1720 C   0  0  0  0  0  0  0  0  0  0  0  0
   11.4090    5.6080   22.6500 N   0  0  0  0  0  0  0  0  0  0  0  0
   10.3800    6.1880   23.4170 C   0  0  0  0  0  0  0  0  0  0  0  0
    9.1470    6.6320   22.6030 C   0  0  0  0  0  0  0  0  0  0  0  0
   10.4840    6.3340   24.8380 O   0  0  0  0  0  0  0  0  0  0  0  0
  1  2  1  0
  2  3  1  0
  1  4  1  0
  1  5  1  0
  2  6  2  0
  4  7  1  0
  5  8  2  0
  5  9  1  0
  7 10  1  0
  8 11  1  0
  9 12  2  0
 11 13  1  0
 14 10  1  6
 11 15  2  0
 12 15  1  0
 13 16  2  0
 14 17  1  0
 13 18  1  0
 14 19  1  0
 17 20  1  0
 18 21  1  0
 18 22  1  0
 19 23  2  0
 19 24  1  0
 20 24  1  0
 21 25  1  0
 22 26  1  0
 27 23  1  1
 24 28  2  0
 25 29  1  0
 26 29  1  0
 27 30  1  0
 27 31  1  0
 28 31  1  0
 31 32  2  0
 30 33  2  0
 32 33  1  0
 32 34  1  0
 34 35  1  0
 35 36  1  0
 36 37  1  0
 37 38  1  0
 37 39  2  0
M  END
