x0786-x0708
     RDKit          3D

 30 33  0  0  0  0  0  0  0  0999 V2000
    6.5620   -4.3600   21.1790 N   0  0  0  0  0  0  0  0  0  0  0  0
    6.3120   -3.7680   19.9320 C   0  0  0  0  0  0  0  0  0  0  0  0
    7.4060   -3.1070   19.0870 C   0  0  0  0  0  0  0  0  0  0  0  0
    7.8050   -4.0660   21.7400 N   0  0  0  0  0  0  0  0  0  0  0  0
    5.1730   -3.8460   19.5050 O   0  0  0  0  0  0  0  0  0  0  0  0
    7.8760   -3.2260   22.8000 C   0  0  0  0  0  0  0  0  0  0  0  0
    7.1210   -3.1960   23.6450 N   0  0  0  0  0  0  0  0  0  0  0  0
    9.0690   -2.2710   23.0060 C   0  0  0  0  0  0  0  0  0  0  0  0
   10.1970   -2.4270   22.2400 C   0  0  0  0  0  0  0  0  0  0  0  0
    9.1420   -1.0060   24.1740 S   0  0  0  0  0  0  0  0  0  0  0  0
    5.9380   -3.8510   24.0440 C   0  0  0  0  0  0  0  0  0  0  0  0
   11.2170   -1.4360   22.7070 C   0  0  0  0  0  0  0  0  0  0  0  0
   10.7270   -0.6310   23.7280 C   0  0  0  0  0  0  0  0  0  0  0  0
    5.4060   -5.1550   23.7460 C   0  0  0  0  0  0  0  0  0  0  0  0
    5.1750   -2.9700   24.9690 C   0  0  0  0  0  0  0  0  0  0  0  0
   12.6690   -1.2160   22.2370 C   0  0  0  0  0  0  0  0  0  0  0  0
   11.5860    0.4320   24.3200 C   0  0  0  0  0  0  0  0  0  0  0  0
    4.1730   -5.5150   24.3840 C   0  0  0  0  0  0  0  0  0  0  0  0
    4.0000   -3.3800   25.5380 C   0  0  0  0  0  0  0  0  0  0  0  0
    3.5550   -6.8100   24.1680 C   0  0  0  0  0  0  0  0  0  0  0  0
   13.2440   -0.1090   22.8850 C   0  0  0  0  0  0  0  0  0  0  0  0
   12.3990    0.9450   23.1580 C   0  0  0  0  0  0  0  0  0  0  0  0
    3.5410   -4.6360   25.2330 C   0  0  0  0  0  0  0  0  0  0  0  0
    4.2160   -7.7960   24.4720 O   0  0  0  0  0  0  0  0  0  0  0  0
    2.2650   -6.8830   23.7010 N   0  0  0  0  0  0  0  0  0  0  0  0
    1.5960   -5.6000   23.4120 C   0  0  0  0  0  0  0  0  0  0  0  0
    1.3300   -7.9430   24.1210 C   0  0  0  0  0  0  0  0  0  0  0  0
    0.2810   -5.7980   23.0060 C   0  0  0  0  0  0  0  0  0  0  0  0
    0.2870   -7.4460   24.9460 C   0  0  0  0  0  0  0  0  0  0  0  0
   -0.8090   -6.2180   24.2750 S   0  0  0  0  0  0  0  0  0  0  0  0
  1  2  1  0
  2  3  1  0
  1  4  1  0
  2  5  2  0
  4  6  1  0
  6  7  2  3
  6  8  1  0
  8  9  2  0
  8 10  1  0
  7 11  1  0
  9 12  1  0
 10 13  1  0
 12 13  2  0
 11 14  2  0
 11 15  1  0
 12 16  1  0
 13 17  1  0
 14 18  1  0
 15 19  2  0
 18 20  1  0
 16 21  1  0
 17 22  1  0
 21 22  1  0
 18 23  2  0
 19 23  1  0
 20 24  2  0
 20 25  1  0
 25 26  1  0
 25 27  1  0
 26 28  1  0
 27 29  1  0
 28 30  1  0
 29 30  1  0
M  END
