x0786-x0820-x3115
     RDKit          3D

 50 54  0  0  0  0  0  0  0  0999 V2000
    7.1560   -1.9450   22.2750 N   0  0  0  0  0  0  0  0  0  0  0  0
    6.5360   -0.6570   21.9760 C   0  0  1  0  0  0  0  0  0  0  0  0
    7.5060    0.5750   22.2220 C   0  0  0  0  0  0  0  0  0  0  0  0
    6.7250   -3.3680   22.5360 C   0  0  2  0  0  0  0  0  0  0  0  0
    8.4660   -1.8800   22.7310 C   0  0  0  0  0  0  0  0  0  0  0  0
    5.7690   -3.6890   21.6390 N   0  0  0  0  0  0  0  0  0  0  0  0
    6.0980   -0.1540   20.5200 C   0  0  0  0  0  0  0  0  0  0  0  0
    9.6250   -2.1010   21.8180 C   0  0  0  0  0  0  0  0  0  0  0  0
    8.7660   -1.6180   24.0740 C   0  0  0  0  0  0  0  0  0  0  0  0
    6.1840   -3.9090   23.9740 C   0  0  0  0  0  0  0  0  0  0  0  0
    6.9930    1.7230   22.9430 N   0  0  0  0  0  0  0  0  0  0  0  0
    8.6200    0.4580   21.7070 O   0  0  0  0  0  0  0  0  0  0  0  0
    6.0440   -4.2150   20.3760 C   0  0  0  0  0  0  0  0  0  0  0  0
    4.8780    0.5360   20.3440 C   0  0  0  0  0  0  0  0  0  0  0  0
    6.8970   -0.3320   19.3820 C   0  0  0  0  0  0  0  0  0  0  0  0
   11.0240   -2.0590   22.3180 C   0  0  0  0  0  0  0  0  0  0  0  0
   10.0920   -1.5900   24.5210 C   0  0  0  0  0  0  0  0  0  0  0  0
    6.9640   -4.0480   25.1840 C   0  0  0  0  0  0  0  0  0  0  0  0
    4.8150   -4.3350   24.1650 C   0  0  0  0  0  0  0  0  0  0  0  0
    8.0000    2.6380   23.2070 C   0  0  0  0  0  0  0  0  0  0  0  0
    5.5960   -5.3040   20.0470 O   0  0  0  0  0  0  0  0  0  0  0  0
    6.8580   -3.3440   19.4100 C   0  0  0  0  0  0  0  0  0  0  0  0
    6.4830    0.1840   18.0560 N   0  0  0  0  0  0  0  0  0  0  0  0
    4.4860    1.0260   19.0850 C   0  0  0  0  0  0  0  0  0  0  0  0
   11.1780   -1.8080   23.6750 C   0  0  0  0  0  0  0  0  0  0  0  0
    6.3680   -4.5020   26.4170 C   0  0  0  0  0  0  0  0  0  0  0  0
    4.2970   -4.7640   25.3770 C   0  0  0  0  0  0  0  0  0  0  0  0
    8.3430   -3.7830   25.3230 C   0  0  0  0  0  0  0  0  0  0  0  0
    3.7110   -4.4280   23.1700 C   0  0  0  0  0  0  0  0  0  0  0  0
    7.8150    3.9640   22.4120 C   0  0  0  0  0  0  0  0  0  0  0  0
   12.5460   -1.7640   24.2300 C   0  0  0  0  0  0  0  0  0  0  0  0
    5.3110    0.8300   17.9920 C   0  0  0  0  0  0  0  0  0  0  0  0
    5.0520   -4.8390   26.4910 C   0  0  0  0  0  0  0  0  0  0  0  0
    7.0560   -4.6530   27.6450 C   0  0  0  0  0  0  0  0  0  0  0  0
    9.0130   -3.9440   26.5340 C   0  0  0  0  0  0  0  0  0  0  0  0
    3.5920   -5.7520   22.8230 C   0  0  0  0  0  0  0  0  0  0  0  0
    8.3910    4.9460   22.9190 O   0  0  0  0  0  0  0  0  0  0  0  0
   13.5320   -2.0460   23.1280 C   0  0  0  0  0  0  0  0  0  0  0  0
   12.8750   -2.8570   25.2500 C   0  0  0  0  0  0  0  0  0  0  0  0
   12.6760   -0.5340   24.8080 C   0  0  0  0  0  0  0  0  0  0  0  0
    8.3920   -4.3650   27.6780 C   0  0  0  0  0  0  0  0  0  0  0  0
    3.2200   -6.7390   23.9310 C   0  0  0  0  0  0  0  0  0  0  0  0
    8.1640    6.1740   22.2050 C   0  0  0  0  0  0  0  0  0  0  0  0
    4.0080   -7.5450   24.4650 O   0  0  0  0  0  0  0  0  0  0  0  0
    1.7980   -6.7150   24.3020 N   0  0  0  0  0  0  0  0  0  0  0  0
    1.1520   -5.4010   24.4820 C   0  0  0  0  0  0  0  0  0  0  0  0
    0.9100   -7.8610   24.1470 C   0  0  0  0  0  0  0  0  0  0  0  0
    0.0260   -5.2220   23.7120 C   0  0  0  0  0  0  0  0  0  0  0  0
   -0.2680   -7.7060   24.8810 C   0  0  0  0  0  0  0  0  0  0  0  0
   -1.3040   -6.3660   24.1860 S   0  0  0  0  0  0  0  0  0  0  0  0
  1  2  1  0
  2  3  1  6
  1  4  1  0
  1  5  1  0
  4  6  1  6
  2  7  1  0
  5  8  2  0
  5  9  1  0
  4 10  1  0
  3 11  1  0
  3 12  2  0
  6 13  1  0
  7 14  2  0
  7 15  1  0
  8 16  1  0
  9 17  2  0
 10 18  2  0
 10 19  1  0
 11 20  1  0
 13 21  2  0
 13 22  1  0
 15 23  2  0
 14 24  1  0
 16 25  2  0
 17 25  1  0
 18 26  1  0
 19 27  2  0
 18 28  1  0
 19 29  1  0
 20 30  1  0
 25 31  1  0
 23 32  1  0
 24 32  2  0
 26 33  2  0
 27 33  1  0
 26 34  1  0
 28 35  2  0
 29 36  1  0
 30 37  1  0
 31 38  1  0
 31 39  1  0
 31 40  1  0
 34 41  2  0
 35 41  1  0
 36 42  1  0
 37 43  1  0
 42 44  2  0
 42 45  1  0
 45 46  1  0
 45 47  1  0
 46 48  1  0
 47 49  1  0
 48 50  1  0
 49 50  1  0
M  END
