x0786-x2563
     RDKit          3D

 40 44  0  0  0  0  0  0  0  0999 V2000
    6.1460   -3.9370   21.9680 N   0  0  0  0  0  0  0  0  0  0  0  0
    6.1160   -4.5060   20.6940 C   0  0  0  0  0  0  0  0  0  0  0  0
    7.3310   -5.1610   20.2080 C   0  0  0  0  0  0  0  0  0  0  0  0
    7.1670   -2.9240   22.2030 C   0  0  0  0  0  0  0  0  0  0  0  0
    5.4300   -4.3050   23.1030 C   0  0  0  0  0  0  0  0  0  0  0  0
    5.1680   -4.4550   19.9090 O   0  0  0  0  0  0  0  0  0  0  0  0
    6.5410   -1.6210   21.7630 C   0  0  0  0  0  0  0  0  0  0  0  0
    4.6840   -5.4650   23.1440 C   0  0  0  0  0  0  0  0  0  0  0  0
    5.5120   -3.4260   24.1980 C   0  0  0  0  0  0  0  0  0  0  0  0
    7.2580   -1.0110   20.6180 C   0  0  2  0  0  0  0  0  0  0  0  0
    3.9620   -5.8140   24.2980 C   0  0  0  0  0  0  0  0  0  0  0  0
    4.8370   -3.7060   25.3670 C   0  0  0  0  0  0  0  0  0  0  0  0
    3.2020   -7.0200   24.2610 C   0  0  0  0  0  0  0  0  0  0  0  0
    8.3730   -0.2130   21.2210 C   0  0  0  0  0  0  0  0  0  0  0  0
    4.0120   -4.9800   25.4100 C   0  0  0  0  0  0  0  0  0  0  0  0
    6.4070   -0.0810   19.7980 C   0  0  0  0  0  0  0  0  0  0  0  0
    3.7600   -8.0240   24.6960 O   0  0  0  0  0  0  0  0  0  0  0  0
    8.4760    1.0110   21.0790 O   0  0  0  0  0  0  0  0  0  0  0  0
    9.0600   -0.9020   21.8070 N   0  0  0  0  0  0  0  0  0  0  0  0
    2.1050   -7.0110   23.8370 N   0  0  0  0  0  0  0  0  0  0  0  0
    5.3150    0.6780   20.2150 C   0  0  0  0  0  0  0  0  0  0  0  0
    6.7690    0.0190   18.4820 C   0  0  0  0  0  0  0  0  0  0  0  0
    1.5210   -5.7020   23.4320 C   0  0  0  0  0  0  0  0  0  0  0  0
    1.1890   -7.9850   24.0390 C   0  0  0  0  0  0  0  0  0  0  0  0
    6.2420    0.7340   17.5200 N   0  0  0  0  0  0  0  0  0  0  0  0
    4.5740    1.5940   19.1580 C   0  0  0  0  0  0  0  0  0  0  0  0
    4.8790    0.6370   21.5480 C   0  0  0  0  0  0  0  0  0  0  0  0
   10.0620   -0.4260   22.5730 C   0  0  0  0  0  0  0  0  0  0  0  0
    0.5860   -5.1630   24.3200 C   0  0  0  0  0  0  0  0  0  0  0  0
    0.0620   -7.4920   24.7370 C   0  0  0  0  0  0  0  0  0  0  0  0
    5.0730    1.5850   17.8590 C   0  0  0  0  0  0  0  0  0  0  0  0
    3.4830    2.3160   19.6780 C   0  0  0  0  0  0  0  0  0  0  0  0
    3.7920    1.4110   21.8950 C   0  0  0  0  0  0  0  0  0  0  0  0
   11.3990   -0.7550   22.3610 C   0  0  0  0  0  0  0  0  0  0  0  0
    9.6050    0.4290   23.5660 C   0  0  0  0  0  0  0  0  0  0  0  0
   -0.8230   -6.1210   24.2740 S   0  0  0  0  0  0  0  0  0  0  0  0
    3.1050    2.2220   21.0190 C   0  0  0  0  0  0  0  0  0  0  0  0
   12.3640   -0.2090   23.1530 C   0  0  0  0  0  0  0  0  0  0  0  0
   10.5220    1.0030   24.3880 C   0  0  0  0  0  0  0  0  0  0  0  0
   11.8720    0.7330   24.2290 C   0  0  0  0  0  0  0  0  0  0  0  0
  1  2  1  0
  2  3  1  0
  1  4  1  0
  1  5  1  0
  2  6  2  0
  4  7  1  0
  5  8  2  0
  5  9  1  0
 10  7  1  1
  8 11  1  0
  9 12  2  0
 11 13  1  0
 10 14  1  0
 11 15  2  0
 12 15  1  0
 10 16  1  0
 13 17  2  0
 14 18  2  0
 14 19  1  0
 13 20  1  0
 16 21  1  0
 16 22  2  0
 20 23  1  0
 20 24  1  0
 22 25  1  0
 21 26  2  0
 21 27  1  0
 19 28  1  0
 23 29  1  0
 24 30  1  0
 25 31  2  0
 26 31  1  0
 26 32  1  0
 27 33  2  0
 28 34  2  0
 28 35  1  0
 29 36  1  0
 30 36  1  0
 32 37  2  0
 33 37  1  0
 34 38  1  0
 35 39  2  0
 38 40  2  0
 39 40  1  0
M  END
