x0786-x2694-x3115-x0820-x0540
     RDKit          3D

 68 74  0  0  0  0  0  0  0  0999 V2000
    8.0190   -1.3970   22.4730 N   0  0  0  0  0  0  0  0  0  0  0  0
    7.2900   -0.0080   22.1230 C   0  0  1  0  0  0  0  0  0  0  0  0
    8.2110    1.2820   22.0810 C   0  0  0  0  0  0  0  0  0  0  0  0
    7.6580   -2.8860   22.4740 C   0  0  2  0  0  0  0  0  0  0  0  0
    9.3810   -1.2180   22.8780 C   0  0  0  0  0  0  0  0  0  0  0  0
    6.6940   -2.9010   21.3310 N   0  0  0  0  0  0  0  0  0  0  0  0
    6.3030    0.1870   20.7980 C   0  0  0  0  0  0  0  0  0  0  0  0
    9.8630   -0.8130   24.0960 N   0  0  0  0  0  0  0  0  0  0  0  0
   10.4810   -1.4220   22.1000 C   0  0  0  0  0  0  0  0  0  0  0  0
    7.2230   -3.8220   23.7940 C   0  0  0  0  0  0  0  0  0  0  0  0
    8.0670    2.1620   22.8670 N   0  0  0  0  0  0  0  0  0  0  0  0
    9.1760    1.3080   21.0160 O   0  0  0  0  0  0  0  0  0  0  0  0
    6.7870   -3.5810   20.1060 C   0  0  0  0  0  0  0  0  0  0  0  0
    4.8560    0.3940   20.9920 C   0  0  0  0  0  0  0  0  0  0  0  0
    6.8360    0.1840   19.4740 C   0  0  0  0  0  0  0  0  0  0  0  0
   11.1470   -0.7830   24.0540 O   0  0  0  0  0  0  0  0  0  0  0  0
   11.6120   -1.1550   22.8140 C   0  0  0  0  0  0  0  0  0  0  0  0
    8.1800   -4.1780   24.8710 C   0  0  0  0  0  0  0  0  0  0  0  0
    5.7740   -4.1650   23.5520 C   0  0  0  0  0  0  0  0  0  0  0  0
   13.0380   -1.2000   22.4760 C   0  0  0  0  0  0  0  0  0  0  0  0
    6.0910   -4.5930   19.9140 O   0  0  0  0  0  0  0  0  0  0  0  0
    7.7480   -3.0160   19.0290 C   0  0  0  0  0  0  0  0  0  0  0  0
    4.0750    0.4520   22.1850 C   0  0  0  0  0  0  0  0  0  0  0  0
    6.1170    0.3500   18.3060 N   0  0  0  0  0  0  0  0  0  0  0  0
    4.0690    0.5740   19.8110 C   0  0  0  0  0  0  0  0  0  0  0  0
    8.7670    3.4330   22.8970 C   0  0  0  0  0  0  0  0  0  0  0  0
    7.6690   -4.9830   25.9580 C   0  0  0  0  0  0  0  0  0  0  0  0
    5.5700   -5.0050   24.8600 C   0  0  0  0  0  0  0  0  0  0  0  0
    9.5960   -3.8870   25.0710 C   0  0  0  0  0  0  0  0  0  0  0  0
    4.2630   -4.5230   23.3010 C   0  0  0  0  0  0  0  0  0  0  0  0
   13.4890    0.3040   22.4680 C   0  0  0  0  0  0  0  0  0  0  0  0
   13.3300   -1.8360   21.0650 C   0  0  0  0  0  0  0  0  0  0  0  0
   13.8890   -1.9630   23.5550 C   0  0  0  0  0  0  0  0  0  0  0  0
    4.1600    1.6340   23.0070 C   0  0  0  0  0  0  0  0  0  0  0  0
    4.7710    0.5390   18.4590 C   0  0  0  0  0  0  0  0  0  0  0  0
   10.0480    3.5120   23.5670 C   0  0  0  0  0  0  0  0  0  0  0  0
    8.2480    4.6020   22.2880 C   0  0  0  0  0  0  0  0  0  0  0  0
    6.4070   -5.3480   25.9040 C   0  0  0  0  0  0  0  0  0  0  0  0
    8.3930   -5.4530   27.1210 C   0  0  0  0  0  0  0  0  0  0  0  0
   10.4300   -4.3540   26.2810 C   0  0  0  0  0  0  0  0  0  0  0  0
    4.1560   -5.8690   22.5300 C   0  0  0  0  0  0  0  0  0  0  0  0
   10.6870    2.3380   24.2400 C   0  0  0  0  0  0  0  0  0  0  0  0
   13.2890   -3.0080   24.4590 C   0  0  0  0  0  0  0  0  0  0  0  0
    3.1690    2.5560   22.6960 N   0  0  0  0  0  0  0  0  0  0  0  0
   10.7730    4.7300   23.6100 C   0  0  0  0  0  0  0  0  0  0  0  0
    9.0000    5.9370   22.3150 C   0  0  0  0  0  0  0  0  0  0  0  0
    9.8670   -5.1040   27.2860 C   0  0  0  0  0  0  0  0  0  0  0  0
    3.2050   -6.9480   23.0930 C   0  0  0  0  0  0  0  0  0  0  0  0
    8.3580    7.1280   21.6270 C   0  0  0  0  0  0  0  0  0  0  0  0
    2.4200    3.2850   23.6570 C   0  0  0  0  0  0  0  0  0  0  0  0
   10.2620    6.0200   22.9650 C   0  0  0  0  0  0  0  0  0  0  0  0
    3.5620   -7.6990   24.0270 O   0  0  0  0  0  0  0  0  0  0  0  0
    1.8300   -7.0480   22.4520 N   0  0  0  0  0  0  0  0  0  0  0  0
   10.9400    7.2460   22.9770 O   0  0  0  0  0  0  0  0  0  0  0  0
    2.8520    3.6600   24.7490 O   0  0  0  0  0  0  0  0  0  0  0  0
    1.1200    3.5400   23.1920 N   0  0  0  0  0  0  0  0  0  0  0  0
    0.7820   -6.0050   22.5920 C   0  0  0  0  0  0  0  0  0  0  0  0
    1.3600   -8.4030   22.0290 C   0  0  0  0  0  0  0  0  0  0  0  0
   12.3780    7.2990   23.1370 C   0  0  0  0  0  0  0  0  0  0  0  0
   -0.1030    3.2980   23.9850 C   0  0  0  0  0  0  0  0  0  0  0  0
   -0.0900   -6.2500   23.6660 C   0  0  0  0  0  0  0  0  0  0  0  0
    0.3400   -9.0240   23.0740 C   0  0  0  0  0  0  0  0  0  0  0  0
   -0.4050    4.5270   24.9100 C   0  0  0  0  0  0  0  0  0  0  0  0
   -1.1510    2.8280   23.1420 C   0  0  0  0  0  0  0  0  0  0  0  0
   -0.9950   -7.8610   23.5420 S   0  0  0  0  0  0  0  0  0  0  0  0
   -1.7630    4.6410   25.2830 C   0  0  0  0  0  0  0  0  0  0  0  0
   -2.4840    3.0680   23.5530 C   0  0  0  0  0  0  0  0  0  0  0  0
   -2.7500    4.2080   24.3500 C   0  0  0  0  0  0  0  0  0  0  0  0
  1  2  1  0
  2  3  1  6
  1  4  1  0
  1  5  1  0
  4  6  1  6
  2  7  1  0
  5  8  2  0
  5  9  1  0
  4 10  1  0
  3 11  1  0
  3 12  2  0
  6 13  1  0
  7 14  1  0
  7 15  2  0
  8 16  1  0
  9 17  2  0
 16 17  1  0
 10 18  2  0
 10 19  1  0
 17 20  1  0
 13 21  2  0
 13 22  1  0
 14 23  1  0
 15 24  1  0
 14 25  2  0
 11 26  1  0
 18 27  1  0
 19 28  2  0
 18 29  1  0
 19 30  1  0
 20 31  1  0
 20 32  1  0
 20 33  1  0
 23 34  1  0
 24 35  2  0
 25 35  1  0
 26 36  2  0
 26 37  1  0
 27 38  2  0
 28 38  1  0
 27 39  1  0
 29 40  2  0
 30 41  1  0
 36 42  1  0
 33 43  1  0
 34 44  1  0
 36 45  1  0
 37 46  2  0
 39 47  2  0
 40 47  1  0
 41 48  1  0
 46 49  1  0
 44 50  1  0
 45 51  2  0
 46 51  1  0
 48 52  2  0
 48 53  1  0
 51 54  1  0
 50 55  2  0
 50 56  1  0
 53 57  1  0
 53 58  1  0
 54 59  1  0
 56 60  1  0
 57 61  1  0
 58 62  1  0
 60 63  1  0
 60 64  1  0
 61 65  1  0
 62 65  1  0
 63 66  1  0
 64 67  1  0
 66 68  1  0
 67 68  1  0
M  END
