x0786
     RDKit          3D

 19 20  0  0  0  0  0  0  0  0999 V2000
    6.8570   -4.3210   21.9140 N   0  0  0  0  0  0  0  0  0  0  0  0
    7.7790   -4.7720   19.8340 C   0  0  0  0  0  0  0  0  0  0  0  0
    5.4640   -4.2480   20.1170 O   0  0  0  0  0  0  0  0  0  0  0  0
    6.5600   -4.4160   20.6200 C   0  0  0  0  0  0  0  0  0  0  0  0
    2.0650   -6.6690   23.9060 N   0  0  0  0  0  0  0  0  0  0  0  0
    3.7650   -7.8680   24.7790 O   0  0  0  0  0  0  0  0  0  0  0  0
    5.9790   -4.4620   23.0000 C   0  0  0  0  0  0  0  0  0  0  0  0
    5.9690   -3.4500   23.9540 C   0  0  0  0  0  0  0  0  0  0  0  0
    5.1060   -3.5380   25.0230 C   0  0  0  0  0  0  0  0  0  0  0  0
    4.2560   -4.6240   25.1480 C   0  0  0  0  0  0  0  0  0  0  0  0
    4.2610   -5.6390   24.1990 C   0  0  0  0  0  0  0  0  0  0  0  0
    5.1220   -5.5520   23.1050 C   0  0  0  0  0  0  0  0  0  0  0  0
    3.3330   -6.8120   24.3220 C   0  0  0  0  0  0  0  0  0  0  0  0
    1.5580   -5.4650   23.2350 C   0  0  0  0  0  0  0  0  0  0  0  0
    0.4650   -4.8160   24.0540 C   0  0  0  0  0  0  0  0  0  0  0  0
   -0.0870   -7.2920   24.9110 C   0  0  0  0  0  0  0  0  0  0  0  0
    1.0610   -7.7310   24.0310 C   0  0  0  0  0  0  0  0  0  0  0  0
   -0.9740   -5.8780   24.2380 S   0  0  0  0  0  0  0  0  0  0  0  0
    8.2270   -3.4470   18.6960 R   0  0  0  0  0  0  0  0  0  0  0  0
  1  4  1  0
  2  4  1  0
  3  4  2  0
  1  7  1  0
  7  8  2  0
  8  9  1  0
  9 10  2  0
 10 11  1  0
  7 12  1  0
 11 12  2  0
  5 13  1  0
  6 13  2  0
 11 13  1  0
  5 14  1  0
 14 15  1  0
  5 17  1  0
 16 17  1  0
 15 18  1  0
 16 18  1  0
  2 19  1  0
M  END
