x0786-x2193-x2694
     RDKit          3D

 56 61  0  0  0  0  0  0  0  0999 V2000
    7.4440   -0.5900   22.0040 N   0  0  0  0  0  0  0  0  0  0  0  0
    7.1110    0.6960   21.6110 C   0  0  1  0  0  0  0  0  0  0  0  0
    8.1650    1.7160   21.7910 C   0  0  0  0  0  0  0  0  0  0  0  0
    6.3710   -1.4230   22.5690 C   0  0  0  0  0  0  0  0  0  0  0  0
    8.7390   -0.7720   22.7580 C   0  0  1  0  0  0  0  0  0  0  0  0
    5.7340   -2.3430   21.7520 C   0  0  0  0  0  0  0  0  0  0  0  0
    6.4150    0.8340   20.3220 C   0  0  0  0  0  0  0  0  0  0  0  0
    8.7600   -1.6040   23.8460 N   0  0  0  0  0  0  0  0  0  0  0  0
    9.9640   -1.0270   22.1400 C   0  0  0  0  0  0  0  0  0  0  0  0
    7.8360    2.6030   22.6510 N   0  0  0  0  0  0  0  0  0  0  0  0
    9.2010    1.7290   21.1760 O   0  0  0  0  0  0  0  0  0  0  0  0
    6.0160   -3.6440   21.9390 N   0  0  0  0  0  0  0  0  0  0  0  0
    5.2750    1.6420   20.1970 C   0  0  0  0  0  0  0  0  0  0  0  0
    6.8740    0.1830   19.2200 C   0  0  0  0  0  0  0  0  0  0  0  0
   10.0460   -1.5520   24.2360 O   0  0  0  0  0  0  0  0  0  0  0  0
   10.7910   -0.8750   23.2350 C   0  0  1  0  0  0  0  0  0  0  0  0
    8.6260   -3.0000   23.4670 C   0  0  0  0  0  0  0  0  0  0  0  0
   12.2510   -1.3680   23.2340 C   0  0  0  0  0  0  0  0  0  0  0  0
    6.4650   -4.3060   20.8010 C   0  0  0  0  0  0  0  0  0  0  0  0
    6.3630    0.2210   17.9740 N   0  0  0  0  0  0  0  0  0  0  0  0
    4.6690    1.7430   18.9400 C   0  0  0  0  0  0  0  0  0  0  0  0
    8.6180    3.7310   22.9790 C   0  0  0  0  0  0  0  0  0  0  0  0
    5.4450   -4.1780   23.0330 C   0  0  0  0  0  0  0  0  0  0  0  0
    8.6230   -3.9500   24.5780 N   0  0  0  0  0  0  0  0  0  0  0  0
   13.0050   -0.4240   23.8750 C   0  0  0  0  0  0  0  0  0  0  0  0
   12.8800   -1.5950   21.9050 C   0  0  0  0  0  0  0  0  0  0  0  0
   12.4250   -2.4380   24.0300 C   0  0  0  0  0  0  0  0  0  0  0  0
    8.0200   -4.4470   20.7500 C   0  0  0  0  0  0  0  0  0  0  0  0
    5.6390   -4.7020   19.9770 O   0  0  0  0  0  0  0  0  0  0  0  0
    5.1690    1.0710   17.8320 C   0  0  0  0  0  0  0  0  0  0  0  0
    9.8440    3.5800   23.6300 C   0  0  0  0  0  0  0  0  0  0  0  0
    8.0970    4.9750   22.6160 C   0  0  0  0  0  0  0  0  0  0  0  0
    4.6910   -5.3580   22.9850 C   0  0  0  0  0  0  0  0  0  0  0  0
    5.6330   -3.4300   24.3710 C   0  0  0  0  0  0  0  0  0  0  0  0
    8.4540   -3.5300   25.9670 C   0  0  0  0  0  0  0  0  0  0  0  0
    9.8190   -4.7400   24.5430 C   0  0  0  0  0  0  0  0  0  0  0  0
   10.3770    2.2240   23.9990 C   0  0  0  0  0  0  0  0  0  0  0  0
   10.6510    4.6520   23.9790 C   0  0  0  0  0  0  0  0  0  0  0  0
    8.9750    6.1190   22.9990 C   0  0  0  0  0  0  0  0  0  0  0  0
    4.1000   -5.8550   24.1440 C   0  0  0  0  0  0  0  0  0  0  0  0
    4.9910   -3.9800   25.6220 C   0  0  0  0  0  0  0  0  0  0  0  0
    8.1380   -4.8040   26.7860 C   0  0  0  0  0  0  0  0  0  0  0  0
    9.6210   -6.0150   25.3040 C   0  0  0  0  0  0  0  0  0  0  0  0
    3.2760   -7.0600   24.2240 C   0  0  0  0  0  0  0  0  0  0  0  0
   10.2810    5.9540   23.7010 C   0  0  0  0  0  0  0  0  0  0  0  0
    4.2580   -5.1380   25.5040 C   0  0  0  0  0  0  0  0  0  0  0  0
    8.3180   -6.0260   26.0030 N   0  0  0  0  0  0  0  0  0  0  0  0
   11.1470    6.9290   24.0970 O   0  0  0  0  0  0  0  0  0  0  0  0
    3.7710   -8.0680   24.7150 O   0  0  0  0  0  0  0  0  0  0  0  0
    1.9780   -6.9600   23.7470 N   0  0  0  0  0  0  0  0  0  0  0  0
   11.8730    6.6900   25.3200 C   0  0  0  0  0  0  0  0  0  0  0  0
    1.3680   -5.7080   23.2930 C   0  0  0  0  0  0  0  0  0  0  0  0
    1.0770   -8.0980   23.9980 C   0  0  0  0  0  0  0  0  0  0  0  0
    0.6590   -5.1050   24.3480 C   0  0  0  0  0  0  0  0  0  0  0  0
   -0.1510   -7.6540   24.8150 C   0  0  0  0  0  0  0  0  0  0  0  0
   -0.8340   -6.0480   24.2780 S   0  0  0  0  0  0  0  0  0  0  0  0
  1  2  1  0
  2  3  1  6
  1  4  1  0
  5  1  1  6
  4  6  1  0
  2  7  1  0
  5  8  1  0
  5  9  1  0
  3 10  1  0
  3 11  2  0
  6 12  1  0
  7 13  2  0
  7 14  1  0
  8 15  1  0
  9 16  1  0
 15 16  1  0
  8 17  1  0
 16 18  1  6
 12 19  1  0
 14 20  2  0
 13 21  1  0
 10 22  1  0
 12 23  1  0
 17 24  1  0
 18 25  1  0
 18 26  1  0
 18 27  1  0
 19 28  1  0
 19 29  2  0
 20 30  1  0
 21 30  2  0
 22 31  2  0
 22 32  1  0
 23 33  2  0
 23 34  1  0
 24 35  1  0
 24 36  1  0
 31 37  1  0
 31 38  1  0
 32 39  2  0
 33 40  1  0
 34 41  2  0
 35 42  1  0
 36 43  1  0
 40 44  1  0
 38 45  2  0
 39 45  1  0
 40 46  2  0
 41 46  1  0
 42 47  1  0
 43 47  1  0
 45 48  1  0
 44 49  2  0
 44 50  1  0
 48 51  1  0
 50 52  1  0
 50 53  1  0
 52 54  1  0
 53 55  1  0
 54 56  1  0
 55 56  1  0
M  END
