x0786-x2694
     RDKit          3D

 49 53  0  0  0  0  0  0  0  0999 V2000
    7.7390   -0.7000   21.6370 N   0  0  0  0  0  0  0  0  0  0  0  0
    7.1240    0.5200   21.5950 C   0  0  1  0  0  0  0  0  0  0  0  0
    8.0920    1.6810   21.8730 C   0  0  0  0  0  0  0  0  0  0  0  0
    6.9050   -1.7580   21.4220 C   0  0  0  0  0  0  0  0  0  0  0  0
    8.8230   -0.9720   22.5120 C   0  0  0  0  0  0  0  0  0  0  0  0
    7.1770   -2.9470   22.0340 C   0  0  0  0  0  0  0  0  0  0  0  0
    6.4480    0.7360   20.3500 C   0  0  0  0  0  0  0  0  0  0  0  0
    8.7690   -1.2090   23.9750 N   0  0  0  0  0  0  0  0  0  0  0  0
   10.1040   -1.0470   22.0910 C   0  0  0  0  0  0  0  0  0  0  0  0
    7.7370    2.6070   22.8910 N   0  0  0  0  0  0  0  0  0  0  0  0
    9.0720    1.6770   21.1460 O   0  0  0  0  0  0  0  0  0  0  0  0
    6.1960   -3.8230   21.8520 N   0  0  0  0  0  0  0  0  0  0  0  0
    5.3190    1.5550   20.2500 C   0  0  0  0  0  0  0  0  0  0  0  0
    6.9130    0.1050   19.0740 C   0  0  0  0  0  0  0  0  0  0  0  0
   10.1110   -1.4210   24.3870 O   0  0  0  0  0  0  0  0  0  0  0  0
   10.9680   -1.3360   23.3140 C   0  0  0  0  0  0  0  0  0  0  0  0
   12.3870   -1.4770   23.3680 C   0  0  0  0  0  0  0  0  0  0  0  0
    6.0320   -4.3810   20.5930 C   0  0  0  0  0  0  0  0  0  0  0  0
    6.2710    0.3160   17.7980 N   0  0  0  0  0  0  0  0  0  0  0  0
    4.7070    1.7460   19.0060 C   0  0  0  0  0  0  0  0  0  0  0  0
    8.5640    3.7150   23.1220 C   0  0  0  0  0  0  0  0  0  0  0  0
    5.5260   -4.2340   23.0470 C   0  0  0  0  0  0  0  0  0  0  0  0
   12.8990   -0.2320   23.6700 C   0  0  0  0  0  0  0  0  0  0  0  0
   12.9130   -1.9370   22.0350 C   0  0  0  0  0  0  0  0  0  0  0  0
   12.8190   -2.4800   24.4590 C   0  0  0  0  0  0  0  0  0  0  0  0
    7.2020   -5.1200   20.1490 C   0  0  0  0  0  0  0  0  0  0  0  0
    5.0930   -4.2870   19.8190 O   0  0  0  0  0  0  0  0  0  0  0  0
    5.2020    1.1310   17.8480 C   0  0  0  0  0  0  0  0  0  0  0  0
    9.8120    3.4750   23.7010 C   0  0  0  0  0  0  0  0  0  0  0  0
    8.2060    5.0290   22.8030 C   0  0  0  0  0  0  0  0  0  0  0  0
    4.7030   -5.5330   22.9900 C   0  0  0  0  0  0  0  0  0  0  0  0
    5.6080   -3.4910   24.2250 C   0  0  0  0  0  0  0  0  0  0  0  0
   10.2900    2.0970   24.0740 C   0  0  0  0  0  0  0  0  0  0  0  0
   10.6610    4.5660   23.9480 C   0  0  0  0  0  0  0  0  0  0  0  0
    9.0570    6.1010   23.0560 C   0  0  0  0  0  0  0  0  0  0  0  0
    4.0040   -5.8940   24.3200 C   0  0  0  0  0  0  0  0  0  0  0  0
    4.9450   -3.9170   25.3530 C   0  0  0  0  0  0  0  0  0  0  0  0
    3.1730   -7.0910   24.3840 C   0  0  0  0  0  0  0  0  0  0  0  0
   10.3000    5.8870   23.6390 C   0  0  0  0  0  0  0  0  0  0  0  0
    4.1690   -5.0610   25.4300 C   0  0  0  0  0  0  0  0  0  0  0  0
   11.2290    6.8360   23.9550 O   0  0  0  0  0  0  0  0  0  0  0  0
    3.6540   -8.1080   24.8870 O   0  0  0  0  0  0  0  0  0  0  0  0
    1.9220   -7.0230   23.8730 N   0  0  0  0  0  0  0  0  0  0  0  0
   11.8580    6.7250   25.2260 C   0  0  0  0  0  0  0  0  0  0  0  0
    1.4390   -5.7140   23.4110 C   0  0  0  0  0  0  0  0  0  0  0  0
    0.9020   -8.0610   24.0260 C   0  0  0  0  0  0  0  0  0  0  0  0
    0.3620   -5.0900   24.3010 C   0  0  0  0  0  0  0  0  0  0  0  0
   -0.1090   -7.7040   24.9280 C   0  0  0  0  0  0  0  0  0  0  0  0
   -1.0550   -6.2020   24.4920 S   0  0  0  0  0  0  0  0  0  0  0  0
  1  2  1  0
  2  3  1  6
  1  4  1  0
  1  5  1  0
  4  6  1  0
  2  7  1  0
  5  8  2  0
  5  9  1  0
  3 10  1  0
  3 11  2  0
  6 12  1  0
  7 13  2  0
  7 14  1  0
  8 15  1  0
  9 16  2  0
 15 16  1  0
 16 17  1  0
 12 18  1  0
 14 19  2  0
 13 20  1  0
 10 21  1  0
 12 22  1  0
 17 23  1  0
 17 24  1  0
 17 25  1  0
 18 26  1  0
 18 27  2  0
 19 28  1  0
 20 28  2  0
 21 29  2  0
 21 30  1  0
 22 31  2  0
 22 32  1  0
 29 33  1  0
 29 34  1  0
 30 35  2  0
 31 36  1  0
 32 37  2  0
 36 38  1  0
 34 39  2  0
 35 39  1  0
 36 40  2  0
 37 40  1  0
 39 41  1  0
 38 42  2  0
 38 43  1  0
 41 44  1  0
 43 45  1  0
 43 46  1  0
 45 47  1  0
 46 48  1  0
 47 49  1  0
 48 49  1  0
M  END
