x0786-x2912
     RDKit          3D

 40 43  0  0  0  0  0  0  0  0999 V2000
    6.8410   -0.4240   21.3540 N   0  0  0  0  0  0  0  0  0  0  0  0
    8.1380    0.0500   21.8630 C   0  0  0  0  0  0  0  0  0  0  0  0
    8.7730    1.0190   21.4490 O   0  0  0  0  0  0  0  0  0  0  0  0
    5.8680   -1.1020   22.1330 C   0  0  0  0  0  0  0  0  0  0  0  0
    6.2760    0.2260   20.2340 C   0  0  0  0  0  0  0  0  0  0  0  0
    8.6260   -0.7280   22.9190 C   0  0  2  0  0  0  0  0  0  0  0  0
    5.2830   -2.2470   21.6060 C   0  0  0  0  0  0  0  0  0  0  0  0
    5.3290    1.2580   20.3680 C   0  0  0  0  0  0  0  0  0  0  0  0
    6.7140   -0.2150   18.9760 C   0  0  0  0  0  0  0  0  0  0  0  0
    8.0170   -0.5030   24.3090 C   0  0  0  0  0  0  0  0  0  0  0  0
    4.8740    1.7390   21.6340 C   0  0  0  0  0  0  0  0  0  0  0  0
    5.7980   -3.4630   21.8560 N   0  0  0  0  0  0  0  0  0  0  0  0
    6.2810    0.2890   17.7860 N   0  0  0  0  0  0  0  0  0  0  0  0
    4.8480    1.8050   19.1930 C   0  0  0  0  0  0  0  0  0  0  0  0
   10.0670   -0.5050   22.9850 C   0  0  0  0  0  0  0  0  0  0  0  0
    6.1330   -4.1750   20.7470 C   0  0  0  0  0  0  0  0  0  0  0  0
    5.3710    1.2680   17.8890 C   0  0  0  0  0  0  0  0  0  0  0  0
   10.6410    0.5190   23.7790 C   0  0  0  0  0  0  0  0  0  0  0  0
   10.8840   -1.3120   22.2410 C   0  0  0  0  0  0  0  0  0  0  0  0
    5.4160   -4.0200   23.1180 C   0  0  0  0  0  0  0  0  0  0  0  0
    7.5970   -4.4810   20.6770 C   0  0  0  0  0  0  0  0  0  0  0  0
    5.3000   -4.5110   19.9050 O   0  0  0  0  0  0  0  0  0  0  0  0
   12.0130    0.7030   23.7940 C   0  0  0  0  0  0  0  0  0  0  0  0
   12.4030   -1.1610   22.2170 C   0  0  0  0  0  0  0  0  0  0  0  0
    4.6210   -5.1680   23.0640 C   0  0  0  0  0  0  0  0  0  0  0  0
    5.7920   -3.4560   24.3310 C   0  0  0  0  0  0  0  0  0  0  0  0
   13.1080   -2.0410   21.4150 C   0  0  0  0  0  0  0  0  0  0  0  0
   12.9440   -0.1600   22.9870 C   0  0  0  0  0  0  0  0  0  0  0  0
    4.2020   -5.7320   24.2780 C   0  0  0  0  0  0  0  0  0  0  0  0
    5.3680   -4.0360   25.5150 C   0  0  0  0  0  0  0  0  0  0  0  0
   13.7110   -3.0490   20.5510 N   0  0  0  0  0  0  0  0  0  0  0  0
    3.3300   -6.9630   24.3530 C   0  0  0  0  0  0  0  0  0  0  0  0
    4.5660   -5.1790   25.5040 C   0  0  0  0  0  0  0  0  0  0  0  0
    3.9060   -8.1240   24.9110 O   0  0  0  0  0  0  0  0  0  0  0  0
    1.9340   -6.8870   23.8560 N   0  0  0  0  0  0  0  0  0  0  0  0
    1.4620   -5.6220   23.3010 C   0  0  0  0  0  0  0  0  0  0  0  0
    0.9270   -7.9480   23.9560 C   0  0  0  0  0  0  0  0  0  0  0  0
    0.2840   -5.0870   24.1710 C   0  0  0  0  0  0  0  0  0  0  0  0
    0.0290   -7.6210   24.9960 C   0  0  0  0  0  0  0  0  0  0  0  0
   -1.0340   -6.2810   24.5570 S   0  0  0  0  0  0  0  0  0  0  0  0
  1  2  1  0
  2  3  2  0
  1  4  1  0
  1  5  1  0
  2  6  1  0
  4  7  1  0
  5  8  2  0
  5  9  1  0
  6 10  1  1
  8 11  1  0
  7 12  1  0
  9 13  2  0
  8 14  1  0
  6 15  1  0
 12 16  1  0
 13 17  1  0
 14 17  2  0
 15 18  2  0
 15 19  1  0
 12 20  1  0
 16 21  1  0
 16 22  2  0
 18 23  1  0
 19 24  2  0
 20 25  2  0
 20 26  1  0
 24 27  1  0
 23 28  2  0
 24 28  1  0
 25 29  1  0
 26 30  2  0
 27 31  3  0
 29 32  1  0
 29 33  2  0
 30 33  1  0
 32 34  2  0
 32 35  1  0
 35 36  1  0
 35 37  1  0
 36 38  1  0
 37 39  1  0
 38 40  1  0
 39 40  1  0
M  END
