x0786-x0678
     RDKit          3D

 36 39  0  0  0  0  0  0  0  0999 V2000
    5.8820   -3.3810   21.8610 N   0  0  0  0  0  0  0  0  0  0  0  0
    6.2240   -4.1050   20.7310 C   0  0  0  0  0  0  0  0  0  0  0  0
    7.6610   -4.4620   20.5200 C   0  0  0  0  0  0  0  0  0  0  0  0
    6.0280   -1.8950   21.8080 C   0  0  0  0  0  0  0  0  0  0  0  0
    5.4190   -3.9600   23.0610 C   0  0  0  0  0  0  0  0  0  0  0  0
    5.3560   -4.4350   19.9120 O   0  0  0  0  0  0  0  0  0  0  0  0
    7.5040   -1.4810   21.5690 C   0  0  0  0  0  0  0  0  0  0  0  0
    4.6390   -5.1250   23.0670 C   0  0  0  0  0  0  0  0  0  0  0  0
    5.7720   -3.3070   24.2450 C   0  0  0  0  0  0  0  0  0  0  0  0
    7.5290   -0.3080   21.4450 N   0  0  0  0  0  0  0  0  0  0  0  0
    4.1590   -5.6920   24.2740 C   0  0  0  0  0  0  0  0  0  0  0  0
    5.3450   -3.8020   25.4660 C   0  0  0  0  0  0  0  0  0  0  0  0
    3.3490   -6.8900   24.2200 C   0  0  0  0  0  0  0  0  0  0  0  0
    8.6520    0.3840   21.9160 C   0  0  0  0  0  0  0  0  0  0  0  0
    4.4880   -5.0650   25.4700 C   0  0  0  0  0  0  0  0  0  0  0  0
    6.7580    0.2000   20.3780 C   0  0  0  0  0  0  0  0  0  0  0  0
    3.9070   -7.9160   24.6080 O   0  0  0  0  0  0  0  0  0  0  0  0
    9.1460    1.3540   21.3120 O   0  0  0  0  0  0  0  0  0  0  0  0
    9.1930   -0.0470   23.1360 C   0  0  0  0  0  0  0  0  0  0  0  0
    2.2250   -6.8760   23.8480 N   0  0  0  0  0  0  0  0  0  0  0  0
    5.6130    1.1270   20.5420 C   0  0  0  0  0  0  0  0  0  0  0  0
    7.1000   -0.1940   19.0950 C   0  0  0  0  0  0  0  0  0  0  0  0
    1.5890   -5.5860   23.4770 C   0  0  0  0  0  0  0  0  0  0  0  0
    1.3410   -7.8940   24.0060 C   0  0  0  0  0  0  0  0  0  0  0  0
   10.7410   -0.2390   23.0750 C   0  0  0  0  0  0  0  0  0  0  0  0
    4.9140    1.5850   19.4260 C   0  0  0  0  0  0  0  0  0  0  0  0
    6.4100    0.2550   17.9040 N   0  0  0  0  0  0  0  0  0  0  0  0
    0.6170   -5.1110   24.3580 C   0  0  0  0  0  0  0  0  0  0  0  0
    0.1770   -7.4690   24.6910 C   0  0  0  0  0  0  0  0  0  0  0  0
   11.2040   -1.5320   22.3750 C   0  0  0  0  0  0  0  0  0  0  0  0
   11.4220    0.0280   24.2790 C   0  0  0  0  0  0  0  0  0  0  0  0
    5.3190    1.1520   18.1790 C   0  0  0  0  0  0  0  0  0  0  0  0
   -0.7540   -6.1190   24.2530 S   0  0  0  0  0  0  0  0  0  0  0  0
   12.7170   -1.7410   22.4160 C   0  0  0  0  0  0  0  0  0  0  0  0
   12.3530   -0.9630   24.5820 C   0  0  0  0  0  0  0  0  0  0  0  0
   13.2460   -1.1030   23.5290 C   0  0  0  0  0  0  0  0  0  0  0  0
  1  2  1  0
  2  3  1  0
  1  4  1  0
  1  5  1  0
  2  6  2  0
  4  7  1  0
  5  8  2  0
  5  9  1  0
  7 10  1  0
  8 11  1  0
  9 12  2  0
 11 13  1  0
 10 14  1  0
 11 15  2  0
 12 15  1  0
 10 16  1  0
 13 17  2  0
 14 18  2  0
 14 19  1  0
 13 20  1  0
 16 21  2  0
 16 22  1  0
 20 23  1  0
 20 24  1  0
 19 25  1  0
 21 26  1  0
 22 27  2  0
 23 28  1  0
 24 29  1  0
 25 30  1  0
 25 31  1  0
 26 32  2  0
 27 32  1  0
 28 33  1  0
 29 33  1  0
 30 34  1  0
 31 35  1  0
 34 36  1  0
 35 36  1  0
M  END
