x0786-x3303
     RDKit          3D

 44 50  0  0  0  0  0  0  0  0999 V2000
    6.2750   -3.5410   22.1120 C   0  0  1  0  0  0  0  0  0  0  0  0
    6.1920   -4.3320   20.7620 C   0  0  0  0  0  0  0  0  0  0  0  0
    7.4790   -4.9080   20.3720 C   0  0  0  0  0  0  0  0  0  0  0  0
    5.0380   -2.7000   22.1420 C   0  0  0  0  0  0  0  0  0  0  0  0
    5.7790   -4.2480   23.3250 C   0  0  0  0  0  0  0  0  0  0  0  0
    7.6020   -2.5500   22.1630 C   0  0  2  0  0  0  0  0  0  0  0  0
    5.2290   -4.4900   19.9830 O   0  0  0  0  0  0  0  0  0  0  0  0
    5.0090   -1.7280   21.2380 N   0  0  0  0  0  0  0  0  0  0  0  0
    4.8630   -5.3000   23.1410 C   0  0  0  0  0  0  0  0  0  0  0  0
    6.1770   -3.8150   24.5760 C   0  0  0  0  0  0  0  0  0  0  0  0
    8.3970   -2.2130   23.5070 C   0  0  0  0  0  0  0  0  0  0  0  0
    7.3310   -1.3930   21.4610 N   0  0  0  0  0  0  0  0  0  0  0  0
    6.1350   -1.1170   20.9510 C   0  0  0  0  0  0  0  0  0  0  0  0
    4.3330   -5.9000   24.2750 C   0  0  0  0  0  0  0  0  0  0  0  0
    5.6010   -4.4820   25.8040 C   0  0  0  0  0  0  0  0  0  0  0  0
    8.4960   -0.4700   21.2740 C   0  0  0  0  0  0  0  0  0  0  0  0
    9.4950   -1.2010   23.4610 N   0  0  0  0  0  0  0  0  0  0  0  0
    3.2970   -7.0400   24.2640 C   0  0  0  0  0  0  0  0  0  0  0  0
    4.6880   -5.5090   25.5790 C   0  0  0  0  0  0  0  0  0  0  0  0
    9.1630   -0.1330   22.5760 C   0  0  0  0  0  0  0  0  0  0  0  0
    5.7620    0.0010   19.9840 C   0  0  0  0  0  0  0  0  0  0  0  0
   10.8240   -1.6370   23.5100 C   0  0  0  0  0  0  0  0  0  0  0  0
    3.6960   -8.1030   24.7130 O   0  0  0  0  0  0  0  0  0  0  0  0
    2.1940   -6.8760   23.8670 N   0  0  0  0  0  0  0  0  0  0  0  0
    4.7960    0.8890   20.4910 C   0  0  0  0  0  0  0  0  0  0  0  0
    6.2800    0.1700   18.7030 C   0  0  0  0  0  0  0  0  0  0  0  0
   11.6080   -1.7180   22.3360 C   0  0  0  0  0  0  0  0  0  0  0  0
   11.4340   -2.0030   24.7000 C   0  0  0  0  0  0  0  0  0  0  0  0
    1.7030   -5.5500   23.5670 C   0  0  0  0  0  0  0  0  0  0  0  0
    1.1540   -7.9110   23.8720 C   0  0  0  0  0  0  0  0  0  0  0  0
    4.3600    1.9220   19.6970 C   0  0  0  0  0  0  0  0  0  0  0  0
    5.8010    1.2440   17.9500 C   0  0  0  0  0  0  0  0  0  0  0  0
   12.9400   -2.1610   22.3800 C   0  0  0  0  0  0  0  0  0  0  0  0
   12.7340   -2.4380   24.7200 C   0  0  0  0  0  0  0  0  0  0  0  0
    4.2440    0.7110   21.8900 C   0  0  0  0  0  0  0  0  0  0  0  0
    6.2910    1.4690   16.6810 O   0  0  0  0  0  0  0  0  0  0  0  0
    0.5930   -5.1200   24.2960 C   0  0  0  0  0  0  0  0  0  0  0  0
    0.1750   -7.5850   24.8360 C   0  0  0  0  0  0  0  0  0  0  0  0
    4.8690    2.1180   18.3810 N   0  0  0  0  0  0  0  0  0  0  0  0
   13.5130   -2.5360   23.5950 C   0  0  0  0  0  0  0  0  0  0  0  0
    3.2920    1.6470   22.2950 C   0  0  0  0  0  0  0  0  0  0  0  0
    3.4180    2.7970   20.1640 C   0  0  0  0  0  0  0  0  0  0  0  0
   -0.7740   -6.2520   24.3340 S   0  0  0  0  0  0  0  0  0  0  0  0
    2.8820    2.6740   21.4440 C   0  0  0  0  0  0  0  0  0  0  0  0
  1  2  1  6
  2  3  1  0
  1  4  1  0
  1  5  1  0
  1  6  1  0
  2  7  2  0
  4  8  1  0
  5  9  2  0
  5 10  1  0
  6 11  1  1
  6 12  1  0
  8 13  2  0
 12 13  1  0
  9 14  1  0
 10 15  2  0
 12 16  1  0
 11 17  1  0
 14 18  1  0
 14 19  2  0
 15 19  1  0
 16 20  1  0
 17 20  1  0
 13 21  1  0
 17 22  1  0
 18 23  2  0
 18 24  1  0
 21 25  1  0
 21 26  2  0
 22 27  2  0
 22 28  1  0
 24 29  1  0
 24 30  1  0
 25 31  2  0
 26 32  1  0
 27 33  1  0
 28 34  2  0
 25 35  1  0
 32 36  1  0
 29 37  1  0
 30 38  1  0
 31 39  1  0
 32 39  2  0
 33 40  2  0
 34 40  1  0
 35 41  2  0
 31 42  1  0
 37 43  1  0
 38 43  1  0
 41 44  1  0
 42 44  2  0
M  END
