x0786-x3115-x3110
     RDKit          3D

 50 53  0  0  0  0  0  0  0  0999 V2000
    8.0110    1.5480   23.3360 N   0  0  0  0  0  0  0  0  0  0  0  0
    8.8260    2.6550   23.6260 C   0  0  1  0  0  0  0  0  0  0  0  0
   10.3060    2.3740   23.5480 C   0  0  0  0  0  0  0  0  0  0  0  0
    7.8850    1.0330   21.9570 C   0  0  0  0  0  0  0  0  0  0  0  0
    8.6570    1.4260   21.0670 O   0  0  0  0  0  0  0  0  0  0  0  0
    6.8050    0.0960   21.6990 C   0  0  2  0  0  0  0  0  0  0  0  0
    8.4680    3.8240   22.6460 C   0  0  0  0  0  0  0  0  0  0  0  0
    7.2020   -1.3190   21.8110 N   0  0  0  0  0  0  0  0  0  0  0  0
   11.2090    3.4420   23.4080 C   0  0  0  0  0  0  0  0  0  0  0  0
    8.5980    5.0830   23.1710 O   0  0  0  0  0  0  0  0  0  0  0  0
    6.2730    0.5350   20.3610 C   0  0  0  0  0  0  0  0  0  0  0  0
   11.9890    3.2870   22.4810 O   0  0  0  0  0  0  0  0  0  0  0  0
   11.2100    4.4320   24.1380 O   0  0  0  0  0  0  0  0  0  0  0  0
    8.2330    6.1400   22.2840 C   0  0  0  0  0  0  0  0  0  0  0  0
    5.9860   -2.1470   22.0050 C   0  0  0  0  0  0  0  0  0  0  0  0
    5.2010    1.3800   20.1180 C   0  0  0  0  0  0  0  0  0  0  0  0
    6.8260    0.1410   19.0200 C   0  0  0  0  0  0  0  0  0  0  0  0
    8.4370   -1.4720   22.5310 C   0  0  0  0  0  0  0  0  0  0  0  0
   12.4110    4.5210   21.8910 C   0  0  0  0  0  0  0  0  0  0  0  0
    6.1790   -3.4830   21.9680 N   0  0  0  0  0  0  0  0  0  0  0  0
    6.3520    0.5640   17.7330 N   0  0  0  0  0  0  0  0  0  0  0  0
    4.6870    1.8250   18.9210 C   0  0  0  0  0  0  0  0  0  0  0  0
    9.5330   -1.9070   21.8110 C   0  0  0  0  0  0  0  0  0  0  0  0
    8.6360   -1.1820   23.8990 C   0  0  0  0  0  0  0  0  0  0  0  0
   13.4390    5.2010   22.8210 C   0  0  0  0  0  0  0  0  0  0  0  0
    6.2500   -4.1250   20.7500 C   0  0  0  0  0  0  0  0  0  0  0  0
    5.2080    1.4720   17.6870 C   0  0  0  0  0  0  0  0  0  0  0  0
   10.8010   -2.0250   22.3640 C   0  0  0  0  0  0  0  0  0  0  0  0
    9.9370   -1.3070   24.4530 C   0  0  0  0  0  0  0  0  0  0  0  0
    5.6100   -4.1240   23.1280 C   0  0  0  0  0  0  0  0  0  0  0  0
    7.6110   -4.6240   20.5300 C   0  0  0  0  0  0  0  0  0  0  0  0
    5.3480   -4.3000   19.9060 O   0  0  0  0  0  0  0  0  0  0  0  0
   11.0380   -1.7150   23.6890 C   0  0  0  0  0  0  0  0  0  0  0  0
    4.7090   -5.3620   22.9690 C   0  0  0  0  0  0  0  0  0  0  0  0
    5.9000   -3.5650   24.3860 C   0  0  0  0  0  0  0  0  0  0  0  0
   12.4460   -1.7960   24.2380 C   0  0  0  0  0  0  0  0  0  0  0  0
    4.2190   -5.8360   24.1930 C   0  0  0  0  0  0  0  0  0  0  0  0
    5.3530   -4.1410   25.5020 C   0  0  0  0  0  0  0  0  0  0  0  0
   12.6260   -0.6190   24.9230 C   0  0  0  0  0  0  0  0  0  0  0  0
   13.3210   -1.9770   23.0440 C   0  0  0  0  0  0  0  0  0  0  0  0
   12.7040   -3.0230   24.9880 C   0  0  0  0  0  0  0  0  0  0  0  0
    3.2880   -7.0360   24.3170 C   0  0  0  0  0  0  0  0  0  0  0  0
    4.5370   -5.2390   25.4080 C   0  0  0  0  0  0  0  0  0  0  0  0
    3.7480   -8.0570   24.8200 O   0  0  0  0  0  0  0  0  0  0  0  0
    2.0020   -6.9290   23.8740 N   0  0  0  0  0  0  0  0  0  0  0  0
    1.5170   -5.6090   23.4620 C   0  0  0  0  0  0  0  0  0  0  0  0
    0.9950   -7.9940   23.9860 C   0  0  0  0  0  0  0  0  0  0  0  0
    0.5730   -5.0700   24.3230 C   0  0  0  0  0  0  0  0  0  0  0  0
   -0.0550   -7.6580   24.8710 C   0  0  0  0  0  0  0  0  0  0  0  0
   -0.9020   -6.1350   24.3260 S   0  0  0  0  0  0  0  0  0  0  0  0
  1  2  1  0
  2  3  1  6
  1  4  1  0
  4  5  2  0
  6  4  1  6
  2  7  1  0
  6  8  1  0
  3  9  1  0
  7 10  1  0
  6 11  1  0
  9 12  1  0
  9 13  2  0
 10 14  1  0
  8 15  1  0
 11 16  2  0
 11 17  1  0
  8 18  1  0
 12 19  1  0
 15 20  1  0
 17 21  2  0
 16 22  1  0
 18 23  2  0
 18 24  1  0
 19 25  1  0
 20 26  1  0
 21 27  1  0
 22 27  2  0
 23 28  1  0
 24 29  2  0
 20 30  1  0
 26 31  1  0
 26 32  2  0
 28 33  2  0
 29 33  1  0
 30 34  2  0
 30 35  1  0
 33 36  1  0
 34 37  1  0
 35 38  2  0
 36 39  1  0
 36 40  1  0
 36 41  1  0
 37 42  1  0
 37 43  2  0
 38 43  1  0
 42 44  2  0
 42 45  1  0
 45 46  1  0
 45 47  1  0
 46 48  1  0
 47 49  1  0
 48 50  1  0
 49 50  1  0
M  END
