x0786-x2608
     RDKit          3D

 36 39  0  0  0  0  0  0  0  0999 V2000
    5.9750   -3.7650   21.9160 N   0  0  0  0  0  0  0  0  0  0  0  0
    6.0270   -4.4050   20.6810 C   0  0  0  0  0  0  0  0  0  0  0  0
    7.2680   -5.0960   20.3040 C   0  0  0  0  0  0  0  0  0  0  0  0
    6.9040   -2.6570   22.0910 C   0  0  0  0  0  0  0  0  0  0  0  0
    5.3850   -4.2240   23.0980 C   0  0  0  0  0  0  0  0  0  0  0  0
    5.1190   -4.3740   19.8560 O   0  0  0  0  0  0  0  0  0  0  0  0
    6.1610   -1.3650   21.8260 C   0  0  0  0  0  0  0  0  0  0  0  0
    4.6420   -5.3920   23.1070 C   0  0  0  0  0  0  0  0  0  0  0  0
    5.5830   -3.4420   24.2520 C   0  0  0  0  0  0  0  0  0  0  0  0
    6.8920   -0.4480   20.9720 N   0  0  0  0  0  0  0  0  0  0  0  0
    4.0500   -5.8150   24.3130 C   0  0  0  0  0  0  0  0  0  0  0  0
    5.0350   -3.8120   25.4560 C   0  0  0  0  0  0  0  0  0  0  0  0
    3.2830   -7.0100   24.2590 C   0  0  0  0  0  0  0  0  0  0  0  0
    8.0410    0.0020   21.4500 C   0  0  0  0  0  0  0  0  0  0  0  0
    4.2140   -5.0820   25.4820 C   0  0  0  0  0  0  0  0  0  0  0  0
    6.2950    0.1520   19.9590 C   0  0  0  0  0  0  0  0  0  0  0  0
    3.7980   -8.0250   24.7120 O   0  0  0  0  0  0  0  0  0  0  0  0
    8.7550   -0.8680   22.4410 N   0  0  0  0  0  0  0  0  0  0  0  0
    8.5730    1.2750   21.0020 O   0  0  0  0  0  0  0  0  0  0  0  0
    1.9950   -6.9610   23.7100 N   0  0  0  0  0  0  0  0  0  0  0  0
    6.7180    0.0480   18.6400 C   0  0  0  0  0  0  0  0  0  0  0  0
    5.1920    0.9250   20.3240 C   0  0  0  0  0  0  0  0  0  0  0  0
    1.4750   -5.7480   23.3930 C   0  0  0  0  0  0  0  0  0  0  0  0
    0.9690   -8.0200   24.0330 C   0  0  0  0  0  0  0  0  0  0  0  0
   10.0770   -0.5710   22.6870 C   0  0  0  0  0  0  0  0  0  0  0  0
    6.0870    0.7080   17.6390 N   0  0  0  0  0  0  0  0  0  0  0  0
    4.5160    1.6200   19.3420 C   0  0  0  0  0  0  0  0  0  0  0  0
    0.6020   -5.1870   24.3280 C   0  0  0  0  0  0  0  0  0  0  0  0
   -0.1170   -7.4710   24.7450 C   0  0  0  0  0  0  0  0  0  0  0  0
   11.1080   -1.4380   22.9830 C   0  0  0  0  0  0  0  0  0  0  0  0
   10.5350    1.1250   22.5940 S   0  0  0  0  0  0  0  0  0  0  0  0
    4.9400    1.5400   18.0170 C   0  0  0  0  0  0  0  0  0  0  0  0
   -0.8780   -6.0320   24.2670 S   0  0  0  0  0  0  0  0  0  0  0  0
   12.1520    0.7890   22.8900 C   0  0  0  0  0  0  0  0  0  0  0  0
   12.4250   -0.6820   23.1260 C   0  0  0  0  0  0  0  0  0  0  0  0
   13.0570    1.8280   22.8910 C   0  0  0  0  0  0  0  0  0  0  0  0
  1  2  1  0
  2  3  1  0
  1  4  1  0
  1  5  1  0
  2  6  2  0
  4  7  1  0
  5  8  2  0
  5  9  1  0
  7 10  1  0
  8 11  1  0
  9 12  2  0
 11 13  1  0
 10 14  1  0
 11 15  2  0
 12 15  1  0
 10 16  1  0
 13 17  2  0
 14 18  1  0
 14 19  2  0
 13 20  1  0
 16 21  2  0
 16 22  1  0
 20 23  1  0
 20 24  1  0
 18 25  1  0
 21 26  1  0
 22 27  2  0
 23 28  1  0
 24 29  1  0
 25 30  2  0
 25 31  1  0
 26 32  2  0
 27 32  1  0
 28 33  1  0
 29 33  1  0
 31 34  1  0
 30 35  1  0
 34 35  2  0
 34 36  1  0
M  END
