x0786-x3113-x2929
     RDKit          3D

 73 79  0  0  0  0  0  0  0  0999 V2000
    7.0750   -1.2190   21.9330 N   0  0  0  0  0  0  0  0  0  0  0  0
    6.8610    0.2380   21.7290 C   0  0  1  0  0  0  0  0  0  0  0  0
    8.0750    1.1840   21.9000 C   0  0  0  0  0  0  0  0  0  0  0  0
    5.9430   -2.0680   22.0420 C   0  0  0  0  0  0  0  0  0  0  0  0
    8.4130   -1.4570   22.5800 C   0  0  0  0  0  0  0  0  0  0  0  0
    6.2520   -3.5040   21.9870 N   0  0  0  0  0  0  0  0  0  0  0  0
    6.2940    0.5820   20.3150 C   0  0  0  0  0  0  0  0  0  0  0  0
    9.5020   -1.9590   21.8860 C   0  0  0  0  0  0  0  0  0  0  0  0
    8.6470   -1.1560   23.8990 C   0  0  0  0  0  0  0  0  0  0  0  0
    8.2980    1.5980   23.2050 N   0  0  0  0  0  0  0  0  0  0  0  0
    8.7980    1.5970   20.9980 O   0  0  0  0  0  0  0  0  0  0  0  0
    6.5430   -4.1420   20.8150 C   0  0  0  0  0  0  0  0  0  0  0  0
    5.1970    1.4140   20.2320 C   0  0  0  0  0  0  0  0  0  0  0  0
    6.8340    0.0980   19.1380 C   0  0  0  0  0  0  0  0  0  0  0  0
   10.7420   -2.1180   22.4620 C   0  0  0  0  0  0  0  0  0  0  0  0
   10.0070   -1.3380   24.5050 C   0  0  0  0  0  0  0  0  0  0  0  0
    5.6700   -4.1220   23.0490 C   0  0  0  0  0  0  0  0  0  0  0  0
    9.2650    2.6500   23.4900 C   0  0  0  0  0  0  0  0  0  0  0  0
    8.0190   -4.4920   20.7340 C   0  0  0  0  0  0  0  0  0  0  0  0
    5.6780   -4.3940   19.9390 O   0  0  0  0  0  0  0  0  0  0  0  0
    6.3840    0.3750   17.9050 N   0  0  0  0  0  0  0  0  0  0  0  0
    4.7210    1.7080   18.9530 C   0  0  0  0  0  0  0  0  0  0  0  0
   11.0730   -1.8260   23.7310 C   0  0  0  0  0  0  0  0  0  0  0  0
    4.8540   -5.2390   22.9400 C   0  0  0  0  0  0  0  0  0  0  0  0
    5.9690   -3.4980   24.2650 C   0  0  0  0  0  0  0  0  0  0  0  0
   10.7120    2.1530   23.3820 C   0  0  0  0  0  0  0  0  0  0  0  0
   12.4870   -1.9870   24.2470 C   0  0  0  0  0  0  0  0  0  0  0  0
    5.3190    1.1900   17.8070 C   0  0  0  0  0  0  0  0  0  0  0  0
    4.2710   -5.7980   24.0560 C   0  0  0  0  0  0  0  0  0  0  0  0
    5.4110   -3.9900   25.6030 C   0  0  0  0  0  0  0  0  0  0  0  0
   11.8010    3.2100   23.1460 C   0  0  0  0  0  0  0  0  0  0  0  0
   13.4810   -2.0300   23.1090 C   0  0  0  0  0  0  0  0  0  0  0  0
   12.7700   -3.0520   25.0350 C   0  0  0  0  0  0  0  0  0  0  0  0
   12.7390   -0.6980   25.0150 C   0  0  0  0  0  0  0  0  0  0  0  0
    3.3420   -6.9850   24.2040 C   0  0  0  0  0  0  0  0  0  0  0  0
    4.5150   -5.2000   25.4830 C   0  0  0  0  0  0  0  0  0  0  0  0
   11.8950    3.7520   22.0450 O   0  0  0  0  0  0  0  0  0  0  0  0
    3.7860   -8.0030   24.7320 O   0  0  0  0  0  0  0  0  0  0  0  0
    2.0220   -6.8590   23.7420 N   0  0  0  0  0  0  0  0  0  0  0  0
   12.9930    4.6760   21.8550 C   0  0  0  0  0  0  0  0  0  0  0  0
    1.4700   -5.6910   23.3550 C   0  0  0  0  0  0  0  0  0  0  0  0
    1.0500   -7.9490   24.0570 C   0  0  0  0  0  0  0  0  0  0  0  0
   14.2410    4.2050   22.5840 C   0  0  0  0  0  0  0  0  0  0  0  0
    0.2520   -5.0990   24.1430 C   0  0  0  0  0  0  0  0  0  0  0  0
    0.1580   -7.5800   25.0770 C   0  0  0  0  0  0  0  0  0  0  0  0
   15.4060    4.9240   22.3200 C   0  0  0  0  0  0  0  0  0  0  0  0
   -0.9500   -6.4130   24.5020 S   0  0  0  0  0  0  0  0  0  0  0  0
   16.7450    4.4340   22.6290 C   0  0  0  0  0  0  0  0  0  0  0  0
   17.6000    5.0620   23.5800 C   0  0  0  0  0  0  0  0  0  0  0  0
   18.7640    5.9020   23.2910 C   0  0  0  0  0  0  0  0  0  0  0  0
   19.7610    5.7680   24.2590 C   0  0  0  0  0  0  0  0  0  0  0  0
   21.0590    5.9870   23.7580 C   0  0  0  0  0  0  0  0  0  0  0  0
   21.7330    5.1680   24.6150 N   0  0  0  0  0  0  0  0  0  0  0  0
   23.0580    4.5120   24.5220 C   0  0  0  0  0  0  0  0  0  0  0  0
   23.7400    4.8000   23.4010 N   0  0  0  0  0  0  0  0  0  0  0  0
   23.6660    3.5410   25.5430 C   0  0  1  0  0  0  0  0  0  0  0  0
   23.4950    2.2230   25.1280 C   0  0  0  0  0  0  0  0  0  0  0  0
   25.1310    3.5730   25.9920 C   0  0  2  0  0  0  0  0  0  0  0  0
   24.1950    1.3880   26.0940 N   0  0  0  0  0  0  0  0  0  0  0  0
   25.3610    2.1280   26.4870 C   0  0  0  0  0  0  0  0  0  0  0  0
   25.5540    4.6120   27.0230 C   0  0  0  0  0  0  0  0  0  0  0  0
   24.4790    0.0440   25.5620 C   0  0  0  0  0  0  0  0  0  0  0  0
   25.3280    4.5200   28.4140 C   0  0  0  0  0  0  0  0  0  0  0  0
   26.2220    5.7440   26.5510 C   0  0  0  0  0  0  0  0  0  0  0  0
   23.2240   -0.5920   25.0320 C   0  0  0  0  0  0  0  0  0  0  0  0
   25.7650    5.5290   29.2840 C   0  0  0  0  0  0  0  0  0  0  0  0
   26.6590    6.7500   27.4140 C   0  0  0  0  0  0  0  0  0  0  0  0
   22.0860   -1.0150   25.9340 C   0  0  0  0  0  0  0  0  0  0  0  0
   22.9830   -0.8590   23.5420 C   0  0  0  0  0  0  0  0  0  0  0  0
   26.4300    6.6420   28.7820 C   0  0  0  0  0  0  0  0  0  0  0  0
   20.9480   -1.5710   25.5040 N   0  0  0  0  0  0  0  0  0  0  0  0
   21.7800   -1.4420   23.1480 C   0  0  0  0  0  0  0  0  0  0  0  0
   20.8330   -1.7600   24.1610 C   0  0  0  0  0  0  0  0  0  0  0  0
  1  2  1  0
  2  3  1  6
  1  4  1  0
  1  5  1  0
  4  6  1  0
  2  7  1  0
  5  8  2  0
  5  9  1  0
  3 10  1  0
  3 11  2  0
  6 12  1  0
  7 13  2  0
  7 14  1  0
  8 15  1  0
  9 16  2  0
  6 17  1  0
 10 18  1  0
 12 19  1  0
 12 20  2  0
 14 21  2  0
 13 22  1  0
 15 23  2  0
 16 23  1  0
 17 24  2  0
 17 25  1  0
 18 26  1  0
 23 27  1  0
 21 28  1  0
 22 28  2  0
 24 29  1  0
 25 30  2  0
 26 31  1  0
 27 32  1  0
 27 33  1  0
 27 34  1  0
 29 35  1  0
 29 36  2  0
 30 36  1  0
 31 37  1  0
 35 38  2  0
 35 39  1  0
 37 40  1  0
 39 41  1  0
 39 42  1  0
 40 43  1  0
 41 44  1  0
 42 45  1  0
 43 46  1  0
 44 47  1  0
 45 47  1  0
 46 48  1  0
 48 49  1  0
 49 50  1  0
 50 51  1  0
 51 52  1  0
 52 53  1  0
 53 54  2  3
 54 55  1  0
 56 54  1  6
 56 57  1  0
 56 58  1  0
 57 59  1  0
 58 60  1  0
 59 60  1  0
 58 61  1  1
 59 62  1  0
 61 63  2  0
 61 64  1  0
 62 65  1  0
 63 66  1  0
 64 67  2  0
 65 68  2  0
 65 69  1  0
 66 70  2  0
 67 70  1  0
 68 71  1  0
 69 72  2  0
 71 73  2  0
 72 73  1  0
M  END
