x0820-x2562
     RDKit          3D

 39 43  0  0  0  0  0  0  0  0999 V2000
    5.8790   -4.1060   21.7130 N   0  0  0  0  0  0  0  0  0  0  0  0
    6.8570   -4.0160   22.6730 C   0  0  1  0  0  0  0  0  0  0  0  0
    7.6250   -2.6730   22.5460 C   0  0  0  0  0  0  0  0  0  0  0  0
    6.0080   -4.5110   20.4130 C   0  0  0  0  0  0  0  0  0  0  0  0
    5.5920   -5.5830   20.0230 O   0  0  0  0  0  0  0  0  0  0  0  0
    6.6620   -3.5190   19.4650 C   0  0  0  0  0  0  0  0  0  0  0  0
    6.0550   -4.1560   23.9730 C   0  0  0  0  0  0  0  0  0  0  0  0
    6.8190   -1.5310   21.9090 C   0  0  0  0  0  0  0  0  0  0  0  0
    6.6610   -4.4460   25.2030 C   0  0  0  0  0  0  0  0  0  0  0  0
    4.5830   -3.9640   23.8330 C   0  0  0  0  0  0  0  0  0  0  0  0
    7.4770   -0.8420   20.8810 C   0  0  2  0  0  0  0  0  0  0  0  0
    5.8500   -4.5730   26.4850 C   0  0  0  0  0  0  0  0  0  0  0  0
    3.7030   -4.0740   25.0280 C   0  0  0  0  0  0  0  0  0  0  0  0
    8.0450   -4.6580   25.4300 C   0  0  0  0  0  0  0  0  0  0  0  0
    8.4930    0.1240   21.4150 C   0  0  0  0  0  0  0  0  0  0  0  0
    4.3320   -4.3790   26.3780 C   0  0  0  0  0  0  0  0  0  0  0  0
    6.5010   -4.8720   27.7680 C   0  0  0  0  0  0  0  0  0  0  0  0
    8.6860   -4.9810   26.7700 C   0  0  0  0  0  0  0  0  0  0  0  0
    6.5940   -0.0560   19.9550 C   0  0  0  0  0  0  0  0  0  0  0  0
    8.5020    1.3340   21.0940 O   0  0  0  0  0  0  0  0  0  0  0  0
    9.3330   -0.5330   22.2270 N   0  0  0  0  0  0  0  0  0  0  0  0
    7.8650   -5.0690   27.9070 C   0  0  0  0  0  0  0  0  0  0  0  0
    6.8840   -0.1130   18.6070 C   0  0  0  0  0  0  0  0  0  0  0  0
    5.4010    0.8180   20.3570 C   0  0  0  0  0  0  0  0  0  0  0  0
    4.6340    1.5310   19.5140 N   0  0  0  0  0  0  0  0  0  0  0  0
    6.0680    0.6500   17.6690 N   0  0  0  0  0  0  0  0  0  0  0  0
   10.6070   -0.1360   22.4470 C   0  0  0  0  0  0  0  0  0  0  0  0
    4.9770    1.4440   18.2080 C   0  0  0  0  0  0  0  0  0  0  0  0
   11.6340   -1.0730   22.2910 C   0  0  0  0  0  0  0  0  0  0  0  0
   10.8360    1.1660   22.8010 C   0  0  0  0  0  0  0  0  0  0  0  0
   13.0800   -0.6880   22.4990 C   0  0  0  0  0  0  0  0  0  0  0  0
   12.0960    1.6040   23.0100 C   0  0  0  0  0  0  0  0  0  0  0  0
   12.0910    2.9260   23.3540 O   0  0  0  0  0  0  0  0  0  0  0  0
   13.2140    0.7620   22.8720 C   0  0  0  0  0  0  0  0  0  0  0  0
   12.8990    3.8180   22.6040 C   0  0  1  0  0  0  0  0  0  0  0  0
   12.2300    4.9210   22.1000 N   0  0  0  0  0  0  0  0  0  0  0  0
   13.6060    4.8730   23.3300 C   0  0  0  0  0  0  0  0  0  0  0  0
   13.4430    5.7420   22.3190 C   0  0  2  0  0  0  0  0  0  0  0  0
   13.1950    7.0750   22.7430 O   0  0  0  0  0  0  0  0  0  0  0  0
  1  2  1  0
  2  3  1  1
  1  4  1  0
  4  5  2  0
  4  6  1  0
  2  7  1  0
  3  8  1  0
  7  9  1  0
  7 10  2  0
 11  8  1  1
  9 12  2  0
 10 13  1  0
  9 14  1  0
 11 15  1  0
 12 16  1  0
 13 16  2  0
 12 17  1  0
 14 18  2  0
 11 19  1  0
 15 20  2  0
 15 21  1  0
 17 22  2  0
 18 22  1  0
 19 23  2  0
 19 24  1  0
 24 25  2  0
 23 26  1  0
 21 27  1  0
 25 28  1  0
 26 28  2  0
 27 29  2  0
 27 30  1  0
 29 31  1  0
 30 32  2  0
 32 33  1  0
 31 34  2  0
 32 34  1  0
 35 33  1  1
 35 36  1  0
 35 37  1  0
 36 38  1  0
 37 38  1  0
 38 39  1  1
M  END
