x0820-x3303
     RDKit          3D

 40 45  0  0  0  0  0  0  0  0999 V2000
    6.9650   -5.0190   21.7840 N   0  0  0  0  0  0  0  0  0  0  0  0
    6.7990   -3.8490   22.6400 C   0  0  1  0  0  0  0  0  0  0  0  0
    6.1980   -4.2650   24.0450 C   0  0  0  0  0  0  0  0  0  0  0  0
    6.3800   -4.8190   20.5330 C   0  0  0  0  0  0  0  0  0  0  0  0
    5.4850   -5.4970   20.0550 O   0  0  0  0  0  0  0  0  0  0  0  0
    6.9410   -3.6840   19.7020 C   0  0  0  0  0  0  0  0  0  0  0  0
    7.9090   -2.7190   22.4630 C   0  0  2  0  0  0  0  0  0  0  0  0
    6.8010   -4.3910   25.3310 C   0  0  0  0  0  0  0  0  0  0  0  0
    4.7050   -4.5860   24.0500 C   0  0  0  0  0  0  0  0  0  0  0  0
    8.5080   -2.1200   23.7190 C   0  0  0  0  0  0  0  0  0  0  0  0
    7.4550   -1.4720   21.7930 N   0  0  0  0  0  0  0  0  0  0  0  0
    6.2250   -1.3600   21.3200 C   0  0  0  0  0  0  0  0  0  0  0  0
    6.0810   -4.7520   26.5280 C   0  0  0  0  0  0  0  0  0  0  0  0
    4.0420   -4.9390   25.2140 C   0  0  0  0  0  0  0  0  0  0  0  0
    8.2910   -4.1530   25.5660 C   0  0  0  0  0  0  0  0  0  0  0  0
    8.4790   -0.4800   21.4280 C   0  0  0  0  0  0  0  0  0  0  0  0
    9.5130   -1.0920   23.4620 N   0  0  0  0  0  0  0  0  0  0  0  0
    5.1840   -2.1750   21.6330 O   0  0  0  0  0  0  0  0  0  0  0  0
    4.7230   -5.0100   26.4120 C   0  0  0  0  0  0  0  0  0  0  0  0
    6.6710   -4.8740   27.8810 C   0  0  0  0  0  0  0  0  0  0  0  0
    8.9300   -4.2500   26.7980 C   0  0  0  0  0  0  0  0  0  0  0  0
    9.1860    0.0030   22.5480 C   0  0  0  0  0  0  0  0  0  0  0  0
    5.8060   -0.3070   20.3680 C   0  0  0  0  0  0  0  0  0  0  0  0
   10.8450   -1.5300   23.4930 C   0  0  0  0  0  0  0  0  0  0  0  0
    8.1570   -4.6120   28.0350 C   0  0  0  0  0  0  0  0  0  0  0  0
    4.7550    0.5960   20.6290 C   0  0  0  0  0  0  0  0  0  0  0  0
    6.4200   -0.0800   19.0160 C   0  0  0  0  0  0  0  0  0  0  0  0
   11.7130   -1.4180   22.4010 C   0  0  0  0  0  0  0  0  0  0  0  0
   11.2960   -2.1120   24.6840 C   0  0  0  0  0  0  0  0  0  0  0  0
    4.2890    1.6240   19.7630 C   0  0  0  0  0  0  0  0  0  0  0  0
    5.9060    1.0010   18.1410 C   0  0  0  0  0  0  0  0  0  0  0  0
   13.0040   -1.8830   22.5220 C   0  0  0  0  0  0  0  0  0  0  0  0
   12.6000   -2.6080   24.8650 C   0  0  0  0  0  0  0  0  0  0  0  0
    4.0960    0.5170   21.7990 C   0  0  0  0  0  0  0  0  0  0  0  0
    6.4020    1.2370   16.9570 O   0  0  0  0  0  0  0  0  0  0  0  0
    4.8930    1.8460   18.4530 N   0  0  0  0  0  0  0  0  0  0  0  0
   13.4980   -2.5180   23.8100 C   0  0  0  0  0  0  0  0  0  0  0  0
    3.0380    1.3540   22.1670 C   0  0  0  0  0  0  0  0  0  0  0  0
    3.2480    2.4650   20.0990 C   0  0  0  0  0  0  0  0  0  0  0  0
    2.6070    2.3420   21.3050 C   0  0  0  0  0  0  0  0  0  0  0  0
  2  1  1  1
  2  3  1  0
  1  4  1  0
  4  5  2  0
  4  6  1  0
  2  7  1  0
  3  8  1  0
  3  9  2  0
  7 10  1  1
  7 11  1  0
 11 12  1  0
  8 13  2  0
  9 14  1  0
  8 15  1  0
 11 16  1  0
 10 17  1  0
 12 18  2  0
 13 19  1  0
 14 19  2  0
 13 20  1  0
 15 21  2  0
 16 22  1  0
 17 22  1  0
 12 23  1  0
 17 24  1  0
 20 25  2  0
 21 25  1  0
 23 26  1  0
 23 27  2  0
 24 28  2  0
 24 29  1  0
 26 30  2  0
 27 31  1  0
 28 32  1  0
 29 33  2  0
 26 34  1  0
 31 35  1  0
 30 36  1  0
 31 36  2  0
 32 37  2  0
 33 37  1  0
 34 38  2  0
 30 39  1  0
 38 40  1  0
 39 40  2  0
M  END
