x0820-x0161-x3115
     RDKit          3D

 50 54  0  0  0  0  0  0  0  0999 V2000
    7.2430   -1.7800   22.2550 N   0  0  0  0  0  0  0  0  0  0  0  0
    6.6650   -0.4010   21.9180 C   0  0  1  0  0  0  0  0  0  0  0  0
    7.7280    0.6780   22.1320 C   0  0  0  0  0  0  0  0  0  0  0  0
    6.6990   -3.2080   22.5230 C   0  0  2  0  0  0  0  0  0  0  0  0
    8.5140   -1.8280   22.7860 C   0  0  0  0  0  0  0  0  0  0  0  0
    5.6960   -3.5330   21.5080 N   0  0  0  0  0  0  0  0  0  0  0  0
    6.1540    0.0310   20.5150 C   0  0  0  0  0  0  0  0  0  0  0  0
    9.6230   -1.9830   21.9650 C   0  0  0  0  0  0  0  0  0  0  0  0
    8.7470   -1.7470   24.1370 C   0  0  0  0  0  0  0  0  0  0  0  0
    6.0840   -3.6100   23.8780 C   0  0  0  0  0  0  0  0  0  0  0  0
    7.5050    1.5740   22.8430 N   0  0  0  0  0  0  0  0  0  0  0  0
    8.9080    0.4790   21.3580 O   0  0  0  0  0  0  0  0  0  0  0  0
    5.9830   -4.1380   20.2980 C   0  0  0  0  0  0  0  0  0  0  0  0
    4.9340    0.7320   20.3700 C   0  0  0  0  0  0  0  0  0  0  0  0
    6.8620   -0.2080   19.3290 C   0  0  0  0  0  0  0  0  0  0  0  0
   10.9140   -2.0710   22.4040 C   0  0  0  0  0  0  0  0  0  0  0  0
   10.1280   -1.8400   24.7150 C   0  0  0  0  0  0  0  0  0  0  0  0
    6.7440   -3.9500   25.1240 C   0  0  0  0  0  0  0  0  0  0  0  0
    4.7120   -3.6590   23.8780 C   0  0  0  0  0  0  0  0  0  0  0  0
    8.0130    2.9100   22.4700 C   0  0  0  0  0  0  0  0  0  0  0  0
    5.5610   -5.2530   20.0230 O   0  0  0  0  0  0  0  0  0  0  0  0
    6.8290   -3.3260   19.3210 C   0  0  0  0  0  0  0  0  0  0  0  0
    6.4660    0.1800   18.0920 N   0  0  0  0  0  0  0  0  0  0  0  0
    4.5040    1.1430   19.1060 C   0  0  0  0  0  0  0  0  0  0  0  0
   11.1630   -2.0070   23.8000 C   0  0  0  0  0  0  0  0  0  0  0  0
    6.0040   -4.3000   26.2970 C   0  0  0  0  0  0  0  0  0  0  0  0
    3.9080   -4.0270   25.0690 C   0  0  0  0  0  0  0  0  0  0  0  0
    8.1660   -3.9870   25.3610 C   0  0  0  0  0  0  0  0  0  0  0  0
    7.8020    4.1510   23.3350 C   0  0  0  0  0  0  0  0  0  0  0  0
   12.6350   -2.1200   24.1920 C   0  0  0  0  0  0  0  0  0  0  0  0
    5.3080    0.8460   17.9920 C   0  0  0  0  0  0  0  0  0  0  0  0
    4.4990   -4.3360   26.2420 C   0  0  0  0  0  0  0  0  0  0  0  0
    6.5670   -4.6540   27.6450 C   0  0  0  0  0  0  0  0  0  0  0  0
    8.7350   -4.3190   26.6270 C   0  0  0  0  0  0  0  0  0  0  0  0
    8.7180    5.2200   22.9520 N   0  0  0  0  0  0  0  0  0  0  0  0
   13.5000   -2.5550   23.0100 C   0  0  0  0  0  0  0  0  0  0  0  0
   12.9760   -2.9780   25.3990 C   0  0  0  0  0  0  0  0  0  0  0  0
   13.0900   -0.7150   24.3770 C   0  0  0  0  0  0  0  0  0  0  0  0
    8.0590   -4.6510   27.7900 C   0  0  0  0  0  0  0  0  0  0  0  0
    8.2660    6.4150   22.1960 C   0  0  0  0  0  0  0  0  0  0  0  0
   13.6890   -0.1170   23.5130 O   0  0  0  0  0  0  0  0  0  0  0  0
   10.1200    5.3870   23.9160 S   0  0  0  0  0  0  0  0  0  0  0  0
   10.7310    6.4120   23.1040 O   0  0  0  0  0  0  0  0  0  0  0  0
    9.6990    5.6690   25.2690 O   0  0  0  0  0  0  0  0  0  0  0  0
   10.8210    3.8880   23.6980 C   0  0  0  0  0  0  0  0  0  0  0  0
   12.0010    4.0520   23.0450 C   0  0  0  0  0  0  0  0  0  0  0  0
   10.3730    2.4890   24.0880 C   0  0  0  0  0  0  0  0  0  0  0  0
   12.8590    2.9900   22.6880 C   0  0  0  0  0  0  0  0  0  0  0  0
   11.2270    1.3160   23.7410 C   0  0  0  0  0  0  0  0  0  0  0  0
   12.5070    1.6610   23.0050 C   0  0  0  0  0  0  0  0  0  0  0  0
  1  2  1  0
  2  3  1  6
  1  4  1  0
  1  5  1  0
  4  6  1  6
  2  7  1  0
  5  8  2  0
  5  9  1  0
  4 10  1  0
  3 11  1  0
  3 12  2  0
  6 13  1  0
  7 14  2  0
  7 15  1  0
  8 16  1  0
  9 17  2  0
 10 18  1  0
 10 19  2  0
 11 20  1  0
 13 21  2  0
 13 22  1  0
 15 23  2  0
 14 24  1  0
 16 25  2  0
 17 25  1  0
 18 26  2  0
 19 27  1  0
 18 28  1  0
 20 29  1  0
 25 30  1  0
 23 31  1  0
 24 31  2  0
 26 32  1  0
 27 32  2  0
 26 33  1  0
 28 34  2  0
 29 35  1  0
 30 36  1  0
 30 37  1  0
 30 38  1  0
 33 39  2  0
 34 39  1  0
 35 40  1  0
 38 41  2  0
 42 35  1  0
 42 43  2  0
 42 44  2  0
 42 45  1  0
 45 46  2  0
 45 47  1  0
 46 48  1  0
 47 49  2  0
 48 50  2  0
 49 50  1  0
M  END
