x0820-x0678
     RDKit          3D

 33 36  0  0  0  0  0  0  0  0999 V2000
    6.0330   -3.9600   21.7370 N   0  0  0  0  0  0  0  0  0  0  0  0
    7.0490   -3.9450   22.6610 C   0  0  1  0  0  0  0  0  0  0  0  0
    7.8420   -2.6080   22.5460 C   0  0  0  0  0  0  0  0  0  0  0  0
    6.0700   -4.3390   20.4250 C   0  0  0  0  0  0  0  0  0  0  0  0
    5.5200   -5.3530   20.0310 O   0  0  0  0  0  0  0  0  0  0  0  0
    6.8000   -3.4020   19.4720 C   0  0  0  0  0  0  0  0  0  0  0  0
    6.2600   -4.1700   23.9690 C   0  0  0  0  0  0  0  0  0  0  0  0
    6.9560   -1.3830   22.2930 C   0  0  0  0  0  0  0  0  0  0  0  0
    6.8840   -4.2640   25.2320 C   0  0  0  0  0  0  0  0  0  0  0  0
    4.7780   -4.2790   23.7980 C   0  0  0  0  0  0  0  0  0  0  0  0
    7.6070   -0.3320   21.4550 N   0  0  0  0  0  0  0  0  0  0  0  0
    6.0650   -4.4820   26.5050 C   0  0  0  0  0  0  0  0  0  0  0  0
    3.9030   -4.4920   24.9830 C   0  0  0  0  0  0  0  0  0  0  0  0
    8.2880   -4.1760   25.4820 C   0  0  0  0  0  0  0  0  0  0  0  0
    8.6770    0.4080   21.9230 C   0  0  0  0  0  0  0  0  0  0  0  0
    4.5430   -4.5960   26.3590 C   0  0  0  0  0  0  0  0  0  0  0  0
    6.7270   -4.5760   27.8140 C   0  0  0  0  0  0  0  0  0  0  0  0
    8.9210   -4.2850   26.8710 C   0  0  0  0  0  0  0  0  0  0  0  0
    6.8170    0.1650   20.3850 C   0  0  0  0  0  0  0  0  0  0  0  0
    9.2060    1.3600   21.3200 O   0  0  0  0  0  0  0  0  0  0  0  0
    9.2480    0.1650   23.1820 C   0  0  0  0  0  0  0  0  0  0  0  0
    8.0950   -4.4820   27.9900 C   0  0  0  0  0  0  0  0  0  0  0  0
    5.7390    1.0350   20.6120 C   0  0  0  0  0  0  0  0  0  0  0  0
    7.1120   -0.2090   19.0610 C   0  0  0  0  0  0  0  0  0  0  0  0
   10.7120   -0.3150   23.2000 C   0  0  0  0  0  0  0  0  0  0  0  0
    4.9860    1.5170   19.5560 C   0  0  0  0  0  0  0  0  0  0  0  0
    6.4480    0.2040   17.9530 N   0  0  0  0  0  0  0  0  0  0  0  0
   11.0370   -1.4880   22.2710 C   0  0  0  0  0  0  0  0  0  0  0  0
   11.0910   -0.5060   24.5100 C   0  0  0  0  0  0  0  0  0  0  0  0
    5.3410    1.0970   18.1520 C   0  0  0  0  0  0  0  0  0  0  0  0
   12.3870   -1.8020   22.3630 C   0  0  0  0  0  0  0  0  0  0  0  0
   12.6010   -0.5040   24.4810 C   0  0  0  0  0  0  0  0  0  0  0  0
   13.2700   -1.1000   23.4100 C   0  0  0  0  0  0  0  0  0  0  0  0
  1  2  1  0
  2  3  1  1
  1  4  1  0
  4  5  2  0
  4  6  1  0
  2  7  1  0
  3  8  1  0
  7  9  1  0
  7 10  2  0
  8 11  1  0
  9 12  2  0
 10 13  1  0
  9 14  1  0
 11 15  1  0
 12 16  1  0
 13 16  2  0
 12 17  1  0
 14 18  2  0
 11 19  1  0
 15 20  2  0
 15 21  1  0
 17 22  2  0
 18 22  1  0
 19 23  2  0
 19 24  1  0
 21 25  1  0
 23 26  1  0
 24 27  2  0
 25 28  1  0
 25 29  1  0
 26 30  2  0
 27 30  1  0
 28 31  1  0
 29 32  1  0
 31 33  1  0
 32 33  1  0
M  END
