x0820-x3110-x0967-x2193
     RDKit          3D

 51 55  0  0  0  0  0  0  0  0999 V2000
    8.0280    1.1440   23.4470 N   0  0  0  0  0  0  0  0  0  0  0  0
    8.6670    2.2620   23.6560 C   0  0  1  0  0  0  0  0  0  0  0  0
    9.9020    2.3080   22.9740 C   0  0  0  0  0  0  0  0  0  0  0  0
    7.8690    0.5960   22.0900 C   0  0  0  0  0  0  0  0  0  0  0  0
    8.5990    0.9810   21.1730 O   0  0  0  0  0  0  0  0  0  0  0  0
    6.7630   -0.3940   21.9100 C   0  0  2  0  0  0  0  0  0  0  0  0
    7.6860    3.4030   23.2520 C   0  0  0  0  0  0  0  0  0  0  0  0
    7.3100   -1.7990   22.1810 N   0  0  0  0  0  0  0  0  0  0  0  0
   10.8690    3.3950   23.4020 C   0  0  0  0  0  0  0  0  0  0  0  0
    8.0040    4.4030   22.4070 C   0  0  0  0  0  0  0  0  0  0  0  0
    6.5240    3.5160   23.6480 O   0  0  0  0  0  0  0  0  0  0  0  0
    6.1730    0.0620   20.4840 C   0  0  0  0  0  0  0  0  0  0  0  0
   11.9130    3.3060   22.7570 O   0  0  0  0  0  0  0  0  0  0  0  0
   10.6530    4.2480   24.2510 O   0  0  0  0  0  0  0  0  0  0  0  0
    6.6420   -2.9950   22.5860 C   0  0  2  0  0  0  0  0  0  0  0  0
    4.9670    0.7550   20.3930 C   0  0  0  0  0  0  0  0  0  0  0  0
    6.8550   -0.1900   19.2880 C   0  0  0  0  0  0  0  0  0  0  0  0
    8.6140   -1.7730   22.5430 C   0  0  0  0  0  0  0  0  0  0  0  0
   12.2280    4.4400   22.0740 C   0  0  0  0  0  0  0  0  0  0  0  0
    5.8420   -3.3760   21.5680 N   0  0  0  0  0  0  0  0  0  0  0  0
    6.4590    0.1780   18.0730 N   0  0  0  0  0  0  0  0  0  0  0  0
    4.5210    1.1580   19.1210 C   0  0  0  0  0  0  0  0  0  0  0  0
    9.6390   -1.5040   21.6860 C   0  0  0  0  0  0  0  0  0  0  0  0
    8.8670   -2.0440   23.8520 C   0  0  0  0  0  0  0  0  0  0  0  0
    5.8370   -3.1110   23.9980 C   0  0  2  0  0  0  0  0  0  0  0  0
   13.3870    5.1660   22.7710 C   0  0  0  0  0  0  0  0  0  0  0  0
    6.1840   -3.9860   20.3510 C   0  0  0  0  0  0  0  0  0  0  0  0
    5.2970    0.8510   18.0080 C   0  0  0  0  0  0  0  0  0  0  0  0
   10.9510   -1.5150   22.1320 C   0  0  0  0  0  0  0  0  0  0  0  0
   10.1460   -2.0590   24.2870 C   0  0  0  0  0  0  0  0  0  0  0  0
    6.3610   -3.8470   25.1090 C   0  0  2  0  0  0  0  0  0  0  0  0
    4.6010   -3.7080   23.6360 C   0  0  0  0  0  0  0  0  0  0  0  0
    5.6270   -5.0430   20.0420 O   0  0  0  0  0  0  0  0  0  0  0  0
    7.1960   -3.2700   19.4310 C   0  0  0  0  0  0  0  0  0  0  0  0
   11.1830   -1.7980   23.4620 C   0  0  0  0  0  0  0  0  0  0  0  0
    5.5190   -3.5660   26.2120 C   0  0  1  0  0  0  0  0  0  0  0  0
    3.8990   -4.3550   24.6760 C   0  0  0  0  0  0  0  0  0  0  0  0
    7.6260   -3.6440   25.4140 C   0  0  0  0  0  0  0  0  0  0  0  0
   12.5390   -1.8210   24.1100 C   0  0  0  0  0  0  0  0  0  0  0  0
    4.3600   -4.2930   26.0060 C   0  0  0  0  0  0  0  0  0  0  0  0
    6.1460   -3.7080   27.5030 C   0  0  0  0  0  0  0  0  0  0  0  0
    8.1170   -4.2870   26.4750 C   0  0  1  0  0  0  0  0  0  0  0  0
   12.7210   -0.4250   24.6870 C   0  0  0  0  0  0  0  0  0  0  0  0
   13.5180   -2.0670   22.9960 C   0  0  0  0  0  0  0  0  0  0  0  0
   12.8210   -2.8480   25.2140 C   0  0  0  0  0  0  0  0  0  0  0  0
    7.4760   -4.0540   27.6550 C   0  0  0  0  0  0  0  0  0  0  0  0
    7.9760   -5.8180   26.4160 C   0  0  0  0  0  0  0  0  0  0  0  0
    9.5340   -3.9730   26.4040 N   0  0  0  0  0  0  0  0  0  0  0  0
    9.2890   -6.3690   26.1680 N   0  0  0  0  0  0  0  0  0  0  0  0
   10.2820   -4.6790   25.3370 C   0  0  0  0  0  0  0  0  0  0  0  0
    9.6120   -5.8370   25.0010 C   0  0  0  0  0  0  0  0  0  0  0  0
  1  2  1  0
  2  3  1  6
  1  4  1  0
  4  5  2  0
  6  4  1  6
  2  7  1  0
  6  8  1  0
  3  9  1  0
  7 10  1  0
  7 11  2  0
  6 12  1  0
  9 13  1  0
  9 14  2  0
  8 15  1  0
 12 16  2  0
 12 17  1  0
  8 18  1  0
 13 19  1  0
 15 20  1  6
 17 21  2  0
 16 22  1  0
 18 23  2  0
 18 24  1  0
 15 25  1  0
 19 26  1  0
 20 27  1  0
 21 28  1  0
 22 28  2  0
 23 29  1  0
 24 30  2  0
 25 31  1  0
 25 32  1  6
 27 33  2  0
 27 34  1  0
 29 35  2  0
 30 35  1  0
 31 36  1  0
 32 37  1  0
 31 38  1  1
 35 39  1  0
 36 40  1  1
 37 40  2  0
 36 41  1  0
 42 38  1  6
 39 43  1  0
 39 44  1  0
 39 45  1  0
 41 46  2  0
 42 46  1  0
 42 47  1  0
 42 48  1  0
 47 49  1  0
 48 50  1  0
 49 51  1  0
 50 51  1  0
M  END
