x0820-x2776-x2608
     RDKit          3D

 48 52  0  0  0  0  0  0  0  0999 V2000
    7.6760   -1.7570   22.1670 N   0  0  0  0  0  0  0  0  0  0  0  0
    7.0430   -0.4270   21.8390 C   0  0  1  0  0  0  0  0  0  0  0  0
    7.8790    0.7190   21.8890 C   0  0  0  0  0  0  0  0  0  0  0  0
    6.9160   -3.0800   22.4220 C   0  0  2  0  0  0  0  0  0  0  0  0
    8.6340   -1.5960   23.1880 C   0  0  1  0  0  0  0  0  0  0  0  0
    5.8820   -3.3380   21.4380 N   0  0  0  0  0  0  0  0  0  0  0  0
    6.2920    0.0150   20.4830 C   0  0  0  0  0  0  0  0  0  0  0  0
    9.9290   -2.1440   23.3560 C   0  0  2  0  0  0  0  0  0  0  0  0
    8.5250   -0.4050   24.1170 C   0  0  0  0  0  0  0  0  0  0  0  0
    6.1120   -3.5290   23.6760 C   0  0  0  0  0  0  0  0  0  0  0  0
    7.4270    1.9940   22.5530 N   0  0  0  0  0  0  0  0  0  0  0  0
    6.0730   -3.9880   20.2370 C   0  0  0  0  0  0  0  0  0  0  0  0
    5.0360    0.6790   20.4070 C   0  0  0  0  0  0  0  0  0  0  0  0
    7.0700   -0.2850   19.1780 C   0  0  0  0  0  0  0  0  0  0  0  0
   10.1800   -1.8360   24.8460 C   0  0  0  0  0  0  0  0  0  0  0  0
    6.8230   -3.9370   25.0720 C   0  0  0  0  0  0  0  0  0  0  0  0
    4.6200   -3.5880   23.5730 C   0  0  0  0  0  0  0  0  0  0  0  0
   11.2420   -1.8510   22.7890 C   0  0  2  0  0  0  0  0  0  0  0  0
    9.3850   -0.8430   25.1960 C   0  0  0  0  0  0  0  0  0  0  0  0
   12.2470   -2.6980   23.5910 C   0  0  0  0  0  0  0  0  0  0  0  0
    5.5680   -5.0930   20.0240 O   0  0  0  0  0  0  0  0  0  0  0  0
    6.9110   -3.2620   19.2320 C   0  0  0  0  0  0  0  0  0  0  0  0
    6.4400    0.1660   17.9420 N   0  0  0  0  0  0  0  0  0  0  0  0
    4.4920    1.0790   19.1780 C   0  0  0  0  0  0  0  0  0  0  0  0
    8.0200    3.2980   22.3080 C   0  0  0  0  0  0  0  0  0  0  0  0
    6.0220   -4.3330   26.2020 C   0  0  0  0  0  0  0  0  0  0  0  0
    3.8830   -4.0280   24.8140 C   0  0  0  0  0  0  0  0  0  0  0  0
    8.2210   -3.9480   25.3150 C   0  0  0  0  0  0  0  0  0  0  0  0
   11.8420   -0.5320   22.5690 C   0  0  0  0  0  0  0  0  0  0  0  0
   12.8290   -1.9760   24.6750 O   0  0  0  0  0  0  0  0  0  0  0  0
   13.3210   -0.3490   22.1830 C   0  0  0  0  0  0  0  0  0  0  0  0
    5.1450    0.8610   17.9020 C   0  0  0  0  0  0  0  0  0  0  0  0
    7.6900    4.4600   23.0430 C   0  0  0  0  0  0  0  0  0  0  0  0
    4.6430   -4.3780   26.0830 C   0  0  0  0  0  0  0  0  0  0  0  0
    6.5340   -4.6950   27.4670 C   0  0  0  0  0  0  0  0  0  0  0  0
    8.9230   -4.3190   26.6300 C   0  0  0  0  0  0  0  0  0  0  0  0
   10.9790    0.9330   22.7210 S   0  0  0  0  0  0  0  0  0  0  0  0
   10.1400    1.7710   21.8960 O   0  0  0  0  0  0  0  0  0  0  0  0
   10.5920    2.1250   23.7830 C   0  0  0  0  0  0  0  0  0  0  0  0
   13.3760   -2.9430   25.4850 C   0  0  0  0  0  0  0  0  0  0  0  0
    8.2890    5.7420   22.8310 C   0  0  0  0  0  0  0  0  0  0  0  0
    8.0270   -4.7140   27.7860 C   0  0  0  0  0  0  0  0  0  0  0  0
   11.3710    1.0880   24.3300 C   0  0  0  0  0  0  0  0  0  0  0  0
    9.8890    3.3790   23.9330 C   0  0  0  0  0  0  0  0  0  0  0  0
    9.4350    5.9030   23.8760 C   0  0  2  0  0  0  0  0  0  0  0  0
   10.1640    7.0630   23.8990 O   0  0  0  0  0  0  0  0  0  0  0  0
   10.3210    4.8530   23.6410 C   0  0  0  0  0  0  0  0  0  0  0  0
   11.3890    6.9520   24.6470 C   0  0  0  0  0  0  0  0  0  0  0  0
  1  2  1  0
  2  3  1  0
  1  4  1  0
  1  5  1  0
  4  6  1  6
  2  7  1  6
  5  8  1  0
  5  9  1  6
  4 10  1  0
  3 11  1  0
  6 12  1  0
  7 13  2  0
  7 14  1  0
  8 15  1  1
 10 16  1  0
 10 17  2  0
  8 18  1  0
  9 19  1  0
 15 19  2  0
 18 20  1  1
 12 21  2  0
 12 22  1  0
 14 23  2  0
 13 24  1  0
 11 25  1  0
 16 26  2  0
 17 27  1  0
 16 28  1  0
 18 29  1  0
 20 30  1  0
 29 31  1  0
 23 32  1  0
 24 32  2  0
 25 33  2  0
 26 34  1  0
 27 34  2  0
 26 35  1  0
 28 36  2  0
 29 37  1  0
 37 38  1  0
 37 39  2  0
 30 40  1  0
 33 41  1  0
 35 42  2  0
 36 42  1  0
 37 43  1  0
 39 44  1  0
 41 45  1  0
 45 46  1  6
 44 47  2  0
 45 47  1  0
 46 48  1  0
M  END
