x0820-x0104
     RDKit          3D

 35 39  0  0  0  0  0  0  0  0999 V2000
    6.8840   -4.8790   21.7790 N   0  0  0  0  0  0  0  0  0  0  0  0
    7.3100   -4.0650   22.8370 C   0  0  1  0  0  0  0  0  0  0  0  0
    7.5550   -2.5720   22.5010 C   0  0  0  0  0  0  0  0  0  0  0  0
    6.3230   -4.5560   20.5310 C   0  0  0  0  0  0  0  0  0  0  0  0
    5.3910   -5.1860   20.0490 O   0  0  0  0  0  0  0  0  0  0  0  0
    6.9140   -3.4440   19.6810 C   0  0  0  0  0  0  0  0  0  0  0  0
    6.3840   -4.2320   24.0450 C   0  0  0  0  0  0  0  0  0  0  0  0
    8.0650   -1.7600   23.6710 C   0  0  0  0  0  0  0  0  0  0  0  0
    6.8910   -4.3340   25.3360 C   0  0  0  0  0  0  0  0  0  0  0  0
    5.0220   -4.2730   23.7960 C   0  0  0  0  0  0  0  0  0  0  0  0
    8.8030   -0.5160   23.1740 C   0  0  1  0  0  0  0  0  0  0  0  0
    5.8920   -4.4910   26.4980 C   0  0  0  0  0  0  0  0  0  0  0  0
    4.0350   -4.4260   24.8820 C   0  0  0  0  0  0  0  0  0  0  0  0
    8.2850   -4.3020   25.6540 C   0  0  0  0  0  0  0  0  0  0  0  0
    8.4850    0.9160   23.6880 C   0  0  0  0  0  0  0  0  0  0  0  0
    4.5190   -4.5250   26.1730 C   0  0  0  0  0  0  0  0  0  0  0  0
    6.3930   -4.5860   27.7420 C   0  0  0  0  0  0  0  0  0  0  0  0
    8.7060   -4.4130   26.9890 C   0  0  0  0  0  0  0  0  0  0  0  0
   10.2980   -0.5880   22.9650 C   0  0  0  0  0  0  0  0  0  0  0  0
    7.7440   -4.5470   27.9620 C   0  0  0  0  0  0  0  0  0  0  0  0
    9.7310    1.6400   23.4470 N   0  0  0  0  0  0  0  0  0  0  0  0
   10.7180    0.6660   23.0750 C   0  0  0  0  0  0  0  0  0  0  0  0
   11.3780   -1.5740   22.6490 C   0  0  0  0  0  0  0  0  0  0  0  0
   10.4240    2.7530   23.3940 C   0  0  0  0  0  0  0  0  0  0  0  0
   11.9880    1.1600   22.8690 C   0  0  0  0  0  0  0  0  0  0  0  0
   12.6840   -1.0970   22.4720 C   0  0  0  0  0  0  0  0  0  0  0  0
   13.6130   -1.9810   22.1850 F   0  0  0  0  0  0  0  0  0  0  0  0
   11.7580    2.6170   23.0400 C   0  0  0  0  0  0  0  0  0  0  0  0
   13.0260    0.2750   22.5680 C   0  0  0  0  0  0  0  0  0  0  0  0
   12.7110    3.8260   22.8630 C   0  0  0  0  0  0  0  0  0  0  0  0
   12.2750    5.0070   23.4640 C   0  0  0  0  0  0  0  0  0  0  0  0
   11.2990    5.7440   22.6310 N   0  0  0  0  0  0  0  0  0  0  0  0
   10.1920    6.2420   23.3690 C   0  0  0  0  0  0  0  0  0  0  0  0
    8.9050    6.5430   22.5840 C   0  0  0  0  0  0  0  0  0  0  0  0
   10.2420    6.4360   24.5810 O   0  0  0  0  0  0  0  0  0  0  0  0
  1  2  1  0
  2  3  1  6
  1  4  1  0
  4  5  2  0
  4  6  1  0
  2  7  1  0
  3  8  1  0
  7  9  1  0
  7 10  2  0
 11  8  1  1
  9 12  2  0
 10 13  1  0
  9 14  1  0
 11 15  1  0
 12 16  1  0
 13 16  2  0
 12 17  1  0
 14 18  2  0
 11 19  1  0
 17 20  2  0
 18 20  1  0
 15 21  1  0
 19 22  2  0
 21 22  1  0
 19 23  1  0
 21 24  1  0
 22 25  1  0
 23 26  2  0
 26 27  1  0
 24 28  2  0
 25 28  1  0
 25 29  2  0
 26 29  1  0
 28 30  1  0
 30 31  1  0
 31 32  1  0
 32 33  1  0
 33 34  1  0
 33 35  2  0
M  END
