x0820-x2694-x3115
     RDKit          3D

 46 50  0  0  0  0  0  0  0  0999 V2000
    7.5600   -1.4290   22.1530 N   0  0  0  0  0  0  0  0  0  0  0  0
    6.9570   -0.1090   21.8750 C   0  0  1  0  0  0  0  0  0  0  0  0
    7.9080    1.1300   21.9660 C   0  0  0  0  0  0  0  0  0  0  0  0
    6.9170   -2.8720   22.3840 C   0  0  2  0  0  0  0  0  0  0  0  0
    8.8430   -1.4440   22.7180 C   0  0  0  0  0  0  0  0  0  0  0  0
    5.8570   -3.1190   21.3680 N   0  0  0  0  0  0  0  0  0  0  0  0
    6.3070    0.2580   20.5090 C   0  0  0  0  0  0  0  0  0  0  0  0
    8.8820   -1.6160   24.0100 N   0  0  0  0  0  0  0  0  0  0  0  0
   10.0390   -1.3080   22.1160 C   0  0  0  0  0  0  0  0  0  0  0  0
    6.2910   -3.3720   23.7650 C   0  0  0  0  0  0  0  0  0  0  0  0
    7.7180    1.9870   22.7570 N   0  0  0  0  0  0  0  0  0  0  0  0
    8.8530    1.2580   21.1680 O   0  0  0  0  0  0  0  0  0  0  0  0
    6.0860   -3.8630   20.2120 C   0  0  0  0  0  0  0  0  0  0  0  0
    5.0990    0.9280   20.3980 C   0  0  0  0  0  0  0  0  0  0  0  0
    6.9640   -0.0670   19.3330 C   0  0  0  0  0  0  0  0  0  0  0  0
   10.2640   -1.5890   24.2480 O   0  0  0  0  0  0  0  0  0  0  0  0
   10.9850   -1.3980   23.0920 C   0  0  0  0  0  0  0  0  0  0  0  0
    6.9920   -3.7880   25.0050 C   0  0  0  0  0  0  0  0  0  0  0  0
    4.8580   -3.4080   23.6920 C   0  0  0  0  0  0  0  0  0  0  0  0
   12.4720   -1.3410   23.1970 C   0  0  0  0  0  0  0  0  0  0  0  0
    5.5840   -4.9750   20.0250 O   0  0  0  0  0  0  0  0  0  0  0  0
    6.9640   -3.2070   19.1570 C   0  0  0  0  0  0  0  0  0  0  0  0
    6.4820    0.2510   18.0800 N   0  0  0  0  0  0  0  0  0  0  0  0
    4.5650    1.2740   19.1470 C   0  0  0  0  0  0  0  0  0  0  0  0
    8.4570    3.1880   22.9530 C   0  0  0  0  0  0  0  0  0  0  0  0
    6.1490   -4.1990   26.1030 C   0  0  0  0  0  0  0  0  0  0  0  0
    3.9930   -3.8570   24.8600 C   0  0  0  0  0  0  0  0  0  0  0  0
    8.3910   -3.8460   25.2810 C   0  0  0  0  0  0  0  0  0  0  0  0
   12.8190    0.1420   23.3300 C   0  0  0  0  0  0  0  0  0  0  0  0
   13.0310   -1.9950   21.9660 C   0  0  0  0  0  0  0  0  0  0  0  0
   12.9710   -1.8670   24.3440 C   0  0  0  0  0  0  0  0  0  0  0  0
    5.2090    0.9690   17.9450 C   0  0  0  0  0  0  0  0  0  0  0  0
    9.6870    3.1170   23.6190 C   0  0  0  0  0  0  0  0  0  0  0  0
    8.0260    4.4540   22.5170 C   0  0  0  0  0  0  0  0  0  0  0  0
    4.6370   -4.2250   26.0000 C   0  0  0  0  0  0  0  0  0  0  0  0
    6.6530   -4.6160   27.3670 C   0  0  0  0  0  0  0  0  0  0  0  0
    8.8400   -4.2650   26.5420 C   0  0  0  0  0  0  0  0  0  0  0  0
   10.2680    1.8390   24.1350 C   0  0  0  0  0  0  0  0  0  0  0  0
   12.2290   -3.0090   24.9980 C   0  0  0  0  0  0  0  0  0  0  0  0
   10.5570    4.2360   23.9060 C   0  0  0  0  0  0  0  0  0  0  0  0
    8.8200    5.5890   22.7640 C   0  0  0  0  0  0  0  0  0  0  0  0
    8.0180   -4.6480   27.5920 C   0  0  0  0  0  0  0  0  0  0  0  0
    8.5420    6.8530   22.4050 C   0  0  0  0  0  0  0  0  0  0  0  0
   10.1370    5.4350   23.5010 C   0  0  0  0  0  0  0  0  0  0  0  0
   10.8390    6.5990   23.7080 O   0  0  0  0  0  0  0  0  0  0  0  0
   11.8380    6.5790   24.7590 C   0  0  0  0  0  0  0  0  0  0  0  0
  1  2  1  0
  2  3  1  6
  1  4  1  0
  1  5  1  0
  4  6  1  6
  2  7  1  0
  5  8  2  0
  5  9  1  0
  4 10  1  0
  3 11  1  0
  3 12  2  0
  6 13  1  0
  7 14  2  0
  7 15  1  0
  8 16  1  0
  9 17  2  0
 16 17  1  0
 10 18  1  0
 10 19  2  0
 17 20  1  0
 13 21  2  0
 13 22  1  0
 15 23  2  0
 14 24  1  0
 11 25  1  0
 18 26  2  0
 19 27  1  0
 18 28  1  0
 20 29  1  0
 20 30  1  0
 20 31  1  0
 23 32  1  0
 24 32  2  0
 25 33  2  0
 25 34  1  0
 26 35  1  0
 27 35  2  0
 26 36  1  0
 28 37  2  0
 33 38  1  0
 31 39  1  0
 33 40  1  0
 34 41  2  0
 36 42  2  0
 37 42  1  0
 41 43  1  0
 40 44  2  0
 41 44  1  0
 44 45  1  0
 45 46  1  0
M  END
