x0820-x1249
     RDKit          3D

 36 39  0  0  0  0  0  0  0  0999 V2000
    6.8580   -4.6800   21.7380 N   0  0  0  0  0  0  0  0  0  0  0  0
    7.2120   -3.8030   22.7620 C   0  0  1  0  0  0  0  0  0  0  0  0
    7.2990   -2.2960   22.3820 C   0  0  0  0  0  0  0  0  0  0  0  0
    6.3340   -4.4060   20.4730 C   0  0  0  0  0  0  0  0  0  0  0  0
    5.3610   -5.0060   20.0270 O   0  0  0  0  0  0  0  0  0  0  0  0
    7.0340   -3.3930   19.5760 C   0  0  0  0  0  0  0  0  0  0  0  0
    6.2910   -4.0220   23.9450 C   0  0  0  0  0  0  0  0  0  0  0  0
    6.8020   -1.2260   23.3930 C   0  0  0  0  0  0  0  0  0  0  0  0
    6.8010   -4.3730   25.3420 C   0  0  0  0  0  0  0  0  0  0  0  0
    4.8590   -3.8610   23.6170 C   0  0  0  0  0  0  0  0  0  0  0  0
    7.5830   -1.0390   24.5590 C   0  0  0  0  0  0  0  0  0  0  0  0
    5.7380   -4.5500   26.4560 C   0  0  0  0  0  0  0  0  0  0  0  0
    3.9980   -4.0840   24.8520 C   0  0  0  0  0  0  0  0  0  0  0  0
    8.1610   -4.5560   25.7150 C   0  0  0  0  0  0  0  0  0  0  0  0
    8.1230    0.3500   24.7480 N   0  0  0  0  0  0  0  0  0  0  0  0
    4.3990   -4.3910   26.1260 C   0  0  0  0  0  0  0  0  0  0  0  0
    6.1090   -4.8950   27.9090 C   0  0  0  0  0  0  0  0  0  0  0  0
    8.4950   -4.8860   27.0310 C   0  0  0  0  0  0  0  0  0  0  0  0
    7.5370    1.4060   24.0990 C   0  0  0  0  0  0  0  0  0  0  0  0
    9.4450    0.4990   25.2040 C   0  0  0  0  0  0  0  0  0  0  0  0
    7.4680   -5.0520   28.1440 C   0  0  0  0  0  0  0  0  0  0  0  0
    8.1850    2.3620   23.6630 O   0  0  0  0  0  0  0  0  0  0  0  0
    6.1060    1.3650   23.9380 N   0  0  0  0  0  0  0  0  0  0  0  0
   10.4740    0.0620   24.2160 C   0  0  0  0  0  0  0  0  0  0  0  0
    5.4880    1.9050   22.8390 C   0  0  0  0  0  0  0  0  0  0  0  0
    5.2790    0.9680   25.0620 C   0  0  0  0  0  0  0  0  0  0  0  0
   11.6320    0.8160   24.0200 C   0  0  0  0  0  0  0  0  0  0  0  0
   10.2640   -1.0950   23.4960 C   0  0  0  0  0  0  0  0  0  0  0  0
    4.3430    1.1810   22.5180 C   0  0  0  0  0  0  0  0  0  0  0  0
    3.8680    0.6030   24.7250 C   0  0  0  0  0  0  0  0  0  0  0  0
   12.5750    0.4100   23.1330 C   0  0  0  0  0  0  0  0  0  0  0  0
   11.1670   -1.5730   22.5720 C   0  0  0  0  0  0  0  0  0  0  0  0
    3.4090    1.1900   23.6200 O   0  0  0  0  0  0  0  0  0  0  0  0
   12.3330   -0.8690   22.3600 C   0  0  0  0  0  0  0  0  0  0  0  0
   13.2430   -1.3020   21.4570 C   0  0  0  0  0  0  0  0  0  0  0  0
   14.0160   -1.5320   20.4070 N   0  0  0  0  0  0  0  0  0  0  0  0
  1  2  1  0
  2  3  1  6
  1  4  1  0
  4  5  2  0
  4  6  1  0
  2  7  1  0
  3  8  1  0
  7  9  1  0
  7 10  2  0
  8 11  1  0
  9 12  2  0
 10 13  1  0
  9 14  1  0
 11 15  1  0
 12 16  1  0
 13 16  2  0
 12 17  1  0
 14 18  2  0
 15 19  1  0
 15 20  1  0
 17 21  2  0
 18 21  1  0
 19 22  2  0
 19 23  1  0
 20 24  1  0
 23 25  1  0
 23 26  1  0
 24 27  2  0
 24 28  1  0
 25 29  1  0
 26 30  1  0
 27 31  1  0
 28 32  2  0
 29 33  1  0
 30 33  1  0
 31 34  2  0
 32 34  1  0
 34 35  1  0
 35 36  3  0
M  END
