x0820-x2776-x3115
     RDKit          3D

 46 50  0  0  0  0  0  0  0  0999 V2000
    7.2420   -1.7220   22.2060 N   0  0  0  0  0  0  0  0  0  0  0  0
    6.7530   -0.2710   21.9490 C   0  0  1  0  0  0  0  0  0  0  0  0
    7.8660    0.8030   22.1330 C   0  0  0  0  0  0  0  0  0  0  0  0
    6.5840   -3.1100   22.4580 C   0  0  2  0  0  0  0  0  0  0  0  0
    8.5460   -1.7240   22.7110 C   0  0  0  0  0  0  0  0  0  0  0  0
    5.6010   -3.3510   21.4220 N   0  0  0  0  0  0  0  0  0  0  0  0
    6.2590    0.1320   20.5250 C   0  0  0  0  0  0  0  0  0  0  0  0
    9.5540   -2.0290   21.8420 C   0  0  0  0  0  0  0  0  0  0  0  0
    8.8770   -1.4670   24.0140 C   0  0  0  0  0  0  0  0  0  0  0  0
    6.0530   -3.5180   23.6630 C   0  0  0  0  0  0  0  0  0  0  0  0
    7.6760    1.7280   22.8440 N   0  0  0  0  0  0  0  0  0  0  0  0
    9.0390    0.5660   21.3590 O   0  0  0  0  0  0  0  0  0  0  0  0
    5.9380   -4.0230   20.2560 C   0  0  0  0  0  0  0  0  0  0  0  0
    5.0760    0.8530   20.3590 C   0  0  0  0  0  0  0  0  0  0  0  0
    6.9040   -0.1280   19.2890 C   0  0  0  0  0  0  0  0  0  0  0  0
   10.9930   -2.0840   22.2840 C   0  0  0  0  0  0  0  0  0  0  0  0
   10.2000   -1.5150   24.4430 C   0  0  0  0  0  0  0  0  0  0  0  0
    6.7220   -4.0710   24.7620 C   0  0  0  0  0  0  0  0  0  0  0  0
    4.5500   -3.3590   23.7550 C   0  0  0  0  0  0  0  0  0  0  0  0
    5.5370   -5.1570   20.0300 O   0  0  0  0  0  0  0  0  0  0  0  0
    6.8070   -3.2740   19.2400 C   0  0  0  0  0  0  0  0  0  0  0  0
    6.5060    0.2430   18.0370 N   0  0  0  0  0  0  0  0  0  0  0  0
    4.5980    1.2720   19.0970 C   0  0  0  0  0  0  0  0  0  0  0  0
    8.4040    2.9440   22.9950 C   0  0  0  0  0  0  0  0  0  0  0  0
   11.2410   -1.8230   23.5830 C   0  0  0  0  0  0  0  0  0  0  0  0
    5.8840   -4.4870   26.0270 C   0  0  0  0  0  0  0  0  0  0  0  0
    3.7920   -3.7620   24.9640 C   0  0  0  0  0  0  0  0  0  0  0  0
    8.1000   -4.3310   24.9110 C   0  0  0  0  0  0  0  0  0  0  0  0
   12.5080   -1.8360   24.1480 C   0  0  2  0  0  0  0  0  0  0  0  0
    5.2430    1.0160   17.9170 C   0  0  0  0  0  0  0  0  0  0  0  0
    9.6880    2.9180   23.6010 C   0  0  0  0  0  0  0  0  0  0  0  0
    7.9280    4.3430   22.5620 C   0  0  0  0  0  0  0  0  0  0  0  0
    4.4970   -4.3110   26.0560 C   0  0  0  0  0  0  0  0  0  0  0  0
    6.4950   -5.0320   27.1140 C   0  0  0  0  0  0  0  0  0  0  0  0
    8.6220   -4.9040   26.0690 C   0  0  0  0  0  0  0  0  0  0  0  0
   12.3770   -2.6240   25.3000 O   0  0  0  0  0  0  0  0  0  0  0  0
   10.3150    1.6420   24.0770 C   0  0  0  0  0  0  0  0  0  0  0  0
   12.9090   -0.4350   24.5180 C   0  0  0  0  0  0  0  0  0  0  0  0
   10.4430    4.0940   23.7910 C   0  0  0  0  0  0  0  0  0  0  0  0
    8.7660    5.4510   22.8000 C   0  0  0  0  0  0  0  0  0  0  0  0
    7.8310   -5.2320   27.1150 C   0  0  0  0  0  0  0  0  0  0  0  0
   13.5670   -3.2440   25.6680 C   0  0  0  0  0  0  0  0  0  0  0  0
    8.1380    6.7770   22.2950 C   0  0  0  0  0  0  0  0  0  0  0  0
   10.0120    5.3440   23.4160 C   0  0  0  0  0  0  0  0  0  0  0  0
   10.7820    6.5330   23.6240 O   0  0  0  0  0  0  0  0  0  0  0  0
   11.7510    6.4440   24.6730 C   0  0  0  0  0  0  0  0  0  0  0  0
  1  2  1  0
  2  3  1  6
  1  4  1  0
  1  5  1  0
  4  6  1  6
  2  7  1  0
  5  8  2  0
  5  9  1  0
  4 10  1  0
  3 11  1  0
  3 12  2  0
  6 13  1  0
  7 14  2  0
  7 15  1  0
  8 16  1  0
  9 17  2  0
 10 18  1  0
 10 19  2  0
 13 20  2  0
 13 21  1  0
 15 22  2  0
 14 23  1  0
 11 24  1  0
 16 25  2  0
 17 25  1  0
 18 26  2  0
 19 27  1  0
 18 28  1  0
 25 29  1  0
 22 30  1  0
 23 30  2  0
 24 31  2  0
 24 32  1  0
 26 33  1  0
 27 33  2  0
 26 34  1  0
 28 35  2  0
 29 36  1  0
 31 37  1  0
 29 38  1  1
 31 39  1  0
 32 40  2  0
 34 41  2  0
 35 41  1  0
 36 42  1  0
 40 43  1  0
 39 44  2  0
 40 44  1  0
 44 45  1  0
 45 46  1  0
M  END
