x0820-x0967
     RDKit          3D

 37 39  0  0  0  0  0  0  0  0999 V2000
    7.5390    4.7600   22.3330 C   0  0  0  0  0  0  0  0  0  0  0  0
    7.0780    3.4330   23.0130 C   0  0  0  0  0  0  0  0  0  0  0  0
    8.1540    2.4370   22.9570 N   0  0  0  0  0  0  0  0  0  0  0  0
    5.9710    3.3060   23.5270 O   0  0  0  0  0  0  0  0  0  0  0  0
    7.7850    1.0110   23.1590 C   0  0  1  0  0  0  0  0  0  0  0  0
    6.5020    0.6550   22.6910 C   0  0  0  0  0  0  0  0  0  0  0  0
    8.8470    0.2640   22.4910 C   0  0  0  0  0  0  0  0  0  0  0  0
    9.1200   -1.0290   22.8470 N   0  0  0  0  0  0  0  0  0  0  0  0
    9.5270    0.8040   21.6300 O   0  0  0  0  0  0  0  0  0  0  0  0
    6.3380    0.6470   21.1610 C   0  0  0  0  0  0  0  0  0  0  0  0
    9.9970   -1.8940   22.1120 C   0  0  0  0  0  0  0  0  0  0  0  0
    8.0590   -1.7920   23.5300 C   0  0  0  0  0  0  0  0  0  0  0  0
    7.0290   -0.1550   20.2460 C   0  0  0  0  0  0  0  0  0  0  0  0
    5.3780    1.5520   20.6490 C   0  0  0  0  0  0  0  0  0  0  0  0
   11.3520   -1.4560   21.9150 C   0  0  0  0  0  0  0  0  0  0  0  0
    7.2800   -2.6150   22.4980 C   0  0  0  0  0  0  0  0  0  0  0  0
    6.8170   -0.1020   18.8920 C   0  0  0  0  0  0  0  0  0  0  0  0
    5.1130    1.6590   19.2830 C   0  0  0  0  0  0  0  0  0  0  0  0
   12.1870   -1.8500   22.9460 C   0  0  0  0  0  0  0  0  0  0  0  0
    7.2740   -4.0970   22.8450 C   0  0  2  0  0  0  0  0  0  0  0  0
    5.8940    0.7660   18.3430 C   0  0  0  0  0  0  0  0  0  0  0  0
    5.6520    0.8630   17.0410 O   0  0  0  0  0  0  0  0  0  0  0  0
   13.3050   -2.3710   24.3840 Br  0  0  0  0  0  0  0  0  0  0  0  0
    6.7420   -4.9460   21.7640 N   0  0  0  0  0  0  0  0  0  0  0  0
    6.2990   -4.2540   24.0040 C   0  0  0  0  0  0  0  0  0  0  0  0
    6.2250   -4.6230   20.5160 C   0  0  0  0  0  0  0  0  0  0  0  0
    6.9720   -4.3500   25.3860 C   0  0  0  0  0  0  0  0  0  0  0  0
    4.9840   -4.2940   23.7490 C   0  0  0  0  0  0  0  0  0  0  0  0
    5.3190   -5.2610   20.0250 O   0  0  0  0  0  0  0  0  0  0  0  0
    6.8210   -3.5020   19.6840 C   0  0  0  0  0  0  0  0  0  0  0  0
    5.9410   -4.5020   26.4960 C   0  0  0  0  0  0  0  0  0  0  0  0
    4.0190   -4.4330   24.7530 C   0  0  0  0  0  0  0  0  0  0  0  0
    8.3510   -4.3160   25.7110 C   0  0  0  0  0  0  0  0  0  0  0  0
    4.4710   -4.5440   26.1930 C   0  0  0  0  0  0  0  0  0  0  0  0
    6.3900   -4.6020   27.8200 C   0  0  0  0  0  0  0  0  0  0  0  0
    8.7820   -4.4210   27.0270 C   0  0  0  0  0  0  0  0  0  0  0  0
    7.8700   -4.5610   28.0890 C   0  0  0  0  0  0  0  0  0  0  0  0
  1  2  1  0
  2  3  1  0
  2  4  2  0
  3  5  1  0
  5  6  1  6
  5  7  1  0
  7  8  1  0
  7  9  2  0
  6 10  1  0
  8 11  1  0
  8 12  1  0
 10 13  2  0
 10 14  1  0
 11 15  1  0
 12 16  1  0
 13 17  1  0
 14 18  2  0
 15 19  3  0
 20 16  1  6
 17 21  2  0
 18 21  1  0
 21 22  1  0
 19 23  1  0
 20 24  1  0
 20 25  1  0
 24 26  1  0
 25 27  1  0
 25 28  2  0
 26 29  2  0
 26 30  1  0
 27 31  2  0
 28 32  1  0
 27 33  1  0
 31 34  1  0
 32 34  2  0
 31 35  1  0
 33 36  2  0
 35 37  2  0
 36 37  1  0
M  END
