x0820-x2910
     RDKit          3D

 40 44  0  0  0  0  0  0  0  0999 V2000
    7.1530   -1.6600   21.4430 N   0  0  0  0  0  0  0  0  0  0  0  0
    7.6930   -2.4260   22.6010 C   0  0  2  0  0  0  0  0  0  0  0  0
    9.2120   -2.2650   22.5120 C   0  0  0  0  0  0  0  0  0  0  0  0
    5.8400   -1.6260   21.0370 C   0  0  0  0  0  0  0  0  0  0  0  0
    5.0410   -2.5120   21.3160 O   0  0  0  0  0  0  0  0  0  0  0  0
    7.3350   -3.8550   22.7160 C   0  0  2  0  0  0  0  0  0  0  0  0
    5.4290   -0.4500   20.2250 C   0  0  0  0  0  0  0  0  0  0  0  0
    9.4640   -1.2470   23.1470 O   0  0  0  0  0  0  0  0  0  0  0  0
    7.0300   -4.6480   21.6350 N   0  0  0  0  0  0  0  0  0  0  0  0
    4.4170    0.4070   20.6090 C   0  0  0  0  0  0  0  0  0  0  0  0
    6.0930   -0.2000   19.0110 C   0  0  0  0  0  0  0  0  0  0  0  0
    6.3700   -4.2460   23.8590 C   0  0  0  0  0  0  0  0  0  0  0  0
    6.4000   -4.3760   20.3930 C   0  0  0  0  0  0  0  0  0  0  0  0
   10.6950   -0.7090   22.9830 C   0  0  0  0  0  0  0  0  0  0  0  0
    3.9990    1.6040   19.7500 C   0  0  0  0  0  0  0  0  0  0  0  0
    5.7970    0.8760   18.1450 C   0  0  0  0  0  0  0  0  0  0  0  0
    3.7040    0.2370   21.8110 C   0  0  0  0  0  0  0  0  0  0  0  0
    6.9710   -4.3300   25.1410 C   0  0  0  0  0  0  0  0  0  0  0  0
    5.0090   -4.5050   23.6650 C   0  0  0  0  0  0  0  0  0  0  0  0
    6.3870    1.1670   16.9940 O   0  0  0  0  0  0  0  0  0  0  0  0
    5.3720   -4.9210   20.0130 O   0  0  0  0  0  0  0  0  0  0  0  0
    7.1310   -3.4130   19.4620 C   0  0  0  0  0  0  0  0  0  0  0  0
   11.0300    0.5960   23.3260 C   0  0  0  0  0  0  0  0  0  0  0  0
   11.7370   -1.6470   22.3790 C   0  0  0  0  0  0  0  0  0  0  0  0
    4.7400    1.7870   18.5200 N   0  0  0  0  0  0  0  0  0  0  0  0
    2.9800    2.4590   20.1190 C   0  0  0  0  0  0  0  0  0  0  0  0
    2.5760    1.2110   22.1920 C   0  0  0  0  0  0  0  0  0  0  0  0
    6.2080   -4.6650   26.2510 C   0  0  0  0  0  0  0  0  0  0  0  0
    4.1980   -4.8570   24.7670 C   0  0  0  0  0  0  0  0  0  0  0  0
    8.3380   -4.0960   25.4130 C   0  0  0  0  0  0  0  0  0  0  0  0
   10.0280    1.3520   23.8510 O   0  0  0  0  0  0  0  0  0  0  0  0
   13.1350   -1.1230   22.1660 C   0  0  0  0  0  0  0  0  0  0  0  0
   12.3780    1.1580   23.1440 C   0  0  0  0  0  0  0  0  0  0  0  0
    2.1870    2.3010   21.4060 C   0  0  0  0  0  0  0  0  0  0  0  0
    4.7110   -4.9510   26.0710 C   0  0  0  0  0  0  0  0  0  0  0  0
    6.5870   -4.7990   27.5830 C   0  0  0  0  0  0  0  0  0  0  0  0
    8.9540   -4.2020   26.8090 C   0  0  0  0  0  0  0  0  0  0  0  0
   10.0880    2.7490   23.6090 C   0  0  0  0  0  0  0  0  0  0  0  0
   13.4510    0.3200   22.5650 C   0  0  0  0  0  0  0  0  0  0  0  0
    8.0300   -4.5780   28.0080 C   0  0  0  0  0  0  0  0  0  0  0  0
  1  2  1  0
  2  3  1  6
  1  4  1  0
  4  5  2  0
  2  6  1  0
  4  7  1  0
  3  8  1  0
  6  9  1  6
  7 10  1  0
  7 11  2  0
  6 12  1  0
  9 13  1  0
  8 14  1  0
 10 15  2  0
 11 16  1  0
 10 17  1  0
 12 18  1  0
 12 19  2  0
 16 20  1  0
 13 21  2  0
 13 22  1  0
 14 23  2  0
 14 24  1  0
 15 25  1  0
 16 25  2  0
 15 26  1  0
 17 27  2  0
 18 28  2  0
 19 29  1  0
 18 30  1  0
 23 31  1  0
 24 32  2  0
 23 33  1  0
 26 34  2  0
 27 34  1  0
 28 35  1  0
 29 35  2  0
 28 36  1  0
 30 37  2  0
 31 38  1  0
 32 39  1  0
 33 39  2  0
 36 40  2  0
 37 40  1  0
M  END
