x0820-x0540
     RDKit          3D

 36 39  0  0  0  0  0  0  0  0999 V2000
    6.8430   -4.7720   21.6950 N   0  0  0  0  0  0  0  0  0  0  0  0
    7.2510   -3.9230   22.7200 C   0  0  1  0  0  0  0  0  0  0  0  0
    7.4810   -2.4150   22.4060 C   0  0  0  0  0  0  0  0  0  0  0  0
    6.2750   -4.4920   20.4540 C   0  0  0  0  0  0  0  0  0  0  0  0
    5.3270   -5.1200   20.0240 O   0  0  0  0  0  0  0  0  0  0  0  0
    6.8920   -3.4370   19.5580 C   0  0  0  0  0  0  0  0  0  0  0  0
    6.3660   -4.1450   23.9270 C   0  0  0  0  0  0  0  0  0  0  0  0
    6.4720   -1.3620   22.9470 C   0  0  0  0  0  0  0  0  0  0  0  0
    6.9340   -4.2970   25.3270 C   0  0  0  0  0  0  0  0  0  0  0  0
    4.9230   -4.2010   23.6470 C   0  0  0  0  0  0  0  0  0  0  0  0
    5.2020   -1.3380   22.3410 C   0  0  0  0  0  0  0  0  0  0  0  0
    5.9130   -4.5130   26.4590 C   0  0  0  0  0  0  0  0  0  0  0  0
    4.0490   -4.4220   24.8790 C   0  0  0  0  0  0  0  0  0  0  0  0
    8.3070   -4.2590   25.6900 C   0  0  0  0  0  0  0  0  0  0  0  0
    4.7020    0.0740   21.8840 C   0  0  1  0  0  0  0  0  0  0  0  0
    4.5520   -4.5600   26.1630 C   0  0  0  0  0  0  0  0  0  0  0  0
    6.3910   -4.6790   27.9100 C   0  0  0  0  0  0  0  0  0  0  0  0
    8.7540   -4.4110   27.0100 C   0  0  0  0  0  0  0  0  0  0  0  0
    5.0070    1.1250   22.7730 C   0  0  0  0  0  0  0  0  0  0  0  0
    7.7590   -4.6290   28.1610 C   0  0  0  0  0  0  0  0  0  0  0  0
    5.1600    0.3580   20.4750 C   0  0  0  0  0  0  0  0  0  0  0  0
    4.1030    2.1740   22.6200 N   0  0  0  0  0  0  0  0  0  0  0  0
    6.3370   -0.2520   20.0390 C   0  0  0  0  0  0  0  0  0  0  0  0
    4.5160    1.2360   19.3950 C   0  0  0  0  0  0  0  0  0  0  0  0
    2.9390    2.3510   23.3780 C   0  0  0  0  0  0  0  0  0  0  0  0
    6.8900   -0.0590   18.6500 C   0  0  0  0  0  0  0  0  0  0  0  0
    5.1270    1.3400   18.1490 C   0  0  0  0  0  0  0  0  0  0  0  0
    2.7300    1.6370   24.3700 O   0  0  0  0  0  0  0  0  0  0  0  0
    2.0600    3.3600   22.9650 N   0  0  0  0  0  0  0  0  0  0  0  0
    6.3460    0.7010   17.7010 N   0  0  0  0  0  0  0  0  0  0  0  0
    0.7260    3.7150   23.4850 C   0  0  0  0  0  0  0  0  0  0  0  0
    0.7660    4.3880   24.7130 C   0  0  0  0  0  0  0  0  0  0  0  0
   -0.2630    2.7480   23.3020 C   0  0  0  0  0  0  0  0  0  0  0  0
   -0.5920    4.8520   25.2760 C   0  0  0  0  0  0  0  0  0  0  0  0
   -1.5030    3.1150   23.8350 C   0  0  0  0  0  0  0  0  0  0  0  0
   -1.6500    4.4590   24.2630 C   0  0  0  0  0  0  0  0  0  0  0  0
  1  2  1  0
  2  3  1  6
  1  4  1  0
  4  5  2  0
  4  6  1  0
  2  7  1  0
  3  8  1  0
  7  9  1  0
  7 10  2  0
  8 11  1  0
  9 12  2  0
 10 13  1  0
  9 14  1  0
 15 11  1  1
 12 16  1  0
 13 16  2  0
 12 17  1  0
 14 18  2  0
 15 19  1  0
 17 20  2  0
 18 20  1  0
 15 21  1  0
 19 22  1  0
 21 23  2  0
 21 24  1  0
 22 25  1  0
 23 26  1  0
 24 27  2  0
 25 28  2  0
 25 29  1  0
 26 30  2  0
 27 30  1  0
 29 31  1  0
 31 32  1  0
 31 33  1  0
 32 34  1  0
 33 35  1  0
 34 36  1  0
 35 36  1  0
M  END
