x0820-x2694
     RDKit          3D

 44 48  0  0  0  0  0  0  0  0999 V2000
    7.5830   -1.5610   22.0390 N   0  0  0  0  0  0  0  0  0  0  0  0
    6.8940   -0.1790   21.8580 C   0  0  1  0  0  0  0  0  0  0  0  0
    7.8660    1.1020   22.0080 C   0  0  0  0  0  0  0  0  0  0  0  0
    6.9360   -2.9600   22.3300 C   0  0  2  0  0  0  0  0  0  0  0  0
    8.8730   -1.4150   22.5560 C   0  0  0  0  0  0  0  0  0  0  0  0
    5.8750   -3.1930   21.3550 N   0  0  0  0  0  0  0  0  0  0  0  0
    6.3320    0.1720   20.4810 C   0  0  0  0  0  0  0  0  0  0  0  0
    8.9200   -0.7310   23.8190 N   0  0  0  0  0  0  0  0  0  0  0  0
   10.0770   -1.8010   22.0830 C   0  0  0  0  0  0  0  0  0  0  0  0
    6.2950   -3.4330   23.7070 C   0  0  0  0  0  0  0  0  0  0  0  0
    7.6630    2.1240   22.9210 N   0  0  0  0  0  0  0  0  0  0  0  0
    8.8380    1.3060   21.2540 O   0  0  0  0  0  0  0  0  0  0  0  0
    6.0640   -3.9220   20.2180 C   0  0  0  0  0  0  0  0  0  0  0  0
    5.0190    0.9350   20.3440 C   0  0  0  0  0  0  0  0  0  0  0  0
    6.9480   -0.1210   19.2830 C   0  0  0  0  0  0  0  0  0  0  0  0
   10.3010   -0.6910   24.1640 O   0  0  0  0  0  0  0  0  0  0  0  0
   11.0110   -1.3040   23.1660 C   0  0  0  0  0  0  0  0  0  0  0  0
    6.9180   -3.8450   25.0630 C   0  0  0  0  0  0  0  0  0  0  0  0
    4.8760   -3.5000   23.6370 C   0  0  0  0  0  0  0  0  0  0  0  0
   12.5260   -1.4350   23.1730 C   0  0  0  0  0  0  0  0  0  0  0  0
    5.5600   -5.0250   20.0250 O   0  0  0  0  0  0  0  0  0  0  0  0
    6.9430   -3.2320   19.1970 C   0  0  0  0  0  0  0  0  0  0  0  0
    6.4710    0.2270   18.0640 N   0  0  0  0  0  0  0  0  0  0  0  0
    4.4480    1.3330   19.1660 C   0  0  0  0  0  0  0  0  0  0  0  0
    8.4980    3.2730   23.1080 C   0  0  0  0  0  0  0  0  0  0  0  0
    6.0890   -4.2520   26.1530 C   0  0  0  0  0  0  0  0  0  0  0  0
    4.0530   -3.9550   24.8620 C   0  0  0  0  0  0  0  0  0  0  0  0
    8.3140   -3.8650   25.3530 C   0  0  0  0  0  0  0  0  0  0  0  0
   13.0700   -0.1660   23.3480 C   0  0  0  0  0  0  0  0  0  0  0  0
   12.9990   -2.0060   21.8200 C   0  0  0  0  0  0  0  0  0  0  0  0
   12.9700   -2.3360   24.3330 C   0  0  0  0  0  0  0  0  0  0  0  0
    5.2020    0.9770   17.9080 C   0  0  0  0  0  0  0  0  0  0  0  0
    9.7940    3.1570   23.6300 C   0  0  0  0  0  0  0  0  0  0  0  0
    8.0210    4.5490   22.7780 C   0  0  0  0  0  0  0  0  0  0  0  0
    4.6930   -4.3030   26.0450 C   0  0  0  0  0  0  0  0  0  0  0  0
    6.6100   -4.6330   27.4080 C   0  0  0  0  0  0  0  0  0  0  0  0
    8.8200   -4.2520   26.6080 C   0  0  0  0  0  0  0  0  0  0  0  0
   10.3490    1.8220   23.9960 C   0  0  0  0  0  0  0  0  0  0  0  0
   10.7160    4.3790   23.8600 C   0  0  0  0  0  0  0  0  0  0  0  0
    8.8280    5.8190   22.9660 C   0  0  0  0  0  0  0  0  0  0  0  0
    7.9720   -4.6340   27.6400 C   0  0  0  0  0  0  0  0  0  0  0  0
   10.1140    5.7320   23.4890 C   0  0  0  0  0  0  0  0  0  0  0  0
   10.9620    6.7840   23.7320 O   0  0  0  0  0  0  0  0  0  0  0  0
   11.8430    6.6560   24.8530 C   0  0  0  0  0  0  0  0  0  0  0  0
  1  2  1  0
  2  3  1  6
  1  4  1  0
  1  5  1  0
  4  6  1  6
  2  7  1  0
  5  8  2  0
  5  9  1  0
  4 10  1  0
  3 11  1  0
  3 12  2  0
  6 13  1  0
  7 14  2  0
  7 15  1  0
  8 16  1  0
  9 17  2  0
 16 17  1  0
 10 18  1  0
 10 19  2  0
 17 20  1  0
 13 21  2  0
 13 22  1  0
 15 23  2  0
 14 24  1  0
 11 25  1  0
 18 26  2  0
 19 27  1  0
 18 28  1  0
 20 29  1  0
 20 30  1  0
 20 31  1  0
 23 32  1  0
 24 32  2  0
 25 33  2  0
 25 34  1  0
 26 35  1  0
 27 35  2  0
 26 36  1  0
 28 37  2  0
 33 38  1  0
 33 39  1  0
 34 40  2  0
 36 41  2  0
 37 41  1  0
 39 42  2  0
 40 42  1  0
 42 43  1  0
 43 44  1  0
M  END
