x0820-x2908
     RDKit          3D

 35 38  0  0  0  0  0  0  0  0999 V2000
    6.1820   -3.7640   21.6980 N   0  0  0  0  0  0  0  0  0  0  0  0
    7.1480   -4.0160   22.6470 C   0  0  1  0  0  0  0  0  0  0  0  0
    8.2720   -2.9200   22.6210 C   0  0  0  0  0  0  0  0  0  0  0  0
    6.1210   -4.2030   20.3920 C   0  0  0  0  0  0  0  0  0  0  0  0
    5.5130   -5.2090   20.0440 O   0  0  0  0  0  0  0  0  0  0  0  0
    6.8390   -3.3310   19.3770 C   0  0  0  0  0  0  0  0  0  0  0  0
    6.3120   -4.1980   23.9360 C   0  0  0  0  0  0  0  0  0  0  0  0
    7.9240   -1.5590   23.2050 C   0  0  0  0  0  0  0  0  0  0  0  0
    6.8920   -4.3050   25.2180 C   0  0  0  0  0  0  0  0  0  0  0  0
    4.8310   -4.2580   23.7280 C   0  0  0  0  0  0  0  0  0  0  0  0
    8.6630   -0.5030   22.6140 N   0  0  0  0  0  0  0  0  0  0  0  0
    6.0340   -4.4870   26.4770 C   0  0  0  0  0  0  0  0  0  0  0  0
    3.9200   -4.4330   24.8960 C   0  0  0  0  0  0  0  0  0  0  0  0
    8.2850   -4.2660   25.5260 C   0  0  0  0  0  0  0  0  0  0  0  0
    8.1870    0.1010   21.4990 C   0  0  0  0  0  0  0  0  0  0  0  0
    4.5120   -4.5490   26.2930 C   0  0  0  0  0  0  0  0  0  0  0  0
    6.6610   -4.5970   27.8090 C   0  0  0  0  0  0  0  0  0  0  0  0
    8.8810   -4.3870   26.9230 C   0  0  0  0  0  0  0  0  0  0  0  0
   10.0590   -0.4480   22.8170 C   0  0  0  0  0  0  0  0  0  0  0  0
    8.6650    1.1940   21.1280 O   0  0  0  0  0  0  0  0  0  0  0  0
    7.1930   -0.5530   20.8370 N   0  0  0  0  0  0  0  0  0  0  0  0
    8.0280   -4.5500   28.0170 C   0  0  0  0  0  0  0  0  0  0  0  0
   10.6120    0.4370   23.7530 C   0  0  0  0  0  0  0  0  0  0  0  0
   10.9110   -1.2570   22.0800 C   0  0  0  0  0  0  0  0  0  0  0  0
    6.4270    0.1930   19.9080 C   0  0  0  0  0  0  0  0  0  0  0  0
   12.0050    0.4880   23.9070 C   0  0  0  0  0  0  0  0  0  0  0  0
   12.2770   -1.1940   22.2440 C   0  0  0  0  0  0  0  0  0  0  0  0
   13.2140   -2.2090   21.2800 Cl  0  0  0  0  0  0  0  0  0  0  0  0
    6.8320    0.0370   18.6240 C   0  0  0  0  0  0  0  0  0  0  0  0
    5.2750    1.0860   20.2890 C   0  0  0  0  0  0  0  0  0  0  0  0
   12.8370   -0.3230   23.1550 C   0  0  0  0  0  0  0  0  0  0  0  0
    4.7950    1.2930   21.6870 C   0  0  0  0  0  0  0  0  0  0  0  0
    6.2710    0.6430   17.5920 N   0  0  0  0  0  0  0  0  0  0  0  0
    4.5720    1.8220   19.1470 C   0  0  0  0  0  0  0  0  0  0  0  0
    5.1410    1.5560   17.7500 C   0  0  0  0  0  0  0  0  0  0  0  0
  1  2  1  0
  2  3  1  1
  1  4  1  0
  4  5  2  0
  4  6  1  0
  2  7  1  0
  3  8  1  0
  7  9  1  0
  7 10  2  0
  8 11  1  0
  9 12  2  0
 10 13  1  0
  9 14  1  0
 11 15  1  0
 12 16  1  0
 13 16  2  0
 12 17  1  0
 14 18  2  0
 11 19  1  0
 15 20  2  0
 15 21  1  0
 17 22  2  0
 18 22  1  0
 19 23  2  0
 19 24  1  0
 21 25  1  0
 23 26  1  0
 24 27  2  0
 27 28  1  0
 25 29  2  0
 25 30  1  0
 26 31  2  0
 27 31  1  0
 30 32  1  0
 29 33  1  0
 30 34  2  0
 33 35  2  0
 34 35  1  0
M  END
