x0820-x3113-x3115
     RDKit          3D

 44 47  0  0  0  0  0  0  0  0999 V2000
    7.3830   -1.9650   22.1680 N   0  0  0  0  0  0  0  0  0  0  0  0
    6.9300   -0.5030   21.8740 C   0  0  1  0  0  0  0  0  0  0  0  0
    8.1200    0.4960   22.0620 C   0  0  0  0  0  0  0  0  0  0  0  0
    6.7400   -3.3320   22.4300 C   0  0  2  0  0  0  0  0  0  0  0  0
    8.6760   -1.9950   22.8090 C   0  0  0  0  0  0  0  0  0  0  0  0
    5.7390   -3.5860   21.5710 N   0  0  0  0  0  0  0  0  0  0  0  0
    6.3170   -0.0370   20.5080 C   0  0  0  0  0  0  0  0  0  0  0  0
    9.7450   -1.9470   21.9780 C   0  0  0  0  0  0  0  0  0  0  0  0
    8.8440   -2.0710   24.1870 C   0  0  0  0  0  0  0  0  0  0  0  0
    6.1140   -3.7170   23.8000 C   0  0  0  0  0  0  0  0  0  0  0  0
    7.9740    1.5290   22.9770 N   0  0  0  0  0  0  0  0  0  0  0  0
    9.1560    0.4360   21.4160 O   0  0  0  0  0  0  0  0  0  0  0  0
    5.9980   -4.1530   20.3540 C   0  0  0  0  0  0  0  0  0  0  0  0
    5.0960    0.6530   20.4380 C   0  0  0  0  0  0  0  0  0  0  0  0
    7.0100   -0.2820   19.3020 C   0  0  0  0  0  0  0  0  0  0  0  0
   11.0270   -1.9670   22.4380 C   0  0  0  0  0  0  0  0  0  0  0  0
   10.1210   -2.0950   24.6530 C   0  0  0  0  0  0  0  0  0  0  0  0
    6.7290   -4.2630   24.9920 C   0  0  0  0  0  0  0  0  0  0  0  0
    4.7370   -3.4930   23.8130 C   0  0  0  0  0  0  0  0  0  0  0  0
    8.8690    2.6850   22.8690 C   0  0  2  0  0  0  0  0  0  0  0  0
    5.5400   -5.2440   20.0450 O   0  0  0  0  0  0  0  0  0  0  0  0
    6.8550   -3.3260   19.4080 C   0  0  0  0  0  0  0  0  0  0  0  0
    6.5390    0.1340   18.0850 N   0  0  0  0  0  0  0  0  0  0  0  0
    4.5600    1.1020   19.2400 C   0  0  0  0  0  0  0  0  0  0  0  0
   11.2150   -2.0420   23.8230 C   0  0  0  0  0  0  0  0  0  0  0  0
    5.9430   -4.5450   26.1240 C   0  0  0  0  0  0  0  0  0  0  0  0
    3.9620   -3.7760   24.9320 C   0  0  0  0  0  0  0  0  0  0  0  0
    8.0580   -4.5330   25.0840 C   0  0  0  0  0  0  0  0  0  0  0  0
   10.2120    2.2640   23.5040 C   0  0  0  0  0  0  0  0  0  0  0  0
   12.6200   -2.0350   24.3430 C   0  0  0  0  0  0  0  0  0  0  0  0
    8.2290    4.0010   23.2560 C   0  0  0  0  0  0  0  0  0  0  0  0
    5.2380    0.8690   18.0730 C   0  0  0  0  0  0  0  0  0  0  0  0
    4.5850   -4.2920   26.0600 C   0  0  0  0  0  0  0  0  0  0  0  0
    6.4990   -5.0470   27.2270 C   0  0  0  0  0  0  0  0  0  0  0  0
    8.6290   -5.0570   26.2160 C   0  0  0  0  0  0  0  0  0  0  0  0
   11.4350    3.1930   23.3990 C   0  0  0  0  0  0  0  0  0  0  0  0
   13.5260   -2.3050   23.1630 C   0  0  0  0  0  0  0  0  0  0  0  0
   12.9670   -2.9810   25.2720 C   0  0  0  0  0  0  0  0  0  0  0  0
   12.8410   -0.6310   24.8830 C   0  0  0  0  0  0  0  0  0  0  0  0
    9.0240    5.1670   22.9820 O   0  0  0  0  0  0  0  0  0  0  0  0
    7.8090   -5.2970   27.2680 C   0  0  0  0  0  0  0  0  0  0  0  0
   11.6700    3.8310   22.3860 O   0  0  0  0  0  0  0  0  0  0  0  0
    8.3430    6.2160   22.3000 C   0  0  0  0  0  0  0  0  0  0  0  0
   12.9190    4.5340   22.4710 C   0  0  0  0  0  0  0  0  0  0  0  0
  1  2  1  0
  2  3  1  6
  1  4  1  0
  1  5  1  0
  4  6  1  6
  2  7  1  0
  5  8  2  0
  5  9  1  0
  4 10  1  0
  3 11  1  0
  3 12  2  0
  6 13  1  0
  7 14  2  0
  7 15  1  0
  8 16  1  0
  9 17  2  0
 10 18  1  0
 10 19  2  0
 11 20  1  0
 13 21  2  0
 13 22  1  0
 15 23  2  0
 14 24  1  0
 16 25  2  0
 17 25  1  0
 18 26  2  0
 19 27  1  0
 18 28  1  0
 20 29  1  1
 25 30  1  0
 20 31  1  0
 23 32  1  0
 24 32  2  0
 26 33  1  0
 27 33  2  0
 26 34  1  0
 28 35  2  0
 29 36  1  0
 30 37  1  0
 30 38  1  0
 30 39  1  0
 31 40  1  0
 34 41  2  0
 35 41  1  0
 36 42  1  0
 40 43  1  0
 42 44  1  0
M  END
