x0820-x2964
     RDKit          3D

 35 38  0  0  0  0  0  0  0  0999 V2000
    7.1640   -4.8020   21.7070 N   0  0  0  0  0  0  0  0  0  0  0  0
    7.2760   -3.9970   22.8450 C   0  0  1  0  0  0  0  0  0  0  0  0
    7.2860   -2.4670   22.5720 C   0  0  0  0  0  0  0  0  0  0  0  0
    6.4600   -4.5210   20.5150 C   0  0  0  0  0  0  0  0  0  0  0  0
    5.4670   -5.1170   20.0830 O   0  0  0  0  0  0  0  0  0  0  0  0
    7.0560   -3.4500   19.6370 C   0  0  0  0  0  0  0  0  0  0  0  0
    6.2340   -4.2410   23.9280 C   0  0  0  0  0  0  0  0  0  0  0  0
    8.6760   -1.9260   22.1770 C   0  0  0  0  0  0  0  0  0  0  0  0
    6.7750   -4.3250   25.2650 C   0  0  0  0  0  0  0  0  0  0  0  0
    4.8570   -4.3750   23.7220 C   0  0  0  0  0  0  0  0  0  0  0  0
    8.8680   -0.7970   22.4580 N   0  0  0  0  0  0  0  0  0  0  0  0
    5.8940   -4.5420   26.3780 C   0  0  0  0  0  0  0  0  0  0  0  0
    3.9060   -4.6040   24.8620 C   0  0  0  0  0  0  0  0  0  0  0  0
    8.2600   -4.1800   25.4680 C   0  0  0  0  0  0  0  0  0  0  0  0
    8.2680    0.1170   21.6250 C   0  0  0  0  0  0  0  0  0  0  0  0
    4.3840   -4.6870   26.1390 C   0  0  0  0  0  0  0  0  0  0  0  0
    6.4400   -4.6300   27.7550 C   0  0  0  0  0  0  0  0  0  0  0  0
    8.7860   -4.2650   26.7650 C   0  0  0  0  0  0  0  0  0  0  0  0
   10.2270   -0.5010   22.6460 C   0  0  0  0  0  0  0  0  0  0  0  0
    8.8560    1.1630   21.2530 O   0  0  0  0  0  0  0  0  0  0  0  0
    7.0070   -0.2100   21.2380 N   0  0  0  0  0  0  0  0  0  0  0  0
    7.8970   -4.4950   27.9840 C   0  0  0  0  0  0  0  0  0  0  0  0
   10.7270    0.6500   23.5070 C   0  0  0  0  0  0  0  0  0  0  0  0
   11.1670   -1.2690   22.0090 C   0  0  0  0  0  0  0  0  0  0  0  0
    6.3630    0.2830   20.1300 C   0  0  0  0  0  0  0  0  0  0  0  0
   12.2090    0.8460   23.5710 C   0  0  0  0  0  0  0  0  0  0  0  0
   12.4850   -1.0400   22.1070 C   0  0  0  0  0  0  0  0  0  0  0  0
   13.3650   -2.1280   21.1920 Cl  0  0  0  0  0  0  0  0  0  0  0  0
    5.1850    0.9830   20.3110 C   0  0  0  0  0  0  0  0  0  0  0  0
    6.9280    0.0780   18.7550 C   0  0  0  0  0  0  0  0  0  0  0  0
   13.0420   -0.0100   22.8620 C   0  0  0  0  0  0  0  0  0  0  0  0
    4.5160    1.5360   19.0540 C   0  0  0  0  0  0  0  0  0  0  0  0
    6.2700    0.6220   17.5950 N   0  0  0  0  0  0  0  0  0  0  0  0
    3.2710    2.2870   19.1090 N   0  0  0  0  0  0  0  0  0  0  0  0
    5.1330    1.3060   17.8170 C   0  0  0  0  0  0  0  0  0  0  0  0
  1  2  1  0
  2  3  1  6
  1  4  1  0
  4  5  2  0
  4  6  1  0
  2  7  1  0
  3  8  1  0
  7  9  1  0
  7 10  2  0
  8 11  1  0
  9 12  2  0
 10 13  1  0
  9 14  1  0
 11 15  1  0
 12 16  1  0
 13 16  2  0
 12 17  1  0
 14 18  2  0
 11 19  1  0
 15 20  2  0
 15 21  1  0
 17 22  2  0
 18 22  1  0
 19 23  2  0
 19 24  1  0
 21 25  1  0
 23 26  1  0
 24 27  2  0
 27 28  1  0
 25 29  2  0
 25 30  1  0
 26 31  2  0
 27 31  1  0
 29 32  1  0
 30 33  2  0
 32 34  1  0
 32 35  2  0
 33 35  1  0
M  END
