x0820-x2581
     RDKit          3D

 39 43  0  0  0  0  0  0  0  0999 V2000
    5.9660   -3.8470   21.7260 N   0  0  0  0  0  0  0  0  0  0  0  0
    6.9290   -3.9630   22.6960 C   0  0  1  0  0  0  0  0  0  0  0  0
    7.8240   -2.7060   22.7260 C   0  0  0  0  0  0  0  0  0  0  0  0
    6.0340   -4.2630   20.4160 C   0  0  0  0  0  0  0  0  0  0  0  0
    5.5040   -5.2930   20.0340 O   0  0  0  0  0  0  0  0  0  0  0  0
    6.7680   -3.3420   19.4440 C   0  0  0  0  0  0  0  0  0  0  0  0
    6.1810   -4.2050   23.9870 C   0  0  0  0  0  0  0  0  0  0  0  0
    9.3190   -2.9970   22.7180 C   0  0  0  0  0  0  0  0  0  0  0  0
    6.8810   -4.3520   25.3310 C   0  0  0  0  0  0  0  0  0  0  0  0
    4.7060   -4.2770   23.8130 C   0  0  0  0  0  0  0  0  0  0  0  0
   10.3360   -2.2120   23.5180 C   0  0  0  0  0  0  0  0  0  0  0  0
    5.9760   -4.5810   26.5410 C   0  0  0  0  0  0  0  0  0  0  0  0
    3.8690   -4.4820   24.8760 C   0  0  0  0  0  0  0  0  0  0  0  0
    8.3430   -4.3040   25.6310 C   0  0  0  0  0  0  0  0  0  0  0  0
    9.9180   -1.1520   23.9490 O   0  0  0  0  0  0  0  0  0  0  0  0
    4.4630   -4.6370   26.2510 C   0  0  0  0  0  0  0  0  0  0  0  0
    6.5010   -4.7420   27.9230 C   0  0  0  0  0  0  0  0  0  0  0  0
    8.8750   -4.4770   27.0530 C   0  0  0  0  0  0  0  0  0  0  0  0
    7.8720   -4.6930   28.1550 C   0  0  0  0  0  0  0  0  0  0  0  0
    9.6690   -0.1120   23.1220 C   0  0  0  0  0  0  0  0  0  0  0  0
   10.2360    1.1690   23.0850 C   0  0  0  0  0  0  0  0  0  0  0  0
    8.6150   -0.2800   22.0400 C   0  0  0  0  0  0  0  0  0  0  0  0
    9.8220    2.1170   22.1440 C   0  0  0  0  0  0  0  0  0  0  0  0
    8.2690    0.8180   21.1050 C   0  0  0  0  0  0  0  0  0  0  0  0
   10.4180    3.4330   22.0900 N   0  0  0  0  0  0  0  0  0  0  0  0
    8.8330    2.0030   21.1230 N   0  0  0  0  0  0  0  0  0  0  0  0
   11.2680    3.9520   23.0650 C   0  0  0  0  0  0  0  0  0  0  0  0
   11.3720    3.3310   24.0780 O   0  0  0  0  0  0  0  0  0  0  0  0
   11.9630    5.1920   22.8710 C   0  0  0  0  0  0  0  0  0  0  0  0
   11.1470    6.3540   23.4110 C   0  0  0  0  0  0  0  0  0  0  0  0
    9.9180    6.6990   22.8400 C   0  0  0  0  0  0  0  0  0  0  0  0
   11.6100    7.0930   24.4920 C   0  0  0  0  0  0  0  0  0  0  0  0
    9.1620    7.7480   23.3160 C   0  0  0  0  0  0  0  0  0  0  0  0
   10.9070    8.1820   25.0440 C   0  0  0  0  0  0  0  0  0  0  0  0
    9.6530    8.5840   24.5050 C   0  0  0  0  0  0  0  0  0  0  0  0
   11.4480    8.8890   26.1340 C   0  0  0  0  0  0  0  0  0  0  0  0
    8.9280    9.6650   25.0150 C   0  0  0  0  0  0  0  0  0  0  0  0
   10.7760    9.9720   26.6830 C   0  0  0  0  0  0  0  0  0  0  0  0
    9.4410   10.3840   26.0900 C   0  0  0  0  0  0  0  0  0  0  0  0
  1  2  1  0
  2  3  1  1
  1  4  1  0
  4  5  2  0
  4  6  1  0
  2  7  1  0
  3  8  1  0
  7  9  1  0
  7 10  2  0
  8 11  1  0
  9 12  2  0
 10 13  1  0
  9 14  1  0
 11 15  1  0
 12 16  1  0
 13 16  2  0
 12 17  1  0
 14 18  2  0
 17 19  2  0
 18 19  1  0
 15 20  1  0
 20 21  2  0
 20 22  1  0
 21 23  1  0
 22 24  2  0
 23 25  1  0
 23 26  2  0
 24 26  1  0
 25 27  1  0
 27 28  2  0
 27 29  1  0
 29 30  1  0
 30 31  2  0
 30 32  1  0
 31 33  1  0
 32 34  2  0
 33 35  2  0
 34 35  1  0
 34 36  1  0
 35 37  1  0
 36 38  2  0
 37 39  2  0
 38 39  1  0
M  END
