x0820-x0540-x3110-x3115
     RDKit          3D

 58 62  0  0  0  0  0  0  0  0999 V2000
    7.8240    1.3720   23.2210 N   0  0  0  0  0  0  0  0  0  0  0  0
    8.7020    2.5380   23.4970 C   0  0  1  0  0  0  0  0  0  0  0  0
   10.1770    2.1060   23.4590 C   0  0  0  0  0  0  0  0  0  0  0  0
    7.8470    0.6340   22.0380 C   0  0  0  0  0  0  0  0  0  0  0  0
    8.7210    0.9120   21.2140 O   0  0  0  0  0  0  0  0  0  0  0  0
    6.7790   -0.4220   21.8220 C   0  0  2  0  0  0  0  0  0  0  0  0
    8.2910    3.6760   22.5710 C   0  0  0  0  0  0  0  0  0  0  0  0
    7.2870   -1.8520   22.2400 N   0  0  0  0  0  0  0  0  0  0  0  0
   11.0520    3.3300   23.4080 C   0  0  0  0  0  0  0  0  0  0  0  0
    8.5340    4.7760   23.0820 O   0  0  0  0  0  0  0  0  0  0  0  0
    6.2870   -0.0530   20.5730 C   0  0  0  0  0  0  0  0  0  0  0  0
   11.9780    3.2370   22.4280 O   0  0  0  0  0  0  0  0  0  0  0  0
   10.9300    4.2840   24.1580 O   0  0  0  0  0  0  0  0  0  0  0  0
    8.1310    5.9060   22.2830 C   0  0  0  0  0  0  0  0  0  0  0  0
    6.7740   -3.1570   22.3900 C   0  0  2  0  0  0  0  0  0  0  0  0
    5.0290    0.5570   20.4630 C   0  0  0  0  0  0  0  0  0  0  0  0
    7.0010   -0.2260   19.3660 C   0  0  0  0  0  0  0  0  0  0  0  0
    8.5490   -1.8380   22.7510 C   0  0  0  0  0  0  0  0  0  0  0  0
   12.3780    4.5130   21.9120 C   0  0  0  0  0  0  0  0  0  0  0  0
    5.6610   -3.3570   21.4360 N   0  0  0  0  0  0  0  0  0  0  0  0
    4.1480    0.8070   21.6420 C   0  0  0  0  0  0  0  0  0  0  0  0
    6.6120    0.1420   18.1060 N   0  0  0  0  0  0  0  0  0  0  0  0
    4.5250    0.9790   19.2110 C   0  0  0  0  0  0  0  0  0  0  0  0
    9.6120   -1.6460   21.8900 C   0  0  0  0  0  0  0  0  0  0  0  0
    8.8280   -2.0250   24.1130 C   0  0  0  0  0  0  0  0  0  0  0  0
    6.0840   -3.6020   23.7360 C   0  0  0  0  0  0  0  0  0  0  0  0
   13.3930    5.1100   22.8570 C   0  0  0  0  0  0  0  0  0  0  0  0
    5.9540   -4.0240   20.2600 C   0  0  0  0  0  0  0  0  0  0  0  0
    4.7670    1.8660   22.5510 C   0  0  0  0  0  0  0  0  0  0  0  0
    5.3020    0.7860   18.0130 C   0  0  0  0  0  0  0  0  0  0  0  0
   11.0480   -1.6470   22.4120 C   0  0  0  0  0  0  0  0  0  0  0  0
   10.0890   -2.0390   24.6440 C   0  0  0  0  0  0  0  0  0  0  0  0
    6.8310   -4.1870   24.9790 C   0  0  0  0  0  0  0  0  0  0  0  0
    4.6880   -3.4370   23.7080 C   0  0  0  0  0  0  0  0  0  0  0  0
    5.5030   -5.1390   20.0230 O   0  0  0  0  0  0  0  0  0  0  0  0
    6.8580   -3.2880   19.2800 C   0  0  0  0  0  0  0  0  0  0  0  0
    3.9200    2.8760   22.9420 N   0  0  0  0  0  0  0  0  0  0  0  0
   11.2800   -1.8410   23.7550 C   0  0  0  0  0  0  0  0  0  0  0  0
    5.9610   -4.5580   26.1720 C   0  0  0  0  0  0  0  0  0  0  0  0
    3.8120   -3.8230   24.9140 C   0  0  0  0  0  0  0  0  0  0  0  0
    8.2410   -4.4280   25.1480 C   0  0  0  0  0  0  0  0  0  0  0  0
   12.6020   -1.8440   24.3480 C   0  0  0  0  0  0  0  0  0  0  0  0
    2.8660    2.3100   23.6270 C   0  0  0  0  0  0  0  0  0  0  0  0
    4.4570   -4.3900   26.1700 C   0  0  0  0  0  0  0  0  0  0  0  0
    6.5440   -5.1400   27.4730 C   0  0  0  0  0  0  0  0  0  0  0  0
    8.7990   -4.9730   26.3440 C   0  0  0  0  0  0  0  0  0  0  0  0
   12.7970   -0.6260   24.9440 C   0  0  0  0  0  0  0  0  0  0  0  0
   13.5530   -2.1290   23.1540 C   0  0  0  0  0  0  0  0  0  0  0  0
   13.0120   -3.0260   25.2840 C   0  0  0  0  0  0  0  0  0  0  0  0
    2.9690    1.5450   24.5820 O   0  0  0  0  0  0  0  0  0  0  0  0
    1.7110    2.6830   23.1010 N   0  0  0  0  0  0  0  0  0  0  0  0
    7.9060   -5.3370   27.5450 C   0  0  0  0  0  0  0  0  0  0  0  0
    0.6160    3.0930   23.9880 C   0  0  0  0  0  0  0  0  0  0  0  0
    0.6990    4.5780   24.3730 C   0  0  0  0  0  0  0  0  0  0  0  0
   -0.7060    2.6310   23.3890 C   0  0  0  0  0  0  0  0  0  0  0  0
   -0.5180    4.9520   24.9660 C   0  0  0  0  0  0  0  0  0  0  0  0
   -1.8970    3.3820   23.9780 C   0  0  0  0  0  0  0  0  0  0  0  0
   -1.6550    4.7470   24.1710 C   0  0  0  0  0  0  0  0  0  0  0  0
  1  2  1  0
  2  3  1  6
  1  4  1  0
  4  5  2  0
  6  4  1  6
  2  7  1  0
  6  8  1  0
  3  9  1  0
  7 10  1  0
  6 11  1  0
  9 12  1  0
  9 13  2  0
 10 14  1  0
  8 15  1  0
 11 16  1  0
 11 17  2  0
  8 18  1  0
 12 19  1  0
 15 20  1  6
 16 21  1  0
 17 22  1  0
 16 23  2  0
 18 24  2  0
 18 25  1  0
 15 26  1  0
 19 27  1  0
 20 28  1  0
 21 29  1  0
 22 30  2  0
 23 30  1  0
 24 31  1  0
 25 32  2  0
 26 33  1  0
 26 34  2  0
 28 35  2  0
 28 36  1  0
 29 37  1  0
 31 38  2  0
 32 38  1  0
 33 39  2  0
 34 40  1  0
 33 41  1  0
 38 42  1  0
 37 43  1  0
 39 44  1  0
 40 44  2  0
 39 45  1  0
 41 46  2  0
 42 47  1  0
 42 48  1  0
 42 49  1  0
 43 50  2  0
 43 51  1  0
 45 52  2  0
 46 52  1  0
 51 53  1  0
 53 54  1  0
 53 55  1  0
 54 56  1  0
 55 57  1  0
 56 58  1  0
 57 58  1  0
M  END
