x0820-x2600
     RDKit          3D

 35 38  0  0  0  0  0  0  0  0999 V2000
    6.1100   -3.7690   21.7050 N   0  0  0  0  0  0  0  0  0  0  0  0
    7.1050   -3.9580   22.6280 C   0  0  1  0  0  0  0  0  0  0  0  0
    8.1430   -2.7840   22.5990 C   0  0  0  0  0  0  0  0  0  0  0  0
    6.0880   -4.1910   20.4040 C   0  0  0  0  0  0  0  0  0  0  0  0
    5.4750   -5.1830   20.0360 O   0  0  0  0  0  0  0  0  0  0  0  0
    6.8760   -3.3370   19.4310 C   0  0  0  0  0  0  0  0  0  0  0  0
    6.3300   -4.1760   23.9200 C   0  0  0  0  0  0  0  0  0  0  0  0
    7.8110   -1.5250   23.4280 C   0  0  0  0  0  0  0  0  0  0  0  0
    7.0030   -4.2880   25.2850 C   0  0  0  0  0  0  0  0  0  0  0  0
    4.8540   -4.2630   23.7020 C   0  0  0  0  0  0  0  0  0  0  0  0
    8.6240   -0.2610   23.1640 C   0  0  2  0  0  0  0  0  0  0  0  0
    6.0950   -4.4960   26.4910 C   0  0  0  0  0  0  0  0  0  0  0  0
    4.0400   -4.4530   24.7910 C   0  0  0  0  0  0  0  0  0  0  0  0
    8.4550   -4.2190   25.5960 C   0  0  0  0  0  0  0  0  0  0  0  0
    8.3630    0.3060   21.7520 C   0  0  0  0  0  0  0  0  0  0  0  0
    4.5900   -4.5740   26.1860 C   0  0  0  0  0  0  0  0  0  0  0  0
    6.6030   -4.6210   27.8870 C   0  0  0  0  0  0  0  0  0  0  0  0
    8.9740   -4.3520   27.0260 C   0  0  0  0  0  0  0  0  0  0  0  0
   10.1110   -0.4630   23.4010 C   0  0  0  0  0  0  0  0  0  0  0  0
    9.0100    1.2840   21.3150 O   0  0  0  0  0  0  0  0  0  0  0  0
    7.3580   -0.3460   21.0700 N   0  0  0  0  0  0  0  0  0  0  0  0
    7.9750   -4.5540   28.1380 C   0  0  0  0  0  0  0  0  0  0  0  0
   10.6430   -0.2580   24.6840 C   0  0  0  0  0  0  0  0  0  0  0  0
   10.9650   -0.8410   22.3870 C   0  0  0  0  0  0  0  0  0  0  0  0
    6.5730    0.2710   20.0980 C   0  0  0  0  0  0  0  0  0  0  0  0
   11.9920   -0.4290   24.9430 C   0  0  0  0  0  0  0  0  0  0  0  0
   12.3320   -1.0160   22.6030 C   0  0  0  0  0  0  0  0  0  0  0  0
   13.1430   -1.3700   21.5640 C   0  0  0  0  0  0  0  0  0  0  0  0
    6.9380    0.0650   18.7780 C   0  0  0  0  0  0  0  0  0  0  0  0
    5.3610    1.1510   20.4510 C   0  0  0  0  0  0  0  0  0  0  0  0
   12.9080   -0.8330   23.8320 C   0  0  0  0  0  0  0  0  0  0  0  0
   13.9660   -1.5640   20.4400 N   0  0  0  0  0  0  0  0  0  0  0  0
    6.2830    0.6280   17.6060 N   0  0  0  0  0  0  0  0  0  0  0  0
    4.6890    1.7300   19.2310 C   0  0  0  0  0  0  0  0  0  0  0  0
    5.1340    1.4880   17.8350 C   0  0  0  0  0  0  0  0  0  0  0  0
  1  2  1  0
  2  3  1  1
  1  4  1  0
  4  5  2  0
  4  6  1  0
  2  7  1  0
  3  8  1  0
  7  9  1  0
  7 10  2  0
 11  8  1  6
  9 12  2  0
 10 13  1  0
  9 14  1  0
 11 15  1  0
 12 16  1  0
 13 16  2  0
 12 17  1  0
 14 18  2  0
 11 19  1  0
 15 20  2  0
 15 21  1  0
 17 22  2  0
 18 22  1  0
 19 23  2  0
 19 24  1  0
 21 25  1  0
 23 26  1  0
 24 27  2  0
 27 28  1  0
 25 29  2  0
 25 30  1  0
 26 31  2  0
 27 31  1  0
 28 32  3  0
 29 33  1  0
 30 34  2  0
 33 35  2  0
 34 35  1  0
M  END
