x0820-x0161
     RDKit          3D

 34 36  0  0  0  0  0  0  0  0999 V2000
    5.9970   -3.8840   21.7400 N   0  0  0  0  0  0  0  0  0  0  0  0
    6.9930   -3.8570   22.6940 C   0  0  1  0  0  0  0  0  0  0  0  0
    7.6190   -2.4410   22.7460 C   0  0  0  0  0  0  0  0  0  0  0  0
    6.0670   -4.2810   20.4270 C   0  0  0  0  0  0  0  0  0  0  0  0
    5.5220   -5.2990   20.0350 O   0  0  0  0  0  0  0  0  0  0  0  0
    6.8160   -3.3610   19.4630 C   0  0  0  0  0  0  0  0  0  0  0  0
    6.2460   -4.1500   23.9940 C   0  0  0  0  0  0  0  0  0  0  0  0
    9.1180   -2.4120   22.9040 C   0  0  0  0  0  0  0  0  0  0  0  0
    6.9300   -4.3020   25.3740 C   0  0  0  0  0  0  0  0  0  0  0  0
    4.8390   -4.2710   23.8650 C   0  0  0  0  0  0  0  0  0  0  0  0
    9.8300   -1.9890   21.8010 C   0  0  0  0  0  0  0  0  0  0  0  0
    6.0710   -4.5490   26.4370 C   0  0  0  0  0  0  0  0  0  0  0  0
    3.9950   -4.5210   24.9200 C   0  0  0  0  0  0  0  0  0  0  0  0
    8.2750   -4.2140   25.6280 C   0  0  0  0  0  0  0  0  0  0  0  0
   11.1850   -1.8010   22.0090 C   0  0  0  0  0  0  0  0  0  0  0  0
    4.5710   -4.6800   26.3260 C   0  0  0  0  0  0  0  0  0  0  0  0
    6.6110   -4.7110   27.8460 C   0  0  0  0  0  0  0  0  0  0  0  0
    8.7550   -4.3700   26.9370 C   0  0  0  0  0  0  0  0  0  0  0  0
   11.8610   -2.4170   23.2350 C   0  0  0  0  0  0  0  0  0  0  0  0
    7.9680   -4.6160   28.0580 C   0  0  0  0  0  0  0  0  0  0  0  0
   12.5420   -1.4600   24.0690 N   0  0  0  0  0  0  0  0  0  0  0  0
   13.3350   -2.1010   24.9910 C   0  0  0  0  0  0  0  0  0  0  0  0
   12.9310   -0.3100   23.3250 C   0  0  0  0  0  0  0  0  0  0  0  0
   13.8230   -0.3130   22.5120 O   0  0  0  0  0  0  0  0  0  0  0  0
   12.1800    1.0120   23.4520 C   0  0  0  0  0  0  0  0  0  0  0  0
   12.8480    2.2450   22.9560 C   0  0  0  0  0  0  0  0  0  0  0  0
   10.9060    1.1310   24.0010 C   0  0  0  0  0  0  0  0  0  0  0  0
   12.1860    3.5600   23.0470 C   0  0  0  0  0  0  0  0  0  0  0  0
   10.2960    2.4120   24.0790 C   0  0  0  0  0  0  0  0  0  0  0  0
   10.9130    3.6190   23.6190 C   0  0  0  0  0  0  0  0  0  0  0  0
   10.0930    5.1920   23.7680 S   0  0  0  0  0  0  0  0  0  0  0  0
   11.0160    6.2220   23.3010 O   0  0  0  0  0  0  0  0  0  0  0  0
    9.4330    5.3050   25.0560 O   0  0  0  0  0  0  0  0  0  0  0  0
    8.8810    5.0800   22.6210 N   0  0  0  0  0  0  0  0  0  0  0  0
  1  2  1  0
  2  3  1  1
  1  4  1  0
  4  5  2  0
  4  6  1  0
  2  7  1  0
  3  8  1  0
  7  9  1  0
  7 10  2  0
  8 11  1  0
  9 12  2  0
 10 13  1  0
  9 14  1  0
 11 15  1  0
 12 16  1  0
 13 16  2  0
 12 17  1  0
 14 18  2  0
 15 19  1  0
 17 20  2  0
 18 20  1  0
 19 21  1  0
 21 22  1  0
 21 23  1  0
 23 24  2  0
 23 25  1  0
 25 26  2  0
 25 27  1  0
 26 28  1  0
 27 29  2  0
 28 30  2  0
 29 30  1  0
 30 31  1  0
 31 32  2  0
 31 33  2  0
 31 34  1  0
M  END
