x0830-x0752
     RDKit          3D

 32 38  0  0  0  0  0  0  0  0999 V2000
    7.6450   -3.0790   18.9670 C   0  0  0  0  0  0  0  0  0  0  0  0
    7.3100   -3.2490   20.2330 C   0  0  2  0  0  0  0  0  0  0  0  0
    6.1010   -4.0960   20.2000 C   0  0  0  0  0  0  0  0  0  0  0  0
    6.8910   -2.3290   21.1550 N   0  0  0  0  0  0  0  0  0  0  0  0
    6.7940   -4.4060   21.4120 N   0  0  0  0  0  0  0  0  0  0  0  0
    5.2490   -4.9080   20.4820 O   0  0  0  0  0  0  0  0  0  0  0  0
    6.8090   -3.2760   22.2380 C   0  0  1  0  0  0  0  0  0  0  0  0
    7.8190   -1.3090   21.2460 C   0  0  0  0  0  0  0  0  0  0  0  0
    6.4730   -5.6190   22.1270 C   0  0  0  0  0  0  0  0  0  0  0  0
    7.8990   -3.2410   23.2050 C   0  0  0  0  0  0  0  0  0  0  0  0
    9.0280   -1.5570   21.8470 C   0  0  0  0  0  0  0  0  0  0  0  0
    5.5750   -3.6070   23.0250 C   0  0  0  0  0  0  0  0  0  0  0  0
    8.9560   -2.3180   22.9220 N   0  0  0  0  0  0  0  0  0  0  0  0
    5.3760   -5.0190   22.9610 C   0  0  0  0  0  0  0  0  0  0  0  0
    4.6680   -2.8820   23.7510 C   0  0  0  0  0  0  0  0  0  0  0  0
   10.0270   -2.3360   23.8800 C   0  0  0  0  0  0  0  0  0  0  0  0
    3.6160   -3.5370   24.3750 C   0  0  0  0  0  0  0  0  0  0  0  0
    4.3440   -5.7310   23.5580 C   0  0  0  0  0  0  0  0  0  0  0  0
   11.1180   -1.4370   23.4760 C   0  0  0  0  0  0  0  0  0  0  0  0
    2.6510   -2.9140   25.1240 O   0  0  0  0  0  0  0  0  0  0  0  0
    3.4990   -4.9000   24.2510 C   0  0  0  0  0  0  0  0  0  0  0  0
   12.2700   -1.8820   22.8370 C   0  0  0  0  0  0  0  0  0  0  0  0
   10.9080   -0.1130   23.7570 C   0  0  0  0  0  0  0  0  0  0  0  0
    2.4000   -5.2600   24.9380 O   0  0  0  0  0  0  0  0  0  0  0  0
    1.8180   -4.0580   25.4480 C   0  0  0  0  0  0  0  0  0  0  0  0
   13.2640   -0.9930   22.4560 C   0  0  0  0  0  0  0  0  0  0  0  0
   11.8690    0.7790   23.3770 C   0  0  0  0  0  0  0  0  0  0  0  0
    9.7320    0.3240   24.4070 C   0  0  0  0  0  0  0  0  0  0  0  0
   13.0160    0.3530   22.7580 C   0  0  0  0  0  0  0  0  0  0  0  0
   11.7540    2.2440   23.5830 C   0  0  0  0  0  0  0  0  0  0  0  0
    9.4970    1.7970   24.6750 C   0  0  0  0  0  0  0  0  0  0  0  0
   10.4270    2.7580   24.2930 C   0  0  0  0  0  0  0  0  0  0  0  0
  2  1  1  6
  2  3  1  0
  2  4  1  0
  3  5  1  0
  3  6  2  0
  4  7  1  0
  5  7  1  0
  4  8  1  0
  5  9  1  0
  7 10  1  1
  8 11  1  0
  7 12  1  0
 10 13  1  0
 11 13  1  0
  9 14  1  0
 12 14  2  0
 12 15  1  0
 13 16  1  0
 15 17  2  0
 14 18  1  0
 16 19  1  0
 17 20  1  0
 17 21  1  0
 18 21  2  0
 19 22  2  0
 19 23  1  0
 21 24  1  0
 20 25  1  0
 24 25  1  0
 22 26  1  0
 23 27  2  0
 23 28  1  0
 26 29  2  0
 27 29  1  0
 27 30  1  0
 28 31  2  0
 30 32  2  0
 31 32  1  0
M  END
