x0830-x0104
     RDKit          3D

 26 28  0  0  0  0  0  0  0  0999 V2000
    9.3580    6.4400   22.6280 C   0  0  0  0  0  0  0  0  0  0  0  0
   10.2490    6.0000   23.6000 C   0  0  0  0  0  0  0  0  0  0  0  0
    9.7150    6.2840   24.8920 O   0  0  0  0  0  0  0  0  0  0  0  0
   11.3760    5.4350   23.3280 N   0  0  0  0  0  0  0  0  0  0  0  0
   12.6840    4.8230   23.0810 C   0  0  0  0  0  0  0  0  0  0  0  0
   12.6540    3.3870   22.4850 C   0  0  0  0  0  0  0  0  0  0  0  0
   11.8060    2.3620   23.2220 C   0  0  0  0  0  0  0  0  0  0  0  0
   10.5230    2.5960   24.0050 C   0  0  0  0  0  0  0  0  0  0  0  0
   12.0580    1.0580   23.2350 C   0  0  0  0  0  0  0  0  0  0  0  0
   10.0830    1.3980   24.4520 N   0  0  0  0  0  0  0  0  0  0  0  0
   11.0800    0.3590   24.0400 C   0  0  1  0  0  0  0  0  0  0  0  0
   13.1070    0.2510   22.5890 C   0  0  0  0  0  0  0  0  0  0  0  0
   10.6910   -0.9580   23.4780 C   0  0  0  0  0  0  0  0  0  0  0  0
   12.8380   -1.0640   22.2140 C   0  0  0  0  0  0  0  0  0  0  0  0
   13.6820   -1.8310   21.5720 F   0  0  0  0  0  0  0  0  0  0  0  0
    9.3770   -1.5780   23.9120 C   0  0  0  0  0  0  0  0  0  0  0  0
   11.6050   -1.6740   22.5110 C   0  0  0  0  0  0  0  0  0  0  0  0
    8.2340   -1.4780   23.0100 N   0  0  0  0  0  0  0  0  0  0  0  0
    7.6240   -2.8010   22.9340 C   0  0  0  0  0  0  0  0  0  0  0  0
    8.6440   -1.2010   21.6090 C   0  0  0  0  0  0  0  0  0  0  0  0
    6.2910   -2.6140   22.2040 C   0  0  0  0  0  0  0  0  0  0  0  0
    7.5350   -0.9360   20.8000 C   0  0  0  0  0  0  0  0  0  0  0  0
    6.5000   -1.9630   20.8540 N   0  0  0  0  0  0  0  0  0  0  0  0
    6.4580   -2.8740   19.8100 C   0  0  0  0  0  0  0  0  0  0  0  0
    7.6690   -3.6480   19.6060 C   0  0  0  0  0  0  0  0  0  0  0  0
    5.4940   -3.1480   19.0640 O   0  0  0  0  0  0  0  0  0  0  0  0
  1  2  1  0
  2  3  2  0
  2  4  1  0
  4  5  1  0
  5  6  1  0
  6  7  1  0
  7  8  1  0
  7  9  2  0
  8 10  2  0
  9 11  1  0
 11 10  1  6
  9 12  1  0
 11 13  1  0
 12 14  2  0
 14 15  1  0
 13 16  1  0
 13 17  2  0
 14 17  1  0
 16 18  1  0
 18 19  1  0
 18 20  1  0
 19 21  1  0
 20 22  1  0
 21 23  1  0
 22 23  1  0
 23 24  1  0
 24 25  1  0
 24 26  2  0
M  END
