x0831-x1493
     RDKit          3D

 27 29  0  0  0  0  0  0  0  0999 V2000
   12.7830   -2.0100   22.0850 C   0  0  0  0  0  0  0  0  0  0  0  0
   12.1470   -0.8630   22.7870 C   0  0  0  0  0  0  0  0  0  0  0  0
   12.8610    0.3350   22.8880 C   0  0  0  0  0  0  0  0  0  0  0  0
   10.7460   -1.0000   23.3650 C   0  0  0  0  0  0  0  0  0  0  0  0
    9.8450   -2.2010   23.3150 C   0  0  0  0  0  0  0  0  0  0  0  0
   10.2400    0.2680   24.0450 C   0  0  0  0  0  0  0  0  0  0  0  0
   12.2890    1.4390   23.5240 C   0  0  0  0  0  0  0  0  0  0  0  0
   11.0120    1.4140   24.0930 C   0  0  0  0  0  0  0  0  0  0  0  0
    8.5330   -1.7020   22.8900 N   0  0  0  0  0  0  0  0  0  0  0  0
    8.5440   -1.3070   21.4550 C   0  0  0  0  0  0  0  0  0  0  0  0
    7.3400   -2.3870   23.4790 C   0  0  0  0  0  0  0  0  0  0  0  0
    7.4550   -0.4710   21.1760 C   0  0  0  0  0  0  0  0  0  0  0  0
    6.7140   -3.3360   22.4380 C   0  0  1  0  0  0  0  0  0  0  0  0
    6.5020   -2.6290   21.1610 N   0  0  0  0  0  0  0  0  0  0  0  0
    6.2470   -1.1950   21.1940 C   0  0  0  0  0  0  0  0  0  0  0  0
    7.4980   -4.6200   22.3960 C   0  0  1  0  0  0  0  0  0  0  0  0
    6.3920   -3.3870   19.9680 C   0  0  0  0  0  0  0  0  0  0  0  0
    7.5930   -5.1580   23.6600 C   0  0  0  0  0  0  0  0  0  0  0  0
    6.8170   -5.5330   21.4900 N   0  0  0  0  0  0  0  0  0  0  0  0
    5.5400   -4.2760   19.8280 O   0  0  0  0  0  0  0  0  0  0  0  0
    7.3860   -3.0510   18.8400 C   0  0  0  0  0  0  0  0  0  0  0  0
    6.2850   -5.3670   24.3290 N   0  0  0  0  0  0  0  0  0  0  0  0
    5.8520   -6.4290   22.1160 C   0  0  0  0  0  0  0  0  0  0  0  0
    6.2200   -5.5590   25.7880 C   0  0  0  0  0  0  0  0  0  0  0  0
    5.2510   -5.8710   23.3960 C   0  0  0  0  0  0  0  0  0  0  0  0
    4.8410   -5.9860   26.3250 C   0  0  0  0  0  0  0  0  0  0  0  0
    7.1780   -5.4240   26.5450 O   0  0  0  0  0  0  0  0  0  0  0  0
  1  2  1  0
  2  3  2  0
  2  4  1  0
  4  5  1  0
  4  6  2  0
  3  7  1  0
  6  8  1  0
  7  8  2  0
  5  9  1  0
  9 10  1  0
  9 11  1  0
 10 12  1  0
 13 11  1  1
 13 14  1  0
 12 15  1  0
 14 15  1  0
 13 16  1  0
 14 17  1  0
 16 18  1  1
 16 19  1  0
 17 20  2  0
 17 21  1  0
 18 22  1  0
 19 23  1  0
 22 24  1  0
 22 25  1  0
 23 25  1  0
 24 26  1  0
 24 27  2  0
M  END
