x0831-x1380
     RDKit          3D

 30 33  0  0  0  0  0  0  0  0999 V2000
   12.2090   -2.2070   22.1220 C   0  0  0  0  0  0  0  0  0  0  0  0
   11.7290   -0.9350   22.8290 C   0  0  0  0  0  0  0  0  0  0  0  0
   12.5400    0.1980   22.7470 C   0  0  0  0  0  0  0  0  0  0  0  0
   10.3620   -1.0050   23.5910 C   0  0  0  0  0  0  0  0  0  0  0  0
    9.4170   -2.2380   23.7350 C   0  0  0  0  0  0  0  0  0  0  0  0
    9.9590    0.3080   24.2560 C   0  0  0  0  0  0  0  0  0  0  0  0
   12.1460    1.5120   23.4000 C   0  0  0  0  0  0  0  0  0  0  0  0
   10.8590    1.5470   24.1410 C   0  0  0  0  0  0  0  0  0  0  0  0
    8.2150   -2.0880   23.0090 N   0  0  0  0  0  0  0  0  0  0  0  0
    8.4430   -1.5750   21.6860 C   0  0  0  0  0  0  0  0  0  0  0  0
    6.8850   -2.7440   23.3190 C   0  0  1  0  0  0  0  0  0  0  0  0
    7.5260   -0.5920   21.2670 C   0  0  0  0  0  0  0  0  0  0  0  0
    6.1650   -3.3400   22.1320 C   0  0  1  0  0  0  0  0  0  0  0  0
    6.6050   -3.6820   24.3360 C   0  0  2  0  0  0  0  0  0  0  0  0
    6.2140   -3.0890   25.6810 C   0  0  0  0  0  0  0  0  0  0  0  0
    6.3320   -2.5760   20.9290 N   0  0  0  0  0  0  0  0  0  0  0  0
    6.3370   -1.1550   20.9650 C   0  0  0  0  0  0  0  0  0  0  0  0
    6.7170   -4.6240   21.7460 N   0  0  0  0  0  0  0  0  0  0  0  0
    7.3130   -4.9800   24.0060 C   0  0  0  0  0  0  0  0  0  0  0  0
    6.1990   -3.2050   19.7230 C   0  0  0  0  0  0  0  0  0  0  0  0
    5.2840   -2.2720   25.6990 O   0  0  0  0  0  0  0  0  0  0  0  0
    6.7400   -5.6110   22.7400 C   0  0  0  0  0  0  0  0  0  0  0  0
    6.8500   -3.4770   26.9140 N   0  0  0  0  0  0  0  0  0  0  0  0
    5.2490   -3.9600   19.5520 O   0  0  0  0  0  0  0  0  0  0  0  0
    7.2900   -2.9660   18.6930 C   0  0  0  0  0  0  0  0  0  0  0  0
    7.7280   -4.6060   26.8960 C   0  0  0  0  0  0  0  0  0  0  0  0
    6.2130   -3.3350   28.1680 C   0  0  0  0  0  0  0  0  0  0  0  0
    8.4070   -5.0190   28.1830 C   0  0  0  0  0  0  0  0  0  0  0  0
    6.1020   -4.4810   28.8310 C   0  0  0  0  0  0  0  0  0  0  0  0
    7.0750   -5.4930   28.2580 C   0  0  0  0  0  0  0  0  0  0  0  0
  1  2  1  0
  2  3  2  0
  2  4  1  0
  4  5  1  0
  4  6  2  0
  3  7  1  0
  6  8  1  0
  7  8  2  0
  5  9  1  0
  9 10  1  0
 11  9  1  6
 10 12  1  0
 11 13  1  0
 11 14  1  0
 14 15  1  1
 13 16  1  0
 12 17  1  0
 16 17  1  0
 13 18  1  6
 14 19  1  0
 16 20  1  0
 15 21  2  0
 18 22  1  0
 19 22  1  0
 15 23  1  0
 20 24  2  0
 20 25  1  0
 23 26  1  0
 23 27  1  0
 26 28  1  0
 27 29  1  0
 28 30  1  0
 29 30  1  0
M  END
