x0831-x1418-x2779-x0770-x0759-x0734
     RDKit          3D

 31 34  0  0  0  0  0  0  0  0999 V2000
    5.2640   -4.8980   26.0910 N   0  0  0  0  0  0  0  0  0  0  0  0
    6.7030   -5.0470   26.2290 C   0  0  0  0  0  0  0  0  0  0  0  0
    7.1810   -5.4790   27.4780 C   0  0  0  0  0  0  0  0  0  0  0  0
    4.6520   -5.7350   25.4140 O   0  0  0  0  0  0  0  0  0  0  0  0
    4.7380   -3.9440   26.6870 O   0  0  0  0  0  0  0  0  0  0  0  0
    7.6270   -4.7850   25.1800 C   0  0  0  0  0  0  0  0  0  0  0  0
    8.9860   -4.9520   25.4440 C   0  0  0  0  0  0  0  0  0  0  0  0
    8.5430   -5.6490   27.6930 C   0  0  0  0  0  0  0  0  0  0  0  0
    7.2120   -4.3900   23.8960 N   0  0  0  0  0  0  0  0  0  0  0  0
    9.4430   -5.3820   26.6760 C   0  0  0  0  0  0  0  0  0  0  0  0
    6.8000   -5.5490   23.0610 C   0  0  0  0  0  0  0  0  0  0  0  0
    7.5310   -3.0360   23.2860 C   0  0  2  0  0  0  0  0  0  0  0  0
    5.9300   -5.2360   21.8710 C   0  0  0  0  0  0  0  0  0  0  0  0
    6.9750   -2.9910   21.7820 C   0  0  1  0  0  0  0  0  0  0  0  0
    8.7540   -2.1640   23.2640 N   0  0  0  0  0  0  0  0  0  0  0  0
    9.9850   -2.2890   24.0420 C   0  0  0  0  0  0  0  0  0  0  0  0
    6.4400   -4.1220   21.1190 N   0  0  0  0  0  0  0  0  0  0  0  0
    5.9450   -2.0160   21.5280 N   0  0  0  0  0  0  0  0  0  0  0  0
    9.0010   -1.3850   22.0020 C   0  0  0  0  0  0  0  0  0  0  0  0
    6.0220   -3.8530   19.8660 C   0  0  0  0  0  0  0  0  0  0  0  0
   10.8320   -1.0430   23.8370 C   0  0  0  0  0  0  0  0  0  0  0  0
    6.4760   -0.7000   21.7700 C   0  0  0  0  0  0  0  0  0  0  0  0
    7.9250   -0.4850   21.3440 C   0  0  0  0  0  0  0  0  0  0  0  0
    4.9060   -4.1290   19.5250 O   0  0  0  0  0  0  0  0  0  0  0  0
    7.0600   -3.1840   18.9640 C   0  0  0  0  0  0  0  0  0  0  0  0
   12.0740   -1.0130   23.1440 C   0  0  0  0  0  0  0  0  0  0  0  0
   10.3360    0.1650   24.3430 C   0  0  0  0  0  0  0  0  0  0  0  0
   12.7150   -2.2180   22.5350 C   0  0  0  0  0  0  0  0  0  0  0  0
   11.0250    1.3560   24.1740 C   0  0  0  0  0  0  0  0  0  0  0  0
   12.7550    0.2020   22.9960 C   0  0  0  0  0  0  0  0  0  0  0  0
   12.2330    1.3770   23.5040 C   0  0  0  0  0  0  0  0  0  0  0  0
  1  2  1  0
  2  3  2  0
  1  4  2  0
  1  5  1  0
  2  6  1  0
  6  7  2  0
  3  8  1  0
  6  9  1  0
  7 10  1  0
  8 10  2  0
  9 11  1  0
 12  9  1  6
 11 13  1  0
 12 14  1  0
 12 15  1  0
 15 16  1  0
 13 17  1  0
 14 17  1  0
 14 18  1  1
 15 19  1  0
 17 20  1  0
 16 21  1  0
 18 22  1  0
 19 23  1  0
 22 23  1  0
 20 24  2  0
 20 25  1  0
 21 26  2  0
 21 27  1  0
 26 28  1  0
 27 29  2  0
 26 30  1  0
 29 31  1  0
 30 31  2  0
M  CHG  2   1   1   5  -1
M  END
