x0831-x0946
     RDKit          3D

 26 28  0  0  0  0  0  0  0  0999 V2000
   12.7560   -2.3230   22.7130 C   0  0  0  0  0  0  0  0  0  0  0  0
   12.1310   -0.9710   23.0310 C   0  0  0  0  0  0  0  0  0  0  0  0
   12.8110    0.2130   22.8310 C   0  0  0  0  0  0  0  0  0  0  0  0
   10.6910   -1.0360   23.5710 C   0  0  0  0  0  0  0  0  0  0  0  0
    9.8760   -2.2840   23.7860 C   0  0  0  0  0  0  0  0  0  0  0  0
   10.1270    0.2290   23.8560 C   0  0  0  0  0  0  0  0  0  0  0  0
   12.3360    1.4600   23.0520 C   0  0  0  0  0  0  0  0  0  0  0  0
   10.9080    1.5180   23.6030 C   0  0  0  0  0  0  0  0  0  0  0  0
    8.5800   -1.9900   23.1380 N   0  0  0  0  0  0  0  0  0  0  0  0
   13.0690    2.6030   22.7930 C   0  0  0  0  0  0  0  0  0  0  0  0
    8.7400   -1.6400   21.7690 C   0  0  0  0  0  0  0  0  0  0  0  0
    7.5500   -3.0190   23.4180 C   0  0  0  0  0  0  0  0  0  0  0  0
   12.4600    3.9690   23.0450 C   0  0  0  0  0  0  0  0  0  0  0  0
   10.3520    2.7790   23.8460 C   0  0  0  0  0  0  0  0  0  0  0  0
    7.6610   -0.8820   21.2840 C   0  0  0  0  0  0  0  0  0  0  0  0
    7.0400   -3.5800   22.2420 C   0  0  0  0  0  0  0  0  0  0  0  0
   11.0230    3.9790   23.6020 C   0  0  0  0  0  0  0  0  0  0  0  0
   10.3800    5.5900   23.8650 S   0  0  0  0  0  0  0  0  0  0  0  0
    6.3350   -2.8570   21.2760 N   0  0  0  0  0  0  0  0  0  0  0  0
    6.3920   -1.4790   21.3570 C   0  0  0  0  0  0  0  0  0  0  0  0
    6.2010   -3.4520   20.0100 C   0  0  0  0  0  0  0  0  0  0  0  0
    9.0590    5.5650   22.7950 N   0  0  0  0  0  0  0  0  0  0  0  0
    9.8750    5.6870   25.2160 O   0  0  0  0  0  0  0  0  0  0  0  0
   11.3460    6.5360   23.3530 O   0  0  0  0  0  0  0  0  0  0  0  0
    5.3310   -4.2980   19.8010 O   0  0  0  0  0  0  0  0  0  0  0  0
    7.1910   -3.0360   18.9110 C   0  0  0  0  0  0  0  0  0  0  0  0
  1  2  1  0
  2  3  2  0
  2  4  1  0
  4  5  1  0
  4  6  2  0
  3  7  1  0
  6  8  1  0
  7  8  2  0
  5  9  1  0
  7 10  1  0
  9 11  1  0
  9 12  1  0
 10 13  2  0
  8 14  1  0
 11 15  1  0
 12 16  1  0
 13 17  1  0
 14 17  2  0
 17 18  1  0
 16 19  1  0
 15 20  1  0
 19 20  1  0
 19 21  1  0
 18 22  1  0
 18 23  2  0
 18 24  2  0
 21 25  2  0
 21 26  1  0
M  END
