x0830-x0978
     RDKit          3D

 33 35  0  0  0  0  0  0  0  0999 V2000
    1.8490   -5.7960   23.2660 N   0  0  0  0  0  0  0  0  0  0  0  0
    3.1200   -6.5350   23.3140 C   0  0  2  0  0  0  0  0  0  0  0  0
    3.2790   -7.3940   24.5710 C   0  0  1  0  0  0  0  0  0  0  0  0
    0.6720   -6.3540   22.5110 C   0  0  0  0  0  0  0  0  0  0  0  0
    0.5800   -7.3260   21.7730 O   0  0  0  0  0  0  0  0  0  0  0  0
   -0.3910   -5.3170   22.9550 C   0  0  0  0  0  0  0  0  0  0  0  0
    4.2710   -5.5310   23.1230 C   0  0  0  0  0  0  0  0  0  0  0  0
    2.0540   -8.2600   24.7500 C   0  0  0  0  0  0  0  0  0  0  0  0
    4.3640   -7.9380   24.4650 O   0  0  0  0  0  0  0  0  0  0  0  0
    5.4990   -6.0980   22.4610 N   0  0  0  0  0  0  0  0  0  0  0  0
    4.1840   -4.3620   23.4980 O   0  0  0  0  0  0  0  0  0  0  0  0
    5.8930   -5.1330   21.4400 C   0  0  0  0  0  0  0  0  0  0  0  0
    7.1480   -4.5230   21.6760 C   0  0  0  0  0  0  0  0  0  0  0  0
    7.0960   -3.1260   21.3040 C   0  0  0  0  0  0  0  0  0  0  0  0
    6.5840   -3.2850   19.8310 C   0  0  0  0  0  0  0  0  0  0  0  0
    6.3190   -2.4390   22.1960 C   0  0  0  0  0  0  0  0  0  0  0  0
    8.2780   -2.3380   21.1500 C   0  0  0  0  0  0  0  0  0  0  0  0
    7.5350   -3.0410   18.6610 C   0  0  0  0  0  0  0  0  0  0  0  0
    5.4610   -3.6960   19.5150 O   0  0  0  0  0  0  0  0  0  0  0  0
    7.1240   -2.4610   23.5330 C   0  0  0  0  0  0  0  0  0  0  0  0
    8.4940   -1.3460   22.0570 C   0  0  0  0  0  0  0  0  0  0  0  0
    8.4570   -1.7780   23.2840 N   0  0  0  0  0  0  0  0  0  0  0  0
    9.6600   -2.3900   23.6900 C   0  0  0  0  0  0  0  0  0  0  0  0
   10.8050   -1.5070   23.4010 C   0  0  0  0  0  0  0  0  0  0  0  0
   12.0830   -2.0410   22.7330 C   0  0  0  0  0  0  0  0  0  0  0  0
   10.7700   -0.1410   23.6940 C   0  0  0  0  0  0  0  0  0  0  0  0
   13.1100   -1.1420   22.4630 C   0  0  0  0  0  0  0  0  0  0  0  0
   11.8960    0.7150   23.3510 C   0  0  0  0  0  0  0  0  0  0  0  0
    9.6160    0.3920   24.3200 C   0  0  0  0  0  0  0  0  0  0  0  0
   13.0250    0.2120   22.7640 C   0  0  0  0  0  0  0  0  0  0  0  0
   11.7710    2.0440   23.6290 C   0  0  0  0  0  0  0  0  0  0  0  0
    9.5330    1.7240   24.5890 C   0  0  0  0  0  0  0  0  0  0  0  0
   10.6080    2.5010   24.2240 C   0  0  0  0  0  0  0  0  0  0  0  0
  2  1  1  1
  2  3  1  0
  1  4  1  0
  4  5  2  0
  4  6  1  0
  2  7  1  0
  3  8  1  6
  3  9  1  0
  7 10  1  0
  7 11  2  0
 10 12  1  0
 12 13  1  0
 13 14  1  0
 14 15  1  0
 14 16  1  0
 14 17  1  0
 15 18  1  0
 15 19  2  0
 16 20  1  0
 17 21  1  0
 20 22  1  0
 21 22  1  0
 22 23  1  0
 23 24  1  0
 24 25  2  0
 24 26  1  0
 25 27  1  0
 26 28  2  0
 26 29  1  0
 27 30  2  0
 28 30  1  0
 28 31  1  0
 29 32  2  0
 31 33  2  0
 32 33  1  0
M  END
