x0831-x0995
     RDKit          3D

 26 28  0  0  0  0  0  0  0  0999 V2000
   12.8810   -2.0490   22.2660 C   0  0  0  0  0  0  0  0  0  0  0  0
   12.1610   -0.9080   22.9330 C   0  0  0  0  0  0  0  0  0  0  0  0
   12.7840    0.3560   22.8950 C   0  0  0  0  0  0  0  0  0  0  0  0
   10.9000   -1.0990   23.5650 C   0  0  0  0  0  0  0  0  0  0  0  0
   10.1390   -2.3880   23.6530 C   0  0  0  0  0  0  0  0  0  0  0  0
   10.3360    0.1800   24.1680 C   0  0  0  0  0  0  0  0  0  0  0  0
   12.2780    1.5400   23.4360 C   0  0  0  0  0  0  0  0  0  0  0  0
   11.0770    1.4940   24.0680 C   0  0  0  0  0  0  0  0  0  0  0  0
    8.7950   -2.1860   23.1110 N   0  0  0  0  0  0  0  0  0  0  0  0
    8.9050   -1.8420   21.6850 C   0  0  0  0  0  0  0  0  0  0  0  0
    7.8810   -3.2810   23.5220 C   0  0  0  0  0  0  0  0  0  0  0  0
    7.8190   -1.0270   21.3800 C   0  0  0  0  0  0  0  0  0  0  0  0
    7.0890   -3.9410   22.3910 C   0  0  0  0  0  0  0  0  0  0  0  0
    6.6260   -3.0460   21.3200 N   0  0  0  0  0  0  0  0  0  0  0  0
    6.5740   -1.6180   21.5860 C   0  0  2  0  0  0  0  0  0  0  0  0
    6.3840   -3.5650   20.0410 C   0  0  0  0  0  0  0  0  0  0  0  0
    5.3760   -1.1090   20.9290 C   0  0  0  0  0  0  0  0  0  0  0  0
    5.4550   -4.3500   19.8330 O   0  0  0  0  0  0  0  0  0  0  0  0
    7.3430   -3.1110   18.9360 C   0  0  0  0  0  0  0  0  0  0  0  0
    5.5510   -0.1470   19.9690 N   0  0  0  0  0  0  0  0  0  0  0  0
    5.9660   -0.7160   18.6650 C   0  0  0  0  0  0  0  0  0  0  0  0
    4.4020    0.5780   20.0220 C   0  0  0  0  0  0  0  0  0  0  0  0
    4.2380    1.6200   19.0540 C   0  0  1  0  0  0  0  0  0  0  0  0
    5.5990    0.1260   17.5330 N   0  0  0  0  0  0  0  0  0  0  0  0
    4.2070    2.9250   19.6940 N   0  0  0  0  0  0  0  0  0  0  0  0
    5.3600    1.4490   18.0250 C   0  0  0  0  0  0  0  0  0  0  0  0
  1  2  1  0
  2  3  2  0
  2  4  1  0
  4  5  1  0
  4  6  2  0
  3  7  1  0
  6  8  1  0
  7  8  2  0
  5  9  1  0
  9 10  1  0
  9 11  1  0
 10 12  1  0
 11 13  1  0
 13 14  1  0
 12 15  1  0
 14 15  1  0
 14 16  1  0
 15 17  1  6
 16 18  2  0
 16 19  1  0
 17 20  1  0
 20 21  1  0
 20 22  1  0
 22 23  1  0
 21 24  1  0
 23 25  1  1
 23 26  1  0
 24 26  1  0
M  END
