x0830-x0426
     RDKit          3D

 41 46  0  0  0  0  0  0  0  0999 V2000
    7.5160   -3.6720   19.6550 C   0  0  0  0  0  0  0  0  0  0  0  0
    6.4210   -3.1310   20.0470 C   0  0  0  0  0  0  0  0  0  0  0  0
    5.4370   -3.3450   19.3090 O   0  0  0  0  0  0  0  0  0  0  0  0
    6.4490   -2.4690   21.2660 N   0  0  0  0  0  0  0  0  0  0  0  0
    6.2100   -3.1930   22.5810 C   0  0  0  0  0  0  0  0  0  0  0  0
    7.2990   -1.2940   21.3710 C   0  0  2  0  0  0  0  0  0  0  0  0
    7.7260   -3.4570   22.9150 C   0  0  0  0  0  0  0  0  0  0  0  0
    8.6070   -1.4880   21.8140 C   0  0  0  0  0  0  0  0  0  0  0  0
    6.6120   -0.3430   22.3860 C   0  0  0  0  0  0  0  0  0  0  0  0
    8.5760   -2.4080   22.9780 N   0  0  0  0  0  0  0  0  0  0  0  0
    6.5060    1.1290   21.9600 C   0  0  2  0  0  0  0  0  0  0  0  0
    9.8410   -2.5710   23.7300 C   0  0  0  0  0  0  0  0  0  0  0  0
    5.6810    1.8380   22.8410 C   0  0  0  0  0  0  0  0  0  0  0  0
    6.0510    1.1100   20.6190 C   0  0  0  0  0  0  0  0  0  0  0  0
   10.9600   -1.5360   23.4060 C   0  0  0  0  0  0  0  0  0  0  0  0
    4.2120    1.7100   22.4860 C   0  0  1  0  0  0  0  0  0  0  0  0
    6.9140    0.6180   19.4890 C   0  0  0  0  0  0  0  0  0  0  0  0
    4.6560    1.5840   20.2080 C   0  0  0  0  0  0  0  0  0  0  0  0
   12.2090   -2.0320   22.7320 C   0  0  0  0  0  0  0  0  0  0  0  0
   10.7520   -0.1980   23.7320 C   0  0  0  0  0  0  0  0  0  0  0  0
    3.4720    2.3530   23.4190 N   0  0  0  0  0  0  0  0  0  0  0  0
    3.7070    2.0700   21.2350 C   0  0  0  0  0  0  0  0  0  0  0  0
    6.4420    0.6210   18.1270 N   0  0  0  0  0  0  0  0  0  0  0  0
    4.2530    1.5580   18.7770 C   0  0  0  0  0  0  0  0  0  0  0  0
   13.1900   -1.1090   22.4270 C   0  0  0  0  0  0  0  0  0  0  0  0
   11.7100    0.7730   23.4290 C   0  0  0  0  0  0  0  0  0  0  0  0
    9.5630    0.2020   24.3670 C   0  0  0  0  0  0  0  0  0  0  0  0
    2.2730    1.6970   23.9610 C   0  0  0  0  0  0  0  0  0  0  0  0
    5.1060    1.1050   17.8010 C   0  0  0  0  0  0  0  0  0  0  0  0
   12.9840    0.3470   22.7700 C   0  0  0  0  0  0  0  0  0  0  0  0
   11.3700    2.2110   23.7870 C   0  0  0  0  0  0  0  0  0  0  0  0
    9.2770    1.5080   24.6880 C   0  0  0  0  0  0  0  0  0  0  0  0
    2.1050    0.3500   23.9020 O   0  0  0  0  0  0  0  0  0  0  0  0
    1.2200    2.5290   24.6030 C   0  0  0  0  0  0  0  0  0  0  0  0
   10.1640    2.5020   24.3920 C   0  0  0  0  0  0  0  0  0  0  0  0
    1.5410    3.8920   25.2740 C   0  0  0  0  0  0  0  0  0  0  0  0
   -0.0860    2.0210   24.5770 C   0  0  0  0  0  0  0  0  0  0  0  0
    2.7900    4.3770   25.2970 F   0  0  0  0  0  0  0  0  0  0  0  0
   -1.1820    2.8880   25.2520 C   0  0  0  0  0  0  0  0  0  0  0  0
    0.5360    4.6640   25.8800 C   0  0  0  0  0  0  0  0  0  0  0  0
   -0.8880    4.1010   25.8490 C   0  0  0  0  0  0  0  0  0  0  0  0
  1  2  1  0
  2  3  2  0
  2  4  1  0
  4  5  1  0
  4  6  1  0
  5  7  1  0
  6  8  1  0
  6  9  1  1
  7 10  1  0
  8 10  1  0
 11  9  1  1
 10 12  1  0
 11 13  1  0
 11 14  1  0
 12 15  1  0
 13 16  1  0
 14 17  1  0
 14 18  2  0
 15 19  2  0
 15 20  1  0
 16 21  1  1
 16 22  1  0
 18 22  1  0
 17 23  2  0
 18 24  1  0
 19 25  1  0
 20 26  2  0
 20 27  1  0
 21 28  1  0
 23 29  1  0
 24 29  2  0
 25 30  2  0
 26 30  1  0
 26 31  1  0
 27 32  2  0
 28 33  2  0
 28 34  1  0
 31 35  2  0
 32 35  1  0
 34 36  2  0
 34 37  1  0
 36 38  1  0
 37 39  2  0
 36 40  1  0
 39 41  1  0
 40 41  2  0
M  END
