x0831-x0426
     RDKit          3D

 38 42  0  0  0  0  0  0  0  0999 V2000
   12.7600   -2.1590   22.2630 C   0  0  0  0  0  0  0  0  0  0  0  0
   12.1540   -0.9270   22.9360 C   0  0  0  0  0  0  0  0  0  0  0  0
   12.7680    0.3040   22.9410 C   0  0  0  0  0  0  0  0  0  0  0  0
   10.9180   -1.0960   23.5510 C   0  0  0  0  0  0  0  0  0  0  0  0
   10.1280   -2.3640   23.6060 C   0  0  0  0  0  0  0  0  0  0  0  0
   10.3790    0.0410   24.1450 C   0  0  0  0  0  0  0  0  0  0  0  0
   12.1850    1.4180   23.5430 C   0  0  0  0  0  0  0  0  0  0  0  0
   10.9320    1.3280   24.1860 C   0  0  0  0  0  0  0  0  0  0  0  0
    8.7540   -2.2100   23.0930 N   0  0  0  0  0  0  0  0  0  0  0  0
    8.7850   -1.3290   21.9350 C   0  0  0  0  0  0  0  0  0  0  0  0
    8.0730   -3.4690   22.7520 C   0  0  0  0  0  0  0  0  0  0  0  0
    7.6320   -0.6150   21.9680 C   0  0  0  0  0  0  0  0  0  0  0  0
    6.6580   -3.2780   22.6380 C   0  0  0  0  0  0  0  0  0  0  0  0
    6.2740   -2.7240   21.3170 N   0  0  0  0  0  0  0  0  0  0  0  0
    6.5260   -1.2600   21.1570 C   0  0  1  0  0  0  0  0  0  0  0  0
    6.2250   -3.4570   20.0830 C   0  0  0  0  0  0  0  0  0  0  0  0
    5.2410   -0.4440   21.1710 C   0  0  1  0  0  0  0  0  0  0  0  0
    5.4450   -4.4010   19.8870 O   0  0  0  0  0  0  0  0  0  0  0  0
    7.1840   -3.0420   18.9470 C   0  0  0  0  0  0  0  0  0  0  0  0
    4.8140    0.3960   22.4080 C   0  0  0  0  0  0  0  0  0  0  0  0
    5.2320    0.3350   19.9080 C   0  0  0  0  0  0  0  0  0  0  0  0
    4.1460    1.7780   22.1380 C   0  0  2  0  0  0  0  0  0  0  0  0
    6.1640   -0.0430   18.7860 C   0  0  0  0  0  0  0  0  0  0  0  0
    4.3780    1.3970   19.7640 C   0  0  0  0  0  0  0  0  0  0  0  0
    3.4380    2.3330   23.2180 N   0  0  0  0  0  0  0  0  0  0  0  0
    3.4740    1.7630   20.8930 C   0  0  0  0  0  0  0  0  0  0  0  0
    6.0990    0.7560   17.5840 N   0  0  0  0  0  0  0  0  0  0  0  0
    4.3690    2.1090   18.5920 C   0  0  0  0  0  0  0  0  0  0  0  0
    2.3000    1.6370   23.8560 C   0  0  0  0  0  0  0  0  0  0  0  0
    5.2200    1.7610   17.5580 C   0  0  0  0  0  0  0  0  0  0  0  0
    2.1620    0.4160   23.8790 O   0  0  0  0  0  0  0  0  0  0  0  0
    1.2290    2.4820   24.5370 C   0  0  0  0  0  0  0  0  0  0  0  0
    1.4910    3.6960   25.1660 C   0  0  0  0  0  0  0  0  0  0  0  0
   -0.1240    2.0820   24.5810 C   0  0  0  0  0  0  0  0  0  0  0  0
    2.7500    4.1530   25.1710 F   0  0  0  0  0  0  0  0  0  0  0  0
   -1.1230    2.9190   25.2510 C   0  0  0  0  0  0  0  0  0  0  0  0
    0.5530    4.4880   25.7970 C   0  0  0  0  0  0  0  0  0  0  0  0
   -0.7740    4.1200   25.8560 C   0  0  0  0  0  0  0  0  0  0  0  0
  1  2  1  0
  2  3  2  0
  2  4  1  0
  4  5  1  0
  4  6  2  0
  3  7  1  0
  6  8  1  0
  7  8  2  0
  5  9  1  0
  9 10  1  0
  9 11  1  0
 10 12  1  0
 11 13  1  0
 13 14  1  0
 15 12  1  1
 14 15  1  0
 14 16  1  0
 15 17  1  0
 16 18  2  0
 16 19  1  0
 17 20  1  1
 17 21  1  0
 20 22  1  0
 21 23  1  0
 21 24  2  0
 22 25  1  1
 22 26  1  0
 24 26  1  0
 23 27  2  0
 24 28  1  0
 25 29  1  0
 27 30  1  0
 28 30  2  0
 29 31  2  0
 29 32  1  0
 32 33  2  0
 32 34  1  0
 33 35  1  0
 34 36  2  0
 33 37  1  0
 36 38  1  0
 37 38  2  0
M  END
