x0830-x0981
     RDKit          3D

 34 36  0  0  0  0  0  0  0  0999 V2000
    1.2270   -8.7710   21.2800 C   0  0  0  0  0  0  0  0  0  0  0  0
    1.2780   -7.4960   22.0790 C   0  0  0  0  0  0  0  0  0  0  0  0
    2.4540   -7.2670   22.7560 N   0  0  0  0  0  0  0  0  0  0  0  0
    0.3380   -6.7100   22.1040 O   0  0  0  0  0  0  0  0  0  0  0  0
    2.6010   -6.0480   23.5720 C   0  0  1  0  0  0  0  0  0  0  0  0
    2.4720   -6.3470   25.0540 C   0  0  0  0  0  0  0  0  0  0  0  0
    3.9770   -5.3890   23.3720 C   0  0  0  0  0  0  0  0  0  0  0  0
    5.0050   -6.0770   22.7960 N   0  0  0  0  0  0  0  0  0  0  0  0
    4.1470   -4.2370   23.7610 O   0  0  0  0  0  0  0  0  0  0  0  0
    2.9840   -7.7690   25.3290 C   0  0  0  0  0  0  0  0  0  0  0  0
    2.3670   -8.5000   26.2860 N   0  0  0  0  0  0  0  0  0  0  0  0
    3.9200   -8.2310   24.7110 O   0  0  0  0  0  0  0  0  0  0  0  0
    6.3350   -5.5190   23.0580 C   0  0  0  0  0  0  0  0  0  0  0  0
    6.7120   -4.6220   22.0890 C   0  0  0  0  0  0  0  0  0  0  0  0
    6.4990   -3.2470   22.3910 C   0  0  2  0  0  0  0  0  0  0  0  0
    6.5530   -2.3450   21.2080 N   0  0  0  0  0  0  0  0  0  0  0  0
    7.4820   -2.7780   23.2620 C   0  0  0  0  0  0  0  0  0  0  0  0
    6.4720   -3.0530   19.9890 C   0  0  0  0  0  0  0  0  0  0  0  0
    8.7210   -2.5230   22.7760 N   0  0  0  0  0  0  0  0  0  0  0  0
    7.5010   -1.2100   21.3580 C   0  0  0  0  0  0  0  0  0  0  0  0
    7.7530   -3.4850   19.3860 C   0  0  0  0  0  0  0  0  0  0  0  0
    5.4430   -3.4230   19.3850 O   0  0  0  0  0  0  0  0  0  0  0  0
    9.6910   -2.4910   23.7500 C   0  0  0  0  0  0  0  0  0  0  0  0
    8.7940   -1.5280   21.8050 C   0  0  0  0  0  0  0  0  0  0  0  0
   10.8120   -1.5280   23.4370 C   0  0  0  0  0  0  0  0  0  0  0  0
   12.0110   -2.0690   22.7820 C   0  0  0  0  0  0  0  0  0  0  0  0
   10.7360   -0.1190   23.7370 C   0  0  0  0  0  0  0  0  0  0  0  0
   13.1880   -1.0860   22.4240 C   0  0  0  0  0  0  0  0  0  0  0  0
   11.7900    0.7510   23.3940 C   0  0  0  0  0  0  0  0  0  0  0  0
    9.5720    0.3480   24.3690 C   0  0  0  0  0  0  0  0  0  0  0  0
   13.0580    0.2480   22.7280 C   0  0  0  0  0  0  0  0  0  0  0  0
   11.6850    2.1160   23.6520 C   0  0  0  0  0  0  0  0  0  0  0  0
    9.4610    1.6900   24.6330 C   0  0  0  0  0  0  0  0  0  0  0  0
   10.5620    2.6660   24.2530 C   0  0  0  0  0  0  0  0  0  0  0  0
  1  2  1  0
  2  3  1  0
  2  4  2  0
  3  5  1  0
  5  6  1  1
  5  7  1  0
  7  8  1  0
  7  9  2  0
  6 10  1  0
 10 11  1  0
 10 12  2  0
  8 13  1  0
 13 14  1  0
 15 14  1  6
 15 16  1  0
 15 17  1  0
 16 18  1  0
 17 19  1  0
 16 20  1  0
 18 21  1  0
 18 22  2  0
 19 23  1  0
 19 24  1  0
 20 24  1  0
 23 25  1  0
 25 26  2  0
 25 27  1  0
 26 28  1  0
 27 29  2  0
 27 30  1  0
 28 31  2  0
 29 31  1  0
 29 32  1  0
 30 33  2  0
 32 34  2  0
 33 34  1  0
M  END
