x0831-x0540-x0104
     RDKit          3D

 46 50  0  0  0  0  0  0  0  0999 V2000
    8.9820    6.5330   22.6340 C   0  0  0  0  0  0  0  0  0  0  0  0
   10.2680    6.1450   23.4260 C   0  0  0  0  0  0  0  0  0  0  0  0
   10.3720    6.2420   24.6480 O   0  0  0  0  0  0  0  0  0  0  0  0
   11.3000    5.6530   22.5110 N   0  0  0  0  0  0  0  0  0  0  0  0
   12.3320    4.8270   23.1710 C   0  0  0  0  0  0  0  0  0  0  0  0
   12.4440    3.5560   22.5810 C   0  0  0  0  0  0  0  0  0  0  0  0
   11.7710    2.3610   23.3100 C   0  0  0  0  0  0  0  0  0  0  0  0
   10.6320    2.4560   24.0280 C   0  0  0  0  0  0  0  0  0  0  0  0
   12.2030    0.9220   23.2740 C   0  0  0  0  0  0  0  0  0  0  0  0
   10.2600    1.2090   24.5060 N   0  0  0  0  0  0  0  0  0  0  0  0
   11.2040    0.2410   24.2100 C   0  0  1  0  0  0  0  0  0  0  0  0
   13.1810    0.2370   22.6090 C   0  0  0  0  0  0  0  0  0  0  0  0
   10.7960   -1.0970   23.6720 C   0  0  0  0  0  0  0  0  0  0  0  0
   12.8940   -1.0910   22.2650 C   0  0  0  0  0  0  0  0  0  0  0  0
   13.6740   -1.8550   21.5540 F   0  0  0  0  0  0  0  0  0  0  0  0
    9.5730   -1.7710   24.1300 C   0  0  0  0  0  0  0  0  0  0  0  0
   11.5990   -1.7320   22.7370 C   0  0  0  0  0  0  0  0  0  0  0  0
    8.6050   -1.9980   23.0790 N   0  0  0  0  0  0  0  0  0  0  0  0
    9.1110   -1.7430   21.7290 C   0  0  0  0  0  0  0  0  0  0  0  0
    7.7840   -3.1320   23.2370 C   0  0  0  0  0  0  0  0  0  0  0  0
    8.0120   -1.1230   20.9570 C   0  0  0  0  0  0  0  0  0  0  0  0
    6.8100   -3.5640   22.2750 C   0  0  0  0  0  0  0  0  0  0  0  0
    6.3450   -2.7600   21.2620 N   0  0  0  0  0  0  0  0  0  0  0  0
    6.7870   -1.4870   21.4590 C   0  0  2  0  0  0  0  0  0  0  0  0
    6.1910   -3.3560   19.9660 C   0  0  0  0  0  0  0  0  0  0  0  0
    5.8730   -0.3250   21.3120 C   0  0  2  0  0  0  0  0  0  0  0  0
    5.3010   -4.1870   19.7650 O   0  0  0  0  0  0  0  0  0  0  0  0
    7.1580   -3.0340   18.8330 C   0  0  0  0  0  0  0  0  0  0  0  0
    4.8890   -0.1130   22.2660 C   0  0  0  0  0  0  0  0  0  0  0  0
    5.6210    0.3190   19.9940 C   0  0  0  0  0  0  0  0  0  0  0  0
    5.0380    1.1330   22.9180 C   0  0  0  0  0  0  0  0  0  0  0  0
    6.5250    0.2070   18.7660 C   0  0  0  0  0  0  0  0  0  0  0  0
    4.4910    1.1070   19.8540 C   0  0  0  0  0  0  0  0  0  0  0  0
    3.9730    2.1230   22.6900 N   0  0  0  0  0  0  0  0  0  0  0  0
    6.3100    0.8000   17.6180 N   0  0  0  0  0  0  0  0  0  0  0  0
    4.2240    1.7500   18.6860 C   0  0  0  0  0  0  0  0  0  0  0  0
    2.8280    2.2500   23.5770 C   0  0  0  0  0  0  0  0  0  0  0  0
    5.0920    1.6180   17.6010 C   0  0  0  0  0  0  0  0  0  0  0  0
    2.6870    1.4100   24.7210 O   0  0  0  0  0  0  0  0  0  0  0  0
    1.8420    3.2770   23.2130 N   0  0  0  0  0  0  0  0  0  0  0  0
    0.6100    3.4060   23.9930 C   0  0  0  0  0  0  0  0  0  0  0  0
    0.5140    4.6900   24.5550 C   0  0  0  0  0  0  0  0  0  0  0  0
   -0.4830    2.9770   23.2230 C   0  0  0  0  0  0  0  0  0  0  0  0
   -0.7380    5.0200   25.0890 C   0  0  0  0  0  0  0  0  0  0  0  0
   -1.7310    3.3750   23.7090 C   0  0  0  0  0  0  0  0  0  0  0  0
   -1.8340    4.6200   24.3250 C   0  0  0  0  0  0  0  0  0  0  0  0
  1  2  1  0
  2  3  2  0
  2  4  1  0
  4  5  1  0
  5  6  1  0
  6  7  1  0
  7  8  1  0
  7  9  2  0
  8 10  2  0
  9 11  1  0
 11 10  1  6
  9 12  1  0
 11 13  1  0
 12 14  2  0
 14 15  1  0
 13 16  1  0
 13 17  2  0
 14 17  1  0
 16 18  1  0
 18 19  1  0
 18 20  1  0
 19 21  1  0
 20 22  1  0
 22 23  1  0
 24 21  1  6
 23 24  1  0
 23 25  1  0
 24 26  1  0
 25 27  2  0
 25 28  1  0
 26 29  1  6
 26 30  1  0
 29 31  1  0
 30 32  2  0
 30 33  1  0
 31 34  1  0
 32 35  1  0
 33 36  2  0
 34 37  1  0
 35 38  2  0
 36 38  1  0
 37 39  2  0
 37 40  1  0
 40 41  1  0
 41 42  1  0
 41 43  1  0
 42 44  1  0
 43 45  1  0
 44 46  1  0
 45 46  1  0
M  END
