x0831-x0981
     RDKit          3D

 31 32  0  0  0  0  0  0  0  0999 V2000
    1.1970   -8.7490   21.3310 C   0  0  0  0  0  0  0  0  0  0  0  0
    1.3540   -7.4510   22.1110 C   0  0  0  0  0  0  0  0  0  0  0  0
    2.5850   -7.1850   22.6980 N   0  0  0  0  0  0  0  0  0  0  0  0
    0.4120   -6.6620   22.1870 O   0  0  0  0  0  0  0  0  0  0  0  0
    2.9230   -6.0170   23.5400 C   0  0  1  0  0  0  0  0  0  0  0  0
    2.6120   -6.3110   24.9990 C   0  0  0  0  0  0  0  0  0  0  0  0
    4.3710   -5.4760   23.4190 C   0  0  0  0  0  0  0  0  0  0  0  0
    5.2190   -5.9600   22.3320 N   0  0  0  0  0  0  0  0  0  0  0  0
    4.7800   -4.6540   24.2410 O   0  0  0  0  0  0  0  0  0  0  0  0
    3.0280   -7.7480   25.3920 C   0  0  0  0  0  0  0  0  0  0  0  0
    2.3760   -8.3390   26.4640 N   0  0  0  0  0  0  0  0  0  0  0  0
    3.9070   -8.2570   24.7210 O   0  0  0  0  0  0  0  0  0  0  0  0
    6.5430   -5.3130   22.1930 C   0  0  0  0  0  0  0  0  0  0  0  0
    6.6910   -3.7920   22.4140 C   0  0  2  0  0  0  0  0  0  0  0  0
    6.4530   -2.9220   21.2460 N   0  0  0  0  0  0  0  0  0  0  0  0
    7.7970   -3.3860   23.1930 C   0  0  0  0  0  0  0  0  0  0  0  0
    6.2490   -3.4270   19.9660 C   0  0  0  0  0  0  0  0  0  0  0  0
    6.2900   -1.4760   21.3280 C   0  0  0  0  0  0  0  0  0  0  0  0
    8.5830   -2.1390   22.9810 N   0  0  0  0  0  0  0  0  0  0  0  0
    5.3200   -4.1970   19.7390 O   0  0  0  0  0  0  0  0  0  0  0  0
    9.9460   -2.3210   23.4900 C   0  0  0  0  0  0  0  0  0  0  0  0
    7.2310   -3.0300   18.8660 C   0  0  0  0  0  0  0  0  0  0  0  0
    7.6330   -0.7200   21.4830 C   0  0  0  0  0  0  0  0  0  0  0  0
    8.6790   -1.6870   21.6850 C   0  0  0  0  0  0  0  0  0  0  0  0
   10.7390   -1.0570   23.4890 C   0  0  0  0  0  0  0  0  0  0  0  0
   11.9970   -0.9520   22.8780 C   0  0  0  0  0  0  0  0  0  0  0  0
   10.2170    0.1200   24.1190 C   0  0  0  0  0  0  0  0  0  0  0  0
   12.6320   -2.1240   22.1870 C   0  0  0  0  0  0  0  0  0  0  0  0
   10.8890    1.3380   24.1370 C   0  0  0  0  0  0  0  0  0  0  0  0
   12.7460    0.2250   22.8520 C   0  0  0  0  0  0  0  0  0  0  0  0
   12.2520    1.5250   23.4890 C   0  0  0  0  0  0  0  0  0  0  0  0
  1  2  1  0
  2  3  1  0
  2  4  2  0
  3  5  1  0
  5  6  1  1
  5  7  1  0
  7  8  1  0
  7  9  2  0
  6 10  1  0
 10 11  1  0
 10 12  2  0
  8 13  1  0
 14 13  1  6
 14 15  1  0
 14 16  1  0
 15 17  1  0
 15 18  1  0
 16 19  1  0
 17 20  2  0
 19 21  1  0
 17 22  1  0
 18 23  1  0
 19 24  1  0
 23 24  1  0
 21 25  1  0
 25 26  2  0
 25 27  1  0
 26 28  1  0
 27 29  2  0
 26 30  1  0
 29 31  1  0
 30 31  2  0
M  END
