x0830-x0786
     RDKit          3D

 35 39  0  0  0  0  0  0  0  0999 V2000
    5.8770   -3.6440   21.8540 N   0  0  0  0  0  0  0  0  0  0  0  0
    5.9080   -4.3410   20.6490 C   0  0  0  0  0  0  0  0  0  0  0  0
    7.1120   -5.1170   20.3330 C   0  0  0  0  0  0  0  0  0  0  0  0
    5.3690   -4.1800   23.0860 C   0  0  0  0  0  0  0  0  0  0  0  0
    6.7670   -2.6430   22.1530 C   0  0  2  0  0  0  0  0  0  0  0  0
    5.0380   -4.2910   19.7880 O   0  0  0  0  0  0  0  0  0  0  0  0
    4.5640   -5.3350   23.0600 C   0  0  0  0  0  0  0  0  0  0  0  0
    5.6580   -3.5580   24.3330 C   0  0  0  0  0  0  0  0  0  0  0  0
    6.9790   -1.9120   20.9090 N   0  0  0  0  0  0  0  0  0  0  0  0
    7.9430   -3.1640   22.6890 C   0  0  0  0  0  0  0  0  0  0  0  0
    4.0230   -5.8890   24.2320 C   0  0  0  0  0  0  0  0  0  0  0  0
    5.1130   -4.0990   25.6750 C   0  0  0  0  0  0  0  0  0  0  0  0
    8.8600   -2.0390   22.9260 N   0  0  0  0  0  0  0  0  0  0  0  0
    7.8940   -0.9480   21.0740 C   0  0  0  0  0  0  0  0  0  0  0  0
    3.1400   -7.1170   24.2140 C   0  0  0  0  0  0  0  0  0  0  0  0
   10.0170   -2.3380   23.7310 C   0  0  0  0  0  0  0  0  0  0  0  0
    4.2530   -5.3200   25.6210 C   0  0  0  0  0  0  0  0  0  0  0  0
    9.1360   -1.3430   21.6720 C   0  0  0  0  0  0  0  0  0  0  0  0
    3.6050   -8.1300   24.7240 O   0  0  0  0  0  0  0  0  0  0  0  0
    2.0680   -7.0550   23.7440 N   0  0  0  0  0  0  0  0  0  0  0  0
   11.1070   -1.4220   23.4300 C   0  0  0  0  0  0  0  0  0  0  0  0
    1.5480   -5.7280   23.2600 C   0  0  0  0  0  0  0  0  0  0  0  0
    0.9510   -7.9710   24.0530 C   0  0  0  0  0  0  0  0  0  0  0  0
   12.2750   -1.8840   22.8360 C   0  0  0  0  0  0  0  0  0  0  0  0
   10.9080   -0.0540   23.7310 C   0  0  0  0  0  0  0  0  0  0  0  0
    0.5400   -5.1440   24.2920 C   0  0  0  0  0  0  0  0  0  0  0  0
   -0.0660   -7.4500   24.9190 C   0  0  0  0  0  0  0  0  0  0  0  0
   13.2870   -1.0260   22.5120 C   0  0  0  0  0  0  0  0  0  0  0  0
   11.9100    0.8500   23.3980 C   0  0  0  0  0  0  0  0  0  0  0  0
    9.6830    0.3270   24.3490 C   0  0  0  0  0  0  0  0  0  0  0  0
   -0.8870   -6.0780   24.2740 S   0  0  0  0  0  0  0  0  0  0  0  0
   13.2030    0.3150   22.7490 C   0  0  0  0  0  0  0  0  0  0  0  0
   11.7560    2.1950   23.6280 C   0  0  0  0  0  0  0  0  0  0  0  0
    9.4260    1.7680   24.6460 C   0  0  0  0  0  0  0  0  0  0  0  0
   10.4680    2.7310   24.2740 C   0  0  0  0  0  0  0  0  0  0  0  0
  1  2  1  0
  2  3  1  0
  1  4  1  0
  5  1  1  6
  2  6  2  0
  4  7  2  0
  4  8  1  0
  5  9  1  0
  5 10  1  0
  7 11  1  0
  8 12  2  0
 10 13  1  0
  9 14  1  0
 11 15  1  0
 13 16  1  0
 11 17  2  0
 12 17  1  0
 13 18  1  0
 14 18  1  0
 15 19  2  0
 15 20  1  0
 16 21  1  0
 20 22  1  0
 20 23  1  0
 21 24  2  0
 21 25  1  0
 22 26  1  0
 23 27  1  0
 24 28  1  0
 25 29  2  0
 25 30  1  0
 26 31  1  0
 27 31  1  0
 28 32  2  0
 29 32  1  0
 29 33  1  0
 30 34  2  0
 33 35  2  0
 34 35  1  0
M  END
