x0831-x1425
     RDKit          3D

 31 34  0  0  0  0  0  0  0  0999 V2000
   12.8500   -2.0130   22.2250 C   0  0  0  0  0  0  0  0  0  0  0  0
   12.1590   -0.8500   22.8780 C   0  0  0  0  0  0  0  0  0  0  0  0
   12.8450    0.3790   22.9000 C   0  0  0  0  0  0  0  0  0  0  0  0
   10.8600   -0.9860   23.4450 C   0  0  0  0  0  0  0  0  0  0  0  0
   10.0420   -2.2330   23.4590 C   0  0  0  0  0  0  0  0  0  0  0  0
   10.3240    0.3000   24.0560 C   0  0  0  0  0  0  0  0  0  0  0  0
   12.3620    1.5670   23.4480 C   0  0  0  0  0  0  0  0  0  0  0  0
   11.1360    1.5670   24.0230 C   0  0  0  0  0  0  0  0  0  0  0  0
    8.7080   -1.9790   22.9100 N   0  0  0  0  0  0  0  0  0  0  0  0
    8.7390   -1.4750   21.6270 C   0  0  0  0  0  0  0  0  0  0  0  0
    7.8250   -3.1460   23.1360 C   0  0  0  0  0  0  0  0  0  0  0  0
    7.7120   -0.5320   21.4740 C   0  0  0  0  0  0  0  0  0  0  0  0
    6.6840   -3.3600   22.1420 C   0  0  1  0  0  0  0  0  0  0  0  0
    6.5690   -2.5380   20.9510 N   0  0  0  0  0  0  0  0  0  0  0  0
    6.4830   -1.0850   21.1030 C   0  0  0  0  0  0  0  0  0  0  0  0
    6.5810   -4.6440   21.6150 N   0  0  0  0  0  0  0  0  0  0  0  0
    5.3870   -3.1410   22.9420 C   0  0  0  0  0  0  0  0  0  0  0  0
    6.3310   -3.2430   19.7760 C   0  0  0  0  0  0  0  0  0  0  0  0
    5.4480   -3.9940   23.9620 N   0  0  0  0  0  0  0  0  0  0  0  0
    6.3060   -5.7210   22.5930 C   0  0  0  0  0  0  0  0  0  0  0  0
    5.3890   -4.0340   19.6670 O   0  0  0  0  0  0  0  0  0  0  0  0
    7.3410   -3.0040   18.6790 C   0  0  0  0  0  0  0  0  0  0  0  0
    4.7050   -3.5780   25.1170 C   0  0  0  0  0  0  0  0  0  0  0  0
    5.3710   -5.2830   23.5340 C   0  0  0  0  0  0  0  0  0  0  0  0
    5.3300   -2.6200   26.0820 C   0  0  0  0  0  0  0  0  0  0  0  0
    3.3070   -4.0710   25.3770 C   0  0  0  0  0  0  0  0  0  0  0  0
    4.5970   -2.2280   27.1710 C   0  0  0  0  0  0  0  0  0  0  0  0
    2.6620   -3.5740   26.5600 C   0  0  0  0  0  0  0  0  0  0  0  0
    3.3010   -2.6750   27.4270 C   0  0  0  0  0  0  0  0  0  0  0  0
    2.7440   -2.2440   28.4370 O   0  0  0  0  0  0  0  0  0  0  0  0
    1.3220   -2.2250   28.4280 C   0  0  0  0  0  0  0  0  0  0  0  0
  1  2  1  0
  2  3  2  0
  2  4  1  0
  4  5  1  0
  4  6  2  0
  3  7  1  0
  6  8  1  0
  7  8  2  0
  5  9  1  0
  9 10  1  0
  9 11  1  0
 10 12  1  0
 13 11  1  1
 13 14  1  0
 12 15  1  0
 14 15  1  0
 13 16  1  0
 13 17  1  0
 14 18  1  0
 17 19  1  0
 16 20  1  0
 18 21  2  0
 18 22  1  0
 19 23  1  0
 19 24  1  0
 20 24  1  0
 23 25  2  0
 23 26  1  0
 25 27  1  0
 26 28  2  0
 27 29  2  0
 28 29  1  0
 29 30  1  0
 30 31  1  0
M  END
