x0831-x0978
     RDKit          3D

 30 31  0  0  0  0  0  0  0  0999 V2000
    1.9620   -5.6440   23.2790 N   0  0  0  0  0  0  0  0  0  0  0  0
    3.2780   -6.3150   23.3040 C   0  0  2  0  0  0  0  0  0  0  0  0
    3.3930   -7.2290   24.5320 C   0  0  1  0  0  0  0  0  0  0  0  0
    0.7900   -6.2250   22.5520 C   0  0  0  0  0  0  0  0  0  0  0  0
    0.8210   -7.2920   21.9360 O   0  0  0  0  0  0  0  0  0  0  0  0
   -0.5040   -5.3500   22.6370 C   0  0  0  0  0  0  0  0  0  0  0  0
    4.3940   -5.2420   23.1210 C   0  0  0  0  0  0  0  0  0  0  0  0
    2.1540   -8.1320   24.5410 C   0  0  0  0  0  0  0  0  0  0  0  0
    4.4250   -7.8140   24.7880 O   0  0  0  0  0  0  0  0  0  0  0  0
    5.8050   -5.6490   23.1250 N   0  0  0  0  0  0  0  0  0  0  0  0
    4.0850   -4.0620   22.9880 O   0  0  0  0  0  0  0  0  0  0  0  0
    6.6390   -5.2100   22.1070 C   0  0  0  0  0  0  0  0  0  0  0  0
    7.2310   -3.7780   22.1400 C   0  0  1  0  0  0  0  0  0  0  0  0
    6.4310   -2.9130   21.2300 N   0  0  0  0  0  0  0  0  0  0  0  0
    7.6220   -3.1660   23.3430 C   0  0  0  0  0  0  0  0  0  0  0  0
    6.2410   -3.4190   19.9450 C   0  0  0  0  0  0  0  0  0  0  0  0
    6.1880   -1.5050   21.5830 C   0  0  0  0  0  0  0  0  0  0  0  0
    8.5130   -2.1460   23.0490 N   0  0  0  0  0  0  0  0  0  0  0  0
    5.2990   -4.1750   19.7200 O   0  0  0  0  0  0  0  0  0  0  0  0
    9.9080   -2.4130   23.4940 C   0  0  0  0  0  0  0  0  0  0  0  0
    7.2470   -3.0310   18.8590 C   0  0  0  0  0  0  0  0  0  0  0  0
    7.4820   -0.6590   21.4760 C   0  0  0  0  0  0  0  0  0  0  0  0
    8.5660   -1.5740   21.6770 C   0  0  0  0  0  0  0  0  0  0  0  0
   10.6930   -1.1340   23.5070 C   0  0  0  0  0  0  0  0  0  0  0  0
   11.9600   -0.9940   22.8910 C   0  0  0  0  0  0  0  0  0  0  0  0
   10.1550    0.0360   24.1590 C   0  0  0  0  0  0  0  0  0  0  0  0
   12.6100   -2.1450   22.1800 C   0  0  0  0  0  0  0  0  0  0  0  0
   10.8230    1.2500   24.1830 C   0  0  0  0  0  0  0  0  0  0  0  0
   12.7050    0.1900   22.8750 C   0  0  0  0  0  0  0  0  0  0  0  0
   12.1750    1.4580   23.5360 C   0  0  0  0  0  0  0  0  0  0  0  0
  2  1  1  1
  2  3  1  0
  1  4  1  0
  4  5  2  0
  4  6  1  0
  2  7  1  0
  3  8  1  6
  3  9  1  0
  7 10  1  0
  7 11  2  0
 10 12  1  0
 13 12  1  1
 13 14  1  0
 13 15  1  0
 14 16  1  0
 14 17  1  0
 15 18  1  0
 16 19  2  0
 18 20  1  0
 16 21  1  0
 17 22  1  0
 18 23  1  0
 22 23  1  0
 20 24  1  0
 24 25  2  0
 24 26  1  0
 25 27  1  0
 26 28  2  0
 25 29  1  0
 28 30  1  0
 29 30  2  0
M  END
