x0831-x0395
     RDKit          3D

 24 26  0  0  0  0  0  0  0  0999 V2000
   12.4720   -1.9780   22.0220 C   0  0  0  0  0  0  0  0  0  0  0  0
   11.8630   -0.8260   22.7690 C   0  0  0  0  0  0  0  0  0  0  0  0
   12.6610    0.3240   22.8650 C   0  0  0  0  0  0  0  0  0  0  0  0
   10.5460   -0.9250   23.3310 C   0  0  0  0  0  0  0  0  0  0  0  0
    9.6630   -2.1510   23.2210 C   0  0  2  0  0  0  0  0  0  0  0  0
   10.0580    0.3240   24.0590 C   0  0  0  0  0  0  0  0  0  0  0  0
   12.2350    1.4720   23.5070 C   0  0  0  0  0  0  0  0  0  0  0  0
   11.0080    1.5090   24.0860 C   0  0  0  0  0  0  0  0  0  0  0  0
    8.3760   -1.9040   22.6080 N   0  0  0  0  0  0  0  0  0  0  0  0
    9.2620   -2.8940   24.4530 C   0  0  0  0  0  0  0  0  0  0  0  0
    8.4690   -1.3430   21.3670 C   0  0  0  0  0  0  0  0  0  0  0  0
    7.6130   -3.2020   22.7090 C   0  0  0  0  0  0  0  0  0  0  0  0
    8.4950   -2.3600   25.4930 N   0  0  0  0  0  0  0  0  0  0  0  0
    9.7000   -4.5780   24.6320 S   0  0  0  0  0  0  0  0  0  0  0  0
    7.4380   -0.4000   21.2540 C   0  0  0  0  0  0  0  0  0  0  0  0
    6.2030   -3.1120   22.2170 C   0  0  0  0  0  0  0  0  0  0  0  0
    8.8590   -4.6100   26.0980 C   0  0  0  0  0  0  0  0  0  0  0  0
    8.2340   -3.3080   26.4570 N   0  0  0  0  0  0  0  0  0  0  0  0
    8.8170   -5.7460   26.8190 C   0  0  0  0  0  0  0  0  0  0  0  0
    6.1360   -2.4540   20.9300 N   0  0  0  0  0  0  0  0  0  0  0  0
    6.2030   -0.9820   20.8930 C   0  0  0  0  0  0  0  0  0  0  0  0
    6.2380   -3.3170   19.8400 C   0  0  0  0  0  0  0  0  0  0  0  0
    5.4760   -4.2810   19.7770 O   0  0  0  0  0  0  0  0  0  0  0  0
    7.3190   -3.0300   18.7830 C   0  0  0  0  0  0  0  0  0  0  0  0
  1  2  1  0
  2  3  2  0
  2  4  1  0
  5  4  1  1
  4  6  2  0
  3  7  1  0
  6  8  1  0
  7  8  2  0
  5  9  1  0
  5 10  1  0
  9 11  1  0
  9 12  1  0
 10 13  2  0
 10 14  1  0
 11 15  1  0
 12 16  1  0
 14 17  1  0
 13 18  1  0
 17 18  2  0
 17 19  1  0
 16 20  1  0
 15 21  1  0
 20 21  1  0
 20 22  1  0
 22 23  2  0
 22 24  1  0
M  END
