x0831-x2754
     RDKit          3D

 33 36  0  0  0  0  0  0  0  0999 V2000
    4.5020   -3.5980   25.7790 C   0  0  0  0  0  0  0  0  0  0  0  0
    5.4820   -3.2180   26.6990 N   0  0  0  0  0  0  0  0  0  0  0  0
    4.9980   -2.1450   27.6140 C   0  0  0  0  0  0  0  0  0  0  0  0
    3.2310   -4.0970   26.1120 O   0  0  0  0  0  0  0  0  0  0  0  0
    4.8860   -3.3880   24.3340 C   0  0  1  0  0  0  0  0  0  0  0  0
    5.4940   -2.1700   24.3830 C   0  0  0  0  0  0  0  0  0  0  0  0
    5.5020   -4.5230   23.7520 C   0  0  0  0  0  0  0  0  0  0  0  0
    6.8200   -3.8500   26.9120 C   0  0  0  0  0  0  0  0  0  0  0  0
    5.8880   -1.9210   22.9780 C   0  0  0  0  0  0  0  0  0  0  0  0
    6.0150   -4.3220   22.4630 C   0  0  0  0  0  0  0  0  0  0  0  0
    7.0640   -4.9240   27.7650 C   0  0  0  0  0  0  0  0  0  0  0  0
    7.8340   -3.2660   26.1750 C   0  0  0  0  0  0  0  0  0  0  0  0
    6.5370   -3.0400   22.2310 C   0  0  1  0  0  0  0  0  0  0  0  0
    8.4030   -5.4450   27.8920 C   0  0  0  0  0  0  0  0  0  0  0  0
    9.2360   -3.8620   26.3520 C   0  0  0  0  0  0  0  0  0  0  0  0
    9.4520   -4.8830   27.1710 C   0  0  0  0  0  0  0  0  0  0  0  0
    6.4650   -2.5790   20.8830 N   0  0  0  0  0  0  0  0  0  0  0  0
    7.9330   -3.0680   22.7980 C   0  0  0  0  0  0  0  0  0  0  0  0
    6.3030   -3.4110   19.8180 C   0  0  0  0  0  0  0  0  0  0  0  0
    6.5690   -1.1730   20.6470 C   0  0  0  0  0  0  0  0  0  0  0  0
    8.6590   -2.0120   22.7730 N   0  0  0  0  0  0  0  0  0  0  0  0
    5.4500   -4.3040   19.7740 O   0  0  0  0  0  0  0  0  0  0  0  0
    7.3000   -3.1210   18.7210 C   0  0  0  0  0  0  0  0  0  0  0  0
    9.9510   -2.2050   23.4440 C   0  0  0  0  0  0  0  0  0  0  0  0
    7.7170   -0.6350   21.1760 C   0  0  0  0  0  0  0  0  0  0  0  0
    8.7470   -1.5340   21.4920 C   0  0  0  0  0  0  0  0  0  0  0  0
   10.8130   -0.9620   23.4020 C   0  0  0  0  0  0  0  0  0  0  0  0
   12.1960   -0.8660   22.8740 C   0  0  0  0  0  0  0  0  0  0  0  0
   10.2800    0.3590   23.9220 C   0  0  0  0  0  0  0  0  0  0  0  0
   12.8540   -2.0170   22.3310 C   0  0  0  0  0  0  0  0  0  0  0  0
   11.0190    1.5990   23.9180 C   0  0  0  0  0  0  0  0  0  0  0  0
   12.8740    0.3270   22.8860 C   0  0  0  0  0  0  0  0  0  0  0  0
   12.3250    1.6220   23.4040 C   0  0  0  0  0  0  0  0  0  0  0  0
  1  2  1  0
  2  3  1  0
  1  4  2  0
  5  1  1  1
  5  6  1  0
  5  7  1  0
  2  8  1  0
  6  9  1  0
  7 10  1  0
  8 11  2  0
  8 12  1  0
 13  9  1  1
 10 13  1  0
 11 14  1  0
 12 15  2  0
 14 16  2  0
 15 16  1  0
 13 17  1  0
 13 18  1  0
 17 19  1  0
 17 20  1  0
 18 21  1  0
 19 22  2  0
 19 23  1  0
 21 24  1  0
 20 25  1  0
 21 26  1  0
 25 26  1  0
 24 27  1  0
 27 28  2  0
 27 29  1  0
 28 30  1  0
 29 31  2  0
 28 32  1  0
 31 33  1  0
 32 33  2  0
M  END
