x0831-x3124
     RDKit          3D

 34 37  0  0  0  0  0  0  0  0999 V2000
    7.1810    1.0570   23.1470 N   0  0  0  0  0  0  0  0  0  0  0  0
    7.4360    0.6140   21.8680 C   0  0  0  0  0  0  0  0  0  0  0  0
    8.0520    1.5290   20.9380 O   0  0  0  0  0  0  0  0  0  0  0  0
    7.9500    2.0810   23.7000 C   0  0  0  0  0  0  0  0  0  0  0  0
    7.1480   -0.9210   21.4490 C   0  0  1  0  0  0  0  0  0  0  0  0
    8.3940   -1.7210   21.9230 C   0  0  1  0  0  0  0  0  0  0  0  0
    5.9570   -1.5430   21.7850 C   0  0  0  0  0  0  0  0  0  0  0  0
    7.0260   -0.8200   19.8870 C   0  0  0  0  0  0  0  0  0  0  0  0
    9.3330   -0.9770   21.4680 C   0  0  0  0  0  0  0  0  0  0  0  0
    8.4640   -2.0850   23.2530 C   0  0  2  0  0  0  0  0  0  0  0  0
    6.1790   -3.0010   21.4170 N   0  0  0  0  0  0  0  0  0  0  0  0
    6.2450    0.1360   19.3270 C   0  0  0  0  0  0  0  0  0  0  0  0
    6.1020   -3.5900   20.1030 C   0  0  0  0  0  0  0  0  0  0  0  0
   10.4060   -0.7630   22.1900 C   0  0  0  0  0  0  0  0  0  0  0  0
    9.7760   -2.3300   23.6840 C   0  0  0  0  0  0  0  0  0  0  0  0
    7.5710   -3.2940   23.5300 C   0  0  0  0  0  0  0  0  0  0  0  0
    6.9270   -3.8240   22.3950 C   0  0  0  0  0  0  0  0  0  0  0  0
    6.2330    0.5350   18.0990 N   0  0  0  0  0  0  0  0  0  0  0  0
    5.3340    0.7720   20.1560 C   0  0  0  0  0  0  0  0  0  0  0  0
    5.2890   -4.4820   19.8720 O   0  0  0  0  0  0  0  0  0  0  0  0
    7.0500   -3.1380   18.9540 C   0  0  0  0  0  0  0  0  0  0  0  0
   10.6690   -1.2800   23.3740 C   0  0  1  0  0  0  0  0  0  0  0  0
    5.2810    1.6010   17.6960 C   0  0  0  0  0  0  0  0  0  0  0  0
    4.4690    1.7160   19.8450 C   0  0  0  0  0  0  0  0  0  0  0  0
   12.0140   -1.5660   23.4230 C   0  0  2  0  0  0  0  0  0  0  0  0
   10.3970    0.0140   24.1490 C   0  0  0  0  0  0  0  0  0  0  0  0
    4.3840    2.2040   18.5580 C   0  0  0  0  0  0  0  0  0  0  0  0
   12.6130   -2.0230   24.6410 C   0  0  0  0  0  0  0  0  0  0  0  0
   11.3660    1.1660   24.0150 C   0  0  0  0  0  0  0  0  0  0  0  0
   12.8300   -0.5000   22.8710 C   0  0  0  0  0  0  0  0  0  0  0  0
   12.7830   -0.7710   25.4190 C   0  0  0  0  0  0  0  0  0  0  0  0
   13.8470   -2.6260   24.4190 C   0  0  0  0  0  0  0  0  0  0  0  0
   11.7870   -3.1210   25.3170 C   0  0  0  0  0  0  0  0  0  0  0  0
   12.5810    0.8700   23.1160 C   0  0  0  0  0  0  0  0  0  0  0  0
  1  2  1  0
  2  3  2  0
  1  4  1  0
  5  2  1  0
  5  6  1  0
  5  7  1  0
  5  8  1  6
  6  9  1  1
  6 10  1  0
  7 11  1  0
  8 12  1  0
 11 13  1  0
  9 14  2  0
 10 15  1  6
 10 16  1  0
 11 17  1  0
 16 17  1  0
 12 18  2  0
 12 19  1  0
 13 20  2  0
 13 21  1  0
 22 14  1  6
 15 22  1  0
 18 23  1  0
 19 24  2  0
 22 25  1  0
 22 26  1  0
 23 27  2  0
 24 27  1  0
 25 28  1  1
 26 29  2  0
 25 30  1  0
 28 31  1  0
 28 32  1  0
 28 33  1  0
 29 34  1  0
 30 34  2  0
M  END
