x0874-x0771
     RDKit          3D

 34 37  0  0  0  0  0  0  0  0999 V2000
    0.5550   -1.3840   26.3290 C   0  0  0  0  0  0  0  0  0  0  0  0
    1.6420   -2.3900   26.1100 C   0  0  0  0  0  0  0  0  0  0  0  0
    2.9230   -1.9750   26.3660 C   0  0  0  0  0  0  0  0  0  0  0  0
    1.3780   -3.8020   25.6350 C   0  0  0  0  0  0  0  0  0  0  0  0
    2.3830   -4.6830   25.4540 C   0  0  0  0  0  0  0  0  0  0  0  0
    3.9560   -2.8690   26.1820 C   0  0  0  0  0  0  0  0  0  0  0  0
    2.1730   -6.0810   24.9890 C   0  0  0  0  0  0  0  0  0  0  0  0
    3.7140   -4.1860   25.7410 C   0  0  0  0  0  0  0  0  0  0  0  0
    5.1330   -5.2600   25.5330 S   0  0  0  0  0  0  0  0  0  0  0  0
    4.6570   -6.6280   25.5430 O   0  0  0  0  0  0  0  0  0  0  0  0
    6.1660   -4.8170   26.4310 O   0  0  0  0  0  0  0  0  0  0  0  0
    5.5770   -4.8580   23.9480 N   0  0  0  0  0  0  0  0  0  0  0  0
    5.0360   -5.5980   22.9340 C   0  0  0  0  0  0  0  0  0  0  0  0
    6.7180   -4.0210   23.6740 C   0  0  2  0  0  0  0  0  0  0  0  0
    6.3320   -2.6220   23.4820 C   0  0  0  0  0  0  0  0  0  0  0  0
    5.9530   -6.1300   22.0140 C   0  0  0  0  0  0  0  0  0  0  0  0
    7.6120   -4.4920   22.7470 C   0  0  0  0  0  0  0  0  0  0  0  0
    7.2190   -1.5470   24.2110 C   0  0  0  0  0  0  0  0  0  0  0  0
    6.8550   -5.0350   21.6280 N   0  0  0  0  0  0  0  0  0  0  0  0
    6.4260   -4.3880   20.4710 C   0  0  0  0  0  0  0  0  0  0  0  0
    8.0100   -0.5460   23.2930 C   0  0  1  0  0  0  0  0  0  0  0  0
    5.3450   -4.6460   19.9590 O   0  0  0  0  0  0  0  0  0  0  0  0
    7.3420   -3.3640   19.8160 C   0  0  0  0  0  0  0  0  0  0  0  0
    8.8020    0.3560   24.0120 C   0  0  1  0  0  0  0  0  0  0  0  0
    8.9470   -1.2370   22.5310 C   0  0  0  0  0  0  0  0  0  0  0  0
   10.0990   -0.1830   24.0570 C   0  0  1  0  0  0  0  0  0  0  0  0
   10.0870   -1.4040   23.3230 C   0  0  2  0  0  0  0  0  0  0  0  0
    8.6270    1.8190   23.5160 C   0  0  0  0  0  0  0  0  0  0  0  0
   11.2320   -1.6680   22.5780 C   0  0  0  0  0  0  0  0  0  0  0  0
   11.3840    0.5340   23.6010 C   0  0  0  0  0  0  0  0  0  0  0  0
    9.1930    2.1740   22.2920 C   0  0  0  0  0  0  0  0  0  0  0  0
   12.4090   -0.4040   22.5810 S   0  0  0  0  0  0  0  0  0  0  0  0
   10.1730    3.1110   22.2210 N   0  0  0  0  0  0  0  0  0  0  0  0
    8.7910    1.6520   21.1020 O   0  0  0  0  0  0  0  0  0  0  0  0
  1  2  1  0
  2  3  2  0
  2  4  1  0
  4  5  2  0
  3  6  1  0
  5  7  1  0
  5  8  1  0
  6  8  2  0
  9  8  1  0
  9 10  2  0
  9 11  2  0
  9 12  1  0
 12 13  1  0
 12 14  1  0
 14 15  1  6
 13 16  1  0
 14 17  1  0
 15 18  1  0
 16 19  1  0
 17 19  1  0
 19 20  1  0
 21 18  1  1
 20 22  2  0
 20 23  1  0
 21 24  1  0
 21 25  1  0
 24 26  1  0
 27 25  1  6
 26 27  1  0
 24 28  1  6
 27 29  1  0
 26 30  1  6
 28 31  1  0
 29 32  2  0
 30 32  2  0
 31 33  1  0
 31 34  2  0
M  END
