x0874-x1458
     RDKit          3D

 30 32  0  0  0  0  0  0  0  0999 V2000
    7.2200   -3.6600   26.6360 N   0  0  0  0  0  0  0  0  0  0  0  0
    7.4050   -5.0150   26.9470 C   0  0  0  0  0  0  0  0  0  0  0  0
    8.8520   -5.4220   27.0890 C   0  0  0  0  0  0  0  0  0  0  0  0
    7.5290   -2.5940   27.6090 C   0  0  0  0  0  0  0  0  0  0  0  0
    6.3990   -3.4350   25.4410 C   0  0  0  0  0  0  0  0  0  0  0  0
    5.3380   -2.7990   25.4820 O   0  0  0  0  0  0  0  0  0  0  0  0
    6.6750   -5.3700   28.2460 C   0  0  0  0  0  0  0  0  0  0  0  0
    8.3430   -1.4100   27.1080 C   0  0  0  0  0  0  0  0  0  0  0  0
    6.8930   -4.0610   24.0840 C   0  0  2  0  0  0  0  0  0  0  0  0
    7.7720   -3.3860   23.2170 C   0  0  1  0  0  0  0  0  0  0  0  0
    5.7600   -4.6630   23.4750 C   0  0  0  0  0  0  0  0  0  0  0  0
    7.9290   -4.0980   22.0970 C   0  0  0  0  0  0  0  0  0  0  0  0
    6.0860   -5.3540   22.2900 C   0  0  0  0  0  0  0  0  0  0  0  0
    7.6930   -1.8970   23.0160 C   0  0  0  0  0  0  0  0  0  0  0  0
    6.7400   -4.4360   21.5650 N   0  0  0  0  0  0  0  0  0  0  0  0
    8.5000   -1.1440   23.8470 C   0  0  2  0  0  0  0  0  0  0  0  0
    6.3500   -4.1340   20.2660 C   0  0  0  0  0  0  0  0  0  0  0  0
    7.9290    0.1340   24.0220 C   0  0  0  0  0  0  0  0  0  0  0  0
    9.8740   -0.9460   23.4990 C   0  0  2  0  0  0  0  0  0  0  0  0
    5.2840   -4.5820   19.8900 O   0  0  0  0  0  0  0  0  0  0  0  0
    7.2550   -3.3030   19.3470 C   0  0  0  0  0  0  0  0  0  0  0  0
   10.0750    0.4870   23.1930 C   0  0  1  0  0  0  0  0  0  0  0  0
    9.1230    1.1260   23.9800 C   0  0  1  0  0  0  0  0  0  0  0  0
   10.6880   -1.7580   22.6820 C   0  0  0  0  0  0  0  0  0  0  0  0
   12.2520   -0.9300   22.4290 S   0  0  0  0  0  0  0  0  0  0  0  0
   11.5150    0.5990   23.0840 C   0  0  0  0  0  0  0  0  0  0  0  0
    8.7310    2.5030   23.4690 C   0  0  0  0  0  0  0  0  0  0  0  0
    9.2650    2.6750   22.2050 C   0  0  0  0  0  0  0  0  0  0  0  0
   10.3290    3.4590   22.0210 N   0  0  0  0  0  0  0  0  0  0  0  0
    8.7280    2.0360   21.1050 O   0  0  0  0  0  0  0  0  0  0  0  0
  1  2  1  0
  2  3  1  0
  1  4  1  0
  1  5  1  0
  5  6  2  0
  2  7  1  0
  4  8  1  0
  9  5  1  1
  9 10  1  0
  9 11  1  0
 10 12  1  0
 11 13  1  0
 10 14  1  6
 12 15  1  0
 13 15  1  0
 16 14  1  6
 15 17  1  0
 16 18  1  0
 16 19  1  0
 17 20  2  0
 17 21  1  0
 19 22  1  0
 18 23  1  0
 22 23  1  0
 19 24  1  6
 24 25  2  0
 22 26  1  1
 25 26  2  0
 23 27  1  6
 27 28  1  0
 28 29  1  0
 28 30  2  0
M  END
