x0874-x0731
     RDKit          3D

 33 36  0  0  0  0  0  0  0  0999 V2000
    0.8890   -0.9500   26.0890 C   0  0  0  0  0  0  0  0  0  0  0  0
    2.0100   -1.9730   26.0150 C   0  0  0  0  0  0  0  0  0  0  0  0
    3.3970   -1.7440   26.5210 C   0  0  0  0  0  0  0  0  0  0  0  0
    1.6850   -3.3310   25.3830 C   0  0  0  0  0  0  0  0  0  0  0  0
    2.7990   -4.3710   25.3210 C   0  0  0  0  0  0  0  0  0  0  0  0
    4.3040   -2.7960   26.3930 C   0  0  0  0  0  0  0  0  0  0  0  0
    4.0130   -4.0470   25.8240 C   0  0  0  0  0  0  0  0  0  0  0  0
    5.1880   -5.2790   25.7310 S   0  0  0  0  0  0  0  0  0  0  0  0
    6.2080   -4.9380   26.6820 O   0  0  0  0  0  0  0  0  0  0  0  0
    4.5500   -6.5730   25.7680 O   0  0  0  0  0  0  0  0  0  0  0  0
    5.7980   -5.1160   24.1730 N   0  0  0  0  0  0  0  0  0  0  0  0
    6.9880   -4.3950   23.9800 C   0  0  0  0  0  0  0  0  0  0  0  0
    5.4070   -5.9600   23.1840 C   0  0  0  0  0  0  0  0  0  0  0  0
    7.1690   -3.8250   22.5910 C   0  0  2  0  0  0  0  0  0  0  0  0
    6.2590   -6.0740   22.0780 C   0  0  0  0  0  0  0  0  0  0  0  0
    6.4590   -2.4250   22.5970 C   0  0  0  0  0  0  0  0  0  0  0  0
    6.6500   -4.7300   21.6130 N   0  0  0  0  0  0  0  0  0  0  0  0
    6.2090   -4.3140   20.3810 C   0  0  0  0  0  0  0  0  0  0  0  0
    7.0950   -1.3550   23.5360 C   0  0  0  0  0  0  0  0  0  0  0  0
    5.1730   -4.7460   19.9290 O   0  0  0  0  0  0  0  0  0  0  0  0
    7.0680   -3.3500   19.5710 C   0  0  0  0  0  0  0  0  0  0  0  0
    8.1120   -0.3770   22.9380 C   0  0  1  0  0  0  0  0  0  0  0  0
    8.8000    0.3910   23.8850 C   0  0  1  0  0  0  0  0  0  0  0  0
    9.1030   -1.1710   22.3740 C   0  0  0  0  0  0  0  0  0  0  0  0
   10.0950   -0.1780   24.0090 C   0  0  1  0  0  0  0  0  0  0  0  0
   10.1360   -1.4370   23.2820 C   0  0  2  0  0  0  0  0  0  0  0  0
    8.8200    1.8990   23.4980 C   0  0  0  0  0  0  0  0  0  0  0  0
   11.3010   -1.6860   22.5810 C   0  0  0  0  0  0  0  0  0  0  0  0
   11.3890    0.5260   23.5890 C   0  0  0  0  0  0  0  0  0  0  0  0
    9.2800    2.2460   22.2250 C   0  0  0  0  0  0  0  0  0  0  0  0
   12.4460   -0.4360   22.5980 S   0  0  0  0  0  0  0  0  0  0  0  0
   10.2860    3.2820   22.0860 N   0  0  0  0  0  0  0  0  0  0  0  0
    8.8460    1.7160   21.2040 O   0  0  0  0  0  0  0  0  0  0  0  0
  1  2  1  0
  2  3  2  0
  2  4  1  0
  4  5  2  0
  3  6  1  0
  5  7  1  0
  6  7  2  0
  8  7  1  0
  8  9  2  0
  8 10  2  0
  8 11  1  0
 11 12  1  0
 11 13  1  0
 12 14  1  0
 13 15  1  0
 14 16  1  1
 14 17  1  0
 15 17  1  0
 17 18  1  0
 16 19  1  0
 18 20  2  0
 18 21  1  0
 22 19  1  1
 22 23  1  0
 22 24  1  0
 23 25  1  0
 26 24  1  6
 25 26  1  0
 23 27  1  6
 26 28  1  0
 25 29  1  6
 27 30  1  0
 28 31  2  0
 29 31  2  0
 30 32  1  0
 30 33  2  0
M  END
