x0874-x1380
     RDKit          3D

 30 33  0  0  0  0  0  0  0  0999 V2000
    7.0940   -3.3220   19.3430 C   0  0  0  0  0  0  0  0  0  0  0  0
    6.2360   -4.1770   20.2510 C   0  0  0  0  0  0  0  0  0  0  0  0
    5.1710   -4.6260   19.8940 O   0  0  0  0  0  0  0  0  0  0  0  0
    6.8340   -4.4470   21.4600 N   0  0  0  0  0  0  0  0  0  0  0  0
    6.2620   -5.4660   22.3250 C   0  0  0  0  0  0  0  0  0  0  0  0
    7.2980   -3.3320   22.1730 C   0  0  0  0  0  0  0  0  0  0  0  0
    5.6340   -4.8630   23.5700 C   0  0  0  0  0  0  0  0  0  0  0  0
    7.6780   -3.5750   23.4580 C   0  0  2  0  0  0  0  0  0  0  0  0
    6.7380   -4.1190   24.3440 C   0  0  1  0  0  0  0  0  0  0  0  0
    8.2310   -2.1930   23.8120 C   0  0  0  0  0  0  0  0  0  0  0  0
    6.0370   -3.2450   25.3450 C   0  0  0  0  0  0  0  0  0  0  0  0
    8.3920   -1.2080   22.7930 C   0  0  1  0  0  0  0  0  0  0  0  0
    5.1220   -2.5030   24.9900 O   0  0  0  0  0  0  0  0  0  0  0  0
    6.5170   -3.3920   26.7030 N   0  0  0  0  0  0  0  0  0  0  0  0
    7.7650   -0.0280   23.2430 C   0  0  0  0  0  0  0  0  0  0  0  0
    9.7240   -0.8610   22.4690 C   0  0  1  0  0  0  0  0  0  0  0  0
    7.8820   -3.8940   26.9590 C   0  0  0  0  0  0  0  0  0  0  0  0
    5.7310   -3.5580   27.8510 C   0  0  0  0  0  0  0  0  0  0  0  0
   10.0860    0.2210   23.4220 C   0  0  2  0  0  0  0  0  0  0  0  0
    8.8940    0.8840   23.8080 C   0  0  1  0  0  0  0  0  0  0  0  0
   10.8170   -1.6930   22.2160 C   0  0  0  0  0  0  0  0  0  0  0  0
    7.8210   -5.2490   27.3540 C   0  0  0  0  0  0  0  0  0  0  0  0
    5.9310   -4.8990   28.5520 C   0  0  0  0  0  0  0  0  0  0  0  0
   12.3670   -0.8400   22.4210 S   0  0  0  0  0  0  0  0  0  0  0  0
   11.4690    0.5720   23.1300 C   0  0  0  0  0  0  0  0  0  0  0  0
    8.7270    2.3290   23.3630 C   0  0  0  0  0  0  0  0  0  0  0  0
    7.2610   -5.3370   28.6090 C   0  0  0  0  0  0  0  0  0  0  0  0
    9.3140    2.4950   22.1360 C   0  0  0  0  0  0  0  0  0  0  0  0
   10.3380    3.3400   21.9930 N   0  0  0  0  0  0  0  0  0  0  0  0
    8.8470    1.8180   21.0350 O   0  0  0  0  0  0  0  0  0  0  0  0
  1  2  1  0
  2  3  2  0
  2  4  1  0
  4  5  1  0
  4  6  1  0
  5  7  1  0
  6  8  1  0
  7  9  1  0
  8  9  1  0
  8 10  1  1
  9 11  1  6
 12 10  1  1
 11 13  2  0
 11 14  1  0
 12 15  1  0
 12 16  1  0
 14 17  1  0
 14 18  1  0
 16 19  1  0
 15 20  1  0
 19 20  1  0
 16 21  1  1
 17 22  1  0
 18 23  1  0
 21 24  2  0
 19 25  1  6
 24 25  2  0
 20 26  1  6
 22 27  1  0
 23 27  1  0
 26 28  1  0
 28 29  1  0
 28 30  2  0
M  END
