x0887
     RDKit          3D

 13 14  0  0  0  0  0  0  0  0999 V2000
    4.6090    8.1130   10.7980 N   0  0  0  0  0  0  0  0  0  0  0  0
    1.9770    9.9820    9.6430 C   0  0  0  0  0  0  0  0  0  0  0  0
    1.6370    9.2800   10.7980 O   0  0  0  0  0  0  0  0  0  0  0  0
    3.3400    9.4820    9.1330 C   0  0  2  0  0  0  0  0  0  0  0  0
    4.3160    9.3640   10.2860 C   0  0  0  0  0  0  0  0  0  0  0  0
    5.5160    8.0580   11.8110 C   0  0  0  0  0  0  0  0  0  0  0  0
    6.1490    9.1930   12.3480 C   0  0  0  0  0  0  0  0  0  0  0  0
    5.8280   10.4440   11.8310 C   0  0  0  0  0  0  0  0  0  0  0  0
    4.9090   10.5430   10.8010 C   0  0  0  0  0  0  0  0  0  0  0  0
    3.8730   10.4020    8.0280 C   0  0  0  0  0  0  0  0  0  0  0  0
    3.3740    9.8300    6.7000 C   0  0  0  0  0  0  0  0  0  0  0  0
    2.6820    8.5140    7.0170 C   0  0  0  0  0  0  0  0  0  0  0  0
    3.1600    8.1310    8.4170 C   0  0  0  0  0  0  0  0  0  0  0  0
  2  3  1  0
  4  2  1  1
  1  5  2  0
  4  5  1  0
  1  6  1  0
  6  7  2  0
  7  8  1  0
  5  9  1  0
  8  9  2  0
  4 10  1  0
 10 11  1  0
 11 12  1  0
  4 13  1  0
 12 13  1  0
M  END
