x0946-x3110
     RDKit          3D

 38 40  0  0  0  0  0  0  0  0999 V2000
    7.9650    1.2100   23.3650 N   0  0  0  0  0  0  0  0  0  0  0  0
    8.6520    2.4240   23.9200 C   0  0  0  0  0  0  0  0  0  0  0  0
   10.1680    2.4310   23.5590 C   0  0  0  0  0  0  0  0  0  0  0  0
    7.8110    0.9140   21.9270 C   0  0  0  0  0  0  0  0  0  0  0  0
    8.4670    1.4310   20.9970 O   0  0  0  0  0  0  0  0  0  0  0  0
    6.6990   -0.1130   21.5820 C   0  0  2  0  0  0  0  0  0  0  0  0
    6.9960   -1.5700   21.6650 N   0  0  0  0  0  0  0  0  0  0  0  0
    6.1410    0.4410   20.3110 C   0  0  0  0  0  0  0  0  0  0  0  0
   11.0390    3.6560   23.4110 C   0  0  0  0  0  0  0  0  0  0  0  0
   10.8250    1.2290   23.3360 C   0  0  0  0  0  0  0  0  0  0  0  0
   10.5090    5.0910   23.6250 C   0  0  0  0  0  0  0  0  0  0  0  0
    5.8750   -2.5190   21.5210 C   0  0  0  0  0  0  0  0  0  0  0  0
    4.9260    1.3290   20.2420 C   0  0  0  0  0  0  0  0  0  0  0  0
    6.8110    0.1180   18.9800 C   0  0  0  0  0  0  0  0  0  0  0  0
    8.2480   -1.7320   22.3870 C   0  0  0  0  0  0  0  0  0  0  0  0
   12.1520    1.0980   22.9970 C   0  0  0  0  0  0  0  0  0  0  0  0
   12.3720    3.5070   23.0690 C   0  0  0  0  0  0  0  0  0  0  0  0
   13.2510    4.7200   22.9230 C   0  0  0  0  0  0  0  0  0  0  0  0
    5.0930   -3.5160   21.3120 O   0  0  0  0  0  0  0  0  0  0  0  0
    6.9110   -3.5520   21.0550 C   0  0  0  0  0  0  0  0  0  0  0  0
   10.9290    5.6570   24.7460 N   0  0  0  0  0  0  0  0  0  0  0  0
    9.1600    5.1740   23.6830 O   0  0  0  0  0  0  0  0  0  0  0  0
   10.8160    5.8940   22.7360 O   0  0  0  0  0  0  0  0  0  0  0  0
    6.3910    0.5800   17.7800 N   0  0  0  0  0  0  0  0  0  0  0  0
    4.5570    1.7790   18.8490 C   0  0  0  0  0  0  0  0  0  0  0  0
    9.4370   -1.4460   21.7140 C   0  0  0  0  0  0  0  0  0  0  0  0
    8.4010   -2.1570   23.8120 C   0  0  0  0  0  0  0  0  0  0  0  0
   12.8820    2.2360   22.8720 C   0  0  0  0  0  0  0  0  0  0  0  0
   13.1910    5.3390   21.5810 C   0  0  0  0  0  0  0  0  0  0  0  0
    7.2060   -3.3000   19.5660 C   0  0  0  0  0  0  0  0  0  0  0  0
    5.2990    1.3850   17.7470 C   0  0  0  0  0  0  0  0  0  0  0  0
   10.8060   -1.5390   22.3150 C   0  0  0  0  0  0  0  0  0  0  0  0
    9.8230   -2.2500   24.4560 C   0  0  0  0  0  0  0  0  0  0  0  0
   10.9850   -1.9020   23.5760 C   0  0  0  0  0  0  0  0  0  0  0  0
   12.3010   -2.0070   24.2760 C   0  0  0  0  0  0  0  0  0  0  0  0
   12.7140   -0.9350   25.0470 C   0  0  0  0  0  0  0  0  0  0  0  0
   13.3640   -2.2150   23.2560 C   0  0  0  0  0  0  0  0  0  0  0  0
   12.1930   -3.1880   25.0390 C   0  0  0  0  0  0  0  0  0  0  0  0
  1  2  1  0
  2  3  1  0
  1  4  1  0
  4  5  2  0
  6  4  1  6
  6  7  1  0
  6  8  1  0
  3  9  2  0
  3 10  1  0
  9 11  1  0
  7 12  1  0
  8 13  2  0
  8 14  1  0
  7 15  1  0
 10 16  2  0
  9 17  1  0
 17 18  1  0
 12 19  2  0
 12 20  1  0
 11 21  1  0
 11 22  1  0
 11 23  1  0
 14 24  2  0
 13 25  1  0
 15 26  2  0
 15 27  1  0
 16 28  1  0
 17 28  2  0
 18 29  1  0
 20 30  1  0
 24 31  1  0
 25 31  2  0
 26 32  1  0
 27 33  2  0
 32 34  2  0
 33 34  1  0
 34 35  1  0
 35 36  1  0
 35 37  1  0
 35 38  1  0
M  END
