x0946-x0749
     RDKit          3D

 30 33  0  0  0  0  0  0  0  0999 V2000
    7.4680   -3.1970   19.3160 C   0  0  0  0  0  0  0  0  0  0  0  0
    6.4440   -3.9210   20.2150 C   0  0  0  0  0  0  0  0  0  0  0  0
    5.3390   -4.2060   19.7650 O   0  0  0  0  0  0  0  0  0  0  0  0
    6.7750   -4.3110   21.5310 N   0  0  0  0  0  0  0  0  0  0  0  0
    8.0180   -3.8090   22.1470 C   0  0  0  0  0  0  0  0  0  0  0  0
    6.4920   -5.7030   21.8220 C   0  0  0  0  0  0  0  0  0  0  0  0
    8.1730   -4.1850   23.4750 C   0  0  1  0  0  0  0  0  0  0  0  0
    6.7930   -6.1500   23.0970 C   0  0  0  0  0  0  0  0  0  0  0  0
    7.9690   -5.6880   23.7080 C   0  0  0  0  0  0  0  0  0  0  0  0
    9.4130   -3.8170   23.9960 C   0  0  0  0  0  0  0  0  0  0  0  0
   10.1910   -2.6920   23.4500 N   0  0  0  0  0  0  0  0  0  0  0  0
   10.1690   -4.6290   25.2950 S   0  0  0  0  0  0  0  0  0  0  0  0
   11.5020   -3.5910   25.1650 C   0  0  0  0  0  0  0  0  0  0  0  0
   11.3750   -2.6320   24.1680 C   0  0  0  0  0  0  0  0  0  0  0  0
   12.3640   -1.6990   23.9100 C   0  0  0  0  0  0  0  0  0  0  0  0
   12.8100   -3.5220   25.9220 C   0  0  0  0  0  0  0  0  0  0  0  0
   12.1580   -0.7880   22.8280 N   0  0  0  0  0  0  0  0  0  0  0  0
   13.4400   -1.6780   24.5930 C   0  0  0  0  0  0  0  0  0  0  0  0
   13.7190   -2.5470   25.5920 C   0  0  0  0  0  0  0  0  0  0  0  0
   12.9910   -1.2070   21.8040 C   0  0  0  0  0  0  0  0  0  0  0  0
   11.7590    0.6110   23.0860 C   0  0  0  0  0  0  0  0  0  0  0  0
   12.8100    1.6340   22.8290 C   0  0  0  0  0  0  0  0  0  0  0  0
   10.5020    1.0220   23.5220 C   0  0  0  0  0  0  0  0  0  0  0  0
   12.5750    3.1270   22.9880 C   0  0  0  0  0  0  0  0  0  0  0  0
   10.2150    2.4950   23.7090 C   0  0  0  0  0  0  0  0  0  0  0  0
   11.1900    3.6200   23.4570 C   0  0  0  0  0  0  0  0  0  0  0  0
   10.7150    5.3200   23.6950 S   0  0  0  0  0  0  0  0  0  0  0  0
    9.4330    5.4420   22.8600 N   0  0  0  0  0  0  0  0  0  0  0  0
   10.3270    5.5880   25.0590 O   0  0  0  0  0  0  0  0  0  0  0  0
   11.7410    6.1950   23.1790 O   0  0  0  0  0  0  0  0  0  0  0  0
  1  2  1  0
  2  3  2  0
  2  4  1  0
  4  5  1  0
  4  6  1  0
  5  7  1  0
  6  8  1  0
  7  9  1  0
  8  9  1  0
  7 10  1  6
 10 11  2  0
 10 12  1  0
 12 13  1  0
 11 14  1  0
 13 14  2  0
 14 15  1  0
 13 16  1  0
 15 17  1  0
 15 18  2  0
 16 19  2  0
 18 19  1  0
 17 20  1  0
 17 21  1  0
 21 22  2  0
 21 23  1  0
 22 24  1  0
 23 25  2  0
 24 26  2  0
 25 26  1  0
 26 27  1  0
 27 28  1  0
 27 29  2  0
 27 30  2  0
M  END
