x0946-x0689-x3110
     RDKit          3D

 53 57  0  0  0  0  0  0  0  0999 V2000
    8.0080    1.4500   23.3350 N   0  0  0  0  0  0  0  0  0  0  0  0
    8.7010    2.6030   23.8850 C   0  0  0  0  0  0  0  0  0  0  0  0
   10.1630    2.5380   23.5470 C   0  0  0  0  0  0  0  0  0  0  0  0
    7.8430    1.1320   21.9790 C   0  0  0  0  0  0  0  0  0  0  0  0
    8.6310    1.6350   21.1450 O   0  0  0  0  0  0  0  0  0  0  0  0
    6.7850    0.2730   21.6490 C   0  0  2  0  0  0  0  0  0  0  0  0
    7.0890   -1.0590   21.8450 N   0  0  0  0  0  0  0  0  0  0  0  0
    6.2730    0.6120   20.2870 C   0  0  0  0  0  0  0  0  0  0  0  0
   11.0460    3.7860   23.4510 C   0  0  0  0  0  0  0  0  0  0  0  0
   10.7120    1.2910   23.3090 C   0  0  0  0  0  0  0  0  0  0  0  0
   10.4600    5.1860   23.7050 C   0  0  0  0  0  0  0  0  0  0  0  0
    5.9250   -1.9150   21.9560 C   0  0  0  0  0  0  0  0  0  0  0  0
    5.1840    1.4700   20.1410 C   0  0  0  0  0  0  0  0  0  0  0  0
    6.8400    0.1030   19.1190 C   0  0  0  0  0  0  0  0  0  0  0  0
    8.3440   -1.3100   22.5010 C   0  0  0  0  0  0  0  0  0  0  0  0
   12.0370    1.1100   22.9770 C   0  0  0  0  0  0  0  0  0  0  0  0
   12.3770    3.6130   23.1250 C   0  0  0  0  0  0  0  0  0  0  0  0
   13.2940    4.7870   23.0280 C   0  0  0  0  0  0  0  0  0  0  0  0
    9.2430    5.4510   22.9050 N   0  0  0  0  0  0  0  0  0  0  0  0
   10.1660    5.4140   24.8690 O   0  0  0  0  0  0  0  0  0  0  0  0
   11.1990    6.1370   23.4610 O   0  0  0  0  0  0  0  0  0  0  0  0
    5.9790   -3.0210   22.7840 C   0  0  0  0  0  0  0  0  0  0  0  0
    6.3790    0.4180   17.8660 N   0  0  0  0  0  0  0  0  0  0  0  0
    4.7360    1.7730   18.8850 C   0  0  0  0  0  0  0  0  0  0  0  0
    9.4190   -1.4540   21.6560 C   0  0  0  0  0  0  0  0  0  0  0  0
    8.5470   -1.3850   23.8790 C   0  0  0  0  0  0  0  0  0  0  0  0
   12.8960    2.1740   22.8720 C   0  0  0  0  0  0  0  0  0  0  0  0
   13.1680    5.3270   21.6100 C   0  0  0  0  0  0  0  0  0  0  0  0
    5.3380    1.2480   17.7670 C   0  0  0  0  0  0  0  0  0  0  0  0
   10.7240   -1.6610   22.1470 C   0  0  0  0  0  0  0  0  0  0  0  0
    9.9810   -1.6050   24.4100 C   0  0  0  0  0  0  0  0  0  0  0  0
    6.1910   -4.4090   22.0890 C   0  0  0  0  0  0  0  0  0  0  0  0
    6.3510   -4.3200   20.5690 C   0  0  0  0  0  0  0  0  0  0  0  0
   11.0320   -1.7300   23.4950 C   0  0  0  0  0  0  0  0  0  0  0  0
    4.9750   -5.3410   22.2250 C   0  0  0  0  0  0  0  0  0  0  0  0
    7.3570   -5.1060   22.8390 C   0  0  0  0  0  0  0  0  0  0  0  0
   12.4010   -1.9070   24.0840 C   0  0  0  0  0  0  0  0  0  0  0  0
    7.3190   -3.3700   19.8150 C   0  0  0  0  0  0  0  0  0  0  0  0
    5.5790   -5.0130   19.9630 O   0  0  0  0  0  0  0  0  0  0  0  0
    5.0520   -6.1600   23.4790 C   0  0  0  0  0  0  0  0  0  0  0  0
    6.9920   -5.1220   24.3410 C   0  0  0  0  0  0  0  0  0  0  0  0
   12.7210   -0.7200   24.9870 C   0  0  0  0  0  0  0  0  0  0  0  0
   13.4280   -2.0190   22.9740 C   0  0  0  0  0  0  0  0  0  0  0  0
   12.6130   -3.0730   24.9980 C   0  0  0  0  0  0  0  0  0  0  0  0
    5.6380   -5.2870   24.4650 N   0  0  0  0  0  0  0  0  0  0  0  0
    4.8550   -5.1790   25.9190 S   0  0  0  0  0  0  0  0  0  0  0  0
    4.1950   -6.4500   26.1250 O   0  0  0  0  0  0  0  0  0  0  0  0
    5.7500   -4.5750   26.8650 O   0  0  0  0  0  0  0  0  0  0  0  0
    3.5510   -3.9730   25.7580 C   0  0  0  0  0  0  0  0  0  0  0  0
    3.9000   -2.1990   26.0950 S   0  0  0  0  0  0  0  0  0  0  0  0
    2.0950   -4.0700   25.3860 C   0  0  0  0  0  0  0  0  0  0  0  0
    1.4480   -2.7100   25.4260 C   0  0  0  0  0  0  0  0  0  0  0  0
    2.2820   -1.6690   25.7790 C   0  0  0  0  0  0  0  0  0  0  0  0
  1  2  1  0
  2  3  1  0
  1  4  1  0
  4  5  2  0
  6  4  1  6
  6  7  1  0
  6  8  1  0
  3  9  2  0
  3 10  1  0
  9 11  1  0
  7 12  1  0
  8 13  2  0
  8 14  1  0
  7 15  1  0
 10 16  2  0
  9 17  1  0
 17 18  1  0
 11 19  1  0
 11 20  1  0
 11 21  1  0
 12 22  1  0
 14 23  2  0
 13 24  1  0
 15 25  2  0
 15 26  1  0
 16 27  1  0
 17 27  2  0
 18 28  1  0
 23 29  1  0
 24 29  2  0
 25 30  1  0
 26 31  2  0
 22 32  1  0
 32 33  1  0
 30 34  2  0
 31 34  1  0
 32 35  1  0
 32 36  1  0
 34 37  1  0
 33 38  1  0
 33 39  2  0
 35 40  1  0
 36 41  1  0
 37 42  1  0
 37 43  1  0
 37 44  1  0
 40 45  1  0
 41 45  1  0
 45 46  1  0
 46 47  2  0
 46 48  2  0
 46 49  1  0
 49 50  1  0
 49 51  2  0
 51 52  1  0
 50 53  1  0
 52 53  2  0
M  END
