x0946-x3124
     RDKit          3D

 36 38  0  0  0  0  0  0  0  0999 V2000
    6.8150   -1.6310   21.9640 N   0  0  0  0  0  0  0  0  0  0  0  0
    6.0220   -2.8430   21.6540 C   0  0  0  0  0  0  0  0  0  0  0  0
    4.7830   -3.0030   21.2930 O   0  0  0  0  0  0  0  0  0  0  0  0
    6.4640   -0.1470   21.7400 C   0  0  1  0  0  0  0  0  0  0  0  0
    8.2130   -1.7290   22.4840 C   0  0  0  0  0  0  0  0  0  0  0  0
    6.7640   -4.1420   21.7780 C   0  0  0  0  0  0  0  0  0  0  0  0
    7.5890    0.7040   22.0170 C   0  0  0  0  0  0  0  0  0  0  0  0
    5.9900    0.2800   20.4010 C   0  0  0  0  0  0  0  0  0  0  0  0
    9.2890   -2.0990   21.7110 C   0  0  0  0  0  0  0  0  0  0  0  0
    8.4740   -1.3930   23.9240 C   0  0  0  0  0  0  0  0  0  0  0  0
    6.6630   -4.8610   20.4280 C   0  0  0  0  0  0  0  0  0  0  0  0
    7.7170    1.2320   23.3100 N   0  0  0  0  0  0  0  0  0  0  0  0
    8.4230    0.9930   21.1550 O   0  0  0  0  0  0  0  0  0  0  0  0
    4.8580    1.0720   20.2410 C   0  0  0  0  0  0  0  0  0  0  0  0
    6.8070   -0.1620   19.1680 C   0  0  0  0  0  0  0  0  0  0  0  0
   10.6800   -2.1670   22.2470 C   0  0  0  0  0  0  0  0  0  0  0  0
    9.8620   -1.4360   24.5310 C   0  0  0  0  0  0  0  0  0  0  0  0
    8.4660    2.4880   23.6300 C   0  0  0  0  0  0  0  0  0  0  0  0
    6.3880    0.2520   17.9680 N   0  0  0  0  0  0  0  0  0  0  0  0
    4.5160    1.4410   18.9720 C   0  0  0  0  0  0  0  0  0  0  0  0
   11.0530   -1.8410   23.6800 C   0  0  0  0  0  0  0  0  0  0  0  0
   12.5070   -1.9170   24.1860 C   0  0  0  0  0  0  0  0  0  0  0  0
    5.2440    1.0540   17.8870 C   0  0  0  0  0  0  0  0  0  0  0  0
   10.0060    2.4890   23.3850 C   0  0  0  0  0  0  0  0  0  0  0  0
   12.6870   -0.8510   24.9890 C   0  0  0  0  0  0  0  0  0  0  0  0
   13.4220   -2.1380   23.0260 C   0  0  0  0  0  0  0  0  0  0  0  0
   12.7470   -2.9260   25.0170 C   0  0  0  0  0  0  0  0  0  0  0  0
   11.0300    3.7130   23.3410 C   0  0  0  0  0  0  0  0  0  0  0  0
   10.6410    1.1300   23.1440 C   0  0  0  0  0  0  0  0  0  0  0  0
   10.4240    5.4490   23.6360 S   0  0  0  0  0  0  0  0  0  0  0  0
   11.9880    0.9770   22.9040 C   0  0  0  0  0  0  0  0  0  0  0  0
   12.4740    3.4070   23.0580 C   0  0  0  0  0  0  0  0  0  0  0  0
    9.0130    5.4210   22.6880 N   0  0  0  0  0  0  0  0  0  0  0  0
    9.8970    5.5160   24.9810 O   0  0  0  0  0  0  0  0  0  0  0  0
   11.5660    6.2880   23.3600 O   0  0  0  0  0  0  0  0  0  0  0  0
   12.8670    1.9670   22.8550 C   0  0  0  0  0  0  0  0  0  0  0  0
  1  2  1  0
  2  3  2  0
  1  4  1  0
  1  5  1  0
  2  6  1  0
  4  7  1  6
  4  8  1  0
  5  9  2  0
  5 10  1  0
  6 11  1  0
  7 12  1  0
  7 13  2  0
  8 14  2  0
  8 15  1  0
  9 16  1  0
 10 17  2  0
 12 18  1  0
 15 19  2  0
 14 20  1  0
 16 21  2  0
 17 21  1  0
 21 22  1  0
 19 23  1  0
 20 23  2  0
 18 24  1  0
 22 25  1  0
 22 26  1  0
 22 27  1  0
 24 28  2  0
 24 29  1  0
 28 30  1  0
 29 31  2  0
 28 32  1  0
 30 33  1  0
 30 34  2  0
 30 35  2  0
 31 36  1  0
 32 36  2  0
M  END
