x0946-x3110-x1458
     RDKit          3D

 51 55  0  0  0  0  0  0  0  0999 V2000
    7.9920    1.2390   23.2960 N   0  0  0  0  0  0  0  0  0  0  0  0
    8.6850    2.4330   23.8160 C   0  0  0  0  0  0  0  0  0  0  0  0
   10.1760    2.5080   23.4740 C   0  0  0  0  0  0  0  0  0  0  0  0
    7.8640    0.9540   21.9260 C   0  0  0  0  0  0  0  0  0  0  0  0
    8.6690    1.5720   20.9600 O   0  0  0  0  0  0  0  0  0  0  0  0
    6.7430   -0.0820   21.4390 C   0  0  2  0  0  0  0  0  0  0  0  0
    7.0160   -1.4890   21.6010 C   0  0  2  0  0  0  0  0  0  0  0  0
    6.1000    0.4800   20.1870 C   0  0  0  0  0  0  0  0  0  0  0  0
   10.9590    3.7090   23.4660 C   0  0  0  0  0  0  0  0  0  0  0  0
   10.8570    1.1890   23.1110 C   0  0  0  0  0  0  0  0  0  0  0  0
   10.3860    5.0820   23.8330 C   0  0  0  0  0  0  0  0  0  0  0  0
    6.1200   -2.8270   21.1200 C   0  0  0  0  0  0  0  0  0  0  0  0
    6.2680   -1.7900   22.8130 C   0  0  0  0  0  0  0  0  0  0  0  0
    4.9740    1.2570   20.1210 C   0  0  0  0  0  0  0  0  0  0  0  0
    6.7140    0.2100   18.9810 C   0  0  0  0  0  0  0  0  0  0  0  0
    8.4420   -1.6430   22.3280 C   0  0  0  0  0  0  0  0  0  0  0  0
   12.1970    1.1900   22.7840 C   0  0  0  0  0  0  0  0  0  0  0  0
   12.3010    3.6120   23.1110 C   0  0  0  0  0  0  0  0  0  0  0  0
   13.2500    4.7850   23.0400 C   0  0  0  0  0  0  0  0  0  0  0  0
    4.9330   -3.0410   20.5710 O   0  0  0  0  0  0  0  0  0  0  0  0
    9.9230    5.8400   22.7680 N   0  0  0  0  0  0  0  0  0  0  0  0
   11.1150    5.6380   24.6560 O   0  0  0  0  0  0  0  0  0  0  0  0
    9.4100    5.0500   24.5250 O   0  0  0  0  0  0  0  0  0  0  0  0
    6.3270    0.6420   17.7610 N   0  0  0  0  0  0  0  0  0  0  0  0
    4.4800    1.7800   18.7730 C   0  0  0  0  0  0  0  0  0  0  0  0
    9.5640   -2.0800   21.6960 C   0  0  0  0  0  0  0  0  0  0  0  0
    8.6190   -1.3070   23.6880 C   0  0  0  0  0  0  0  0  0  0  0  0
   12.8500    2.3910   22.7980 C   0  0  0  0  0  0  0  0  0  0  0  0
    6.7750   -4.0570   21.6440 C   0  0  2  0  0  0  0  0  0  0  0  0
    6.6370   -3.2390   22.9200 C   0  0  1  0  0  0  0  0  0  0  0  0
   13.1480    5.4120   21.6950 C   0  0  0  0  0  0  0  0  0  0  0  0
    8.1850   -4.5420   21.1280 C   0  0  0  0  0  0  0  0  0  0  0  0
    5.2270    1.4250   17.6610 C   0  0  0  0  0  0  0  0  0  0  0  0
   10.7800   -2.1890   22.2930 C   0  0  0  0  0  0  0  0  0  0  0  0
    9.8550   -1.4030   24.3420 C   0  0  0  0  0  0  0  0  0  0  0  0
    7.3380   -3.8280   23.9880 C   0  0  0  0  0  0  0  0  0  0  0  0
    5.9490   -5.2870   22.1760 C   0  0  0  0  0  0  0  0  0  0  0  0
   10.9530   -1.8540   23.6180 C   0  0  0  0  0  0  0  0  0  0  0  0
    6.2640   -4.5460   24.3070 C   0  0  1  0  0  0  0  0  0  0  0  0
    6.0130   -5.7150   23.5610 C   0  0  0  0  0  0  0  0  0  0  0  0
   12.2960   -1.9330   24.3060 C   0  0  0  0  0  0  0  0  0  0  0  0
    5.6630   -4.1030   25.6380 C   0  0  0  0  0  0  0  0  0  0  0  0
   12.7970   -0.7370   24.7860 C   0  0  0  0  0  0  0  0  0  0  0  0
   13.4000   -1.4830   23.3750 C   0  0  0  0  0  0  0  0  0  0  0  0
   12.7960   -3.0820   25.1080 C   0  0  0  0  0  0  0  0  0  0  0  0
    6.5020   -3.8760   26.8370 N   0  0  0  0  0  0  0  0  0  0  0  0
    4.4490   -3.8520   25.6700 O   0  0  0  0  0  0  0  0  0  0  0  0
    6.2380   -4.8210   27.7750 C   0  0  0  0  0  0  0  0  0  0  0  0
    6.5520   -2.4800   27.3350 C   0  0  0  0  0  0  0  0  0  0  0  0
    7.3030   -5.1280   28.8310 C   0  0  0  0  0  0  0  0  0  0  0  0
    6.0080   -6.0000   27.1060 C   0  0  0  0  0  0  0  0  0  0  0  0
  1  2  1  0
  2  3  1  0
  1  4  1  0
  4  5  2  0
  6  4  1  6
  6  7  1  0
  6  8  1  0
  3  9  2  0
  3 10  1  0
  9 11  1  0
  7 12  1  0
  7 13  1  0
  8 14  2  0
  8 15  1  0
  7 16  1  1
 10 17  2  0
  9 18  1  0
 18 19  1  0
 12 20  2  0
 11 21  1  0
 11 22  1  0
 11 23  1  0
 15 24  2  0
 14 25  1  0
 16 26  2  0
 16 27  1  0
 17 28  1  0
 18 28  2  0
 12 29  1  0
 30 13  1  6
 29 30  1  0
 19 31  1  0
 29 32  1  6
 24 33  1  0
 25 33  2  0
 26 34  1  0
 27 35  2  0
 30 36  1  0
 29 37  1  0
 34 38  2  0
 35 38  1  0
 36 39  1  0
 37 40  1  0
 39 40  1  0
 38 41  1  0
 39 42  1  1
 41 43  1  0
 41 44  1  0
 41 45  1  0
 42 46  1  0
 42 47  2  0
 46 48  1  0
 46 49  1  0
 48 50  1  0
 48 51  1  0
M  END
