x0946-x2646
     RDKit          3D

 28 30  0  0  0  0  0  0  0  0999 V2000
    4.7520    1.2170   21.7030 C   0  0  0  0  0  0  0  0  0  0  0  0
    5.2220    1.0010   20.3100 C   0  0  0  0  0  0  0  0  0  0  0  0
    6.2300   -0.0300   19.9220 C   0  0  0  0  0  0  0  0  0  0  0  0
    4.7510    1.7890   19.1100 C   0  0  0  0  0  0  0  0  0  0  0  0
    6.8050   -0.9090   20.9820 N   0  0  0  0  0  0  0  0  0  0  0  0
    6.6390   -0.1960   18.6830 C   0  0  0  0  0  0  0  0  0  0  0  0
    5.1970    1.5830   17.8580 C   0  0  0  0  0  0  0  0  0  0  0  0
    7.9280   -0.5050   21.6040 C   0  0  0  0  0  0  0  0  0  0  0  0
    6.1930    0.5650   17.5360 N   0  0  0  0  0  0  0  0  0  0  0  0
    8.5010    0.5450   21.3100 O   0  0  0  0  0  0  0  0  0  0  0  0
    8.4410   -1.4540   22.7010 C   0  0  0  0  0  0  0  0  0  0  0  0
    9.8980   -1.1100   22.8450 C   0  0  0  0  0  0  0  0  0  0  0  0
   10.2400    0.2000   22.9580 C   0  0  0  0  0  0  0  0  0  0  0  0
   10.9100   -2.0290   22.8450 C   0  0  0  0  0  0  0  0  0  0  0  0
   11.5350    0.5630   23.0510 C   0  0  0  0  0  0  0  0  0  0  0  0
   12.2320   -1.6410   22.9560 C   0  0  0  0  0  0  0  0  0  0  0  0
   13.4640   -2.7590   22.9500 Cl  0  0  0  0  0  0  0  0  0  0  0  0
   12.5680   -0.3330   23.0620 C   0  0  0  0  0  0  0  0  0  0  0  0
   11.8020    1.9220   23.0930 C   0  0  0  0  0  0  0  0  0  0  0  0
   13.0460    2.2350   22.6840 C   0  0  0  0  0  0  0  0  0  0  0  0
   10.8750    2.9990   23.5020 C   0  0  0  0  0  0  0  0  0  0  0  0
   13.4870    3.6690   22.6100 C   0  0  0  0  0  0  0  0  0  0  0  0
   11.3450    4.4160   23.4470 C   0  0  0  0  0  0  0  0  0  0  0  0
   10.2220    5.7450   23.9680 S   0  0  0  0  0  0  0  0  0  0  0  0
   12.5640    4.7350   23.0230 C   0  0  0  0  0  0  0  0  0  0  0  0
    8.9290    5.5460   22.8630 N   0  0  0  0  0  0  0  0  0  0  0  0
    9.7430    5.5640   25.3220 O   0  0  0  0  0  0  0  0  0  0  0  0
   10.8180    7.0360   23.7210 O   0  0  0  0  0  0  0  0  0  0  0  0
  1  2  1  0
  2  3  2  0
  2  4  1  0
  3  5  1  0
  3  6  1  0
  4  7  2  0
  5  8  1  0
  6  9  2  0
  7  9  1  0
  8 10  2  0
  8 11  1  0
 11 12  1  0
 12 13  2  0
 12 14  1  0
 13 15  1  0
 14 16  2  0
 16 17  1  0
 15 18  2  0
 16 18  1  0
 15 19  1  0
 19 20  2  0
 19 21  1  0
 20 22  1  0
 21 23  2  0
 23 24  1  0
 22 25  2  0
 23 25  1  0
 24 26  1  0
 24 27  2  0
 24 28  2  0
M  END
