x0946-x1358-x3110
     RDKit          3D

 53 57  0  0  0  0  0  0  0  0999 V2000
    8.0090    1.3640   23.4360 N   0  0  0  0  0  0  0  0  0  0  0  0
    8.6960    2.6410   23.8020 C   0  0  0  0  0  0  0  0  0  0  0  0
   10.1770    2.5990   23.4710 C   0  0  0  0  0  0  0  0  0  0  0  0
    7.9290    0.9760   22.0350 C   0  0  0  0  0  0  0  0  0  0  0  0
    8.5810    1.4550   21.0810 O   0  0  0  0  0  0  0  0  0  0  0  0
    6.8870   -0.1530   21.6410 C   0  0  2  0  0  0  0  0  0  0  0  0
    7.4860   -1.5730   21.7210 N   0  0  0  0  0  0  0  0  0  0  0  0
    6.2630    0.2830   20.3330 C   0  0  0  0  0  0  0  0  0  0  0  0
   11.0110    3.7280   23.3630 C   0  0  0  0  0  0  0  0  0  0  0  0
   10.8210    1.2380   23.2250 C   0  0  0  0  0  0  0  0  0  0  0  0
   10.5150    5.1640   23.5680 C   0  0  0  0  0  0  0  0  0  0  0  0
    5.0740    0.9870   20.2890 C   0  0  0  0  0  0  0  0  0  0  0  0
    6.9160   -0.0210   19.1500 C   0  0  0  0  0  0  0  0  0  0  0  0
    8.7230   -1.5850   22.4540 C   0  0  0  0  0  0  0  0  0  0  0  0
   12.1580    1.0820   22.9060 C   0  0  0  0  0  0  0  0  0  0  0  0
   12.4770    3.5740   23.0180 C   0  0  0  0  0  0  0  0  0  0  0  0
    6.7860   -2.7750   22.2970 C   0  0  2  0  0  0  0  0  0  0  0  0
   13.4070    4.7430   22.8940 C   0  0  0  0  0  0  0  0  0  0  0  0
    9.1340    5.3710   23.0920 N   0  0  0  0  0  0  0  0  0  0  0  0
   11.1050    5.9470   22.8770 O   0  0  0  0  0  0  0  0  0  0  0  0
   10.7070    5.7370   24.8200 O   0  0  0  0  0  0  0  0  0  0  0  0
    6.4730    0.3300   17.9500 N   0  0  0  0  0  0  0  0  0  0  0  0
    4.6060    1.3550   19.0540 C   0  0  0  0  0  0  0  0  0  0  0  0
    9.7900   -2.0240   21.8040 C   0  0  0  0  0  0  0  0  0  0  0  0
    8.8250   -1.1600   23.8940 C   0  0  0  0  0  0  0  0  0  0  0  0
   13.0030    2.3360   22.8050 C   0  0  0  0  0  0  0  0  0  0  0  0
    6.5180   -3.8930   21.3870 N   0  0  0  0  0  0  0  0  0  0  0  0
    5.6910   -2.5290   23.0870 C   0  0  0  0  0  0  0  0  0  0  0  0
   13.3110    5.2940   21.5280 C   0  0  0  0  0  0  0  0  0  0  0  0
    6.1630   -3.7970   20.0670 C   0  0  0  0  0  0  0  0  0  0  0  0
    5.2880    1.0410   17.8970 C   0  0  0  0  0  0  0  0  0  0  0  0
   11.0400   -2.0970   22.3900 C   0  0  0  0  0  0  0  0  0  0  0  0
   10.0780   -1.2560   24.4260 C   0  0  0  0  0  0  0  0  0  0  0  0
    5.3540   -3.7610   23.8990 C   0  0  2  0  0  0  0  0  0  0  0  0
    6.2680   -5.1710   22.0500 C   0  0  0  0  0  0  0  0  0  0  0  0
    5.1010   -4.2750   19.7180 O   0  0  0  0  0  0  0  0  0  0  0  0
    5.5010   -3.4050   25.3880 C   0  0  0  0  0  0  0  0  0  0  0  0
    7.1370   -3.1460   19.0980 C   0  0  0  0  0  0  0  0  0  0  0  0
   11.2050   -1.7110   23.7170 C   0  0  0  0  0  0  0  0  0  0  0  0
    5.9910   -4.9640   23.5430 C   0  0  0  0  0  0  0  0  0  0  0  0
   12.5990   -1.8050   24.2790 C   0  0  0  0  0  0  0  0  0  0  0  0
    6.5310   -2.5300   25.7440 N   0  0  0  0  0  0  0  0  0  0  0  0
    4.7490   -3.8450   26.2480 O   0  0  0  0  0  0  0  0  0  0  0  0
   12.8240   -0.8130   24.9030 C   0  0  0  0  0  0  0  0  0  0  0  0
   13.5640   -2.0070   23.1200 C   0  0  0  0  0  0  0  0  0  0  0  0
   12.8810   -3.0110   25.1620 C   0  0  0  0  0  0  0  0  0  0  0  0
    6.5480   -1.5500   26.8450 C   0  0  0  0  0  0  0  0  0  0  0  0
    5.9970   -0.2970   26.4880 C   0  0  0  0  0  0  0  0  0  0  0  0
    7.0890   -1.7810   28.2670 C   0  0  0  0  0  0  0  0  0  0  0  0
    5.5240   -0.1740   25.2050 O   0  0  0  0  0  0  0  0  0  0  0  0
    7.0100   -0.6090   29.2340 C   0  0  0  0  0  0  0  0  0  0  0  0
    5.8930    0.8200   27.3340 C   0  0  0  0  0  0  0  0  0  0  0  0
    6.4040    0.7100   28.7610 C   0  0  0  0  0  0  0  0  0  0  0  0
  1  2  1  0
  2  3  1  0
  1  4  1  0
  4  5  2  0
  6  4  1  6
  6  7  1  0
  6  8  1  0
  3  9  2  0
  3 10  1  0
  9 11  1  0
  8 12  2  0
  8 13  1  0
  7 14  1  0
 10 15  2  0
  9 16  1  0
 17  7  1  6
 16 18  1  0
 11 19  1  0
 11 20  1  0
 11 21  1  0
 13 22  2  0
 12 23  1  0
 14 24  2  0
 14 25  1  0
 15 26  1  0
 16 26  2  0
 17 27  1  0
 17 28  1  0
 18 29  1  0
 27 30  1  0
 22 31  1  0
 23 31  2  0
 24 32  1  0
 25 33  2  0
 28 34  1  0
 27 35  1  0
 30 36  2  0
 34 37  1  1
 30 38  1  0
 32 39  2  0
 33 39  1  0
 34 40  1  0
 35 40  1  0
 39 41  1  0
 37 42  1  0
 37 43  2  0
 41 44  1  0
 41 45  1  0
 41 46  1  0
 42 47  1  0
 47 48  2  0
 47 49  1  0
 48 50  1  0
 49 51  2  0
 48 52  1  0
 51 53  1  0
 52 53  2  0
M  END
