x0946-x2703
     RDKit          3D

 42 45  0  0  0  0  0  0  0  0999 V2000
    6.9610   -1.5720   21.8000 N   0  0  0  0  0  0  0  0  0  0  0  0
    6.1370   -2.8320   21.5710 C   0  0  0  0  0  0  0  0  0  0  0  0
    4.8530   -3.0400   21.2340 O   0  0  0  0  0  0  0  0  0  0  0  0
    6.3330   -0.1530   21.7110 C   0  0  1  0  0  0  0  0  0  0  0  0
    8.2870   -1.6470   22.4950 C   0  0  1  0  0  0  0  0  0  0  0  0
    6.8610   -4.1350   21.7290 C   0  0  0  0  0  0  0  0  0  0  0  0
    7.2280    0.9040   22.0870 C   0  0  0  0  0  0  0  0  0  0  0  0
    5.8620    0.2890   20.3880 C   0  0  0  0  0  0  0  0  0  0  0  0
    8.5080   -2.7290   23.5290 C   0  0  0  0  0  0  0  0  0  0  0  0
    9.7170   -1.4920   21.8840 C   0  0  0  0  0  0  0  0  0  0  0  0
    6.7450   -4.8570   20.3930 C   0  0  0  0  0  0  0  0  0  0  0  0
    6.8550    1.8060   23.1380 N   0  0  0  0  0  0  0  0  0  0  0  0
    8.2890    1.0660   21.4710 O   0  0  0  0  0  0  0  0  0  0  0  0
    4.6770    0.9870   20.1940 C   0  0  0  0  0  0  0  0  0  0  0  0
    6.7020    0.0060   19.1430 C   0  0  0  0  0  0  0  0  0  0  0  0
   10.7960   -1.4060   22.7340 N   0  0  0  0  0  0  0  0  0  0  0  0
    9.7260   -3.0850   23.9780 C   0  0  0  0  0  0  0  0  0  0  0  0
   12.0440   -0.9300   22.3130 O   0  0  0  0  0  0  0  0  0  0  0  0
    6.3940    0.3780   17.9170 N   0  0  0  0  0  0  0  0  0  0  0  0
    4.3940    1.3600   18.8980 C   0  0  0  0  0  0  0  0  0  0  0  0
   11.0070   -2.4330   23.5030 C   0  0  2  0  0  0  0  0  0  0  0  0
    7.3930    3.1450   23.3470 C   0  0  0  0  0  0  0  0  0  0  0  0
   11.9790   -2.0700   24.6750 C   0  0  0  0  0  0  0  0  0  0  0  0
    5.2310    1.0570   17.8550 C   0  0  0  0  0  0  0  0  0  0  0  0
    8.4820    3.4620   24.4530 C   0  0  0  0  0  0  0  0  0  0  0  0
    6.9360    4.3840   22.4610 C   0  0  0  0  0  0  0  0  0  0  0  0
   11.9980    0.4080   22.5550 C   0  0  0  0  0  0  0  0  0  0  0  0
    5.8840    4.2300   21.4040 C   0  0  0  0  0  0  0  0  0  0  0  0
   12.6700   -3.1680   25.0730 C   0  0  0  0  0  0  0  0  0  0  0  0
   12.8870   -1.0520   24.4440 C   0  0  0  0  0  0  0  0  0  0  0  0
    9.0290    4.8890   24.5570 C   0  0  0  0  0  0  0  0  0  0  0  0
    7.6060    5.7080   22.7350 C   0  0  0  0  0  0  0  0  0  0  0  0
   13.2120    1.3260   22.6680 C   0  0  0  0  0  0  0  0  0  0  0  0
   10.7360    1.0840   22.7110 C   0  0  0  0  0  0  0  0  0  0  0  0
    9.9910    5.1670   25.5060 O   0  0  0  0  0  0  0  0  0  0  0  0
    8.6460    5.9120   23.7840 C   0  0  0  0  0  0  0  0  0  0  0  0
   12.9810    2.8420   22.8860 C   0  0  0  0  0  0  0  0  0  0  0  0
   10.7150    2.3980   22.9010 C   0  0  0  0  0  0  0  0  0  0  0  0
    9.4820    3.0330   23.0210 C   0  0  0  0  0  0  0  0  0  0  0  0
   11.6940    3.2630   22.9890 C   0  0  0  0  0  0  0  0  0  0  0  0
   11.0860    6.0410   25.2060 C   0  0  0  0  0  0  0  0  0  0  0  0
   11.2580    6.2360   23.8070 O   0  0  0  0  0  0  0  0  0  0  0  0
  1  2  1  0
  2  3  2  0
  1  4  1  0
  5  1  1  6
  2  6  1  0
  4  7  1  6
  4  8  1  0
  5  9  1  0
  5 10  1  0
  6 11  1  0
  7 12  1  0
  7 13  2  0
  8 14  2  0
  8 15  1  0
 10 16  1  0
  9 17  2  0
 16 18  1  0
 15 19  2  0
 14 20  1  0
 16 21  1  0
 17 21  1  0
 12 22  1  0
 21 23  1  1
 19 24  1  0
 20 24  2  0
 22 25  2  0
 22 26  1  0
 18 27  1  0
 26 28  1  0
 23 29  1  0
 23 30  1  0
 25 31  1  0
 26 32  2  0
 27 33  2  0
 27 34  1  0
 31 35  1  0
 31 36  2  0
 32 36  1  0
 33 37  1  0
 34 38  2  0
 38 39  1  0
 37 40  2  0
 38 40  1  0
 35 41  1  0
 41 42  1  0
M  END
