x0946-x0820-x3110
     RDKit          3D

 49 53  0  0  0  0  0  0  0  0999 V2000
    7.8290    1.2510   23.6000 N   0  0  0  0  0  0  0  0  0  0  0  0
    8.5970    2.4510   23.9760 C   0  0  0  0  0  0  0  0  0  0  0  0
   10.0730    2.4060   23.6090 C   0  0  0  0  0  0  0  0  0  0  0  0
    7.7710    0.6660   22.2580 C   0  0  0  0  0  0  0  0  0  0  0  0
    8.4520    1.0530   21.2890 O   0  0  0  0  0  0  0  0  0  0  0  0
    6.8000   -0.5110   21.9320 C   0  0  2  0  0  0  0  0  0  0  0  0
    7.3120   -1.7340   22.2300 N   0  0  0  0  0  0  0  0  0  0  0  0
    6.2460   -0.0470   20.5450 C   0  0  0  0  0  0  0  0  0  0  0  0
   10.9160    3.6600   23.4560 C   0  0  0  0  0  0  0  0  0  0  0  0
   10.6370    1.1620   23.4090 C   0  0  0  0  0  0  0  0  0  0  0  0
   10.3950    5.0960   23.6530 C   0  0  0  0  0  0  0  0  0  0  0  0
    6.6680   -3.0930   22.3060 C   0  0  2  0  0  0  0  0  0  0  0  0
    5.0340    0.6430   20.4750 C   0  0  0  0  0  0  0  0  0  0  0  0
    6.9640   -0.2780   19.3340 C   0  0  0  0  0  0  0  0  0  0  0  0
    8.5330   -1.7910   22.7030 C   0  0  0  0  0  0  0  0  0  0  0  0
   12.0950    0.9670   23.0270 C   0  0  0  0  0  0  0  0  0  0  0  0
   12.3670    3.4490   23.0770 C   0  0  0  0  0  0  0  0  0  0  0  0
   13.3410    4.5720   22.8870 C   0  0  0  0  0  0  0  0  0  0  0  0
    5.7000   -3.4340   21.4450 N   0  0  0  0  0  0  0  0  0  0  0  0
    9.2690    5.4080   22.8960 N   0  0  0  0  0  0  0  0  0  0  0  0
   10.0740    5.3990   24.9720 O   0  0  0  0  0  0  0  0  0  0  0  0
   11.1810    5.9750   23.3000 O   0  0  0  0  0  0  0  0  0  0  0  0
    6.4810    0.1790   18.0920 N   0  0  0  0  0  0  0  0  0  0  0  0
    4.5840    1.1020   19.0900 C   0  0  0  0  0  0  0  0  0  0  0  0
    9.5560   -1.7930   21.7850 C   0  0  0  0  0  0  0  0  0  0  0  0
    8.8260   -1.8550   24.0520 C   0  0  0  0  0  0  0  0  0  0  0  0
    6.0660   -3.5290   23.6840 C   0  0  0  0  0  0  0  0  0  0  0  0
   12.9280    2.0310   22.8690 C   0  0  0  0  0  0  0  0  0  0  0  0
   13.1410    5.2750   21.5610 C   0  0  0  0  0  0  0  0  0  0  0  0
    5.9940   -4.0750   20.2780 C   0  0  0  0  0  0  0  0  0  0  0  0
    5.3190    0.8590   17.9610 C   0  0  0  0  0  0  0  0  0  0  0  0
   10.8500   -1.8760   22.2300 C   0  0  0  0  0  0  0  0  0  0  0  0
   10.1390   -1.9360   24.4650 C   0  0  0  0  0  0  0  0  0  0  0  0
    6.7510   -4.1020   24.7800 C   0  0  0  0  0  0  0  0  0  0  0  0
    4.6640   -3.3290   23.7810 C   0  0  0  0  0  0  0  0  0  0  0  0
    5.5610   -5.1940   20.0390 O   0  0  0  0  0  0  0  0  0  0  0  0
    6.8500   -3.2790   19.3050 C   0  0  0  0  0  0  0  0  0  0  0  0
   11.1550   -1.9540   23.5440 C   0  0  0  0  0  0  0  0  0  0  0  0
    5.9470   -4.4590   25.9930 C   0  0  0  0  0  0  0  0  0  0  0  0
    3.9730   -3.6880   24.9500 C   0  0  0  0  0  0  0  0  0  0  0  0
    8.1410   -4.4120   24.9100 C   0  0  0  0  0  0  0  0  0  0  0  0
   12.4150   -2.0730   24.3330 C   0  0  0  0  0  0  0  0  0  0  0  0
    4.5960   -4.2320   26.0190 C   0  0  0  0  0  0  0  0  0  0  0  0
    6.5290   -5.0920   27.2740 C   0  0  0  0  0  0  0  0  0  0  0  0
    8.6980   -5.0070   26.0820 C   0  0  0  0  0  0  0  0  0  0  0  0
   12.7000   -0.8060   25.1080 C   0  0  0  0  0  0  0  0  0  0  0  0
   13.4590   -2.2770   23.4830 C   0  0  0  0  0  0  0  0  0  0  0  0
   12.2150   -3.2640   25.2760 C   0  0  0  0  0  0  0  0  0  0  0  0
    7.8890   -5.3670   27.3220 C   0  0  0  0  0  0  0  0  0  0  0  0
  1  2  1  0
  2  3  1  0
  1  4  1  0
  4  5  2  0
  6  4  1  6
  6  7  1  0
  6  8  1  0
  3  9  2  0
  3 10  1  0
  9 11  1  0
  7 12  1  0
  8 13  2  0
  8 14  1  0
  7 15  1  0
 10 16  2  0
  9 17  1  0
 17 18  1  0
 12 19  1  6
 11 20  1  0
 11 21  1  0
 11 22  1  0
 14 23  2  0
 13 24  1  0
 15 25  2  0
 15 26  1  0
 12 27  1  0
 16 28  1  0
 17 28  2  0
 18 29  1  0
 19 30  1  0
 23 31  1  0
 24 31  2  0
 25 32  1  0
 26 33  2  0
 27 34  1  0
 27 35  2  0
 30 36  2  0
 30 37  1  0
 32 38  2  0
 33 38  1  0
 34 39  2  0
 35 40  1  0
 34 41  1  0
 38 42  1  0
 39 43  1  0
 40 43  2  0
 39 44  1  0
 41 45  2  0
 42 46  1  0
 42 47  1  0
 42 48  1  0
 44 49  2  0
 45 49  1  0
M  END
