x0946-x0769-x3110
     RDKit          3D

 55 59  0  0  0  0  0  0  0  0999 V2000
    8.2350    1.4460   23.4790 N   0  0  0  0  0  0  0  0  0  0  0  0
    8.9360    2.6830   23.8460 C   0  0  0  0  0  0  0  0  0  0  0  0
   10.2380    2.5990   23.5150 C   0  0  0  0  0  0  0  0  0  0  0  0
    7.9560    1.1200   22.1000 C   0  0  0  0  0  0  0  0  0  0  0  0
    8.7230    1.6820   21.0270 O   0  0  0  0  0  0  0  0  0  0  0  0
    6.7740    0.1620   21.8910 C   0  0  2  0  0  0  0  0  0  0  0  0
    7.0300   -1.1950   22.1190 N   0  0  0  0  0  0  0  0  0  0  0  0
    6.2760    0.4410   20.4990 C   0  0  0  0  0  0  0  0  0  0  0  0
   11.0520    3.7440   23.4410 C   0  0  0  0  0  0  0  0  0  0  0  0
   10.8230    1.2120   23.2080 C   0  0  0  0  0  0  0  0  0  0  0  0
   10.4870    5.1570   23.7600 C   0  0  0  0  0  0  0  0  0  0  0  0
    6.1130   -1.9300   22.8640 C   0  0  0  0  0  0  0  0  0  0  0  0
    5.1600    1.2260   20.2710 C   0  0  0  0  0  0  0  0  0  0  0  0
    6.9100   -0.0560   19.3560 C   0  0  0  0  0  0  0  0  0  0  0  0
    8.3600   -1.3950   22.5980 C   0  0  0  0  0  0  0  0  0  0  0  0
   12.1720    1.2450   22.8680 C   0  0  0  0  0  0  0  0  0  0  0  0
   12.3790    3.6230   23.0810 C   0  0  0  0  0  0  0  0  0  0  0  0
   13.2510    4.8420   22.9930 C   0  0  0  0  0  0  0  0  0  0  0  0
   11.0920    5.6820   24.5590 N   0  0  0  0  0  0  0  0  0  0  0  0
    9.2980    5.1490   24.0080 O   0  0  0  0  0  0  0  0  0  0  0  0
   10.6890    6.0400   22.6910 O   0  0  0  0  0  0  0  0  0  0  0  0
    5.4080   -2.8780   22.1270 C   0  0  0  0  0  0  0  0  0  0  0  0
    6.5120    0.1860   18.0550 N   0  0  0  0  0  0  0  0  0  0  0  0
    4.6880    1.5220   19.0110 C   0  0  0  0  0  0  0  0  0  0  0  0
    9.3520   -1.8280   21.7590 C   0  0  0  0  0  0  0  0  0  0  0  0
    8.7550   -1.1450   24.0080 C   0  0  0  0  0  0  0  0  0  0  0  0
   12.8460    2.3920   22.8220 C   0  0  0  0  0  0  0  0  0  0  0  0
   13.1870    5.3920   21.6130 C   0  0  0  0  0  0  0  0  0  0  0  0
    5.3010    1.0500   17.8650 C   0  0  0  0  0  0  0  0  0  0  0  0
   10.6710   -2.0240   22.1720 C   0  0  0  0  0  0  0  0  0  0  0  0
   10.0480   -1.3360   24.3870 C   0  0  0  0  0  0  0  0  0  0  0  0
    6.0170   -4.3220   21.9870 C   0  0  0  0  0  0  0  0  0  0  0  0
    6.3250   -4.4380   20.5070 C   0  0  0  0  0  0  0  0  0  0  0  0
   11.1160   -1.7650   23.6050 C   0  0  0  0  0  0  0  0  0  0  0  0
    5.0040   -5.2630   22.3090 C   0  0  0  0  0  0  0  0  0  0  0  0
    7.3230   -4.5600   22.8440 C   0  0  0  0  0  0  0  0  0  0  0  0
   12.5130   -1.9280   24.1070 C   0  0  0  0  0  0  0  0  0  0  0  0
    5.7710   -5.3620   19.9750 O   0  0  0  0  0  0  0  0  0  0  0  0
    7.1860   -3.4420   19.6970 C   0  0  0  0  0  0  0  0  0  0  0  0
    5.2590   -6.0840   23.3780 C   0  0  0  0  0  0  0  0  0  0  0  0
    7.0280   -4.6450   24.3450 C   0  0  0  0  0  0  0  0  0  0  0  0
   12.7040   -0.7500   25.0500 C   0  0  0  0  0  0  0  0  0  0  0  0
   13.4250   -2.0070   22.9120 C   0  0  0  0  0  0  0  0  0  0  0  0
   12.7230   -2.9560   24.9180 C   0  0  0  0  0  0  0  0  0  0  0  0
    5.6370   -5.1660   24.4530 N   0  0  0  0  0  0  0  0  0  0  0  0
    4.8490   -5.3290   25.9600 S   0  0  0  0  0  0  0  0  0  0  0  0
    5.8620   -5.0360   26.9480 O   0  0  0  0  0  0  0  0  0  0  0  0
    3.9790   -6.4560   26.2150 O   0  0  0  0  0  0  0  0  0  0  0  0
    3.7640   -3.9100   25.9630 C   0  0  0  0  0  0  0  0  0  0  0  0
    4.2810   -2.4750   26.1350 C   0  0  0  0  0  0  0  0  0  0  0  0
    2.3960   -4.0950   25.8050 C   0  0  0  0  0  0  0  0  0  0  0  0
    5.5850   -2.2230   26.2890 F   0  0  0  0  0  0  0  0  0  0  0  0
    1.5610   -2.9890   25.8130 C   0  0  0  0  0  0  0  0  0  0  0  0
    3.4010   -1.3900   26.1350 C   0  0  0  0  0  0  0  0  0  0  0  0
    2.0370   -1.6570   25.9740 C   0  0  0  0  0  0  0  0  0  0  0  0
  1  2  1  0
  2  3  1  0
  1  4  1  0
  4  5  2  0
  6  4  1  6
  6  7  1  0
  6  8  1  0
  3  9  2  0
  3 10  1  0
  9 11  1  0
  7 12  1  0
  8 13  2  0
  8 14  1  0
  7 15  1  0
 10 16  2  0
  9 17  1  0
 17 18  1  0
 11 19  1  0
 11 20  1  0
 11 21  1  0
 12 22  1  0
 14 23  2  0
 13 24  1  0
 15 25  2  0
 15 26  1  0
 16 27  1  0
 17 27  2  0
 18 28  1  0
 23 29  1  0
 24 29  2  0
 25 30  1  0
 26 31  2  0
 22 32  1  0
 32 33  1  0
 30 34  2  0
 31 34  1  0
 32 35  1  0
 32 36  1  0
 34 37  1  0
 33 38  2  0
 33 39  1  0
 35 40  1  0
 36 41  1  0
 37 42  1  0
 37 43  1  0
 37 44  1  0
 40 45  1  0
 41 45  1  0
 45 46  1  0
 46 47  2  0
 46 48  2  0
 46 49  1  0
 49 50  2  0
 49 51  1  0
 50 52  1  0
 51 53  2  0
 50 54  1  0
 53 55  1  0
 54 55  2  0
M  END
