x0946-x1402-x3110
     RDKit          3D

 54 58  0  0  0  0  0  0  0  0999 V2000
    8.0500    1.3690   23.3420 N   0  0  0  0  0  0  0  0  0  0  0  0
    8.6910    2.5070   23.7680 C   0  0  0  0  0  0  0  0  0  0  0  0
   10.1810    2.4710   23.4700 C   0  0  0  0  0  0  0  0  0  0  0  0
    7.8710    1.0010   22.0070 C   0  0  0  0  0  0  0  0  0  0  0  0
    8.6090    1.5030   21.1290 O   0  0  0  0  0  0  0  0  0  0  0  0
    6.8350    0.0870   21.7670 C   0  0  2  0  0  0  0  0  0  0  0  0
    7.1130   -1.0470   21.9400 N   0  0  0  0  0  0  0  0  0  0  0  0
    6.2920    0.4610   20.3430 C   0  0  0  0  0  0  0  0  0  0  0  0
   11.0090    3.6260   23.3760 C   0  0  0  0  0  0  0  0  0  0  0  0
   10.7510    1.2220   23.2710 C   0  0  0  0  0  0  0  0  0  0  0  0
   10.3950    5.0450   23.5950 C   0  0  0  0  0  0  0  0  0  0  0  0
    5.9970   -1.9820   21.9820 C   0  0  0  0  0  0  0  0  0  0  0  0
    5.2030    1.3100   20.2110 C   0  0  0  0  0  0  0  0  0  0  0  0
    6.9530   -0.0950   19.0950 C   0  0  0  0  0  0  0  0  0  0  0  0
    8.3900   -1.3310   22.5560 C   0  0  0  0  0  0  0  0  0  0  0  0
   12.0920    1.1310   22.9790 C   0  0  0  0  0  0  0  0  0  0  0  0
   12.3780    3.5050   23.0830 C   0  0  0  0  0  0  0  0  0  0  0  0
   13.2370    4.7400   23.0050 C   0  0  0  0  0  0  0  0  0  0  0  0
    9.4040    5.2620   23.0230 N   0  0  0  0  0  0  0  0  0  0  0  0
   10.2010    5.3080   24.7780 O   0  0  0  0  0  0  0  0  0  0  0  0
   11.2740    6.0800   23.2430 O   0  0  0  0  0  0  0  0  0  0  0  0
    5.9490   -3.1550   22.7470 C   0  0  0  0  0  0  0  0  0  0  0  0
    6.3520    0.3530   17.8020 N   0  0  0  0  0  0  0  0  0  0  0  0
    4.6990    1.6770   18.9780 C   0  0  0  0  0  0  0  0  0  0  0  0
    9.5300   -1.3080   21.7650 C   0  0  0  0  0  0  0  0  0  0  0  0
    8.5860   -1.6130   23.9230 C   0  0  0  0  0  0  0  0  0  0  0  0
   12.8870    2.2290   22.8840 C   0  0  0  0  0  0  0  0  0  0  0  0
   13.1330    5.3970   21.6250 C   0  0  0  0  0  0  0  0  0  0  0  0
    5.3070    1.1790   17.8360 C   0  0  0  0  0  0  0  0  0  0  0  0
   10.9850   -1.5600   22.3340 C   0  0  0  0  0  0  0  0  0  0  0  0
    9.8660   -1.8300   24.4330 C   0  0  0  0  0  0  0  0  0  0  0  0
    6.4120   -4.4960   22.0560 C   0  0  0  0  0  0  0  0  0  0  0  0
    6.3760   -4.2500   20.5300 C   0  0  0  0  0  0  0  0  0  0  0  0
   11.0660   -1.8050   23.7060 C   0  0  0  0  0  0  0  0  0  0  0  0
    7.5240   -4.9840   22.7430 C   0  0  0  0  0  0  0  0  0  0  0  0
    5.2540   -5.5480   22.1510 C   0  0  0  0  0  0  0  0  0  0  0  0
   12.4470   -2.0000   24.3160 C   0  0  0  0  0  0  0  0  0  0  0  0
    7.3760   -3.3630   19.7470 C   0  0  0  0  0  0  0  0  0  0  0  0
    5.4400   -4.7870   19.9610 O   0  0  0  0  0  0  0  0  0  0  0  0
    7.2860   -5.0970   24.1260 C   0  0  0  0  0  0  0  0  0  0  0  0
    5.1930   -6.2250   23.3560 C   0  0  0  0  0  0  0  0  0  0  0  0
   12.7760   -0.8640   25.0430 C   0  0  0  0  0  0  0  0  0  0  0  0
   13.4480   -2.1590   23.1800 C   0  0  0  0  0  0  0  0  0  0  0  0
   12.6630   -3.1960   25.2400 C   0  0  0  0  0  0  0  0  0  0  0  0
    5.8480   -5.3800   24.3560 N   0  0  0  0  0  0  0  0  0  0  0  0
    5.2310   -5.3700   25.9340 S   0  0  0  0  0  0  0  0  0  0  0  0
    4.3430   -6.5060   26.0480 O   0  0  0  0  0  0  0  0  0  0  0  0
    6.3340   -5.1710   26.8380 O   0  0  0  0  0  0  0  0  0  0  0  0
    4.2240   -3.8990   25.9810 C   0  0  0  0  0  0  0  0  0  0  0  0
    2.5010   -3.9010   26.0080 S   0  0  0  0  0  0  0  0  0  0  0  0
    4.6460   -2.6010   26.0070 C   0  0  0  0  0  0  0  0  0  0  0  0
    3.5730   -1.5590   26.0570 C   0  0  0  0  0  0  0  0  0  0  0  0
    2.3760   -2.1830   26.0670 C   0  0  0  0  0  0  0  0  0  0  0  0
    0.8300   -1.4510   26.1360 Cl  0  0  0  0  0  0  0  0  0  0  0  0
  1  2  1  0
  2  3  1  0
  1  4  1  0
  4  5  2  0
  6  4  1  6
  6  7  1  0
  6  8  1  0
  3  9  2  0
  3 10  1  0
  9 11  1  0
  7 12  1  0
  8 13  2  0
  8 14  1  0
  7 15  1  0
 10 16  2  0
  9 17  1  0
 17 18  1  0
 11 19  1  0
 11 20  1  0
 11 21  1  0
 12 22  1  0
 14 23  2  0
 13 24  1  0
 15 25  2  0
 15 26  1  0
 16 27  1  0
 17 27  2  0
 18 28  1  0
 23 29  1  0
 24 29  2  0
 25 30  1  0
 26 31  2  0
 22 32  1  0
 32 33  1  0
 30 34  2  0
 31 34  1  0
 32 35  1  0
 32 36  1  0
 34 37  1  0
 33 38  1  0
 33 39  2  0
 35 40  1  0
 36 41  1  0
 37 42  1  0
 37 43  1  0
 37 44  1  0
 40 45  1  0
 41 45  1  0
 45 46  1  0
 46 47  2  0
 46 48  2  0
 46 49  1  0
 49 50  1  0
 49 51  2  0
 51 52  1  0
 50 53  1  0
 52 53  2  0
 53 54  1  0
M  END
