x0946-x3117
     RDKit          3D

 40 44  0  0  0  0  0  0  0  0999 V2000
    6.8300   -1.5530   21.8980 N   0  0  0  0  0  0  0  0  0  0  0  0
    6.0240   -2.7770   21.6200 C   0  0  0  0  0  0  0  0  0  0  0  0
    4.7710   -2.9790   21.2940 O   0  0  0  0  0  0  0  0  0  0  0  0
    6.4890   -0.0460   21.7490 C   0  0  1  0  0  0  0  0  0  0  0  0
    8.1790   -1.6380   22.5950 C   0  0  0  0  0  0  0  0  0  0  0  0
    6.7830   -4.0680   21.7310 C   0  0  0  0  0  0  0  0  0  0  0  0
    7.6280    0.8560   21.8830 C   0  0  0  0  0  0  0  0  0  0  0  0
    6.1210    0.2940   20.3280 C   0  0  0  0  0  0  0  0  0  0  0  0
    9.3460   -2.1480   21.7750 C   0  0  0  0  0  0  0  0  0  0  0  0
    8.4770   -1.2190   24.0890 C   0  0  0  0  0  0  0  0  0  0  0  0
    6.6530   -4.7910   20.3860 C   0  0  0  0  0  0  0  0  0  0  0  0
    7.7240    1.6520   23.0390 N   0  0  0  0  0  0  0  0  0  0  0  0
    8.4910    0.9600   21.0140 O   0  0  0  0  0  0  0  0  0  0  0  0
    5.0360    1.1420   20.2190 C   0  0  0  0  0  0  0  0  0  0  0  0
    6.6730   -0.0700   19.1100 C   0  0  0  0  0  0  0  0  0  0  0  0
   10.6730   -2.1990   22.4190 C   0  0  0  0  0  0  0  0  0  0  0  0
    9.8850   -1.3230   24.6110 C   0  0  0  0  0  0  0  0  0  0  0  0
    6.2880    0.3050   17.8960 N   0  0  0  0  0  0  0  0  0  0  0  0
    4.6110    1.5500   18.9870 C   0  0  0  0  0  0  0  0  0  0  0  0
    8.1980    3.0950   23.1310 C   0  0  1  0  0  0  0  0  0  0  0  0
   10.9410   -1.8330   23.6690 C   0  0  0  0  0  0  0  0  0  0  0  0
   12.4180   -1.8680   24.2740 C   0  0  0  0  0  0  0  0  0  0  0  0
    5.2070    1.1620   17.8170 C   0  0  0  0  0  0  0  0  0  0  0  0
    9.4040    3.4070   22.5740 C   0  0  0  0  0  0  0  0  0  0  0  0
    7.1430    4.0220   22.4730 C   0  0  0  0  0  0  0  0  0  0  0  0
   12.7150   -0.7020   25.1480 C   0  0  0  0  0  0  0  0  0  0  0  0
   13.4430   -1.8470   23.1390 C   0  0  0  0  0  0  0  0  0  0  0  0
   12.8170   -3.0930   25.0770 C   0  0  0  0  0  0  0  0  0  0  0  0
    9.9030    4.8440   23.0160 C   0  0  2  0  0  0  0  0  0  0  0  0
    7.6490    5.4400   22.5790 C   0  0  0  0  0  0  0  0  0  0  0  0
   11.4880    5.2100   23.9530 S   0  0  0  0  0  0  0  0  0  0  0  0
    8.7250    5.6230   23.4670 C   0  0  2  0  0  0  0  0  0  0  0  0
    9.2280    6.8940   23.3390 O   0  0  0  0  0  0  0  0  0  0  0  0
   11.5910    3.5800   23.6170 C   0  0  0  0  0  0  0  0  0  0  0  0
   10.5140    6.7450   23.8730 C   0  0  0  0  0  0  0  0  0  0  0  0
   12.5980    3.0390   22.9320 C   0  0  0  0  0  0  0  0  0  0  0  0
   10.6200    2.8160   24.1240 C   0  0  0  0  0  0  0  0  0  0  0  0
   12.6580    1.5650   22.7270 C   0  0  0  0  0  0  0  0  0  0  0  0
   10.6620    1.3160   23.9030 C   0  0  0  0  0  0  0  0  0  0  0  0
   11.6900    0.7320   23.1990 C   0  0  0  0  0  0  0  0  0  0  0  0
  1  2  1  0
  2  3  2  0
  1  4  1  0
  1  5  1  0
  2  6  1  0
  4  7  1  6
  4  8  1  0
  5  9  2  0
  5 10  1  0
  6 11  1  0
  7 12  1  0
  7 13  2  0
  8 14  2  0
  8 15  1  0
  9 16  1  0
 10 17  2  0
 15 18  2  0
 14 19  1  0
 20 12  1  6
 16 21  2  0
 17 21  1  0
 21 22  1  0
 18 23  1  0
 19 23  2  0
 20 24  1  0
 20 25  1  0
 22 26  1  0
 22 27  1  0
 22 28  1  0
 29 24  1  1
 25 30  1  0
 29 31  1  0
 29 32  1  0
 32 30  1  6
 32 33  1  0
 31 34  1  0
 31 35  2  0
 33 35  1  0
 34 36  2  0
 34 37  1  0
 36 38  1  0
 37 39  2  0
 38 40  2  0
 39 40  1  0
M  END
