x0946-x3303
     RDKit          3D

 37 42  0  0  0  0  0  0  0  0999 V2000
    6.2640   -1.6810   21.0520 C   0  0  0  0  0  0  0  0  0  0  0  0
    7.5090   -1.7460   21.6990 N   0  0  0  0  0  0  0  0  0  0  0  0
    8.2380   -0.6230   22.0080 C   0  0  0  0  0  0  0  0  0  0  0  0
    5.3000   -2.7190   21.2190 O   0  0  0  0  0  0  0  0  0  0  0  0
    5.8900   -0.5180   20.1450 C   0  0  0  0  0  0  0  0  0  0  0  0
    8.0340   -3.0590   22.1300 C   0  0  0  0  0  0  0  0  0  0  0  0
    4.7610    0.4000   20.6860 C   0  0  0  0  0  0  0  0  0  0  0  0
    6.4820   -0.2690   18.9160 C   0  0  0  0  0  0  0  0  0  0  0  0
    8.7160   -0.6000   23.4720 C   0  0  2  0  0  0  0  0  0  0  0  0
    8.3850   -3.0650   23.5990 C   0  0  0  0  0  0  0  0  0  0  0  0
    4.3110    1.5230   19.9170 C   0  0  0  0  0  0  0  0  0  0  0  0
    6.0160    0.8240   18.2110 C   0  0  0  0  0  0  0  0  0  0  0  0
    4.0100    0.2480   22.0340 C   0  0  0  0  0  0  0  0  0  0  0  0
    6.4790    1.1840   17.0260 O   0  0  0  0  0  0  0  0  0  0  0  0
   10.0130    0.2270   23.6780 C   0  0  1  0  0  0  0  0  0  0  0  0
    9.1200   -1.8220   23.9640 N   0  0  0  0  0  0  0  0  0  0  0  0
    4.9770    1.7100   18.6570 N   0  0  0  0  0  0  0  0  0  0  0  0
    2.8910    1.2120   22.4950 C   0  0  0  0  0  0  0  0  0  0  0  0
    3.3190    2.4210   20.2720 C   0  0  0  0  0  0  0  0  0  0  0  0
   11.1350   -0.7800   23.9650 C   0  0  0  0  0  0  0  0  0  0  0  0
   10.4950   -1.9690   24.1450 C   0  0  0  0  0  0  0  0  0  0  0  0
    2.5720    2.3170   21.5480 C   0  0  0  0  0  0  0  0  0  0  0  0
   10.2960    0.9290   22.4510 C   0  0  0  0  0  0  0  0  0  0  0  0
   12.4710   -0.6030   24.0500 C   0  0  0  0  0  0  0  0  0  0  0  0
   11.2670   -3.2180   24.4940 C   0  0  0  0  0  0  0  0  0  0  0  0
   11.0460    2.0080   22.7170 C   0  0  0  0  0  0  0  0  0  0  0  0
   13.2700   -1.6670   24.3590 C   0  0  0  0  0  0  0  0  0  0  0  0
   12.7580   -3.0190   24.6120 C   0  0  0  0  0  0  0  0  0  0  0  0
   12.4090    1.9370   22.5280 C   0  0  0  0  0  0  0  0  0  0  0  0
   10.3930    3.1390   23.1360 C   0  0  0  0  0  0  0  0  0  0  0  0
   13.1890    2.9820   22.7060 C   0  0  0  0  0  0  0  0  0  0  0  0
   11.3530    4.3480   23.3460 C   0  0  0  0  0  0  0  0  0  0  0  0
   10.5460    5.8980   23.8800 S   0  0  0  0  0  0  0  0  0  0  0  0
   12.7910    4.1720   23.0900 C   0  0  0  0  0  0  0  0  0  0  0  0
    9.1680    5.8390   22.8660 N   0  0  0  0  0  0  0  0  0  0  0  0
   10.0850    5.7740   25.2420 O   0  0  0  0  0  0  0  0  0  0  0  0
   11.3970    6.9780   23.4590 O   0  0  0  0  0  0  0  0  0  0  0  0
  1  2  1  0
  2  3  1  0
  1  4  2  0
  1  5  1  0
  2  6  1  0
  5  7  1  0
  5  8  2  0
  9  3  1  6
  6 10  1  0
  7 11  2  0
  8 12  1  0
  7 13  1  0
 12 14  1  0
  9 15  1  0
  9 16  1  0
 10 16  1  0
 11 17  1  0
 12 17  2  0
 13 18  2  0
 11 19  1  0
 15 20  1  0
 16 21  1  0
 20 21  2  0
 18 22  1  0
 19 22  2  0
 15 23  1  6
 20 24  1  0
 21 25  1  0
 23 26  1  0
 24 27  2  0
 25 28  2  0
 27 28  1  0
 26 29  2  0
 26 30  1  0
 29 31  1  0
 30 32  2  0
 32 33  1  0
 31 34  2  0
 32 34  1  0
 33 35  1  0
 33 36  2  0
 33 37  2  0
M  END
