x0946-x3115
     RDKit          3D

 38 40  0  0  0  0  0  0  0  0999 V2000
    6.8450   -1.7080   21.9680 N   0  0  0  0  0  0  0  0  0  0  0  0
    6.0370   -2.8960   21.6520 C   0  0  0  0  0  0  0  0  0  0  0  0
    4.7960   -3.0210   21.3080 O   0  0  0  0  0  0  0  0  0  0  0  0
    6.4800   -0.2250   21.7890 C   0  0  1  0  0  0  0  0  0  0  0  0
    8.2170   -1.8160   22.5250 C   0  0  0  0  0  0  0  0  0  0  0  0
    6.7650   -4.2040   21.7410 C   0  0  0  0  0  0  0  0  0  0  0  0
    7.6000    0.6380   22.0260 C   0  0  0  0  0  0  0  0  0  0  0  0
    5.9750    0.2780   20.4390 C   0  0  0  0  0  0  0  0  0  0  0  0
    9.3270   -1.6610   21.7050 C   0  0  0  0  0  0  0  0  0  0  0  0
    8.5180   -2.0930   24.0360 C   0  0  0  0  0  0  0  0  0  0  0  0
    6.6590   -4.8610   20.3640 C   0  0  0  0  0  0  0  0  0  0  0  0
    7.6090    1.3870   23.2040 N   0  0  0  0  0  0  0  0  0  0  0  0
    8.5210    0.7680   21.2180 O   0  0  0  0  0  0  0  0  0  0  0  0
    4.7650    1.1480   20.1610 C   0  0  0  0  0  0  0  0  0  0  0  0
    6.6920   -0.0400   19.1680 C   0  0  0  0  0  0  0  0  0  0  0  0
   10.7880   -1.7510   22.2510 C   0  0  0  0  0  0  0  0  0  0  0  0
    9.9100   -2.1780   24.5780 C   0  0  0  0  0  0  0  0  0  0  0  0
    7.4770    2.8730   23.2440 C   0  0  0  0  0  0  0  0  0  0  0  0
    6.2930    0.4310   17.8350 N   0  0  0  0  0  0  0  0  0  0  0  0
    4.3940    1.5900   18.9040 C   0  0  0  0  0  0  0  0  0  0  0  0
   11.0850   -2.0060   23.7020 C   0  0  0  0  0  0  0  0  0  0  0  0
    8.3790    3.7050   22.3310 C   0  0  0  0  0  0  0  0  0  0  0  0
   12.5310   -2.0650   24.2290 C   0  0  0  0  0  0  0  0  0  0  0  0
    5.1820    1.2100   17.8190 C   0  0  0  0  0  0  0  0  0  0  0  0
    8.7750    5.0450   22.8460 N   0  0  0  0  0  0  0  0  0  0  0  0
   13.4280   -2.1890   23.1750 C   0  0  0  0  0  0  0  0  0  0  0  0
   12.8300   -3.1540   25.2830 C   0  0  0  0  0  0  0  0  0  0  0  0
   12.7650   -0.8000   25.0410 C   0  0  0  0  0  0  0  0  0  0  0  0
    8.0770    6.1510   22.1790 C   0  0  0  0  0  0  0  0  0  0  0  0
   10.2240    5.3510   23.6760 S   0  0  0  0  0  0  0  0  0  0  0  0
    9.7980    5.4060   25.0530 O   0  0  0  0  0  0  0  0  0  0  0  0
   11.2150    6.3320   23.2750 O   0  0  0  0  0  0  0  0  0  0  0  0
   11.0870    3.7920   23.4470 C   0  0  0  0  0  0  0  0  0  0  0  0
   12.3650    3.7900   22.9170 C   0  0  0  0  0  0  0  0  0  0  0  0
   10.3260    2.5170   23.8660 C   0  0  0  0  0  0  0  0  0  0  0  0
   13.0020    2.3640   22.7600 C   0  0  0  0  0  0  0  0  0  0  0  0
   11.0120    1.1770   23.6650 C   0  0  0  0  0  0  0  0  0  0  0  0
   12.2870    1.1200   23.1320 C   0  0  0  0  0  0  0  0  0  0  0  0
  1  2  1  0
  2  3  2  0
  1  4  1  0
  1  5  1  0
  2  6  1  0
  4  7  1  6
  4  8  1  0
  5  9  2  0
  5 10  1  0
  6 11  1  0
  7 12  1  0
  7 13  2  0
  8 14  2  0
  8 15  1  0
  9 16  1  0
 10 17  2  0
 12 18  1  0
 15 19  2  0
 14 20  1  0
 16 21  2  0
 17 21  1  0
 18 22  1  0
 21 23  1  0
 19 24  1  0
 20 24  2  0
 22 25  1  0
 23 26  1  0
 23 27  1  0
 23 28  1  0
 25 29  1  0
 30 25  1  0
 30 31  2  0
 30 32  2  0
 30 33  1  0
 33 34  2  0
 33 35  1  0
 34 36  1  0
 35 37  2  0
 36 38  2  0
 37 38  1  0
M  END
