x0946-x0831
     RDKit          3D

 26 28  0  0  0  0  0  0  0  0999 V2000
   12.7310   -2.4470   22.8450 C   0  0  0  0  0  0  0  0  0  0  0  0
   12.1190   -1.1170   23.1180 C   0  0  0  0  0  0  0  0  0  0  0  0
   12.8880    0.1590   22.8580 C   0  0  0  0  0  0  0  0  0  0  0  0
   10.7000   -1.0370   23.6560 C   0  0  0  0  0  0  0  0  0  0  0  0
    9.7750   -2.1680   23.9550 C   0  0  0  0  0  0  0  0  0  0  0  0
   10.1930    0.3590   23.8900 C   0  0  0  0  0  0  0  0  0  0  0  0
   12.3260    1.3350   23.0860 C   0  0  0  0  0  0  0  0  0  0  0  0
   10.8970    1.4680   23.6370 C   0  0  0  0  0  0  0  0  0  0  0  0
    8.5430   -2.0840   23.1560 N   0  0  0  0  0  0  0  0  0  0  0  0
   13.0650    2.4710   22.8030 C   0  0  0  0  0  0  0  0  0  0  0  0
    8.6940   -1.5410   21.7990 C   0  0  0  0  0  0  0  0  0  0  0  0
    7.5020   -3.0330   23.5340 C   0  0  0  0  0  0  0  0  0  0  0  0
   12.4950    3.8090   23.0130 C   0  0  0  0  0  0  0  0  0  0  0  0
   10.3320    2.7250   23.8600 C   0  0  0  0  0  0  0  0  0  0  0  0
    7.6500   -0.7820   21.2760 C   0  0  0  0  0  0  0  0  0  0  0  0
    6.8090   -3.7240   22.3540 C   0  0  0  0  0  0  0  0  0  0  0  0
   11.1060    3.9860   23.5530 C   0  0  0  0  0  0  0  0  0  0  0  0
   10.3720    5.6430   23.8330 S   0  0  0  0  0  0  0  0  0  0  0  0
    6.3870   -2.8660   21.2520 N   0  0  0  0  0  0  0  0  0  0  0  0
    6.4170   -1.4050   21.4940 C   0  0  0  0  0  0  0  0  0  0  0  0
    6.2120   -3.4200   19.9890 C   0  0  0  0  0  0  0  0  0  0  0  0
    9.1450    5.5860   22.9090 N   0  0  0  0  0  0  0  0  0  0  0  0
    9.8560    5.8140   25.1720 O   0  0  0  0  0  0  0  0  0  0  0  0
   11.2510    6.7080   23.4070 O   0  0  0  0  0  0  0  0  0  0  0  0
    5.3190   -4.2410   19.7660 O   0  0  0  0  0  0  0  0  0  0  0  0
    7.1820   -3.0340   18.8700 C   0  0  0  0  0  0  0  0  0  0  0  0
  1  2  1  0
  2  3  2  0
  2  4  1  0
  4  5  1  0
  4  6  2  0
  3  7  1  0
  6  8  1  0
  7  8  2  0
  5  9  1  0
  7 10  1  0
  9 11  1  0
  9 12  1  0
 10 13  2  0
  8 14  1  0
 11 15  1  0
 12 16  1  0
 13 17  1  0
 14 17  2  0
 17 18  1  0
 16 19  1  0
 15 20  1  0
 19 20  1  0
 19 21  1  0
 18 22  1  0
 18 23  2  0
 18 24  2  0
 21 25  2  0
 21 26  1  0
M  END
