x0946-x0691-x3110
     RDKit          3D

 55 59  0  0  0  0  0  0  0  0999 V2000
    8.2020    1.4380   23.4500 N   0  0  0  0  0  0  0  0  0  0  0  0
    8.8620    2.7120   23.7460 C   0  0  0  0  0  0  0  0  0  0  0  0
   10.1760    2.6210   23.4600 C   0  0  0  0  0  0  0  0  0  0  0  0
    7.9140    1.0810   22.0830 C   0  0  0  0  0  0  0  0  0  0  0  0
    8.6760    1.6340   20.9990 O   0  0  0  0  0  0  0  0  0  0  0  0
    6.7370    0.1130   21.8860 C   0  0  2  0  0  0  0  0  0  0  0  0
    7.0000   -1.2420   22.1140 N   0  0  0  0  0  0  0  0  0  0  0  0
    6.2500    0.4080   20.4920 C   0  0  0  0  0  0  0  0  0  0  0  0
   10.9980    3.7650   23.4040 C   0  0  0  0  0  0  0  0  0  0  0  0
   10.7570    1.2270   23.1870 C   0  0  0  0  0  0  0  0  0  0  0  0
   10.4000    5.1860   23.6730 C   0  0  0  0  0  0  0  0  0  0  0  0
    6.0800   -1.9760   22.8680 C   0  0  0  0  0  0  0  0  0  0  0  0
    5.1290    1.1880   20.2660 C   0  0  0  0  0  0  0  0  0  0  0  0
    6.8990   -0.0680   19.3460 C   0  0  0  0  0  0  0  0  0  0  0  0
    8.3360   -1.4290   22.5910 C   0  0  0  0  0  0  0  0  0  0  0  0
   12.1150    1.2370   22.8960 C   0  0  0  0  0  0  0  0  0  0  0  0
   12.3460    3.6130   23.1040 C   0  0  0  0  0  0  0  0  0  0  0  0
   13.2640    4.8020   23.0500 C   0  0  0  0  0  0  0  0  0  0  0  0
    9.4340    5.3660   23.0480 N   0  0  0  0  0  0  0  0  0  0  0  0
   10.3120    5.4640   24.8600 O   0  0  0  0  0  0  0  0  0  0  0  0
   11.2300    6.1850   23.1700 O   0  0  0  0  0  0  0  0  0  0  0  0
    5.3990   -2.9780   22.1650 C   0  0  0  0  0  0  0  0  0  0  0  0
    6.5100    0.1910   18.0450 N   0  0  0  0  0  0  0  0  0  0  0  0
    4.6670    1.4980   19.0080 C   0  0  0  0  0  0  0  0  0  0  0  0
    9.3330   -1.8730   21.7610 C   0  0  0  0  0  0  0  0  0  0  0  0
    8.7330   -1.1480   23.9960 C   0  0  0  0  0  0  0  0  0  0  0  0
   12.8040    2.3730   22.8710 C   0  0  0  0  0  0  0  0  0  0  0  0
   13.1870    5.4450   21.7170 C   0  0  0  0  0  0  0  0  0  0  0  0
    5.2920    1.0500   17.8570 C   0  0  0  0  0  0  0  0  0  0  0  0
   10.6530   -2.0540   22.1730 C   0  0  0  0  0  0  0  0  0  0  0  0
   10.0290   -1.3260   24.3750 C   0  0  0  0  0  0  0  0  0  0  0  0
    6.0970   -4.3840   21.9850 C   0  0  0  0  0  0  0  0  0  0  0  0
    6.3680   -4.4480   20.5050 C   0  0  0  0  0  0  0  0  0  0  0  0
   11.1020   -1.7650   23.6020 C   0  0  0  0  0  0  0  0  0  0  0  0
    5.2680   -5.4720   22.2430 C   0  0  0  0  0  0  0  0  0  0  0  0
    7.3400   -4.6310   22.8870 C   0  0  0  0  0  0  0  0  0  0  0  0
   12.5020   -1.9160   24.1060 C   0  0  0  0  0  0  0  0  0  0  0  0
    5.7640   -5.3470   19.9790 O   0  0  0  0  0  0  0  0  0  0  0  0
    7.2120   -3.4510   19.6920 C   0  0  0  0  0  0  0  0  0  0  0  0
    4.6010   -5.4070   23.4360 C   0  0  0  0  0  0  0  0  0  0  0  0
    6.9120   -4.7750   24.3570 C   0  0  0  0  0  0  0  0  0  0  0  0
   12.6890   -0.7420   25.0560 C   0  0  0  0  0  0  0  0  0  0  0  0
   13.4240   -1.9970   22.9230 C   0  0  0  0  0  0  0  0  0  0  0  0
   12.7260   -2.9420   24.9120 C   0  0  0  0  0  0  0  0  0  0  0  0
    5.6160   -5.5530   24.4980 N   0  0  0  0  0  0  0  0  0  0  0  0
    4.9220   -5.5660   26.0570 S   0  0  0  0  0  0  0  0  0  0  0  0
    4.2380   -6.8400   26.1490 O   0  0  0  0  0  0  0  0  0  0  0  0
    5.6660   -5.1150   27.2110 O   0  0  0  0  0  0  0  0  0  0  0  0
    3.6000   -4.3640   25.9340 C   0  0  0  0  0  0  0  0  0  0  0  0
    3.9760   -3.0060   26.0140 C   0  0  0  0  0  0  0  0  0  0  0  0
    2.2360   -4.6000   25.7690 C   0  0  0  0  0  0  0  0  0  0  0  0
    2.8890   -1.9220   25.9250 C   0  0  0  0  0  0  0  0  0  0  0  0
    1.2310   -3.5960   25.6860 C   0  0  0  0  0  0  0  0  0  0  0  0
    3.1990   -0.6200   26.0020 F   0  0  0  0  0  0  0  0  0  0  0  0
    1.5470   -2.2590   25.7660 C   0  0  0  0  0  0  0  0  0  0  0  0
  1  2  1  0
  2  3  1  0
  1  4  1  0
  4  5  2  0
  6  4  1  6
  6  7  1  0
  6  8  1  0
  3  9  2  0
  3 10  1  0
  9 11  1  0
  7 12  1  0
  8 13  2  0
  8 14  1  0
  7 15  1  0
 10 16  2  0
  9 17  1  0
 17 18  1  0
 11 19  1  0
 11 20  1  0
 11 21  1  0
 12 22  1  0
 14 23  2  0
 13 24  1  0
 15 25  2  0
 15 26  1  0
 16 27  1  0
 17 27  2  0
 18 28  1  0
 23 29  1  0
 24 29  2  0
 25 30  1  0
 26 31  2  0
 22 32  1  0
 32 33  1  0
 30 34  2  0
 31 34  1  0
 32 35  1  0
 32 36  1  0
 34 37  1  0
 33 38  2  0
 33 39  1  0
 35 40  1  0
 36 41  1  0
 37 42  1  0
 37 43  1  0
 37 44  1  0
 40 45  1  0
 41 45  1  0
 45 46  1  0
 46 47  2  0
 46 48  2  0
 46 49  1  0
 49 50  2  0
 49 51  1  0
 50 52  1  0
 51 53  2  0
 52 54  1  0
 52 55  2  0
 53 55  1  0
M  END
