x0946-x3305
     RDKit          3D

 34 37  0  0  0  0  0  0  0  0999 V2000
    3.4510   -7.1170   23.7900 C   0  0  0  0  0  0  0  0  0  0  0  0
    4.6690   -6.3070   23.5590 N   0  0  0  0  0  0  0  0  0  0  0  0
    5.0080   -4.9800   24.1840 C   0  0  0  0  0  0  0  0  0  0  0  0
    5.6330   -6.7380   22.7070 N   0  0  0  0  0  0  0  0  0  0  0  0
    6.1940   -4.7600   23.6090 C   0  0  0  0  0  0  0  0  0  0  0  0
    6.6120   -5.8430   22.6770 N   0  0  0  0  0  0  0  0  0  0  0  0
    7.0610   -3.5370   23.8600 C   0  0  0  0  0  0  0  0  0  0  0  0
    6.5830   -2.4580   23.1600 N   0  0  0  0  0  0  0  0  0  0  0  0
    6.3830   -2.4540   21.7240 C   0  0  0  0  0  0  0  0  0  0  0  0
    5.5140   -3.1380   21.1850 O   0  0  0  0  0  0  0  0  0  0  0  0
    7.2640   -1.6100   21.0640 N   0  0  0  0  0  0  0  0  0  0  0  0
    8.3860   -0.9860   21.5950 C   0  0  0  0  0  0  0  0  0  0  0  0
    7.0810   -1.3420   19.6360 C   0  0  0  0  0  0  0  0  0  0  0  0
    9.4320   -1.7580   22.1550 C   0  0  0  0  0  0  0  0  0  0  0  0
    6.1430   -0.2250   19.3070 C   0  0  0  0  0  0  0  0  0  0  0  0
    6.5020    0.4920   18.2700 C   0  0  0  0  0  0  0  0  0  0  0  0
    4.9740    0.1060   19.9410 C   0  0  0  0  0  0  0  0  0  0  0  0
   10.7020   -0.9400   21.9800 C   0  0  1  0  0  0  0  0  0  0  0  0
    5.7850    1.5160   17.7670 N   0  0  0  0  0  0  0  0  0  0  0  0
    4.2230    1.1570   19.4720 C   0  0  0  0  0  0  0  0  0  0  0  0
   10.3770    0.2910   22.5470 C   0  0  0  0  0  0  0  0  0  0  0  0
   12.0180   -1.6180   22.3900 C   0  0  0  0  0  0  0  0  0  0  0  0
    4.6360    1.8350   18.4010 C   0  0  0  0  0  0  0  0  0  0  0  0
   11.3540    1.0100   23.4320 C   0  0  1  0  0  0  0  0  0  0  0  0
   12.5080   -1.2700   23.5930 C   0  0  0  0  0  0  0  0  0  0  0  0
   12.2290    0.0640   24.2620 C   0  0  0  0  0  0  0  0  0  0  0  0
   12.3810    1.8890   22.7570 C   0  0  0  0  0  0  0  0  0  0  0  0
   10.3570    2.0910   24.0970 C   0  0  0  0  0  0  0  0  0  0  0  0
   12.1900    3.1820   22.9380 C   0  0  0  0  0  0  0  0  0  0  0  0
   11.0510    3.4660   23.7880 C   0  0  1  0  0  0  0  0  0  0  0  0
   10.2050    4.9660   23.5660 S   0  0  0  0  0  0  0  0  0  0  0  0
    8.9320    4.6420   22.4890 N   0  0  0  0  0  0  0  0  0  0  0  0
    9.5770    5.3370   24.8240 O   0  0  0  0  0  0  0  0  0  0  0  0
   11.0830    6.0030   23.0490 O   0  0  0  0  0  0  0  0  0  0  0  0
  1  2  1  0
  2  3  1  0
  2  4  1  0
  3  5  2  0
  4  6  2  0
  5  6  1  0
  5  7  1  0
  7  8  1  0
  8  9  1  0
  9 10  2  0
  9 11  1  0
 11 12  1  0
 11 13  1  0
 12 14  1  0
 13 15  1  0
 15 16  2  0
 15 17  1  0
 18 14  1  1
 16 19  1  0
 17 20  2  0
 18 21  1  0
 18 22  1  0
 19 23  2  0
 20 23  1  0
 24 21  1  6
 22 25  1  0
 24 26  1  0
 25 26  2  0
 24 27  1  0
 24 28  1  0
 27 29  2  0
 28 30  1  0
 29 30  1  0
 30 31  1  6
 31 32  1  0
 31 33  2  0
 31 34  2  0
M  END
