x0946-x2705
     RDKit          3D

 40 43  0  0  0  0  0  0  0  0999 V2000
    6.9080   -1.4200   21.9240 N   0  0  0  0  0  0  0  0  0  0  0  0
    6.1150   -2.7080   21.6300 C   0  0  0  0  0  0  0  0  0  0  0  0
    4.8320   -3.0120   21.2750 O   0  0  0  0  0  0  0  0  0  0  0  0
    6.3970    0.0460   21.7700 C   0  0  1  0  0  0  0  0  0  0  0  0
    8.2110   -1.5590   22.6130 C   0  0  0  0  0  0  0  0  0  0  0  0
    6.9550   -3.9490   21.7610 C   0  0  0  0  0  0  0  0  0  0  0  0
    7.3630    1.0480   22.1920 C   0  0  0  0  0  0  0  0  0  0  0  0
    6.0980    0.3190   20.2990 C   0  0  0  0  0  0  0  0  0  0  0  0
    8.3430   -1.7370   23.9360 N   0  0  0  0  0  0  0  0  0  0  0  0
    9.6080   -1.5180   21.9950 C   0  0  0  0  0  0  0  0  0  0  0  0
    6.7980   -4.7550   20.4630 C   0  0  0  0  0  0  0  0  0  0  0  0
    6.9430    2.0980   23.0880 N   0  0  0  0  0  0  0  0  0  0  0  0
    8.5180    1.0310   21.7490 O   0  0  0  0  0  0  0  0  0  0  0  0
    4.9710    1.1100   20.2150 C   0  0  0  0  0  0  0  0  0  0  0  0
    6.8080   -0.0940   19.0220 C   0  0  0  0  0  0  0  0  0  0  0  0
    9.7260   -1.8340   24.3010 N   0  0  0  0  0  0  0  0  0  0  0  0
   10.6350   -1.7120   23.1110 C   0  0  0  0  0  0  0  0  0  0  0  0
   12.1980   -1.8070   23.2120 C   0  0  0  0  0  0  0  0  0  0  0  0
    6.3750    0.2970   17.8300 N   0  0  0  0  0  0  0  0  0  0  0  0
    4.5760    1.4830   18.9400 C   0  0  0  0  0  0  0  0  0  0  0  0
    7.6090    3.4100   23.1230 C   0  0  0  0  0  0  0  0  0  0  0  0
   12.9920   -0.7060   23.5600 C   0  0  0  0  0  0  0  0  0  0  0  0
   12.4650   -2.8320   24.1260 C   0  0  0  0  0  0  0  0  0  0  0  0
   12.7520   -2.2220   21.8270 C   0  0  0  0  0  0  0  0  0  0  0  0
    5.2450    1.1040   17.7760 C   0  0  0  0  0  0  0  0  0  0  0  0
    8.7610    3.8920   24.0400 C   0  0  0  0  0  0  0  0  0  0  0  0
    7.0800    4.4170   22.1260 C   0  0  0  0  0  0  0  0  0  0  0  0
    5.9310    3.9620   21.2990 C   0  0  0  0  0  0  0  0  0  0  0  0
    9.3040    5.1050   23.9340 C   0  0  0  0  0  0  0  0  0  0  0  0
    7.7260    5.7950   22.0260 C   0  0  0  0  0  0  0  0  0  0  0  0
   12.3720    0.6050   23.5190 C   0  0  0  0  0  0  0  0  0  0  0  0
   10.3840    5.4470   24.8350 O   0  0  0  0  0  0  0  0  0  0  0  0
    8.9070    6.1130   22.9870 C   0  0  0  0  0  0  0  0  0  0  0  0
   13.0370    1.7760   22.8860 C   0  0  0  0  0  0  0  0  0  0  0  0
   11.1830    0.7180   24.0810 C   0  0  0  0  0  0  0  0  0  0  0  0
    9.5850    7.2880   22.9860 O   0  0  0  0  0  0  0  0  0  0  0  0
   12.3000    3.0830   22.8870 C   0  0  0  0  0  0  0  0  0  0  0  0
   10.5200    1.8250   24.1110 C   0  0  0  0  0  0  0  0  0  0  0  0
    9.2250    1.5480   24.8430 C   0  0  0  0  0  0  0  0  0  0  0  0
   10.9360    3.0360   23.5690 C   0  0  0  0  0  0  0  0  0  0  0  0
  1  2  1  0
  2  3  2  0
  1  4  1  0
  1  5  1  0
  2  6  1  0
  4  7  1  6
  4  8  1  0
  5  9  2  0
  5 10  1  0
  6 11  1  0
  7 12  1  0
  7 13  2  0
  8 14  2  0
  8 15  1  0
  9 16  1  0
 10 17  2  0
 16 17  1  0
 17 18  1  0
 15 19  2  0
 14 20  1  0
 12 21  1  0
 18 22  1  0
 18 23  1  0
 18 24  1  0
 19 25  1  0
 20 25  2  0
 21 26  2  0
 21 27  1  0
 27 28  1  0
 26 29  1  0
 27 30  2  0
 22 31  1  0
 29 32  1  0
 29 33  2  0
 30 33  1  0
 31 34  2  0
 31 35  1  0
 33 36  1  0
 34 37  1  0
 35 38  2  0
 38 39  1  0
 37 40  2  0
 38 40  1  0
M  END
