x0946-x3113
     RDKit          3D

 39 41  0  0  0  0  0  0  0  0999 V2000
    7.0430   -1.8490   21.8680 N   0  0  0  0  0  0  0  0  0  0  0  0
    6.1720   -3.0190   21.5260 C   0  0  0  0  0  0  0  0  0  0  0  0
    4.9030   -3.0900   21.1800 O   0  0  0  0  0  0  0  0  0  0  0  0
    6.7060   -0.3310   21.7560 C   0  0  1  0  0  0  0  0  0  0  0  0
    8.3040   -1.9940   22.4660 C   0  0  0  0  0  0  0  0  0  0  0  0
    6.8200   -4.3940   21.6080 C   0  0  0  0  0  0  0  0  0  0  0  0
    7.8200    0.5080   22.1020 C   0  0  0  0  0  0  0  0  0  0  0  0
    6.2960    0.0710   20.3320 C   0  0  0  0  0  0  0  0  0  0  0  0
    9.5130   -1.4610   21.6610 C   0  0  0  0  0  0  0  0  0  0  0  0
    8.5940   -2.5960   23.8020 C   0  0  0  0  0  0  0  0  0  0  0  0
    8.2330   -4.5230   20.9870 C   0  0  0  0  0  0  0  0  0  0  0  0
    7.9680    0.9500   23.4130 N   0  0  0  0  0  0  0  0  0  0  0  0
    8.6300    0.8800   21.2500 O   0  0  0  0  0  0  0  0  0  0  0  0
    5.1840    0.8860   20.3430 C   0  0  0  0  0  0  0  0  0  0  0  0
    6.8970   -0.2450   18.9870 C   0  0  0  0  0  0  0  0  0  0  0  0
   10.9050   -1.5860   22.3090 C   0  0  0  0  0  0  0  0  0  0  0  0
    9.9580   -2.7080   24.4170 C   0  0  0  0  0  0  0  0  0  0  0  0
    8.5710    2.2630   23.7580 C   0  0  0  0  0  0  0  0  0  0  0  0
    6.3880    0.2450   17.8660 N   0  0  0  0  0  0  0  0  0  0  0  0
    4.6510    1.3960   19.1510 C   0  0  0  0  0  0  0  0  0  0  0  0
   11.1840   -2.1960   23.7060 C   0  0  0  0  0  0  0  0  0  0  0  0
   12.5850   -2.2520   24.3110 C   0  0  0  0  0  0  0  0  0  0  0  0
    5.2630    1.0730   17.9170 C   0  0  0  0  0  0  0  0  0  0  0  0
   10.0630    2.2720   23.4630 C   0  0  0  0  0  0  0  0  0  0  0  0
   13.4460   -2.3110   23.2290 C   0  0  0  0  0  0  0  0  0  0  0  0
   12.8160   -3.1790   25.3380 C   0  0  0  0  0  0  0  0  0  0  0  0
   12.8650   -0.8710   24.9310 C   0  0  0  0  0  0  0  0  0  0  0  0
   10.7400    3.4950   23.3090 C   0  0  0  0  0  0  0  0  0  0  0  0
   10.8000    0.9440   23.3290 C   0  0  0  0  0  0  0  0  0  0  0  0
   12.2490    0.9340   23.0210 C   0  0  0  0  0  0  0  0  0  0  0  0
   12.2950    3.4320   22.9860 C   0  0  0  0  0  0  0  0  0  0  0  0
   13.1420    4.6710   22.8000 C   0  0  0  0  0  0  0  0  0  0  0  0
   12.8900    2.0650   22.8760 C   0  0  0  0  0  0  0  0  0  0  0  0
   12.5460    5.9380   23.4130 C   0  0  0  0  0  0  0  0  0  0  0  0
   11.2400    6.2470   22.9660 O   0  0  0  0  0  0  0  0  0  0  0  0
   10.3770    6.8170   23.9400 C   0  0  2  0  0  0  0  0  0  0  0  0
   10.1230    5.8710   24.9840 O   0  0  0  0  0  0  0  0  0  0  0  0
    9.2290    6.9990   23.2730 C   0  0  0  0  0  0  0  0  0  0  0  0
    8.7000    5.7290   22.7430 N   0  0  0  0  0  0  0  0  0  0  0  0
  1  2  1  0
  2  3  2  0
  1  4  1  0
  1  5  1  0
  2  6  1  0
  4  7  1  6
  4  8  1  0
  5  9  2  0
  5 10  1  0
  6 11  1  0
  7 12  1  0
  7 13  2  0
  8 14  2  0
  8 15  1  0
  9 16  1  0
 10 17  2  0
 12 18  1  0
 15 19  2  0
 14 20  1  0
 16 21  2  0
 17 21  1  0
 21 22  1  0
 19 23  1  0
 20 23  2  0
 18 24  1  0
 22 25  1  0
 22 26  1  0
 22 27  1  0
 24 28  2  0
 24 29  1  0
 29 30  2  0
 28 31  1  0
 31 32  1  0
 30 33  1  0
 31 33  2  0
 32 34  1  0
 34 35  1  0
 35 36  1  0
 36 37  1  1
 36 38  1  0
 38 39  1  0
M  END
