x0946-x3110-x0734-x0426
     RDKit          3D

 64 69  0  0  0  0  0  0  0  0999 V2000
    7.9670    1.0170   23.4190 N   0  0  0  0  0  0  0  0  0  0  0  0
    8.5640    2.3290   23.8030 C   0  0  0  0  0  0  0  0  0  0  0  0
   10.0540    2.4100   23.4950 C   0  0  0  0  0  0  0  0  0  0  0  0
    7.6350    0.7760   21.9830 C   0  0  0  0  0  0  0  0  0  0  0  0
    8.4000    1.4600   20.9510 O   0  0  0  0  0  0  0  0  0  0  0  0
    6.5420   -0.1090   21.6080 C   0  0  2  0  0  0  0  0  0  0  0  0
    6.9160   -1.5530   21.7530 N   0  0  0  0  0  0  0  0  0  0  0  0
    6.0440    0.3760   20.2820 C   0  0  0  0  0  0  0  0  0  0  0  0
   10.8420    3.5780   23.3960 C   0  0  0  0  0  0  0  0  0  0  0  0
   10.6320    1.1580   23.2920 C   0  0  0  0  0  0  0  0  0  0  0  0
   10.3180    5.0160   23.6120 C   0  0  0  0  0  0  0  0  0  0  0  0
    6.1990   -2.8570   21.3530 C   0  0  0  0  0  0  0  0  0  0  0  0
    4.7530    1.1540   20.1180 C   0  0  0  0  0  0  0  0  0  0  0  0
    6.8830    0.0560   19.2330 C   0  0  0  0  0  0  0  0  0  0  0  0
    8.1960   -1.6340   22.4440 C   0  0  0  0  0  0  0  0  0  0  0  0
   11.9670    0.9520   22.9800 C   0  0  0  0  0  0  0  0  0  0  0  0
   12.3070    3.4190   23.0440 C   0  0  0  0  0  0  0  0  0  0  0  0
   13.3850    4.4660   22.8450 C   0  0  0  0  0  0  0  0  0  0  0  0
    4.9200   -3.0560   21.0430 O   0  0  0  0  0  0  0  0  0  0  0  0
    3.8390    1.5020   21.1130 C   0  0  0  0  0  0  0  0  0  0  0  0
    9.1750    5.3240   22.8900 N   0  0  0  0  0  0  0  0  0  0  0  0
    9.9850    5.2460   24.7800 O   0  0  0  0  0  0  0  0  0  0  0  0
   11.1430    5.8900   23.3540 O   0  0  0  0  0  0  0  0  0  0  0  0
    6.5110    0.4920   18.0020 N   0  0  0  0  0  0  0  0  0  0  0  0
    4.4010    1.6170   18.7060 C   0  0  0  0  0  0  0  0  0  0  0  0
    9.3560   -1.4860   21.7010 C   0  0  0  0  0  0  0  0  0  0  0  0
    8.4330   -1.8500   23.8180 C   0  0  0  0  0  0  0  0  0  0  0  0
   12.8580    2.1670   22.8490 C   0  0  0  0  0  0  0  0  0  0  0  0
    7.0550   -4.1230   21.3910 C   0  0  0  0  0  0  0  0  0  0  0  0
   13.2390    5.6510   21.8740 C   0  0  0  0  0  0  0  0  0  0  0  0
    7.1580   -3.6190   19.9310 C   0  0  0  0  0  0  0  0  0  0  0  0
    4.2390    1.8090   22.4210 C   0  0  0  0  0  0  0  0  0  0  0  0
    5.3740    1.2100   17.7900 C   0  0  0  0  0  0  0  0  0  0  0  0
   10.7750   -1.5660   22.2770 C   0  0  0  0  0  0  0  0  0  0  0  0
    9.7060   -1.9320   24.4290 C   0  0  0  0  0  0  0  0  0  0  0  0
    6.2400   -5.3840   21.7680 C   0  0  0  0  0  0  0  0  0  0  0  0
    8.2960   -3.8820   22.2050 C   0  0  0  0  0  0  0  0  0  0  0  0
    3.3520    2.6180   23.0860 N   0  0  0  0  0  0  0  0  0  0  0  0
   10.9930   -1.7890   23.6400 C   0  0  0  0  0  0  0  0  0  0  0  0
    6.1030   -5.5610   23.1700 C   0  0  0  0  0  0  0  0  0  0  0  0
    8.4240   -4.7860   23.1790 C   0  0  0  0  0  0  0  0  0  0  0  0
   12.3930   -1.8640   24.2750 C   0  0  0  0  0  0  0  0  0  0  0  0
    2.3010    1.8380   23.7800 C   0  0  0  0  0  0  0  0  0  0  0  0
    7.1540   -4.7830   23.8910 N   0  0  0  0  0  0  0  0  0  0  0  0
   12.6570   -0.7520   25.0410 C   0  0  0  0  0  0  0  0  0  0  0  0
   13.4230   -2.0250   23.1510 C   0  0  0  0  0  0  0  0  0  0  0  0
   12.5890   -2.9600   25.0900 C   0  0  0  0  0  0  0  0  0  0  0  0
    2.2540    0.4120   23.7830 O   0  0  0  0  0  0  0  0  0  0  0  0
    1.2480    2.6020   24.5140 C   0  0  0  0  0  0  0  0  0  0  0  0
    7.4680   -5.1160   25.2250 C   0  0  0  0  0  0  0  0  0  0  0  0
    1.5440    3.8160   25.2020 C   0  0  0  0  0  0  0  0  0  0  0  0
   -0.0530    2.0660   24.4950 C   0  0  0  0  0  0  0  0  0  0  0  0
    6.5370   -5.1230   26.2820 C   0  0  0  0  0  0  0  0  0  0  0  0
    8.7810   -5.4650   25.5560 C   0  0  0  0  0  0  0  0  0  0  0  0
    2.7910    4.3070   25.2100 F   0  0  0  0  0  0  0  0  0  0  0  0
    5.1430   -4.7860   26.0810 N   0  0  0  0  0  0  0  0  0  0  0  0
   -1.0680    2.7400   25.1630 C   0  0  0  0  0  0  0  0  0  0  0  0
    0.5570    4.5540   25.9030 C   0  0  0  0  0  0  0  0  0  0  0  0
    9.1340   -5.7910   26.8370 C   0  0  0  0  0  0  0  0  0  0  0  0
    6.8920   -5.4560   27.5850 C   0  0  0  0  0  0  0  0  0  0  0  0
    4.3190   -5.7600   25.5850 O   0  0  0  0  0  0  0  0  0  0  0  0
    4.7310   -3.8250   26.7510 O   0  0  0  0  0  0  0  0  0  0  0  0
   -0.8580    4.0410   25.9260 C   0  0  0  0  0  0  0  0  0  0  0  0
    8.2020   -5.7890   27.8470 C   0  0  0  0  0  0  0  0  0  0  0  0
  1  2  1  0
  2  3  1  0
  1  4  1  0
  4  5  2  0
  6  4  1  6
  6  7  1  0
  6  8  1  0
  3  9  2  0
  3 10  1  0
  9 11  1  0
  7 12  1  0
  8 13  1  0
  8 14  2  0
  7 15  1  0
 10 16  2  0
  9 17  1  0
 17 18  1  0
 12 19  2  0
 13 20  1  0
 11 21  1  0
 11 22  1  0
 11 23  1  0
 14 24  1  0
 13 25  2  0
 15 26  2  0
 15 27  1  0
 16 28  1  0
 17 28  2  0
 29 12  1  0
 18 30  1  0
 29 31  1  0
 20 32  1  0
 24 33  2  0
 25 33  1  0
 26 34  1  0
 27 35  2  0
 29 36  1  0
 29 37  1  0
 32 38  1  0
 34 39  2  0
 35 39  1  0
 36 40  1  0
 37 41  1  0
 39 42  1  0
 38 43  1  0
 40 44  1  0
 41 44  1  0
 42 45  1  0
 42 46  1  0
 42 47  1  0
 43 48  2  0
 43 49  1  0
 44 50  1  0
 49 51  2  0
 49 52  1  0
 50 53  2  0
 50 54  1  0
 51 55  1  0
 53 56  1  0
 52 57  2  0
 51 58  1  0
 54 59  2  0
 53 60  1  0
 56 61  2  0
 56 62  1  0
 57 63  1  0
 58 63  2  0
 59 64  1  0
 60 64  2  0
M  CHG  2  56   1  62  -1
M  END
