x0967-x1375
     RDKit          3D

 41 44  0  0  0  0  0  0  0  0999 V2000
    7.6940    4.7760   22.3650 C   0  0  0  0  0  0  0  0  0  0  0  0
    7.1400    3.5830   23.0920 C   0  0  0  0  0  0  0  0  0  0  0  0
    8.0150    2.5310   23.1510 N   0  0  0  0  0  0  0  0  0  0  0  0
    6.0220    3.5760   23.5930 O   0  0  0  0  0  0  0  0  0  0  0  0
    7.5860    1.1260   23.2120 C   0  0  1  0  0  0  0  0  0  0  0  0
    6.1800    0.9170   22.6820 C   0  0  0  0  0  0  0  0  0  0  0  0
    8.6760    0.3450   22.4780 C   0  0  0  0  0  0  0  0  0  0  0  0
    8.9240   -0.9950   22.5810 N   0  0  0  0  0  0  0  0  0  0  0  0
    9.4460    0.9750   21.7400 O   0  0  0  0  0  0  0  0  0  0  0  0
    6.0980    0.8430   21.1760 C   0  0  0  0  0  0  0  0  0  0  0  0
   10.0160   -1.4590   21.7470 C   0  0  0  0  0  0  0  0  0  0  0  0
    7.9530   -2.1040   22.6190 C   0  0  2  0  0  0  0  0  0  0  0  0
    6.9020   -0.0410   20.4170 C   0  0  0  0  0  0  0  0  0  0  0  0
    5.1810    1.7000   20.5410 C   0  0  0  0  0  0  0  0  0  0  0  0
   11.2020   -1.7130   22.5330 C   0  0  0  0  0  0  0  0  0  0  0  0
    6.6070   -1.9100   22.8490 C   0  0  0  0  0  0  0  0  0  0  0  0
    6.7490   -0.0430   18.8530 C   0  0  0  0  0  0  0  0  0  0  0  0
    5.0140    1.7320   19.1620 C   0  0  0  0  0  0  0  0  0  0  0  0
    8.3970   -3.3150   23.3730 C   0  0  0  0  0  0  0  0  0  0  0  0
   12.1140   -1.9610   23.2310 C   0  0  0  0  0  0  0  0  0  0  0  0
    5.6750   -3.1030   22.4900 C   0  0  0  0  0  0  0  0  0  0  0  0
    5.8460    0.8130   18.2900 C   0  0  0  0  0  0  0  0  0  0  0  0
    9.4920   -3.2570   24.2120 C   0  0  0  0  0  0  0  0  0  0  0  0
    7.6940   -4.4740   23.2090 C   0  0  0  0  0  0  0  0  0  0  0  0
    5.6470    0.8930   16.9880 O   0  0  0  0  0  0  0  0  0  0  0  0
   13.4450   -2.4170   24.4790 Br  0  0  0  0  0  0  0  0  0  0  0  0
    6.4200   -4.4730   22.3210 C   0  0  2  0  0  0  0  0  0  0  0  0
    9.9240   -4.3860   24.9040 C   0  0  0  0  0  0  0  0  0  0  0  0
    8.1240   -5.6220   23.8760 C   0  0  0  0  0  0  0  0  0  0  0  0
    6.4230   -4.5090   20.7130 C   0  0  0  0  0  0  0  0  0  0  0  0
   10.9760   -4.3270   25.7250 F   0  0  0  0  0  0  0  0  0  0  0  0
    9.2370   -5.5880   24.7240 C   0  0  0  0  0  0  0  0  0  0  0  0
    5.5570   -5.5510   23.0980 C   0  0  1  0  0  0  0  0  0  0  0  0
    5.7010   -5.3110   20.1030 O   0  0  0  0  0  0  0  0  0  0  0  0
    7.2350   -3.4960   19.8530 C   0  0  0  0  0  0  0  0  0  0  0  0
    5.2700   -5.0160   24.5130 C   0  0  0  0  0  0  0  0  0  0  0  0
    4.1830   -5.9530   22.6410 C   0  0  0  0  0  0  0  0  0  0  0  0
    3.6610   -6.7320   24.1400 S   0  0  0  0  0  0  0  0  0  0  0  0
    4.2600   -5.5750   25.1750 C   0  0  0  0  0  0  0  0  0  0  0  0
    2.2180   -6.8150   24.1820 O   0  0  0  0  0  0  0  0  0  0  0  0
    4.4110   -7.9420   24.3080 O   0  0  0  0  0  0  0  0  0  0  0  0
  1  2  1  0
  2  3  1  0
  2  4  2  0
  3  5  1  0
  5  6  1  6
  5  7  1  0
  7  8  1  0
  7  9  2  0
  6 10  1  0
  8 11  1  0
 12  8  1  1
 10 13  2  0
 10 14  1  0
 11 15  1  0
 12 16  1  0
 13 17  1  0
 14 18  2  0
 12 19  1  0
 15 20  3  0
 16 21  1  0
 17 22  2  0
 18 22  1  0
 19 23  1  0
 19 24  2  0
 22 25  1  0
 20 26  1  0
 21 27  1  0
 24 27  1  0
 23 28  2  0
 24 29  1  0
 27 30  1  6
 28 31  1  0
 28 32  1  0
 29 32  2  0
 27 33  1  0
 30 34  2  0
 30 35  1  0
 33 36  1  1
 33 37  1  0
 37 38  1  0
 36 39  2  0
 38 39  1  0
 38 40  1  0
 38 41  1  0
M  END
