x0967-x3115
     RDKit          3D

 30 31  0  0  0  0  0  0  0  0999 V2000
    6.8110   -1.6980   21.9730 N   0  0  0  0  0  0  0  0  0  0  0  0
    6.0360   -2.9000   21.6610 C   0  0  0  0  0  0  0  0  0  0  0  0
    4.7980   -3.0280   21.3060 O   0  0  0  0  0  0  0  0  0  0  0  0
    6.3260   -0.2500   21.7270 C   0  0  1  0  0  0  0  0  0  0  0  0
    8.1600   -1.7640   22.5170 C   0  0  0  0  0  0  0  0  0  0  0  0
    6.7950   -4.1840   21.7670 C   0  0  0  0  0  0  0  0  0  0  0  0
    7.6580    0.5310   22.0710 C   0  0  0  0  0  0  0  0  0  0  0  0
    5.9190    0.2180   20.3600 C   0  0  0  0  0  0  0  0  0  0  0  0
    9.2010   -1.9810   21.6700 C   0  0  0  0  0  0  0  0  0  0  0  0
    8.4750   -1.6070   23.8670 C   0  0  0  0  0  0  0  0  0  0  0  0
    6.6910   -4.8800   20.4080 C   0  0  0  0  0  0  0  0  0  0  0  0
    7.6490    1.4500   23.0790 N   0  0  0  0  0  0  0  0  0  0  0  0
    8.7120    0.4390   21.4470 O   0  0  0  0  0  0  0  0  0  0  0  0
    4.8180    1.0040   20.1960 C   0  0  0  0  0  0  0  0  0  0  0  0
    6.7190   -0.1210   19.0420 C   0  0  0  0  0  0  0  0  0  0  0  0
   10.5180   -2.0420   22.0750 C   0  0  0  0  0  0  0  0  0  0  0  0
    9.8250   -1.6600   24.3270 C   0  0  0  0  0  0  0  0  0  0  0  0
    8.5400    2.6130   23.0090 C   0  0  0  0  0  0  0  0  0  0  0  0
    6.3150    0.3620   17.8520 N   0  0  0  0  0  0  0  0  0  0  0  0
    4.4420    1.4770   18.9510 C   0  0  0  0  0  0  0  0  0  0  0  0
   10.9310   -1.8900   23.3950 C   0  0  0  0  0  0  0  0  0  0  0  0
    7.7390    3.8420   23.1810 C   0  0  0  0  0  0  0  0  0  0  0  0
   12.4130   -1.9570   23.7560 C   0  0  0  0  0  0  0  0  0  0  0  0
    5.2030    1.1410   17.8480 C   0  0  0  0  0  0  0  0  0  0  0  0
    8.5290    4.9600   23.0960 O   0  0  0  0  0  0  0  0  0  0  0  0
   13.2980   -2.4350   22.6260 C   0  0  0  0  0  0  0  0  0  0  0  0
   12.7080   -2.8560   24.9540 C   0  0  0  0  0  0  0  0  0  0  0  0
   12.9020   -0.5610   24.0840 C   0  0  0  0  0  0  0  0  0  0  0  0
    6.5230    3.8230   23.3870 O   0  0  0  0  0  0  0  0  0  0  0  0
    8.0650    5.9790   22.2070 C   0  0  0  0  0  0  0  0  0  0  0  0
  1  2  1  0
  2  3  2  0
  1  4  1  0
  1  5  1  0
  2  6  1  0
  4  7  1  6
  4  8  1  0
  5  9  2  0
  5 10  1  0
  6 11  1  0
  7 12  1  0
  7 13  2  0
  8 14  2  0
  8 15  1  0
  9 16  1  0
 10 17  2  0
 12 18  1  0
 15 19  2  0
 14 20  1  0
 16 21  2  0
 17 21  1  0
 18 22  1  0
 21 23  1  0
 19 24  1  0
 20 24  2  0
 22 25  1  0
 23 26  1  0
 23 27  1  0
 23 28  1  0
 22 29  2  0
 25 30  1  0
M  END
