x0967-x2052
     RDKit          3D

 40 43  0  0  0  0  0  0  0  0999 V2000
    7.9200    4.6650   22.5220 C   0  0  0  0  0  0  0  0  0  0  0  0
    7.2060    3.4020   22.9190 C   0  0  0  0  0  0  0  0  0  0  0  0
    7.6670    2.2810   22.2720 N   0  0  0  0  0  0  0  0  0  0  0  0
    6.2950    3.3940   23.7410 O   0  0  0  0  0  0  0  0  0  0  0  0
    7.6910    0.9390   22.8920 C   0  0  1  0  0  0  0  0  0  0  0  0
    6.4720    0.0960   22.6430 C   0  0  1  0  0  0  0  0  0  0  0  0
    8.8370    0.1610   22.2490 C   0  0  0  0  0  0  0  0  0  0  0  0
    8.8210   -1.2050   22.0400 N   0  0  0  0  0  0  0  0  0  0  0  0
    9.8490    0.7640   21.8740 O   0  0  0  0  0  0  0  0  0  0  0  0
    6.1700    0.3200   21.1750 C   0  0  0  0  0  0  0  0  0  0  0  0
    6.8480   -1.3400   23.1970 C   0  0  2  0  0  0  0  0  0  0  0  0
   10.0520   -1.8010   21.6300 C   0  0  0  0  0  0  0  0  0  0  0  0
    6.9910   -0.3980   20.1210 C   0  0  0  0  0  0  0  0  0  0  0  0
    5.1670    1.1920   20.7150 C   0  0  0  0  0  0  0  0  0  0  0  0
    7.6890   -2.0860   22.3810 C   0  0  1  0  0  0  0  0  0  0  0  0
    5.9140   -2.1480   23.8150 C   0  0  2  0  0  0  0  0  0  0  0  0
   11.0360   -1.9610   22.6790 C   0  0  0  0  0  0  0  0  0  0  0  0
    5.4750   -1.4670   25.1260 C   0  0  0  0  0  0  0  0  0  0  0  0
    6.7490   -0.1850   18.7960 C   0  0  0  0  0  0  0  0  0  0  0  0
    4.9610    1.3760   19.3370 C   0  0  0  0  0  0  0  0  0  0  0  0
    6.9730   -3.2150   21.6160 N   0  0  0  0  0  0  0  0  0  0  0  0
    6.3550   -3.4780   23.8760 C   0  0  0  0  0  0  0  0  0  0  0  0
   11.9180   -2.0980   23.4500 C   0  0  0  0  0  0  0  0  0  0  0  0
    4.0830   -1.3390   25.4120 O   0  0  0  0  0  0  0  0  0  0  0  0
    6.4990   -1.0190   25.9590 N   0  0  0  0  0  0  0  0  0  0  0  0
    6.6310   -3.5080   20.2160 C   0  0  0  0  0  0  0  0  0  0  0  0
    5.7480    0.6960   18.4100 C   0  0  0  0  0  0  0  0  0  0  0  0
    6.4820   -4.1530   22.6460 C   0  0  0  0  0  0  0  0  0  0  0  0
    5.5260    0.9080   17.1070 O   0  0  0  0  0  0  0  0  0  0  0  0
   13.3650   -2.3810   24.6210 Br  0  0  0  0  0  0  0  0  0  0  0  0
    5.6440   -4.2400   19.9070 O   0  0  0  0  0  0  0  0  0  0  0  0
    7.4910   -3.0280   19.0650 C   0  0  0  0  0  0  0  0  0  0  0  0
    6.3100   -0.1970   27.0960 C   0  0  0  0  0  0  0  0  0  0  0  0
    6.8330    1.0940   27.2700 C   0  0  0  0  0  0  0  0  0  0  0  0
    5.4550   -0.7350   28.2600 C   0  0  0  0  0  0  0  0  0  0  0  0
    6.6160    1.8600   28.3950 N   0  0  0  0  0  0  0  0  0  0  0  0
    5.2750    0.0810   29.3560 C   0  0  0  0  0  0  0  0  0  0  0  0
    5.8470    1.3470   29.4110 C   0  0  0  0  0  0  0  0  0  0  0  0
    5.6000    2.0800   30.5560 O   0  0  0  0  0  0  0  0  0  0  0  0
    6.1350    3.4000   30.5280 C   0  0  0  0  0  0  0  0  0  0  0  0
  1  2  1  0
  2  3  1  0
  2  4  2  0
  5  3  1  6
  5  6  1  0
  5  7  1  0
  7  8  1  0
  7  9  2  0
  6 10  1  6
  6 11  1  0
  8 12  1  0
 10 13  2  0
 10 14  1  0
 15  8  1  6
 11 15  1  0
 11 16  1  6
 12 17  1  0
 16 18  1  1
 13 19  1  0
 14 20  2  0
 15 21  1  0
 16 22  1  0
 17 23  3  0
 18 24  2  0
 18 25  1  0
 21 26  1  0
 19 27  2  0
 20 27  1  0
 21 28  1  0
 22 28  1  0
 27 29  1  0
 23 30  1  0
 26 31  2  0
 26 32  1  0
 25 33  1  0
 33 34  2  0
 33 35  1  0
 34 36  1  0
 35 37  2  0
 36 38  2  0
 37 38  1  0
 38 39  1  0
 39 40  1  0
M  END
