x0967-x3305
     RDKit          3D

 36 40  0  0  0  0  0  0  0  0999 V2000
    7.7860    4.7440   22.4120 C   0  0  0  0  0  0  0  0  0  0  0  0
    7.2190    3.5340   23.1050 C   0  0  0  0  0  0  0  0  0  0  0  0
    8.1000    2.4800   23.1780 N   0  0  0  0  0  0  0  0  0  0  0  0
    6.0860    3.5200   23.5730 O   0  0  0  0  0  0  0  0  0  0  0  0
    7.6510    1.0740   23.2050 C   0  0  1  0  0  0  0  0  0  0  0  0
    6.1780    0.8710   22.7990 C   0  0  0  0  0  0  0  0  0  0  0  0
    8.5350    0.2960   22.2380 C   0  0  1  0  0  0  0  0  0  0  0  0
    8.0280   -0.8700   21.7950 N   0  0  0  0  0  0  0  0  0  0  0  0
    9.0250    1.0120   21.3580 O   0  0  0  0  0  0  0  0  0  0  0  0
    5.8820    1.0450   21.3090 C   0  0  0  0  0  0  0  0  0  0  0  0
    9.9160   -0.2990   22.6930 C   0  0  0  0  0  0  0  0  0  0  0  0
    8.9640   -1.5260   21.0990 C   0  0  0  0  0  0  0  0  0  0  0  0
    6.9090   -1.0410   20.8160 C   0  0  2  0  0  0  0  0  0  0  0  0
    6.2630    0.0850   20.4150 C   0  0  0  0  0  0  0  0  0  0  0  0
    5.2160    2.1710   20.7890 C   0  0  0  0  0  0  0  0  0  0  0  0
   10.8760   -0.0450   23.6120 C   0  0  0  0  0  0  0  0  0  0  0  0
   10.1160   -1.4040   21.8490 C   0  0  0  0  0  0  0  0  0  0  0  0
    6.0470   -2.2080   21.4260 C   0  0  0  0  0  0  0  0  0  0  0  0
    7.3380   -1.6800   19.4310 C   0  0  0  0  0  0  0  0  0  0  0  0
    5.9710    0.2620   18.9160 C   0  0  0  0  0  0  0  0  0  0  0  0
    4.9490    2.3340   19.4170 C   0  0  0  0  0  0  0  0  0  0  0  0
   11.9300   -0.9550   23.5620 C   0  0  0  0  0  0  0  0  0  0  0  0
   11.1660   -2.2350   21.7590 C   0  0  0  0  0  0  0  0  0  0  0  0
   13.1950   -0.9690   24.7240 Br  0  0  0  0  0  0  0  0  0  0  0  0
    5.3020   -2.9380   20.7720 O   0  0  0  0  0  0  0  0  0  0  0  0
    6.2210   -2.3510   22.8690 N   0  0  0  0  0  0  0  0  0  0  0  0
    5.3320    1.3850   18.4960 C   0  0  0  0  0  0  0  0  0  0  0  0
   12.1740   -1.9790   22.7200 C   0  0  0  0  0  0  0  0  0  0  0  0
    5.1150    1.4960   17.1710 O   0  0  0  0  0  0  0  0  0  0  0  0
    6.8620   -3.4140   23.4610 C   0  0  0  0  0  0  0  0  0  0  0  0
    6.1550   -4.7120   23.3650 C   0  0  0  0  0  0  0  0  0  0  0  0
    4.8260   -5.1050   23.8980 C   0  0  0  0  0  0  0  0  0  0  0  0
    6.5900   -5.8530   22.7450 N   0  0  0  0  0  0  0  0  0  0  0  0
    4.5550   -6.3770   23.5890 N   0  0  0  0  0  0  0  0  0  0  0  0
    5.6380   -6.8290   22.8820 N   0  0  0  0  0  0  0  0  0  0  0  0
    3.4020   -7.1820   23.8930 C   0  0  0  0  0  0  0  0  0  0  0  0
  1  2  1  0
  2  3  1  0
  2  4  2  0
  5  3  1  6
  5  6  1  0
  5  7  1  0
  7  8  1  0
  7  9  1  6
  6 10  1  0
  7 11  1  0
  8 12  1  0
  8 13  1  0
 10 14  2  0
 13 14  1  0
 10 15  1  0
 11 16  2  0
 11 17  1  0
 12 17  1  0
 13 18  1  0
 13 19  1  6
 14 20  1  0
 15 21  2  0
 16 22  1  0
 17 23  2  0
 22 24  1  0
 18 25  2  0
 18 26  1  0
 20 27  2  0
 21 27  1  0
 22 28  2  0
 23 28  1  0
 27 29  1  0
 26 30  1  0
 30 31  1  0
 31 32  2  0
 31 33  1  0
 32 34  1  0
 33 35  2  0
 34 35  1  0
 34 36  1  0
M  END
