x0967-x0705
     RDKit          3D

 38 40  0  0  0  0  0  0  0  0999 V2000
    7.6780    4.8620   22.4190 C   0  0  0  0  0  0  0  0  0  0  0  0
    7.1560    3.5890   23.0330 C   0  0  0  0  0  0  0  0  0  0  0  0
    7.9270    2.4860   22.7640 N   0  0  0  0  0  0  0  0  0  0  0  0
    6.1380    3.5530   23.7150 O   0  0  0  0  0  0  0  0  0  0  0  0
    7.5420    1.1260   23.1890 C   0  0  1  0  0  0  0  0  0  0  0  0
    6.1990    0.6670   22.6430 C   0  0  0  0  0  0  0  0  0  0  0  0
    8.7000    0.2240   22.7860 C   0  0  0  0  0  0  0  0  0  0  0  0
    8.6550   -1.1330   22.6100 N   0  0  0  0  0  0  0  0  0  0  0  0
    9.8090    0.7440   22.5580 O   0  0  0  0  0  0  0  0  0  0  0  0
    6.1080    0.6830   21.1500 C   0  0  0  0  0  0  0  0  0  0  0  0
    9.7310   -1.6060   21.7510 C   0  0  0  0  0  0  0  0  0  0  0  0
    6.9460   -0.2510   20.2720 C   0  0  0  0  0  0  0  0  0  0  0  0
    5.2360    1.5760   20.5250 C   0  0  0  0  0  0  0  0  0  0  0  0
    7.9190   -2.1880   23.3440 C   0  0  1  0  0  0  0  0  0  0  0  0
   10.9510   -1.8150   22.5320 C   0  0  0  0  0  0  0  0  0  0  0  0
    6.8040   -0.1700   18.9020 C   0  0  0  0  0  0  0  0  0  0  0  0
    5.1360    1.6130   19.1420 C   0  0  0  0  0  0  0  0  0  0  0  0
    6.6510   -1.8660   24.0720 N   0  0  0  0  0  0  0  0  0  0  0  0
    7.6200   -3.2410   22.4840 C   0  0  0  0  0  0  0  0  0  0  0  0
   11.9090   -1.9940   23.2080 C   0  0  0  0  0  0  0  0  0  0  0  0
    6.5150   -1.7790   25.4640 C   0  0  0  0  0  0  0  0  0  0  0  0
    5.9030    0.7620   18.3700 C   0  0  0  0  0  0  0  0  0  0  0  0
    6.5280   -2.8400   21.5510 N   0  0  0  0  0  0  0  0  0  0  0  0
    5.4820   -2.6170   23.5530 C   0  0  0  0  0  0  0  0  0  0  0  0
    5.7540    0.8610   17.0500 O   0  0  0  0  0  0  0  0  0  0  0  0
   13.3490   -2.3200   24.3880 Br  0  0  0  0  0  0  0  0  0  0  0  0
    7.4200   -1.5590   26.2450 O   0  0  0  0  0  0  0  0  0  0  0  0
    6.4870   -3.3610   20.2590 C   0  0  0  0  0  0  0  0  0  0  0  0
    5.1820   -1.9680   26.0530 C   0  0  0  0  0  0  0  0  0  0  0  0
    5.3300   -2.6640   22.2090 C   0  0  0  0  0  0  0  0  0  0  0  0
    5.4700   -3.5650   19.5580 O   0  0  0  0  0  0  0  0  0  0  0  0
    7.7120   -3.8350   19.6670 C   0  0  0  0  0  0  0  0  0  0  0  0
    4.1020   -1.1310   25.7270 C   0  0  0  0  0  0  0  0  0  0  0  0
    4.9170   -3.0000   26.9710 C   0  0  0  0  0  0  0  0  0  0  0  0
    2.8070   -1.3590   26.3240 C   0  0  0  0  0  0  0  0  0  0  0  0
    3.6570   -3.2270   27.5580 C   0  0  0  0  0  0  0  0  0  0  0  0
    2.5820   -2.3940   27.2300 C   0  0  0  0  0  0  0  0  0  0  0  0
    1.2260   -2.6080   27.8360 C   0  0  0  0  0  0  0  0  0  0  0  0
  1  2  1  0
  2  3  1  0
  2  4  2  0
  3  5  1  0
  5  6  1  6
  5  7  1  0
  7  8  1  0
  7  9  2  0
  6 10  1  0
  8 11  1  0
 10 12  2  0
 10 13  1  0
 14  8  1  6
 11 15  1  0
 12 16  1  0
 13 17  2  0
 14 18  1  0
 14 19  1  0
 15 20  3  0
 18 21  1  0
 16 22  2  0
 17 22  1  0
 19 23  1  0
 18 24  1  0
 22 25  1  0
 20 26  1  0
 21 27  2  0
 23 28  1  0
 21 29  1  0
 23 30  1  0
 24 30  1  0
 28 31  2  0
 28 32  1  0
 29 33  2  0
 29 34  1  0
 33 35  1  0
 34 36  2  0
 35 37  2  0
 36 37  1  0
 37 38  1  0
M  END
