x0967-x0981
     RDKit          3D

 38 38  0  0  0  0  0  0  0  0999 V2000
    1.2490   -8.6750   21.4460 C   0  0  0  0  0  0  0  0  0  0  0  0
    1.3930   -7.3640   22.1800 C   0  0  0  0  0  0  0  0  0  0  0  0
    2.6390   -7.1100   22.7340 N   0  0  0  0  0  0  0  0  0  0  0  0
    0.4600   -6.5710   22.2560 O   0  0  0  0  0  0  0  0  0  0  0  0
    2.8800   -5.8890   23.5420 C   0  0  1  0  0  0  0  0  0  0  0  0
    2.6890   -6.1920   25.0190 C   0  0  0  0  0  0  0  0  0  0  0  0
    4.3140   -5.2990   23.3640 C   0  0  0  0  0  0  0  0  0  0  0  0
    5.0900   -5.7000   22.3100 N   0  0  0  0  0  0  0  0  0  0  0  0
    4.7390   -4.4700   24.1660 O   0  0  0  0  0  0  0  0  0  0  0  0
    3.0560   -7.6630   25.2880 C   0  0  0  0  0  0  0  0  0  0  0  0
    2.3280   -8.3530   26.1980 N   0  0  0  0  0  0  0  0  0  0  0  0
    3.9730   -8.1970   24.6990 O   0  0  0  0  0  0  0  0  0  0  0  0
    6.1950   -4.8390   21.8230 C   0  0  2  0  0  0  0  0  0  0  0  0
    6.4410   -5.1350   20.3360 C   0  0  0  0  0  0  0  0  0  0  0  0
    7.4160   -4.9700   22.7750 C   0  0  0  0  0  0  0  0  0  0  0  0
    5.7740   -6.1720   19.8500 C   0  0  0  0  0  0  0  0  0  0  0  0
    8.1040   -3.8310   23.2490 C   0  0  0  0  0  0  0  0  0  0  0  0
    8.6260   -2.9050   22.3190 C   0  0  0  0  0  0  0  0  0  0  0  0
    9.5520   -2.0040   22.8120 C   0  0  2  0  0  0  0  0  0  0  0  0
    8.9630   -0.7930   23.3080 N   0  0  0  0  0  0  0  0  0  0  0  0
   10.7470   -1.7150   22.1520 C   0  0  0  0  0  0  0  0  0  0  0  0
    8.9420    0.3980   22.6250 C   0  0  0  0  0  0  0  0  0  0  0  0
   12.0240   -1.9420   23.0590 C   0  0  0  0  0  0  0  0  0  0  0  0
    7.7120    1.2550   22.9710 C   0  0  1  0  0  0  0  0  0  0  0  0
    9.8140    0.7440   21.8420 O   0  0  0  0  0  0  0  0  0  0  0  0
   13.3960   -2.2930   24.3120 Br  0  0  0  0  0  0  0  0  0  0  0  0
    7.8800    2.5640   22.3550 N   0  0  0  0  0  0  0  0  0  0  0  0
    6.5590    0.5830   22.5680 C   0  0  0  0  0  0  0  0  0  0  0  0
    7.1710    3.6620   22.8620 C   0  0  0  0  0  0  0  0  0  0  0  0
    6.3300    0.6040   21.0840 C   0  0  0  0  0  0  0  0  0  0  0  0
    7.6700    5.0140   22.3540 C   0  0  0  0  0  0  0  0  0  0  0  0
    6.2360    3.5330   23.6490 O   0  0  0  0  0  0  0  0  0  0  0  0
    7.0100   -0.2850   20.2470 C   0  0  0  0  0  0  0  0  0  0  0  0
    5.4170    1.5400   20.5560 C   0  0  0  0  0  0  0  0  0  0  0  0
    6.7590   -0.2180   18.8790 C   0  0  0  0  0  0  0  0  0  0  0  0
    5.1790    1.5980   19.2070 C   0  0  0  0  0  0  0  0  0  0  0  0
    5.8540    0.7190   18.3770 C   0  0  0  0  0  0  0  0  0  0  0  0
    5.5920    0.8190   17.0730 O   0  0  0  0  0  0  0  0  0  0  0  0
  1  2  1  0
  2  3  1  0
  2  4  2  0
  3  5  1  0
  5  6  1  1
  5  7  1  0
  7  8  1  0
  7  9  2  0
  6 10  1  0
 10 11  1  0
 10 12  2  0
  8 13  1  0
 13 14  1  6
 13 15  1  0
 14 16  2  3
 15 17  1  0
 17 18  1  0
 19 18  1  6
 19 20  1  0
 19 21  1  0
 20 22  1  0
 21 23  3  0
 22 24  1  0
 22 25  2  0
 23 26  1  0
 24 27  1  0
 24 28  1  6
 27 29  1  0
 28 30  1  0
 29 31  1  0
 29 32  2  0
 30 33  2  0
 30 34  1  0
 33 35  1  0
 34 36  2  0
 35 37  2  0
 36 37  1  0
 37 38  1  0
M  END
