x0967-x1336
     RDKit          3D

 40 42  0  0  0  0  0  0  0  0999 V2000
    7.6580    4.8060   22.3820 C   0  0  0  0  0  0  0  0  0  0  0  0
    7.1080    3.5760   23.0510 C   0  0  0  0  0  0  0  0  0  0  0  0
    8.0100    2.5480   23.1170 N   0  0  0  0  0  0  0  0  0  0  0  0
    5.9710    3.5250   23.5030 O   0  0  0  0  0  0  0  0  0  0  0  0
    7.6170    1.1300   23.1930 C   0  0  1  0  0  0  0  0  0  0  0  0
    6.2220    0.8150   22.6700 C   0  0  0  0  0  0  0  0  0  0  0  0
    8.7500    0.3590   22.5060 C   0  0  0  0  0  0  0  0  0  0  0  0
    8.9350   -0.9910   22.5960 N   0  0  0  0  0  0  0  0  0  0  0  0
    9.5920    0.9890   21.8450 O   0  0  0  0  0  0  0  0  0  0  0  0
    6.0930    0.8160   21.1680 C   0  0  0  0  0  0  0  0  0  0  0  0
   10.0620   -1.5070   21.8010 C   0  0  0  0  0  0  0  0  0  0  0  0
    7.0170    0.0070   20.2610 C   0  0  0  0  0  0  0  0  0  0  0  0
    5.1000    1.5760   20.5470 C   0  0  0  0  0  0  0  0  0  0  0  0
    7.8010   -1.8750   22.6080 C   0  0  2  0  0  0  0  0  0  0  0  0
   11.2160   -1.7750   22.6270 C   0  0  0  0  0  0  0  0  0  0  0  0
    6.8770    0.0280   18.8970 C   0  0  0  0  0  0  0  0  0  0  0  0
    5.0070    1.5600   19.1560 C   0  0  0  0  0  0  0  0  0  0  0  0
    7.5230   -2.6910   23.8000 N   0  0  0  0  0  0  0  0  0  0  0  0
    7.9340   -2.7440   21.5830 C   0  0  0  0  0  0  0  0  0  0  0  0
   12.1200   -2.0300   23.3310 C   0  0  0  0  0  0  0  0  0  0  0  0
    7.5150   -1.9630   25.1480 S   0  0  0  0  0  0  0  0  0  0  0  0
    5.8640    0.8140   18.3640 C   0  0  0  0  0  0  0  0  0  0  0  0
    6.6860   -3.4020   21.3180 N   0  0  0  0  0  0  0  0  0  0  0  0
    6.3380   -3.5540   23.6070 C   0  0  0  0  0  0  0  0  0  0  0  0
    5.7000    0.8660   17.0490 O   0  0  0  0  0  0  0  0  0  0  0  0
   13.4590   -2.4780   24.5710 Br  0  0  0  0  0  0  0  0  0  0  0  0
    8.7200   -1.1740   25.2080 O   0  0  0  0  0  0  0  0  0  0  0  0
    6.2800   -1.3820   25.6400 O   0  0  0  0  0  0  0  0  0  0  0  0
    6.3420   -3.6270   19.9890 C   0  0  0  0  0  0  0  0  0  0  0  0
    7.8250   -3.3550   26.2160 C   0  0  0  0  0  0  0  0  0  0  0  0
    6.3120   -4.2230   22.3920 C   0  0  0  0  0  0  0  0  0  0  0  0
    5.3140   -4.2470   19.7410 O   0  0  0  0  0  0  0  0  0  0  0  0
    7.2820   -3.1220   18.8760 C   0  0  0  0  0  0  0  0  0  0  0  0
    6.8780   -3.7630   27.2400 C   0  0  0  0  0  0  0  0  0  0  0  0
    8.9930   -4.1200   26.1090 C   0  0  0  0  0  0  0  0  0  0  0  0
   10.0800   -3.8380   25.1090 C   0  0  0  0  0  0  0  0  0  0  0  0
    7.0650   -4.8420   28.0920 C   0  0  0  0  0  0  0  0  0  0  0  0
    9.1690   -5.2100   26.9770 C   0  0  0  0  0  0  0  0  0  0  0  0
    6.0480   -5.2100   29.1260 C   0  0  0  0  0  0  0  0  0  0  0  0
    8.2320   -5.5720   27.9500 C   0  0  0  0  0  0  0  0  0  0  0  0
  1  2  1  0
  2  3  1  0
  2  4  2  0
  3  5  1  0
  5  6  1  6
  5  7  1  0
  7  8  1  0
  7  9  2  0
  6 10  1  0
  8 11  1  0
 10 12  2  0
 10 13  1  0
 14  8  1  1
 11 15  1  0
 12 16  1  0
 13 17  2  0
 14 18  1  0
 14 19  1  0
 15 20  3  0
 18 21  1  0
 16 22  2  0
 17 22  1  0
 19 23  1  0
 18 24  1  0
 22 25  1  0
 20 26  1  0
 21 27  2  0
 21 28  2  0
 23 29  1  0
 21 30  1  0
 23 31  1  0
 24 31  1  0
 29 32  2  0
 29 33  1  0
 30 34  2  0
 30 35  1  0
 35 36  1  0
 34 37  1  0
 35 38  2  0
 37 39  1  0
 37 40  2  0
 38 40  1  0
M  END
