x0967-x3113
     RDKit          3D

 33 34  0  0  0  0  0  0  0  0999 V2000
    6.8610   -1.7080   22.0400 N   0  0  0  0  0  0  0  0  0  0  0  0
    6.1250   -2.8830   21.5410 C   0  0  0  0  0  0  0  0  0  0  0  0
    4.8360   -3.1360   21.4520 O   0  0  0  0  0  0  0  0  0  0  0  0
    6.4600   -0.2490   21.7870 C   0  0  1  0  0  0  0  0  0  0  0  0
    8.2200   -1.8250   22.6030 C   0  0  0  0  0  0  0  0  0  0  0  0
    7.0290   -3.9240   21.0180 C   0  0  0  0  0  0  0  0  0  0  0  0
    7.8810    0.4210   21.9830 C   0  0  0  0  0  0  0  0  0  0  0  0
    6.0910    0.2300   20.3970 C   0  0  0  0  0  0  0  0  0  0  0  0
    9.3390   -1.9570   21.7590 C   0  0  0  0  0  0  0  0  0  0  0  0
    8.4090   -1.7840   23.9700 C   0  0  0  0  0  0  0  0  0  0  0  0
    7.2090   -3.4440   19.5900 C   0  0  0  0  0  0  0  0  0  0  0  0
    8.1250    1.2310   23.0400 N   0  0  0  0  0  0  0  0  0  0  0  0
    8.8030    0.3230   21.1960 O   0  0  0  0  0  0  0  0  0  0  0  0
    4.8650    1.0760   20.1570 C   0  0  0  0  0  0  0  0  0  0  0  0
    6.8390   -0.0440   19.2480 C   0  0  0  0  0  0  0  0  0  0  0  0
   10.6700   -2.0430   22.2030 C   0  0  0  0  0  0  0  0  0  0  0  0
    9.6890   -1.8620   24.5060 C   0  0  0  0  0  0  0  0  0  0  0  0
    8.6840    2.5390   22.7390 C   0  0  2  0  0  0  0  0  0  0  0  0
    6.5100    0.4080   18.0170 N   0  0  0  0  0  0  0  0  0  0  0  0
    4.5800    1.5100   18.8790 C   0  0  0  0  0  0  0  0  0  0  0  0
   10.8930   -1.9950   23.5790 C   0  0  0  0  0  0  0  0  0  0  0  0
   10.0710    2.6440   23.2710 C   0  0  0  0  0  0  0  0  0  0  0  0
   12.2870   -2.0710   24.1980 C   0  0  0  0  0  0  0  0  0  0  0  0
    7.7300    3.7030   23.1110 C   0  0  0  0  0  0  0  0  0  0  0  0
    5.4050    1.1770   17.8190 C   0  0  0  0  0  0  0  0  0  0  0  0
   11.1750    3.0720   23.5210 C   0  0  0  0  0  0  0  0  0  0  0  0
   13.3110   -2.3360   23.2630 C   0  0  0  0  0  0  0  0  0  0  0  0
   12.1670   -3.1970   25.2190 C   0  0  0  0  0  0  0  0  0  0  0  0
   12.6650   -0.7870   24.9470 C   0  0  0  0  0  0  0  0  0  0  0  0
    7.9580    4.9630   22.5660 C   0  0  0  0  0  0  0  0  0  0  0  0
    6.7640    3.5170   23.8680 O   0  0  0  0  0  0  0  0  0  0  0  0
   11.7220    3.7180   22.3750 O   0  0  0  0  0  0  0  0  0  0  0  0
   12.9290    4.4340   22.6590 C   0  0  0  0  0  0  0  0  0  0  0  0
  1  2  1  0
  2  3  2  0
  1  4  1  0
  1  5  1  0
  2  6  1  0
  4  7  1  6
  4  8  1  0
  5  9  2  0
  5 10  1  0
  6 11  1  0
  7 12  1  0
  7 13  2  0
  8 14  2  0
  8 15  1  0
  9 16  1  0
 10 17  2  0
 12 18  1  0
 15 19  2  0
 14 20  1  0
 16 21  2  0
 17 21  1  0
 18 22  1  1
 21 23  1  0
 18 24  1  0
 19 25  1  0
 20 25  2  0
 22 26  1  0
 23 27  1  0
 23 28  1  0
 23 29  1  0
 24 30  1  0
 24 31  2  0
 26 32  1  0
 32 33  1  0
M  END
