x0967-x0771-x2694
     RDKit          3D

 54 58  0  0  0  0  0  0  0  0999 V2000
    7.1750    2.1380   23.8690 N   0  0  0  0  0  0  0  0  0  0  0  0
    7.2110    3.4880   23.2080 C   0  0  0  0  0  0  0  0  0  0  0  0
    6.3290    4.0860   22.6260 O   0  0  0  0  0  0  0  0  0  0  0  0
    7.4170    0.8480   23.1760 C   0  0  1  0  0  0  0  0  0  0  0  0
    6.1460    0.2700   22.5650 C   0  0  0  0  0  0  0  0  0  0  0  0
    8.6090    0.7150   22.1540 C   0  0  0  0  0  0  0  0  0  0  0  0
    8.5740    4.1680   23.3750 C   0  0  0  0  0  0  0  0  0  0  0  0
    8.8910    1.6060   21.3480 O   0  0  0  0  0  0  0  0  0  0  0  0
    6.0440    0.4740   21.1040 C   0  0  0  0  0  0  0  0  0  0  0  0
    9.4120   -0.5650   22.1660 C   0  0  1  0  0  0  0  0  0  0  0  0
    8.9650    5.4810   23.7010 C   0  0  0  0  0  0  0  0  0  0  0  0
    9.6920    3.2300   23.1740 C   0  0  0  0  0  0  0  0  0  0  0  0
    6.8010   -0.3680   20.2780 C   0  0  0  0  0  0  0  0  0  0  0  0
    5.2130    1.4900   20.5980 C   0  0  0  0  0  0  0  0  0  0  0  0
   10.4500   -0.7580   23.0630 C   0  0  2  0  0  0  0  0  0  0  0  0
    8.6180   -1.6340   22.4080 C   0  0  0  0  0  0  0  0  0  0  0  0
   10.9620    3.6040   23.2900 C   0  0  0  0  0  0  0  0  0  0  0  0
   10.3260    5.8910   23.8420 C   0  0  0  0  0  0  0  0  0  0  0  0
   11.4620   -1.7620   22.4710 C   0  0  0  0  0  0  0  0  0  0  0  0
   10.6560    7.0320   24.1400 O   0  0  0  0  0  0  0  0  0  0  0  0
   12.2000    2.7350   23.0880 C   0  0  0  0  0  0  0  0  0  0  0  0
    6.7290   -0.1720   18.7790 C   0  0  0  0  0  0  0  0  0  0  0  0
    5.0490    1.7820   19.2660 C   0  0  0  0  0  0  0  0  0  0  0  0
    8.6260   -1.5180   23.8830 N   0  0  0  0  0  0  0  0  0  0  0  0
    9.8380   -1.4190   24.1830 O   0  0  0  0  0  0  0  0  0  0  0  0
   11.2820    4.8940   23.6200 C   0  0  0  0  0  0  0  0  0  0  0  0
   12.7710   -1.4250   22.7790 C   0  0  2  0  0  0  0  0  0  0  0  0
   11.8520    7.1550   24.9090 C   0  0  0  0  0  0  0  0  0  0  0  0
    5.8310    0.9340   18.3060 C   0  0  0  0  0  0  0  0  0  0  0  0
    8.0590   -2.5940   24.5780 C   0  0  0  0  0  0  0  0  0  0  0  0
    5.8660    1.0190   16.8890 O   0  0  0  0  0  0  0  0  0  0  0  0
   13.2740   -2.4000   24.3830 Br  0  0  0  0  0  0  0  0  0  0  0  0
   13.0690   -0.0860   23.0090 C   0  0  0  0  0  0  0  0  0  0  0  0
    6.7610   -3.1410   24.0020 C   0  0  0  0  0  0  0  0  0  0  0  0
    6.8800   -4.6790   23.8510 C   0  0  1  0  0  0  0  0  0  0  0  0
    5.6210   -5.4680   24.1170 N   0  0  0  0  0  0  0  0  0  0  0  0
    7.5670   -4.9670   22.6650 C   0  0  0  0  0  0  0  0  0  0  0  0
    4.9610   -5.7000   25.5000 S   0  0  0  0  0  0  0  0  0  0  0  0
    6.7050   -5.2820   21.5340 N   0  0  0  0  0  0  0  0  0  0  0  0
    4.8540   -5.8050   22.8750 C   0  0  0  0  0  0  0  0  0  0  0  0
    4.3460   -7.0070   25.5160 O   0  0  0  0  0  0  0  0  0  0  0  0
    5.9010   -5.3300   26.5220 O   0  0  0  0  0  0  0  0  0  0  0  0
    6.3810   -4.4370   20.4540 C   0  0  0  0  0  0  0  0  0  0  0  0
    3.7680   -4.5540   25.6840 C   0  0  0  0  0  0  0  0  0  0  0  0
    5.6990   -6.3000   21.8910 C   0  0  0  0  0  0  0  0  0  0  0  0
    5.2830   -4.4950   19.9050 O   0  0  0  0  0  0  0  0  0  0  0  0
    7.4060   -3.4540   19.8930 C   0  0  0  0  0  0  0  0  0  0  0  0
    2.4210   -4.8070   25.3850 C   0  0  0  0  0  0  0  0  0  0  0  0
    4.0840   -3.1460   26.2020 C   0  0  0  0  0  0  0  0  0  0  0  0
    1.9110   -6.1220   24.8670 C   0  0  0  0  0  0  0  0  0  0  0  0
    1.3920   -3.6920   25.5960 C   0  0  0  0  0  0  0  0  0  0  0  0
    2.9770   -2.0940   26.3790 C   0  0  0  0  0  0  0  0  0  0  0  0
    1.6610   -2.4010   26.0720 C   0  0  0  0  0  0  0  0  0  0  0  0
    0.6400   -1.4550   26.2370 C   0  0  0  0  0  0  0  0  0  0  0  0
  1  2  1  0
  2  3  2  0
  1  4  1  0
  4  5  1  6
  4  6  1  0
  2  7  1  0
  6  8  2  0
  5  9  1  0
 10  6  1  1
  7 11  2  0
  7 12  1  0
  9 13  2  0
  9 14  1  0
 10 15  1  0
 10 16  1  0
 12 17  2  0
 11 18  1  0
 15 19  1  6
 18 20  1  0
 17 21  1  0
 13 22  1  0
 14 23  2  0
 16 24  1  0
 15 25  1  0
 24 25  1  0
 17 26  1  0
 18 26  2  0
 19 27  1  0
 20 28  1  0
 22 29  2  0
 23 29  1  0
 24 30  1  0
 29 31  1  0
 27 32  1  0
 27 33  1  1
 30 34  1  0
 35 34  1  6
 35 36  1  0
 35 37  1  0
 36 38  1  0
 37 39  1  0
 36 40  1  0
 38 41  2  0
 38 42  2  0
 39 43  1  0
 38 44  1  0
 39 45  1  0
 40 45  1  0
 43 46  2  0
 43 47  1  0
 44 48  2  0
 44 49  1  0
 48 50  1  0
 48 51  1  0
 49 52  2  0
 51 53  2  0
 52 53  1  0
 53 54  1  0
M  END
