x0967-x1478
     RDKit          3D

 32 33  0  0  0  0  0  0  0  0999 V2000
    7.5070    4.9740   22.2830 C   0  0  0  0  0  0  0  0  0  0  0  0
    7.0880    3.7640   23.0620 C   0  0  0  0  0  0  0  0  0  0  0  0
    8.0100    2.7580   23.0370 N   0  0  0  0  0  0  0  0  0  0  0  0
    6.0240    3.6980   23.6660 O   0  0  0  0  0  0  0  0  0  0  0  0
    7.6010    1.3680   23.2140 C   0  0  1  0  0  0  0  0  0  0  0  0
    6.2230    1.0370   22.6680 C   0  0  0  0  0  0  0  0  0  0  0  0
    8.6720    0.5540   22.5200 C   0  0  0  0  0  0  0  0  0  0  0  0
    8.8470   -0.7160   22.8690 N   0  0  0  0  0  0  0  0  0  0  0  0
    9.4240    1.0340   21.6650 O   0  0  0  0  0  0  0  0  0  0  0  0
    6.1330    0.9030   21.1730 C   0  0  0  0  0  0  0  0  0  0  0  0
    9.3500   -1.6930   21.9550 C   0  0  1  0  0  0  0  0  0  0  0  0
    6.8610   -0.0540   20.4770 C   0  0  0  0  0  0  0  0  0  0  0  0
    5.2850    1.7750   20.4770 C   0  0  0  0  0  0  0  0  0  0  0  0
   10.7440   -1.8800   22.3640 C   0  0  0  0  0  0  0  0  0  0  0  0
    8.4760   -2.9210   22.1880 C   0  0  0  0  0  0  0  0  0  0  0  0
    6.7080   -0.1100   18.9660 C   0  0  0  0  0  0  0  0  0  0  0  0
    5.1440    1.7240   19.1020 C   0  0  0  0  0  0  0  0  0  0  0  0
   11.8200   -2.0150   22.8410 C   0  0  0  0  0  0  0  0  0  0  0  0
    7.1830   -2.9380   21.6180 N   0  0  0  0  0  0  0  0  0  0  0  0
    5.8460    0.8000   18.3700 C   0  0  0  0  0  0  0  0  0  0  0  0
    5.7160    0.7550   17.0520 O   0  0  0  0  0  0  0  0  0  0  0  0
   13.4010   -2.2570   23.8340 Br  0  0  0  0  0  0  0  0  0  0  0  0
    7.0580   -3.6460   20.4340 C   0  0  0  0  0  0  0  0  0  0  0  0
    6.1270   -3.2040   22.5860 C   0  0  0  0  0  0  0  0  0  0  0  0
    8.2040   -4.5780   20.2890 C   0  0  0  0  0  0  0  0  0  0  0  0
    6.1390   -3.5910   19.5660 O   0  0  0  0  0  0  0  0  0  0  0  0
    5.6720   -4.6050   22.9320 C   0  0  0  0  0  0  0  0  0  0  0  0
    5.5570   -2.0900   23.1800 C   0  0  0  0  0  0  0  0  0  0  0  0
    6.2740   -6.0900   22.2970 Cl  0  0  0  0  0  0  0  0  0  0  0  0
    4.6870   -4.8030   23.8350 N   0  0  0  0  0  0  0  0  0  0  0  0
    4.5530   -2.3150   24.1030 C   0  0  0  0  0  0  0  0  0  0  0  0
    4.1630   -3.6300   24.3880 C   0  0  0  0  0  0  0  0  0  0  0  0
  1  2  1  0
  2  3  1  0
  2  4  2  0
  3  5  1  0
  5  6  1  6
  5  7  1  0
  7  8  1  0
  7  9  2  0
  6 10  1  0
  8 11  1  0
 10 12  2  0
 10 13  1  0
 11 14  1  1
 11 15  1  0
 12 16  1  0
 13 17  2  0
 14 18  3  0
 15 19  1  0
 16 20  2  0
 17 20  1  0
 20 21  1  0
 18 22  1  0
 19 23  1  0
 19 24  1  0
 23 25  1  0
 23 26  2  0
 24 27  2  0
 24 28  1  0
 27 29  1  0
 27 30  1  0
 28 31  2  0
 30 32  2  0
 31 32  1  0
M  END
