x0967-x0769
     RDKit          3D

 42 44  0  0  0  0  0  0  0  0999 V2000
    7.6420    4.9500   22.4090 C   0  0  0  0  0  0  0  0  0  0  0  0
    7.1710    3.6360   22.9760 C   0  0  0  0  0  0  0  0  0  0  0  0
    7.9610    2.5760   22.6200 N   0  0  0  0  0  0  0  0  0  0  0  0
    6.1780    3.5430   23.6880 O   0  0  0  0  0  0  0  0  0  0  0  0
    7.7270    1.2250   23.1500 C   0  0  1  0  0  0  0  0  0  0  0  0
    6.3910    0.6540   22.6780 C   0  0  2  0  0  0  0  0  0  0  0  0
    8.8940    0.4140   22.6010 C   0  0  0  0  0  0  0  0  0  0  0  0
    8.9550   -0.9250   22.6990 N   0  0  0  0  0  0  0  0  0  0  0  0
    9.8410    0.9730   22.0440 O   0  0  0  0  0  0  0  0  0  0  0  0
    5.9750   -0.7130   23.2300 C   0  0  0  0  0  0  0  0  0  0  0  0
    6.2540    0.6490   21.1630 C   0  0  0  0  0  0  0  0  0  0  0  0
    9.8550   -1.6180   21.8150 C   0  0  0  0  0  0  0  0  0  0  0  0
    5.9930   -0.8700   24.6320 C   0  0  0  0  0  0  0  0  0  0  0  0
    6.9870   -0.2300   20.3320 C   0  0  0  0  0  0  0  0  0  0  0  0
    5.3440    1.5840   20.6170 C   0  0  0  0  0  0  0  0  0  0  0  0
   11.0840   -1.8510   22.5480 C   0  0  0  0  0  0  0  0  0  0  0  0
    6.2440   -2.1470   25.1110 C   0  0  0  0  0  0  0  0  0  0  0  0
    6.8440   -0.2070   18.9470 C   0  0  0  0  0  0  0  0  0  0  0  0
    5.1430    1.6610   19.1240 C   0  0  0  0  0  0  0  0  0  0  0  0
   12.0270   -2.0400   23.2270 C   0  0  0  0  0  0  0  0  0  0  0  0
    5.4900   -2.3350   26.3100 O   0  0  0  0  0  0  0  0  0  0  0  0
    5.8400    0.8270   18.2970 C   0  0  0  0  0  0  0  0  0  0  0  0
    5.6400    0.9300   16.9950 O   0  0  0  0  0  0  0  0  0  0  0  0
   13.4130   -2.3840   24.4510 Br  0  0  0  0  0  0  0  0  0  0  0  0
    4.1530   -2.5380   26.1180 C   0  0  0  0  0  0  0  0  0  0  0  0
    3.7050   -3.8370   25.8420 C   0  0  0  0  0  0  0  0  0  0  0  0
    3.3070   -1.4060   26.2180 C   0  0  0  0  0  0  0  0  0  0  0  0
    4.7950   -5.2340   25.7320 S   0  0  0  0  0  0  0  0  0  0  0  0
    2.3360   -4.0310   25.6510 C   0  0  0  0  0  0  0  0  0  0  0  0
    1.9390   -1.5760   26.0330 C   0  0  0  0  0  0  0  0  0  0  0  0
    5.7970   -5.0600   26.7510 O   0  0  0  0  0  0  0  0  0  0  0  0
    3.9740   -6.4260   25.7040 O   0  0  0  0  0  0  0  0  0  0  0  0
    1.4380   -2.9780   25.7320 C   0  0  0  0  0  0  0  0  0  0  0  0
    5.5090   -5.1170   24.1890 N   0  0  0  0  0  0  0  0  0  0  0  0
    4.9050   -5.8930   23.0650 C   0  0  0  0  0  0  0  0  0  0  0  0
    6.9860   -4.9370   24.1540 C   0  0  0  0  0  0  0  0  0  0  0  0
    5.8350   -6.2370   22.0820 C   0  0  0  0  0  0  0  0  0  0  0  0
    7.4800   -4.5380   22.7590 C   0  0  0  0  0  0  0  0  0  0  0  0
    6.5980   -5.0400   21.7140 N   0  0  0  0  0  0  0  0  0  0  0  0
    6.3390   -4.4010   20.4890 C   0  0  0  0  0  0  0  0  0  0  0  0
    5.2820   -4.6240   19.9240 O   0  0  0  0  0  0  0  0  0  0  0  0
    7.3640   -3.4410   19.8610 C   0  0  0  0  0  0  0  0  0  0  0  0
  1  2  1  0
  2  3  1  0
  2  4  2  0
  5  3  1  6
  5  6  1  0
  5  7  1  0
  7  8  1  0
  7  9  2  0
  6 10  1  6
  6 11  1  0
  8 12  1  0
 10 13  1  0
 11 14  2  0
 11 15  1  0
 12 16  1  0
 13 17  1  0
 14 18  1  0
 15 19  2  0
 16 20  3  0
 17 21  1  0
 18 22  2  0
 19 22  1  0
 22 23  1  0
 20 24  1  0
 21 25  1  0
 25 26  1  0
 25 27  2  0
 28 26  1  0
 26 29  2  0
 27 30  1  0
 28 31  2  0
 28 32  2  0
 29 33  1  0
 30 33  2  0
 28 34  1  0
 34 35  1  0
 34 36  1  0
 35 37  1  0
 36 38  1  0
 37 39  1  0
 38 39  1  0
 39 40  1  0
 40 41  2  0
 40 42  1  0
M  END
