x0967-x3124
     RDKit          3D

 29 30  0  0  0  0  0  0  0  0999 V2000
    6.8190   -1.6880   21.9650 N   0  0  0  0  0  0  0  0  0  0  0  0
    6.0560   -2.8990   21.6670 C   0  0  0  0  0  0  0  0  0  0  0  0
    4.8150   -3.0460   21.3000 O   0  0  0  0  0  0  0  0  0  0  0  0
    6.3150   -0.2540   21.7160 C   0  0  1  0  0  0  0  0  0  0  0  0
    8.1800   -1.7370   22.5100 C   0  0  0  0  0  0  0  0  0  0  0  0
    6.8330   -4.1690   21.8050 C   0  0  0  0  0  0  0  0  0  0  0  0
    7.6370    0.5160   22.0920 C   0  0  0  0  0  0  0  0  0  0  0  0
    5.9190    0.2190   20.3440 C   0  0  0  0  0  0  0  0  0  0  0  0
    9.2280   -1.9650   21.6700 C   0  0  0  0  0  0  0  0  0  0  0  0
    8.5060   -1.5530   23.8580 C   0  0  0  0  0  0  0  0  0  0  0  0
    6.7140   -4.9180   20.4740 C   0  0  0  0  0  0  0  0  0  0  0  0
    7.6480    1.2830   23.2090 N   0  0  0  0  0  0  0  0  0  0  0  0
    8.6610    0.5290   21.4140 O   0  0  0  0  0  0  0  0  0  0  0  0
    4.8220    1.0080   20.1740 C   0  0  0  0  0  0  0  0  0  0  0  0
    6.7270   -0.1170   19.0310 C   0  0  0  0  0  0  0  0  0  0  0  0
   10.5530   -2.0130   22.0770 C   0  0  0  0  0  0  0  0  0  0  0  0
    9.8590   -1.5930   24.3170 C   0  0  0  0  0  0  0  0  0  0  0  0
    8.3390    2.5650   23.1810 C   0  0  0  0  0  0  0  0  0  0  0  0
    6.3310    0.3740   17.8390 N   0  0  0  0  0  0  0  0  0  0  0  0
    4.4520    1.4880   18.9280 C   0  0  0  0  0  0  0  0  0  0  0  0
   10.9730   -1.8340   23.3970 C   0  0  0  0  0  0  0  0  0  0  0  0
   12.4450   -1.8820   23.8470 C   0  0  0  0  0  0  0  0  0  0  0  0
    7.3190    3.7090   23.1100 C   0  0  0  0  0  0  0  0  0  0  0  0
    5.2210    1.1550   17.8290 C   0  0  0  0  0  0  0  0  0  0  0  0
   12.8230   -0.8090   24.1820 C   0  0  0  0  0  0  0  0  0  0  0  0
   13.3150   -2.3450   22.6840 C   0  0  0  0  0  0  0  0  0  0  0  0
   12.7710   -2.8600   24.9810 C   0  0  0  0  0  0  0  0  0  0  0  0
    7.7100    4.8630   22.4360 C   0  0  0  0  0  0  0  0  0  0  0  0
    6.2050    3.6100   23.6300 O   0  0  0  0  0  0  0  0  0  0  0  0
  1  2  1  0
  2  3  2  0
  1  4  1  0
  1  5  1  0
  2  6  1  0
  4  7  1  6
  4  8  1  0
  5  9  2  0
  5 10  1  0
  6 11  1  0
  7 12  1  0
  7 13  2  0
  8 14  2  0
  8 15  1  0
  9 16  1  0
 10 17  2  0
 12 18  1  0
 15 19  2  0
 14 20  1  0
 16 21  2  0
 17 21  1  0
 21 22  1  0
 18 23  1  0
 19 24  1  0
 20 24  2  0
 22 25  1  0
 22 26  1  0
 22 27  1  0
 23 28  1  0
 23 29  2  0
M  END
