x0978-x3117-x3113-x2052
     RDKit          3D

 60 66  0  0  0  0  0  0  0  0999 V2000
    8.2390    1.7870   23.3040 N   0  0  0  0  0  0  0  0  0  0  0  0
    7.8930    0.9640   22.1120 C   0  0  0  0  0  0  0  0  0  0  0  0
    8.6250    1.1720   20.9040 O   0  0  0  0  0  0  0  0  0  0  0  0
    9.2850    2.7820   23.2380 C   0  0  2  0  0  0  0  0  0  0  0  0
    6.7660   -0.0900   21.8440 C   0  0  1  0  0  0  0  0  0  0  0  0
   10.4280    1.8040   22.9190 C   0  0  0  0  0  0  0  0  0  0  0  0
    9.9490    3.6570   24.2070 C   0  0  1  0  0  0  0  0  0  0  0  0
    8.9770    3.5810   22.1850 C   0  0  0  0  0  0  0  0  0  0  0  0
   11.3820    3.7600   23.7390 N   0  0  0  0  0  0  0  0  0  0  0  0
   11.6650    2.6770   23.0330 C   0  0  0  0  0  0  0  0  0  0  0  0
    6.3520    0.2100   20.4240 C   0  0  0  0  0  0  0  0  0  0  0  0
    9.3440    4.9390   24.4120 O   0  0  0  0  0  0  0  0  0  0  0  0
    8.1970    4.6920   22.4060 C   0  0  0  0  0  0  0  0  0  0  0  0
    6.9930   -1.5830   22.3630 C   0  0  2  0  0  0  0  0  0  0  0  0
   11.9120    4.9940   23.1450 C   0  0  0  0  0  0  0  0  0  0  0  0
    5.2360    1.0870   20.3250 C   0  0  0  0  0  0  0  0  0  0  0  0
    6.9190   -0.2280   19.2400 C   0  0  0  0  0  0  0  0  0  0  0  0
    8.4990   -1.7590   22.6740 C   0  0  0  0  0  0  0  0  0  0  0  0
    8.8250    5.5790   23.2450 C   0  0  0  0  0  0  0  0  0  0  0  0
    6.2240   -2.9820   22.2430 N   0  0  0  0  0  0  0  0  0  0  0  0
    6.4780   -1.2380   23.5890 C   0  0  0  0  0  0  0  0  0  0  0  0
    6.4080   -4.2370   21.4670 C   0  0  1  0  0  0  0  0  0  0  0  0
    6.3890    0.2190   17.9480 N   0  0  0  0  0  0  0  0  0  0  0  0
    4.7120    1.5220   19.1440 C   0  0  0  0  0  0  0  0  0  0  0  0
    9.4780   -2.0520   21.7460 C   0  0  0  0  0  0  0  0  0  0  0  0
    8.9710   -1.5690   24.1090 C   0  0  0  0  0  0  0  0  0  0  0  0
    6.4550   -2.4050   24.5000 C   0  0  2  0  0  0  0  0  0  0  0  0
    6.0700   -3.5560   23.6220 C   0  0  1  0  0  0  0  0  0  0  0  0
    5.4890   -5.4290   21.8900 N   0  0  0  0  0  0  0  0  0  0  0  0
    4.8230   -4.2970   23.9410 N   0  0  0  0  0  0  0  0  0  0  0  0
    6.4780   -4.1040   19.9350 C   0  0  0  0  0  0  0  0  0  0  0  0
    5.6780   -1.9110   25.6760 C   0  0  0  0  0  0  0  0  0  0  0  0
    5.2590    1.1250   17.7540 C   0  0  0  0  0  0  0  0  0  0  0  0
   10.9530   -2.1740   22.1230 C   0  0  0  0  0  0  0  0  0  0  0  0
   10.4290   -1.6940   24.4750 C   0  0  0  0  0  0  0  0  0  0  0  0
    4.5680   -5.2800   23.0490 C   0  0  0  0  0  0  0  0  0  0  0  0
    5.3950   -3.3560   19.2090 C   0  0  0  0  0  0  0  0  0  0  0  0
    4.3220   -1.9530   25.7030 O   0  0  0  0  0  0  0  0  0  0  0  0
    6.5020   -1.4200   26.6130 N   0  0  0  0  0  0  0  0  0  0  0  0
   11.4170   -2.0050   23.4110 C   0  0  0  0  0  0  0  0  0  0  0  0
   12.7320   -2.0730   23.8220 C   0  0  0  0  0  0  0  0  0  0  0  0
    3.3620   -6.2530   23.1960 C   0  0  2  0  0  0  0  0  0  0  0  0
    6.1390   -0.4500   27.6200 C   0  0  0  0  0  0  0  0  0  0  0  0
   13.5470   -2.5310   22.8460 C   0  0  0  0  0  0  0  0  0  0  0  0
   12.9230   -2.9310   25.0680 C   0  0  0  0  0  0  0  0  0  0  0  0
   13.0900   -0.6540   24.1660 C   0  0  0  0  0  0  0  0  0  0  0  0
    2.1190   -5.4580   23.1670 N   0  0  0  0  0  0  0  0  0  0  0  0
    3.3720   -7.0650   24.3980 C   0  0  1  0  0  0  0  0  0  0  0  0
    6.5580    1.0220   27.3760 C   0  0  0  0  0  0  0  0  0  0  0  0
    5.3800   -0.8450   28.8930 C   0  0  0  0  0  0  0  0  0  0  0  0
    2.3180   -8.0380   24.5130 C   0  0  0  0  0  0  0  0  0  0  0  0
    4.4580   -7.8070   24.7350 O   0  0  0  0  0  0  0  0  0  0  0  0
    1.0650   -6.1500   22.6420 C   0  0  0  0  0  0  0  0  0  0  0  0
    6.2130    2.0140   28.4080 N   0  0  0  0  0  0  0  0  0  0  0  0
    5.0950    0.1550   29.8080 C   0  0  0  0  0  0  0  0  0  0  0  0
    1.1430   -7.4120   21.9810 O   0  0  0  0  0  0  0  0  0  0  0  0
   -0.2730   -5.4240   22.8240 C   0  0  0  0  0  0  0  0  0  0  0  0
    5.5460    1.6010   29.5160 C   0  0  0  0  0  0  0  0  0  0  0  0
    5.2200    2.5130   30.4950 O   0  0  0  0  0  0  0  0  0  0  0  0
    6.1540    3.4910   30.6520 C   0  0  0  0  0  0  0  0  0  0  0  0
  1  2  1  0
  2  3  2  0
  4  1  1  1
  5  2  1  6
  4  6  1  0
  4  7  1  0
  4  8  1  0
  7  9  1  0
  6 10  1  0
  9 10  1  0
  5 11  1  0
  7 12  1  6
  8 13  1  0
  5 14  1  0
  9 15  1  0
 11 16  2  0
 11 17  1  0
 14 18  1  1
 12 19  1  0
 13 19  1  0
 14 20  1  0
 14 21  1  0
 20 22  1  0
 17 23  2  0
 16 24  1  0
 18 25  2  0
 18 26  1  0
 21 27  1  0
 20 28  1  0
 27 28  1  0
 22 29  1  0
 28 30  1  1
 22 31  1  6
 27 32  1  1
 23 33  1  0
 24 33  2  0
 25 34  1  0
 26 35  2  0
 29 36  1  0
 30 36  2  0
 31 37  2  3
 32 38  2  0
 32 39  1  0
 34 40  2  0
 35 40  1  0
 40 41  1  0
 36 42  1  0
 39 43  1  0
 41 44  1  0
 41 45  1  0
 41 46  1  0
 42 47  1  1
 42 48  1  0
 43 49  2  0
 43 50  1  0
 48 51  1  6
 48 52  1  0
 47 53  1  0
 49 54  1  0
 50 55  2  0
 53 56  2  0
 53 57  1  0
 54 58  2  0
 55 58  1  0
 58 59  1  0
 59 60  1  0
M  END
