x0978-x0771-x1493-x2776
     RDKit          3D

 59 64  0  0  0  0  0  0  0  0999 V2000
    2.2450   -5.6150   22.9830 N   0  0  0  0  0  0  0  0  0  0  0  0
    3.4850   -6.3720   23.2460 C   0  0  2  0  0  0  0  0  0  0  0  0
    3.2870   -7.0880   24.6070 C   0  0  1  0  0  0  0  0  0  0  0  0
    0.9640   -6.2400   22.5670 C   0  0  0  0  0  0  0  0  0  0  0  0
    0.8950   -7.4580   21.9510 O   0  0  0  0  0  0  0  0  0  0  0  0
   -0.1870   -5.4810   22.8360 C   0  0  0  0  0  0  0  0  0  0  0  0
    4.7350   -5.4560   23.0380 C   0  0  2  0  0  0  0  0  0  0  0  0
    2.5140   -8.4220   24.5290 C   0  0  0  0  0  0  0  0  0  0  0  0
    4.4580   -7.1180   25.3200 N   0  0  0  0  0  0  0  0  0  0  0  0
    4.1240   -4.1890   23.1910 O   0  0  0  0  0  0  0  0  0  0  0  0
    5.4000   -5.4480   21.7880 C   0  0  0  0  0  0  0  0  0  0  0  0
    5.7350   -5.4230   24.1210 N   0  0  0  0  0  0  0  0  0  0  0  0
    5.0370   -5.5770   25.6750 S   0  0  0  0  0  0  0  0  0  0  0  0
    6.2300   -4.3410   21.5350 C   0  0  2  0  0  0  0  0  0  0  0  0
    6.7890   -4.5380   23.9220 C   0  0  0  0  0  0  0  0  0  0  0  0
    6.4800   -4.2240   20.0440 C   0  0  0  0  0  0  0  0  0  0  0  0
    6.3670   -5.6860   26.4190 N   0  0  0  0  0  0  0  0  0  0  0  0
    3.8310   -4.3650   25.8300 C   0  0  0  0  0  0  0  0  0  0  0  0
    7.2970   -4.6940   22.5740 C   0  0  0  0  0  0  0  0  0  0  0  0
    5.6820   -3.0010   21.9830 C   0  0  0  0  0  0  0  0  0  0  0  0
    5.3440   -3.5150   19.3490 C   0  0  0  0  0  0  0  0  0  0  0  0
    7.6000   -5.7400   26.4020 O   0  0  0  0  0  0  0  0  0  0  0  0
    2.3770   -4.5660   25.5720 C   0  0  0  0  0  0  0  0  0  0  0  0
    4.2800   -3.0980   26.2440 C   0  0  0  0  0  0  0  0  0  0  0  0
    6.2140   -1.8460   21.2160 C   0  0  0  0  0  0  0  0  0  0  0  0
    1.5000   -3.5180   25.7480 C   0  0  0  0  0  0  0  0  0  0  0  0
    3.3630   -2.0390   26.4190 C   0  0  0  0  0  0  0  0  0  0  0  0
    7.0290   -0.8780   22.0300 N   0  0  0  0  0  0  0  0  0  0  0  0
    1.8880   -2.2670   26.1580 C   0  0  0  0  0  0  0  0  0  0  0  0
    6.7820    0.4200   21.7410 C   0  0  1  0  0  0  0  0  0  0  0  0
    8.3080   -1.1930   22.5300 C   0  0  0  0  0  0  0  0  0  0  0  0
    0.9380   -1.2570   26.3270 C   0  0  0  0  0  0  0  0  0  0  0  0
    7.7800    1.3550   21.9740 C   0  0  0  0  0  0  0  0  0  0  0  0
    6.2870    0.6940   20.3740 C   0  0  0  0  0  0  0  0  0  0  0  0
    9.2850   -1.7940   21.7740 C   0  0  0  0  0  0  0  0  0  0  0  0
    8.6460   -0.8710   23.8380 C   0  0  0  0  0  0  0  0  0  0  0  0
    7.9070    2.0400   23.1050 N   0  0  0  0  0  0  0  0  0  0  0  0
    8.6810    1.5410   20.8870 O   0  0  0  0  0  0  0  0  0  0  0  0
    5.0800    1.6350   20.1820 C   0  0  0  0  0  0  0  0  0  0  0  0
    6.9060    0.0940   19.1230 C   0  0  0  0  0  0  0  0  0  0  0  0
   10.5720   -2.0740   22.2310 C   0  0  0  0  0  0  0  0  0  0  0  0
    9.9540   -1.1310   24.3660 C   0  0  0  0  0  0  0  0  0  0  0  0
    6.3690    0.4210   17.8130 N   0  0  0  0  0  0  0  0  0  0  0  0
    4.6540    1.8710   18.8740 C   0  0  0  0  0  0  0  0  0  0  0  0
    8.5700    3.2570   23.2330 C   0  0  0  0  0  0  0  0  0  0  0  0
   10.9330   -1.7450   23.5210 C   0  0  0  0  0  0  0  0  0  0  0  0
   12.3170   -2.0330   23.9540 C   0  0  2  0  0  0  0  0  0  0  0  0
    5.2420    1.3190   17.7490 C   0  0  0  0  0  0  0  0  0  0  0  0
    9.9090    3.2080   23.6640 C   0  0  0  0  0  0  0  0  0  0  0  0
    7.9350    4.6110   22.9420 C   0  0  0  0  0  0  0  0  0  0  0  0
   12.3700   -2.8650   25.0440 O   0  0  0  0  0  0  0  0  0  0  0  0
   10.5360    1.8730   23.9400 C   0  0  0  0  0  0  0  0  0  0  0  0
   12.9210   -0.6390   24.1890 C   0  0  0  0  0  0  0  0  0  0  0  0
   10.6810    4.5100   23.8400 C   0  0  0  0  0  0  0  0  0  0  0  0
    8.7630    5.8940   23.1390 C   0  0  0  0  0  0  0  0  0  0  0  0
   13.6530   -3.0030   25.4340 C   0  0  0  0  0  0  0  0  0  0  0  0
   10.1990    5.7910   23.6190 C   0  0  0  0  0  0  0  0  0  0  0  0
   10.9950    6.8890   23.8350 O   0  0  0  0  0  0  0  0  0  0  0  0
   11.8770    6.9460   24.9270 C   0  0  0  0  0  0  0  0  0  0  0  0
  2  1  1  1
  2  3  1  0
  1  4  1  0
  4  5  2  0
  4  6  1  0
  2  7  1  0
  3  8  1  6
  3  9  1  0
  7 10  1  6
  7 11  1  0
  7 12  1  0
  9 13  2  0
 12 13  1  0
 11 14  1  0
 12 15  1  0
 14 16  1  6
 13 17  1  0
 13 18  1  0
 14 19  1  0
 15 19  1  0
 14 20  1  0
 16 21  2  3
 17 22  2  0
 18 23  2  0
 18 24  1  0
 20 25  1  0
 23 26  1  0
 24 27  2  0
 25 28  1  0
 26 29  2  0
 27 29  1  0
 28 30  1  0
 28 31  1  0
 29 32  1  0
 30 33  1  6
 30 34  1  0
 31 35  2  0
 31 36  1  0
 33 37  1  0
 33 38  2  0
 34 39  2  0
 34 40  1  0
 35 41  1  0
 36 42  2  0
 40 43  2  0
 39 44  1  0
 37 45  1  0
 41 46  2  0
 42 46  1  0
 46 47  1  0
 43 48  1  0
 44 48  2  0
 45 49  2  0
 45 50  1  0
 47 51  1  0
 49 52  1  0
 47 53  1  1
 49 54  1  0
 50 55  2  0
 51 56  1  0
 54 57  2  0
 55 57  1  0
 57 58  1  0
 58 59  1  0
M  END
