x0978-x3115-x0755-x3110-x0946
     RDKit          3D

 65 69  0  0  0  0  0  0  0  0999 V2000
    8.0670    1.6650   23.2950 N   0  0  0  0  0  0  0  0  0  0  0  0
    8.6970    2.9690   23.1990 C   0  0  1  0  0  0  0  0  0  0  0  0
    8.1200    4.0650   24.1110 C   0  0  0  0  0  0  0  0  0  0  0  0
    8.0080    1.1180   21.9930 C   0  0  0  0  0  0  0  0  0  0  0  0
    8.8450    1.4210   21.1310 O   0  0  0  0  0  0  0  0  0  0  0  0
    6.8050    0.2060   21.7440 C   0  0  2  0  0  0  0  0  0  0  0  0
   10.1990    2.7220   23.1400 C   0  0  0  0  0  0  0  0  0  0  0  0
    7.1180   -1.2300   22.0440 N   0  0  0  0  0  0  0  0  0  0  0  0
    7.3980    5.0000   23.3770 O   0  0  0  0  0  0  0  0  0  0  0  0
    6.1390    0.4840   20.4270 C   0  0  0  0  0  0  0  0  0  0  0  0
   11.0780    3.7290   23.2110 C   0  0  0  0  0  0  0  0  0  0  0  0
   10.7290    1.2960   22.9600 C   0  0  0  0  0  0  0  0  0  0  0  0
   10.5930    5.1000   23.4480 C   0  0  0  0  0  0  0  0  0  0  0  0
    8.1300    5.8080   22.4570 C   0  0  0  0  0  0  0  0  0  0  0  0
    6.1320   -2.0180   22.6960 C   0  0  0  0  0  0  0  0  0  0  0  0
    4.8540    1.2480   20.1890 C   0  0  0  0  0  0  0  0  0  0  0  0
    6.8290   -0.0150   19.2890 C   0  0  0  0  0  0  0  0  0  0  0  0
    8.3950   -1.4270   22.5520 C   0  0  0  0  0  0  0  0  0  0  0  0
   12.0770    1.1420   22.8450 C   0  0  0  0  0  0  0  0  0  0  0  0
   12.4330    3.5330   23.0680 C   0  0  0  0  0  0  0  0  0  0  0  0
   13.3580    4.7030   23.1090 C   0  0  0  0  0  0  0  0  0  0  0  0
   10.4200    6.4120   24.0760 O   0  0  0  0  0  0  0  0  0  0  0  0
   11.3910    4.9050   24.3400 O   0  0  0  0  0  0  0  0  0  0  0  0
    5.4180   -3.0430   22.0910 C   0  0  0  0  0  0  0  0  0  0  0  0
    6.3870    0.1760   18.0060 N   0  0  0  0  0  0  0  0  0  0  0  0
    4.4800    1.3970   18.8870 C   0  0  0  0  0  0  0  0  0  0  0  0
    9.4770   -1.4850   21.6890 C   0  0  0  0  0  0  0  0  0  0  0  0
    8.5800   -1.5620   23.9190 C   0  0  0  0  0  0  0  0  0  0  0  0
   12.8990    2.2060   22.8820 C   0  0  0  0  0  0  0  0  0  0  0  0
   13.1900    5.4760   21.8520 C   0  0  0  0  0  0  0  0  0  0  0  0
    5.2410    0.8730   17.8640 C   0  0  0  0  0  0  0  0  0  0  0  0
   10.7590   -1.6790   22.1210 C   0  0  0  0  0  0  0  0  0  0  0  0
    9.8600   -1.7600   24.4390 C   0  0  0  0  0  0  0  0  0  0  0  0
    6.2360   -4.3150   21.5850 C   0  0  1  0  0  0  0  0  0  0  0  0
    6.4610   -4.0650   20.0310 C   0  0  0  0  0  0  0  0  0  0  0  0
   10.9530   -1.8240   23.6190 C   0  0  0  0  0  0  0  0  0  0  0  0
    7.2750   -4.5620   22.4770 C   0  0  0  0  0  0  0  0  0  0  0  0
    5.3870   -5.6040   21.8430 C   0  0  0  0  0  0  0  0  0  0  0  0
   12.3160   -2.0360   24.2260 C   0  0  0  0  0  0  0  0  0  0  0  0
    5.3560   -3.3970   19.2430 C   0  0  0  0  0  0  0  0  0  0  0  0
    6.8970   -4.8340   24.0190 C   0  0  0  0  0  0  0  0  0  0  0  0
    4.5180   -5.4960   23.1500 C   0  0  1  0  0  0  0  0  0  0  0  0
   12.7410   -0.8240   25.0630 C   0  0  0  0  0  0  0  0  0  0  0  0
   13.3830   -2.2890   23.1540 C   0  0  0  0  0  0  0  0  0  0  0  0
   12.1660   -3.2250   25.1690 C   0  0  0  0  0  0  0  0  0  0  0  0
    3.2450   -6.4470   23.2330 C   0  0  2  0  0  0  0  0  0  0  0  0
    5.5050   -5.3670   24.3180 N   0  0  0  0  0  0  0  0  0  0  0  0
    2.1100   -5.6590   23.1920 N   0  0  0  0  0  0  0  0  0  0  0  0
    3.1880   -7.2410   24.3680 C   0  0  1  0  0  0  0  0  0  0  0  0
    5.0570   -5.0920   25.9250 S   0  0  0  0  0  0  0  0  0  0  0  0
    2.1780   -8.2170   24.4940 C   0  0  0  0  0  0  0  0  0  0  0  0
    4.4370   -7.9210   24.5170 O   0  0  0  0  0  0  0  0  0  0  0  0
    1.0100   -6.1940   22.6430 C   0  0  0  0  0  0  0  0  0  0  0  0
    4.4790   -6.4090   26.6000 O   0  0  0  0  0  0  0  0  0  0  0  0
    6.3440   -4.5910   26.7190 O   0  0  0  0  0  0  0  0  0  0  0  0
    3.8570   -3.8030   25.9290 C   0  0  0  0  0  0  0  0  0  0  0  0
    1.0320   -7.3740   21.9580 O   0  0  0  0  0  0  0  0  0  0  0  0
   -0.2260   -5.5460   22.7450 C   0  0  0  0  0  0  0  0  0  0  0  0
    2.3540   -4.0600   25.8810 C   0  0  0  0  0  0  0  0  0  0  0  0
    4.2780   -2.3420   25.9850 C   0  0  0  0  0  0  0  0  0  0  0  0
    1.8330   -5.2900   25.8390 F   0  0  0  0  0  0  0  0  0  0  0  0
    5.5550   -1.9590   26.0370 F   0  0  0  0  0  0  0  0  0  0  0  0
    3.2980   -1.3680   25.9840 C   0  0  0  0  0  0  0  0  0  0  0  0
    1.4380   -3.0090   25.8830 C   0  0  0  0  0  0  0  0  0  0  0  0
    1.9300   -1.7000   25.9350 C   0  0  0  0  0  0  0  0  0  0  0  0
  1  2  1  0
  2  3  1  1
  1  4  1  0
  4  5  2  0
  6  4  1  6
  2  7  1  0
  6  8  1  0
  3  9  1  0
  6 10  1  0
  7 11  2  0
  7 12  1  0
 11 13  1  0
  9 14  1  0
  8 15  1  0
 10 16  2  0
 10 17  1  0
  8 18  1  0
 12 19  2  0
 11 20  1  0
 20 21  1  0
 13 22  2  0
 13 23  1  0
 15 24  1  0
 17 25  2  0
 16 26  1  0
 18 27  2  0
 18 28  1  0
 19 29  1  0
 20 29  2  0
 21 30  1  0
 25 31  1  0
 26 31  2  0
 27 32  1  0
 28 33  2  0
 34 24  1  1
 34 35  1  0
 32 36  2  0
 33 36  1  0
 34 37  1  0
 34 38  1  0
 36 39  1  0
 35 40  2  3
 37 41  1  0
 42 38  1  6
 39 43  1  0
 39 44  1  0
 39 45  1  0
 42 46  1  0
 41 47  1  0
 42 47  1  0
 46 48  1  1
 46 49  1  0
 47 50  1  0
 49 51  1  6
 49 52  1  0
 48 53  1  0
 50 54  2  0
 50 55  2  0
 50 56  1  0
 53 57  2  0
 53 58  1  0
 56 59  2  0
 56 60  1  0
 59 61  1  0
 60 62  1  0
 60 63  2  0
 59 64  1  0
 63 65  1  0
 64 65  2  0
M  END
