x0978-x2754-x3115
     RDKit          3D

 53 56  0  0  0  0  0  0  0  0999 V2000
    1.7290   -5.8700   23.2740 N   0  0  0  0  0  0  0  0  0  0  0  0
    2.8220   -6.7460   23.2420 C   0  0  2  0  0  0  0  0  0  0  0  0
    3.2060   -7.4360   24.5640 C   0  0  1  0  0  0  0  0  0  0  0  0
    0.5500   -6.2190   22.4900 C   0  0  0  0  0  0  0  0  0  0  0  0
    0.3760   -7.1670   21.7340 O   0  0  0  0  0  0  0  0  0  0  0  0
   -0.6570   -5.2840   22.6150 C   0  0  0  0  0  0  0  0  0  0  0  0
    4.0980   -6.0290   22.7970 C   0  0  0  0  0  0  0  0  0  0  0  0
    2.0490   -8.3570   24.9420 C   0  0  0  0  0  0  0  0  0  0  0  0
    4.3060   -7.9080   24.3180 O   0  0  0  0  0  0  0  0  0  0  0  0
    5.2270   -5.9380   23.7010 N   0  0  0  0  0  0  0  0  0  0  0  0
    6.0760   -4.8210   23.5480 C   0  0  2  0  0  0  0  0  0  0  0  0
    5.5660   -3.5800   23.7840 C   0  0  1  0  0  0  0  0  0  0  0  0
    6.6670   -5.0050   22.3310 C   0  0  0  0  0  0  0  0  0  0  0  0
    4.8410   -3.3070   25.1500 C   0  0  0  0  0  0  0  0  0  0  0  0
    6.7670   -3.8050   21.4680 N   0  0  0  0  0  0  0  0  0  0  0  0
    6.3770   -2.5900   23.4370 C   0  0  0  0  0  0  0  0  0  0  0  0
    6.6740   -3.9240   20.0620 C   0  0  0  0  0  0  0  0  0  0  0  0
    3.4340   -3.1490   25.1280 O   0  0  0  0  0  0  0  0  0  0  0  0
    5.5000   -3.1970   26.3320 N   0  0  0  0  0  0  0  0  0  0  0  0
    6.4410   -2.4650   22.1030 C   0  0  1  0  0  0  0  0  0  0  0  0
    5.4420   -3.4240   19.3360 C   0  0  0  0  0  0  0  0  0  0  0  0
    7.3450   -1.4170   21.7650 N   0  0  0  0  0  0  0  0  0  0  0  0
    5.1160   -2.1980   27.1660 C   0  0  0  0  0  0  0  0  0  0  0  0
    6.8480   -3.6780   26.5790 C   0  0  0  0  0  0  0  0  0  0  0  0
    6.8620   -0.0240   21.6790 C   0  0  1  0  0  0  0  0  0  0  0  0
    8.6740   -1.5940   22.3690 C   0  0  0  0  0  0  0  0  0  0  0  0
    6.9810   -4.8160   27.3650 C   0  0  0  0  0  0  0  0  0  0  0  0
    8.0320   -2.9330   25.9780 C   0  0  0  0  0  0  0  0  0  0  0  0
    7.8980    1.0680   21.9100 C   0  0  0  0  0  0  0  0  0  0  0  0
    6.2260    0.3310   20.4980 C   0  0  0  0  0  0  0  0  0  0  0  0
    9.7270   -2.1860   21.7560 C   0  0  0  0  0  0  0  0  0  0  0  0
    8.7560   -1.1010   23.6040 C   0  0  0  0  0  0  0  0  0  0  0  0
    8.3480   -5.4070   27.6830 C   0  0  0  0  0  0  0  0  0  0  0  0
    9.4350   -3.4840   26.2570 C   0  0  0  0  0  0  0  0  0  0  0  0
    7.9430    1.9460   22.9340 N   0  0  0  0  0  0  0  0  0  0  0  0
    8.7280    1.1460   21.0010 O   0  0  0  0  0  0  0  0  0  0  0  0
    4.9560    1.1490   20.3360 C   0  0  0  0  0  0  0  0  0  0  0  0
    6.8480   -0.1030   19.1920 C   0  0  0  0  0  0  0  0  0  0  0  0
   10.9120   -2.3090   22.3000 C   0  0  0  0  0  0  0  0  0  0  0  0
   10.0920   -1.2130   24.3060 C   0  0  0  0  0  0  0  0  0  0  0  0
    9.5740   -4.7280   27.1190 C   0  0  0  0  0  0  0  0  0  0  0  0
    8.4950    3.1210   22.5530 C   0  0  0  0  0  0  0  0  0  0  0  0
    6.3870    0.1770   17.9480 N   0  0  0  0  0  0  0  0  0  0  0  0
    4.5130    1.4170   19.0520 C   0  0  0  0  0  0  0  0  0  0  0  0
   11.1610   -1.7930   23.6740 C   0  0  0  0  0  0  0  0  0  0  0  0
    7.9170    4.2630   22.9470 C   0  0  0  0  0  0  0  0  0  0  0  0
   12.4700   -1.8420   24.3850 C   0  0  0  0  0  0  0  0  0  0  0  0
    5.1490    0.9900   17.9100 C   0  0  0  0  0  0  0  0  0  0  0  0
    8.6500    5.2630   23.0790 O   0  0  0  0  0  0  0  0  0  0  0  0
   13.3800   -1.7360   23.4030 C   0  0  0  0  0  0  0  0  0  0  0  0
   12.7710   -3.0710   25.1620 C   0  0  0  0  0  0  0  0  0  0  0  0
   12.5710   -0.5770   25.1770 C   0  0  0  0  0  0  0  0  0  0  0  0
    8.2740    6.3580   22.2330 C   0  0  0  0  0  0  0  0  0  0  0  0
  1  2  1  0
  2  3  1  0
  1  4  1  0
  4  5  2  0
  4  6  1  0
  2  7  1  1
  3  8  1  6
  3  9  1  0
  7 10  1  0
 11 10  1  6
 11 12  1  0
 11 13  1  0
 12 14  1  1
 13 15  1  0
 12 16  1  0
 15 17  1  0
 14 18  2  0
 14 19  1  0
 15 20  1  0
 16 20  1  0
 17 21  2  3
 20 22  1  1
 19 23  1  0
 19 24  1  0
 22 25  1  0
 22 26  1  0
 24 27  2  0
 24 28  1  0
 25 29  1  6
 25 30  1  0
 26 31  2  0
 26 32  1  0
 27 33  1  0
 28 34  2  0
 29 35  1  0
 29 36  2  0
 30 37  2  0
 30 38  1  0
 31 39  1  0
 32 40  2  0
 33 41  2  0
 34 41  1  0
 35 42  1  0
 38 43  2  0
 37 44  1  0
 39 45  2  0
 40 45  1  0
 42 46  1  0
 45 47  1  0
 43 48  1  0
 44 48  2  0
 46 49  1  0
 47 50  1  0
 47 51  1  0
 47 52  1  0
 49 53  1  0
M  END
