x0978-x2910
     RDKit          3D

 40 42  0  0  0  0  0  0  0  0999 V2000
    2.0780   -5.7090   23.1820 N   0  0  0  0  0  0  0  0  0  0  0  0
    3.2210   -6.5130   23.1950 C   0  0  2  0  0  0  0  0  0  0  0  0
    3.3280   -7.3710   24.4700 C   0  0  1  0  0  0  0  0  0  0  0  0
    0.8260   -6.2350   22.5600 C   0  0  0  0  0  0  0  0  0  0  0  0
    0.7860   -7.2810   21.9230 O   0  0  0  0  0  0  0  0  0  0  0  0
   -0.4570   -5.3720   22.7590 C   0  0  0  0  0  0  0  0  0  0  0  0
    4.4600   -5.5730   22.9860 C   0  0  0  0  0  0  0  0  0  0  0  0
    2.0420   -8.2250   24.6190 C   0  0  0  0  0  0  0  0  0  0  0  0
    4.4050   -7.9380   24.3880 O   0  0  0  0  0  0  0  0  0  0  0  0
    5.2280   -5.7010   21.7160 N   0  0  0  0  0  0  0  0  0  0  0  0
    4.8250   -4.6480   23.9930 O   0  0  0  0  0  0  0  0  0  0  0  0
    6.0280   -4.4930   21.4150 C   0  0  1  0  0  0  0  0  0  0  0  0
    6.3410   -4.2170   19.9330 C   0  0  0  0  0  0  0  0  0  0  0  0
    5.3160   -3.2580   22.0800 C   0  0  0  0  0  0  0  0  0  0  0  0
    5.3390   -3.4100   19.1550 C   0  0  0  0  0  0  0  0  0  0  0  0
    5.1640   -2.1800   21.2640 N   0  0  0  0  0  0  0  0  0  0  0  0
    6.0930   -1.2770   20.9410 C   0  0  0  0  0  0  0  0  0  0  0  0
    7.4560   -1.2700   21.3730 N   0  0  0  0  0  0  0  0  0  0  0  0
    5.6300   -0.1270   20.0510 C   0  0  0  0  0  0  0  0  0  0  0  0
    7.9760   -2.3290   22.2360 C   0  0  0  0  0  0  0  0  0  0  0  0
    4.6770    0.7700   20.5240 C   0  0  0  0  0  0  0  0  0  0  0  0
    6.1460    0.0280   18.8200 C   0  0  0  0  0  0  0  0  0  0  0  0
    9.4630   -2.2470   22.3010 C   0  0  0  0  0  0  0  0  0  0  0  0
    4.2140    1.8310   19.7260 C   0  0  0  0  0  0  0  0  0  0  0  0
    5.7700    1.0700   17.9520 C   0  0  0  0  0  0  0  0  0  0  0  0
    4.1210    0.6880   21.8110 C   0  0  0  0  0  0  0  0  0  0  0  0
    9.6830   -1.0050   22.8700 O   0  0  0  0  0  0  0  0  0  0  0  0
    6.2070    1.3570   16.7480 O   0  0  0  0  0  0  0  0  0  0  0  0
    4.7740    1.9840   18.4150 N   0  0  0  0  0  0  0  0  0  0  0  0
    3.2590    2.7240   20.1580 C   0  0  0  0  0  0  0  0  0  0  0  0
    3.1600    1.6060   22.2520 C   0  0  0  0  0  0  0  0  0  0  0  0
   10.9380   -0.6030   22.7670 C   0  0  0  0  0  0  0  0  0  0  0  0
    2.7320    2.6160   21.4100 C   0  0  0  0  0  0  0  0  0  0  0  0
   11.1320    0.7410   22.9300 C   0  0  0  0  0  0  0  0  0  0  0  0
   11.9630   -1.5010   22.5140 C   0  0  0  0  0  0  0  0  0  0  0  0
   10.0210    1.5090   23.1710 O   0  0  0  0  0  0  0  0  0  0  0  0
   13.2500   -1.0440   22.4210 C   0  0  0  0  0  0  0  0  0  0  0  0
   12.4170    1.1780   22.8380 C   0  0  0  0  0  0  0  0  0  0  0  0
   10.1900    2.9350   23.2240 C   0  0  0  0  0  0  0  0  0  0  0  0
   13.4790    0.3700   22.5940 C   0  0  0  0  0  0  0  0  0  0  0  0
  2  1  1  1
  2  3  1  0
  1  4  1  0
  4  5  2  0
  4  6  1  0
  2  7  1  0
  3  8  1  6
  3  9  1  0
  7 10  1  0
  7 11  2  0
 10 12  1  0
 12 13  1  6
 12 14  1  0
 13 15  2  3
 14 16  1  0
 16 17  2  3
 17 18  1  0
 17 19  1  0
 18 20  1  0
 19 21  1  0
 19 22  2  0
 20 23  1  0
 21 24  2  0
 22 25  1  0
 21 26  1  0
 23 27  1  0
 25 28  1  0
 24 29  1  0
 25 29  2  0
 24 30  1  0
 26 31  2  0
 27 32  1  0
 30 33  2  0
 31 33  1  0
 32 34  2  0
 32 35  1  0
 34 36  1  0
 35 37  2  0
 34 38  1  0
 36 39  1  0
 37 40  1  0
 38 40  2  0
M  END
