x0978-x3113-x1425-x3115
     RDKit          3D

 56 60  0  0  0  0  0  0  0  0999 V2000
    7.7290   -1.4720   21.9570 N   0  0  0  0  0  0  0  0  0  0  0  0
    6.9900   -0.2850   21.7850 C   0  0  1  0  0  0  0  0  0  0  0  0
    7.9670    0.8960   21.8390 C   0  0  0  0  0  0  0  0  0  0  0  0
    8.9150   -1.6290   22.4570 C   0  0  0  0  0  0  0  0  0  0  0  0
    7.0740   -2.8250   22.2260 C   0  0  2  0  0  0  0  0  0  0  0  0
    6.2920    0.1590   20.4600 C   0  0  0  0  0  0  0  0  0  0  0  0
   10.0440   -1.3080   21.7840 C   0  0  0  0  0  0  0  0  0  0  0  0
    9.0830   -2.1800   23.8590 C   0  0  0  0  0  0  0  0  0  0  0  0
    7.1950   -3.8750   21.1400 N   0  0  0  0  0  0  0  0  0  0  0  0
    5.6520   -2.8700   22.5990 C   0  0  0  0  0  0  0  0  0  0  0  0
    8.1440    1.5300   22.9360 N   0  0  0  0  0  0  0  0  0  0  0  0
    8.5670    1.2850   20.8490 O   0  0  0  0  0  0  0  0  0  0  0  0
    7.0410   -3.5790   19.8300 C   0  0  0  0  0  0  0  0  0  0  0  0
    5.0370    0.9560   20.3450 C   0  0  0  0  0  0  0  0  0  0  0  0
    6.9840   -0.2400   19.1750 C   0  0  0  0  0  0  0  0  0  0  0  0
   11.3010   -1.4650   22.3030 C   0  0  0  0  0  0  0  0  0  0  0  0
   10.3690   -2.2980   24.2860 C   0  0  0  0  0  0  0  0  0  0  0  0
    5.5540   -4.1890   23.2070 N   0  0  0  0  0  0  0  0  0  0  0  0
    6.7580   -5.2410   21.4290 C   0  0  0  0  0  0  0  0  0  0  0  0
    9.0810    2.6990   22.9720 C   0  0  2  0  0  0  0  0  0  0  0  0
    4.4950   -4.5870   23.9030 C   0  0  0  0  0  0  0  0  0  0  0  0
    5.7240   -3.3370   19.1180 C   0  0  0  0  0  0  0  0  0  0  0  0
    6.3690    0.2120   17.9190 N   0  0  0  0  0  0  0  0  0  0  0  0
    4.5450    1.3270   18.9750 C   0  0  0  0  0  0  0  0  0  0  0  0
   11.4650   -1.9650   23.5740 C   0  0  0  0  0  0  0  0  0  0  0  0
    6.0380   -5.4070   22.5640 C   0  0  2  0  0  0  0  0  0  0  0  0
   10.2830    2.1920   23.7700 C   0  0  0  0  0  0  0  0  0  0  0  0
   12.8060   -2.0960   24.1060 C   0  0  0  0  0  0  0  0  0  0  0  0
    8.3500    3.8820   23.4160 C   0  0  0  0  0  0  0  0  0  0  0  0
    4.7590   -6.0260   22.2370 N   0  0  0  0  0  0  0  0  0  0  0  0
    3.9750   -5.7490   23.2650 C   0  0  0  0  0  0  0  0  0  0  0  0
    5.2320    0.9410   17.8990 C   0  0  0  0  0  0  0  0  0  0  0  0
    4.1370   -3.7740   25.1270 C   0  0  0  0  0  0  0  0  0  0  0  0
   11.5110    3.1020   23.4040 C   0  0  0  0  0  0  0  0  0  0  0  0
   13.6240   -2.2430   23.0310 C   0  0  0  0  0  0  0  0  0  0  0  0
   12.9730   -3.0620   25.2040 C   0  0  0  0  0  0  0  0  0  0  0  0
   12.9070   -0.7160   24.7630 C   0  0  0  0  0  0  0  0  0  0  0  0
    9.0540    5.0930   23.1010 O   0  0  0  0  0  0  0  0  0  0  0  0
    2.7820   -6.6610   23.5810 C   0  0  2  0  0  0  0  0  0  0  0  0
    4.9970   -2.7380   25.8430 C   0  0  0  0  0  0  0  0  0  0  0  0
    2.7890   -4.0130   25.7190 C   0  0  0  0  0  0  0  0  0  0  0  0
   11.5690    3.7370   22.3660 O   0  0  0  0  0  0  0  0  0  0  0  0
    8.2710    6.0200   22.3460 C   0  0  0  0  0  0  0  0  0  0  0  0
    1.6370   -5.7800   23.3320 N   0  0  0  0  0  0  0  0  0  0  0  0
    2.9290   -7.3500   24.7820 C   0  0  1  0  0  0  0  0  0  0  0  0
    4.5030   -2.0960   26.9660 C   0  0  0  0  0  0  0  0  0  0  0  0
    2.3960   -3.3140   26.8480 C   0  0  0  0  0  0  0  0  0  0  0  0
   12.7420    4.5520   22.3340 C   0  0  0  0  0  0  0  0  0  0  0  0
    2.0840   -8.4470   24.9060 C   0  0  0  0  0  0  0  0  0  0  0  0
    4.2340   -7.9090   24.8630 O   0  0  0  0  0  0  0  0  0  0  0  0
    0.6010   -6.1810   22.5650 C   0  0  0  0  0  0  0  0  0  0  0  0
    3.2280   -2.3610   27.4840 C   0  0  0  0  0  0  0  0  0  0  0  0
    0.5860   -7.2130   21.8100 O   0  0  0  0  0  0  0  0  0  0  0  0
   -0.5100   -5.3850   22.6310 C   0  0  0  0  0  0  0  0  0  0  0  0
    2.6650   -1.7840   28.5790 O   0  0  0  0  0  0  0  0  0  0  0  0
    1.3270   -1.9590   28.7370 C   0  0  0  0  0  0  0  0  0  0  0  0
  1  2  1  0
  2  3  1  6
  1  4  1  0
  5  1  1  6
  2  6  1  0
  4  7  2  0
  4  8  1  0
  5  9  1  0
  5 10  1  0
  3 11  1  0
  3 12  2  0
  9 13  1  0
  6 14  2  0
  6 15  1  0
  7 16  1  0
  8 17  2  0
 10 18  1  0
  9 19  1  0
 11 20  1  0
 18 21  1  0
 13 22  2  3
 15 23  2  0
 14 24  1  0
 16 25  2  0
 17 25  1  0
 18 26  1  0
 26 19  1  6
 20 27  1  1
 25 28  1  0
 20 29  1  0
 26 30  1  0
 21 31  2  0
 30 31  1  0
 23 32  1  0
 24 32  2  0
 21 33  1  0
 27 34  1  0
 28 35  1  0
 28 36  1  0
 28 37  1  0
 29 38  1  0
 31 39  1  0
 33 40  2  0
 33 41  1  0
 34 42  1  0
 38 43  1  0
 39 44  1  1
 39 45  1  0
 40 46  1  0
 41 47  2  0
 42 48  1  0
 45 49  1  6
 45 50  1  0
 44 51  1  0
 46 52  2  0
 47 52  1  0
 51 53  2  0
 51 54  1  0
 52 55  1  0
 55 56  1  0
M  END
