x0978-x3110
     RDKit          3D

 44 45  0  0  0  0  0  0  0  0999 V2000
    8.0610    1.4640   23.4360 N   0  0  0  0  0  0  0  0  0  0  0  0
    9.0430    2.2710   24.1400 C   0  0  0  0  0  0  0  0  0  0  0  0
   10.4930    2.0320   23.6270 C   0  0  0  0  0  0  0  0  0  0  0  0
    7.9810    1.1550   22.0240 C   0  0  0  0  0  0  0  0  0  0  0  0
    8.8000    1.7790   21.0480 O   0  0  0  0  0  0  0  0  0  0  0  0
    6.9070    0.0970   21.7250 C   0  0  2  0  0  0  0  0  0  0  0  0
    7.3190   -1.3090   21.8410 N   0  0  0  0  0  0  0  0  0  0  0  0
   11.1790    3.3470   23.4190 C   0  0  0  0  0  0  0  0  0  0  0  0
    6.3640    0.4330   20.3050 C   0  0  0  0  0  0  0  0  0  0  0  0
   12.0940    3.2740   22.3530 O   0  0  0  0  0  0  0  0  0  0  0  0
   10.9310    4.5050   24.1960 O   0  0  0  0  0  0  0  0  0  0  0  0
    6.3420   -2.2450   22.1990 C   0  0  0  0  0  0  0  0  0  0  0  0
    5.1660    1.4030   20.2380 C   0  0  0  0  0  0  0  0  0  0  0  0
    6.9300   -0.0930   19.1700 C   0  0  0  0  0  0  0  0  0  0  0  0
    8.5620   -1.4700   22.4420 C   0  0  0  0  0  0  0  0  0  0  0  0
   12.4890    4.5650   21.8780 C   0  0  0  0  0  0  0  0  0  0  0  0
    6.6950   -3.7490   22.3390 C   0  0  0  0  0  0  0  0  0  0  0  0
    6.3870    0.2890   17.8730 N   0  0  0  0  0  0  0  0  0  0  0  0
    4.5820    1.8190   19.0530 C   0  0  0  0  0  0  0  0  0  0  0  0
    9.7410   -1.2430   21.7590 C   0  0  0  0  0  0  0  0  0  0  0  0
    8.6210   -1.8760   23.7730 C   0  0  0  0  0  0  0  0  0  0  0  0
   13.4130    5.2220   22.9250 C   0  0  0  0  0  0  0  0  0  0  0  0
    5.9090   -4.4230   21.4790 C   0  0  2  0  0  0  0  0  0  0  0  0
    5.2290    1.2370   17.7910 C   0  0  0  0  0  0  0  0  0  0  0  0
   10.9610   -1.4140   22.3570 C   0  0  0  0  0  0  0  0  0  0  0  0
    9.8520   -2.0420   24.3710 C   0  0  0  0  0  0  0  0  0  0  0  0
    5.3740   -5.5910   21.9500 N   0  0  0  0  0  0  0  0  0  0  0  0
    6.2800   -4.2470   19.9730 C   0  0  0  0  0  0  0  0  0  0  0  0
   11.0180   -1.8150   23.6720 C   0  0  0  0  0  0  0  0  0  0  0  0
   12.3490   -1.9980   24.3370 C   0  0  0  0  0  0  0  0  0  0  0  0
    4.4100   -5.4820   23.0880 C   0  0  0  0  0  0  0  0  0  0  0  0
    5.3210   -3.3910   19.2050 C   0  0  0  0  0  0  0  0  0  0  0  0
   12.7150   -0.7510   25.1120 C   0  0  0  0  0  0  0  0  0  0  0  0
   13.4310   -2.2820   23.2880 C   0  0  0  0  0  0  0  0  0  0  0  0
   12.1880   -3.2050   25.2450 C   0  0  0  0  0  0  0  0  0  0  0  0
    3.2080   -6.4730   23.2000 C   0  0  2  0  0  0  0  0  0  0  0  0
    4.5410   -4.5950   23.9240 O   0  0  0  0  0  0  0  0  0  0  0  0
    1.9930   -5.6500   23.1520 N   0  0  0  0  0  0  0  0  0  0  0  0
    3.3030   -7.2250   24.3740 C   0  0  1  0  0  0  0  0  0  0  0  0
    2.2540   -8.0800   24.7130 C   0  0  0  0  0  0  0  0  0  0  0  0
    4.5050   -7.9430   24.2900 O   0  0  0  0  0  0  0  0  0  0  0  0
    0.7420   -6.1560   22.5420 C   0  0  0  0  0  0  0  0  0  0  0  0
    0.7360   -7.4030   21.8720 O   0  0  0  0  0  0  0  0  0  0  0  0
   -0.4400   -5.4090   22.6160 C   0  0  0  0  0  0  0  0  0  0  0  0
  1  2  1  0
  2  3  1  0
  1  4  1  0
  4  5  2  0
  6  4  1  6
  6  7  1  0
  3  8  1  0
  6  9  1  0
  8 10  1  0
  8 11  2  0
  7 12  1  0
  9 13  2  0
  9 14  1  0
  7 15  1  0
 10 16  1  0
 12 17  1  0
 14 18  2  0
 13 19  1  0
 15 20  2  0
 15 21  1  0
 16 22  1  0
 23 17  1  1
 18 24  1  0
 19 24  2  0
 20 25  1  0
 21 26  2  0
 23 27  1  0
 23 28  1  0
 25 29  2  0
 26 29  1  0
 29 30  1  0
 27 31  1  0
 28 32  2  3
 30 33  1  0
 30 34  1  0
 30 35  1  0
 31 36  1  0
 31 37  2  0
 36 38  1  1
 36 39  1  0
 39 40  1  6
 39 41  1  0
 38 42  1  0
 42 43  2  0
 42 44  1  0
M  END
