x0978-x0689-x2776
     RDKit          3D

 56 61  0  0  0  0  0  0  0  0999 V2000
    2.0800   -5.7460   23.2790 N   0  0  0  0  0  0  0  0  0  0  0  0
    3.4450   -6.3290   23.2590 C   0  0  2  0  0  0  0  0  0  0  0  0
    3.7220   -7.0060   24.5860 C   0  0  1  0  0  0  0  0  0  0  0  0
    0.9840   -6.2860   22.6180 C   0  0  0  0  0  0  0  0  0  0  0  0
    1.0050   -7.3260   21.9680 O   0  0  0  0  0  0  0  0  0  0  0  0
   -0.2820   -5.4670   22.7610 C   0  0  0  0  0  0  0  0  0  0  0  0
    4.5340   -5.2800   22.9130 C   0  0  2  0  0  0  0  0  0  0  0  0
    2.4150   -7.5700   25.1820 C   0  0  0  0  0  0  0  0  0  0  0  0
    4.6060   -7.8120   24.3770 O   0  0  0  0  0  0  0  0  0  0  0  0
    3.7390   -4.1640   22.5530 O   0  0  0  0  0  0  0  0  0  0  0  0
    4.1670   -4.9110   25.1010 S   0  0  0  0  0  0  0  0  0  0  0  0
    5.3790   -5.5190   21.8750 C   0  0  0  0  0  0  0  0  0  0  0  0
    5.3560   -4.7200   23.9670 N   0  0  0  0  0  0  0  0  0  0  0  0
    4.7340   -5.2340   26.3990 O   0  0  0  0  0  0  0  0  0  0  0  0
    6.3500   -4.5460   21.6370 C   0  0  1  0  0  0  0  0  0  0  0  0
    6.6900   -4.9340   24.0690 C   0  0  0  0  0  0  0  0  0  0  0  0
    3.2550   -3.5380   25.6780 C   0  0  0  0  0  0  0  0  0  0  0  0
    6.7740   -5.0070   20.2700 C   0  0  0  0  0  0  0  0  0  0  0  0
    5.7160   -3.1550   21.7010 C   0  0  0  0  0  0  0  0  0  0  0  0
    7.3140   -4.8540   22.7960 C   0  0  0  0  0  0  0  0  0  0  0  0
    3.7090   -1.9850   26.4190 S   0  0  0  0  0  0  0  0  0  0  0  0
    1.8680   -3.4950   25.5710 C   0  0  0  0  0  0  0  0  0  0  0  0
    5.9200   -6.1510   19.7550 C   0  0  0  0  0  0  0  0  0  0  0  0
    6.5460   -2.1080   21.2780 C   0  0  0  0  0  0  0  0  0  0  0  0
    1.3130   -2.3370   26.0370 C   0  0  0  0  0  0  0  0  0  0  0  0
    2.0980   -1.3280   26.5610 C   0  0  0  0  0  0  0  0  0  0  0  0
    6.9680   -1.0800   22.0260 N   0  0  0  0  0  0  0  0  0  0  0  0
    6.7390    0.3410   21.6540 C   0  0  1  0  0  0  0  0  0  0  0  0
    8.3360   -1.2940   22.5700 C   0  0  0  0  0  0  0  0  0  0  0  0
    7.9250    1.3160   21.8420 C   0  0  0  0  0  0  0  0  0  0  0  0
    6.1950    0.6250   20.2550 C   0  0  0  0  0  0  0  0  0  0  0  0
    9.4650   -1.9550   21.7930 C   0  0  0  0  0  0  0  0  0  0  0  0
    8.4290   -0.7930   23.8680 C   0  0  0  0  0  0  0  0  0  0  0  0
    7.8650    2.1650   23.0010 N   0  0  0  0  0  0  0  0  0  0  0  0
    8.8700    1.4030   21.0270 O   0  0  0  0  0  0  0  0  0  0  0  0
    5.0890    1.4260   20.1370 C   0  0  0  0  0  0  0  0  0  0  0  0
    6.8530    0.0770   19.1540 C   0  0  0  0  0  0  0  0  0  0  0  0
   10.8100   -2.0370   22.5150 C   0  0  0  0  0  0  0  0  0  0  0  0
    9.7380   -0.8430   24.6550 C   0  0  0  0  0  0  0  0  0  0  0  0
    6.3700    0.3710   17.9240 N   0  0  0  0  0  0  0  0  0  0  0  0
    4.5950    1.7270   18.8850 C   0  0  0  0  0  0  0  0  0  0  0  0
    8.6420    3.3640   23.2230 C   0  0  0  0  0  0  0  0  0  0  0  0
   10.9360   -1.4710   23.9360 C   0  0  0  0  0  0  0  0  0  0  0  0
   12.2290   -1.5210   24.6090 C   0  0  1  0  0  0  0  0  0  0  0  0
    5.1950    1.2360   17.7360 C   0  0  0  0  0  0  0  0  0  0  0  0
    9.9610    3.1940   23.6330 C   0  0  0  0  0  0  0  0  0  0  0  0
    8.0470    4.5980   23.0180 C   0  0  0  0  0  0  0  0  0  0  0  0
   12.4870   -2.8710   24.8920 O   0  0  0  0  0  0  0  0  0  0  0  0
   10.5980    1.8600   23.8480 C   0  0  0  0  0  0  0  0  0  0  0  0
   13.1980   -1.0730   23.5130 C   0  0  0  0  0  0  0  0  0  0  0  0
   10.6610    4.3840   23.8360 C   0  0  0  0  0  0  0  0  0  0  0  0
    8.7620    5.7750   23.2310 C   0  0  0  0  0  0  0  0  0  0  0  0
   13.7030   -2.9810   25.4870 C   0  0  0  0  0  0  0  0  0  0  0  0
   10.0970    5.6560   23.6550 C   0  0  0  0  0  0  0  0  0  0  0  0
   10.8570    6.7940   23.8950 O   0  0  0  0  0  0  0  0  0  0  0  0
   11.8640    6.8060   24.8710 C   0  0  0  0  0  0  0  0  0  0  0  0
  2  1  1  1
  2  3  1  0
  1  4  1  0
  4  5  2  0
  4  6  1  0
  2  7  1  0
  3  8  1  1
  3  9  1  0
  7 10  1  6
  3 11  1  0
  7 12  1  0
  7 13  1  0
 11 13  1  0
 11 14  2  0
 12 15  1  0
 13 16  1  0
 11 17  1  0
 15 18  1  6
 15 19  1  0
 15 20  1  0
 16 20  1  0
 17 21  1  0
 17 22  2  0
 18 23  2  3
 19 24  1  0
 22 25  1  0
 21 26  1  0
 25 26  2  0
 24 27  1  0
 27 28  1  0
 27 29  1  0
 28 30  1  6
 28 31  1  0
 29 32  2  0
 29 33  1  0
 30 34  1  0
 30 35  2  0
 31 36  2  0
 31 37  1  0
 32 38  1  0
 33 39  2  0
 37 40  2  0
 36 41  1  0
 34 42  1  0
 38 43  2  0
 39 43  1  0
 43 44  1  0
 40 45  1  0
 41 45  2  0
 42 46  2  0
 42 47  1  0
 44 48  1  0
 46 49  1  0
 44 50  1  6
 46 51  1  0
 47 52  2  0
 48 53  1  0
 51 54  2  0
 52 54  1  0
 54 55  1  0
 55 56  1  0
M  END
