x0978-x0678
     RDKit          3D

 33 34  0  0  0  0  0  0  0  0999 V2000
    2.1090   -5.6790   23.1860 N   0  0  0  0  0  0  0  0  0  0  0  0
    3.2980   -6.4140   23.1780 C   0  0  2  0  0  0  0  0  0  0  0  0
    3.4430   -7.2880   24.4440 C   0  0  1  0  0  0  0  0  0  0  0  0
    0.8700   -6.2460   22.5690 C   0  0  0  0  0  0  0  0  0  0  0  0
    0.8490   -7.3140   21.9670 O   0  0  0  0  0  0  0  0  0  0  0  0
   -0.4240   -5.3900   22.7250 C   0  0  0  0  0  0  0  0  0  0  0  0
    4.4490   -5.3600   22.9500 C   0  0  0  0  0  0  0  0  0  0  0  0
    2.1340   -8.0990   24.6550 C   0  0  0  0  0  0  0  0  0  0  0  0
    4.4860   -7.9020   24.3120 O   0  0  0  0  0  0  0  0  0  0  0  0
    5.5200   -5.6510   21.9560 N   0  0  0  0  0  0  0  0  0  0  0  0
    4.4570   -4.1480   23.6730 O   0  0  0  0  0  0  0  0  0  0  0  0
    6.1110   -4.3620   21.5180 C   0  0  2  0  0  0  0  0  0  0  0  0
    6.4020   -4.2350   19.9960 C   0  0  0  0  0  0  0  0  0  0  0  0
    7.2250   -3.8670   22.4930 C   0  0  0  0  0  0  0  0  0  0  0  0
    5.3510   -3.4420   19.2750 C   0  0  0  0  0  0  0  0  0  0  0  0
    7.1660   -2.4720   22.6820 C   0  0  0  0  0  0  0  0  0  0  0  0
    7.6330   -1.7910   21.5460 C   0  0  0  0  0  0  0  0  0  0  0  0
    7.5760   -0.3350   21.4660 N   0  0  0  0  0  0  0  0  0  0  0  0
    8.7120    0.4400   22.0100 C   0  0  0  0  0  0  0  0  0  0  0  0
    6.8650    0.1510   20.3480 C   0  0  0  0  0  0  0  0  0  0  0  0
    9.2440    1.4850   21.2990 O   0  0  0  0  0  0  0  0  0  0  0  0
    9.2080    0.1310   23.2920 C   0  0  0  0  0  0  0  0  0  0  0  0
    5.8360    1.0810   20.4900 C   0  0  0  0  0  0  0  0  0  0  0  0
    7.1760   -0.2930   19.0620 C   0  0  0  0  0  0  0  0  0  0  0  0
   10.4580   -0.7860   23.4360 C   0  0  0  0  0  0  0  0  0  0  0  0
    5.0440    1.6290   19.2890 C   0  0  0  0  0  0  0  0  0  0  0  0
    6.4330    0.2240   17.8930 N   0  0  0  0  0  0  0  0  0  0  0  0
   11.2470   -0.8720   22.3000 C   0  0  0  0  0  0  0  0  0  0  0  0
   11.1370   -0.3850   24.5840 C   0  0  0  0  0  0  0  0  0  0  0  0
    5.3670    1.1910   18.0690 C   0  0  0  0  0  0  0  0  0  0  0  0
   12.3370   -1.7470   22.4110 C   0  0  0  0  0  0  0  0  0  0  0  0
   12.5240   -1.0230   24.7110 C   0  0  0  0  0  0  0  0  0  0  0  0
   13.2230   -1.3240   23.4000 C   0  0  0  0  0  0  0  0  0  0  0  0
  2  1  1  1
  2  3  1  0
  1  4  1  0
  4  5  2  0
  4  6  1  0
  2  7  1  0
  3  8  1  6
  3  9  1  0
  7 10  1  0
  7 11  2  0
 10 12  1  0
 12 13  1  6
 12 14  1  0
 13 15  2  3
 14 16  1  0
 16 17  1  0
 17 18  1  0
 18 19  1  0
 18 20  1  0
 19 21  2  0
 19 22  1  0
 20 23  2  0
 20 24  1  0
 22 25  1  0
 23 26  1  0
 24 27  2  0
 25 28  1  0
 25 29  1  0
 26 30  2  0
 27 30  1  0
 28 31  1  0
 29 32  1  0
 31 33  1  0
 32 33  1  0
M  END
