x0978-x3298
     RDKit          3D

 45 47  0  0  0  0  0  0  0  0999 V2000
    2.0830   -5.6820   23.1920 N   0  0  0  0  0  0  0  0  0  0  0  0
    3.2450   -6.4550   23.2540 C   0  0  2  0  0  0  0  0  0  0  0  0
    3.3080   -7.2800   24.5620 C   0  0  1  0  0  0  0  0  0  0  0  0
    0.8400   -6.2260   22.5640 C   0  0  0  0  0  0  0  0  0  0  0  0
    0.8140   -7.2840   21.9430 O   0  0  0  0  0  0  0  0  0  0  0  0
   -0.4490   -5.3660   22.7360 C   0  0  0  0  0  0  0  0  0  0  0  0
    4.4560   -5.4800   23.0120 C   0  0  0  0  0  0  0  0  0  0  0  0
    2.0760   -8.2220   24.6120 C   0  0  0  0  0  0  0  0  0  0  0  0
    4.4200   -7.7760   24.6330 O   0  0  0  0  0  0  0  0  0  0  0  0
    5.1900   -5.6670   21.7270 N   0  0  0  0  0  0  0  0  0  0  0  0
    4.7930   -4.5020   23.9720 O   0  0  0  0  0  0  0  0  0  0  0  0
    6.3840   -4.8120   21.4790 C   0  0  1  0  0  0  0  0  0  0  0  0
    6.4750   -4.3550   20.0080 C   0  0  0  0  0  0  0  0  0  0  0  0
    6.5060   -3.5900   22.4290 C   0  0  0  0  0  0  0  0  0  0  0  0
    5.3570   -3.5450   19.4190 C   0  0  0  0  0  0  0  0  0  0  0  0
    5.3800   -2.7540   22.3650 C   0  0  0  0  0  0  0  0  0  0  0  0
    5.6170   -1.6170   21.5900 C   0  0  0  0  0  0  0  0  0  0  0  0
    6.3540   -0.8540   22.2000 O   0  0  0  0  0  0  0  0  0  0  0  0
    7.2370   -0.1290   21.3420 C   0  0  2  0  0  0  0  0  0  0  0  0
    7.7600    1.1100   21.6490 C   0  0  0  0  0  0  0  0  0  0  0  0
    6.5330    0.2650   20.1060 C   0  0  0  0  0  0  0  0  0  0  0  0
    7.0130    2.0020   22.5370 N   0  0  0  0  0  0  0  0  0  0  0  0
    8.9780    1.4870   21.0420 O   0  0  0  0  0  0  0  0  0  0  0  0
    6.9980   -0.1170   18.8710 C   0  0  0  0  0  0  0  0  0  0  0  0
    5.3930    1.0580   20.1900 C   0  0  0  0  0  0  0  0  0  0  0  0
    6.3380    0.3070   17.6570 N   0  0  0  0  0  0  0  0  0  0  0  0
    4.6820    1.5160   19.1060 C   0  0  0  0  0  0  0  0  0  0  0  0
    7.7660    3.1150   22.8680 C   0  0  0  0  0  0  0  0  0  0  0  0
    5.1530    1.1520   17.8120 C   0  0  0  0  0  0  0  0  0  0  0  0
    7.4550    4.4430   22.5410 C   0  0  0  0  0  0  0  0  0  0  0  0
    8.9020    2.7360   23.5450 C   0  0  0  0  0  0  0  0  0  0  0  0
    8.9640    1.2650   23.7860 N   0  0  0  0  0  0  0  0  0  0  0  0
    8.3730    5.5710   22.9080 C   0  0  0  0  0  0  0  0  0  0  0  0
    9.8660    3.9000   23.8970 C   0  0  0  0  0  0  0  0  0  0  0  0
   10.2500    0.7120   24.6190 S   0  0  0  0  0  0  0  0  0  0  0  0
    9.6650    5.2390   23.6300 C   0  0  0  0  0  0  0  0  0  0  0  0
   11.0320    1.8750   24.6910 O   0  0  0  0  0  0  0  0  0  0  0  0
    9.8280   -0.1320   25.7180 O   0  0  0  0  0  0  0  0  0  0  0  0
   11.2060   -0.1640   23.4970 C   0  0  0  0  0  0  0  0  0  0  0  0
   12.4450    0.3960   23.2760 C   0  0  0  0  0  0  0  0  0  0  0  0
   10.7630   -1.3090   22.8710 C   0  0  0  0  0  0  0  0  0  0  0  0
   13.2670   -0.2000   22.3930 C   0  0  0  0  0  0  0  0  0  0  0  0
   11.6490   -2.0440   21.8470 C   0  0  0  0  0  0  0  0  0  0  0  0
   12.8830   -1.4560   21.6360 C   0  0  0  0  0  0  0  0  0  0  0  0
   13.7040   -1.9890   20.7660 F   0  0  0  0  0  0  0  0  0  0  0  0
  2  1  1  1
  2  3  1  0
  1  4  1  0
  4  5  2  0
  4  6  1  0
  2  7  1  0
  3  8  1  6
  3  9  1  0
  7 10  1  0
  7 11  2  0
 10 12  1  0
 12 13  1  6
 12 14  1  0
 13 15  2  3
 14 16  1  0
 16 17  1  0
 17 18  1  0
 19 18  1  1
 19 20  1  0
 19 21  1  0
 20 22  1  0
 20 23  2  0
 21 24  2  0
 21 25  1  0
 24 26  1  0
 25 27  2  0
 22 28  1  0
 26 29  2  0
 27 29  1  0
 28 30  2  0
 28 31  1  0
 31 32  1  0
 30 33  1  0
 31 34  2  0
 35 32  1  0
 33 36  2  0
 34 36  1  0
 35 37  2  0
 35 38  2  0
 35 39  1  0
 39 40  2  0
 39 41  1  0
 40 42  1  0
 41 43  2  0
 42 44  2  0
 43 44  1  0
 44 45  1  0
M  END
