x0978-x0755-x3110-x3115
     RDKit          3D

 60 63  0  0  0  0  0  0  0  0999 V2000
    7.9960    1.5970   23.3470 N   0  0  0  0  0  0  0  0  0  0  0  0
    8.8230    2.7890   23.5960 C   0  0  1  0  0  0  0  0  0  0  0  0
   10.3160    2.3550   23.5800 C   0  0  0  0  0  0  0  0  0  0  0  0
    7.9300    1.0890   21.9940 C   0  0  0  0  0  0  0  0  0  0  0  0
    8.7010    1.4550   21.0960 O   0  0  0  0  0  0  0  0  0  0  0  0
    6.7830    0.0940   21.7700 C   0  0  2  0  0  0  0  0  0  0  0  0
    8.5750    3.8770   22.5760 C   0  0  0  0  0  0  0  0  0  0  0  0
    7.1010   -1.1970   22.0380 N   0  0  0  0  0  0  0  0  0  0  0  0
   11.2270    3.4170   23.3470 C   0  0  0  0  0  0  0  0  0  0  0  0
    8.6350    5.1770   23.1750 O   0  0  0  0  0  0  0  0  0  0  0  0
    6.2390    0.4180   20.4130 C   0  0  0  0  0  0  0  0  0  0  0  0
   12.0220    3.2730   22.4300 O   0  0  0  0  0  0  0  0  0  0  0  0
   11.0920    4.3730   24.1150 O   0  0  0  0  0  0  0  0  0  0  0  0
    8.2600    6.2360   22.2930 C   0  0  0  0  0  0  0  0  0  0  0  0
    6.0140   -2.0330   22.5850 C   0  0  0  0  0  0  0  0  0  0  0  0
    5.1380    1.2540   20.2900 C   0  0  0  0  0  0  0  0  0  0  0  0
    6.8800   -0.1320   19.1940 C   0  0  0  0  0  0  0  0  0  0  0  0
    8.3880   -1.3660   22.5820 C   0  0  0  0  0  0  0  0  0  0  0  0
   12.4480    4.5260   21.8810 C   0  0  0  0  0  0  0  0  0  0  0  0
    5.5190   -3.0240   21.7330 C   0  0  0  0  0  0  0  0  0  0  0  0
    6.3610    0.2150   17.8580 N   0  0  0  0  0  0  0  0  0  0  0  0
    4.6430    1.5800   18.9210 C   0  0  0  0  0  0  0  0  0  0  0  0
    9.4550   -1.9480   21.7260 C   0  0  0  0  0  0  0  0  0  0  0  0
    8.7940   -1.0010   23.9640 C   0  0  0  0  0  0  0  0  0  0  0  0
   13.4060    5.2340   22.9110 C   0  0  0  0  0  0  0  0  0  0  0  0
    5.2330    1.0880   17.8420 C   0  0  0  0  0  0  0  0  0  0  0  0
   10.8410   -2.1280   22.2000 C   0  0  0  0  0  0  0  0  0  0  0  0
   10.1800   -1.2150   24.3440 C   0  0  0  0  0  0  0  0  0  0  0  0
    6.1910   -4.4420   21.7360 C   0  0  1  0  0  0  0  0  0  0  0  0
    6.5270   -4.8510   20.2720 C   0  0  0  0  0  0  0  0  0  0  0  0
   11.1540   -1.7130   23.5870 C   0  0  0  0  0  0  0  0  0  0  0  0
    7.3390   -4.6400   22.7340 C   0  0  0  0  0  0  0  0  0  0  0  0
    5.2110   -5.5350   22.1940 C   0  0  0  0  0  0  0  0  0  0  0  0
   12.4630   -1.8300   24.0760 C   0  0  0  0  0  0  0  0  0  0  0  0
    5.8170   -6.1440   19.7920 C   0  0  0  0  0  0  0  0  0  0  0  0
    6.8830   -4.7270   24.2310 C   0  0  0  0  0  0  0  0  0  0  0  0
    4.4890   -5.3010   23.4800 C   0  0  1  0  0  0  0  0  0  0  0  0
   12.7370   -0.5370   24.8360 C   0  0  0  0  0  0  0  0  0  0  0  0
   13.3990   -2.0360   22.9300 C   0  0  0  0  0  0  0  0  0  0  0  0
   12.8320   -2.9740   25.0230 C   0  0  0  0  0  0  0  0  0  0  0  0
    3.2300   -6.2720   23.5260 C   0  0  2  0  0  0  0  0  0  0  0  0
    5.5420   -5.3440   24.5690 N   0  0  0  0  0  0  0  0  0  0  0  0
    2.0040   -5.4980   23.3910 N   0  0  0  0  0  0  0  0  0  0  0  0
    3.3180   -7.3690   24.5490 C   0  0  1  0  0  0  0  0  0  0  0  0
    5.0650   -5.0220   26.1600 S   0  0  0  0  0  0  0  0  0  0  0  0
    2.3370   -8.3390   24.4790 C   0  0  0  0  0  0  0  0  0  0  0  0
    4.3620   -7.9750   24.3510 O   0  0  0  0  0  0  0  0  0  0  0  0
    0.9440   -6.1090   22.6790 C   0  0  0  0  0  0  0  0  0  0  0  0
    4.4790   -6.2020   26.7400 O   0  0  0  0  0  0  0  0  0  0  0  0
    6.2300   -4.4750   26.8070 O   0  0  0  0  0  0  0  0  0  0  0  0
    3.8820   -3.8390   26.0490 C   0  0  0  0  0  0  0  0  0  0  0  0
    0.9240   -7.1630   22.0370 O   0  0  0  0  0  0  0  0  0  0  0  0
   -0.2900   -5.4530   22.6650 C   0  0  0  0  0  0  0  0  0  0  0  0
    2.4450   -4.2720   25.9690 C   0  0  0  0  0  0  0  0  0  0  0  0
    4.3140   -2.3610   26.0390 C   0  0  0  0  0  0  0  0  0  0  0  0
    2.0150   -5.5360   25.9780 F   0  0  0  0  0  0  0  0  0  0  0  0
    5.5860   -1.9690   26.1130 F   0  0  0  0  0  0  0  0  0  0  0  0
    3.2210   -1.3030   25.9430 C   0  0  0  0  0  0  0  0  0  0  0  0
    1.3980   -3.0480   25.8710 C   0  0  0  0  0  0  0  0  0  0  0  0
    1.8900   -1.6260   25.8690 C   0  0  0  0  0  0  0  0  0  0  0  0
  1  2  1  0
  2  3  1  6
  1  4  1  0
  4  5  2  0
  6  4  1  6
  2  7  1  0
  6  8  1  0
  3  9  1  0
  7 10  1  0
  6 11  1  0
  9 12  1  0
  9 13  2  0
 10 14  1  0
  8 15  1  0
 11 16  2  0
 11 17  1  0
  8 18  1  0
 12 19  1  0
 15 20  1  0
 17 21  2  0
 16 22  1  0
 18 23  2  0
 18 24  1  0
 19 25  1  0
 21 26  1  0
 22 26  2  0
 23 27  1  0
 24 28  2  0
 29 20  1  6
 29 30  1  0
 27 31  2  0
 28 31  1  0
 29 32  1  0
 29 33  1  0
 31 34  1  0
 30 35  2  3
 32 36  1  0
 37 33  1  6
 34 38  1  0
 34 39  1  0
 34 40  1  0
 37 41  1  0
 36 42  1  0
 37 42  1  0
 41 43  1  1
 41 44  1  0
 42 45  1  0
 44 46  1  6
 44 47  1  0
 43 48  1  0
 45 49  2  0
 45 50  2  0
 45 51  1  0
 48 52  2  0
 48 53  1  0
 51 54  2  0
 51 55  1  0
 54 56  1  0
 55 57  1  0
 55 58  2  0
 54 59  1  0
 58 60  1  0
 59 60  2  0
M  END
