x0978-x3110-x1077
     RDKit          3D

 52 54  0  0  0  0  0  0  0  0999 V2000
    8.0810    1.3510   23.3430 N   0  0  0  0  0  0  0  0  0  0  0  0
    8.8060    2.4980   23.8510 C   0  0  0  0  0  0  0  0  0  0  0  0
   10.2940    2.3100   23.6270 C   0  0  0  0  0  0  0  0  0  0  0  0
    7.9460    0.9490   21.9550 C   0  0  0  0  0  0  0  0  0  0  0  0
    8.6560    1.4070   21.0490 O   0  0  0  0  0  0  0  0  0  0  0  0
    6.8850    0.0240   21.7860 C   0  0  2  0  0  0  0  0  0  0  0  0
    7.2000   -1.4120   22.0500 N   0  0  0  0  0  0  0  0  0  0  0  0
   11.2190    3.4820   23.4570 C   0  0  0  0  0  0  0  0  0  0  0  0
    6.2330    0.3710   20.4800 C   0  0  0  0  0  0  0  0  0  0  0  0
   11.9890    3.3050   22.5230 O   0  0  0  0  0  0  0  0  0  0  0  0
   11.1840    4.4780   24.1660 O   0  0  0  0  0  0  0  0  0  0  0  0
    6.2170   -2.1690   22.7820 C   0  0  0  0  0  0  0  0  0  0  0  0
    4.9980    1.2070   20.3730 C   0  0  0  0  0  0  0  0  0  0  0  0
    6.9130   -0.1560   19.2030 C   0  0  0  0  0  0  0  0  0  0  0  0
    8.4590   -1.5360   22.6600 C   0  0  0  0  0  0  0  0  0  0  0  0
   12.3440    4.4680   21.9270 C   0  0  0  0  0  0  0  0  0  0  0  0
    5.5450   -3.1630   22.0800 C   0  0  0  0  0  0  0  0  0  0  0  0
    6.3500    0.1770   17.8970 N   0  0  0  0  0  0  0  0  0  0  0  0
    4.4950    1.4930   18.9830 C   0  0  0  0  0  0  0  0  0  0  0  0
    9.5760   -1.5080   21.8500 C   0  0  0  0  0  0  0  0  0  0  0  0
    8.5790   -1.6720   24.0300 C   0  0  0  0  0  0  0  0  0  0  0  0
   13.3900    5.1770   22.7710 C   0  0  0  0  0  0  0  0  0  0  0  0
    6.1340   -4.4220   21.6840 C   0  0  1  0  0  0  0  0  0  0  0  0
    5.2330    0.9460   17.8940 C   0  0  0  0  0  0  0  0  0  0  0  0
   10.8900   -1.6070   22.3090 C   0  0  0  0  0  0  0  0  0  0  0  0
    9.9180   -1.7900   24.6670 C   0  0  0  0  0  0  0  0  0  0  0  0
    5.0800   -5.3140   21.7230 N   0  0  0  0  0  0  0  0  0  0  0  0
    6.6200   -4.1790   20.1500 C   0  0  0  0  0  0  0  0  0  0  0  0
   11.1720   -1.7580   23.8260 C   0  0  0  0  0  0  0  0  0  0  0  0
    7.1900   -5.1860   22.5780 C   0  0  0  0  0  0  0  0  0  0  0  0
   12.5300   -1.8230   24.2980 C   0  0  0  0  0  0  0  0  0  0  0  0
    4.4170   -5.4020   23.0580 C   0  0  0  0  0  0  0  0  0  0  0  0
    5.6050   -3.4570   19.2530 C   0  0  0  0  0  0  0  0  0  0  0  0
    7.7130   -4.8100   23.9860 C   0  0  1  0  0  0  0  0  0  0  0  0
   12.7150   -0.6100   25.1470 C   0  0  0  0  0  0  0  0  0  0  0  0
   13.4450   -2.0180   23.0620 C   0  0  0  0  0  0  0  0  0  0  0  0
   12.7260   -2.8390   25.0850 C   0  0  0  0  0  0  0  0  0  0  0  0
    3.1940   -6.3600   23.2710 C   0  0  2  0  0  0  0  0  0  0  0  0
    4.8170   -4.7090   23.9870 O   0  0  0  0  0  0  0  0  0  0  0  0
    7.0000   -5.5650   24.9830 O   0  0  0  0  0  0  0  0  0  0  0  0
    9.0110   -5.2590   23.9990 C   0  0  0  0  0  0  0  0  0  0  0  0
    1.9360   -5.6010   23.2790 N   0  0  0  0  0  0  0  0  0  0  0  0
    3.2750   -7.2870   24.3610 C   0  0  1  0  0  0  0  0  0  0  0  0
    9.8120   -5.0800   25.1150 C   0  0  0  0  0  0  0  0  0  0  0  0
    7.0250   -5.0070   26.3170 C   0  0  0  0  0  0  0  0  0  0  0  0
    2.1870   -8.1200   24.6070 C   0  0  0  0  0  0  0  0  0  0  0  0
    4.4690   -7.9110   24.2250 O   0  0  0  0  0  0  0  0  0  0  0  0
    0.8550   -6.2100   22.5720 C   0  0  0  0  0  0  0  0  0  0  0  0
    9.2620   -4.0990   26.0390 N   0  0  0  0  0  0  0  0  0  0  0  0
    8.4010   -4.6350   26.9210 C   0  0  0  0  0  0  0  0  0  0  0  0
    0.8650   -7.3290   21.8960 O   0  0  0  0  0  0  0  0  0  0  0  0
   -0.3580   -5.5160   22.6130 C   0  0  0  0  0  0  0  0  0  0  0  0
  1  2  1  0
  2  3  1  0
  1  4  1  0
  4  5  2  0
  6  4  1  6
  6  7  1  0
  3  8  1  0
  6  9  1  0
  8 10  1  0
  8 11  2  0
  7 12  1  0
  9 13  2  0
  9 14  1  0
  7 15  1  0
 10 16  1  0
 12 17  1  0
 14 18  2  0
 13 19  1  0
 15 20  2  0
 15 21  1  0
 16 22  1  0
 23 17  1  1
 18 24  1  0
 19 24  2  0
 20 25  1  0
 21 26  2  0
 23 27  1  0
 23 28  1  0
 25 29  2  0
 26 29  1  0
 23 30  1  0
 29 31  1  0
 27 32  1  0
 28 33  2  3
 34 30  1  6
 31 35  1  0
 31 36  1  0
 31 37  1  0
 32 38  1  0
 32 39  2  0
 34 40  1  0
 34 41  1  0
 38 42  1  1
 38 43  1  0
 41 44  1  0
 40 45  1  0
 43 46  1  6
 43 47  1  0
 42 48  1  0
 44 49  1  0
 45 50  1  0
 49 50  1  0
 48 51  2  0
 48 52  1  0
M  END
