x0978-x3115
     RDKit          3D

 41 42  0  0  0  0  0  0  0  0999 V2000
    2.0970   -5.6610   23.2070 N   0  0  0  0  0  0  0  0  0  0  0  0
    3.2600   -6.4350   23.2160 C   0  0  2  0  0  0  0  0  0  0  0  0
    3.3760   -7.3230   24.4720 C   0  0  1  0  0  0  0  0  0  0  0  0
    0.8560   -6.2120   22.5820 C   0  0  0  0  0  0  0  0  0  0  0  0
    0.8310   -7.2700   21.9620 O   0  0  0  0  0  0  0  0  0  0  0  0
   -0.4380   -5.3590   22.7550 C   0  0  0  0  0  0  0  0  0  0  0  0
    4.4770   -5.4600   23.0120 C   0  0  0  0  0  0  0  0  0  0  0  0
    2.0770   -8.1600   24.6280 C   0  0  0  0  0  0  0  0  0  0  0  0
    4.4380   -7.9120   24.3630 O   0  0  0  0  0  0  0  0  0  0  0  0
    5.2660   -5.6460   21.7620 N   0  0  0  0  0  0  0  0  0  0  0  0
    4.7780   -4.4810   23.9870 O   0  0  0  0  0  0  0  0  0  0  0  0
    6.2950   -4.6080   21.4600 C   0  0  1  0  0  0  0  0  0  0  0  0
    6.4500   -4.3360   19.9630 C   0  0  0  0  0  0  0  0  0  0  0  0
    5.8660   -3.2830   22.1990 C   0  0  0  0  0  0  0  0  0  0  0  0
    5.3630   -3.5080   19.3260 C   0  0  0  0  0  0  0  0  0  0  0  0
    6.1550   -2.1540   21.5210 C   0  0  0  0  0  0  0  0  0  0  0  0
    6.9310   -1.1780   22.2650 N   0  0  0  0  0  0  0  0  0  0  0  0
    6.7320    0.2360   21.8840 C   0  0  1  0  0  0  0  0  0  0  0  0
    8.3230   -1.3890   22.6750 C   0  0  0  0  0  0  0  0  0  0  0  0
    7.7730    1.1750   22.0360 C   0  0  0  0  0  0  0  0  0  0  0  0
    6.2490    0.4910   20.4590 C   0  0  0  0  0  0  0  0  0  0  0  0
    9.2890   -1.7520   21.7550 C   0  0  0  0  0  0  0  0  0  0  0  0
    8.7360   -1.2160   23.9710 C   0  0  0  0  0  0  0  0  0  0  0  0
    7.8230    1.7600   23.3640 N   0  0  0  0  0  0  0  0  0  0  0  0
    8.6020    1.4430   20.9200 O   0  0  0  0  0  0  0  0  0  0  0  0
    5.0440    1.4000   20.2330 C   0  0  0  0  0  0  0  0  0  0  0  0
    6.8840   -0.0750   19.3490 C   0  0  0  0  0  0  0  0  0  0  0  0
   10.6110   -1.9030   22.1610 C   0  0  0  0  0  0  0  0  0  0  0  0
   10.1530   -1.3530   24.5320 C   0  0  0  0  0  0  0  0  0  0  0  0
    8.6670    2.9730   23.4580 C   0  0  0  0  0  0  0  0  0  0  0  0
    6.3770    0.2340   18.0080 N   0  0  0  0  0  0  0  0  0  0  0  0
    4.5940    1.6660   18.9550 C   0  0  0  0  0  0  0  0  0  0  0  0
   11.1250   -1.6970   23.6000 C   0  0  0  0  0  0  0  0  0  0  0  0
    8.1050    3.9650   22.6430 C   0  0  0  0  0  0  0  0  0  0  0  0
   12.5420   -1.8020   24.0870 C   0  0  0  0  0  0  0  0  0  0  0  0
    5.2220    1.1190   17.8420 C   0  0  0  0  0  0  0  0  0  0  0  0
    8.6490    5.2420   23.0210 O   0  0  0  0  0  0  0  0  0  0  0  0
   13.3670   -2.0520   23.0030 C   0  0  0  0  0  0  0  0  0  0  0  0
   12.7840   -2.9770   25.0250 C   0  0  0  0  0  0  0  0  0  0  0  0
   12.7870   -0.6770   24.7620 C   0  0  0  0  0  0  0  0  0  0  0  0
    8.2200    6.3190   22.1850 C   0  0  0  0  0  0  0  0  0  0  0  0
  2  1  1  1
  2  3  1  0
  1  4  1  0
  4  5  2  0
  4  6  1  0
  2  7  1  0
  3  8  1  6
  3  9  1  0
  7 10  1  0
  7 11  2  0
 10 12  1  0
 12 13  1  6
 12 14  1  0
 13 15  2  3
 14 16  1  0
 16 17  1  0
 17 18  1  0
 17 19  1  0
 18 20  1  6
 18 21  1  0
 19 22  2  0
 19 23  1  0
 20 24  1  0
 20 25  2  0
 21 26  2  0
 21 27  1  0
 22 28  1  0
 23 29  2  0
 24 30  1  0
 27 31  2  0
 26 32  1  0
 28 33  2  0
 29 33  1  0
 30 34  1  0
 33 35  1  0
 31 36  1  0
 32 36  2  0
 34 37  1  0
 35 38  1  0
 35 39  1  0
 35 40  1  0
 37 41  1  0
M  END
