x0978-x3117-x0540-x1458-x3110
     RDKit          3D

 72 77  0  0  0  0  0  0  0  0999 V2000
    7.8760    1.5690   23.2460 N   0  0  0  0  0  0  0  0  0  0  0  0
    7.8430    1.0280   21.9480 C   0  0  0  0  0  0  0  0  0  0  0  0
    8.5720    1.3980   21.0290 O   0  0  0  0  0  0  0  0  0  0  0  0
    8.4800    2.8380   23.6660 C   0  0  1  0  0  0  0  0  0  0  0  0
    6.8740    0.0160   21.6820 C   0  0  2  0  0  0  0  0  0  0  0  0
    9.7850    2.6650   24.0700 C   0  0  1  0  0  0  0  0  0  0  0  0
    8.2710    3.8970   22.7720 C   0  0  0  0  0  0  0  0  0  0  0  0
    7.3440   -1.2760   21.7550 N   0  0  0  0  0  0  0  0  0  0  0  0
   10.4490    1.4040   23.5710 C   0  0  0  0  0  0  0  0  0  0  0  0
    6.2510    0.3430   20.3580 C   0  0  0  0  0  0  0  0  0  0  0  0
   10.7560    3.7130   23.8490 C   0  0  1  0  0  0  0  0  0  0  0  0
    8.8710    5.1040   23.0690 C   0  0  0  0  0  0  0  0  0  0  0  0
   11.9040    3.1090   22.9970 C   0  0  1  0  0  0  0  0  0  0  0  0
    6.3860   -2.3270   21.7670 C   0  0  0  0  0  0  0  0  0  0  0  0
    5.0160    0.9220   20.3360 C   0  0  0  0  0  0  0  0  0  0  0  0
    6.9190    0.0780   19.0210 C   0  0  0  0  0  0  0  0  0  0  0  0
    8.5370   -1.4760   22.3830 C   0  0  0  0  0  0  0  0  0  0  0  0
   10.2740    4.9280   23.2210 O   0  0  0  0  0  0  0  0  0  0  0  0
   11.6030    1.6580   22.9800 C   0  0  0  0  0  0  0  0  0  0  0  0
   11.9260    3.6020   21.7660 O   0  0  0  0  0  0  0  0  0  0  0  0
    4.2170    1.2130   21.5730 C   0  0  0  0  0  0  0  0  0  0  0  0
    6.3810    0.4090   17.8340 N   0  0  0  0  0  0  0  0  0  0  0  0
    4.4350    1.2840   18.9790 C   0  0  0  0  0  0  0  0  0  0  0  0
    9.6850   -1.2340   21.7000 C   0  0  0  0  0  0  0  0  0  0  0  0
    8.5810   -1.9600   23.8210 C   0  0  0  0  0  0  0  0  0  0  0  0
    6.9310   -3.7630   21.3520 C   0  0  1  0  0  0  0  0  0  0  0  0
   12.6630    4.8230   21.6130 C   0  0  0  0  0  0  0  0  0  0  0  0
    4.9810    2.1190   22.4170 C   0  0  0  0  0  0  0  0  0  0  0  0
    6.9500   -3.6730   19.8380 C   0  0  0  0  0  0  0  0  0  0  0  0
    5.1740    1.0020   17.8430 C   0  0  0  0  0  0  0  0  0  0  0  0
   11.0520   -1.4200   22.3060 C   0  0  0  0  0  0  0  0  0  0  0  0
    9.9030   -2.1890   24.5230 C   0  0  0  0  0  0  0  0  0  0  0  0
    8.2200   -4.2080   22.1070 C   0  0  0  0  0  0  0  0  0  0  0  0
    5.9460   -4.9460   21.5870 C   0  0  0  0  0  0  0  0  0  0  0  0
   13.3620    5.2670   22.8930 C   0  0  0  0  0  0  0  0  0  0  0  0
    4.0470    2.9400   23.1570 N   0  0  0  0  0  0  0  0  0  0  0  0
    5.6630   -3.3150   19.1160 C   0  0  0  0  0  0  0  0  0  0  0  0
   11.1750   -1.8970   23.7390 C   0  0  0  0  0  0  0  0  0  0  0  0
    8.0440   -4.4190   23.6180 C   0  0  0  0  0  0  0  0  0  0  0  0
    6.1290   -5.5550   22.9580 C   0  0  2  0  0  0  0  0  0  0  0  0
   12.5700   -2.0120   24.2750 C   0  0  0  0  0  0  0  0  0  0  0  0
    2.8650    2.3550   23.6400 C   0  0  0  0  0  0  0  0  0  0  0  0
    4.9830   -6.3370   23.2600 N   0  0  0  0  0  0  0  0  0  0  0  0
    6.5640   -4.4200   23.8930 C   0  0  1  0  0  0  0  0  0  0  0  0
   12.8610   -0.6700   24.9130 C   0  0  0  0  0  0  0  0  0  0  0  0
   13.4920   -2.2380   23.0980 C   0  0  0  0  0  0  0  0  0  0  0  0
   12.8710   -3.0490   25.3400 C   0  0  0  0  0  0  0  0  0  0  0  0
    3.0120    1.5260   24.5470 O   0  0  0  0  0  0  0  0  0  0  0  0
    1.6230    2.6560   23.1170 N   0  0  0  0  0  0  0  0  0  0  0  0
    3.8120   -5.7350   23.2800 C   0  0  0  0  0  0  0  0  0  0  0  0
    6.1090   -4.2870   25.3540 C   0  0  0  0  0  0  0  0  0  0  0  0
    2.7710   -6.5910   23.5600 C   0  0  2  0  0  0  0  0  0  0  0  0
    3.6620   -4.5240   23.0790 O   0  0  0  0  0  0  0  0  0  0  0  0
    7.0040   -3.9500   26.3590 N   0  0  0  0  0  0  0  0  0  0  0  0
    4.9160   -4.4140   25.6330 O   0  0  0  0  0  0  0  0  0  0  0  0
    0.5410    3.0960   23.9740 C   0  0  0  0  0  0  0  0  0  0  0  0
    1.6050   -5.7110   23.4450 N   0  0  0  0  0  0  0  0  0  0  0  0
    2.8350   -7.4340   24.6630 C   0  0  1  0  0  0  0  0  0  0  0  0
    7.6130   -5.0080   26.9580 C   0  0  0  0  0  0  0  0  0  0  0  0
    6.6370   -2.8320   27.2160 C   0  0  0  0  0  0  0  0  0  0  0  0
    0.6860    4.5700   24.3670 C   0  0  0  0  0  0  0  0  0  0  0  0
   -0.7920    2.8410   23.2670 C   0  0  0  0  0  0  0  0  0  0  0  0
    1.9810   -8.5240   24.7350 C   0  0  0  0  0  0  0  0  0  0  0  0
    4.1150   -7.9030   24.7870 O   0  0  0  0  0  0  0  0  0  0  0  0
    0.6180   -6.1330   22.6150 C   0  0  0  0  0  0  0  0  0  0  0  0
    9.0950   -4.7560   27.3230 C   0  0  0  0  0  0  0  0  0  0  0  0
    7.0710   -5.6960   28.0880 C   0  0  0  0  0  0  0  0  0  0  0  0
   -0.6210    5.0930   25.0640 C   0  0  0  0  0  0  0  0  0  0  0  0
   -1.9730    3.3980   24.0540 C   0  0  0  0  0  0  0  0  0  0  0  0
    0.7440   -7.1390   21.9260 O   0  0  0  0  0  0  0  0  0  0  0  0
   -0.5720   -5.4050   22.5460 C   0  0  0  0  0  0  0  0  0  0  0  0
   -1.8660    4.7330   24.2530 C   0  0  0  0  0  0  0  0  0  0  0  0
  1  2  1  0
  2  3  2  0
  4  1  1  6
  5  2  1  6
  4  6  1  0
  4  7  1  0
  5  8  1  0
  6  9  1  6
  5 10  1  0
  6 11  1  0
  7 12  1  0
 11 13  1  0
  8 14  1  0
 10 15  1  0
 10 16  2  0
  8 17  1  0
 11 18  1  6
 12 18  1  0
  9 19  2  0
 13 19  1  0
 13 20  1  6
 15 21  1  0
 16 22  1  0
 15 23  2  0
 17 24  2  0
 17 25  1  0
 26 14  1  1
 20 27  1  0
 21 28  1  0
 26 29  1  0
 22 30  2  0
 23 30  1  0
 24 31  1  0
 25 32  2  0
 26 33  1  0
 26 34  1  0
 27 35  1  0
 28 36  1  0
 29 37  2  3
 31 38  2  0
 32 38  1  0
 33 39  1  0
 34 40  1  0
 38 41  1  0
 36 42  1  0
 40 43  1  1
 39 44  1  0
 40 44  1  0
 41 45  1  0
 41 46  1  0
 41 47  1  0
 42 48  2  0
 42 49  1  0
 43 50  1  0
 44 51  1  1
 50 52  1  0
 50 53  2  0
 51 54  1  0
 51 55  2  0
 49 56  1  0
 52 57  1  1
 52 58  1  0
 54 59  1  0
 54 60  1  0
 56 61  1  0
 56 62  1  0
 58 63  1  6
 58 64  1  0
 57 65  1  0
 59 66  1  0
 59 67  1  0
 61 68  1  0
 62 69  1  0
 65 70  2  0
 65 71  1  0
 68 72  1  0
 69 72  1  0
M  END
