x0978-x3110-x0540-x0946
     RDKit          3D

 62 65  0  0  0  0  0  0  0  0999 V2000
    8.0340    1.3190   23.3490 N   0  0  0  0  0  0  0  0  0  0  0  0
    8.7040    2.4590   23.7340 C   0  0  0  0  0  0  0  0  0  0  0  0
   10.1980    2.4500   23.4300 C   0  0  0  0  0  0  0  0  0  0  0  0
    7.9250    0.9820   21.9230 C   0  0  0  0  0  0  0  0  0  0  0  0
    8.6560    1.4880   21.0560 O   0  0  0  0  0  0  0  0  0  0  0  0
    6.8720    0.0460   21.6710 C   0  0  2  0  0  0  0  0  0  0  0  0
    7.1210   -1.2740   21.8930 N   0  0  0  0  0  0  0  0  0  0  0  0
    6.2550    0.4190   20.3310 C   0  0  0  0  0  0  0  0  0  0  0  0
   10.9690    3.6260   23.3840 C   0  0  0  0  0  0  0  0  0  0  0  0
   10.7530    1.1990   23.1890 C   0  0  0  0  0  0  0  0  0  0  0  0
   10.4290    5.0460   23.6590 C   0  0  0  0  0  0  0  0  0  0  0  0
    6.0640   -2.1880   21.5220 C   0  0  0  0  0  0  0  0  0  0  0  0
    4.8980    1.0460   20.3270 C   0  0  0  0  0  0  0  0  0  0  0  0
    6.8780    0.2110   19.1160 C   0  0  0  0  0  0  0  0  0  0  0  0
    8.3630   -1.4980   22.4950 C   0  0  0  0  0  0  0  0  0  0  0  0
   12.0840    1.0270   22.8840 C   0  0  0  0  0  0  0  0  0  0  0  0
   12.4270    3.5150   23.0450 C   0  0  0  0  0  0  0  0  0  0  0  0
   13.2910    4.7490   22.9650 C   0  0  0  0  0  0  0  0  0  0  0  0
    4.1390    1.2720   21.5650 C   0  0  0  0  0  0  0  0  0  0  0  0
    9.0190    5.1660   23.7620 N   0  0  0  0  0  0  0  0  0  0  0  0
   10.7710    5.9750   22.6920 O   0  0  0  0  0  0  0  0  0  0  0  0
   11.0210    5.7060   24.7690 O   0  0  0  0  0  0  0  0  0  0  0  0
    5.7510   -3.3220   22.2390 C   0  0  0  0  0  0  0  0  0  0  0  0
    6.4040    0.5420   17.8860 N   0  0  0  0  0  0  0  0  0  0  0  0
    4.3550    1.4230   19.0030 C   0  0  0  0  0  0  0  0  0  0  0  0
    9.3730   -1.8800   21.6790 C   0  0  0  0  0  0  0  0  0  0  0  0
    8.6240   -1.2910   23.9830 C   0  0  0  0  0  0  0  0  0  0  0  0
   12.9720    2.2680   22.8070 C   0  0  0  0  0  0  0  0  0  0  0  0
   13.2310    5.3620   21.7370 C   0  0  0  0  0  0  0  0  0  0  0  0
    4.8700    2.0010   22.4980 C   0  0  0  0  0  0  0  0  0  0  0  0
    6.3360   -4.5330   21.8130 C   0  0  1  0  0  0  0  0  0  0  0  0
    5.2030    1.1320   17.8150 C   0  0  0  0  0  0  0  0  0  0  0  0
   10.7810   -2.0740   22.1800 C   0  0  0  0  0  0  0  0  0  0  0  0
   10.0480   -1.4820   24.4750 C   0  0  0  0  0  0  0  0  0  0  0  0
    4.0230    3.0250   23.0920 N   0  0  0  0  0  0  0  0  0  0  0  0
    5.5010   -5.6100   22.4320 N   0  0  0  0  0  0  0  0  0  0  0  0
    6.4230   -4.7900   20.2870 C   0  0  0  0  0  0  0  0  0  0  0  0
   11.1000   -1.8420   23.6440 C   0  0  0  0  0  0  0  0  0  0  0  0
   12.5160   -1.9600   24.1690 C   0  0  0  0  0  0  0  0  0  0  0  0
    2.8450    2.5930   23.5700 C   0  0  0  0  0  0  0  0  0  0  0  0
    4.4260   -5.3580   23.2410 C   0  0  0  0  0  0  0  0  0  0  0  0
    5.6960   -6.0660   19.8870 C   0  0  0  0  0  0  0  0  0  0  0  0
   12.8250   -0.6860   24.9210 C   0  0  0  0  0  0  0  0  0  0  0  0
   13.4970   -2.1400   23.0300 C   0  0  0  0  0  0  0  0  0  0  0  0
   12.7890   -3.0970   25.1110 C   0  0  0  0  0  0  0  0  0  0  0  0
    2.7300    1.6160   24.5370 O   0  0  0  0  0  0  0  0  0  0  0  0
    1.7570    3.3170   22.8980 N   0  0  0  0  0  0  0  0  0  0  0  0
    3.3220   -6.3840   23.3100 C   0  0  2  0  0  0  0  0  0  0  0  0
    4.3400   -4.3390   23.9060 O   0  0  0  0  0  0  0  0  0  0  0  0
    2.0890   -5.5800   23.2290 N   0  0  0  0  0  0  0  0  0  0  0  0
    3.1840   -7.3060   24.5210 C   0  0  1  0  0  0  0  0  0  0  0  0
    0.5050    3.6840   23.4010 C   0  0  0  0  0  0  0  0  0  0  0  0
    2.2070   -8.2890   24.5570 C   0  0  0  0  0  0  0  0  0  0  0  0
    4.3170   -7.8930   24.7760 O   0  0  0  0  0  0  0  0  0  0  0  0
    0.9130   -6.2260   22.5840 C   0  0  0  0  0  0  0  0  0  0  0  0
    0.5320    4.5270   24.6860 C   0  0  0  0  0  0  0  0  0  0  0  0
   -0.5400    2.7600   23.4180 C   0  0  0  0  0  0  0  0  0  0  0  0
    0.9450   -7.2990   21.9830 O   0  0  0  0  0  0  0  0  0  0  0  0
   -0.2570   -5.4960   22.7160 C   0  0  0  0  0  0  0  0  0  0  0  0
   -0.7190    4.9040   25.1510 C   0  0  0  0  0  0  0  0  0  0  0  0
   -1.7800    3.2110   23.8660 C   0  0  0  0  0  0  0  0  0  0  0  0
   -1.8270    4.4860   24.4190 C   0  0  0  0  0  0  0  0  0  0  0  0
  1  2  1  0
  2  3  1  0
  1  4  1  0
  4  5  2  0
  6  4  1  6
  6  7  1  0
  6  8  1  0
  3  9  2  0
  3 10  1  0
  9 11  1  0
  7 12  1  0
  8 13  1  0
  8 14  2  0
  7 15  1  0
 10 16  2  0
  9 17  1  0
 17 18  1  0
 13 19  1  0
 11 20  1  0
 11 21  1  0
 11 22  1  0
 12 23  1  0
 14 24  1  0
 13 25  2  0
 15 26  2  0
 15 27  1  0
 16 28  1  0
 17 28  2  0
 18 29  1  0
 19 30  1  0
 31 23  1  6
 24 32  2  0
 25 32  1  0
 26 33  1  0
 27 34  2  0
 30 35  1  0
 31 36  1  0
 31 37  1  0
 33 38  2  0
 34 38  1  0
 38 39  1  0
 35 40  1  0
 36 41  1  0
 37 42  2  3
 39 43  1  0
 39 44  1  0
 39 45  1  0
 40 46  2  0
 40 47  1  0
 41 48  1  0
 41 49  2  0
 48 50  1  1
 48 51  1  0
 47 52  1  0
 51 53  1  6
 51 54  1  0
 50 55  1  0
 52 56  1  0
 52 57  1  0
 55 58  2  0
 55 59  1  0
 56 60  1  0
 57 61  1  0
 60 62  1  0
 61 62  1  0
M  END
