x0978-x3110-x0946-x0769
     RDKit          3D

 63 67  0  0  0  0  0  0  0  0999 V2000
    8.0380    1.3470   23.4210 N   0  0  0  0  0  0  0  0  0  0  0  0
    8.6550    2.5670   24.0020 C   0  0  0  0  0  0  0  0  0  0  0  0
   10.1150    2.6050   23.6210 C   0  0  0  0  0  0  0  0  0  0  0  0
    7.9200    1.0580   21.9890 C   0  0  0  0  0  0  0  0  0  0  0  0
    8.6740    1.5680   21.1310 O   0  0  0  0  0  0  0  0  0  0  0  0
    6.7620    0.0910   21.6760 C   0  0  2  0  0  0  0  0  0  0  0  0
    7.1690   -1.2210   21.9000 N   0  0  0  0  0  0  0  0  0  0  0  0
    6.2400    0.3980   20.2550 C   0  0  0  0  0  0  0  0  0  0  0  0
   10.9440    3.7150   23.4980 C   0  0  0  0  0  0  0  0  0  0  0  0
   10.7680    1.2440   23.3270 C   0  0  0  0  0  0  0  0  0  0  0  0
   10.4060    5.1390   23.7480 C   0  0  0  0  0  0  0  0  0  0  0  0
    6.0880   -2.0730   22.3280 C   0  0  0  0  0  0  0  0  0  0  0  0
    5.1390    1.2450   20.2440 C   0  0  0  0  0  0  0  0  0  0  0  0
    6.8660   -0.1380   19.1390 C   0  0  0  0  0  0  0  0  0  0  0  0
    8.4460   -1.4080   22.5270 C   0  0  0  0  0  0  0  0  0  0  0  0
   12.0960    1.1390   22.9620 C   0  0  0  0  0  0  0  0  0  0  0  0
   12.2630    3.5560   23.1440 C   0  0  0  0  0  0  0  0  0  0  0  0
   13.2190    4.6960   23.0200 C   0  0  0  0  0  0  0  0  0  0  0  0
    9.3140    5.4050   23.0010 N   0  0  0  0  0  0  0  0  0  0  0  0
   10.0890    5.4420   24.8880 O   0  0  0  0  0  0  0  0  0  0  0  0
   11.3180    6.1760   23.4270 O   0  0  0  0  0  0  0  0  0  0  0  0
    5.6160   -3.1330   21.5300 C   0  0  0  0  0  0  0  0  0  0  0  0
    6.3660    0.1990   17.9200 N   0  0  0  0  0  0  0  0  0  0  0  0
    4.6370    1.5800   19.0010 C   0  0  0  0  0  0  0  0  0  0  0  0
    9.5260   -1.5630   21.7150 C   0  0  0  0  0  0  0  0  0  0  0  0
    8.6510   -1.4280   23.9000 C   0  0  0  0  0  0  0  0  0  0  0  0
   12.8330    2.2950   22.8770 C   0  0  0  0  0  0  0  0  0  0  0  0
   13.1280    5.3490   21.6550 C   0  0  0  0  0  0  0  0  0  0  0  0
    5.2690    1.0480   17.8800 C   0  0  0  0  0  0  0  0  0  0  0  0
   10.8940   -1.7430   22.2530 C   0  0  0  0  0  0  0  0  0  0  0  0
    9.9590   -1.5930   24.4030 C   0  0  0  0  0  0  0  0  0  0  0  0
    6.2490   -4.5790   21.7340 C   0  0  2  0  0  0  0  0  0  0  0  0
    6.7960   -5.1280   20.3960 C   0  0  0  0  0  0  0  0  0  0  0  0
   11.0690   -1.7490   23.5680 C   0  0  0  0  0  0  0  0  0  0  0  0
    5.2760   -5.7210   22.1710 C   0  0  0  0  0  0  0  0  0  0  0  0
    7.2690   -4.6340   22.8730 C   0  0  0  0  0  0  0  0  0  0  0  0
   12.4400   -1.9040   24.1810 C   0  0  0  0  0  0  0  0  0  0  0  0
    5.7650   -6.0870   19.7910 C   0  0  0  0  0  0  0  0  0  0  0  0
    4.3960   -5.3790   23.3980 C   0  0  2  0  0  0  0  0  0  0  0  0
    6.6930   -4.7020   24.2920 C   0  0  0  0  0  0  0  0  0  0  0  0
   12.7280   -0.7300   24.8710 C   0  0  0  0  0  0  0  0  0  0  0  0
   13.4420   -2.0870   23.0440 C   0  0  0  0  0  0  0  0  0  0  0  0
   12.6500   -2.9830   24.9750 C   0  0  0  0  0  0  0  0  0  0  0  0
    3.1090   -6.3420   23.3910 C   0  0  2  0  0  0  0  0  0  0  0  0
    3.9940   -4.0270   23.2930 O   0  0  0  0  0  0  0  0  0  0  0  0
    5.3710   -5.4310   24.5550 N   0  0  0  0  0  0  0  0  0  0  0  0
    1.9900   -5.5670   23.3790 N   0  0  0  0  0  0  0  0  0  0  0  0
    3.1140   -7.3720   24.3240 C   0  0  1  0  0  0  0  0  0  0  0  0
    4.8400   -5.1670   26.1140 S   0  0  0  0  0  0  0  0  0  0  0  0
    2.1460   -8.3450   24.2260 C   0  0  0  0  0  0  0  0  0  0  0  0
    4.2090   -7.9240   24.3730 O   0  0  0  0  0  0  0  0  0  0  0  0
    0.8550   -6.1830   22.6080 C   0  0  0  0  0  0  0  0  0  0  0  0
    5.9270   -4.7630   26.9480 O   0  0  0  0  0  0  0  0  0  0  0  0
    4.0360   -6.2750   26.5600 O   0  0  0  0  0  0  0  0  0  0  0  0
    3.7280   -3.7810   26.0380 C   0  0  0  0  0  0  0  0  0  0  0  0
    0.9360   -7.2240   21.9640 O   0  0  0  0  0  0  0  0  0  0  0  0
   -0.3480   -5.4770   22.6670 C   0  0  0  0  0  0  0  0  0  0  0  0
    4.2150   -2.4870   26.1460 C   0  0  0  0  0  0  0  0  0  0  0  0
    2.2170   -3.9700   25.8630 C   0  0  0  0  0  0  0  0  0  0  0  0
    5.5240   -2.2410   26.3060 F   0  0  0  0  0  0  0  0  0  0  0  0
    1.4030   -2.8450   25.8200 C   0  0  0  0  0  0  0  0  0  0  0  0
    3.3470   -1.3960   26.0950 C   0  0  0  0  0  0  0  0  0  0  0  0
    1.9750   -1.5730   25.9380 C   0  0  0  0  0  0  0  0  0  0  0  0
  1  2  1  0
  2  3  1  0
  1  4  1  0
  4  5  2  0
  6  4  1  6
  6  7  1  0
  6  8  1  0
  3  9  2  0
  3 10  1  0
  9 11  1  0
  7 12  1  0
  8 13  2  0
  8 14  1  0
  7 15  1  0
 10 16  2  0
  9 17  1  0
 17 18  1  0
 11 19  1  0
 11 20  1  0
 11 21  1  0
 12 22  1  0
 14 23  2  0
 13 24  1  0
 15 25  2  0
 15 26  1  0
 16 27  1  0
 17 27  2  0
 18 28  1  0
 23 29  1  0
 24 29  2  0
 25 30  1  0
 26 31  2  0
 32 22  1  6
 32 33  1  0
 30 34  2  0
 31 34  1  0
 32 35  1  0
 32 36  1  0
 34 37  1  0
 33 38  2  3
 35 39  1  0
 36 40  1  0
 37 41  1  0
 37 42  1  0
 37 43  1  0
 39 44  1  0
 39 45  1  6
 39 46  1  0
 40 46  1  0
 44 47  1  1
 44 48  1  0
 46 49  1  0
 48 50  1  6
 48 51  1  0
 47 52  1  0
 49 53  2  0
 49 54  2  0
 49 55  1  0
 52 56  2  0
 52 57  1  0
 55 58  2  0
 55 59  1  0
 58 60  1  0
 59 61  2  0
 58 62  1  0
 61 63  1  0
 62 63  2  0
M  END
