x0978-x0734-x3117
     RDKit          3D

 56 61  0  0  0  0  0  0  0  0999 V2000
    1.8340   -5.6900   23.0410 N   0  0  0  0  0  0  0  0  0  0  0  0
    3.0020   -6.5790   23.0520 C   0  0  2  0  0  0  0  0  0  0  0  0
    3.0370   -7.3520   24.3810 C   0  0  1  0  0  0  0  0  0  0  0  0
    0.6500   -6.1390   22.5160 C   0  0  0  0  0  0  0  0  0  0  0  0
    0.5840   -7.1950   21.8930 O   0  0  0  0  0  0  0  0  0  0  0  0
   -0.5560   -5.2750   22.7450 C   0  0  0  0  0  0  0  0  0  0  0  0
    4.3860   -5.9040   22.8280 C   0  0  0  0  0  0  0  0  0  0  0  0
    1.9100   -8.3490   24.6010 C   0  0  0  0  0  0  0  0  0  0  0  0
    4.2890   -8.0160   24.4590 O   0  0  0  0  0  0  0  0  0  0  0  0
    4.7960   -5.2600   21.6660 N   0  0  0  0  0  0  0  0  0  0  0  0
    5.3480   -5.9850   23.8960 N   0  0  0  0  0  0  0  0  0  0  0  0
    6.1400   -5.0410   21.9480 C   0  0  2  0  0  0  0  0  0  0  0  0
    6.4860   -5.3830   23.4000 C   0  0  1  0  0  0  0  0  0  0  0  0
    6.7270   -3.8430   21.4680 C   0  0  1  0  0  0  0  0  0  0  0  0
    7.0070   -4.3570   24.2380 N   0  0  0  0  0  0  0  0  0  0  0  0
    6.7690   -3.8400   19.9220 C   0  0  0  0  0  0  0  0  0  0  0  0
    6.1780   -2.3700   21.8160 C   0  0  0  0  0  0  0  0  0  0  0  0
    7.4190   -4.8700   25.5120 C   0  0  0  0  0  0  0  0  0  0  0  0
    7.9730   -3.5100   23.5730 C   0  0  0  0  0  0  0  0  0  0  0  0
    8.1100   -4.0200   22.1310 C   0  0  0  0  0  0  0  0  0  0  0  0
    5.5230   -3.3550   19.1920 C   0  0  0  0  0  0  0  0  0  0  0  0
    7.1830   -1.2120   21.7190 N   0  0  0  0  0  0  0  0  0  0  0  0
    6.5790   -5.0280   26.6330 C   0  0  0  0  0  0  0  0  0  0  0  0
    8.7820   -5.2240   25.5630 C   0  0  0  0  0  0  0  0  0  0  0  0
    6.7610    0.1840   21.6660 C   0  0  1  0  0  0  0  0  0  0  0  0
    5.2960   -4.6650   26.4690 N   0  0  0  0  0  0  0  0  0  0  0  0
    8.4120   -1.3740   22.4350 C   0  0  0  0  0  0  0  0  0  0  0  0
    9.2550   -5.7170   26.7350 C   0  0  0  0  0  0  0  0  0  0  0  0
    7.0520   -5.5270   27.8260 C   0  0  0  0  0  0  0  0  0  0  0  0
    7.7620    1.1770   21.8590 C   0  0  0  0  0  0  0  0  0  0  0  0
    4.5170   -5.5510   26.0950 O   0  0  0  0  0  0  0  0  0  0  0  0
    4.8820   -3.4730   27.0120 O   0  0  0  0  0  0  0  0  0  0  0  0
    6.1720    0.5530   20.3520 C   0  0  0  0  0  0  0  0  0  0  0  0
    9.5160   -1.9730   21.8330 C   0  0  0  0  0  0  0  0  0  0  0  0
    8.5200   -0.8970   23.8790 C   0  0  0  0  0  0  0  0  0  0  0  0
    8.4970   -5.8870   27.8520 C   0  0  0  0  0  0  0  0  0  0  0  0
    7.6540    2.1220   22.9770 N   0  0  0  0  0  0  0  0  0  0  0  0
    8.8390    1.2520   20.9330 O   0  0  0  0  0  0  0  0  0  0  0  0
    4.9300    1.4280   20.2450 C   0  0  0  0  0  0  0  0  0  0  0  0
    6.7550    0.1120   19.1770 C   0  0  0  0  0  0  0  0  0  0  0  0
   10.8180   -2.1730   22.6080 C   0  0  0  0  0  0  0  0  0  0  0  0
    9.8120   -1.1010   24.6240 C   0  0  0  0  0  0  0  0  0  0  0  0
    6.2720    0.4370   17.8350 N   0  0  0  0  0  0  0  0  0  0  0  0
    4.4400    1.7570   18.9700 C   0  0  0  0  0  0  0  0  0  0  0  0
    8.4310    3.2460   22.9300 C   0  0  0  0  0  0  0  0  0  0  0  0
   10.9560   -1.7740   23.9130 C   0  0  0  0  0  0  0  0  0  0  0  0
   12.2450   -2.0080   24.5580 C   0  0  0  0  0  0  0  0  0  0  0  0
    5.1770    1.2220   17.7670 C   0  0  0  0  0  0  0  0  0  0  0  0
    9.5880    2.8830   23.6190 C   0  0  0  0  0  0  0  0  0  0  0  0
    7.8580    4.4100   23.4570 C   0  0  0  0  0  0  0  0  0  0  0  0
   12.8550   -0.7040   25.0380 C   0  0  0  0  0  0  0  0  0  0  0  0
   13.3620   -1.6250   23.6650 C   0  0  0  0  0  0  0  0  0  0  0  0
   12.5640   -3.1760   25.1740 C   0  0  0  0  0  0  0  0  0  0  0  0
   10.5520    4.1120   23.6600 C   0  0  0  0  0  0  0  0  0  0  0  0
    8.7300    5.5050   23.3370 C   0  0  0  0  0  0  0  0  0  0  0  0
    9.9060    5.2930   24.1160 O   0  0  0  0  0  0  0  0  0  0  0  0
  2  1  1  1
  2  3  1  0
  1  4  1  0
  4  5  2  0
  4  6  1  0
  2  7  1  0
  3  8  1  6
  3  9  1  0
  7 10  1  0
  7 11  2  0
 12 10  1  1
 13 11  1  1
 12 13  1  0
 12 14  1  0
 13 15  1  0
 14 16  1  6
 14 17  1  0
 15 18  1  0
 15 19  1  0
 14 20  1  0
 19 20  1  0
 16 21  2  3
 17 22  1  0
 18 23  2  0
 18 24  1  0
 22 25  1  0
 23 26  1  0
 22 27  1  0
 24 28  2  0
 23 29  1  0
 25 30  1  6
 26 31  2  0
 26 32  1  0
 25 33  1  0
 27 34  2  0
 27 35  1  0
 28 36  1  0
 29 36  2  0
 30 37  1  0
 30 38  2  0
 33 39  2  0
 33 40  1  0
 34 41  1  0
 35 42  2  0
 40 43  2  0
 39 44  1  0
 37 45  1  0
 41 46  2  0
 42 46  1  0
 46 47  1  0
 43 48  1  0
 44 48  2  0
 45 49  1  0
 45 50  1  0
 47 51  1  0
 47 52  1  0
 47 53  1  0
 49 54  1  0
 50 55  1  0
 54 56  1  0
 55 56  1  0
M  CHG  2  26   1  32  -1
M  END
