x0978-x2581
     RDKit          3D

 39 41  0  0  0  0  0  0  0  0999 V2000
    1.9750   -5.6830   23.3220 N   0  0  0  0  0  0  0  0  0  0  0  0
    3.1780   -6.3860   23.2880 C   0  0  2  0  0  0  0  0  0  0  0  0
    3.3740   -7.3110   24.5080 C   0  0  1  0  0  0  0  0  0  0  0  0
    0.7890   -6.2130   22.5880 C   0  0  0  0  0  0  0  0  0  0  0  0
    0.8050   -7.2610   21.9530 O   0  0  0  0  0  0  0  0  0  0  0  0
   -0.5020   -5.3430   22.6690 C   0  0  0  0  0  0  0  0  0  0  0  0
    4.2930   -5.3030   23.0860 C   0  0  0  0  0  0  0  0  0  0  0  0
    2.0920   -8.1670   24.7000 C   0  0  0  0  0  0  0  0  0  0  0  0
    4.4350   -7.8880   24.3360 O   0  0  0  0  0  0  0  0  0  0  0  0
    5.5070   -5.7560   22.4050 N   0  0  0  0  0  0  0  0  0  0  0  0
    4.1540   -3.9750   23.5430 O   0  0  0  0  0  0  0  0  0  0  0  0
    6.3430   -4.6770   21.8450 C   0  0  2  0  0  0  0  0  0  0  0  0
    6.5070   -4.9230   20.3470 C   0  0  0  0  0  0  0  0  0  0  0  0
    7.6290   -4.7210   22.7000 C   0  0  0  0  0  0  0  0  0  0  0  0
    5.7270   -6.1290   19.8630 C   0  0  0  0  0  0  0  0  0  0  0  0
    8.2240   -3.4520   22.7230 C   0  0  0  0  0  0  0  0  0  0  0  0
    9.0830   -3.2470   23.7980 C   0  0  0  0  0  0  0  0  0  0  0  0
   10.2690   -2.6100   23.4260 C   0  0  0  0  0  0  0  0  0  0  0  0
   10.2190   -1.3300   23.9080 O   0  0  0  0  0  0  0  0  0  0  0  0
    9.8300   -0.2600   23.0350 C   0  0  0  0  0  0  0  0  0  0  0  0
   10.5820    1.0430   23.0000 C   0  0  0  0  0  0  0  0  0  0  0  0
    8.6760   -0.4290   22.1700 C   0  0  0  0  0  0  0  0  0  0  0  0
    9.9880    2.0200   22.0690 C   0  0  0  0  0  0  0  0  0  0  0  0
    8.1810    0.4940   21.3160 C   0  0  0  0  0  0  0  0  0  0  0  0
   10.7030    3.2990   22.0190 N   0  0  0  0  0  0  0  0  0  0  0  0
    8.8430    1.7970   21.2420 N   0  0  0  0  0  0  0  0  0  0  0  0
   11.1690    4.0820   23.1610 C   0  0  0  0  0  0  0  0  0  0  0  0
   10.9180    3.8050   24.5110 O   0  0  0  0  0  0  0  0  0  0  0  0
   11.8840    5.2110   22.7860 C   0  0  0  0  0  0  0  0  0  0  0  0
   11.1090    6.3640   23.3390 C   0  0  0  0  0  0  0  0  0  0  0  0
    9.8940    6.7320   22.8080 C   0  0  0  0  0  0  0  0  0  0  0  0
   11.6310    7.1860   24.5430 C   0  0  0  0  0  0  0  0  0  0  0  0
    9.0990    7.8980   23.3820 C   0  0  0  0  0  0  0  0  0  0  0  0
   10.9620    8.2670   25.1170 C   0  0  0  0  0  0  0  0  0  0  0  0
    9.6080    8.5830   24.4320 C   0  0  0  0  0  0  0  0  0  0  0  0
   11.4420    9.0080   26.1940 C   0  0  0  0  0  0  0  0  0  0  0  0
    8.8850    9.6580   24.9430 C   0  0  0  0  0  0  0  0  0  0  0  0
   10.6370   10.2010   26.7580 C   0  0  0  0  0  0  0  0  0  0  0  0
    9.4100   10.4870   26.1310 C   0  0  0  0  0  0  0  0  0  0  0  0
  2  1  1  1
  2  3  1  0
  1  4  1  0
  4  5  2  0
  4  6  1  0
  2  7  1  0
  3  8  1  6
  3  9  1  0
  7 10  1  0
  7 11  2  0
 10 12  1  0
 12 13  1  6
 12 14  1  0
 13 15  2  3
 14 16  1  0
 16 17  1  0
 17 18  1  0
 18 19  1  0
 19 20  1  0
 20 21  2  0
 20 22  1  0
 21 23  1  0
 22 24  2  0
 23 25  1  0
 23 26  2  0
 24 26  1  0
 25 27  1  0
 27 28  2  0
 27 29  1  0
 29 30  1  0
 30 31  2  0
 30 32  1  0
 31 33  1  0
 32 34  2  0
 33 35  2  0
 34 35  1  0
 34 36  1  0
 35 37  1  0
 36 38  2  0
 37 39  2  0
 38 39  1  0
M  END
