x0978-x0434
     RDKit          3D

 33 34  0  0  0  0  0  0  0  0999 V2000
    2.0190   -5.7580   23.1710 N   0  0  0  0  0  0  0  0  0  0  0  0
    3.1810   -6.5310   23.2030 C   0  0  2  0  0  0  0  0  0  0  0  0
    3.2780   -7.3250   24.5270 C   0  0  1  0  0  0  0  0  0  0  0  0
    0.7790   -6.2670   22.5230 C   0  0  0  0  0  0  0  0  0  0  0  0
    0.7360   -7.3210   21.9000 O   0  0  0  0  0  0  0  0  0  0  0  0
   -0.4870   -5.3720   22.6770 C   0  0  0  0  0  0  0  0  0  0  0  0
    4.3500   -5.5210   22.9490 C   0  0  0  0  0  0  0  0  0  0  0  0
    2.0620   -8.2850   24.6170 C   0  0  0  0  0  0  0  0  0  0  0  0
    4.4020   -7.7960   24.6000 O   0  0  0  0  0  0  0  0  0  0  0  0
    5.2480   -5.7740   21.7660 N   0  0  0  0  0  0  0  0  0  0  0  0
    4.4770   -4.4330   23.8410 O   0  0  0  0  0  0  0  0  0  0  0  0
    6.3250   -4.7670   21.5390 C   0  0  1  0  0  0  0  0  0  0  0  0
    6.4550   -4.3590   20.0450 C   0  0  0  0  0  0  0  0  0  0  0  0
    6.1480   -3.6010   22.4730 C   0  0  0  0  0  0  0  0  0  0  0  0
    5.3560   -3.5390   19.4350 C   0  0  0  0  0  0  0  0  0  0  0  0
    7.0720   -2.5820   22.3140 C   0  0  0  0  0  0  0  0  0  0  0  0
    6.4250   -1.3580   22.1490 C   0  0  0  0  0  0  0  0  0  0  0  0
    7.1660   -0.6240   21.1180 N   0  0  0  0  0  0  0  0  0  0  0  0
    8.3310   -0.1170   21.5000 C   0  0  0  0  0  0  0  0  0  0  0  0
    6.4500    0.0550   20.1280 C   0  0  0  0  0  0  0  0  0  0  0  0
    8.7570    1.1320   21.0900 O   0  0  0  0  0  0  0  0  0  0  0  0
    9.1020   -0.9910   22.3710 N   0  0  0  0  0  0  0  0  0  0  0  0
    5.1900    0.8510   20.3620 C   0  0  0  0  0  0  0  0  0  0  0  0
    6.9370    0.0410   18.6990 C   0  0  0  0  0  0  0  0  0  0  0  0
   10.3920   -0.6200   22.6480 C   0  0  0  0  0  0  0  0  0  0  0  0
    4.5720    1.5410   19.1940 C   0  0  0  0  0  0  0  0  0  0  0  0
    6.3160    0.7260   17.5640 N   0  0  0  0  0  0  0  0  0  0  0  0
   10.6560    0.5070   23.4060 C   0  0  0  0  0  0  0  0  0  0  0  0
   11.5470   -1.4330   22.0990 C   0  0  0  0  0  0  0  0  0  0  0  0
    5.1550    1.4810   17.7670 C   0  0  0  0  0  0  0  0  0  0  0  0
   11.9580    0.9230   23.6680 C   0  0  0  0  0  0  0  0  0  0  0  0
   12.9430   -1.0220   22.3580 C   0  0  0  0  0  0  0  0  0  0  0  0
   13.0600    0.2180   23.1760 C   0  0  0  0  0  0  0  0  0  0  0  0
  2  1  1  1
  2  3  1  0
  1  4  1  0
  4  5  2  0
  4  6  1  0
  2  7  1  0
  3  8  1  6
  3  9  1  0
  7 10  1  0
  7 11  2  0
 10 12  1  0
 12 13  1  6
 12 14  1  0
 13 15  2  3
 14 16  1  0
 16 17  1  0
 17 18  1  0
 18 19  1  0
 18 20  1  0
 19 21  2  0
 19 22  1  0
 20 23  2  0
 20 24  1  0
 22 25  1  0
 23 26  1  0
 24 27  2  0
 25 28  2  0
 25 29  1  0
 26 30  2  0
 27 30  1  0
 28 31  1  0
 29 32  2  0
 31 33  2  0
 32 33  1  0
M  END
