x0978-x2705-x0734
     RDKit          3D

 58 63  0  0  0  0  0  0  0  0999 V2000
    1.8150   -5.7420   23.0570 N   0  0  0  0  0  0  0  0  0  0  0  0
    2.9660   -6.6400   23.1430 C   0  0  2  0  0  0  0  0  0  0  0  0
    3.1360   -7.4850   24.4220 C   0  0  1  0  0  0  0  0  0  0  0  0
    0.5660   -6.2060   22.4430 C   0  0  0  0  0  0  0  0  0  0  0  0
    0.4960   -7.2540   21.8100 O   0  0  0  0  0  0  0  0  0  0  0  0
   -0.6220   -5.3040   22.6410 C   0  0  0  0  0  0  0  0  0  0  0  0
    4.2640   -5.7750   23.0360 C   0  0  0  0  0  0  0  0  0  0  0  0
    1.9340   -8.3920   24.5580 C   0  0  0  0  0  0  0  0  0  0  0  0
    4.2500   -7.9760   24.3480 O   0  0  0  0  0  0  0  0  0  0  0  0
    4.7620   -5.0980   21.8490 N   0  0  0  0  0  0  0  0  0  0  0  0
    5.0480   -5.6040   24.0810 N   0  0  0  0  0  0  0  0  0  0  0  0
    6.1730   -4.9690   22.0720 C   0  0  2  0  0  0  0  0  0  0  0  0
    6.0690   -4.7330   23.4400 C   0  0  2  0  0  0  0  0  0  0  0  0
    6.8590   -3.7470   21.4420 C   0  0  1  0  0  0  0  0  0  0  0  0
    7.3680   -4.8410   23.9720 N   0  0  0  0  0  0  0  0  0  0  0  0
    6.8460   -3.7310   19.8890 C   0  0  0  0  0  0  0  0  0  0  0  0
    6.5110   -2.2220   21.7870 C   0  0  0  0  0  0  0  0  0  0  0  0
    7.4440   -5.1430   25.2840 C   0  0  0  0  0  0  0  0  0  0  0  0
    8.2890   -3.8640   23.4350 C   0  0  0  0  0  0  0  0  0  0  0  0
    8.2610   -3.9290   22.0430 C   0  0  0  0  0  0  0  0  0  0  0  0
    5.7170   -3.4080   19.2410 C   0  0  0  0  0  0  0  0  0  0  0  0
    7.4730   -1.2140   21.7570 N   0  0  0  0  0  0  0  0  0  0  0  0
    6.5240   -4.9630   26.3600 C   0  0  0  0  0  0  0  0  0  0  0  0
    8.6820   -5.7210   25.4250 C   0  0  0  0  0  0  0  0  0  0  0  0
    6.9770    0.1530   21.6660 C   0  0  1  0  0  0  0  0  0  0  0  0
    5.3260   -4.4310   26.2730 N   0  0  0  0  0  0  0  0  0  0  0  0
    8.6610   -1.2210   22.5670 C   0  0  0  0  0  0  0  0  0  0  0  0
    9.1850   -6.2190   26.7470 C   0  0  0  0  0  0  0  0  0  0  0  0
    6.8700   -5.3740   27.6380 C   0  0  0  0  0  0  0  0  0  0  0  0
    7.9070    1.1940   21.8150 C   0  0  0  0  0  0  0  0  0  0  0  0
    4.3970   -5.2560   26.1930 O   0  0  0  0  0  0  0  0  0  0  0  0
    5.1750   -3.3220   26.8040 O   0  0  0  0  0  0  0  0  0  0  0  0
    6.3170    0.5120   20.3740 C   0  0  0  0  0  0  0  0  0  0  0  0
    8.7160   -1.0600   23.8920 N   0  0  0  0  0  0  0  0  0  0  0  0
    9.9670   -1.3810   22.1560 C   0  0  0  0  0  0  0  0  0  0  0  0
    8.2020   -6.0170   27.9220 C   0  0  0  0  0  0  0  0  0  0  0  0
    7.5820    2.1810   22.8230 N   0  0  0  0  0  0  0  0  0  0  0  0
    8.8940    1.2680   21.0960 O   0  0  0  0  0  0  0  0  0  0  0  0
    5.0560    1.3660   20.2140 C   0  0  0  0  0  0  0  0  0  0  0  0
    6.8770    0.0620   19.0690 C   0  0  0  0  0  0  0  0  0  0  0  0
   10.0290   -1.1270   24.2260 N   0  0  0  0  0  0  0  0  0  0  0  0
   10.8600   -1.3280   23.1840 C   0  0  0  0  0  0  0  0  0  0  0  0
   12.2870   -1.4300   23.2790 C   0  0  0  0  0  0  0  0  0  0  0  0
    6.3550    0.3800   17.8820 N   0  0  0  0  0  0  0  0  0  0  0  0
    4.6170    1.6230   18.9330 C   0  0  0  0  0  0  0  0  0  0  0  0
    8.1940    3.4480   22.9370 C   0  0  0  0  0  0  0  0  0  0  0  0
   12.8030   -0.0850   23.7820 C   0  0  0  0  0  0  0  0  0  0  0  0
   12.7280   -2.5120   24.2860 C   0  0  0  0  0  0  0  0  0  0  0  0
   12.9050   -1.7400   21.9070 C   0  0  0  0  0  0  0  0  0  0  0  0
    5.1490    1.2180   17.7070 C   0  0  0  0  0  0  0  0  0  0  0  0
    9.4430    3.4840   23.5140 C   0  0  0  0  0  0  0  0  0  0  0  0
    7.6040    4.6210   22.5000 C   0  0  0  0  0  0  0  0  0  0  0  0
   10.0780    2.2070   23.9780 C   0  0  0  0  0  0  0  0  0  0  0  0
    6.2500    4.6990   21.8480 C   0  0  0  0  0  0  0  0  0  0  0  0
   10.1540    4.6930   23.6830 C   0  0  0  0  0  0  0  0  0  0  0  0
    8.2770    5.8320   22.6500 C   0  0  0  0  0  0  0  0  0  0  0  0
    9.2660    1.5230   24.8850 C   0  0  0  0  0  0  0  0  0  0  0  0
    9.5500    5.8800   23.2410 C   0  0  0  0  0  0  0  0  0  0  0  0
  2  1  1  1
  2  3  1  0
  1  4  1  0
  4  5  2  0
  4  6  1  0
  2  7  1  0
  3  8  1  6
  3  9  1  0
  7 10  1  0
  7 11  2  0
 12 10  1  6
 13 11  1  1
 12 13  1  0
 12 14  1  0
 13 15  1  0
 14 16  1  6
 14 17  1  0
 15 18  1  0
 15 19  1  0
 14 20  1  0
 19 20  1  0
 16 21  2  3
 17 22  1  0
 18 23  2  0
 18 24  1  0
 22 25  1  0
 23 26  1  0
 22 27  1  0
 24 28  2  0
 23 29  1  0
 25 30  1  6
 26 31  2  0
 26 32  1  0
 25 33  1  0
 27 34  2  0
 27 35  1  0
 28 36  1  0
 29 36  2  0
 30 37  1  0
 30 38  2  0
 33 39  2  0
 33 40  1  0
 34 41  1  0
 35 42  2  0
 41 42  1  0
 42 43  1  0
 40 44  2  0
 39 45  1  0
 37 46  1  0
 43 47  1  0
 43 48  1  0
 43 49  1  0
 44 50  1  0
 45 50  2  0
 46 51  2  0
 46 52  1  0
 51 53  1  0
 52 54  1  0
 51 55  1  0
 52 56  2  0
 53 57  1  0
 55 58  2  0
 56 58  1  0
M  CHG  2  26   1  32  -1
M  END
