x0978-x2569
     RDKit          3D

 35 36  0  0  0  0  0  0  0  0999 V2000
    2.0150   -5.6420   23.2630 N   0  0  0  0  0  0  0  0  0  0  0  0
    3.2140   -6.3490   23.3260 C   0  0  2  0  0  0  0  0  0  0  0  0
    3.2860   -7.2600   24.5750 C   0  0  1  0  0  0  0  0  0  0  0  0
    0.8280   -6.2230   22.5730 C   0  0  0  0  0  0  0  0  0  0  0  0
    0.8550   -7.2880   21.9670 O   0  0  0  0  0  0  0  0  0  0  0  0
   -0.4820   -5.3830   22.6600 C   0  0  0  0  0  0  0  0  0  0  0  0
    4.3390   -5.2590   23.2370 C   0  0  0  0  0  0  0  0  0  0  0  0
    2.0620   -8.2120   24.5670 C   0  0  0  0  0  0  0  0  0  0  0  0
    4.4040   -7.7520   24.6160 O   0  0  0  0  0  0  0  0  0  0  0  0
    5.4700   -5.5550   22.3450 N   0  0  0  0  0  0  0  0  0  0  0  0
    4.2700   -4.0700   23.9870 O   0  0  0  0  0  0  0  0  0  0  0  0
    6.1740   -4.4300   21.6680 C   0  0  1  0  0  0  0  0  0  0  0  0
    6.4250   -4.8160   20.2370 C   0  0  0  0  0  0  0  0  0  0  0  0
    5.4690   -3.0510   21.7590 C   0  0  0  0  0  0  0  0  0  0  0  0
    5.7580   -6.1140   19.8320 C   0  0  0  0  0  0  0  0  0  0  0  0
    6.4520   -2.1870   22.2540 C   0  0  0  0  0  0  0  0  0  0  0  0
    6.0970   -0.8370   22.1240 C   0  0  0  0  0  0  0  0  0  0  0  0
    6.9020   -0.3560   21.1970 N   0  0  0  0  0  0  0  0  0  0  0  0
    8.0390    0.2130   21.6730 C   0  0  0  0  0  0  0  0  0  0  0  0
    6.3610    0.1980   20.1120 C   0  0  0  0  0  0  0  0  0  0  0  0
    8.6220    1.3420   21.1210 O   0  0  0  0  0  0  0  0  0  0  0  0
    8.6190   -0.4200   22.7650 C   0  0  0  0  0  0  0  0  0  0  0  0
    6.9130    0.0580   18.8570 C   0  0  0  0  0  0  0  0  0  0  0  0
    5.2400    0.9470   20.1270 C   0  0  0  0  0  0  0  0  0  0  0  0
   10.0990   -0.3330   22.7080 C   0  0  0  0  0  0  0  0  0  0  0  0
    6.3870    0.6540   17.6400 N   0  0  0  0  0  0  0  0  0  0  0  0
    4.6360    1.5520   19.0880 C   0  0  0  0  0  0  0  0  0  0  0  0
   10.9520   -1.4250   22.0850 C   0  0  0  0  0  0  0  0  0  0  0  0
   10.7270    0.7290   23.2030 C   0  0  0  0  0  0  0  0  0  0  0  0
    5.2070    1.4170   17.8250 C   0  0  0  0  0  0  0  0  0  0  0  0
   12.1970    0.8860   23.1980 N   0  0  0  0  0  0  0  0  0  0  0  0
   12.4310   -1.3920   21.9940 C   0  0  0  0  0  0  0  0  0  0  0  0
   13.0980   -2.4090   21.3870 C   0  0  0  0  0  0  0  0  0  0  0  0
   13.0010   -0.1600   22.6070 C   0  0  0  0  0  0  0  0  0  0  0  0
   13.6450   -3.5000   20.6300 N   0  0  0  0  0  0  0  0  0  0  0  0
  2  1  1  1
  2  3  1  0
  1  4  1  0
  4  5  2  0
  4  6  1  0
  2  7  1  0
  3  8  1  6
  3  9  1  0
  7 10  1  0
  7 11  2  0
 10 12  1  0
 12 13  1  6
 12 14  1  0
 13 15  2  3
 14 16  1  0
 16 17  1  0
 17 18  1  0
 18 19  1  0
 18 20  1  0
 19 21  2  0
 19 22  1  0
 20 23  2  0
 20 24  1  0
 22 25  1  0
 23 26  1  0
 24 27  2  0
 25 28  2  0
 25 29  1  0
 26 30  2  0
 27 30  1  0
 29 31  2  0
 28 32  1  0
 32 33  1  0
 31 34  1  0
 32 34  2  0
 33 35  3  0
M  END
