x0978-x2705-x0689-x0769
     RDKit          3D

 57 62  0  0  0  0  0  0  0  0999 V2000
    2.1330   -5.6810   23.3240 N   0  0  0  0  0  0  0  0  0  0  0  0
    3.4560   -6.2130   23.3820 C   0  0  2  0  0  0  0  0  0  0  0  0
    3.7800   -6.9650   24.6880 C   0  0  1  0  0  0  0  0  0  0  0  0
    0.9520   -6.2780   22.6080 C   0  0  0  0  0  0  0  0  0  0  0  0
    0.9950   -7.3370   21.9920 O   0  0  0  0  0  0  0  0  0  0  0  0
   -0.3630   -5.4420   22.7010 C   0  0  0  0  0  0  0  0  0  0  0  0
    4.4490   -5.0150   23.1570 C   0  0  2  0  0  0  0  0  0  0  0  0
    2.5250   -7.4650   25.3630 C   0  0  0  0  0  0  0  0  0  0  0  0
    4.5890   -7.8230   24.3130 O   0  0  0  0  0  0  0  0  0  0  0  0
    3.7000   -3.8330   23.2680 O   0  0  0  0  0  0  0  0  0  0  0  0
    4.4990   -5.5950   25.6410 S   0  0  0  0  0  0  0  0  0  0  0  0
    5.2360   -5.3190   22.0840 C   0  0  0  0  0  0  0  0  0  0  0  0
    5.3140   -4.9820   24.3490 N   0  0  0  0  0  0  0  0  0  0  0  0
    5.4610   -5.7660   26.7030 O   0  0  0  0  0  0  0  0  0  0  0  0
    3.6210   -4.0390   25.8390 C   0  0  0  0  0  0  0  0  0  0  0  0
    6.2830   -4.4470   21.7780 C   0  0  1  0  0  0  0  0  0  0  0  0
    6.7980   -4.8160   24.1590 C   0  0  0  0  0  0  0  0  0  0  0  0
    6.6240   -4.9240   20.3190 C   0  0  0  0  0  0  0  0  0  0  0  0
    5.8720   -3.0960   21.7950 C   0  0  0  0  0  0  0  0  0  0  0  0
    4.2950   -2.8200   26.1080 C   0  0  0  0  0  0  0  0  0  0  0  0
    2.2280   -4.0550   25.7120 C   0  0  0  0  0  0  0  0  0  0  0  0
    7.2430   -4.7630   22.6720 C   0  0  0  0  0  0  0  0  0  0  0  0
    5.8680   -6.1420   19.7990 C   0  0  0  0  0  0  0  0  0  0  0  0
    5.6270   -2.7560   26.2400 F   0  0  0  0  0  0  0  0  0  0  0  0
    6.5640   -2.2240   22.6500 C   0  0  0  0  0  0  0  0  0  0  0  0
    1.4750   -2.8790   25.8440 C   0  0  0  0  0  0  0  0  0  0  0  0
    3.5510   -1.6270   26.2420 C   0  0  0  0  0  0  0  0  0  0  0  0
    7.3530   -1.2150   22.0740 N   0  0  0  0  0  0  0  0  0  0  0  0
    2.1540   -1.6910   26.1050 C   0  0  0  0  0  0  0  0  0  0  0  0
    6.8520    0.1460   21.7850 C   0  0  1  0  0  0  0  0  0  0  0  0
    8.5690   -1.3130   22.8240 C   0  0  0  0  0  0  0  0  0  0  0  0
    7.8080    1.3270   21.5910 C   0  0  0  0  0  0  0  0  0  0  0  0
    6.3400    0.3560   20.3430 C   0  0  0  0  0  0  0  0  0  0  0  0
    8.7330   -1.4000   24.2480 N   0  0  0  0  0  0  0  0  0  0  0  0
    9.9480   -1.3340   22.2400 C   0  0  0  0  0  0  0  0  0  0  0  0
    7.9600    2.4050   22.3120 N   0  0  0  0  0  0  0  0  0  0  0  0
    8.4340    1.1830   20.6330 O   0  0  0  0  0  0  0  0  0  0  0  0
    5.2200    1.2020   20.2080 C   0  0  0  0  0  0  0  0  0  0  0  0
    6.9340   -0.2240   19.2270 C   0  0  0  0  0  0  0  0  0  0  0  0
   10.0680   -1.4600   24.4350 N   0  0  0  0  0  0  0  0  0  0  0  0
   10.8780   -1.4260   23.2940 C   0  0  0  0  0  0  0  0  0  0  0  0
   12.3300   -1.4660   23.1780 C   0  0  0  0  0  0  0  0  0  0  0  0
    6.3310    0.1200   17.9320 N   0  0  0  0  0  0  0  0  0  0  0  0
    4.6640    1.5110   18.9790 C   0  0  0  0  0  0  0  0  0  0  0  0
    8.4010    3.6270   22.7950 C   0  0  0  0  0  0  0  0  0  0  0  0
   12.7870   -0.1800   23.4470 C   0  0  0  0  0  0  0  0  0  0  0  0
   12.8500   -2.4080   24.2290 C   0  0  0  0  0  0  0  0  0  0  0  0
   12.7560   -1.9040   21.9370 C   0  0  0  0  0  0  0  0  0  0  0  0
    5.1820    1.0040   17.8200 C   0  0  0  0  0  0  0  0  0  0  0  0
    9.5920    3.6600   23.5160 C   0  0  0  0  0  0  0  0  0  0  0  0
    7.6950    4.7910   22.5420 C   0  0  0  0  0  0  0  0  0  0  0  0
   10.3630    2.4390   23.8090 C   0  0  0  0  0  0  0  0  0  0  0  0
    6.3990    4.8090   21.7730 C   0  0  0  0  0  0  0  0  0  0  0  0
   10.1040    5.0120   24.0010 C   0  0  0  0  0  0  0  0  0  0  0  0
    8.1620    6.0230   22.9860 C   0  0  0  0  0  0  0  0  0  0  0  0
    9.5270    1.5790   24.6220 C   0  0  0  0  0  0  0  0  0  0  0  0
    9.3460    6.1440   23.7020 C   0  0  0  0  0  0  0  0  0  0  0  0
  2  1  1  1
  2  3  1  0
  1  4  1  0
  4  5  2  0
  4  6  1  0
  2  7  1  0
  3  8  1  1
  3  9  1  0
  7 10  1  6
  3 11  1  0
  7 12  1  0
  7 13  1  0
 11 13  1  0
 11 14  2  0
 11 15  1  0
 12 16  1  0
 13 17  1  0
 16 18  1  6
 16 19  1  0
 15 20  2  0
 15 21  1  0
 16 22  1  0
 17 22  1  0
 18 23  2  3
 20 24  1  0
 19 25  1  0
 21 26  2  0
 20 27  1  0
 25 28  1  0
 26 29  1  0
 27 29  2  0
 28 30  1  0
 28 31  1  0
 30 32  1  6
 30 33  1  0
 31 34  2  0
 31 35  1  0
 32 36  1  0
 32 37  2  0
 33 38  2  0
 33 39  1  0
 34 40  1  0
 35 41  2  0
 40 41  1  0
 41 42  1  0
 39 43  2  0
 38 44  1  0
 36 45  1  0
 42 46  1  0
 42 47  1  0
 42 48  1  0
 43 49  1  0
 44 49  2  0
 45 50  2  0
 45 51  1  0
 50 52  1  0
 51 53  1  0
 50 54  1  0
 51 55  2  0
 52 56  1  0
 54 57  2  0
 55 57  1  0
M  END
