x0978-x1093
     RDKit          3D

 36 38  0  0  0  0  0  0  0  0999 V2000
    2.1430   -5.6780   23.1300 N   0  0  0  0  0  0  0  0  0  0  0  0
    3.3080   -6.4480   23.2100 C   0  0  2  0  0  0  0  0  0  0  0  0
    3.3370   -7.2730   24.5230 C   0  0  1  0  0  0  0  0  0  0  0  0
    0.8910   -6.2540   22.5510 C   0  0  0  0  0  0  0  0  0  0  0  0
    0.8570   -7.3300   21.9640 O   0  0  0  0  0  0  0  0  0  0  0  0
   -0.4000   -5.3970   22.7270 C   0  0  0  0  0  0  0  0  0  0  0  0
    4.4940   -5.4300   23.0260 C   0  0  0  0  0  0  0  0  0  0  0  0
    2.0930   -8.2000   24.5540 C   0  0  0  0  0  0  0  0  0  0  0  0
    4.4390   -7.7820   24.6180 O   0  0  0  0  0  0  0  0  0  0  0  0
    5.5400   -5.6820   21.9910 N   0  0  0  0  0  0  0  0  0  0  0  0
    4.5540   -4.2660   23.8240 O   0  0  0  0  0  0  0  0  0  0  0  0
    5.9020   -4.3560   21.4450 C   0  0  2  0  0  0  0  0  0  0  0  0
    6.2970   -4.2300   19.9640 C   0  0  0  0  0  0  0  0  0  0  0  0
    6.7610   -3.5340   22.4330 C   0  0  0  0  0  0  0  0  0  0  0  0
    5.3300   -3.3800   19.2000 C   0  0  0  0  0  0  0  0  0  0  0  0
    6.1960   -2.2460   22.4000 C   0  0  0  0  0  0  0  0  0  0  0  0
    7.1470   -1.2590   22.6480 C   0  0  0  0  0  0  0  0  0  0  0  0
    7.9460   -0.8380   21.3790 C   0  0  2  0  0  0  0  0  0  0  0  0
    8.9840    0.2500   21.7040 C   0  0  0  0  0  0  0  0  0  0  0  0
    7.1170   -0.3750   20.2170 C   0  0  0  0  0  0  0  0  0  0  0  0
    8.9000    1.5900   21.2190 O   0  0  0  0  0  0  0  0  0  0  0  0
   10.0620   -0.2100   22.5440 N   0  0  0  0  0  0  0  0  0  0  0  0
    7.3400   -0.6920   18.7720 C   0  0  0  0  0  0  0  0  0  0  0  0
    5.8780    0.5250   20.2740 C   0  0  0  0  0  0  0  0  0  0  0  0
   10.9030    0.6330   23.4080 C   0  0  0  0  0  0  0  0  0  0  0  0
   10.0080   -1.5660   23.1100 C   0  0  0  0  0  0  0  0  0  0  0  0
    6.3180   -0.0160   18.0070 N   0  0  0  0  0  0  0  0  0  0  0  0
    5.4550    0.7090   18.9750 C   0  0  0  0  0  0  0  0  0  0  0  0
    5.1930    1.1220   21.3380 C   0  0  0  0  0  0  0  0  0  0  0  0
   12.2990    0.0570   23.3680 C   0  0  0  0  0  0  0  0  0  0  0  0
   11.2710   -2.2020   23.1550 C   0  0  0  0  0  0  0  0  0  0  0  0
    4.3610    1.4790   18.6430 N   0  0  0  0  0  0  0  0  0  0  0  0
    3.9630    1.9830   21.0210 C   0  0  0  0  0  0  0  0  0  0  0  0
   12.2080   -1.3350   23.8410 N   0  0  0  0  0  0  0  0  0  0  0  0
    3.5860    2.1380   19.7100 C   0  0  0  0  0  0  0  0  0  0  0  0
   13.4980   -1.9990   23.7940 C   0  0  0  0  0  0  0  0  0  0  0  0
  2  1  1  1
  2  3  1  0
  1  4  1  0
  4  5  2  0
  4  6  1  0
  2  7  1  0
  3  8  1  6
  3  9  1  0
  7 10  1  0
  7 11  2  0
 10 12  1  0
 12 13  1  6
 12 14  1  0
 13 15  2  3
 14 16  1  0
 16 17  1  0
 18 17  1  1
 18 19  1  0
 18 20  1  0
 19 21  2  0
 19 22  1  0
 20 23  2  0
 20 24  1  0
 22 25  1  0
 22 26  1  0
 23 27  1  0
 24 28  2  0
 27 28  1  0
 24 29  1  0
 25 30  1  0
 26 31  1  0
 28 32  1  0
 29 33  2  0
 30 34  1  0
 31 34  1  0
 32 35  2  0
 33 35  1  0
 34 36  1  0
M  END
