x0978-x2600
     RDKit          3D

 35 36  0  0  0  0  0  0  0  0999 V2000
    2.0290   -5.6610   23.2380 N   0  0  0  0  0  0  0  0  0  0  0  0
    3.2290   -6.3740   23.2980 C   0  0  2  0  0  0  0  0  0  0  0  0
    3.3040   -7.2620   24.5640 C   0  0  1  0  0  0  0  0  0  0  0  0
    0.8310   -6.2330   22.5580 C   0  0  0  0  0  0  0  0  0  0  0  0
    0.8440   -7.2960   21.9500 O   0  0  0  0  0  0  0  0  0  0  0  0
   -0.4740   -5.3840   22.6590 C   0  0  0  0  0  0  0  0  0  0  0  0
    4.3440   -5.2750   23.1730 C   0  0  0  0  0  0  0  0  0  0  0  0
    2.0740   -8.2070   24.5790 C   0  0  0  0  0  0  0  0  0  0  0  0
    4.4170   -7.7610   24.6080 O   0  0  0  0  0  0  0  0  0  0  0  0
    5.5350   -5.6200   22.3640 N   0  0  0  0  0  0  0  0  0  0  0  0
    4.1840   -4.0340   23.8210 O   0  0  0  0  0  0  0  0  0  0  0  0
    6.3110   -4.5010   21.7580 C   0  0  1  0  0  0  0  0  0  0  0  0
    6.4580   -4.8010   20.2670 C   0  0  0  0  0  0  0  0  0  0  0  0
    5.6870   -3.1220   22.1130 C   0  0  0  0  0  0  0  0  0  0  0  0
    5.7350   -6.0810   19.8780 C   0  0  0  0  0  0  0  0  0  0  0  0
    6.4150   -2.1260   21.4680 C   0  0  0  0  0  0  0  0  0  0  0  0
    6.2250   -0.8830   22.0460 C   0  0  0  0  0  0  0  0  0  0  0  0
    6.9830   -0.1460   21.2730 N   0  0  0  0  0  0  0  0  0  0  0  0
    8.1340    0.3100   21.8130 C   0  0  0  0  0  0  0  0  0  0  0  0
    6.3160    0.4420   20.1330 C   0  0  0  0  0  0  0  0  0  0  0  0
    8.8200    1.3920   21.2890 O   0  0  0  0  0  0  0  0  0  0  0  0
    8.6010   -0.3910   22.9290 C   0  0  0  0  0  0  0  0  0  0  0  0
    6.9020    0.0250   18.8360 C   0  0  0  0  0  0  0  0  0  0  0  0
    5.2440    1.3050   20.2200 C   0  0  0  0  0  0  0  0  0  0  0  0
    6.2900    0.5920   17.6520 N   0  0  0  0  0  0  0  0  0  0  0  0
    4.6650    1.8420   19.0080 C   0  0  0  0  0  0  0  0  0  0  0  0
   10.0840   -0.2950   23.0010 C   0  0  0  0  0  0  0  0  0  0  0  0
    5.1560    1.5140   17.8020 C   0  0  0  0  0  0  0  0  0  0  0  0
   10.7220    0.6610   23.7550 C   0  0  0  0  0  0  0  0  0  0  0  0
   10.9490   -1.2940   22.2020 C   0  0  0  0  0  0  0  0  0  0  0  0
   12.2340    0.6790   23.7480 C   0  0  0  0  0  0  0  0  0  0  0  0
   12.3320   -1.3130   22.1720 C   0  0  0  0  0  0  0  0  0  0  0  0
   13.0520   -2.3170   21.3670 C   0  0  0  0  0  0  0  0  0  0  0  0
   12.9380   -0.2040   23.0400 C   0  0  0  0  0  0  0  0  0  0  0  0
   13.6550   -3.3520   20.5800 N   0  0  0  0  0  0  0  0  0  0  0  0
  2  1  1  1
  2  3  1  0
  1  4  1  0
  4  5  2  0
  4  6  1  0
  2  7  1  0
  3  8  1  6
  3  9  1  0
  7 10  1  0
  7 11  2  0
 10 12  1  0
 12 13  1  6
 12 14  1  0
 13 15  2  3
 14 16  1  0
 16 17  1  0
 17 18  1  0
 18 19  1  0
 18 20  1  0
 19 21  2  0
 19 22  1  0
 20 23  2  0
 20 24  1  0
 23 25  1  0
 24 26  2  0
 22 27  1  0
 25 28  2  0
 26 28  1  0
 27 29  2  0
 27 30  1  0
 29 31  1  0
 30 32  2  0
 32 33  1  0
 31 34  2  0
 32 34  1  0
 33 35  3  0
M  END
