x0978-x1392
     RDKit          3D

 31 33  0  0  0  0  0  0  0  0999 V2000
    1.9060   -5.7970   23.2300 N   0  0  0  0  0  0  0  0  0  0  0  0
    3.0580   -6.5800   23.2180 C   0  0  2  0  0  0  0  0  0  0  0  0
    3.2550   -7.3280   24.5570 C   0  0  1  0  0  0  0  0  0  0  0  0
    0.6940   -6.2620   22.5080 C   0  0  0  0  0  0  0  0  0  0  0  0
    0.6640   -7.3000   21.8560 O   0  0  0  0  0  0  0  0  0  0  0  0
   -0.5580   -5.3430   22.6210 C   0  0  0  0  0  0  0  0  0  0  0  0
    4.1900   -5.5830   22.8280 C   0  0  0  0  0  0  0  0  0  0  0  0
    2.0610   -8.2990   24.7480 C   0  0  0  0  0  0  0  0  0  0  0  0
    4.3870   -7.7860   24.5730 O   0  0  0  0  0  0  0  0  0  0  0  0
    5.0090   -5.8910   21.6290 N   0  0  0  0  0  0  0  0  0  0  0  0
    4.3900   -4.4050   23.5850 O   0  0  0  0  0  0  0  0  0  0  0  0
    5.8470   -4.7270   21.4040 C   0  0  2  0  0  0  0  0  0  0  0  0
    6.2590   -4.4020   19.9600 C   0  0  0  0  0  0  0  0  0  0  0  0
    6.8440   -4.8190   22.4400 C   0  0  0  0  0  0  0  0  0  0  0  0
    5.3350   -3.4440   19.2630 C   0  0  0  0  0  0  0  0  0  0  0  0
    6.9800   -3.5790   23.0250 C   0  0  2  0  0  0  0  0  0  0  0  0
    7.1900   -2.5060   22.1780 N   0  0  0  0  0  0  0  0  0  0  0  0
    8.1440   -3.6660   23.6770 C   0  0  0  0  0  0  0  0  0  0  0  0
    8.5080   -1.8670   21.8300 C   0  0  0  0  0  0  0  0  0  0  0  0
    9.3760   -3.2620   23.5200 C   0  0  0  0  0  0  0  0  0  0  0  0
    7.5040   -4.4580   24.7260 C   0  0  0  0  0  0  0  0  0  0  0  0
    9.6410   -2.5210   22.3910 C   0  0  2  0  0  0  0  0  0  0  0  0
    8.3480   -4.8710   25.7510 C   0  0  0  0  0  0  0  0  0  0  0  0
   10.2540   -3.6610   24.5420 C   0  0  0  0  0  0  0  0  0  0  0  0
    9.7240   -4.5240   25.7450 C   0  0  0  0  0  0  0  0  0  0  0  0
   10.6030   -1.4210   22.7260 C   0  0  0  0  0  0  0  0  0  0  0  0
   11.9040   -1.4800   22.2030 C   0  0  0  0  0  0  0  0  0  0  0  0
   10.1480   -0.3720   23.5560 C   0  0  0  0  0  0  0  0  0  0  0  0
   12.8520   -0.3870   22.5290 C   0  0  0  0  0  0  0  0  0  0  0  0
   11.1270    0.7540   23.8870 C   0  0  0  0  0  0  0  0  0  0  0  0
   12.4100    0.7630   23.4070 C   0  0  0  0  0  0  0  0  0  0  0  0
  2  1  1  1
  2  3  1  0
  1  4  1  0
  4  5  2  0
  4  6  1  0
  2  7  1  0
  3  8  1  6
  3  9  1  0
  7 10  1  0
  7 11  2  0
 10 12  1  0
 12 13  1  6
 12 14  1  0
 13 15  2  3
 16 14  1  6
 16 17  1  0
 16 18  1  0
 17 19  1  0
 18 20  2  0
 18 21  1  0
 19 22  1  0
 20 22  1  0
 21 23  2  0
 20 24  1  0
 23 25  1  0
 24 25  2  0
 22 26  1  1
 26 27  2  0
 26 28  1  0
 27 29  1  0
 28 30  2  0
 29 31  2  0
 30 31  1  0
M  END
