x0978-x2193-x3110-x0769
     RDKit          3D

 64 68  0  0  0  0  0  0  0  0999 V2000
    8.1500    1.2830   23.3940 N   0  0  0  0  0  0  0  0  0  0  0  0
    9.0200    2.3920   23.8260 C   0  0  0  0  0  0  0  0  0  0  0  0
   10.3920    2.0870   23.5840 C   0  0  0  0  0  0  0  0  0  0  0  0
    7.9290    0.9540   21.9820 C   0  0  0  0  0  0  0  0  0  0  0  0
    8.6570    1.4520   21.0980 O   0  0  0  0  0  0  0  0  0  0  0  0
    6.8160    0.0880   21.7390 C   0  0  2  0  0  0  0  0  0  0  0  0
    7.2530   -1.3060   22.0340 N   0  0  0  0  0  0  0  0  0  0  0  0
   11.2220    3.3660   23.4440 C   0  0  0  0  0  0  0  0  0  0  0  0
    6.3140    0.3970   20.3510 C   0  0  0  0  0  0  0  0  0  0  0  0
   11.9860    3.2990   22.4920 O   0  0  0  0  0  0  0  0  0  0  0  0
   11.1090    4.4780   24.3180 O   0  0  0  0  0  0  0  0  0  0  0  0
    6.1720   -2.0470   22.7410 C   0  0  0  0  0  0  0  0  0  0  0  0
    5.1150    1.3100   20.1870 C   0  0  0  0  0  0  0  0  0  0  0  0
    6.8170   -0.0430   19.1250 C   0  0  0  0  0  0  0  0  0  0  0  0
    8.5670   -1.4890   22.5870 C   0  0  0  0  0  0  0  0  0  0  0  0
   12.2980    4.5030   21.9670 C   0  0  0  0  0  0  0  0  0  0  0  0
    5.5290   -2.9910   21.8930 C   0  0  0  0  0  0  0  0  0  0  0  0
    6.3340    0.2830   17.8830 N   0  0  0  0  0  0  0  0  0  0  0  0
    4.6620    1.6110   18.9270 C   0  0  0  0  0  0  0  0  0  0  0  0
    9.6500   -1.1700   21.8150 C   0  0  0  0  0  0  0  0  0  0  0  0
    8.8400   -1.9730   23.8800 C   0  0  0  0  0  0  0  0  0  0  0  0
   13.3810    5.1810   22.8020 C   0  0  0  0  0  0  0  0  0  0  0  0
    5.2760    1.1000   17.8330 C   0  0  0  0  0  0  0  0  0  0  0  0
   10.9290   -1.2940   22.2880 C   0  0  0  0  0  0  0  0  0  0  0  0
   10.1150   -2.0830   24.3520 C   0  0  0  0  0  0  0  0  0  0  0  0
    6.1260   -4.4590   21.6430 C   0  0  2  0  0  0  0  0  0  0  0  0
    7.9720   -2.4620   24.9970 C   0  0  0  0  0  0  0  0  0  0  0  0
    6.5830   -4.2080   20.1440 C   0  0  0  0  0  0  0  0  0  0  0  0
   11.2320   -1.7760   23.6700 C   0  0  0  0  0  0  0  0  0  0  0  0
    5.2840   -5.5750   21.8970 C   0  0  0  0  0  0  0  0  0  0  0  0
    7.1910   -4.7480   22.7390 C   0  0  0  0  0  0  0  0  0  0  0  0
    8.3910   -3.8290   25.3930 N   0  0  0  0  0  0  0  0  0  0  0  0
   12.6140   -1.8580   24.1790 C   0  0  0  0  0  0  0  0  0  0  0  0
    5.5570   -3.4710   19.2600 C   0  0  0  0  0  0  0  0  0  0  0  0
    4.4700   -5.4140   23.0670 C   0  0  2  0  0  0  0  0  0  0  0  0
    6.6450   -4.9070   24.0520 C   0  0  0  0  0  0  0  0  0  0  0  0
    8.5250   -4.1170   26.8100 C   0  0  0  0  0  0  0  0  0  0  0  0
    9.4970   -4.4450   24.6650 C   0  0  0  0  0  0  0  0  0  0  0  0
   12.8600   -0.5100   24.7840 C   0  0  0  0  0  0  0  0  0  0  0  0
   13.4990   -2.0900   22.9840 C   0  0  0  0  0  0  0  0  0  0  0  0
   12.9050   -2.9310   25.2430 C   0  0  0  0  0  0  0  0  0  0  0  0
    3.2020   -6.4450   23.0860 C   0  0  2  0  0  0  0  0  0  0  0  0
    3.9890   -4.3270   23.3060 O   0  0  0  0  0  0  0  0  0  0  0  0
    5.3350   -5.5330   24.2460 N   0  0  0  0  0  0  0  0  0  0  0  0
    8.3750   -5.4810   27.0610 C   0  0  0  0  0  0  0  0  0  0  0  0
    9.4980   -5.9080   24.9370 C   0  0  0  0  0  0  0  0  0  0  0  0
    1.9250   -5.7160   23.1710 N   0  0  0  0  0  0  0  0  0  0  0  0
    3.1930   -7.3490   24.1600 C   0  0  1  0  0  0  0  0  0  0  0  0
    4.8030   -5.2320   25.8600 S   0  0  0  0  0  0  0  0  0  0  0  0
    9.4170   -6.2600   26.3670 N   0  0  0  0  0  0  0  0  0  0  0  0
    2.1260   -8.2470   24.2200 C   0  0  0  0  0  0  0  0  0  0  0  0
    4.3150   -7.8310   24.2310 O   0  0  0  0  0  0  0  0  0  0  0  0
    0.7380   -6.2420   22.4720 C   0  0  0  0  0  0  0  0  0  0  0  0
    5.9460   -4.7710   26.5860 O   0  0  0  0  0  0  0  0  0  0  0  0
    4.0930   -6.3600   26.4250 O   0  0  0  0  0  0  0  0  0  0  0  0
    3.6950   -3.8450   25.8880 C   0  0  0  0  0  0  0  0  0  0  0  0
    0.7740   -7.4800   21.7580 O   0  0  0  0  0  0  0  0  0  0  0  0
   -0.5130   -5.3820   22.5620 C   0  0  0  0  0  0  0  0  0  0  0  0
    4.1870   -2.5390   26.1310 C   0  0  0  0  0  0  0  0  0  0  0  0
    2.3320   -4.1270   25.6670 C   0  0  0  0  0  0  0  0  0  0  0  0
    5.4920   -2.3250   26.3380 F   0  0  0  0  0  0  0  0  0  0  0  0
    1.3310   -2.9810   25.6930 C   0  0  0  0  0  0  0  0  0  0  0  0
    3.3660   -1.4090   26.1770 C   0  0  0  0  0  0  0  0  0  0  0  0
    1.8400   -1.5610   25.9570 C   0  0  0  0  0  0  0  0  0  0  0  0
  1  2  1  0
  2  3  1  0
  1  4  1  0
  4  5  2  0
  6  4  1  6
  6  7  1  0
  3  8  1  0
  6  9  1  0
  8 10  1  0
  8 11  2  0
  7 12  1  0
  9 13  2  0
  9 14  1  0
  7 15  1  0
 10 16  1  0
 12 17  1  0
 14 18  2  0
 13 19  1  0
 15 20  2  0
 15 21  1  0
 16 22  1  0
 18 23  1  0
 19 23  2  0
 20 24  1  0
 21 25  2  0
 26 17  1  1
 21 27  1  0
 26 28  1  0
 24 29  2  0
 25 29  1  0
 26 30  1  0
 26 31  1  0
 27 32  1  0
 29 33  1  0
 28 34  2  3
 30 35  1  0
 31 36  1  0
 32 37  1  0
 32 38  1  0
 33 39  1  0
 33 40  1  0
 33 41  1  0
 35 42  1  0
 35 43  1  6
 35 44  1  0
 36 44  1  0
 37 45  1  0
 38 46  1  0
 42 47  1  1
 42 48  1  0
 44 49  1  0
 45 50  1  0
 46 50  1  0
 48 51  1  6
 48 52  1  0
 47 53  1  0
 49 54  2  0
 49 55  2  0
 49 56  1  0
 53 57  2  0
 53 58  1  0
 56 59  2  0
 56 60  1  0
 59 61  1  0
 60 62  2  0
 59 63  1  0
 62 64  1  0
 63 64  2  0
M  END
