x0978-x0769-x2703
     RDKit          3D

 57 62  0  0  0  0  0  0  0  0999 V2000
    2.1780   -5.6670   23.2570 N   0  0  0  0  0  0  0  0  0  0  0  0
    3.4560   -6.4060   23.3000 C   0  0  2  0  0  0  0  0  0  0  0  0
    3.8220   -6.8430   24.7540 C   0  0  1  0  0  0  0  0  0  0  0  0
    0.9190   -6.1440   22.6530 C   0  0  0  0  0  0  0  0  0  0  0  0
    0.9470   -7.3750   21.9300 O   0  0  0  0  0  0  0  0  0  0  0  0
   -0.3040   -5.4600   22.7410 C   0  0  0  0  0  0  0  0  0  0  0  0
    4.7640   -5.4030   22.8710 C   0  0  2  0  0  0  0  0  0  0  0  0
    2.5510   -7.1970   25.5500 C   0  0  0  0  0  0  0  0  0  0  0  0
    4.5270   -7.8220   24.5140 O   0  0  0  0  0  0  0  0  0  0  0  0
    4.0680   -4.1630   22.7030 O   0  0  0  0  0  0  0  0  0  0  0  0
    4.6920   -5.4560   25.4100 S   0  0  0  0  0  0  0  0  0  0  0  0
    5.3620   -5.5500   21.6770 C   0  0  0  0  0  0  0  0  0  0  0  0
    5.6580   -5.5070   24.0140 N   0  0  0  0  0  0  0  0  0  0  0  0
    4.9180   -6.2510   26.5920 O   0  0  0  0  0  0  0  0  0  0  0  0
    3.6010   -4.1380   25.6630 C   0  0  0  0  0  0  0  0  0  0  0  0
    6.3980   -4.6580   21.5560 C   0  0  1  0  0  0  0  0  0  0  0  0
    7.0350   -5.1020   23.7590 C   0  0  0  0  0  0  0  0  0  0  0  0
    6.5680   -4.2360   20.0290 C   0  0  0  0  0  0  0  0  0  0  0  0
    6.2980   -3.3410   22.2820 C   0  0  0  0  0  0  0  0  0  0  0  0
    4.1820   -2.7500   26.0120 C   0  0  0  0  0  0  0  0  0  0  0  0
    2.2200   -4.2790   25.5590 C   0  0  0  0  0  0  0  0  0  0  0  0
    7.4440   -5.1110   22.3620 C   0  0  0  0  0  0  0  0  0  0  0  0
    5.3740   -3.5090   19.3740 C   0  0  0  0  0  0  0  0  0  0  0  0
    5.5050   -2.5560   26.1290 F   0  0  0  0  0  0  0  0  0  0  0  0
    6.0790   -2.0200   21.6700 C   0  0  0  0  0  0  0  0  0  0  0  0
    1.3250   -3.1080   25.7790 C   0  0  0  0  0  0  0  0  0  0  0  0
    3.2880   -1.5570   26.2350 C   0  0  0  0  0  0  0  0  0  0  0  0
    7.0360   -1.0120   22.1230 N   0  0  0  0  0  0  0  0  0  0  0  0
    1.9150   -1.7410   26.1200 C   0  0  0  0  0  0  0  0  0  0  0  0
    6.7340    0.2770   21.7590 C   0  0  1  0  0  0  0  0  0  0  0  0
    8.3650   -1.2800   22.5620 C   0  0  0  0  0  0  0  0  0  0  0  0
    7.8540    1.0950   21.8210 C   0  0  0  0  0  0  0  0  0  0  0  0
    6.2120    0.4990   20.4440 C   0  0  0  0  0  0  0  0  0  0  0  0
    8.6410   -1.2060   23.9230 C   0  0  0  0  0  0  0  0  0  0  0  0
    9.4310   -1.5870   21.7480 C   0  0  0  0  0  0  0  0  0  0  0  0
    7.8960    2.2400   22.3500 N   0  0  0  0  0  0  0  0  0  0  0  0
    8.8180    0.6240   21.2370 O   0  0  0  0  0  0  0  0  0  0  0  0
    4.9920    1.3120   20.2160 C   0  0  0  0  0  0  0  0  0  0  0  0
    6.8940   -0.0700   19.1990 C   0  0  0  0  0  0  0  0  0  0  0  0
   10.8120   -1.7890   22.2440 N   0  0  0  0  0  0  0  0  0  0  0  0
   10.0770   -1.4190   24.4160 C   0  0  0  0  0  0  0  0  0  0  0  0
    6.3020    0.2490   17.9170 N   0  0  0  0  0  0  0  0  0  0  0  0
    4.4770    1.5780   18.9670 C   0  0  0  0  0  0  0  0  0  0  0  0
   11.1350   -1.6950   23.5480 C   0  0  0  0  0  0  0  0  0  0  0  0
    8.2320    3.5240   22.6910 C   0  0  0  0  0  0  0  0  0  0  0  0
   12.5260   -1.8380   23.9850 C   0  0  0  0  0  0  0  0  0  0  0  0
    5.0910    1.0830   17.8140 C   0  0  0  0  0  0  0  0  0  0  0  0
    9.5660    3.5560   23.4670 C   0  0  0  0  0  0  0  0  0  0  0  0
    7.5520    4.6780   22.4100 C   0  0  0  0  0  0  0  0  0  0  0  0
   10.2990    2.2980   23.7870 C   0  0  0  0  0  0  0  0  0  0  0  0
    6.2510    4.7240   21.6720 C   0  0  0  0  0  0  0  0  0  0  0  0
   12.6970   -2.9830   24.9590 C   0  0  0  0  0  0  0  0  0  0  0  0
   12.8400   -0.7180   24.6080 C   0  0  0  0  0  0  0  0  0  0  0  0
   10.0250    4.8240   23.8350 C   0  0  0  0  0  0  0  0  0  0  0  0
    8.0790    5.8950   22.8160 C   0  0  0  0  0  0  0  0  0  0  0  0
    9.4430    1.5570   24.6060 C   0  0  0  0  0  0  0  0  0  0  0  0
    9.2910    5.9600   23.5100 C   0  0  0  0  0  0  0  0  0  0  0  0
  2  1  1  1
  2  3  1  0
  1  4  1  0
  4  5  2  0
  4  6  1  0
  2  7  1  0
  3  8  1  1
  3  9  1  0
  7 10  1  6
  3 11  1  0
  7 12  1  0
  7 13  1  0
 11 13  1  0
 11 14  2  0
 11 15  1  0
 12 16  1  0
 13 17  1  0
 16 18  1  6
 16 19  1  0
 15 20  2  0
 15 21  1  0
 16 22  1  0
 17 22  1  0
 18 23  2  3
 20 24  1  0
 19 25  1  0
 21 26  2  0
 20 27  1  0
 25 28  1  0
 26 29  1  0
 27 29  2  0
 28 30  1  0
 28 31  1  0
 30 32  1  6
 30 33  1  0
 31 34  2  0
 31 35  1  0
 32 36  1  0
 32 37  2  0
 33 38  2  0
 33 39  1  0
 35 40  2  0
 34 41  1  0
 39 42  2  0
 38 43  1  0
 40 44  1  0
 41 44  2  0
 36 45  1  0
 44 46  1  0
 42 47  1  0
 43 47  2  0
 45 48  2  0
 45 49  1  0
 48 50  1  0
 49 51  1  0
 46 52  1  0
 46 53  1  0
 48 54  1  0
 49 55  2  0
 50 56  1  0
 54 57  2  0
 55 57  1  0
M  END
