x0978-x0540-x2694-x2052
     RDKit          3D

 72 79  0  0  0  0  0  0  0  0999 V2000
    2.0990   -5.5160   23.2040 N   0  0  0  0  0  0  0  0  0  0  0  0
    3.3470   -6.2940   23.2070 C   0  0  2  0  0  0  0  0  0  0  0  0
    3.4710   -7.2040   24.4400 C   0  0  1  0  0  0  0  0  0  0  0  0
    0.8590   -6.1020   22.6240 C   0  0  0  0  0  0  0  0  0  0  0  0
    0.8660   -7.1650   22.0110 O   0  0  0  0  0  0  0  0  0  0  0  0
   -0.3190   -5.3660   22.8240 C   0  0  0  0  0  0  0  0  0  0  0  0
    4.6570   -5.4340   23.0090 C   0  0  0  0  0  0  0  0  0  0  0  0
    2.1600   -7.9720   24.7560 C   0  0  0  0  0  0  0  0  0  0  0  0
    4.4960   -7.8430   24.2910 O   0  0  0  0  0  0  0  0  0  0  0  0
    5.4490   -5.5750   21.7600 N   0  0  0  0  0  0  0  0  0  0  0  0
    5.1350   -4.5700   23.9770 N   0  0  0  0  0  0  0  0  0  0  0  0
    6.6020   -4.6850   21.4850 C   0  0  1  0  0  0  0  0  0  0  0  0
    6.4300   -3.9070   23.7490 C   0  0  1  0  0  0  0  0  0  0  0  0
    6.5950   -4.1870   20.0140 C   0  0  0  0  0  0  0  0  0  0  0  0
    6.8190   -3.5730   22.3920 N   0  0  0  0  0  0  0  0  0  0  0  0
    6.5860   -2.6090   24.2470 C   0  0  2  0  0  0  0  0  0  0  0  0
    5.4120   -3.4810   19.3980 C   0  0  0  0  0  0  0  0  0  0  0  0
    5.8070   -2.0860   25.4720 C   0  0  0  0  0  0  0  0  0  0  0  0
    6.6340   -2.1110   22.1430 C   0  0  1  0  0  0  0  0  0  0  0  0
    6.0730   -1.7360   23.3520 C   0  0  0  0  0  0  0  0  0  0  0  0
    7.5850   -1.0040   21.8050 N   0  0  0  0  0  0  0  0  0  0  0  0
    4.4850   -2.3280   25.7050 O   0  0  0  0  0  0  0  0  0  0  0  0
    6.6110   -1.3200   26.2730 N   0  0  0  0  0  0  0  0  0  0  0  0
    6.9800    0.1960   21.4820 C   0  0  2  0  0  0  0  0  0  0  0  0
    8.7640   -1.0660   22.6840 C   0  0  0  0  0  0  0  0  0  0  0  0
    6.2400   -0.4460   27.3420 C   0  0  0  0  0  0  0  0  0  0  0  0
    7.9660    1.1730   21.7890 C   0  0  0  0  0  0  0  0  0  0  0  0
    5.6010    0.5260   22.2850 C   0  0  0  0  0  0  0  0  0  0  0  0
    6.5200    0.4180   20.0590 C   0  0  0  0  0  0  0  0  0  0  0  0
    8.8950   -0.9570   24.0030 N   0  0  0  0  0  0  0  0  0  0  0  0
   10.1210   -1.3000   22.0680 C   0  0  0  0  0  0  0  0  0  0  0  0
    6.5650    0.9160   27.2820 C   0  0  0  0  0  0  0  0  0  0  0  0
    5.5620   -0.8680   28.4800 C   0  0  0  0  0  0  0  0  0  0  0  0
    7.8110    2.0720   22.8000 N   0  0  0  0  0  0  0  0  0  0  0  0
    8.9780    1.2760   21.0880 O   0  0  0  0  0  0  0  0  0  0  0  0
    4.7300    1.3370   21.5700 C   0  0  2  0  0  0  0  0  0  0  0  0
    5.2320    1.1130   20.1440 C   0  0  0  0  0  0  0  0  0  0  0  0
    6.9970    0.1450   18.8070 C   0  0  0  0  0  0  0  0  0  0  0  0
   10.2420   -1.1030   24.2890 O   0  0  0  0  0  0  0  0  0  0  0  0
   10.9750   -1.3020   23.1550 C   0  0  0  0  0  0  0  0  0  0  0  0
    6.2730    1.8460   28.2400 N   0  0  0  0  0  0  0  0  0  0  0  0
    5.2440    0.0480   29.4880 C   0  0  0  0  0  0  0  0  0  0  0  0
   12.4850   -1.4590   23.3320 C   0  0  0  0  0  0  0  0  0  0  0  0
    4.7750    2.6500   21.9630 C   0  0  0  0  0  0  0  0  0  0  0  0
    6.3280    0.5310   17.7000 N   0  0  0  0  0  0  0  0  0  0  0  0
    4.5430    1.5090   19.0240 C   0  0  0  0  0  0  0  0  0  0  0  0
    8.5330    3.2850   23.0200 C   0  0  0  0  0  0  0  0  0  0  0  0
    5.6170    1.3720   29.3250 C   0  0  0  0  0  0  0  0  0  0  0  0
   12.9070   -0.1860   23.6690 C   0  0  0  0  0  0  0  0  0  0  0  0
   12.9700   -2.0430   22.0450 C   0  0  0  0  0  0  0  0  0  0  0  0
   12.7110   -2.3910   24.2790 C   0  0  0  0  0  0  0  0  0  0  0  0
    3.6620    3.1660   22.7410 N   0  0  0  0  0  0  0  0  0  0  0  0
    5.2820    2.2390   30.3500 O   0  0  0  0  0  0  0  0  0  0  0  0
    5.1540    1.1950   17.8250 C   0  0  0  0  0  0  0  0  0  0  0  0
    9.7970    3.1950   23.6380 C   0  0  0  0  0  0  0  0  0  0  0  0
    8.0050    4.6860   22.6200 C   0  0  0  0  0  0  0  0  0  0  0  0
   10.3520    1.8690   24.0470 C   0  0  0  0  0  0  0  0  0  0  0  0
    2.9650    2.4220   23.6300 C   0  0  0  0  0  0  0  0  0  0  0  0
    6.2930    3.2380   30.5370 C   0  0  0  0  0  0  0  0  0  0  0  0
   10.6810    4.4360   23.9330 C   0  0  0  0  0  0  0  0  0  0  0  0
    8.8540    5.9110   22.9090 C   0  0  0  0  0  0  0  0  0  0  0  0
    3.2410    1.2670   23.9280 O   0  0  0  0  0  0  0  0  0  0  0  0
    1.9180    3.0970   24.2000 N   0  0  0  0  0  0  0  0  0  0  0  0
   10.1750    5.8230   23.5580 C   0  0  0  0  0  0  0  0  0  0  0  0
   11.0170    6.8580   23.8700 O   0  0  0  0  0  0  0  0  0  0  0  0
    0.7930    3.7020   23.4920 C   0  0  0  0  0  0  0  0  0  0  0  0
   11.8520    6.6730   24.9340 C   0  0  0  0  0  0  0  0  0  0  0  0
    0.4120    5.0290   24.1510 C   0  0  0  0  0  0  0  0  0  0  0  0
   -0.3440    2.8040   23.4400 C   0  0  0  0  0  0  0  0  0  0  0  0
   -0.7730    4.8780   25.0990 C   0  0  0  0  0  0  0  0  0  0  0  0
   -1.6780    3.3490   23.5750 C   0  0  0  0  0  0  0  0  0  0  0  0
   -1.9050    4.4290   24.4190 C   0  0  0  0  0  0  0  0  0  0  0  0
  2  1  1  1
  2  3  1  0
  1  4  1  0
  4  5  2  0
  4  6  1  0
  2  7  1  0
  3  8  1  6
  3  9  1  0
  7 10  1  0
  7 11  2  0
 10 12  1  0
 13 11  1  6
 12 14  1  6
 12 15  1  0
 13 15  1  0
 13 16  1  0
 14 17  2  3
 16 18  1  1
 15 19  1  0
 16 20  1  0
 19 20  1  0
 19 21  1  1
 18 22  2  0
 18 23  1  0
 21 24  1  0
 21 25  1  0
 23 26  1  0
 24 27  1  1
 24 28  1  0
 24 29  1  0
 25 30  2  0
 25 31  1  0
 26 32  2  0
 26 33  1  0
 27 34  1  0
 27 35  2  0
 28 36  1  0
 29 37  2  0
 36 37  1  0
 29 38  1  0
 30 39  1  0
 31 40  2  0
 39 40  1  0
 32 41  1  0
 33 42  2  0
 40 43  1  0
 36 44  1  1
 38 45  2  0
 37 46  1  0
 34 47  1  0
 41 48  2  0
 42 48  1  0
 43 49  1  0
 43 50  1  0
 43 51  1  0
 44 52  1  0
 48 53  1  0
 45 54  1  0
 46 54  2  0
 47 55  2  0
 47 56  1  0
 55 57  1  0
 52 58  1  0
 53 59  1  0
 55 60  1  0
 56 61  2  0
 58 62  2  0
 58 63  1  0
 60 64  2  0
 61 64  1  0
 64 65  1  0
 63 66  1  0
 65 67  1  0
 66 68  1  0
 66 69  1  0
 68 70  1  0
 69 71  1  0
 70 72  1  0
 71 72  1  0
M  END
