x0978-x2705-x2694-x0820
     RDKit          3D

 54 59  0  0  0  0  0  0  0  0999 V2000
    1.9070   -5.4840   23.3680 N   0  0  0  0  0  0  0  0  0  0  0  0
    3.2610   -6.0310   23.2490 C   0  0  2  0  0  0  0  0  0  0  0  0
    3.4710   -7.1360   24.3470 C   0  0  1  0  0  0  0  0  0  0  0  0
    0.7440   -6.0220   22.6450 C   0  0  0  0  0  0  0  0  0  0  0  0
    0.9000   -7.2650   21.9570 O   0  0  0  0  0  0  0  0  0  0  0  0
   -0.5050   -5.3890   22.5950 C   0  0  0  0  0  0  0  0  0  0  0  0
    4.2720   -4.8050   23.0830 C   0  0  2  0  0  0  0  0  0  0  0  0
    2.2090   -8.0030   24.4980 C   0  0  0  0  0  0  0  0  0  0  0  0
    4.5370   -7.6950   24.1430 O   0  0  0  0  0  0  0  0  0  0  0  0
    4.9790   -4.6810   21.7520 N   0  0  0  0  0  0  0  0  0  0  0  0
    5.3500   -4.7060   24.0930 C   0  0  0  0  0  0  0  0  0  0  0  0
    6.4390   -4.4040   21.5130 C   0  0  1  0  0  0  0  0  0  0  0  0
    6.6610   -4.1650   23.8670 C   0  0  0  0  0  0  0  0  0  0  0  0
    5.2060   -5.1470   25.4310 C   0  0  0  0  0  0  0  0  0  0  0  0
    6.5860   -4.0180   20.0220 C   0  0  0  0  0  0  0  0  0  0  0  0
    7.1510   -3.4820   22.5550 C   0  0  2  0  0  0  0  0  0  0  0  0
    7.3860   -4.5010   25.0260 C   0  0  2  0  0  0  0  0  0  0  0  0
    6.4190   -5.0060   26.0310 C   0  0  0  0  0  0  0  0  0  0  0  0
    5.4060   -3.3660   19.2700 C   0  0  0  0  0  0  0  0  0  0  0  0
    7.1930   -1.8250   22.5840 C   0  0  2  0  0  0  0  0  0  0  0  0
    6.6970   -5.3210   27.3330 C   0  0  0  0  0  0  0  0  0  0  0  0
    8.6500   -4.0340   25.6280 C   0  0  0  0  0  0  0  0  0  0  0  0
    7.4220   -0.7910   21.4090 C   0  0  2  0  0  0  0  0  0  0  0  0
    7.9740   -4.9790   27.7920 C   0  0  0  0  0  0  0  0  0  0  0  0
    8.9030   -4.3140   26.9580 C   0  0  0  0  0  0  0  0  0  0  0  0
    8.6170   -1.6780   23.1480 C   0  0  0  0  0  0  0  0  0  0  0  0
    8.1390    0.5690   21.8460 C   0  0  0  0  0  0  0  0  0  0  0  0
    6.5470   -0.2120   20.3420 C   0  0  0  0  0  0  0  0  0  0  0  0
    8.8430   -1.5110   24.4450 N   0  0  0  0  0  0  0  0  0  0  0  0
    9.8450   -1.6900   22.5080 C   0  0  0  0  0  0  0  0  0  0  0  0
    7.5020    1.6090   22.5380 N   0  0  0  0  0  0  0  0  0  0  0  0
    9.4800    0.7660   21.4560 O   0  0  0  0  0  0  0  0  0  0  0  0
    5.2370    0.5520   20.5310 C   0  0  0  0  0  0  0  0  0  0  0  0
    7.0300   -0.3690   18.8630 C   0  0  0  0  0  0  0  0  0  0  0  0
   10.1800   -1.4260   24.5620 N   0  0  0  0  0  0  0  0  0  0  0  0
   10.8670   -1.5340   23.3460 C   0  0  0  0  0  0  0  0  0  0  0  0
   12.3760   -1.4630   23.2340 C   0  0  0  0  0  0  0  0  0  0  0  0
    6.2120    0.2340   17.7820 N   0  0  0  0  0  0  0  0  0  0  0  0
    4.5470    1.0710   19.4610 C   0  0  0  0  0  0  0  0  0  0  0  0
    8.1360    2.9260   22.7940 C   0  0  0  0  0  0  0  0  0  0  0  0
   12.7860   -0.1630   23.5070 C   0  0  0  0  0  0  0  0  0  0  0  0
   12.9880   -2.3880   24.3120 C   0  0  0  0  0  0  0  0  0  0  0  0
   12.8220   -1.8940   21.9470 C   0  0  0  0  0  0  0  0  0  0  0  0
    5.0840    0.8890   18.0800 C   0  0  0  0  0  0  0  0  0  0  0  0
    9.4640    2.9640   23.4860 C   0  0  0  0  0  0  0  0  0  0  0  0
    7.5500    4.2850   22.4120 C   0  0  0  0  0  0  0  0  0  0  0  0
   10.2070    1.7670   23.9600 C   0  0  0  0  0  0  0  0  0  0  0  0
    6.2190    4.4440   21.7200 C   0  0  0  0  0  0  0  0  0  0  0  0
   10.1350    4.3320   23.7510 C   0  0  0  0  0  0  0  0  0  0  0  0
    8.2380    5.5280   22.6980 C   0  0  0  0  0  0  0  0  0  0  0  0
    9.3760    1.1230   25.0800 C   0  0  0  0  0  0  0  0  0  0  0  0
    9.5790    5.5350   23.3930 C   0  0  0  0  0  0  0  0  0  0  0  0
   10.3250    6.7100   23.7180 O   0  0  0  0  0  0  0  0  0  0  0  0
   11.4790    6.5840   24.5750 C   0  0  0  0  0  0  0  0  0  0  0  0
  2  1  1  1
  2  3  1  0
  1  4  1  0
  4  5  2  0
  4  6  1  0
  2  7  1  0
  3  8  1  6
  3  9  1  0
  7 10  1  6
  7 11  1  0
 10 12  1  0
 11 13  2  0
 11 14  1  0
 12 15  1  6
 12 16  1  0
 16 13  1  1
 13 17  1  0
 14 18  2  0
 17 18  1  0
 15 19  2  3
 16 20  1  0
 18 21  1  0
 17 22  1  1
 20 23  1  0
 21 24  2  0
 22 25  2  0
 24 25  1  0
 20 26  1  1
 23 27  1  1
 23 28  1  0
 26 29  2  0
 26 30  1  0
 27 31  1  0
 27 32  2  0
 28 33  2  0
 28 34  1  0
 29 35  1  0
 30 36  2  0
 35 36  1  0
 36 37  1  0
 34 38  2  0
 33 39  1  0
 31 40  1  0
 37 41  1  0
 37 42  1  0
 37 43  1  0
 38 44  1  0
 39 44  2  0
 40 45  2  0
 40 46  1  0
 45 47  1  0
 46 48  1  0
 45 49  1  0
 46 50  2  0
 47 51  1  0
 49 52  2  0
 50 52  1  0
 52 53  1  0
 53 54  1  0
M  END
