x0978-x1493-x0691-x3113
     RDKit          3D

 58 61  0  0  0  0  0  0  0  0999 V2000
    7.2350   -1.1600   21.9190 N   0  0  0  0  0  0  0  0  0  0  0  0
    7.0690    0.1700   21.6300 C   0  0  1  0  0  0  0  0  0  0  0  0
    8.1980    1.1330   21.8840 C   0  0  0  0  0  0  0  0  0  0  0  0
    6.1070   -1.8850   22.3900 C   0  0  0  0  0  0  0  0  0  0  0  0
    8.4810   -1.4400   22.5910 C   0  0  0  0  0  0  0  0  0  0  0  0
    5.6740   -2.9450   21.5670 C   0  0  0  0  0  0  0  0  0  0  0  0
    6.4410    0.4830   20.2390 C   0  0  0  0  0  0  0  0  0  0  0  0
    9.6500   -1.3270   21.8460 C   0  0  0  0  0  0  0  0  0  0  0  0
    8.6120   -1.8040   23.9410 C   0  0  0  0  0  0  0  0  0  0  0  0
    8.3740    1.5090   23.2040 N   0  0  0  0  0  0  0  0  0  0  0  0
    8.9030    1.6100   21.0070 O   0  0  0  0  0  0  0  0  0  0  0  0
    5.3660    1.3480   20.2020 C   0  0  0  0  0  0  0  0  0  0  0  0
    6.9570   -0.0890   19.1260 C   0  0  0  0  0  0  0  0  0  0  0  0
   10.9060   -1.5420   22.4010 C   0  0  0  0  0  0  0  0  0  0  0  0
    9.9920   -2.0500   24.5900 C   0  0  0  0  0  0  0  0  0  0  0  0
    6.1960   -4.4430   21.7980 C   0  0  2  0  0  0  0  0  0  0  0  0
    9.2460    2.5360   23.5890 C   0  0  0  0  0  0  0  0  0  0  0  0
    6.6960   -4.8920   20.3830 C   0  0  0  0  0  0  0  0  0  0  0  0
    6.2990    0.2900   17.8810 N   0  0  0  0  0  0  0  0  0  0  0  0
    4.7210    1.7190   19.0330 C   0  0  0  0  0  0  0  0  0  0  0  0
   11.0710   -1.8840   23.7390 C   0  0  0  0  0  0  0  0  0  0  0  0
    5.2460   -5.4380   22.1450 C   0  0  0  0  0  0  0  0  0  0  0  0
    7.0970   -4.4280   22.7970 C   0  0  0  0  0  0  0  0  0  0  0  0
   10.6600    2.0160   23.3460 C   0  0  0  0  0  0  0  0  0  0  0  0
   12.5280   -2.0270   24.2020 C   0  0  0  0  0  0  0  0  0  0  0  0
    5.9040   -6.0820   19.8430 C   0  0  0  0  0  0  0  0  0  0  0  0
    5.2550    1.1410   17.8710 C   0  0  0  0  0  0  0  0  0  0  0  0
    4.5000   -5.2350   23.2850 C   0  0  2  0  0  0  0  0  0  0  0  0
    6.4620   -4.1050   24.0400 C   0  0  0  0  0  0  0  0  0  0  0  0
   11.6390    3.0180   23.3130 C   0  0  0  0  0  0  0  0  0  0  0  0
   13.3870   -2.2760   23.1370 C   0  0  0  0  0  0  0  0  0  0  0  0
   12.8430   -3.0740   25.2790 C   0  0  0  0  0  0  0  0  0  0  0  0
   12.8200   -0.6620   24.7960 C   0  0  0  0  0  0  0  0  0  0  0  0
    3.2560   -6.2700   23.3870 C   0  0  2  0  0  0  0  0  0  0  0  0
    3.7890   -4.0580   22.8750 O   0  0  0  0  0  0  0  0  0  0  0  0
    5.3360   -4.9550   24.3590 C   0  0  1  0  0  0  0  0  0  0  0  0
   11.7140    3.8020   22.3820 O   0  0  0  0  0  0  0  0  0  0  0  0
    2.0530   -5.4520   23.3180 N   0  0  0  0  0  0  0  0  0  0  0  0
    3.3160   -7.3600   24.4370 C   0  0  1  0  0  0  0  0  0  0  0  0
    4.6440   -4.6880   26.0400 S   0  0  0  0  0  0  0  0  0  0  0  0
    6.0740   -6.1300   24.7550 C   0  0  0  0  0  0  0  0  0  0  0  0
   12.9010    4.5940   22.4930 C   0  0  0  0  0  0  0  0  0  0  0  0
    2.2000   -8.3260   24.3660 C   0  0  0  0  0  0  0  0  0  0  0  0
    4.3540   -7.9850   24.2770 O   0  0  0  0  0  0  0  0  0  0  0  0
    0.8930   -6.0950   22.6340 C   0  0  0  0  0  0  0  0  0  0  0  0
    4.1740   -5.9180   26.6280 O   0  0  0  0  0  0  0  0  0  0  0  0
    5.6360   -4.1420   26.9360 O   0  0  0  0  0  0  0  0  0  0  0  0
    7.2090   -5.8270   25.5230 C   0  0  0  0  0  0  0  0  0  0  0  0
    3.3840   -3.6680   25.9940 C   0  0  0  0  0  0  0  0  0  0  0  0
    1.0260   -7.1700   22.0610 O   0  0  0  0  0  0  0  0  0  0  0  0
   -0.3580   -5.4740   22.6330 C   0  0  0  0  0  0  0  0  0  0  0  0
    7.2290   -5.5730   26.7180 O   0  0  0  0  0  0  0  0  0  0  0  0
    3.6050   -2.2190   26.0280 C   0  0  0  0  0  0  0  0  0  0  0  0
    2.1180   -4.1780   25.9230 C   0  0  0  0  0  0  0  0  0  0  0  0
    2.3510   -1.3550   25.9850 C   0  0  0  0  0  0  0  0  0  0  0  0
    0.8960   -3.2910   25.8800 C   0  0  0  0  0  0  0  0  0  0  0  0
    2.5160   -0.0320   26.0170 F   0  0  0  0  0  0  0  0  0  0  0  0
    1.0460   -1.9200   25.9140 C   0  0  0  0  0  0  0  0  0  0  0  0
  1  2  1  0
  2  3  1  6
  1  4  1  0
  1  5  1  0
  4  6  1  0
  2  7  1  0
  5  8  2  0
  5  9  1  0
  3 10  1  0
  3 11  2  0
  7 12  2  0
  7 13  1  0
  8 14  1  0
  9 15  2  0
 16  6  1  6
 10 17  1  0
 16 18  1  0
 13 19  2  0
 12 20  1  0
 14 21  2  0
 15 21  1  0
 16 22  1  0
 16 23  1  0
 17 24  1  0
 21 25  1  0
 18 26  2  3
 19 27  1  0
 20 27  2  0
 22 28  1  0
 23 29  1  0
 24 30  1  0
 25 31  1  0
 25 32  1  0
 25 33  1  0
 28 34  1  0
 28 35  1  6
 28 36  1  0
 29 36  1  0
 30 37  1  0
 34 38  1  1
 34 39  1  0
 36 40  1  0
 36 41  1  1
 37 42  1  0
 39 43  1  6
 39 44  1  0
 38 45  1  0
 40 46  2  0
 40 47  2  0
 41 48  1  0
 40 49  1  0
 45 50  2  0
 45 51  1  0
 48 52  2  0
 49 53  2  0
 49 54  1  0
 53 55  1  0
 54 56  2  0
 55 57  1  0
 55 58  2  0
 56 58  1  0
M  END
