x0978-x0540-x2705-x1402
     RDKit          3D

 69 76  0  0  0  0  0  0  0  0999 V2000
    2.4680   -5.6720   23.0740 N   0  0  0  0  0  0  0  0  0  0  0  0
    3.6160   -6.5470   23.3610 C   0  0  2  0  0  0  0  0  0  0  0  0
    3.7970   -6.8610   24.8370 C   0  0  1  0  0  0  0  0  0  0  0  0
    1.1390   -6.2750   22.6340 C   0  0  0  0  0  0  0  0  0  0  0  0
    1.0430   -7.3270   22.0150 O   0  0  0  0  0  0  0  0  0  0  0  0
    0.0110   -5.5370   22.9930 C   0  0  0  0  0  0  0  0  0  0  0  0
    5.0030   -6.0840   23.0280 C   0  0  2  0  0  0  0  0  0  0  0  0
    2.3530   -7.1360   25.3980 C   0  0  0  0  0  0  0  0  0  0  0  0
    4.4990   -7.8600   24.7630 O   0  0  0  0  0  0  0  0  0  0  0  0
    4.8120   -5.4570   25.5070 S   0  0  0  0  0  0  0  0  0  0  0  0
    5.4840   -5.1570   23.8860 C   0  0  2  0  0  0  0  0  0  0  0  0
    5.3270   -5.6450   21.6210 C   0  0  0  0  0  0  0  0  0  0  0  0
    4.7410   -4.0510   23.6440 O   0  0  0  0  0  0  0  0  0  0  0  0
    5.3270   -6.2790   26.5750 O   0  0  0  0  0  0  0  0  0  0  0  0
    6.2580   -4.4900   21.4620 C   0  0  1  0  0  0  0  0  0  0  0  0
    7.0630   -5.0650   23.6450 C   0  0  0  0  0  0  0  0  0  0  0  0
    3.8770   -4.0160   25.9340 C   0  0  0  0  0  0  0  0  0  0  0  0
    6.4900   -4.1880   19.9660 C   0  0  0  0  0  0  0  0  0  0  0  0
    5.8130   -3.0900   21.7380 C   0  0  0  0  0  0  0  0  0  0  0  0
    7.3730   -4.6870   22.1930 C   0  0  0  0  0  0  0  0  0  0  0  0
    2.1710   -3.9510   25.8260 S   0  0  0  0  0  0  0  0  0  0  0  0
    4.3390   -2.7600   26.3660 C   0  0  0  0  0  0  0  0  0  0  0  0
    5.3680   -3.4510   19.2670 C   0  0  0  0  0  0  0  0  0  0  0  0
    6.5920   -2.2520   22.7430 C   0  0  0  0  0  0  0  0  0  0  0  0
    3.4540   -1.7950   26.6000 C   0  0  0  0  0  0  0  0  0  0  0  0
    2.0360   -2.2570   26.3450 C   0  0  0  0  0  0  0  0  0  0  0  0
    0.5660   -1.3220   26.5240 Cl  0  0  0  0  0  0  0  0  0  0  0  0
    7.4450   -1.2540   22.0690 N   0  0  0  0  0  0  0  0  0  0  0  0
    6.8980    0.0640   21.6690 C   0  0  2  0  0  0  0  0  0  0  0  0
    8.7110   -1.3200   22.7400 C   0  0  0  0  0  0  0  0  0  0  0  0
    7.7050    1.2010   21.9940 C   0  0  0  0  0  0  0  0  0  0  0  0
    5.5200    0.1190   22.3460 C   0  0  0  0  0  0  0  0  0  0  0  0
    6.4590    0.1960   20.2910 C   0  0  0  0  0  0  0  0  0  0  0  0
    8.8930   -1.4300   24.0660 N   0  0  0  0  0  0  0  0  0  0  0  0
   10.0850   -1.2930   22.1580 C   0  0  0  0  0  0  0  0  0  0  0  0
    7.5070    2.1270   22.9580 N   0  0  0  0  0  0  0  0  0  0  0  0
    8.7570    1.3640   21.1340 O   0  0  0  0  0  0  0  0  0  0  0  0
    4.7400    1.1270   21.6170 C   0  0  2  0  0  0  0  0  0  0  0  0
    5.2060    0.8620   20.2790 C   0  0  0  0  0  0  0  0  0  0  0  0
    7.0360   -0.1770   19.0980 C   0  0  0  0  0  0  0  0  0  0  0  0
   10.2240   -1.4740   24.4020 N   0  0  0  0  0  0  0  0  0  0  0  0
   11.0740   -1.3970   23.2750 C   0  0  0  0  0  0  0  0  0  0  0  0
   12.5520   -1.4060   23.2190 C   0  0  0  0  0  0  0  0  0  0  0  0
    5.0210    2.4720   22.1010 C   0  0  0  0  0  0  0  0  0  0  0  0
    6.3530    0.1650   17.8070 N   0  0  0  0  0  0  0  0  0  0  0  0
    4.6350    1.1420   19.1130 C   0  0  0  0  0  0  0  0  0  0  0  0
    8.2700    3.3870   23.0250 C   0  0  0  0  0  0  0  0  0  0  0  0
   12.9620   -0.1240   23.4960 C   0  0  0  0  0  0  0  0  0  0  0  0
   13.0770   -2.3550   24.2700 C   0  0  0  0  0  0  0  0  0  0  0  0
   12.9080   -1.8870   22.0100 C   0  0  0  0  0  0  0  0  0  0  0  0
    3.8880    3.1150   22.1240 N   0  0  0  0  0  0  0  0  0  0  0  0
    5.1630    0.8280   17.7980 C   0  0  0  0  0  0  0  0  0  0  0  0
    9.5980    3.3340   23.5140 C   0  0  0  0  0  0  0  0  0  0  0  0
    7.7380    4.6500   22.6290 C   0  0  0  0  0  0  0  0  0  0  0  0
   10.2680    2.0890   23.9530 C   0  0  0  0  0  0  0  0  0  0  0  0
    6.3640    4.8820   22.0930 C   0  0  0  0  0  0  0  0  0  0  0  0
    2.9030    2.7150   23.1630 C   0  0  0  0  0  0  0  0  0  0  0  0
   10.3870    4.4850   23.6190 C   0  0  0  0  0  0  0  0  0  0  0  0
    8.5610    5.7500   22.7530 C   0  0  0  0  0  0  0  0  0  0  0  0
    9.4160    1.3600   24.7910 C   0  0  0  0  0  0  0  0  0  0  0  0
    3.1520    1.9060   24.0500 O   0  0  0  0  0  0  0  0  0  0  0  0
    1.5920    3.3700   23.0540 N   0  0  0  0  0  0  0  0  0  0  0  0
    9.8530    5.7130   23.2310 C   0  0  0  0  0  0  0  0  0  0  0  0
    0.5010    3.2930   24.0040 C   0  0  0  0  0  0  0  0  0  0  0  0
    0.4900    4.6090   24.7020 C   0  0  0  0  0  0  0  0  0  0  0  0
   -0.7240    2.9360   23.1730 C   0  0  0  0  0  0  0  0  0  0  0  0
   -0.8440    5.0610   25.3120 C   0  0  0  0  0  0  0  0  0  0  0  0
   -2.0890    3.3120   23.7500 C   0  0  0  0  0  0  0  0  0  0  0  0
   -2.0410    4.6890   24.4260 C   0  0  0  0  0  0  0  0  0  0  0  0
  2  1  1  1
  2  3  1  0
  1  4  1  0
  4  5  2  0
  4  6  1  0
  2  7  1  0
  3  8  1  1
  3  9  1  0
  3 10  1  0
  7 11  1  0
 10 11  1  0
  7 12  1  6
 11 13  1  6
 10 14  2  0
 12 15  1  0
 11 16  1  0
 10 17  1  0
 15 18  1  6
 15 19  1  0
 15 20  1  0
 16 20  1  0
 17 21  1  0
 17 22  2  0
 18 23  2  3
 19 24  1  0
 22 25  1  0
 21 26  1  0
 25 26  2  0
 26 27  1  0
 24 28  1  0
 28 29  1  0
 28 30  1  0
 29 31  1  1
 29 32  1  0
 29 33  1  0
 30 34  2  0
 30 35  1  0
 31 36  1  0
 31 37  2  0
 32 38  1  0
 33 39  2  0
 38 39  1  0
 33 40  1  0
 34 41  1  0
 35 42  2  0
 41 42  1  0
 42 43  1  0
 38 44  1  1
 40 45  2  0
 39 46  1  0
 36 47  1  0
 43 48  1  0
 43 49  1  0
 43 50  1  0
 44 51  1  0
 45 52  1  0
 46 52  2  0
 47 53  2  0
 47 54  1  0
 53 55  1  0
 54 56  1  0
 51 57  1  0
 53 58  1  0
 54 59  2  0
 55 60  1  0
 57 61  2  0
 57 62  1  0
 58 63  2  0
 59 63  1  0
 62 64  1  0
 64 65  1  0
 64 66  1  0
 65 67  1  0
 66 68  1  0
 67 69  1  0
 68 69  1  0
M  END
