x0978-x2694
     RDKit          3D

 45 47  0  0  0  0  0  0  0  0999 V2000
    2.0970   -5.6130   23.2030 N   0  0  0  0  0  0  0  0  0  0  0  0
    3.3010   -6.3200   23.2900 C   0  0  2  0  0  0  0  0  0  0  0  0
    3.3380   -7.2230   24.5500 C   0  0  1  0  0  0  0  0  0  0  0  0
    0.8900   -6.2220   22.5650 C   0  0  0  0  0  0  0  0  0  0  0  0
    0.9110   -7.2900   21.9640 O   0  0  0  0  0  0  0  0  0  0  0  0
   -0.4340   -5.4100   22.7000 C   0  0  0  0  0  0  0  0  0  0  0  0
    4.4370   -5.2260   23.2080 C   0  0  0  0  0  0  0  0  0  0  0  0
    2.1000   -8.1590   24.5350 C   0  0  0  0  0  0  0  0  0  0  0  0
    4.4420   -7.7370   24.6100 O   0  0  0  0  0  0  0  0  0  0  0  0
    5.6290   -5.5510   22.3890 N   0  0  0  0  0  0  0  0  0  0  0  0
    4.3090   -4.0090   23.9060 O   0  0  0  0  0  0  0  0  0  0  0  0
    6.4250   -4.4380   21.7740 C   0  0  1  0  0  0  0  0  0  0  0  0
    6.4860   -4.7300   20.2780 C   0  0  0  0  0  0  0  0  0  0  0  0
    5.9730   -3.0270   22.2090 C   0  0  0  0  0  0  0  0  0  0  0  0
    5.7400   -6.0110   19.9040 C   0  0  0  0  0  0  0  0  0  0  0  0
    6.2260   -1.8440   21.3910 C   0  0  0  0  0  0  0  0  0  0  0  0
    7.4220   -0.9800   21.6500 N   0  0  0  0  0  0  0  0  0  0  0  0
    7.0200    0.4480   21.5450 C   0  0  1  0  0  0  0  0  0  0  0  0
    8.5380   -1.2740   22.5990 C   0  0  0  0  0  0  0  0  0  0  0  0
    7.9500    1.4720   21.7840 C   0  0  0  0  0  0  0  0  0  0  0  0
    6.4200    0.6950   20.3300 C   0  0  0  0  0  0  0  0  0  0  0  0
    8.5340   -1.6560   24.0520 N   0  0  0  0  0  0  0  0  0  0  0  0
    9.8490   -1.2010   22.2070 C   0  0  0  0  0  0  0  0  0  0  0  0
    7.6220    2.4630   22.7850 N   0  0  0  0  0  0  0  0  0  0  0  0
    9.1080    1.4480   21.0180 O   0  0  0  0  0  0  0  0  0  0  0  0
    5.3150    1.5530   20.3550 C   0  0  0  0  0  0  0  0  0  0  0  0
    6.8710    0.1480   19.1720 C   0  0  0  0  0  0  0  0  0  0  0  0
    9.8880   -1.7860   24.4610 O   0  0  0  0  0  0  0  0  0  0  0  0
   10.7250   -1.5270   23.4170 C   0  0  0  0  0  0  0  0  0  0  0  0
   12.2170   -1.5470   23.4530 C   0  0  0  0  0  0  0  0  0  0  0  0
    6.3860    0.3200   17.9140 N   0  0  0  0  0  0  0  0  0  0  0  0
    4.7100    1.8230   19.1370 C   0  0  0  0  0  0  0  0  0  0  0  0
    8.5270    3.5750   23.0990 C   0  0  0  0  0  0  0  0  0  0  0  0
   12.8950   -0.3550   23.1620 C   0  0  0  0  0  0  0  0  0  0  0  0
   12.8410   -1.6810   22.0870 C   0  0  0  0  0  0  0  0  0  0  0  0
   12.7480   -2.4210   24.3370 C   0  0  0  0  0  0  0  0  0  0  0  0
    5.2290    1.2140   17.8470 C   0  0  0  0  0  0  0  0  0  0  0  0
    9.7790    3.3510   23.6760 C   0  0  0  0  0  0  0  0  0  0  0  0
    8.0920    4.8810   22.7900 C   0  0  0  0  0  0  0  0  0  0  0  0
   10.3000    1.9820   24.0290 C   0  0  0  0  0  0  0  0  0  0  0  0
   10.5520    4.4670   23.9200 C   0  0  0  0  0  0  0  0  0  0  0  0
    8.9100    5.9960   23.0600 C   0  0  0  0  0  0  0  0  0  0  0  0
   10.1460    5.7540   23.6340 C   0  0  0  0  0  0  0  0  0  0  0  0
   11.0250    6.7620   23.9460 O   0  0  0  0  0  0  0  0  0  0  0  0
   11.8610    6.6000   25.0900 C   0  0  0  0  0  0  0  0  0  0  0  0
  2  1  1  1
  2  3  1  0
  1  4  1  0
  4  5  2  0
  4  6  1  0
  2  7  1  0
  3  8  1  6
  3  9  1  0
  7 10  1  0
  7 11  2  0
 10 12  1  0
 12 13  1  6
 12 14  1  0
 13 15  2  3
 14 16  1  0
 16 17  1  0
 17 18  1  0
 17 19  1  0
 18 20  1  6
 18 21  1  0
 19 22  2  0
 19 23  1  0
 20 24  1  0
 20 25  2  0
 21 26  2  0
 21 27  1  0
 22 28  1  0
 23 29  2  0
 28 29  1  0
 29 30  1  0
 27 31  2  0
 26 32  1  0
 24 33  1  0
 30 34  1  0
 30 35  1  0
 30 36  1  0
 31 37  1  0
 32 37  2  0
 33 38  2  0
 33 39  1  0
 38 40  1  0
 38 41  1  0
 39 42  2  0
 41 43  2  0
 42 43  1  0
 43 44  1  0
 44 45  1  0
M  END
