x0978-x3117-x0731-x1493-x3113
     RDKit          3D

 63 68  0  0  0  0  0  0  0  0999 V2000
    7.1170   -1.1240   22.2930 N   0  0  0  0  0  0  0  0  0  0  0  0
    6.8070    0.2800   21.9360 C   0  0  1  0  0  0  0  0  0  0  0  0
    8.0580    1.1690   22.0190 C   0  0  0  0  0  0  0  0  0  0  0  0
    6.4480   -1.9620   21.2520 C   0  0  0  0  0  0  0  0  0  0  0  0
    8.4730   -1.3950   22.6340 C   0  0  0  0  0  0  0  0  0  0  0  0
    5.9230   -3.0380   21.9430 C   0  0  0  0  0  0  0  0  0  0  0  0
    6.2660    0.5470   20.5440 C   0  0  0  0  0  0  0  0  0  0  0  0
    9.4280   -1.8920   21.7700 C   0  0  0  0  0  0  0  0  0  0  0  0
    8.7900   -1.1070   23.8860 C   0  0  0  0  0  0  0  0  0  0  0  0
    8.3200    1.8940   23.1890 N   0  0  0  0  0  0  0  0  0  0  0  0
    8.7850    1.2480   21.0350 O   0  0  0  0  0  0  0  0  0  0  0  0
    5.0320    1.3840   20.3020 C   0  0  0  0  0  0  0  0  0  0  0  0
    6.8610    0.0540   19.2430 C   0  0  0  0  0  0  0  0  0  0  0  0
   10.7170   -2.1070   22.0780 C   0  0  0  0  0  0  0  0  0  0  0  0
   10.2090   -1.3020   24.3540 C   0  0  0  0  0  0  0  0  0  0  0  0
    6.3480   -4.4990   21.5210 C   0  0  1  0  0  0  0  0  0  0  0  0
    6.5240   -4.2820   19.9590 C   0  0  0  0  0  0  0  0  0  0  0  0
    6.4210    0.2910   17.9850 N   0  0  0  0  0  0  0  0  0  0  0  0
    4.6070    1.6090   19.0090 C   0  0  0  0  0  0  0  0  0  0  0  0
   11.1430   -1.7740   23.4900 C   0  0  0  0  0  0  0  0  0  0  0  0
    9.4950    2.7940   23.1790 C   0  0  2  0  0  0  0  0  0  0  0  0
    7.3960   -4.7770   22.3760 C   0  0  0  0  0  0  0  0  0  0  0  0
    5.3610   -5.4900   21.7700 C   0  0  0  0  0  0  0  0  0  0  0  0
   10.5600    1.7310   22.9130 C   0  0  0  0  0  0  0  0  0  0  0  0
   12.4660   -1.8800   24.0220 C   0  0  0  0  0  0  0  0  0  0  0  0
    5.4000   -3.5130   19.3200 C   0  0  0  0  0  0  0  0  0  0  0  0
    5.2030    1.1360   17.8610 C   0  0  0  0  0  0  0  0  0  0  0  0
   10.0010    3.5130   24.1680 C   0  0  1  0  0  0  0  0  0  0  0  0
    9.2150    3.5950   22.1840 C   0  0  0  0  0  0  0  0  0  0  0  0
    6.9240   -4.8750   23.7240 C   0  0  0  0  0  0  0  0  0  0  0  0
    4.5920   -5.3060   22.9490 C   0  0  1  0  0  0  0  0  0  0  0  0
   11.4030    3.7200   23.7950 N   0  0  0  0  0  0  0  0  0  0  0  0
   11.7910    2.5920   23.0600 C   0  0  0  0  0  0  0  0  0  0  0  0
   13.4160   -2.0880   22.8320 C   0  0  0  0  0  0  0  0  0  0  0  0
   12.7260   -3.0120   24.9780 C   0  0  0  0  0  0  0  0  0  0  0  0
   12.7540   -0.5700   24.8320 C   0  0  0  0  0  0  0  0  0  0  0  0
    3.3700   -6.3410   23.1570 C   0  0  2  0  0  0  0  0  0  0  0  0
    9.3650    4.7820   24.4390 O   0  0  0  0  0  0  0  0  0  0  0  0
    8.3540    4.6560   22.4300 C   0  0  0  0  0  0  0  0  0  0  0  0
    5.5030   -4.8850   23.9440 C   0  0  2  0  0  0  0  0  0  0  0  0
   11.9120    5.0530   23.3590 C   0  0  0  0  0  0  0  0  0  0  0  0
    2.2480   -5.5610   23.0350 N   0  0  0  0  0  0  0  0  0  0  0  0
    3.3930   -7.2590   24.1880 C   0  0  1  0  0  0  0  0  0  0  0  0
    5.1670   -3.5050   23.9150 O   0  0  0  0  0  0  0  0  0  0  0  0
    5.2080   -5.0030   25.7440 S   0  0  2  0  0  0  0  0  0  0  0  0
    8.9010    5.5180   23.3010 C   0  0  0  0  0  0  0  0  0  0  0  0
    2.1170   -8.0890   24.2530 C   0  0  0  0  0  0  0  0  0  0  0  0
    4.5240   -7.9870   24.3580 O   0  0  0  0  0  0  0  0  0  0  0  0
    1.0990   -6.1530   22.6020 C   0  0  0  0  0  0  0  0  0  0  0  0
    6.2930   -4.2710   26.3480 O   0  0  0  0  0  0  0  0  0  0  0  0
    4.7200   -6.4980   26.2910 N   0  0  0  0  0  0  0  0  0  0  0  0
    3.9810   -3.9140   25.9100 C   0  0  0  0  0  0  0  0  0  0  0  0
    1.0570   -7.3990   21.9200 O   0  0  0  0  0  0  0  0  0  0  0  0
   -0.1530   -5.5500   22.7820 C   0  0  0  0  0  0  0  0  0  0  0  0
    2.5440   -4.2120   25.5310 C   0  0  0  0  0  0  0  0  0  0  0  0
    4.1970   -2.4940   26.4480 C   0  0  0  0  0  0  0  0  0  0  0  0
    5.3670   -6.7490   27.5230 C   0  0  0  0  0  0  0  0  0  0  0  0
    1.4830   -3.1540   25.6960 C   0  0  0  0  0  0  0  0  0  0  0  0
    3.1010   -1.5890   26.5550 C   0  0  0  0  0  0  0  0  0  0  0  0
    6.7760   -6.1940   27.3650 C   0  0  0  0  0  0  0  0  0  0  0  0
    1.7880   -1.9010   26.1950 C   0  0  0  0  0  0  0  0  0  0  0  0
    7.1800   -5.2560   27.9930 O   0  0  0  0  0  0  0  0  0  0  0  0
    0.7200   -0.8680   26.3590 C   0  0  0  0  0  0  0  0  0  0  0  0
  1  2  1  0
  2  3  1  6
  1  4  1  0
  1  5  1  0
  4  6  1  0
  2  7  1  0
  5  8  2  0
  5  9  1  0
  3 10  1  0
  3 11  2  0
  7 12  2  0
  7 13  1  0
  8 14  1  0
  9 15  2  0
 16  6  1  1
 16 17  1  0
 13 18  2  0
 12 19  1  0
 14 20  2  0
 15 20  1  0
 21 10  1  1
 16 22  1  0
 16 23  1  0
 21 24  1  0
 20 25  1  0
 17 26  2  3
 18 27  1  0
 19 27  2  0
 21 28  1  0
 21 29  1  0
 22 30  1  0
 31 23  1  6
 28 32  1  0
 24 33  1  0
 32 33  1  0
 25 34  1  0
 25 35  1  0
 25 36  1  0
 31 37  1  0
 28 38  1  6
 29 39  1  0
 30 40  1  0
 31 40  1  0
 32 41  1  0
 37 42  1  1
 37 43  1  0
 40 44  1  6
 40 45  1  0
 38 46  1  0
 39 46  1  0
 43 47  1  6
 43 48  1  0
 42 49  1  0
 45 50  2  0
 45 51  2  0
 45 52  1  6
 49 53  2  0
 49 54  1  0
 52 55  2  0
 52 56  1  0
 51 57  1  0
 55 58  1  0
 56 59  2  0
 57 60  1  0
 58 61  2  0
 59 61  1  0
 60 62  2  0
 61 63  1  0
M  END
