x0978-x1336
     RDKit          3D

 30 32  0  0  0  0  0  0  0  0999 V2000
    2.2080   -5.5490   23.2730 N   0  0  0  0  0  0  0  0  0  0  0  0
    3.4280   -6.2420   23.2560 C   0  0  2  0  0  0  0  0  0  0  0  0
    3.6110   -7.1500   24.4960 C   0  0  1  0  0  0  0  0  0  0  0  0
    0.9900   -6.1680   22.6520 C   0  0  0  0  0  0  0  0  0  0  0  0
    1.0110   -7.2300   22.0380 O   0  0  0  0  0  0  0  0  0  0  0  0
   -0.3460   -5.3800   22.8180 C   0  0  0  0  0  0  0  0  0  0  0  0
    4.5880   -5.2060   22.8780 C   0  0  0  0  0  0  0  0  0  0  0  0
    2.2610   -7.8620   24.8080 C   0  0  0  0  0  0  0  0  0  0  0  0
    4.5760   -7.8550   24.2610 O   0  0  0  0  0  0  0  0  0  0  0  0
    5.3460   -5.5490   21.6660 N   0  0  0  0  0  0  0  0  0  0  0  0
    4.8520   -4.0440   23.6170 N   0  0  0  0  0  0  0  0  0  0  0  0
    6.5060   -4.6960   21.3670 C   0  0  1  0  0  0  0  0  0  0  0  0
    5.9170   -3.0520   23.1370 C   0  0  2  0  0  0  0  0  0  0  0  0
    6.5470   -4.3960   19.8940 C   0  0  0  0  0  0  0  0  0  0  0  0
    6.4780   -3.3380   21.9190 N   0  0  0  0  0  0  0  0  0  0  0  0
    7.0480   -2.7380   23.8880 N   0  0  0  0  0  0  0  0  0  0  0  0
    5.4100   -3.5540   19.3820 C   0  0  0  0  0  0  0  0  0  0  0  0
    7.1180   -2.2890   25.4480 S   0  0  0  0  0  0  0  0  0  0  0  0
    7.9250   -1.9660   22.9850 C   0  0  0  0  0  0  0  0  0  0  0  0
    7.7770   -2.6340   21.8960 C   0  0  0  0  0  0  0  0  0  0  0  0
    8.4000   -1.6600   25.4960 O   0  0  0  0  0  0  0  0  0  0  0  0
    5.8890   -1.6260   25.8090 O   0  0  0  0  0  0  0  0  0  0  0  0
    7.4180   -3.6710   26.3710 C   0  0  0  0  0  0  0  0  0  0  0  0
    6.6210   -3.9340   27.4680 C   0  0  0  0  0  0  0  0  0  0  0  0
    8.4650   -4.4810   25.9770 C   0  0  0  0  0  0  0  0  0  0  0  0
    9.3340   -4.2630   24.7950 C   0  0  0  0  0  0  0  0  0  0  0  0
    6.8860   -5.0710   28.2200 C   0  0  0  0  0  0  0  0  0  0  0  0
    8.7440   -5.6060   26.7350 C   0  0  0  0  0  0  0  0  0  0  0  0
    6.0300   -5.3930   29.3940 C   0  0  0  0  0  0  0  0  0  0  0  0
    7.9590   -5.8930   27.8470 C   0  0  0  0  0  0  0  0  0  0  0  0
  2  1  1  1
  2  3  1  0
  1  4  1  0
  4  5  2  0
  4  6  1  0
  2  7  1  0
  3  8  1  6
  3  9  1  0
  7 10  1  0
  7 11  2  0
 10 12  1  0
 13 11  1  1
 12 14  1  6
 12 15  1  0
 13 15  1  0
 13 16  1  0
 14 17  2  3
 16 18  1  0
 16 19  1  0
 15 20  1  0
 19 20  1  0
 18 21  2  0
 18 22  2  0
 18 23  1  0
 23 24  2  0
 23 25  1  0
 25 26  1  0
 24 27  1  0
 25 28  2  0
 27 29  1  0
 27 30  2  0
 28 30  1  0
M  END
