x0981-x2562
     RDKit          3D

 40 42  0  0  0  0  0  0  0  0999 V2000
    1.2240   -8.7220   21.3700 C   0  0  0  0  0  0  0  0  0  0  0  0
    1.3910   -7.4350   22.1430 C   0  0  0  0  0  0  0  0  0  0  0  0
    2.6260   -7.2480   22.7350 N   0  0  0  0  0  0  0  0  0  0  0  0
    0.4810   -6.6120   22.2130 O   0  0  0  0  0  0  0  0  0  0  0  0
    2.9390   -6.0630   23.5540 C   0  0  1  0  0  0  0  0  0  0  0  0
    2.5260   -6.3490   24.9870 C   0  0  0  0  0  0  0  0  0  0  0  0
    4.4570   -5.6380   23.4750 C   0  0  0  0  0  0  0  0  0  0  0  0
    5.2580   -5.8560   22.3840 N   0  0  0  0  0  0  0  0  0  0  0  0
    5.0030   -5.0380   24.4030 O   0  0  0  0  0  0  0  0  0  0  0  0
    2.9710   -7.7270   25.3510 C   0  0  0  0  0  0  0  0  0  0  0  0
    2.3260   -8.3410   26.3810 N   0  0  0  0  0  0  0  0  0  0  0  0
    3.8810   -8.2370   24.7230 O   0  0  0  0  0  0  0  0  0  0  0  0
    6.0210   -4.7710   21.7840 C   0  0  1  0  0  0  0  0  0  0  0  0
    6.2550   -5.0260   20.2900 C   0  0  0  0  0  0  0  0  0  0  0  0
    5.1650   -3.5240   22.1860 C   0  0  0  0  0  0  0  0  0  0  0  0
    5.7090   -6.1580   19.8660 C   0  0  0  0  0  0  0  0  0  0  0  0
    5.4010   -2.2080   21.4500 C   0  0  0  0  0  0  0  0  0  0  0  0
    6.5730   -1.4270   21.9620 C   0  0  0  0  0  0  0  0  0  0  0  0
    7.2650   -0.7490   20.8070 C   0  0  2  0  0  0  0  0  0  0  0  0
    8.4350    0.0060   21.3190 C   0  0  0  0  0  0  0  0  0  0  0  0
    6.3860    0.1150   19.8560 C   0  0  0  0  0  0  0  0  0  0  0  0
    8.6110    1.2270   21.0990 O   0  0  0  0  0  0  0  0  0  0  0  0
    9.4110   -0.8130   22.1300 N   0  0  0  0  0  0  0  0  0  0  0  0
    6.7030    0.1280   18.5290 C   0  0  0  0  0  0  0  0  0  0  0  0
    5.2900    0.9000   20.2070 C   0  0  0  0  0  0  0  0  0  0  0  0
    4.5950    1.6270   19.3110 N   0  0  0  0  0  0  0  0  0  0  0  0
    6.0880    0.8040   17.5530 N   0  0  0  0  0  0  0  0  0  0  0  0
   10.6490   -0.3160   22.3830 C   0  0  0  0  0  0  0  0  0  0  0  0
    5.0560    1.5400   17.9760 C   0  0  0  0  0  0  0  0  0  0  0  0
   11.7610   -1.1430   22.3220 C   0  0  0  0  0  0  0  0  0  0  0  0
   10.6870    1.0240   22.6790 C   0  0  0  0  0  0  0  0  0  0  0  0
   13.1360   -0.5870   22.5760 C   0  0  0  0  0  0  0  0  0  0  0  0
   11.9990    1.6850   22.9450 C   0  0  0  0  0  0  0  0  0  0  0  0
   12.0700    3.0150   23.2380 O   0  0  0  0  0  0  0  0  0  0  0  0
   13.2170    0.7740   22.8640 C   0  0  0  0  0  0  0  0  0  0  0  0
   13.0530    3.8820   22.6660 C   0  0  1  0  0  0  0  0  0  0  0  0
   12.5760    4.9680   21.7190 N   0  0  0  0  0  0  0  0  0  0  0  0
   13.3970    4.9800   23.3620 C   0  0  0  0  0  0  0  0  0  0  0  0
   12.7180    5.9860   22.7940 C   0  0  1  0  0  0  0  0  0  0  0  0
   13.4860    7.1270   22.4910 O   0  0  0  0  0  0  0  0  0  0  0  0
  1  2  1  0
  2  3  1  0
  2  4  2  0
  3  5  1  0
  5  6  1  1
  5  7  1  0
  7  8  1  0
  7  9  2  0
  6 10  1  0
 10 11  1  0
 10 12  2  0
  8 13  1  0
 13 14  1  6
 13 15  1  0
 14 16  2  3
 15 17  1  0
 17 18  1  0
 19 18  1  1
 19 20  1  0
 19 21  1  0
 20 22  2  0
 20 23  1  0
 21 24  2  0
 21 25  1  0
 25 26  2  0
 24 27  1  0
 23 28  1  0
 26 29  1  0
 27 29  2  0
 28 30  2  0
 28 31  1  0
 30 32  1  0
 31 33  2  0
 33 34  1  0
 32 35  2  0
 33 35  1  0
 36 34  1  1
 36 37  1  0
 36 38  1  0
 37 39  1  0
 38 39  1  0
 39 40  1  6
M  END
