x0981-x3110-x3124-x1308
     RDKit          3D

 58 62  0  0  0  0  0  0  0  0999 V2000
    8.0740    1.5980   23.3650 N   0  0  0  0  0  0  0  0  0  0  0  0
    8.9390    2.6780   23.6170 C   0  0  0  0  0  0  0  0  0  0  0  0
   10.3180    2.2740   23.4970 C   0  0  0  0  0  0  0  0  0  0  0  0
    7.9620    1.2050   21.9740 C   0  0  0  0  0  0  0  0  0  0  0  0
    8.6910    1.6380   21.0680 O   0  0  0  0  0  0  0  0  0  0  0  0
    6.9010    0.2910   21.7860 C   0  0  2  0  0  0  0  0  0  0  0  0
    7.0640   -1.0920   22.1040 N   0  0  0  0  0  0  0  0  0  0  0  0
   11.1370    3.3920   23.3960 C   0  0  0  0  0  0  0  0  0  0  0  0
    6.3570    0.5650   20.4040 C   0  0  0  0  0  0  0  0  0  0  0  0
   11.9350    3.2970   22.4780 O   0  0  0  0  0  0  0  0  0  0  0  0
   11.0640    4.3740   24.1310 O   0  0  0  0  0  0  0  0  0  0  0  0
    6.5320   -2.0050   21.2320 C   0  0  0  0  0  0  0  0  0  0  0  0
    5.1280    1.4420   20.2820 C   0  0  0  0  0  0  0  0  0  0  0  0
    6.9750    0.0320   19.2660 C   0  0  0  0  0  0  0  0  0  0  0  0
    8.3890   -1.3430   22.5670 C   0  0  0  0  0  0  0  0  0  0  0  0
   12.4030    4.5390   21.9210 C   0  0  0  0  0  0  0  0  0  0  0  0
    5.6280   -2.9960   21.6520 C   0  0  0  0  0  0  0  0  0  0  0  0
    6.3580    0.3940   17.9590 N   0  0  0  0  0  0  0  0  0  0  0  0
    4.5970    1.7340   18.9380 C   0  0  0  0  0  0  0  0  0  0  0  0
    9.4730   -1.9930   21.6960 C   0  0  0  0  0  0  0  0  0  0  0  0
    8.7900   -0.9530   23.9720 C   0  0  0  0  0  0  0  0  0  0  0  0
   13.3980    5.1680   22.8640 C   0  0  0  0  0  0  0  0  0  0  0  0
    5.2590    1.1850   17.8520 C   0  0  0  0  0  0  0  0  0  0  0  0
   10.7370   -2.1310   22.2780 C   0  0  0  0  0  0  0  0  0  0  0  0
   10.0800   -1.1510   24.4210 C   0  0  0  0  0  0  0  0  0  0  0  0
    6.1610   -4.4880   21.7320 C   0  0  1  0  0  0  0  0  0  0  0  0
    6.4420   -5.0310   20.2700 C   0  0  0  0  0  0  0  0  0  0  0  0
   11.0480   -1.7200   23.5940 C   0  0  0  0  0  0  0  0  0  0  0  0
    7.2320   -4.5180   22.6090 C   0  0  0  0  0  0  0  0  0  0  0  0
    5.0590   -5.1720   22.1590 C   0  0  0  0  0  0  0  0  0  0  0  0
   12.4410   -1.8740   24.1030 C   0  0  0  0  0  0  0  0  0  0  0  0
    5.8190   -6.1370   19.8790 C   0  0  0  0  0  0  0  0  0  0  0  0
    6.8460   -4.3960   24.0580 C   0  0  1  0  0  0  0  0  0  0  0  0
    4.9890   -5.9410   23.2850 C   0  0  2  0  0  0  0  0  0  0  0  0
   12.7450   -0.5310   24.9130 C   0  0  0  0  0  0  0  0  0  0  0  0
   13.3990   -2.0190   22.9210 C   0  0  0  0  0  0  0  0  0  0  0  0
   12.8290   -3.0230   25.0320 C   0  0  0  0  0  0  0  0  0  0  0  0
    3.4260   -6.1830   23.5630 C   0  0  1  0  0  0  0  0  0  0  0  0
    6.1400   -3.2040   24.2420 O   0  0  0  0  0  0  0  0  0  0  0  0
    5.9340   -5.4490   24.4120 N   0  0  0  0  0  0  0  0  0  0  0  0
    2.9460   -7.3410   22.8150 N   0  0  0  0  0  0  0  0  0  0  0  0
    3.3130   -6.4960   25.0230 C   0  0  2  0  0  0  0  0  0  0  0  0
    5.6370   -5.4270   26.0860 S   0  0  0  0  0  0  0  0  0  0  0  0
    1.5690   -7.4050   22.2280 C   0  0  0  0  0  0  0  0  0  0  0  0
    2.5030   -7.5470   25.3650 C   0  0  0  0  0  0  0  0  0  0  0  0
    6.6720   -4.6880   26.7380 O   0  0  0  0  0  0  0  0  0  0  0  0
    5.2980   -6.9310   26.6870 O   0  0  0  0  0  0  0  0  0  0  0  0
    3.1030   -5.0810   25.6370 C   0  0  0  0  0  0  0  0  0  0  0  0
    4.2470   -4.5110   26.1560 C   0  0  0  0  0  0  0  0  0  0  0  0
    1.2290   -8.5810   21.5410 C   0  0  0  0  0  0  0  0  0  0  0  0
    0.6590   -6.3150   22.3290 O   0  0  0  0  0  0  0  0  0  0  0  0
    1.4500   -7.4400   26.1890 N   0  0  0  0  0  0  0  0  0  0  0  0
    2.7760   -8.6710   24.9360 O   0  0  0  0  0  0  0  0  0  0  0  0
    4.3300   -3.2290   26.7310 C   0  0  0  0  0  0  0  0  0  0  0  0
    1.7840   -4.2810   25.6800 C   0  0  0  0  0  0  0  0  0  0  0  0
    3.0930   -2.3100   26.8390 C   0  0  0  0  0  0  0  0  0  0  0  0
    1.7980   -2.8800   26.2930 C   0  0  0  0  0  0  0  0  0  0  0  0
    0.3710   -1.9170   26.3800 Cl  0  0  0  0  0  0  0  0  0  0  0  0
  1  2  1  0
  2  3  1  0
  1  4  1  0
  4  5  2  0
  6  4  1  6
  6  7  1  0
  3  8  1  0
  6  9  1  0
  8 10  1  0
  8 11  2  0
  7 12  1  0
  9 13  2  0
  9 14  1  0
  7 15  1  0
 10 16  1  0
 12 17  1  0
 14 18  2  0
 13 19  1  0
 15 20  2  0
 15 21  1  0
 16 22  1  0
 18 23  1  0
 19 23  2  0
 20 24  1  0
 21 25  2  0
 26 17  1  6
 26 27  1  0
 24 28  2  0
 25 28  1  0
 26 29  1  0
 26 30  1  0
 28 31  1  0
 27 32  2  3
 29 33  1  0
 34 30  1  6
 31 35  1  0
 31 36  1  0
 31 37  1  0
 34 38  1  0
 33 39  1  6
 33 40  1  0
 34 40  1  0
 38 41  1  6
 38 42  1  0
 40 43  1  0
 41 44  1  0
 42 45  1  6
 43 46  2  0
 43 47  2  0
 42 48  1  0
 43 49  1  0
 48 49  2  0
 44 50  1  0
 44 51  2  0
 45 52  1  0
 45 53  2  0
 49 54  1  0
 48 55  1  0
 54 56  2  0
 55 57  2  0
 56 57  1  0
 57 58  1  0
M  END
