x0981-x0426-x0820-x3113
     RDKit          3D

 62 67  0  0  0  0  0  0  0  0999 V2000
    1.4590   -8.7640   21.1910 C   0  0  0  0  0  0  0  0  0  0  0  0
    1.4090   -7.6240   21.9870 C   0  0  0  0  0  0  0  0  0  0  0  0
    2.3370   -6.9620   22.6210 N   0  0  0  0  0  0  0  0  0  0  0  0
    0.0870   -7.0840   22.0320 O   0  0  0  0  0  0  0  0  0  0  0  0
    3.1800   -6.0250   23.3990 C   0  0  1  0  0  0  0  0  0  0  0  0
    2.8910   -6.2780   24.8910 C   0  0  0  0  0  0  0  0  0  0  0  0
    4.6770   -5.6710   23.0120 C   0  0  1  0  0  0  0  0  0  0  0  0
    4.7970   -4.6790   21.9020 N   0  0  0  0  0  0  0  0  0  0  0  0
    3.1930   -7.6650   25.3150 C   0  0  0  0  0  0  0  0  0  0  0  0
    5.4700   -5.0530   24.1350 C   0  0  0  0  0  0  0  0  0  0  0  0
    2.5050   -8.2880   26.4690 N   0  0  0  0  0  0  0  0  0  0  0  0
    4.0230   -8.2280   24.6480 O   0  0  0  0  0  0  0  0  0  0  0  0
    6.0550   -3.9540   21.4860 C   0  0  2  0  0  0  0  0  0  0  0  0
    6.3850   -3.8750   24.0370 C   0  0  0  0  0  0  0  0  0  0  0  0
    5.5180   -5.4360   25.6100 C   0  0  0  0  0  0  0  0  0  0  0  0
    6.8090   -4.8380   20.4450 C   0  0  0  0  0  0  0  0  0  0  0  0
    6.5540   -3.0840   22.7060 C   0  0  1  0  0  0  0  0  0  0  0  0
    7.0530   -3.5650   25.4120 C   0  0  1  0  0  0  0  0  0  0  0  0
    6.4310   -4.5520   26.4400 C   0  0  0  0  0  0  0  0  0  0  0  0
    5.9350   -5.9530   19.9460 C   0  0  0  0  0  0  0  0  0  0  0  0
    7.4070   -1.8220   22.7310 C   0  0  2  0  0  0  0  0  0  0  0  0
    6.6660   -4.7130   27.7230 C   0  0  0  0  0  0  0  0  0  0  0  0
    8.5480   -3.8790   25.6170 C   0  0  0  0  0  0  0  0  0  0  0  0
    7.3660   -0.6950   21.6360 C   0  0  2  0  0  0  0  0  0  0  0  0
    8.1120   -4.6250   28.0560 C   0  0  0  0  0  0  0  0  0  0  0  0
    9.0420   -4.3730   26.8670 C   0  0  0  0  0  0  0  0  0  0  0  0
    8.9500   -1.9920   22.7860 C   0  0  0  0  0  0  0  0  0  0  0  0
    8.0850    0.6450   22.0330 C   0  0  0  0  0  0  0  0  0  0  0  0
    6.4780   -0.1880   20.5290 C   0  0  0  0  0  0  0  0  0  0  0  0
    9.8930   -1.9050   23.9610 C   0  0  0  0  0  0  0  0  0  0  0  0
    9.5860   -2.2330   21.6180 C   0  0  0  0  0  0  0  0  0  0  0  0
    8.2020    1.2740   23.3610 N   0  0  0  0  0  0  0  0  0  0  0  0
    8.7160    1.5070   21.0640 O   0  0  0  0  0  0  0  0  0  0  0  0
    5.0820    0.4480   20.6250 C   0  0  0  0  0  0  0  0  0  0  0  0
    7.0000   -0.2720   19.2550 C   0  0  0  0  0  0  0  0  0  0  0  0
   10.9420   -2.3960   21.4640 C   0  0  0  0  0  0  0  0  0  0  0  0
   11.4320   -2.0880   23.7680 C   0  0  0  0  0  0  0  0  0  0  0  0
    9.2130    2.3620   23.2830 C   0  0  0  0  0  0  0  0  0  0  0  0
   12.4620   -2.0450   24.7840 C   0  0  0  0  0  0  0  0  0  0  0  0
    4.2630    0.6560   21.8900 C   0  0  0  0  0  0  0  0  0  0  0  0
    6.3820    0.2060   17.9550 N   0  0  0  0  0  0  0  0  0  0  0  0
    4.3910    0.9570   19.3400 C   0  0  0  0  0  0  0  0  0  0  0  0
   11.8970   -2.3200   22.5400 C   0  0  0  0  0  0  0  0  0  0  0  0
   10.6910    1.8090   23.2760 C   0  0  0  0  0  0  0  0  0  0  0  0
   13.6670   -2.4210   24.2930 C   0  0  0  0  0  0  0  0  0  0  0  0
   12.1100   -3.1010   25.5560 C   0  0  0  0  0  0  0  0  0  0  0  0
   12.5110   -0.7860   25.2960 C   0  0  0  0  0  0  0  0  0  0  0  0
    4.4210    1.9580   22.4570 C   0  0  0  0  0  0  0  0  0  0  0  0
    5.1230    0.8060   18.0050 C   0  0  0  0  0  0  0  0  0  0  0  0
   11.5640    2.9000   23.3370 C   0  0  0  0  0  0  0  0  0  0  0  0
    3.2770    2.6350   23.0870 N   0  0  0  0  0  0  0  0  0  0  0  0
   11.6800    3.7010   22.4110 O   0  0  0  0  0  0  0  0  0  0  0  0
    2.2420    1.8720   23.8150 C   0  0  0  0  0  0  0  0  0  0  0  0
   12.8670    4.4910   22.5650 C   0  0  0  0  0  0  0  0  0  0  0  0
    2.2040    0.4510   23.8380 O   0  0  0  0  0  0  0  0  0  0  0  0
    1.2000    2.6440   24.5560 C   0  0  0  0  0  0  0  0  0  0  0  0
    1.5360    3.8300   25.2150 C   0  0  0  0  0  0  0  0  0  0  0  0
   -0.0930    2.1000   24.5350 C   0  0  0  0  0  0  0  0  0  0  0  0
    2.7830    4.3200   25.2140 F   0  0  0  0  0  0  0  0  0  0  0  0
   -1.1440    2.7930   25.2280 C   0  0  0  0  0  0  0  0  0  0  0  0
    0.5420    4.5300   25.8970 C   0  0  0  0  0  0  0  0  0  0  0  0
   -0.8640    3.9860   25.9040 C   0  0  0  0  0  0  0  0  0  0  0  0
  1  2  1  0
  2  3  1  0
  2  4  2  0
  3  5  1  0
  5  6  1  1
  5  7  1  0
  7  8  1  6
  6  9  1  0
  7 10  1  0
  9 11  1  0
  9 12  2  0
  8 13  1  0
 10 14  2  0
 10 15  1  0
 13 16  1  1
 13 17  1  0
 17 14  1  1
 14 18  1  0
 15 19  2  0
 18 19  1  0
 16 20  2  3
 17 21  1  0
 19 22  1  0
 18 23  1  6
 21 24  1  0
 22 25  2  0
 23 26  2  0
 25 26  1  0
 21 27  1  6
 24 28  1  1
 24 29  1  0
 27 30  2  0
 27 31  1  0
 28 32  1  0
 28 33  2  0
 29 34  1  0
 29 35  2  0
 31 36  2  0
 30 37  1  0
 32 38  1  0
 37 39  1  0
 34 40  1  0
 35 41  1  0
 34 42  2  0
 36 43  1  0
 37 43  2  0
 38 44  1  0
 39 45  1  0
 39 46  1  0
 39 47  1  0
 40 48  1  0
 41 49  2  0
 42 49  1  0
 44 50  1  0
 48 51  1  0
 50 52  1  0
 51 53  1  0
 52 54  1  0
 53 55  2  0
 53 56  1  0
 56 57  2  0
 56 58  1  0
 57 59  1  0
 58 60  2  0
 57 61  1  0
 60 62  1  0
 61 62  2  0
M  END
