x0981-x2608
     RDKit          3D

 34 35  0  0  0  0  0  0  0  0999 V2000
    1.2700   -8.7310   21.3460 C   0  0  0  0  0  0  0  0  0  0  0  0
    1.4150   -7.4120   22.1620 C   0  0  0  0  0  0  0  0  0  0  0  0
    2.6420   -7.2420   22.7950 N   0  0  0  0  0  0  0  0  0  0  0  0
    0.5320   -6.5640   22.2390 O   0  0  0  0  0  0  0  0  0  0  0  0
    2.9280   -5.9690   23.5000 C   0  0  1  0  0  0  0  0  0  0  0  0
    2.5570   -6.2440   25.0120 C   0  0  0  0  0  0  0  0  0  0  0  0
    4.4090   -5.5570   23.3980 C   0  0  0  0  0  0  0  0  0  0  0  0
    5.1640   -5.6490   22.2680 N   0  0  0  0  0  0  0  0  0  0  0  0
    5.0080   -5.0610   24.3480 O   0  0  0  0  0  0  0  0  0  0  0  0
    3.0160   -7.7110   25.3120 C   0  0  0  0  0  0  0  0  0  0  0  0
    2.3300   -8.4450   26.3770 N   0  0  0  0  0  0  0  0  0  0  0  0
    3.9170   -8.1960   24.6700 O   0  0  0  0  0  0  0  0  0  0  0  0
    6.0090   -4.5890   21.6860 C   0  0  1  0  0  0  0  0  0  0  0  0
    6.3430   -4.9430   20.2420 C   0  0  0  0  0  0  0  0  0  0  0  0
    5.3390   -3.3820   21.8120 C   0  0  0  0  0  0  0  0  0  0  0  0
    5.7280   -6.2370   19.7930 C   0  0  0  0  0  0  0  0  0  0  0  0
    5.9230   -2.4250   22.6270 C   0  0  0  0  0  0  0  0  0  0  0  0
    5.7350   -1.1490   22.1360 C   0  0  0  0  0  0  0  0  0  0  0  0
    6.6580   -0.7640   21.0500 N   0  0  0  0  0  0  0  0  0  0  0  0
    7.9310   -0.3440   21.4090 C   0  0  0  0  0  0  0  0  0  0  0  0
    6.1140   -0.0520   20.0320 C   0  0  0  0  0  0  0  0  0  0  0  0
    8.6450   -1.2080   22.2320 N   0  0  0  0  0  0  0  0  0  0  0  0
    8.3970    0.7330   21.0380 O   0  0  0  0  0  0  0  0  0  0  0  0
    6.6430   -0.1110   18.7730 C   0  0  0  0  0  0  0  0  0  0  0  0
    5.0090    0.7640   20.2430 C   0  0  0  0  0  0  0  0  0  0  0  0
   10.0030   -0.6530   22.5120 C   0  0  0  0  0  0  0  0  0  0  0  0
    6.0970    0.6540   17.6500 N   0  0  0  0  0  0  0  0  0  0  0  0
    4.4470    1.5110   19.2330 C   0  0  0  0  0  0  0  0  0  0  0  0
   11.0760   -1.4960   22.7450 C   0  0  0  0  0  0  0  0  0  0  0  0
   10.4430    0.9680   22.5720 S   0  0  0  0  0  0  0  0  0  0  0  0
    5.0080    1.4450   17.9510 C   0  0  0  0  0  0  0  0  0  0  0  0
   12.0590    0.5440   22.8600 C   0  0  0  0  0  0  0  0  0  0  0  0
   12.2330   -0.7880   22.9410 C   0  0  0  0  0  0  0  0  0  0  0  0
   13.0160    1.5900   22.9770 C   0  0  0  0  0  0  0  0  0  0  0  0
  1  2  1  0
  2  3  1  0
  2  4  2  0
  3  5  1  0
  5  6  1  1
  5  7  1  0
  7  8  1  0
  7  9  2  0
  6 10  1  0
 10 11  1  0
 10 12  2  0
  8 13  1  0
 13 14  1  6
 13 15  1  0
 14 16  2  3
 15 17  1  0
 17 18  1  0
 18 19  1  0
 19 20  1  0
 19 21  1  0
 20 22  1  0
 20 23  2  0
 21 24  2  0
 21 25  1  0
 22 26  1  0
 24 27  1  0
 25 28  2  0
 26 29  2  0
 26 30  1  0
 27 31  2  0
 28 31  1  0
 30 32  1  0
 29 33  1  0
 32 33  2  0
 32 34  1  0
M  END
