x0981-x2540
     RDKit          3D

 42 43  0  0  0  0  0  0  0  0999 V2000
    1.2740   -8.7350   21.3480 C   0  0  0  0  0  0  0  0  0  0  0  0
    1.4210   -7.4180   22.1630 C   0  0  0  0  0  0  0  0  0  0  0  0
    2.6500   -7.2400   22.7890 N   0  0  0  0  0  0  0  0  0  0  0  0
    0.5360   -6.5700   22.2470 O   0  0  0  0  0  0  0  0  0  0  0  0
    2.9380   -5.9570   23.4700 C   0  0  1  0  0  0  0  0  0  0  0  0
    2.5400   -6.1990   24.9790 C   0  0  0  0  0  0  0  0  0  0  0  0
    4.4230   -5.5530   23.3920 C   0  0  0  0  0  0  0  0  0  0  0  0
    5.1910   -5.6300   22.2690 N   0  0  0  0  0  0  0  0  0  0  0  0
    5.0140   -5.0800   24.3580 O   0  0  0  0  0  0  0  0  0  0  0  0
    2.9930   -7.6590   25.3190 C   0  0  0  0  0  0  0  0  0  0  0  0
    2.3200   -8.3270   26.4320 N   0  0  0  0  0  0  0  0  0  0  0  0
    3.8720   -8.1850   24.6730 O   0  0  0  0  0  0  0  0  0  0  0  0
    6.0070   -4.5550   21.6680 C   0  0  1  0  0  0  0  0  0  0  0  0
    6.3600   -4.9520   20.2300 C   0  0  0  0  0  0  0  0  0  0  0  0
    5.1240   -3.3130   21.7170 C   0  0  0  0  0  0  0  0  0  0  0  0
    5.7200   -6.2380   19.8010 C   0  0  0  0  0  0  0  0  0  0  0  0
    5.6940   -2.1150   22.1550 C   0  0  0  0  0  0  0  0  0  0  0  0
    6.8400   -1.8310   21.4710 C   0  0  0  0  0  0  0  0  0  0  0  0
    7.6660   -0.8280   21.7390 N   0  0  0  0  0  0  0  0  0  0  0  0
    7.2300    0.4440   21.6140 C   0  0  1  0  0  0  0  0  0  0  0  0
    8.6710   -1.1080   22.6250 C   0  0  0  0  0  0  0  0  0  0  0  0
    8.1340    1.5330   21.7890 C   0  0  0  0  0  0  0  0  0  0  0  0
    6.4970    0.6600   20.3000 C   0  0  0  0  0  0  0  0  0  0  0  0
    8.5770   -1.5930   23.8770 N   0  0  0  0  0  0  0  0  0  0  0  0
   10.0030   -0.9290   22.3430 C   0  0  0  0  0  0  0  0  0  0  0  0
    8.0650    2.0840   23.0350 N   0  0  0  0  0  0  0  0  0  0  0  0
    8.8780    1.9510   20.9270 O   0  0  0  0  0  0  0  0  0  0  0  0
    5.3670    1.5290   20.2940 C   0  0  0  0  0  0  0  0  0  0  0  0
    6.8990    0.0430   19.1110 C   0  0  0  0  0  0  0  0  0  0  0  0
    9.8720   -1.7090   24.3720 O   0  0  0  0  0  0  0  0  0  0  0  0
   10.7650   -1.2970   23.4310 C   0  0  0  0  0  0  0  0  0  0  0  0
    8.8950    3.0560   23.4920 C   0  0  0  0  0  0  0  0  0  0  0  0
   12.2240   -1.3280   23.7680 C   0  0  0  0  0  0  0  0  0  0  0  0
    6.3010    0.2050   17.9090 N   0  0  0  0  0  0  0  0  0  0  0  0
    4.6960    1.7450   19.0950 C   0  0  0  0  0  0  0  0  0  0  0  0
    8.7520    3.0980   24.8600 C   0  0  0  0  0  0  0  0  0  0  0  0
    8.5820    4.4270   22.8660 C   0  0  0  0  0  0  0  0  0  0  0  0
   10.3590    2.6850   23.1540 C   0  0  0  0  0  0  0  0  0  0  0  0
   13.0090   -1.0410   22.5920 C   0  0  0  0  0  0  0  0  0  0  0  0
   12.4340   -0.3460   24.6850 C   0  0  0  0  0  0  0  0  0  0  0  0
   12.5770   -2.5840   24.3510 C   0  0  0  0  0  0  0  0  0  0  0  0
    5.2250    1.0280   17.8670 C   0  0  0  0  0  0  0  0  0  0  0  0
  1  2  1  0
  2  3  1  0
  2  4  2  0
  3  5  1  0
  5  6  1  1
  5  7  1  0
  7  8  1  0
  7  9  2  0
  6 10  1  0
 10 11  1  0
 10 12  2  0
  8 13  1  0
 13 14  1  6
 13 15  1  0
 14 16  2  3
 15 17  1  0
 17 18  1  0
 18 19  1  0
 19 20  1  0
 19 21  1  0
 20 22  1  6
 20 23  1  0
 21 24  2  0
 21 25  1  0
 22 26  1  0
 22 27  2  0
 23 28  2  0
 23 29  1  0
 24 30  1  0
 25 31  2  0
 30 31  1  0
 32 26  1  0
 31 33  1  0
 29 34  2  0
 28 35  1  0
 32 36  1  0
 32 37  1  0
 32 38  1  0
 33 39  1  0
 33 40  1  0
 33 41  1  0
 34 42  1  0
 35 42  2  0
M  END
