x0981-x2705-x0978-x0689-x0769
     RDKit          3D

 59 64  0  0  0  0  0  0  0  0999 V2000
    1.1440   -8.5110   21.3740 C   0  0  0  0  0  0  0  0  0  0  0  0
    1.2320   -7.4540   22.5230 C   0  0  0  0  0  0  0  0  0  0  0  0
    2.5900   -7.1040   22.6410 N   0  0  0  0  0  0  0  0  0  0  0  0
    0.6870   -7.7600   23.5530 O   0  0  0  0  0  0  0  0  0  0  0  0
    0.4130   -6.2220   22.2240 C   0  0  0  0  0  0  0  0  0  0  0  0
    3.0310   -6.0310   23.5600 C   0  0  1  0  0  0  0  0  0  0  0  0
    3.5150   -6.5220   24.9420 C   0  0  0  0  0  0  0  0  0  0  0  0
    4.1540   -5.0850   23.2100 C   0  0  2  0  0  0  0  0  0  0  0  0
    3.5170   -4.0360   22.6980 O   0  0  0  0  0  0  0  0  0  0  0  0
    3.2040   -7.9740   25.3310 C   0  0  0  0  0  0  0  0  0  0  0  0
    4.2180   -5.4180   25.9980 S   0  0  2  0  0  0  0  0  0  0  0  0
    5.0720   -5.5340   22.0630 C   0  0  0  0  0  0  0  0  0  0  0  0
    4.6530   -4.5740   24.5030 N   0  0  0  0  0  0  0  0  0  0  0  0
    2.8170   -8.2180   26.7150 N   0  0  0  0  0  0  0  0  0  0  0  0
    3.2240   -8.8420   24.5320 O   0  0  0  0  0  0  0  0  0  0  0  0
    4.7650   -5.6620   27.3150 O   0  0  0  0  0  0  0  0  0  0  0  0
    4.1740   -3.7530   25.9130 C   0  0  0  0  0  0  0  0  0  0  0  0
    6.0840   -4.4670   21.8590 C   0  0  1  0  0  0  0  0  0  0  0  0
    6.1060   -4.2750   24.3090 C   0  0  0  0  0  0  0  0  0  0  0  0
    6.6800   -4.9780   20.4520 C   0  0  0  0  0  0  0  0  0  0  0  0
    5.5370   -2.9910   21.5720 C   0  0  0  0  0  0  0  0  0  0  0  0
    5.0100   -2.6800   26.1040 C   0  0  0  0  0  0  0  0  0  0  0  0
    2.8600   -3.4640   25.5970 C   0  0  0  0  0  0  0  0  0  0  0  0
    6.8260   -4.5050   23.0500 C   0  0  0  0  0  0  0  0  0  0  0  0
    5.9240   -6.1490   19.8490 C   0  0  0  0  0  0  0  0  0  0  0  0
    6.2900   -2.8170   26.4340 F   0  0  0  0  0  0  0  0  0  0  0  0
    6.0220   -1.9570   22.3930 C   0  0  0  0  0  0  0  0  0  0  0  0
    2.3280   -2.2230   25.4590 C   0  0  0  0  0  0  0  0  0  0  0  0
    4.4960   -1.3690   25.9610 C   0  0  0  0  0  0  0  0  0  0  0  0
    7.2370   -1.2440   21.9040 N   0  0  0  0  0  0  0  0  0  0  0  0
    3.1280   -1.1040   25.6340 C   0  0  0  0  0  0  0  0  0  0  0  0
    6.9540    0.1990   21.6610 C   0  0  1  0  0  0  0  0  0  0  0  0
    8.4760   -1.3730   22.7230 C   0  0  0  0  0  0  0  0  0  0  0  0
    7.9720    1.3080   21.7950 C   0  0  0  0  0  0  0  0  0  0  0  0
    6.3240    0.4770   20.3460 C   0  0  0  0  0  0  0  0  0  0  0  0
    8.7120   -1.5460   24.1460 N   0  0  0  0  0  0  0  0  0  0  0  0
    9.8370   -1.3200   22.1050 C   0  0  0  0  0  0  0  0  0  0  0  0
    7.5550    2.3190   22.7310 N   0  0  0  0  0  0  0  0  0  0  0  0
    9.0050    1.3440   21.1420 O   0  0  0  0  0  0  0  0  0  0  0  0
    5.1020    1.3340   20.1800 C   0  0  0  0  0  0  0  0  0  0  0  0
    6.9110   -0.0860   19.0940 C   0  0  0  0  0  0  0  0  0  0  0  0
   10.0820   -1.5830   24.3050 N   0  0  0  0  0  0  0  0  0  0  0  0
   10.8770   -1.4620   23.1810 C   0  0  0  0  0  0  0  0  0  0  0  0
   12.3890   -1.4800   23.2160 C   0  0  0  0  0  0  0  0  0  0  0  0
    6.3180    0.2150   17.7910 N   0  0  0  0  0  0  0  0  0  0  0  0
    4.5660    1.5970   18.9320 C   0  0  0  0  0  0  0  0  0  0  0  0
    8.2630    3.5110   22.9260 C   0  0  0  0  0  0  0  0  0  0  0  0
   12.8040   -0.1200   23.7510 C   0  0  0  0  0  0  0  0  0  0  0  0
   12.8140   -2.4970   24.2480 C   0  0  0  0  0  0  0  0  0  0  0  0
   12.8110   -2.0070   21.9400 C   0  0  0  0  0  0  0  0  0  0  0  0
    5.1270    1.0820   17.7660 C   0  0  0  0  0  0  0  0  0  0  0  0
    9.5530    3.5180   23.4750 C   0  0  0  0  0  0  0  0  0  0  0  0
    7.6240    4.6940   22.5400 C   0  0  0  0  0  0  0  0  0  0  0  0
   10.2590    2.2440   23.8810 C   0  0  0  0  0  0  0  0  0  0  0  0
    6.2400    4.7330   21.9360 C   0  0  0  0  0  0  0  0  0  0  0  0
   10.2240    4.7200   23.6550 C   0  0  0  0  0  0  0  0  0  0  0  0
    8.3100    5.8850   22.7250 C   0  0  0  0  0  0  0  0  0  0  0  0
    9.3830    1.3960   24.7980 C   0  0  0  0  0  0  0  0  0  0  0  0
    9.5840    5.9080   23.2720 C   0  0  0  0  0  0  0  0  0  0  0  0
  1  2  1  0
  2  3  1  0
  2  4  1  0
  2  5  1  0
  6  3  1  6
  6  7  1  0
  6  8  1  0
  8  9  1  6
  7 10  1  0
  7 11  2  0
  8 12  1  0
  8 13  1  0
 11 13  1  0
 10 14  1  0
 10 15  2  0
 11 16  2  0
 11 17  1  1
 12 18  1  0
 13 19  1  0
 18 20  1  6
 18 21  1  0
 17 22  2  0
 17 23  1  0
 18 24  1  0
 19 24  1  0
 20 25  2  3
 22 26  1  0
 21 27  1  0
 23 28  2  0
 22 29  1  0
 27 30  1  0
 28 31  1  0
 29 31  2  0
 30 32  1  0
 30 33  1  0
 32 34  1  6
 32 35  1  0
 33 36  2  0
 33 37  1  0
 34 38  1  0
 34 39  2  0
 35 40  2  0
 35 41  1  0
 36 42  1  0
 37 43  2  0
 42 43  1  0
 43 44  1  0
 41 45  2  0
 40 46  1  0
 38 47  1  0
 44 48  1  0
 44 49  1  0
 44 50  1  0
 45 51  1  0
 46 51  2  0
 47 52  2  0
 47 53  1  0
 52 54  1  0
 53 55  1  0
 52 56  1  0
 53 57  2  0
 54 58  1  0
 56 59  2  0
 57 59  1  0
M  END
