x0981-x0426-x0689-x3115
     RDKit          3D

 64 68  0  0  0  0  0  0  0  0999 V2000
    1.2870   -8.5890   21.5430 C   0  0  0  0  0  0  0  0  0  0  0  0
    1.5590   -7.2360   22.2790 C   0  0  0  0  0  0  0  0  0  0  0  0
    2.8440   -6.9910   22.7910 N   0  0  0  0  0  0  0  0  0  0  0  0
    0.5600   -6.5220   22.2850 O   0  0  0  0  0  0  0  0  0  0  0  0
    3.2520   -5.8780   23.7140 C   0  0  1  0  0  0  0  0  0  0  0  0
    2.9590   -6.3490   25.1460 C   0  0  2  0  0  0  0  0  0  0  0  0
    4.7460   -5.2490   23.5480 C   0  0  2  0  0  0  0  0  0  0  0  0
    4.6140   -3.9300   24.1550 N   0  0  0  0  0  0  0  0  0  0  0  0
    2.9930   -7.7270   25.3600 C   0  0  0  0  0  0  0  0  0  0  0  0
    4.9690   -4.9700   22.2130 C   0  0  0  0  0  0  0  0  0  0  0  0
    5.7350   -6.0780   24.1810 N   0  0  0  0  0  0  0  0  0  0  0  0
    1.7200   -5.6040   25.6800 C   0  0  0  0  0  0  0  0  0  0  0  0
    2.2880   -8.2260   26.5780 N   0  0  0  0  0  0  0  0  0  0  0  0
    3.6280   -8.3080   24.5090 O   0  0  0  0  0  0  0  0  0  0  0  0
    5.3140   -3.8440   25.1930 O   0  0  0  0  0  0  0  0  0  0  0  0
    6.3120   -4.6890   21.7960 C   0  0  1  0  0  0  0  0  0  0  0  0
    7.0660   -5.6010   23.8370 C   0  0  0  0  0  0  0  0  0  0  0  0
    2.0780   -4.1540   25.9090 C   0  0  0  0  0  0  0  0  0  0  0  0
    6.5060   -4.9580   20.3530 C   0  0  0  0  0  0  0  0  0  0  0  0
    6.9100   -3.4980   22.2090 C   0  0  0  0  0  0  0  0  0  0  0  0
    7.1110   -5.7660   22.4720 C   0  0  0  0  0  0  0  0  0  0  0  0
    3.3110   -3.7590   26.4160 C   0  0  0  0  0  0  0  0  0  0  0  0
    1.2970   -3.0230   25.6730 C   0  0  0  0  0  0  0  0  0  0  0  0
    5.7340   -6.1850   19.8620 C   0  0  0  0  0  0  0  0  0  0  0  0
    6.3310   -2.2150   21.6990 C   0  0  0  0  0  0  0  0  0  0  0  0
    3.5970   -1.9660   26.6280 S   0  0  0  0  0  0  0  0  0  0  0  0
    1.9930   -1.7230   26.0260 C   0  0  0  0  0  0  0  0  0  0  0  0
    7.1900   -1.0510   21.6930 N   0  0  0  0  0  0  0  0  0  0  0  0
    6.6760    0.1750   21.7530 C   0  0  1  0  0  0  0  0  0  0  0  0
    8.4490   -1.3110   22.4260 C   0  0  0  0  0  0  0  0  0  0  0  0
    7.5160    1.2510   21.9730 C   0  0  0  0  0  0  0  0  0  0  0  0
    6.1110    0.5160   20.3730 C   0  0  0  0  0  0  0  0  0  0  0  0
    9.5970   -1.2090   21.6800 C   0  0  0  0  0  0  0  0  0  0  0  0
    8.4740   -1.6290   23.7770 C   0  0  0  0  0  0  0  0  0  0  0  0
    7.4660    2.0290   23.0600 N   0  0  0  0  0  0  0  0  0  0  0  0
    8.4520    1.4520   20.8960 O   0  0  0  0  0  0  0  0  0  0  0  0
    4.8840    1.1940   20.1540 C   0  0  0  0  0  0  0  0  0  0  0  0
    6.8230    0.1540   19.2360 C   0  0  0  0  0  0  0  0  0  0  0  0
   10.8280   -1.4270   22.2880 C   0  0  0  0  0  0  0  0  0  0  0  0
    9.7200   -1.8430   24.3830 C   0  0  0  0  0  0  0  0  0  0  0  0
    8.1590    3.2840   23.1310 C   0  0  0  0  0  0  0  0  0  0  0  0
    3.8130    1.7350   21.0890 C   0  0  0  0  0  0  0  0  0  0  0  0
    6.4540    0.4080   17.9660 N   0  0  0  0  0  0  0  0  0  0  0  0
    4.5050    1.4590   18.8490 C   0  0  0  0  0  0  0  0  0  0  0  0
   10.9200   -1.7390   23.6380 C   0  0  0  0  0  0  0  0  0  0  0  0
    7.8080    4.3870   22.3830 C   0  0  0  0  0  0  0  0  0  0  0  0
   12.2690   -1.9600   24.3110 C   0  0  0  0  0  0  0  0  0  0  0  0
    4.1700    1.9980   22.4130 C   0  0  0  0  0  0  0  0  0  0  0  0
    5.3080    1.0600   17.8140 C   0  0  0  0  0  0  0  0  0  0  0  0
    8.4890    5.3010   22.8670 O   0  0  0  0  0  0  0  0  0  0  0  0
   13.2430   -2.2470   23.3520 C   0  0  0  0  0  0  0  0  0  0  0  0
   12.0860   -3.1870   25.1980 C   0  0  0  0  0  0  0  0  0  0  0  0
   12.6140   -0.8610   25.0500 C   0  0  0  0  0  0  0  0  0  0  0  0
    3.2450    2.7030   23.1230 N   0  0  0  0  0  0  0  0  0  0  0  0
    8.3170    6.5170   22.1460 C   0  0  0  0  0  0  0  0  0  0  0  0
    2.3630    2.1010   24.1690 C   0  0  0  0  0  0  0  0  0  0  0  0
    2.5240    0.9800   24.6020 O   0  0  0  0  0  0  0  0  0  0  0  0
    1.2550    2.9220   24.7410 C   0  0  0  0  0  0  0  0  0  0  0  0
    1.5480    4.1000   25.4260 C   0  0  0  0  0  0  0  0  0  0  0  0
   -0.0350    2.5220   24.6040 C   0  0  0  0  0  0  0  0  0  0  0  0
    2.8220    4.5020   25.5620 F   0  0  0  0  0  0  0  0  0  0  0  0
   -1.1550    3.1960   25.1090 C   0  0  0  0  0  0  0  0  0  0  0  0
    0.5440    4.9010   25.9970 C   0  0  0  0  0  0  0  0  0  0  0  0
   -0.9110    4.4800   25.8690 C   0  0  0  0  0  0  0  0  0  0  0  0
  1  2  1  0
  2  3  1  0
  2  4  2  0
  5  3  1  6
  5  6  1  0
  5  7  1  0
  7  8  1  1
  6  9  1  0
  7 10  1  0
  7 11  1  0
  6 12  1  6
  9 13  1  0
  9 14  2  0
  8 15  2  0
 10 16  1  0
 11 17  1  0
 12 18  1  0
 16 19  1  6
 16 20  1  0
 16 21  1  0
 17 21  1  0
 18 22  2  0
 18 23  1  0
 19 24  2  3
 20 25  1  0
 22 26  1  0
 23 27  2  0
 26 27  1  0
 25 28  1  0
 28 29  1  0
 28 30  1  0
 29 31  1  6
 29 32  1  0
 30 33  2  0
 30 34  1  0
 31 35  1  0
 31 36  2  0
 32 37  1  0
 32 38  2  0
 33 39  1  0
 34 40  2  0
 35 41  1  0
 37 42  1  0
 38 43  1  0
 37 44  2  0
 39 45  2  0
 40 45  1  0
 41 46  1  0
 45 47  1  0
 42 48  1  0
 43 49  2  0
 44 49  1  0
 46 50  1  0
 47 51  1  0
 47 52  1  0
 47 53  1  0
 48 54  1  0
 50 55  1  0
 54 56  1  0
 56 57  2  0
 56 58  1  0
 58 59  2  0
 58 60  1  0
 59 61  1  0
 60 62  2  0
 59 63  1  0
 62 64  1  0
 63 64  2  0
M  END
