x0981-x1493-x3117
     RDKit          3D

 51 54  0  0  0  0  0  0  0  0999 V2000
    1.1590   -8.7140   21.3210 C   0  0  0  0  0  0  0  0  0  0  0  0
    1.4120   -7.4890   22.1630 C   0  0  0  0  0  0  0  0  0  0  0  0
    2.5360   -7.4970   22.7980 N   0  0  0  0  0  0  0  0  0  0  0  0
    0.6200   -6.5460   22.2270 O   0  0  0  0  0  0  0  0  0  0  0  0
    3.0180   -6.4220   23.5420 C   0  0  1  0  0  0  0  0  0  0  0  0
    2.2320   -6.4120   24.8850 C   0  0  0  0  0  0  0  0  0  0  0  0
    4.5180   -6.6240   23.7820 C   0  0  0  0  0  0  0  0  0  0  0  0
    2.6310   -7.7440   25.5610 C   0  0  0  0  0  0  0  0  0  0  0  0
    5.3770   -5.7110   23.2060 C   0  0  1  0  0  0  0  0  0  0  0  0
    2.1870   -8.1100   26.8150 N   0  0  0  0  0  0  0  0  0  0  0  0
    3.4880   -8.6420   24.8760 O   0  0  0  0  0  0  0  0  0  0  0  0
    5.9980   -4.7520   24.2810 C   0  0  1  0  0  0  0  0  0  0  0  0
    6.4670   -6.2270   22.5260 C   0  0  0  0  0  0  0  0  0  0  0  0
    4.8910   -3.9010   24.5900 O   0  0  0  0  0  0  0  0  0  0  0  0
    6.3390   -5.4020   25.6520 C   0  0  0  0  0  0  0  0  0  0  0  0
    7.1790   -4.1770   23.7630 C   0  0  0  0  0  0  0  0  0  0  0  0
    7.1180   -5.2060   21.7230 N   0  0  0  0  0  0  0  0  0  0  0  0
    6.9800   -5.4290   20.3630 C   0  0  0  0  0  0  0  0  0  0  0  0
    5.1590   -5.6800   26.6100 C   0  0  0  0  0  0  0  0  0  0  0  0
    7.4830   -5.6910   25.9980 O   0  0  0  0  0  0  0  0  0  0  0  0
    7.1490   -3.9230   22.3820 C   0  0  1  0  0  0  0  0  0  0  0  0
    5.7270   -6.1320   19.9210 C   0  0  0  0  0  0  0  0  0  0  0  0
    6.0100   -2.9500   22.0410 C   0  0  0  0  0  0  0  0  0  0  0  0
    6.1770   -1.5740   22.6320 C   0  0  0  0  0  0  0  0  0  0  0  0
    7.1900   -0.8830   22.0940 N   0  0  0  0  0  0  0  0  0  0  0  0
    6.8300    0.5090   21.7990 C   0  0  1  0  0  0  0  0  0  0  0  0
    8.4550   -1.1500   22.5890 C   0  0  0  0  0  0  0  0  0  0  0  0
    7.9390    1.3550   21.8190 C   0  0  0  0  0  0  0  0  0  0  0  0
    6.2870    0.6620   20.4130 C   0  0  0  0  0  0  0  0  0  0  0  0
    9.4480   -1.8000   21.8770 C   0  0  0  0  0  0  0  0  0  0  0  0
    8.7960   -0.7500   23.8670 C   0  0  0  0  0  0  0  0  0  0  0  0
    7.9490    2.2580   22.8370 N   0  0  0  0  0  0  0  0  0  0  0  0
    8.8260    1.3200   20.9860 O   0  0  0  0  0  0  0  0  0  0  0  0
    5.0530    1.5720   20.2300 C   0  0  0  0  0  0  0  0  0  0  0  0
    6.8280    0.0460   19.3050 C   0  0  0  0  0  0  0  0  0  0  0  0
   10.7150   -2.0100   22.4210 C   0  0  0  0  0  0  0  0  0  0  0  0
   10.0440   -0.9560   24.4020 C   0  0  0  0  0  0  0  0  0  0  0  0
    6.2990    0.2150   17.9470 N   0  0  0  0  0  0  0  0  0  0  0  0
    4.4580    1.8120   19.0030 C   0  0  0  0  0  0  0  0  0  0  0  0
    8.8620    3.3780   22.7660 C   0  0  0  0  0  0  0  0  0  0  0  0
   11.0660   -1.5860   23.7000 C   0  0  0  0  0  0  0  0  0  0  0  0
   12.4570   -1.7600   24.2970 C   0  0  0  0  0  0  0  0  0  0  0  0
    5.1300    1.0950   17.8290 C   0  0  0  0  0  0  0  0  0  0  0  0
    9.9290    3.1550   23.8580 C   0  0  0  0  0  0  0  0  0  0  0  0
    8.0590    4.5190   22.9270 C   0  0  0  0  0  0  0  0  0  0  0  0
   12.6490   -0.6380   25.1460 C   0  0  0  0  0  0  0  0  0  0  0  0
   13.4150   -1.6390   23.1200 C   0  0  0  0  0  0  0  0  0  0  0  0
   12.8140   -2.9270   24.8910 C   0  0  0  0  0  0  0  0  0  0  0  0
   10.6930    4.3170   23.7520 C   0  0  0  0  0  0  0  0  0  0  0  0
    8.8650    5.7570   23.3150 C   0  0  0  0  0  0  0  0  0  0  0  0
    9.9160    5.4170   24.2130 O   0  0  0  0  0  0  0  0  0  0  0  0
  1  2  1  0
  2  3  1  0
  2  4  2  0
  3  5  1  0
  5  6  1  1
  5  7  1  0
  6  8  1  0
  9  7  1  1
  8 10  1  0
  8 11  2  0
  9 12  1  0
  9 13  1  0
 12 14  1  1
 12 15  1  0
 12 16  1  0
 13 17  1  0
 17 18  1  0
 15 19  1  0
 15 20  2  0
 16 21  1  0
 17 21  1  0
 18 22  2  3
 21 23  1  1
 23 24  1  0
 24 25  1  0
 25 26  1  0
 25 27  1  0
 26 28  1  6
 26 29  1  0
 27 30  2  0
 27 31  1  0
 28 32  1  0
 28 33  2  0
 29 34  2  0
 29 35  1  0
 30 36  1  0
 31 37  2  0
 35 38  2  0
 34 39  1  0
 32 40  1  0
 36 41  2  0
 37 41  1  0
 41 42  1  0
 38 43  1  0
 39 43  2  0
 40 44  1  0
 40 45  1  0
 42 46  1  0
 42 47  1  0
 42 48  1  0
 44 49  1  0
 45 50  1  0
 49 51  1  0
 50 51  1  0
M  END
