x0981-x0978-x0691-x0755-x3113
     RDKit          3D

 56 59  0  0  0  0  0  0  0  0999 V2000
    1.1460   -8.2140   21.8220 C   0  0  0  0  0  0  0  0  0  0  0  0
    1.1530   -6.9420   22.4200 C   0  0  0  0  0  0  0  0  0  0  0  0
    2.1970   -6.4760   23.0540 N   0  0  0  0  0  0  0  0  0  0  0  0
    0.4510   -6.0320   21.5940 O   0  0  0  0  0  0  0  0  0  0  0  0
    0.1260   -6.9410   23.5030 C   0  0  0  0  0  0  0  0  0  0  0  0
    3.2160   -5.9290   23.9870 C   0  0  1  0  0  0  0  0  0  0  0  0
    3.4290   -6.8600   25.1840 C   0  0  0  0  0  0  0  0  0  0  0  0
    4.5430   -5.1400   23.5480 C   0  0  1  0  0  0  0  0  0  0  0  0
    2.7880   -8.1790   25.2320 C   0  0  0  0  0  0  0  0  0  0  0  0
    5.6260   -5.2010   24.5740 N   0  0  0  0  0  0  0  0  0  0  0  0
    5.1100   -5.4420   22.1940 C   0  0  0  0  0  0  0  0  0  0  0  0
    2.0580   -8.5940   26.4450 N   0  0  0  0  0  0  0  0  0  0  0  0
    2.9170   -8.8910   24.2870 O   0  0  0  0  0  0  0  0  0  0  0  0
    5.2330   -4.8580   26.2130 S   0  0  0  0  0  0  0  0  0  0  0  0
    6.3140   -4.6630   21.7800 C   0  0  1  0  0  0  0  0  0  0  0  0
    6.9440   -4.6260   24.1470 C   0  0  0  0  0  0  0  0  0  0  0  0
    6.5840   -5.0370   20.2910 C   0  0  0  0  0  0  0  0  0  0  0  0
    4.8130   -6.0800   26.8330 O   0  0  0  0  0  0  0  0  0  0  0  0
    6.3670   -4.1930   26.7580 O   0  0  0  0  0  0  0  0  0  0  0  0
    5.9380   -3.1150   21.9370 C   0  0  0  0  0  0  0  0  0  0  0  0
    3.9560   -3.7120   26.1440 C   0  0  0  0  0  0  0  0  0  0  0  0
    7.3120   -4.9850   22.6860 C   0  0  0  0  0  0  0  0  0  0  0  0
    5.7840   -6.2380   19.7940 C   0  0  0  0  0  0  0  0  0  0  0  0
    6.8840   -2.1820   21.5260 C   0  0  0  0  0  0  0  0  0  0  0  0
    2.4440   -4.0850   26.2040 C   0  0  0  0  0  0  0  0  0  0  0  0
    4.3000   -2.2270   26.0160 C   0  0  0  0  0  0  0  0  0  0  0  0
    5.5640   -1.8060   25.9620 F   0  0  0  0  0  0  0  0  0  0  0  0
    7.3130   -1.1290   22.2230 N   0  0  0  0  0  0  0  0  0  0  0  0
    3.2840   -1.2780   25.9540 C   0  0  0  0  0  0  0  0  0  0  0  0
    1.4830   -3.0750   26.1350 C   0  0  0  0  0  0  0  0  0  0  0  0
    6.8720    0.2510   21.9240 C   0  0  1  0  0  0  0  0  0  0  0  0
    1.9230   -1.6290   26.0070 C   0  0  0  0  0  0  0  0  0  0  0  0
    8.5800   -1.3780   22.7340 C   0  0  0  0  0  0  0  0  0  0  0  0
    7.9750    1.1210   21.9770 C   0  0  0  0  0  0  0  0  0  0  0  0
    6.3640    0.4950   20.5160 C   0  0  0  0  0  0  0  0  0  0  0  0
    9.8120   -1.2290   21.8510 C   0  0  0  0  0  0  0  0  0  0  0  0
    8.8390   -1.8110   24.1990 C   0  0  0  0  0  0  0  0  0  0  0  0
    8.1160    1.6740   23.2200 N   0  0  0  0  0  0  0  0  0  0  0  0
    8.7070    1.3790   21.0140 O   0  0  0  0  0  0  0  0  0  0  0  0
    5.1350    1.3800   20.3530 C   0  0  0  0  0  0  0  0  0  0  0  0
    6.9850   -0.0490   19.3900 C   0  0  0  0  0  0  0  0  0  0  0  0
   11.0320   -1.4730   22.4210 C   0  0  0  0  0  0  0  0  0  0  0  0
   10.1370   -2.0230   24.6420 C   0  0  0  0  0  0  0  0  0  0  0  0
    9.1630    2.7100   23.2220 C   0  0  0  0  0  0  0  0  0  0  0  0
    6.4680    0.2360   18.0460 N   0  0  0  0  0  0  0  0  0  0  0  0
    4.6540    1.6310   18.9530 C   0  0  0  0  0  0  0  0  0  0  0  0
   11.2660   -1.8790   23.8630 C   0  0  0  0  0  0  0  0  0  0  0  0
   10.5660    2.0420   23.2380 C   0  0  0  0  0  0  0  0  0  0  0  0
   12.6900   -2.0590   24.3250 C   0  0  0  0  0  0  0  0  0  0  0  0
    5.2940    1.0870   17.8590 C   0  0  0  0  0  0  0  0  0  0  0  0
   11.7000    3.0720   23.3110 C   0  0  0  0  0  0  0  0  0  0  0  0
   13.4960   -2.3190   23.2310 C   0  0  0  0  0  0  0  0  0  0  0  0
   12.9380   -3.0900   25.3710 C   0  0  0  0  0  0  0  0  0  0  0  0
   12.8990   -0.8330   24.8940 C   0  0  0  0  0  0  0  0  0  0  0  0
   11.7770    3.7920   22.2950 O   0  0  0  0  0  0  0  0  0  0  0  0
   12.9350    4.6220   22.3840 C   0  0  0  0  0  0  0  0  0  0  0  0
  1  2  1  0
  2  3  1  0
  2  4  1  0
  2  5  1  0
  3  6  1  0
  6  7  1  6
  6  8  1  0
  7  9  1  0
  8 10  1  0
  8 11  1  6
  9 12  1  0
  9 13  2  0
 10 14  1  0
 11 15  1  0
 10 16  1  0
 15 17  1  6
 14 18  2  0
 14 19  2  0
 15 20  1  0
 14 21  1  0
 15 22  1  0
 16 22  1  0
 17 23  2  3
 20 24  1  0
 21 25  2  0
 21 26  1  0
 26 27  1  0
 24 28  1  0
 26 29  2  0
 25 30  1  0
 28 31  1  0
 29 32  1  0
 30 32  2  0
 28 33  1  0
 31 34  1  6
 31 35  1  0
 33 36  2  0
 33 37  1  0
 34 38  1  0
 34 39  2  0
 35 40  2  0
 35 41  1  0
 36 42  1  0
 37 43  2  0
 38 44  1  0
 41 45  2  0
 40 46  1  0
 42 47  2  0
 43 47  1  0
 44 48  1  0
 47 49  1  0
 45 50  1  0
 46 50  2  0
 48 51  1  0
 49 52  1  0
 49 53  1  0
 49 54  1  0
 51 55  1  0
 55 56  1  0
M  END
