x0981-x3117
     RDKit          3D

 44 46  0  0  0  0  0  0  0  0999 V2000
    1.2500   -8.6590   21.4610 C   0  0  0  0  0  0  0  0  0  0  0  0
    1.4120   -7.3440   22.1900 C   0  0  0  0  0  0  0  0  0  0  0  0
    2.6690   -7.0800   22.7170 N   0  0  0  0  0  0  0  0  0  0  0  0
    0.4750   -6.5560   22.2790 O   0  0  0  0  0  0  0  0  0  0  0  0
    2.9360   -5.9110   23.5870 C   0  0  1  0  0  0  0  0  0  0  0  0
    2.6600   -6.2900   25.0370 C   0  0  0  0  0  0  0  0  0  0  0  0
    4.3810   -5.2780   23.3950 C   0  0  0  0  0  0  0  0  0  0  0  0
    5.1400   -5.4470   22.2620 N   0  0  0  0  0  0  0  0  0  0  0  0
    4.8980   -4.5800   24.2660 O   0  0  0  0  0  0  0  0  0  0  0  0
    3.0820   -7.7010   25.2960 C   0  0  0  0  0  0  0  0  0  0  0  0
    2.4670   -8.3620   26.3170 N   0  0  0  0  0  0  0  0  0  0  0  0
    3.9480   -8.1980   24.6060 O   0  0  0  0  0  0  0  0  0  0  0  0
    6.0750   -4.4640   21.6690 C   0  0  1  0  0  0  0  0  0  0  0  0
    6.4050   -4.9460   20.2670 C   0  0  0  0  0  0  0  0  0  0  0  0
    5.4770   -3.0260   21.6610 C   0  0  0  0  0  0  0  0  0  0  0  0
    5.8240   -6.0850   19.8810 C   0  0  0  0  0  0  0  0  0  0  0  0
    6.0520   -2.1770   22.6150 C   0  0  0  0  0  0  0  0  0  0  0  0
    7.1600   -1.3520   22.0400 N   0  0  0  0  0  0  0  0  0  0  0  0
    6.8070    0.0720   21.7680 C   0  0  1  0  0  0  0  0  0  0  0  0
    8.4310   -1.5100   22.5650 C   0  0  0  0  0  0  0  0  0  0  0  0
    7.9380    0.9180   21.8990 C   0  0  0  0  0  0  0  0  0  0  0  0
    6.2110    0.3540   20.4130 C   0  0  0  0  0  0  0  0  0  0  0  0
    9.4770   -2.0410   21.8220 C   0  0  0  0  0  0  0  0  0  0  0  0
    8.7000   -1.1140   23.8660 C   0  0  0  0  0  0  0  0  0  0  0  0
    7.7380    2.1180   22.7050 N   0  0  0  0  0  0  0  0  0  0  0  0
    8.9980    0.6570   21.3510 O   0  0  0  0  0  0  0  0  0  0  0  0
    5.0450    1.1250   20.3280 C   0  0  0  0  0  0  0  0  0  0  0  0
    6.8040   -0.1280   19.1070 C   0  0  0  0  0  0  0  0  0  0  0  0
   10.7590   -2.1620   22.3260 C   0  0  0  0  0  0  0  0  0  0  0  0
    9.9640   -1.2230   24.3900 C   0  0  0  0  0  0  0  0  0  0  0  0
    6.2850    0.1470   17.9030 N   0  0  0  0  0  0  0  0  0  0  0  0
    4.5340    1.3890   19.0540 C   0  0  0  0  0  0  0  0  0  0  0  0
    8.6670    3.1800   22.8390 C   0  0  0  0  0  0  0  0  0  0  0  0
   11.0140   -1.7350   23.6320 C   0  0  0  0  0  0  0  0  0  0  0  0
   12.3880   -1.7900   24.2340 C   0  0  0  0  0  0  0  0  0  0  0  0
    5.1710    0.8980   17.9300 C   0  0  0  0  0  0  0  0  0  0  0  0
    9.9310    2.9580   23.6670 C   0  0  0  0  0  0  0  0  0  0  0  0
    7.9550    4.3420   23.1230 C   0  0  0  0  0  0  0  0  0  0  0  0
   12.6030   -0.6200   25.1820 C   0  0  0  0  0  0  0  0  0  0  0  0
   13.3910   -1.6370   23.0870 C   0  0  0  0  0  0  0  0  0  0  0  0
   12.8190   -3.0190   25.0160 C   0  0  0  0  0  0  0  0  0  0  0  0
   10.6650    4.2830   23.6970 C   0  0  0  0  0  0  0  0  0  0  0  0
    8.7520    5.5120   23.1920 C   0  0  0  0  0  0  0  0  0  0  0  0
    9.7740    5.2880   24.1610 O   0  0  0  0  0  0  0  0  0  0  0  0
  1  2  1  0
  2  3  1  0
  2  4  2  0
  3  5  1  0
  5  6  1  1
  5  7  1  0
  7  8  1  0
  7  9  2  0
  6 10  1  0
 10 11  1  0
 10 12  2  0
  8 13  1  0
 13 14  1  6
 13 15  1  0
 14 16  2  3
 15 17  1  0
 17 18  1  0
 18 19  1  0
 18 20  1  0
 19 21  1  6
 19 22  1  0
 20 23  2  0
 20 24  1  0
 21 25  1  0
 21 26  2  0
 22 27  2  0
 22 28  1  0
 23 29  1  0
 24 30  2  0
 28 31  2  0
 27 32  1  0
 25 33  1  0
 29 34  2  0
 30 34  1  0
 34 35  1  0
 31 36  1  0
 32 36  2  0
 33 37  1  0
 33 38  1  0
 35 39  1  0
 35 40  1  0
 35 41  1  0
 37 42  1  0
 38 43  1  0
 42 44  1  0
 43 44  1  0
M  END
