x0981-x0830
     RDKit          3D

 33 35  0  0  0  0  0  0  0  0999 V2000
    1.2190   -8.7250   21.3550 C   0  0  0  0  0  0  0  0  0  0  0  0
    1.3450   -7.4390   22.1310 C   0  0  0  0  0  0  0  0  0  0  0  0
    2.5610   -7.2290   22.7540 N   0  0  0  0  0  0  0  0  0  0  0  0
    0.4200   -6.6290   22.1830 O   0  0  0  0  0  0  0  0  0  0  0  0
    2.8330   -6.0260   23.5590 C   0  0  1  0  0  0  0  0  0  0  0  0
    2.5640   -6.3370   25.0240 C   0  0  0  0  0  0  0  0  0  0  0  0
    4.2890   -5.4610   23.3430 C   0  0  0  0  0  0  0  0  0  0  0  0
    5.0040   -5.6570   22.1880 N   0  0  0  0  0  0  0  0  0  0  0  0
    4.8470   -4.7910   24.2120 O   0  0  0  0  0  0  0  0  0  0  0  0
    3.0310   -7.7260   25.3300 C   0  0  0  0  0  0  0  0  0  0  0  0
    2.4440   -8.3730   26.3750 N   0  0  0  0  0  0  0  0  0  0  0  0
    3.9080   -8.2190   24.6510 O   0  0  0  0  0  0  0  0  0  0  0  0
    5.7670   -4.6000   21.5210 C   0  0  2  0  0  0  0  0  0  0  0  0
    6.3120   -5.0710   20.1850 C   0  0  0  0  0  0  0  0  0  0  0  0
    6.8210   -4.0280   22.4820 C   0  0  0  0  0  0  0  0  0  0  0  0
    5.8070   -6.2110   19.7820 C   0  0  0  0  0  0  0  0  0  0  0  0
    6.7500   -2.6540   22.6360 C   0  0  2  0  0  0  0  0  0  0  0  0
    6.7200   -2.1410   21.5720 N   0  0  0  0  0  0  0  0  0  0  0  0
    7.8380   -2.1430   23.5620 C   0  0  0  0  0  0  0  0  0  0  0  0
    9.0920   -2.6160   23.0430 N   0  0  0  0  0  0  0  0  0  0  0  0
    7.9320   -1.3600   21.2190 C   0  0  0  0  0  0  0  0  0  0  0  0
   10.1240   -2.4650   23.9170 C   0  0  0  0  0  0  0  0  0  0  0  0
    9.2730   -1.9980   21.7190 C   0  0  0  0  0  0  0  0  0  0  0  0
   11.1570   -1.4910   23.5160 C   0  0  0  0  0  0  0  0  0  0  0  0
   12.3040   -1.9020   22.8630 C   0  0  0  0  0  0  0  0  0  0  0  0
   10.9340   -0.1560   23.7930 C   0  0  0  0  0  0  0  0  0  0  0  0
   13.2470   -0.9990   22.4800 C   0  0  0  0  0  0  0  0  0  0  0  0
   11.8800    0.7700   23.3960 C   0  0  0  0  0  0  0  0  0  0  0  0
    9.7580    0.2740   24.4620 C   0  0  0  0  0  0  0  0  0  0  0  0
   13.0200    0.3460   22.7610 C   0  0  0  0  0  0  0  0  0  0  0  0
   11.7300    2.1330   23.6010 C   0  0  0  0  0  0  0  0  0  0  0  0
    9.4640    1.7320   24.7520 C   0  0  0  0  0  0  0  0  0  0  0  0
   10.5100    2.7180   24.2830 C   0  0  0  0  0  0  0  0  0  0  0  0
  1  2  1  0
  2  3  1  0
  2  4  2  0
  3  5  1  0
  5  6  1  1
  5  7  1  0
  7  8  1  0
  7  9  2  0
  6 10  1  0
 10 11  1  0
 10 12  2  0
  8 13  1  0
 13 14  1  6
 13 15  1  0
 14 16  2  3
 17 15  1  6
 17 18  1  0
 17 19  1  0
 19 20  1  0
 18 21  1  0
 20 22  1  0
 20 23  1  0
 21 23  1  0
 22 24  1  0
 24 25  2  0
 24 26  1  0
 25 27  1  0
 26 28  2  0
 26 29  1  0
 27 30  2  0
 28 30  1  0
 28 31  1  0
 29 32  2  0
 31 33  2  0
 32 33  1  0
M  END
