x0981-x0426-x3110-x1458-x0946
     RDKit          3D

 74 79  0  0  0  0  0  0  0  0999 V2000
    8.0320    1.1610   23.3940 N   0  0  0  0  0  0  0  0  0  0  0  0
    8.6810    2.3780   23.8930 C   0  0  0  0  0  0  0  0  0  0  0  0
   10.1500    2.4330   23.5340 C   0  0  0  0  0  0  0  0  0  0  0  0
    7.9040    0.9740   21.9880 C   0  0  0  0  0  0  0  0  0  0  0  0
    8.6560    1.5510   21.1710 O   0  0  0  0  0  0  0  0  0  0  0  0
    6.7280    0.0020   21.6300 C   0  0  2  0  0  0  0  0  0  0  0  0
    7.1000   -1.4390   21.7960 N   0  0  0  0  0  0  0  0  0  0  0  0
    6.1180    0.3850   20.2920 C   0  0  0  0  0  0  0  0  0  0  0  0
   11.0260    3.7040   23.4050 C   0  0  0  0  0  0  0  0  0  0  0  0
   10.8380    1.1250   23.2660 C   0  0  0  0  0  0  0  0  0  0  0  0
   10.4220    5.0820   23.6530 C   0  0  0  0  0  0  0  0  0  0  0  0
    6.2150   -2.5620   21.4500 C   0  0  0  0  0  0  0  0  0  0  0  0
    4.8210    0.9490   20.2170 C   0  0  0  0  0  0  0  0  0  0  0  0
    6.8460    0.1910   19.1540 C   0  0  0  0  0  0  0  0  0  0  0  0
    8.3790   -1.5910   22.4490 C   0  0  0  0  0  0  0  0  0  0  0  0
   12.1900    1.0910   22.9160 C   0  0  0  0  0  0  0  0  0  0  0  0
   12.3650    3.5300   23.0540 C   0  0  0  0  0  0  0  0  0  0  0  0
   13.3300    4.6770   22.8980 C   0  0  0  0  0  0  0  0  0  0  0  0
    3.9010    1.1790   21.4060 C   0  0  0  0  0  0  0  0  0  0  0  0
   10.9290    6.0270   22.8450 N   0  0  0  0  0  0  0  0  0  0  0  0
   10.6460    5.6130   25.0050 O   0  0  0  0  0  0  0  0  0  0  0  0
    9.3180    5.0730   23.1740 O   0  0  0  0  0  0  0  0  0  0  0  0
    6.4520    0.5170   17.9130 N   0  0  0  0  0  0  0  0  0  0  0  0
    4.3660    1.3080   18.9760 C   0  0  0  0  0  0  0  0  0  0  0  0
    9.4930   -1.5060   21.6400 C   0  0  0  0  0  0  0  0  0  0  0  0
    8.6160   -1.8120   23.8230 C   0  0  0  0  0  0  0  0  0  0  0  0
   12.9280    2.2680   22.8170 C   0  0  0  0  0  0  0  0  0  0  0  0
    6.7400   -4.0870   21.5560 C   0  0  1  0  0  0  0  0  0  0  0  0
   13.2070    5.2230   21.5310 C   0  0  0  0  0  0  0  0  0  0  0  0
    4.4760    2.0140   22.3440 C   0  0  0  0  0  0  0  0  0  0  0  0
    7.0460   -4.8270   20.2660 C   0  0  0  0  0  0  0  0  0  0  0  0
    5.2440    1.0740   17.8180 C   0  0  0  0  0  0  0  0  0  0  0  0
   10.7830   -1.6360   22.1050 C   0  0  0  0  0  0  0  0  0  0  0  0
    9.8580   -1.9600   24.3210 C   0  0  0  0  0  0  0  0  0  0  0  0
    7.7280   -4.0690   22.6590 C   0  0  0  0  0  0  0  0  0  0  0  0
    5.6840   -5.1140   22.0880 C   0  0  0  0  0  0  0  0  0  0  0  0
    3.3430    2.6410   23.0470 N   0  0  0  0  0  0  0  0  0  0  0  0
    6.0550   -5.9430   19.8360 C   0  0  0  0  0  0  0  0  0  0  0  0
   11.0170   -1.8870   23.5890 C   0  0  0  0  0  0  0  0  0  0  0  0
    6.9440   -3.5570   23.8650 C   0  0  0  0  0  0  0  0  0  0  0  0
    6.1050   -5.6950   23.4160 C   0  0  2  0  0  0  0  0  0  0  0  0
   12.4390   -2.0160   24.1660 C   0  0  0  0  0  0  0  0  0  0  0  0
    2.2900    1.9090   23.7520 C   0  0  0  0  0  0  0  0  0  0  0  0
    5.0810   -6.6000   23.8200 N   0  0  0  0  0  0  0  0  0  0  0  0
    6.0320   -4.6510   24.2920 C   0  0  2  0  0  0  0  0  0  0  0  0
   12.7940   -0.6660   24.8240 C   0  0  0  0  0  0  0  0  0  0  0  0
   13.4100   -2.2300   23.0040 C   0  0  0  0  0  0  0  0  0  0  0  0
   12.7760   -3.0770   25.2200 C   0  0  0  0  0  0  0  0  0  0  0  0
    2.2490    0.5380   23.7230 O   0  0  0  0  0  0  0  0  0  0  0  0
    4.5130   -4.4870   24.3050 N   0  0  0  0  0  0  0  0  0  0  0  0
    4.0950   -5.7620   24.0800 C   0  0  0  0  0  0  0  0  0  0  0  0
    6.2060   -4.7970   25.8060 C   0  0  0  0  0  0  0  0  0  0  0  0
    1.2550    2.6300   24.5100 C   0  0  0  0  0  0  0  0  0  0  0  0
    2.7710   -6.2940   24.0990 C   0  0  1  0  0  0  0  0  0  0  0  0
    7.1150   -4.0480   26.5380 N   0  0  0  0  0  0  0  0  0  0  0  0
    5.4100   -5.5180   26.3800 O   0  0  0  0  0  0  0  0  0  0  0  0
    1.4960    3.9110   25.2870 C   0  0  0  0  0  0  0  0  0  0  0  0
   -0.1760    2.1200   24.5640 C   0  0  0  0  0  0  0  0  0  0  0  0
    2.7030    4.4900   25.3400 F   0  0  0  0  0  0  0  0  0  0  0  0
    2.5990   -7.1260   23.0030 N   0  0  0  0  0  0  0  0  0  0  0  0
    2.3670   -6.9390   25.2290 C   0  0  0  0  0  0  0  0  0  0  0  0
    7.9150   -4.7140   27.5810 C   0  0  0  0  0  0  0  0  0  0  0  0
    6.8260   -2.7460   26.7490 C   0  0  0  0  0  0  0  0  0  0  0  0
   -1.1690    2.7760   25.2640 C   0  0  0  0  0  0  0  0  0  0  0  0
    0.4400    4.5220   25.9750 C   0  0  0  0  0  0  0  0  0  0  0  0
    1.4590   -7.3810   22.3060 C   0  0  0  0  0  0  0  0  0  0  0  0
    2.8880   -8.1560   25.3570 C   0  0  0  0  0  0  0  0  0  0  0  0
    9.2500   -4.9190   27.2120 C   0  0  0  0  0  0  0  0  0  0  0  0
    7.2450   -5.8130   28.0720 C   0  0  0  0  0  0  0  0  0  0  0  0
   -0.8520    3.9640   25.9580 C   0  0  0  0  0  0  0  0  0  0  0  0
    1.2030   -8.5450   21.5860 C   0  0  0  0  0  0  0  0  0  0  0  0
    0.5110   -6.5910   22.2110 O   0  0  0  0  0  0  0  0  0  0  0  0
    2.2680   -8.9930   26.1980 N   0  0  0  0  0  0  0  0  0  0  0  0
    3.8660   -8.4420   24.7220 O   0  0  0  0  0  0  0  0  0  0  0  0
  1  2  1  0
  2  3  1  0
  1  4  1  0
  4  5  2  0
  6  4  1  6
  6  7  1  0
  6  8  1  0
  3  9  2  0
  3 10  1  0
  9 11  1  0
  7 12  1  0
  8 13  1  0
  8 14  2  0
  7 15  1  0
 10 16  2  0
  9 17  1  0
 17 18  1  0
 13 19  1  0
 11 20  1  0
 11 21  1  0
 11 22  1  0
 14 23  1  0
 13 24  2  0
 15 25  2  0
 15 26  1  0
 16 27  1  0
 17 27  2  0
 28 12  1  6
 18 29  1  0
 19 30  1  0
 28 31  1  0
 23 32  2  0
 24 32  1  0
 25 33  1  0
 26 34  2  0
 28 35  1  0
 28 36  1  0
 30 37  1  0
 31 38  2  3
 33 39  2  0
 34 39  1  0
 35 40  1  0
 41 36  1  6
 39 42  1  0
 37 43  1  0
 41 44  1  0
 40 45  1  0
 41 45  1  0
 42 46  1  0
 42 47  1  0
 42 48  1  0
 43 49  2  0
 45 50  1  0
 44 51  1  0
 50 51  2  0
 45 52  1  1
 43 53  1  0
 51 54  1  0
 52 55  1  0
 52 56  2  0
 53 57  2  0
 53 58  1  0
 57 59  1  0
 54 60  1  0
 54 61  1  1
 55 62  1  0
 55 63  1  0
 58 64  2  0
 57 65  1  0
 60 66  1  0
 61 67  1  0
 62 68  1  0
 62 69  1  0
 64 70  1  0
 65 70  2  0
 66 71  1  0
 66 72  2  0
 67 73  1  0
 67 74  2  0
M  END
