x0981-x0426-x0820-x3115
     RDKit          3D

 61 66  0  0  0  0  0  0  0  0999 V2000
    1.2930   -8.7710   21.2860 C   0  0  0  0  0  0  0  0  0  0  0  0
    1.4400   -7.4960   22.1100 C   0  0  0  0  0  0  0  0  0  0  0  0
    2.7040   -7.1270   22.5810 N   0  0  0  0  0  0  0  0  0  0  0  0
    0.4480   -6.7970   22.3180 O   0  0  0  0  0  0  0  0  0  0  0  0
    2.9470   -5.9490   23.4370 C   0  0  1  0  0  0  0  0  0  0  0  0
    2.5220   -6.2890   24.8570 C   0  0  0  0  0  0  0  0  0  0  0  0
    4.2940   -5.1170   23.2430 C   0  0  2  0  0  0  0  0  0  0  0  0
    5.2410   -5.6030   22.2520 N   0  0  0  0  0  0  0  0  0  0  0  0
    3.0280   -7.6840   25.3280 C   0  0  0  0  0  0  0  0  0  0  0  0
    5.1370   -4.9060   24.3410 C   0  0  0  0  0  0  0  0  0  0  0  0
    2.4480   -8.2300   26.4640 N   0  0  0  0  0  0  0  0  0  0  0  0
    3.9020   -8.2150   24.6640 O   0  0  0  0  0  0  0  0  0  0  0  0
    6.4690   -4.8290   21.8360 C   0  0  1  0  0  0  0  0  0  0  0  0
    6.5030   -4.2500   24.1870 C   0  0  0  0  0  0  0  0  0  0  0  0
    5.0060   -5.2370   25.6540 C   0  0  0  0  0  0  0  0  0  0  0  0
    6.4480   -4.8790   20.2990 C   0  0  0  0  0  0  0  0  0  0  0  0
    6.9740   -3.7090   22.7980 C   0  0  2  0  0  0  0  0  0  0  0  0
    7.1190   -4.5490   25.4450 C   0  0  2  0  0  0  0  0  0  0  0  0
    6.1260   -5.0030   26.2920 C   0  0  0  0  0  0  0  0  0  0  0  0
    5.6850   -6.1370   19.8500 C   0  0  0  0  0  0  0  0  0  0  0  0
    7.4860   -2.3320   22.3990 C   0  0  1  0  0  0  0  0  0  0  0  0
    6.3950   -5.2200   27.6750 C   0  0  0  0  0  0  0  0  0  0  0  0
    8.2970   -3.8940   26.1010 C   0  0  0  0  0  0  0  0  0  0  0  0
    7.0390   -0.8180   21.8960 C   0  0  1  0  0  0  0  0  0  0  0  0
    7.5620   -4.7640   28.2020 C   0  0  0  0  0  0  0  0  0  0  0  0
    8.4940   -4.0690   27.4710 C   0  0  0  0  0  0  0  0  0  0  0  0
    8.9890   -2.2200   22.7010 C   0  0  0  0  0  0  0  0  0  0  0  0
    7.6590    0.4260   22.3140 C   0  0  0  0  0  0  0  0  0  0  0  0
    6.2200   -0.2720   20.6670 C   0  0  0  0  0  0  0  0  0  0  0  0
    9.7960   -2.2280   23.8370 C   0  0  0  0  0  0  0  0  0  0  0  0
    9.7430   -2.0770   21.4900 C   0  0  0  0  0  0  0  0  0  0  0  0
    7.3970    1.3010   23.3150 N   0  0  0  0  0  0  0  0  0  0  0  0
    8.5760    0.6970   21.5290 O   0  0  0  0  0  0  0  0  0  0  0  0
    4.9490    0.3870   20.6170 C   0  0  0  0  0  0  0  0  0  0  0  0
    6.8310   -0.4020   19.3870 C   0  0  0  0  0  0  0  0  0  0  0  0
   11.1230   -1.9660   21.4400 C   0  0  0  0  0  0  0  0  0  0  0  0
   11.2110   -2.1150   23.6990 C   0  0  0  0  0  0  0  0  0  0  0  0
    8.3160    2.4640   23.3670 C   0  0  0  0  0  0  0  0  0  0  0  0
   12.1440   -2.1290   24.8160 C   0  0  0  0  0  0  0  0  0  0  0  0
    4.0090    0.6990   21.7780 C   0  0  0  0  0  0  0  0  0  0  0  0
    6.3380    0.0430   18.1100 N   0  0  0  0  0  0  0  0  0  0  0  0
    4.4860    0.8150   19.3550 C   0  0  0  0  0  0  0  0  0  0  0  0
   11.8330   -1.9860   22.5230 C   0  0  0  0  0  0  0  0  0  0  0  0
    8.0480    3.6800   22.7020 C   0  0  0  0  0  0  0  0  0  0  0  0
   13.5960   -2.4070   24.3800 C   0  0  0  0  0  0  0  0  0  0  0  0
   11.6670   -3.3180   25.6210 C   0  0  0  0  0  0  0  0  0  0  0  0
   12.0230   -0.6950   25.3090 C   0  0  0  0  0  0  0  0  0  0  0  0
    4.3260    1.8320   22.5210 C   0  0  0  0  0  0  0  0  0  0  0  0
    5.1570    0.6530   18.1480 C   0  0  0  0  0  0  0  0  0  0  0  0
    8.5440    4.7530   23.0810 O   0  0  0  0  0  0  0  0  0  0  0  0
    3.1110    2.4610   22.7820 N   0  0  0  0  0  0  0  0  0  0  0  0
    8.1230    5.8830   22.3070 C   0  0  0  0  0  0  0  0  0  0  0  0
    2.3190    1.7810   23.6830 C   0  0  0  0  0  0  0  0  0  0  0  0
    2.4010    0.5740   23.8910 O   0  0  0  0  0  0  0  0  0  0  0  0
    1.3010    2.5610   24.4420 C   0  0  0  0  0  0  0  0  0  0  0  0
    1.5660    3.8620   25.2050 C   0  0  0  0  0  0  0  0  0  0  0  0
   -0.1420    2.0800   24.5090 C   0  0  0  0  0  0  0  0  0  0  0  0
    2.7920    4.4060   25.2380 F   0  0  0  0  0  0  0  0  0  0  0  0
   -1.1030    2.7960   25.2140 C   0  0  0  0  0  0  0  0  0  0  0  0
    0.5230    4.5140   25.8900 C   0  0  0  0  0  0  0  0  0  0  0  0
   -0.7790    3.9830   25.8870 C   0  0  0  0  0  0  0  0  0  0  0  0
  1  2  1  0
  2  3  1  0
  2  4  2  0
  3  5  1  0
  5  6  1  1
  5  7  1  0
  7  8  1  6
  6  9  1  0
  7 10  1  0
  9 11  1  0
  9 12  2  0
  8 13  1  0
 10 14  2  0
 10 15  1  0
 13 16  1  6
 13 17  1  0
 17 14  1  1
 14 18  1  0
 15 19  2  0
 18 19  1  0
 16 20  2  3
 17 21  1  0
 19 22  1  0
 18 23  1  1
 21 24  1  0
 22 25  2  0
 23 26  2  0
 25 26  1  0
 21 27  1  1
 24 28  1  6
 24 29  1  0
 27 30  2  0
 27 31  1  0
 28 32  1  0
 28 33  2  0
 29 34  1  0
 29 35  2  0
 31 36  2  0
 30 37  1  0
 32 38  1  0
 37 39  1  0
 34 40  1  0
 35 41  1  0
 34 42  2  0
 36 43  1  0
 37 43  2  0
 38 44  1  0
 39 45  1  0
 39 46  1  0
 39 47  1  0
 40 48  1  0
 41 49  2  0
 42 49  1  0
 44 50  1  0
 48 51  1  0
 50 52  1  0
 51 53  1  0
 53 54  2  0
 53 55  1  0
 55 56  2  0
 55 57  1  0
 56 58  1  0
 57 59  2  0
 56 60  1  0
 59 61  1  0
 60 61  2  0
M  END
