x0981-x2776-x1478-x1308
     RDKit          3D

 61 65  0  0  0  0  0  0  0  0999 V2000
    1.2190   -8.7510   20.5560 C   0  0  0  0  0  0  0  0  0  0  0  0
    0.2780   -7.8390   21.3460 C   0  0  0  0  0  0  0  0  0  0  0  0
    0.6560   -7.4980   22.6410 N   0  0  0  0  0  0  0  0  0  0  0  0
   -0.7590   -7.4010   20.8690 O   0  0  0  0  0  0  0  0  0  0  0  0
    0.9360   -8.4620   23.7110 C   0  0  0  0  0  0  0  0  0  0  0  0
    1.0340   -7.9550   25.1980 C   0  0  1  0  0  0  0  0  0  0  0  0
    1.1460   -9.0150   26.1550 C   0  0  0  0  0  0  0  0  0  0  0  0
    1.7330   -6.6130   25.7130 C   0  0  0  0  0  0  0  0  0  0  0  0
    2.3900   -9.6160   26.2810 N   0  0  0  0  0  0  0  0  0  0  0  0
    0.1640   -9.3680   26.8260 O   0  0  0  0  0  0  0  0  0  0  0  0
    0.9190   -6.0070   26.6670 C   0  0  0  0  0  0  0  0  0  0  0  0
    3.0780   -5.8910   25.3900 C   0  0  0  0  0  0  0  0  0  0  0  0
    3.8340   -6.9190   24.2040 S   0  0  0  0  0  0  0  0  0  0  0  0
    3.7470   -4.3430   26.0760 C   0  0  0  0  0  0  0  0  0  0  0  0
    1.3080   -4.8730   27.2340 C   0  0  0  0  0  0  0  0  0  0  0  0
    0.3070   -4.1010   28.4270 Cl  0  0  0  0  0  0  0  0  0  0  0  0
    3.1900   -6.7070   22.9420 O   0  0  0  0  0  0  0  0  0  0  0  0
    4.0780   -8.1820   24.7880 O   0  0  0  0  0  0  0  0  0  0  0  0
    2.5290   -4.3180   26.8650 C   0  0  0  0  0  0  0  0  0  0  0  0
    5.1120   -4.3720   25.1920 C   0  0  0  0  0  0  0  0  0  0  0  0
    5.2500   -3.0900   24.3160 C   0  0  2  0  0  0  0  0  0  0  0  0
    5.3230   -3.1010   22.9100 N   0  0  0  0  0  0  0  0  0  0  0  0
    6.4370   -2.3440   24.9250 C   0  0  0  0  0  0  0  0  0  0  0  0
    6.3090   -4.0260   22.3150 N   0  0  0  0  0  0  0  0  0  0  0  0
    5.3970   -1.8030   22.3280 C   0  0  0  0  0  0  0  0  0  0  0  0
    6.6800   -1.0750   24.2720 C   0  0  2  0  0  0  0  0  0  0  0  0
    5.7690   -5.1240   21.7290 C   0  0  0  0  0  0  0  0  0  0  0  0
    5.8740   -0.6440   23.1210 C   0  0  1  0  0  0  0  0  0  0  0  0
    8.2240   -0.7270   24.2400 C   0  0  0  0  0  0  0  0  0  0  0  0
    6.1830   -5.3730   20.2800 C   0  0  0  0  0  0  0  0  0  0  0  0
    5.9830    0.5450   22.3770 N   0  0  0  0  0  0  0  0  0  0  0  0
    9.3040   -1.5110   23.4470 C   0  0  0  0  0  0  0  0  0  0  0  0
    5.6540   -6.4140   19.6500 C   0  0  0  0  0  0  0  0  0  0  0  0
    6.9240    0.8520   21.2230 C   0  0  2  0  0  0  0  0  0  0  0  0
   10.5560   -1.7050   24.1500 C   0  0  0  0  0  0  0  0  0  0  0  0
    8.9650   -1.9720   22.0840 C   0  0  0  0  0  0  0  0  0  0  0  0
    7.8980    1.8690   21.4000 C   0  0  0  0  0  0  0  0  0  0  0  0
    6.1950    1.1830   19.9210 C   0  0  0  0  0  0  0  0  0  0  0  0
   10.1910   -2.6320   21.5990 C   0  0  0  0  0  0  0  0  0  0  0  0
   11.6760   -2.3240   23.6900 C   0  0  0  0  0  0  0  0  0  0  0  0
    7.4250    3.0080   22.0310 N   0  0  0  0  0  0  0  0  0  0  0  0
    9.0550    1.7550   21.0020 O   0  0  0  0  0  0  0  0  0  0  0  0
    5.0160    1.9800   19.8680 C   0  0  0  0  0  0  0  0  0  0  0  0
    6.7010    0.7000   18.6800 C   0  0  0  0  0  0  0  0  0  0  0  0
   13.0250   -2.5170   24.4380 C   0  0  2  0  0  0  0  0  0  0  0  0
   11.5370   -2.8400   22.3180 C   0  0  0  0  0  0  0  0  0  0  0  0
    6.1620    0.9380   17.4630 N   0  0  0  0  0  0  0  0  0  0  0  0
    4.3970    2.2790   18.6340 C   0  0  0  0  0  0  0  0  0  0  0  0
    8.2510    4.1680   22.4800 C   0  0  0  0  0  0  0  0  0  0  0  0
   12.7960   -3.2810   25.6380 O   0  0  0  0  0  0  0  0  0  0  0  0
   13.4700   -1.0700   24.7130 C   0  0  0  0  0  0  0  0  0  0  0  0
    4.9070    1.8010   17.4010 C   0  0  0  0  0  0  0  0  0  0  0  0
    9.1030    4.0790   23.5880 C   0  0  0  0  0  0  0  0  0  0  0  0
    8.1490    5.3560   21.7290 C   0  0  0  0  0  0  0  0  0  0  0  0
   13.9320   -3.9160   26.2420 C   0  0  0  0  0  0  0  0  0  0  0  0
    9.2230    2.8170   24.3990 C   0  0  0  0  0  0  0  0  0  0  0  0
    9.9700    5.2670   24.0280 C   0  0  0  0  0  0  0  0  0  0  0  0
    8.9850    6.5860   22.1090 C   0  0  0  0  0  0  0  0  0  0  0  0
    9.8640    6.5040   23.2340 C   0  0  0  0  0  0  0  0  0  0  0  0
   10.5820    7.6540   23.5050 O   0  0  0  0  0  0  0  0  0  0  0  0
   11.9910    7.5400   23.7820 C   0  0  0  0  0  0  0  0  0  0  0  0
  1  2  1  0
  2  3  1  0
  2  4  2  0
  3  5  1  0
  6  5  1  6
  6  7  1  0
  6  8  1  0
  7  9  1  0
  7 10  2  0
  8 11  2  0
  8 12  1  0
 12 13  1  0
 12 14  2  0
 11 15  1  0
 15 16  1  0
 13 17  2  0
 13 18  2  0
 14 19  1  0
 15 19  2  0
 14 20  1  0
 21 20  1  1
 21 22  1  0
 21 23  1  0
 22 24  1  0
 22 25  1  0
 23 26  1  0
 24 27  1  0
 25 28  1  0
 26 28  1  0
 26 29  1  6
 27 30  1  0
 28 31  1  6
 29 32  1  0
 30 33  2  3
 34 31  1  1
 32 35  2  0
 32 36  1  0
 34 37  1  0
 34 38  1  0
 36 39  2  0
 35 40  1  0
 37 41  1  0
 37 42  2  0
 38 43  2  0
 38 44  1  0
 40 45  1  0
 39 46  1  0
 40 46  2  0
 44 47  2  0
 43 48  1  0
 41 49  1  0
 45 50  1  0
 45 51  1  1
 47 52  1  0
 48 52  2  0
 49 53  2  0
 49 54  1  0
 50 55  1  0
 53 56  1  0
 53 57  1  0
 54 58  2  0
 57 59  2  0
 58 59  1  0
 59 60  1  0
 60 61  1  0
M  END
