x0981-x2193-x0689-x3110-x3113
     RDKit          3D

 63 67  0  0  0  0  0  0  0  0999 V2000
    7.6100    1.1480   23.4420 N   0  0  0  0  0  0  0  0  0  0  0  0
    8.2780    2.2470   24.1620 C   0  0  0  0  0  0  0  0  0  0  0  0
    9.8570    2.2200   24.0850 C   0  0  0  0  0  0  0  0  0  0  0  0
    7.6230    0.8290   22.0080 C   0  0  0  0  0  0  0  0  0  0  0  0
    8.3700    1.6660   21.1020 O   0  0  0  0  0  0  0  0  0  0  0  0
    6.7770   -0.4660   21.6130 C   0  0  2  0  0  0  0  0  0  0  0  0
    7.4490   -1.8660   21.6860 N   0  0  0  0  0  0  0  0  0  0  0  0
   10.4570    3.5950   23.8380 C   0  0  0  0  0  0  0  0  0  0  0  0
    6.0290   -0.0590   20.3040 C   0  0  0  0  0  0  0  0  0  0  0  0
   11.6270    3.4990   23.0260 O   0  0  0  0  0  0  0  0  0  0  0  0
    9.9230    4.8050   24.3800 O   0  0  0  0  0  0  0  0  0  0  0  0
    7.0070   -2.9860   20.8140 C   0  0  0  0  0  0  0  0  0  0  0  0
    4.5330    0.3010   20.2400 C   0  0  0  0  0  0  0  0  0  0  0  0
    6.8380   -0.0180   19.1400 C   0  0  0  0  0  0  0  0  0  0  0  0
    8.7770   -1.8900   22.3740 C   0  0  0  0  0  0  0  0  0  0  0  0
   11.6800    4.3060   21.8210 C   0  0  0  0  0  0  0  0  0  0  0  0
    5.8480   -3.7500   20.9740 C   0  0  0  0  0  0  0  0  0  0  0  0
    6.2140    0.3850   17.8670 N   0  0  0  0  0  0  0  0  0  0  0  0
    3.9830    0.6780   19.0030 C   0  0  0  0  0  0  0  0  0  0  0  0
    9.7750   -1.5910   21.4460 C   0  0  0  0  0  0  0  0  0  0  0  0
    8.6980   -2.1990   23.8090 C   0  0  0  0  0  0  0  0  0  0  0  0
   13.1680    4.6220   21.4620 C   0  0  0  0  0  0  0  0  0  0  0  0
    4.7710    0.7350   17.8160 C   0  0  0  0  0  0  0  0  0  0  0  0
   11.0470   -1.5220   21.8060 C   0  0  0  0  0  0  0  0  0  0  0  0
   10.3700   -2.0620   24.1530 C   0  0  0  0  0  0  0  0  0  0  0  0
    5.9440   -5.3710   21.2940 C   0  0  2  0  0  0  0  0  0  0  0  0
    8.6130   -2.5360   25.3710 C   0  0  0  0  0  0  0  0  0  0  0  0
    6.3840   -6.0170   19.8590 C   0  0  0  0  0  0  0  0  0  0  0  0
   11.4380   -1.7510   23.2300 C   0  0  0  0  0  0  0  0  0  0  0  0
    4.5910   -6.0180   21.7570 C   0  0  0  0  0  0  0  0  0  0  0  0
    6.8980   -5.7200   22.5170 C   0  0  0  0  0  0  0  0  0  0  0  0
    9.0460   -3.8210   26.0700 N   0  0  0  0  0  0  0  0  0  0  0  0
   12.9630   -1.6370   23.6200 C   0  0  0  0  0  0  0  0  0  0  0  0
    5.4750   -6.9240   18.9960 C   0  0  0  0  0  0  0  0  0  0  0  0
    3.9900   -5.5610   23.0000 C   0  0  2  0  0  0  0  0  0  0  0  0
    6.3930   -5.4380   23.8500 C   0  0  0  0  0  0  0  0  0  0  0  0
    8.8330   -3.9720   27.4700 C   0  0  0  0  0  0  0  0  0  0  0  0
    9.7790   -4.9600   25.4330 C   0  0  0  0  0  0  0  0  0  0  0  0
   13.5280   -0.2620   23.1330 C   0  0  0  0  0  0  0  0  0  0  0  0
   13.7150   -2.7810   22.8770 C   0  0  0  0  0  0  0  0  0  0  0  0
   13.2940   -1.8240   25.1480 C   0  0  0  0  0  0  0  0  0  0  0  0
    3.0820   -6.7090   23.6310 C   0  0  1  0  0  0  0  0  0  0  0  0
    3.1850   -4.5030   22.5350 O   0  0  0  0  0  0  0  0  0  0  0  0
    4.9600   -4.9480   23.9570 N   0  0  0  0  0  0  0  0  0  0  0  0
    8.5400   -5.3550   28.0780 C   0  0  0  0  0  0  0  0  0  0  0  0
    9.3480   -6.3390   25.9660 C   0  0  0  0  0  0  0  0  0  0  0  0
    1.9870   -6.9900   22.6120 N   0  0  0  0  0  0  0  0  0  0  0  0
    3.7600   -7.8120   24.3150 C   0  0  0  0  0  0  0  0  0  0  0  0
    4.7230   -3.4760   24.8800 S   0  0  0  0  0  0  0  0  0  0  0  0
    9.3300   -6.4380   27.4460 N   0  0  0  0  0  0  0  0  0  0  0  0
    1.4530   -8.3200   22.1610 C   0  0  0  0  0  0  0  0  0  0  0  0
    3.5940   -7.8410   25.7370 C   0  0  0  0  0  0  0  0  0  0  0  0
    5.3560   -2.3760   24.1950 O   0  0  0  0  0  0  0  0  0  0  0  0
    5.3940   -3.9910   26.8250 O   0  0  0  0  0  0  0  0  0  0  0  0
    3.1780   -2.8320   25.2520 C   0  0  0  0  0  0  0  0  0  0  0  0
    1.7690   -8.8360   20.8940 C   0  0  0  0  0  0  0  0  0  0  0  0
    0.5940   -9.1230   22.9700 O   0  0  0  0  0  0  0  0  0  0  0  0
    2.3050   -8.3080   26.2490 N   0  0  0  0  0  0  0  0  0  0  0  0
    4.5800   -7.4590   26.3790 O   0  0  0  0  0  0  0  0  0  0  0  0
    3.0840   -1.1850   26.0770 S   0  0  0  0  0  0  0  0  0  0  0  0
    1.8630   -3.2580   25.0830 C   0  0  0  0  0  0  0  0  0  0  0  0
    0.8850   -2.4020   25.5440 C   0  0  0  0  0  0  0  0  0  0  0  0
    1.3670   -1.2320   26.1120 C   0  0  0  0  0  0  0  0  0  0  0  0
  1  2  1  0
  2  3  1  0
  1  4  1  0
  4  5  2  0
  6  4  1  6
  6  7  1  0
  3  8  1  0
  6  9  1  0
  8 10  1  0
  8 11  2  0
  7 12  1  0
  9 13  2  0
  9 14  1  0
  7 15  1  0
 10 16  1  0
 12 17  1  0
 14 18  2  0
 13 19  1  0
 15 20  2  0
 15 21  1  0
 16 22  1  0
 18 23  1  0
 19 23  2  0
 20 24  1  0
 21 25  2  0
 26 17  1  6
 21 27  1  0
 26 28  1  0
 24 29  2  0
 25 29  1  0
 26 30  1  0
 26 31  1  0
 27 32  1  0
 29 33  1  0
 28 34  2  3
 30 35  1  0
 31 36  1  0
 32 37  1  0
 32 38  1  0
 33 39  1  0
 33 40  1  0
 33 41  1  0
 35 42  1  0
 35 43  1  6
 35 44  1  0
 36 44  1  0
 37 45  1  0
 38 46  1  0
 42 47  1  0
 42 48  1  6
 44 49  1  0
 45 50  1  0
 46 50  1  0
 47 51  1  0
 48 52  1  0
 49 53  2  0
 49 54  2  0
 49 55  1  0
 51 56  1  0
 51 57  2  0
 52 58  1  0
 52 59  2  0
 55 60  1  0
 55 61  2  0
 61 62  1  0
 60 63  1  0
 62 63  2  0
M  END
