x0981-x2910
     RDKit          3D

 42 44  0  0  0  0  0  0  0  0999 V2000
    1.2350   -8.7660   21.2680 C   0  0  0  0  0  0  0  0  0  0  0  0
    1.3370   -7.4970   22.0720 C   0  0  0  0  0  0  0  0  0  0  0  0
    2.5290   -7.3110   22.7390 N   0  0  0  0  0  0  0  0  0  0  0  0
    0.4200   -6.6810   22.1060 O   0  0  0  0  0  0  0  0  0  0  0  0
    2.7780   -6.0900   23.5150 C   0  0  1  0  0  0  0  0  0  0  0  0
    2.5400   -6.3710   24.9900 C   0  0  0  0  0  0  0  0  0  0  0  0
    4.1960   -5.4580   23.2550 C   0  0  0  0  0  0  0  0  0  0  0  0
    5.1380   -5.9790   22.3800 N   0  0  0  0  0  0  0  0  0  0  0  0
    4.5010   -4.4320   23.8600 O   0  0  0  0  0  0  0  0  0  0  0  0
    3.0270   -7.7430   25.3300 C   0  0  0  0  0  0  0  0  0  0  0  0
    2.4500   -8.3740   26.3870 N   0  0  0  0  0  0  0  0  0  0  0  0
    3.9110   -8.2360   24.6610 O   0  0  0  0  0  0  0  0  0  0  0  0
    6.3890   -5.3180   21.9360 C   0  0  1  0  0  0  0  0  0  0  0  0
    6.3930   -5.2870   20.3850 C   0  0  0  0  0  0  0  0  0  0  0  0
    6.5390   -3.9980   22.7480 C   0  0  0  0  0  0  0  0  0  0  0  0
    5.6520   -6.2500   19.8660 C   0  0  0  0  0  0  0  0  0  0  0  0
    7.8560   -3.2460   22.6390 C   0  0  0  0  0  0  0  0  0  0  0  0
    7.9480   -2.0130   21.7040 C   0  0  1  0  0  0  0  0  0  0  0  0
    7.0550   -1.3020   21.8340 N   0  0  0  0  0  0  0  0  0  0  0  0
    9.3250   -1.3940   21.7830 C   0  0  0  0  0  0  0  0  0  0  0  0
    9.6660   -1.1860   22.9110 O   0  0  0  0  0  0  0  0  0  0  0  0
    5.9410   -1.4490   20.8960 C   0  0  0  0  0  0  0  0  0  0  0  0
    5.2880   -2.4760   20.7820 O   0  0  0  0  0  0  0  0  0  0  0  0
   10.9200   -0.7220   22.8280 C   0  0  0  0  0  0  0  0  0  0  0  0
    5.5610   -0.2610   20.0500 C   0  0  0  0  0  0  0  0  0  0  0  0
   11.1390    0.6270   23.1890 C   0  0  0  0  0  0  0  0  0  0  0  0
   11.9870   -1.5080   22.3870 C   0  0  0  0  0  0  0  0  0  0  0  0
    4.5730    0.7480   20.5670 C   0  0  0  0  0  0  0  0  0  0  0  0
    6.1170   -0.0870   18.7770 C   0  0  0  0  0  0  0  0  0  0  0  0
   10.0380    1.3240   23.6090 O   0  0  0  0  0  0  0  0  0  0  0  0
   13.2140   -0.9270   22.3150 C   0  0  0  0  0  0  0  0  0  0  0  0
   12.4040    1.1890   23.1070 C   0  0  0  0  0  0  0  0  0  0  0  0
    4.2400    1.7970   19.7380 C   0  0  0  0  0  0  0  0  0  0  0  0
    5.7070    1.0300   18.0450 C   0  0  0  0  0  0  0  0  0  0  0  0
    3.9690    0.6990   21.8290 C   0  0  0  0  0  0  0  0  0  0  0  0
   10.1560    2.7480   23.6000 C   0  0  0  0  0  0  0  0  0  0  0  0
    6.1610    1.3360   16.8340 O   0  0  0  0  0  0  0  0  0  0  0  0
   13.4090    0.3720   22.6610 C   0  0  0  0  0  0  0  0  0  0  0  0
    4.8300    1.9370   18.4340 N   0  0  0  0  0  0  0  0  0  0  0  0
    3.3330    2.7600   20.1230 C   0  0  0  0  0  0  0  0  0  0  0  0
    3.0560    1.6860   22.2210 C   0  0  0  0  0  0  0  0  0  0  0  0
    2.7180    2.7330   21.3700 C   0  0  0  0  0  0  0  0  0  0  0  0
  1  2  1  0
  2  3  1  0
  2  4  2  0
  3  5  1  0
  5  6  1  1
  5  7  1  0
  7  8  1  0
  7  9  2  0
  6 10  1  0
 10 11  1  0
 10 12  2  0
  8 13  1  0
 13 14  1  6
 13 15  1  0
 14 16  2  3
 15 17  1  0
 18 17  1  1
 18 19  1  0
 18 20  1  0
 20 21  1  0
 19 22  1  0
 22 23  2  0
 21 24  1  0
 22 25  1  0
 24 26  2  0
 24 27  1  0
 25 28  1  0
 25 29  2  0
 26 30  1  0
 27 31  2  0
 26 32  1  0
 28 33  2  0
 29 34  1  0
 28 35  1  0
 30 36  1  0
 34 37  1  0
 31 38  1  0
 32 38  2  0
 33 39  1  0
 34 39  2  0
 33 40  1  0
 35 41  2  0
 40 42  2  0
 41 42  1  0
M  END
