x0981-x0978-x0769-x2776-x2703
     RDKit          3D

 71 76  0  0  0  0  0  0  0  0999 V2000
    1.1930   -8.5030   21.6080 C   0  0  0  0  0  0  0  0  0  0  0  0
    1.6510   -7.3320   22.4510 C   0  0  0  0  0  0  0  0  0  0  0  0
    2.9770   -7.6140   22.8890 N   0  0  0  0  0  0  0  0  0  0  0  0
    1.3480   -6.2240   22.0480 O   0  0  0  0  0  0  0  0  0  0  0  0
    0.7610   -7.2390   23.7380 C   0  0  0  0  0  0  0  0  0  0  0  0
    3.8780   -6.6380   23.5500 C   0  0  2  0  0  0  0  0  0  0  0  0
    3.5500   -6.2710   24.9110 C   0  0  0  0  0  0  0  0  0  0  0  0
    4.5830   -5.4710   22.8930 C   0  0  2  0  0  0  0  0  0  0  0  0
    3.5360   -4.7130   22.3940 O   0  0  0  0  0  0  0  0  0  0  0  0
    2.8750   -7.4530   25.6610 C   0  0  0  0  0  0  0  0  0  0  0  0
    3.8010   -4.5970   25.2430 S   0  0  1  0  0  0  0  0  0  0  0  0
    5.5130   -5.5790   21.9030 C   0  0  0  0  0  0  0  0  0  0  0  0
    4.9130   -4.5820   23.9190 N   0  0  0  0  0  0  0  0  0  0  0  0
    2.0560   -7.2630   26.7150 N   0  0  0  0  0  0  0  0  0  0  0  0
    3.0990   -8.6110   25.2960 O   0  0  0  0  0  0  0  0  0  0  0  0
    3.1910   -5.4870   26.1720 O   0  0  0  0  0  0  0  0  0  0  0  0
    3.5070   -3.3260   26.2070 C   0  0  0  0  0  0  0  0  0  0  0  0
    6.3550   -4.5350   21.5260 C   0  0  1  0  0  0  0  0  0  0  0  0
    6.2740   -4.3270   24.0470 C   0  0  0  0  0  0  0  0  0  0  0  0
    6.8940   -5.1520   20.2350 C   0  0  0  0  0  0  0  0  0  0  0  0
    5.5170   -3.1950   21.1730 C   0  0  0  0  0  0  0  0  0  0  0  0
    4.4450   -2.4200   26.6100 C   0  0  0  0  0  0  0  0  0  0  0  0
    2.1700   -3.1650   26.5580 C   0  0  0  0  0  0  0  0  0  0  0  0
    7.1990   -4.4950   22.8190 C   0  0  0  0  0  0  0  0  0  0  0  0
    6.0860   -6.0930   19.7330 C   0  0  0  0  0  0  0  0  0  0  0  0
    5.7360   -2.5520   26.2760 F   0  0  0  0  0  0  0  0  0  0  0  0
    6.1580   -2.0200   20.7180 C   0  0  0  0  0  0  0  0  0  0  0  0
    1.6440   -2.1490   27.2930 C   0  0  0  0  0  0  0  0  0  0  0  0
    4.0230   -1.3350   27.3650 C   0  0  0  0  0  0  0  0  0  0  0  0
    6.8000   -1.0490   21.7800 C   0  0  1  0  0  0  0  0  0  0  0  0
    2.6960   -1.1030   27.7490 C   0  0  0  0  0  0  0  0  0  0  0  0
    7.0570    0.3670   21.2870 C   0  0  1  0  0  0  0  0  0  0  0  0
    5.9430   -0.8880   22.8060 N   0  0  0  0  0  0  0  0  0  0  0  0
    8.1270   -1.3900   22.5040 C   0  0  0  0  0  0  0  0  0  0  0  0
    8.2680    1.1130   21.5130 C   0  0  0  0  0  0  0  0  0  0  0  0
    5.1720    0.3590   22.9820 C   0  0  0  0  0  0  0  0  0  0  0  0
    6.4590    0.7090   19.9760 C   0  0  0  0  0  0  0  0  0  0  0  0
    9.2840   -1.5650   21.8080 C   0  0  0  0  0  0  0  0  0  0  0  0
    8.1450   -1.4670   23.8920 C   0  0  0  0  0  0  0  0  0  0  0  0
    8.0270    2.4030   21.9710 N   0  0  0  0  0  0  0  0  0  0  0  0
    9.3970    0.6990   21.3430 O   0  0  0  0  0  0  0  0  0  0  0  0
    6.0380    1.4880   23.1430 C   0  0  0  0  0  0  0  0  0  0  0  0
    5.2730    1.6860   20.0470 C   0  0  0  0  0  0  0  0  0  0  0  0
    6.9670    0.1510   18.6680 C   0  0  0  0  0  0  0  0  0  0  0  0
   10.6220   -1.7950   22.4530 C   0  0  0  0  0  0  0  0  0  0  0  0
    9.4300   -1.6940   24.6310 C   0  0  0  0  0  0  0  0  0  0  0  0
    6.7860    1.6460   24.2100 N   0  0  0  0  0  0  0  0  0  0  0  0
    6.1210    2.3920   22.3080 O   0  0  0  0  0  0  0  0  0  0  0  0
    6.2980    0.6010   17.4590 N   0  0  0  0  0  0  0  0  0  0  0  0
    4.6500    2.0850   18.7580 C   0  0  0  0  0  0  0  0  0  0  0  0
    8.7900    3.4710   22.6210 C   0  0  0  0  0  0  0  0  0  0  0  0
   10.6680   -1.8290   23.8400 C   0  0  0  0  0  0  0  0  0  0  0  0
   11.9440   -1.9650   24.5810 C   0  0  2  0  0  0  0  0  0  0  0  0
    5.2290    1.5040   17.5280 C   0  0  0  0  0  0  0  0  0  0  0  0
   10.0220    3.2470   23.2930 C   0  0  0  0  0  0  0  0  0  0  0  0
    8.0570    4.8450   22.4680 C   0  0  0  0  0  0  0  0  0  0  0  0
   12.0320   -3.0350   25.5320 O   0  0  0  0  0  0  0  0  0  0  0  0
   10.7530    1.9550   23.4810 C   0  0  0  0  0  0  0  0  0  0  0  0
   12.3760   -0.7590   25.1140 C   0  0  0  0  0  0  0  0  0  0  0  0
    6.7390    5.0690   21.7630 C   0  0  0  0  0  0  0  0  0  0  0  0
   10.6360    4.5070   23.8810 C   0  0  0  0  0  0  0  0  0  0  0  0
    8.7280    5.9230   23.0580 C   0  0  0  0  0  0  0  0  0  0  0  0
   12.8950   -2.3570   23.5250 C   0  0  0  0  0  0  0  0  0  0  0  0
   10.9930   -3.9990   25.6160 C   0  0  0  0  0  0  0  0  0  0  0  0
   10.0390    5.7450   23.7750 C   0  0  0  0  0  0  0  0  0  0  0  0
    9.8810    0.9210   24.1720 C   0  0  0  0  0  0  0  0  0  0  0  0
   13.9040   -2.8870   24.2010 C   0  0  0  0  0  0  0  0  0  0  0  0
   13.3000   -1.0730   22.7860 C   0  0  0  0  0  0  0  0  0  0  0  0
   10.6700    6.8720   24.3520 O   0  0  0  0  0  0  0  0  0  0  0  0
    9.1060    1.4190   25.2200 C   0  0  0  0  0  0  0  0  0  0  0  0
   11.8990    6.6540   25.0410 C   0  0  0  0  0  0  0  0  0  0  0  0
  1  2  1  0
  2  3  1  0
  2  4  1  0
  2  5  1  0
  6  3  1  6
  6  7  1  0
  6  8  1  0
  8  9  1  6
  7 10  1  0
  7 11  2  0
  8 12  1  0
  8 13  1  0
 11 13  1  0
 10 14  1  0
 10 15  2  0
 11 16  2  0
 11 17  1  6
 12 18  1  0
 13 19  1  0
 18 20  1  6
 18 21  1  0
 17 22  2  0
 17 23  1  0
 18 24  1  0
 19 24  1  0
 20 25  2  3
 22 26  1  0
 21 27  1  0
 23 28  2  0
 22 29  1  0
 30 27  1  6
 28 31  1  0
 29 31  2  0
 30 32  1  0
 30 33  1  0
 30 34  1  0
 32 35  1  6
 33 36  1  0
 32 37  1  0
 34 38  2  0
 34 39  1  0
 35 40  1  0
 35 41  2  0
 36 42  1  0
 37 43  2  0
 37 44  1  0
 38 45  1  0
 39 46  2  0
 42 47  1  0
 42 48  2  0
 44 49  2  0
 43 50  1  0
 40 51  1  0
 45 52  2  0
 46 52  1  0
 52 53  1  0
 49 54  1  0
 50 54  2  0
 51 55  2  0
 51 56  1  0
 53 57  1  0
 55 58  1  0
 53 59  1  1
 56 60  1  0
 55 61  1  0
 56 62  2  0
 53 63  1  0
 57 64  1  0
 61 65  2  0
 62 65  1  0
 58 66  1  0
 63 67  1  0
 63 68  1  0
 65 69  1  0
 66 70  1  0
 69 71  1  0
M  END
