x0981-x2754-x3115
     RDKit          3D

 54 57  0  0  0  0  0  0  0  0999 V2000
    1.1700   -8.7450   21.2460 C   0  0  0  0  0  0  0  0  0  0  0  0
    1.3600   -7.5430   22.1340 C   0  0  0  0  0  0  0  0  0  0  0  0
    2.4430   -7.5510   22.8300 N   0  0  0  0  0  0  0  0  0  0  0  0
    0.5510   -6.6120   22.1820 O   0  0  0  0  0  0  0  0  0  0  0  0
    2.9090   -6.4130   23.4760 C   0  0  1  0  0  0  0  0  0  0  0  0
    2.3650   -6.3510   24.9350 C   0  0  0  0  0  0  0  0  0  0  0  0
    4.4480   -6.6240   23.5230 C   0  0  0  0  0  0  0  0  0  0  0  0
    5.1780   -5.6330   24.1070 N   0  0  0  0  0  0  0  0  0  0  0  0
    2.6700   -7.7260   25.5800 C   0  0  0  0  0  0  0  0  0  0  0  0
    2.3050   -8.0250   26.8760 N   0  0  0  0  0  0  0  0  0  0  0  0
    3.3310   -8.7410   24.8440 O   0  0  0  0  0  0  0  0  0  0  0  0
    5.0470   -4.4060   23.3410 C   0  0  1  0  0  0  0  0  0  0  0  0
    5.7230   -3.4190   24.0080 C   0  0  2  0  0  0  0  0  0  0  0  0
    5.5470   -4.8320   22.1380 C   0  0  0  0  0  0  0  0  0  0  0  0
    4.9060   -3.0010   25.2650 C   0  0  0  0  0  0  0  0  0  0  0  0
    6.0800   -3.7970   21.2680 N   0  0  0  0  0  0  0  0  0  0  0  0
    6.0500   -2.3600   23.1850 C   0  0  0  0  0  0  0  0  0  0  0  0
    6.4260   -4.4890   20.0800 C   0  0  0  0  0  0  0  0  0  0  0  0
    3.4870   -2.8920   25.2360 O   0  0  0  0  0  0  0  0  0  0  0  0
    5.6240   -2.7430   26.3990 N   0  0  0  0  0  0  0  0  0  0  0  0
    6.8400   -2.8130   22.1170 C   0  0  2  0  0  0  0  0  0  0  0  0
    5.8490   -5.9160   19.8960 C   0  0  0  0  0  0  0  0  0  0  0  0
    7.5470   -1.6010   21.5910 N   0  0  0  0  0  0  0  0  0  0  0  0
    4.8390   -2.3490   27.5960 C   0  0  0  0  0  0  0  0  0  0  0  0
    6.8850   -3.4210   26.6770 C   0  0  0  0  0  0  0  0  0  0  0  0
    6.9080   -0.3150   21.5430 C   0  0  1  0  0  0  0  0  0  0  0  0
    8.7380   -1.6130   22.2820 C   0  0  0  0  0  0  0  0  0  0  0  0
    7.0230   -4.5210   27.5420 C   0  0  0  0  0  0  0  0  0  0  0  0
    8.0400   -2.9560   26.0440 C   0  0  0  0  0  0  0  0  0  0  0  0
    7.7560    0.9180   21.8980 C   0  0  0  0  0  0  0  0  0  0  0  0
    6.1830    0.1570   20.2860 C   0  0  0  0  0  0  0  0  0  0  0  0
    9.8640   -2.2040   21.7740 C   0  0  0  0  0  0  0  0  0  0  0  0
    8.7960   -0.9670   23.6780 C   0  0  0  0  0  0  0  0  0  0  0  0
    8.3820   -5.1980   27.7950 C   0  0  0  0  0  0  0  0  0  0  0  0
    9.3870   -3.6280   26.2960 C   0  0  0  0  0  0  0  0  0  0  0  0
    7.3510    1.7360   23.0420 N   0  0  0  0  0  0  0  0  0  0  0  0
    8.8600    1.2490   21.0440 O   0  0  0  0  0  0  0  0  0  0  0  0
    4.9770    0.8610   20.3620 C   0  0  0  0  0  0  0  0  0  0  0  0
    6.7970   -0.1250   19.1130 C   0  0  0  0  0  0  0  0  0  0  0  0
   11.0550   -2.2280   22.4540 C   0  0  0  0  0  0  0  0  0  0  0  0
   10.0300   -1.0440   24.2990 C   0  0  0  0  0  0  0  0  0  0  0  0
    9.4920   -4.7130   27.1590 C   0  0  0  0  0  0  0  0  0  0  0  0
    8.0730    2.8160   23.1740 C   0  0  0  0  0  0  0  0  0  0  0  0
    6.3640    0.2270   17.8680 N   0  0  0  0  0  0  0  0  0  0  0  0
    4.4620    1.2600   19.1430 C   0  0  0  0  0  0  0  0  0  0  0  0
   11.1280   -1.6510   23.7030 C   0  0  0  0  0  0  0  0  0  0  0  0
    7.7500    3.9920   22.4720 C   0  0  0  0  0  0  0  0  0  0  0  0
   12.4480   -1.6740   24.4280 C   0  0  0  0  0  0  0  0  0  0  0  0
    5.2120    0.9170   17.8690 C   0  0  0  0  0  0  0  0  0  0  0  0
    8.4460    5.1360   23.0290 O   0  0  0  0  0  0  0  0  0  0  0  0
   13.4710   -2.2610   23.6950 C   0  0  0  0  0  0  0  0  0  0  0  0
   12.8720   -2.9590   25.0650 C   0  0  0  0  0  0  0  0  0  0  0  0
   12.6640   -0.6240   25.1730 C   0  0  0  0  0  0  0  0  0  0  0  0
    8.2490    6.3090   22.2380 C   0  0  0  0  0  0  0  0  0  0  0  0
  1  2  1  0
  2  3  1  0
  2  4  2  0
  3  5  1  0
  5  6  1  1
  5  7  1  0
  7  8  1  0
  6  9  1  0
  9 10  1  0
  9 11  2  0
 12  8  1  1
 12 13  1  0
 12 14  1  0
 13 15  1  1
 14 16  1  0
 13 17  1  0
 16 18  1  0
 15 19  2  0
 15 20  1  0
 16 21  1  0
 17 21  1  0
 18 22  2  3
 21 23  1  6
 20 24  1  0
 20 25  1  0
 23 26  1  0
 23 27  1  0
 25 28  2  0
 25 29  1  0
 26 30  1  6
 26 31  1  0
 27 32  2  0
 27 33  1  0
 28 34  1  0
 29 35  2  0
 30 36  1  0
 30 37  2  0
 31 38  2  0
 31 39  1  0
 32 40  1  0
 33 41  2  0
 34 42  2  0
 35 42  1  0
 36 43  1  0
 39 44  2  0
 38 45  1  0
 40 46  2  0
 41 46  1  0
 43 47  1  0
 46 48  1  0
 44 49  1  0
 45 49  2  0
 47 50  1  0
 48 51  1  0
 48 52  1  0
 48 53  1  0
 50 54  1  0
M  END
