x0981-x2764
     RDKit          3D

 36 37  0  0  0  0  0  0  0  0999 V2000
    1.2290   -8.7100   21.3690 C   0  0  0  0  0  0  0  0  0  0  0  0
    1.3640   -7.4280   22.1520 C   0  0  0  0  0  0  0  0  0  0  0  0
    2.5820   -7.2310   22.7690 N   0  0  0  0  0  0  0  0  0  0  0  0
    0.4430   -6.6170   22.2090 O   0  0  0  0  0  0  0  0  0  0  0  0
    2.8780   -5.9920   23.5150 C   0  0  1  0  0  0  0  0  0  0  0  0
    2.7150   -6.2520   25.0060 C   0  0  0  0  0  0  0  0  0  0  0  0
    4.2820   -5.3670   23.1440 C   0  0  0  0  0  0  0  0  0  0  0  0
    5.2250   -6.0320   22.3810 N   0  0  0  0  0  0  0  0  0  0  0  0
    4.5800   -4.2390   23.5310 O   0  0  0  0  0  0  0  0  0  0  0  0
    3.0930   -7.6620   25.3210 C   0  0  0  0  0  0  0  0  0  0  0  0
    2.4320   -8.2780   26.3410 N   0  0  0  0  0  0  0  0  0  0  0  0
    3.9650   -8.1970   24.6680 O   0  0  0  0  0  0  0  0  0  0  0  0
    6.5550   -5.5640   21.9310 C   0  0  1  0  0  0  0  0  0  0  0  0
    6.4680   -5.2910   20.4070 C   0  0  0  0  0  0  0  0  0  0  0  0
    7.2130   -4.5960   22.9600 C   0  0  0  0  0  0  0  0  0  0  0  0
    5.6680   -6.1940   19.8660 C   0  0  0  0  0  0  0  0  0  0  0  0
    7.6770   -3.2080   22.5160 C   0  0  0  0  0  0  0  0  0  0  0  0
    6.7090   -2.4420   21.7160 N   0  0  0  0  0  0  0  0  0  0  0  0
    7.2890   -1.4190   21.0240 C   0  0  0  0  0  0  0  0  0  0  0  0
    8.7790   -1.3220   21.2600 N   0  0  0  0  0  0  0  0  0  0  0  0
    6.6190   -0.3990   20.1300 C   0  0  0  0  0  0  0  0  0  0  0  0
    9.3090   -0.5330   22.3430 C   0  0  0  0  0  0  0  0  0  0  0  0
    6.2330   -0.6880   18.8310 C   0  0  0  0  0  0  0  0  0  0  0  0
    6.3710    0.9690   20.6990 C   0  0  0  0  0  0  0  0  0  0  0  0
    6.7980    1.1620   21.9830 O   0  0  0  0  0  0  0  0  0  0  0  0
   10.7780   -1.0210   22.6260 C   0  0  0  0  0  0  0  0  0  0  0  0
    5.6110    0.2380   18.0190 C   0  0  0  0  0  0  0  0  0  0  0  0
    5.7420    1.9220   19.9020 C   0  0  0  0  0  0  0  0  0  0  0  0
    6.4070    2.3440   22.6690 C   0  0  0  0  0  0  0  0  0  0  0  0
   11.8030   -0.1220   22.8010 C   0  0  0  0  0  0  0  0  0  0  0  0
   11.2540   -2.2960   22.7430 C   0  0  0  0  0  0  0  0  0  0  0  0
    5.3300    1.5270   18.4490 C   0  0  0  0  0  0  0  0  0  0  0  0
    7.4700    3.4660   22.5660 C   0  0  0  0  0  0  0  0  0  0  0  0
   13.0120   -0.5910   23.0510 N   0  0  0  0  0  0  0  0  0  0  0  0
   12.9280   -2.2420   23.0860 S   0  0  0  0  0  0  0  0  0  0  0  0
    8.3640    4.5070   22.5200 N   0  0  0  0  0  0  0  0  0  0  0  0
  1  2  1  0
  2  3  1  0
  2  4  2  0
  3  5  1  0
  5  6  1  1
  5  7  1  0
  7  8  1  0
  7  9  2  0
  6 10  1  0
 10 11  1  0
 10 12  2  0
  8 13  1  0
 13 14  1  6
 13 15  1  0
 14 16  2  3
 15 17  1  0
 17 18  1  0
 18 19  2  3
 19 20  1  0
 19 21  1  0
 20 22  1  0
 21 23  2  0
 21 24  1  0
 24 25  1  0
 22 26  1  0
 23 27  1  0
 24 28  2  0
 25 29  1  0
 26 30  1  0
 26 31  2  0
 27 32  2  0
 28 32  1  0
 29 33  1  0
 30 34  2  0
 31 35  1  0
 34 35  1  0
 33 36  3  0
M  END
