x0981-x1334
     RDKit          3D

 28 29  0  0  0  0  0  0  0  0999 V2000
    1.2730   -8.7110   21.3810 C   0  0  0  0  0  0  0  0  0  0  0  0
    1.4080   -7.3750   22.1760 C   0  0  0  0  0  0  0  0  0  0  0  0
    2.6380   -7.1650   22.7940 N   0  0  0  0  0  0  0  0  0  0  0  0
    0.5110   -6.5440   22.2490 O   0  0  0  0  0  0  0  0  0  0  0  0
    2.8910   -5.8910   23.5200 C   0  0  1  0  0  0  0  0  0  0  0  0
    2.6130   -6.2100   25.0480 C   0  0  0  0  0  0  0  0  0  0  0  0
    4.3330   -5.3700   23.3440 C   0  0  0  0  0  0  0  0  0  0  0  0
    5.0910   -5.5750   22.2240 N   0  0  0  0  0  0  0  0  0  0  0  0
    4.8770   -4.7150   24.2230 O   0  0  0  0  0  0  0  0  0  0  0  0
    3.0490   -7.6940   25.2930 C   0  0  0  0  0  0  0  0  0  0  0  0
    2.3540   -8.4530   26.3370 N   0  0  0  0  0  0  0  0  0  0  0  0
    3.9370   -8.1740   24.6300 O   0  0  0  0  0  0  0  0  0  0  0  0
    6.3720   -4.9590   21.7820 C   0  0  1  0  0  0  0  0  0  0  0  0
    6.4400   -5.0420   20.2610 C   0  0  0  0  0  0  0  0  0  0  0  0
    6.6960   -3.5680   22.3870 C   0  0  2  0  0  0  0  0  0  0  0  0
    5.6760   -6.2550   19.7870 C   0  0  0  0  0  0  0  0  0  0  0  0
    6.5050   -2.4320   21.4600 N   0  0  0  0  0  0  0  0  0  0  0  0
    7.9690   -3.6860   22.8180 C   0  0  0  0  0  0  0  0  0  0  0  0
    7.5980   -1.6200   21.3920 C   0  0  0  0  0  0  0  0  0  0  0  0
    8.3240   -2.7100   23.3190 N   0  0  0  0  0  0  0  0  0  0  0  0
    9.4420   -2.9650   24.2230 C   0  0  0  0  0  0  0  0  0  0  0  0
    8.7700   -1.8560   22.3360 C   0  0  0  0  0  0  0  0  0  0  0  0
    9.1370   -4.0250   25.2660 C   0  0  0  0  0  0  0  0  0  0  0  0
    9.8420   -5.2010   25.3800 C   0  0  0  0  0  0  0  0  0  0  0  0
    7.8730   -3.8030   26.3860 S   0  0  0  0  0  0  0  0  0  0  0  0
    8.2360   -5.3250   27.0820 C   0  0  0  0  0  0  0  0  0  0  0  0
    9.3060   -5.9530   26.4420 C   0  0  0  0  0  0  0  0  0  0  0  0
    7.3160   -5.8980   28.4090 Cl  0  0  0  0  0  0  0  0  0  0  0  0
  1  2  1  0
  2  3  1  0
  2  4  2  0
  3  5  1  0
  5  6  1  1
  5  7  1  0
  7  8  1  0
  7  9  2  0
  6 10  1  0
 10 11  1  0
 10 12  2  0
  8 13  1  0
 13 14  1  6
 13 15  1  0
 14 16  2  3
 15 17  1  0
 15 18  1  6
 17 19  1  0
 18 20  1  0
 20 21  1  0
 19 22  1  0
 20 22  1  0
 21 23  1  0
 23 24  2  0
 23 25  1  0
 25 26  1  0
 24 27  1  0
 26 27  2  0
 26 28  1  0
M  END
