x0981-x2705-x0734
     RDKit          3D

 59 64  0  0  0  0  0  0  0  0999 V2000
    1.1600   -8.8380   21.1030 C   0  0  0  0  0  0  0  0  0  0  0  0
    1.2240   -7.5750   22.0170 C   0  0  0  0  0  0  0  0  0  0  0  0
    2.5250   -7.4920   22.6850 N   0  0  0  0  0  0  0  0  0  0  0  0
    0.2990   -6.7730   22.1230 O   0  0  0  0  0  0  0  0  0  0  0  0
    2.8070   -6.2340   23.3910 C   0  0  1  0  0  0  0  0  0  0  0  0
    2.5080   -6.5100   24.7370 C   0  0  0  0  0  0  0  0  0  0  0  0
    4.0680   -5.5230   23.3680 C   0  0  0  0  0  0  0  0  0  0  0  0
    4.5110   -5.0320   22.1740 N   0  0  0  0  0  0  0  0  0  0  0  0
    4.7740   -5.3050   24.2500 N   0  0  0  0  0  0  0  0  0  0  0  0
    2.9790   -7.7370   25.2210 C   0  0  0  0  0  0  0  0  0  0  0  0
    2.4180   -8.2680   26.3480 N   0  0  0  0  0  0  0  0  0  0  0  0
    3.8730   -8.2740   24.5980 O   0  0  0  0  0  0  0  0  0  0  0  0
    5.9370   -4.9380   22.3410 C   0  0  2  0  0  0  0  0  0  0  0  0
    5.8630   -4.5190   23.6340 C   0  0  2  0  0  0  0  0  0  0  0  0
    6.7180   -3.8660   21.5150 C   0  0  1  0  0  0  0  0  0  0  0  0
    7.1930   -4.6280   24.1640 N   0  0  0  0  0  0  0  0  0  0  0  0
    6.7300   -4.5350   20.1250 C   0  0  0  0  0  0  0  0  0  0  0  0
    6.4000   -2.3640   21.5130 C   0  0  0  0  0  0  0  0  0  0  0  0
    7.3960   -5.0740   25.4380 C   0  0  0  0  0  0  0  0  0  0  0  0
    8.0130   -3.5850   23.6490 C   0  0  0  0  0  0  0  0  0  0  0  0
    8.0890   -3.9410   22.1940 C   0  0  0  0  0  0  0  0  0  0  0  0
    5.9220   -5.8700   19.9650 C   0  0  0  0  0  0  0  0  0  0  0  0
    7.4770   -1.2950   21.5860 N   0  0  0  0  0  0  0  0  0  0  0  0
    6.5560   -4.9940   26.5490 C   0  0  0  0  0  0  0  0  0  0  0  0
    8.6340   -5.6620   25.5350 C   0  0  0  0  0  0  0  0  0  0  0  0
    6.9180    0.1180   21.5080 C   0  0  1  0  0  0  0  0  0  0  0  0
    5.2420   -4.4100   26.5240 N   0  0  0  0  0  0  0  0  0  0  0  0
    8.5800   -1.2400   22.5870 C   0  0  0  0  0  0  0  0  0  0  0  0
    9.0520   -6.1630   26.7320 C   0  0  0  0  0  0  0  0  0  0  0  0
    6.9410   -5.4850   27.7890 C   0  0  0  0  0  0  0  0  0  0  0  0
    7.9130    1.2630   21.7810 C   0  0  0  0  0  0  0  0  0  0  0  0
    4.3230   -5.2350   26.4980 O   0  0  0  0  0  0  0  0  0  0  0  0
    5.1000   -3.2570   26.9460 O   0  0  0  0  0  0  0  0  0  0  0  0
    6.2520    0.4910   20.2330 C   0  0  0  0  0  0  0  0  0  0  0  0
    8.6630   -1.0720   23.9120 N   0  0  0  0  0  0  0  0  0  0  0  0
    9.8290   -1.3800   22.0610 C   0  0  0  0  0  0  0  0  0  0  0  0
    8.2050   -6.0610   27.8400 C   0  0  0  0  0  0  0  0  0  0  0  0
    7.5420    2.1170   22.7490 N   0  0  0  0  0  0  0  0  0  0  0  0
    8.9410    1.3970   21.1250 O   0  0  0  0  0  0  0  0  0  0  0  0
    4.9930    1.3210   20.1390 C   0  0  0  0  0  0  0  0  0  0  0  0
    6.8350    0.0570   18.9330 C   0  0  0  0  0  0  0  0  0  0  0  0
   10.0050   -1.1080   24.2260 N   0  0  0  0  0  0  0  0  0  0  0  0
   10.8610   -1.2960   23.1610 C   0  0  0  0  0  0  0  0  0  0  0  0
   12.3970   -1.3700   23.2280 C   0  0  0  0  0  0  0  0  0  0  0  0
    6.3340    0.3600   17.7520 N   0  0  0  0  0  0  0  0  0  0  0  0
    4.5260    1.5980   18.8770 C   0  0  0  0  0  0  0  0  0  0  0  0
    8.2200    3.4190   22.9080 C   0  0  0  0  0  0  0  0  0  0  0  0
   12.7340   -0.1180   23.7250 C   0  0  0  0  0  0  0  0  0  0  0  0
   12.7090   -2.5270   24.1500 C   0  0  0  0  0  0  0  0  0  0  0  0
   12.8730   -1.8320   21.9510 C   0  0  0  0  0  0  0  0  0  0  0  0
    5.2120    1.1150   17.7780 C   0  0  0  0  0  0  0  0  0  0  0  0
    9.4910    3.4730   23.4960 C   0  0  0  0  0  0  0  0  0  0  0  0
    7.4980    4.6580   22.4170 C   0  0  0  0  0  0  0  0  0  0  0  0
   10.1610    2.2090   23.9640 C   0  0  0  0  0  0  0  0  0  0  0  0
    6.1100    4.6100   21.7680 C   0  0  0  0  0  0  0  0  0  0  0  0
   10.1740    4.6920   23.6690 C   0  0  0  0  0  0  0  0  0  0  0  0
    8.3160    5.9510   22.6430 C   0  0  0  0  0  0  0  0  0  0  0  0
    9.2120    1.4610   24.9180 C   0  0  0  0  0  0  0  0  0  0  0  0
    9.5700    5.8780   23.2410 C   0  0  0  0  0  0  0  0  0  0  0  0
  1  2  1  0
  2  3  1  0
  2  4  2  0
  3  5  1  0
  5  6  1  1
  5  7  1  0
  7  8  1  0
  7  9  2  0
  6 10  1  0
 10 11  1  0
 10 12  2  0
 13  8  1  6
 14  9  1  1
 13 14  1  0
 13 15  1  0
 14 16  1  0
 15 17  1  6
 15 18  1  0
 16 19  1  0
 16 20  1  0
 15 21  1  0
 20 21  1  0
 17 22  2  3
 18 23  1  0
 19 24  2  0
 19 25  1  0
 23 26  1  0
 24 27  1  0
 23 28  1  0
 25 29  2  0
 24 30  1  0
 26 31  1  6
 27 32  2  0
 27 33  1  0
 26 34  1  0
 28 35  2  0
 28 36  1  0
 29 37  1  0
 30 37  2  0
 31 38  1  0
 31 39  2  0
 34 40  2  0
 34 41  1  0
 35 42  1  0
 36 43  2  0
 42 43  1  0
 43 44  1  0
 41 45  2  0
 40 46  1  0
 38 47  1  0
 44 48  1  0
 44 49  1  0
 44 50  1  0
 45 51  1  0
 46 51  2  0
 47 52  2  0
 47 53  1  0
 52 54  1  0
 53 55  1  0
 52 56  1  0
 53 57  2  0
 54 58  1  0
 56 59  2  0
 57 59  1  0
M  CHG  2  27   1  33  -1
M  END
