x0981-x0755-x3113
     RDKit          3D

 55 58  0  0  0  0  0  0  0  0999 V2000
    1.2050   -8.5460   21.6110 C   0  0  0  0  0  0  0  0  0  0  0  0
    1.5720   -7.2740   22.3400 C   0  0  0  0  0  0  0  0  0  0  0  0
    2.8660   -7.2540   22.8520 N   0  0  0  0  0  0  0  0  0  0  0  0
    0.7990   -6.3280   22.4490 O   0  0  0  0  0  0  0  0  0  0  0  0
    3.3690   -6.3400   23.8890 C   0  0  1  0  0  0  0  0  0  0  0  0
    3.4500   -7.0570   25.2250 C   0  0  0  0  0  0  0  0  0  0  0  0
    4.8320   -5.8300   23.5340 C   0  0  2  0  0  0  0  0  0  0  0  0
    2.8100   -8.2430   25.3120 C   0  0  0  0  0  0  0  0  0  0  0  0
    5.5760   -5.1480   24.4730 N   0  0  0  0  0  0  0  0  0  0  0  0
    4.8530   -5.1190   22.2170 C   0  0  0  0  0  0  0  0  0  0  0  0
    2.1730   -8.5030   26.5050 N   0  0  0  0  0  0  0  0  0  0  0  0
    2.8640   -8.9770   24.3690 O   0  0  0  0  0  0  0  0  0  0  0  0
    5.1040   -4.7740   26.0910 S   0  0  0  0  0  0  0  0  0  0  0  0
    6.1840   -4.4780   21.7630 C   0  0  1  0  0  0  0  0  0  0  0  0
    6.9940   -4.9810   24.0880 C   0  0  0  0  0  0  0  0  0  0  0  0
    6.4500   -4.9600   20.2720 C   0  0  0  0  0  0  0  0  0  0  0  0
    4.6450   -5.9210   26.8310 O   0  0  0  0  0  0  0  0  0  0  0  0
    6.1600   -3.9850   26.6430 O   0  0  0  0  0  0  0  0  0  0  0  0
    5.7750   -2.9530   21.6830 C   0  0  0  0  0  0  0  0  0  0  0  0
    3.8090   -3.5940   26.0090 C   0  0  0  0  0  0  0  0  0  0  0  0
    7.2100   -4.9910   22.5690 C   0  0  0  0  0  0  0  0  0  0  0  0
    5.8300   -6.0840   19.9090 C   0  0  0  0  0  0  0  0  0  0  0  0
    6.8240   -2.0940   21.3980 C   0  0  0  0  0  0  0  0  0  0  0  0
    2.4920   -4.0600   25.8910 C   0  0  0  0  0  0  0  0  0  0  0  0
    4.0780   -2.1070   26.0700 C   0  0  0  0  0  0  0  0  0  0  0  0
    5.3220   -1.6320   26.1820 F   0  0  0  0  0  0  0  0  0  0  0  0
    7.1010   -1.0790   22.2240 N   0  0  0  0  0  0  0  0  0  0  0  0
    3.0090   -1.2120   26.0100 C   0  0  0  0  0  0  0  0  0  0  0  0
    1.3860   -3.0480   25.8310 C   0  0  0  0  0  0  0  0  0  0  0  0
    6.7820    0.3200   21.9000 C   0  0  1  0  0  0  0  0  0  0  0  0
    1.6960   -1.6920   25.8950 C   0  0  0  0  0  0  0  0  0  0  0  0
    8.3770   -1.2890   22.7530 C   0  0  0  0  0  0  0  0  0  0  0  0
    8.0830    1.3090   21.9510 C   0  0  0  0  0  0  0  0  0  0  0  0
    6.3420    0.4980   20.6330 C   0  0  0  0  0  0  0  0  0  0  0  0
    9.4350   -1.6910   21.7390 C   0  0  0  0  0  0  0  0  0  0  0  0
    8.7120   -1.1230   24.2180 C   0  0  0  0  0  0  0  0  0  0  0  0
    8.3620    1.7920   23.1850 N   0  0  0  0  0  0  0  0  0  0  0  0
    8.8120    1.6760   21.0250 O   0  0  0  0  0  0  0  0  0  0  0  0
    5.2000    1.2630   20.4330 C   0  0  0  0  0  0  0  0  0  0  0  0
    7.0480   -0.0900   19.3680 C   0  0  0  0  0  0  0  0  0  0  0  0
   10.8540   -1.9050   22.2470 C   0  0  0  0  0  0  0  0  0  0  0  0
   10.1200   -1.3430   24.6540 C   0  0  0  0  0  0  0  0  0  0  0  0
    9.4210    2.6260   23.3160 C   0  0  0  0  0  0  0  0  0  0  0  0
    6.4840    0.1990   18.0360 N   0  0  0  0  0  0  0  0  0  0  0  0
    4.6340    1.5470   19.0620 C   0  0  0  0  0  0  0  0  0  0  0  0
   11.2290   -1.7270   23.7220 C   0  0  0  0  0  0  0  0  0  0  0  0
   10.6460    1.9790   23.5610 C   0  0  0  0  0  0  0  0  0  0  0  0
   12.6350   -1.8960   24.2320 C   0  0  0  0  0  0  0  0  0  0  0  0
    5.2840    1.0190   17.9340 C   0  0  0  0  0  0  0  0  0  0  0  0
   11.8340    2.5910   23.1080 C   0  0  0  0  0  0  0  0  0  0  0  0
   13.4660   -2.1980   22.9900 C   0  0  0  0  0  0  0  0  0  0  0  0
   12.8990   -3.0600   25.1770 C   0  0  0  0  0  0  0  0  0  0  0  0
   12.8950   -0.7950   24.9120 C   0  0  0  0  0  0  0  0  0  0  0  0
   11.6800    3.9960   23.3200 O   0  0  0  0  0  0  0  0  0  0  0  0
   12.8560    4.6920   22.8940 C   0  0  0  0  0  0  0  0  0  0  0  0
  1  2  1  0
  2  3  1  0
  2  4  2  0
  3  5  1  0
  5  6  1  1
  5  7  1  0
  6  8  1  0
  7  9  1  0
  7 10  1  6
  8 11  1  0
  8 12  2  0
  9 13  1  0
 10 14  1  0
  9 15  1  0
 14 16  1  6
 13 17  2  0
 13 18  2  0
 14 19  1  0
 13 20  1  0
 14 21  1  0
 15 21  1  0
 16 22  2  3
 19 23  1  0
 20 24  2  0
 20 25  1  0
 25 26  1  0
 23 27  1  0
 25 28  2  0
 24 29  1  0
 27 30  1  0
 28 31  1  0
 29 31  2  0
 27 32  1  0
 30 33  1  6
 30 34  1  0
 32 35  2  0
 32 36  1  0
 33 37  1  0
 33 38  2  0
 34 39  2  0
 34 40  1  0
 35 41  1  0
 36 42  2  0
 37 43  1  0
 40 44  2  0
 39 45  1  0
 41 46  2  0
 42 46  1  0
 43 47  1  0
 46 48  1  0
 44 49  1  0
 45 49  2  0
 47 50  1  0
 48 51  1  0
 48 52  1  0
 48 53  1  0
 50 54  1  0
 54 55  1  0
M  END
