x0981-x3113
     RDKit          3D

 43 44  0  0  0  0  0  0  0  0999 V2000
    1.2830   -8.6920   21.3930 C   0  0  0  0  0  0  0  0  0  0  0  0
    1.4450   -7.3620   22.1890 C   0  0  0  0  0  0  0  0  0  0  0  0
    2.6880   -7.1700   22.7910 N   0  0  0  0  0  0  0  0  0  0  0  0
    0.5590   -6.5180   22.2720 O   0  0  0  0  0  0  0  0  0  0  0  0
    2.9740   -5.9020   23.5130 C   0  0  1  0  0  0  0  0  0  0  0  0
    2.6090   -6.2080   25.0230 C   0  0  0  0  0  0  0  0  0  0  0  0
    4.4520   -5.4550   23.4200 C   0  0  0  0  0  0  0  0  0  0  0  0
    5.2580   -5.6050   22.3230 N   0  0  0  0  0  0  0  0  0  0  0  0
    5.0000   -4.8940   24.3630 O   0  0  0  0  0  0  0  0  0  0  0  0
    3.0260   -7.6950   25.3040 C   0  0  0  0  0  0  0  0  0  0  0  0
    2.2670   -8.4360   26.3180 N   0  0  0  0  0  0  0  0  0  0  0  0
    3.9440   -8.1820   24.6880 O   0  0  0  0  0  0  0  0  0  0  0  0
    6.4080   -4.7720   21.8630 C   0  0  1  0  0  0  0  0  0  0  0  0
    6.4500   -4.9030   20.3260 C   0  0  0  0  0  0  0  0  0  0  0  0
    6.2870   -3.3750   22.5230 C   0  0  0  0  0  0  0  0  0  0  0  0
    5.6980   -6.1480   19.8650 C   0  0  0  0  0  0  0  0  0  0  0  0
    6.3670   -2.1680   21.7800 C   0  0  0  0  0  0  0  0  0  0  0  0
    7.3310   -1.2380   22.0540 N   0  0  0  0  0  0  0  0  0  0  0  0
    7.0610    0.0700   21.8220 C   0  0  1  0  0  0  0  0  0  0  0  0
    8.5800   -1.4710   22.6250 C   0  0  0  0  0  0  0  0  0  0  0  0
    8.0940    1.1020   21.9000 C   0  0  0  0  0  0  0  0  0  0  0  0
    6.4440    0.4150   20.4860 C   0  0  0  0  0  0  0  0  0  0  0  0
    9.5990   -1.9750   21.8460 C   0  0  0  0  0  0  0  0  0  0  0  0
    8.8070   -1.1690   23.9640 C   0  0  0  0  0  0  0  0  0  0  0  0
    8.3460    1.5960   23.1720 N   0  0  0  0  0  0  0  0  0  0  0  0
    8.6980    1.5290   20.9250 O   0  0  0  0  0  0  0  0  0  0  0  0
    5.3380    1.2430   20.3780 C   0  0  0  0  0  0  0  0  0  0  0  0
    6.8850   -0.0160   19.2510 C   0  0  0  0  0  0  0  0  0  0  0  0
   10.8890   -2.1780   22.3180 C   0  0  0  0  0  0  0  0  0  0  0  0
   10.0590   -1.3420   24.5140 C   0  0  0  0  0  0  0  0  0  0  0  0
    9.3060    2.5570   23.4400 C   0  0  0  0  0  0  0  0  0  0  0  0
    6.3830    0.2840   18.0420 N   0  0  0  0  0  0  0  0  0  0  0  0
    4.7250    1.6160   19.0320 C   0  0  0  0  0  0  0  0  0  0  0  0
   11.1830   -1.8700   23.6370 C   0  0  0  0  0  0  0  0  0  0  0  0
   10.5260    1.8850   23.6000 C   0  0  0  0  0  0  0  0  0  0  0  0
   12.5900   -2.0290   24.1890 C   0  0  0  0  0  0  0  0  0  0  0  0
    5.2220    1.1610   17.8070 C   0  0  0  0  0  0  0  0  0  0  0  0
   11.6880    2.5640   23.2000 C   0  0  0  0  0  0  0  0  0  0  0  0
   13.4960   -2.2890   23.1190 C   0  0  0  0  0  0  0  0  0  0  0  0
   12.8020   -3.0190   25.0830 C   0  0  0  0  0  0  0  0  0  0  0  0
   12.8350   -0.7810   24.8180 C   0  0  0  0  0  0  0  0  0  0  0  0
   11.6080    3.9790   23.3730 O   0  0  0  0  0  0  0  0  0  0  0  0
   12.7910    4.6410   22.9130 C   0  0  0  0  0  0  0  0  0  0  0  0
  1  2  1  0
  2  3  1  0
  2  4  2  0
  3  5  1  0
  5  6  1  1
  5  7  1  0
  7  8  1  0
  7  9  2  0
  6 10  1  0
 10 11  1  0
 10 12  2  0
  8 13  1  0
 13 14  1  6
 13 15  1  0
 14 16  2  3
 15 17  1  0
 17 18  1  0
 18 19  1  0
 18 20  1  0
 19 21  1  6
 19 22  1  0
 20 23  2  0
 20 24  1  0
 21 25  1  0
 21 26  2  0
 22 27  2  0
 22 28  1  0
 23 29  1  0
 24 30  2  0
 25 31  1  0
 28 32  2  0
 27 33  1  0
 29 34  2  0
 30 34  1  0
 31 35  1  0
 34 36  1  0
 32 37  1  0
 33 37  2  0
 35 38  1  0
 36 39  1  0
 36 40  1  0
 36 41  1  0
 38 42  1  0
 42 43  1  0
M  END
