x0981-x2694-x1351
     RDKit          3D

 58 62  0  0  0  0  0  0  0  0999 V2000
    1.1240   -8.7930   21.1630 C   0  0  0  0  0  0  0  0  0  0  0  0
    1.1710   -7.5250   22.0300 C   0  0  0  0  0  0  0  0  0  0  0  0
    2.3190   -7.4270   22.7580 N   0  0  0  0  0  0  0  0  0  0  0  0
    0.2760   -6.6860   22.0490 O   0  0  0  0  0  0  0  0  0  0  0  0
    2.6510   -6.2280   23.4740 C   0  0  1  0  0  0  0  0  0  0  0  0
    2.4820   -6.4280   24.9710 C   0  0  0  0  0  0  0  0  0  0  0  0
    4.1390   -6.0700   23.1820 C   0  0  0  0  0  0  0  0  0  0  0  0
    4.8740   -5.2770   24.1480 N   0  0  0  0  0  0  0  0  0  0  0  0
    2.9770   -7.7880   25.4180 C   0  0  0  0  0  0  0  0  0  0  0  0
    2.3610   -8.3680   26.6300 N   0  0  0  0  0  0  0  0  0  0  0  0
    3.8430   -8.2970   24.7350 O   0  0  0  0  0  0  0  0  0  0  0  0
    5.8420   -4.5080   23.4180 C   0  0  1  0  0  0  0  0  0  0  0  0
    6.5560   -3.4840   23.9590 C   0  0  2  0  0  0  0  0  0  0  0  0
    6.6660   -5.1480   22.5710 C   0  0  0  0  0  0  0  0  0  0  0  0
    5.7720   -2.9390   25.1130 N   0  0  0  0  0  0  0  0  0  0  0  0
    6.7810   -4.2310   21.4860 N   0  0  0  0  0  0  0  0  0  0  0  0
    6.5900   -2.5010   23.0380 C   0  0  0  0  0  0  0  0  0  0  0  0
    6.6830   -4.7380   20.2150 C   0  0  0  0  0  0  0  0  0  0  0  0
    6.3210   -2.5870   26.4460 C   0  0  0  0  0  0  0  0  0  0  0  0
    7.4170   -2.9500   21.9820 C   0  0  2  0  0  0  0  0  0  0  0  0
    5.8120   -5.9700   19.9330 C   0  0  0  0  0  0  0  0  0  0  0  0
    7.3950   -1.7430   21.0210 C   0  0  0  0  0  0  0  0  0  0  0  0
    6.8920   -3.3960   27.1770 O   0  0  0  0  0  0  0  0  0  0  0  0
    6.1510   -1.1890   26.9450 C   0  0  0  0  0  0  0  0  0  0  0  0
    7.8810   -0.6160   21.5470 N   0  0  0  0  0  0  0  0  0  0  0  0
    6.8820   -0.7990   28.0660 C   0  0  0  0  0  0  0  0  0  0  0  0
    5.3020   -0.2360   26.3730 C   0  0  0  0  0  0  0  0  0  0  0  0
    7.1610    0.4970   21.6250 C   0  0  1  0  0  0  0  0  0  0  0  0
    8.8760   -0.8630   22.4440 C   0  0  0  0  0  0  0  0  0  0  0  0
    6.7580    0.4990   28.5930 C   0  0  0  0  0  0  0  0  0  0  0  0
    5.1550    1.0640   26.8700 C   0  0  0  0  0  0  0  0  0  0  0  0
    7.9570    1.6130   21.8730 C   0  0  0  0  0  0  0  0  0  0  0  0
    6.4350    0.7400   20.3110 C   0  0  0  0  0  0  0  0  0  0  0  0
    8.8530   -0.9620   23.9230 N   0  0  0  0  0  0  0  0  0  0  0  0
   10.1920   -1.0880   22.1280 C   0  0  0  0  0  0  0  0  0  0  0  0
    5.8930    1.4250   27.9910 C   0  0  0  0  0  0  0  0  0  0  0  0
    7.7110    2.5960   22.7410 N   0  0  0  0  0  0  0  0  0  0  0  0
    9.1660    1.8460   21.1750 O   0  0  0  0  0  0  0  0  0  0  0  0
    5.3200    1.5150   20.2290 C   0  0  0  0  0  0  0  0  0  0  0  0
    6.9310    0.1560   19.1250 C   0  0  0  0  0  0  0  0  0  0  0  0
   10.1710   -1.2330   24.3380 O   0  0  0  0  0  0  0  0  0  0  0  0
   10.9530   -1.2990   23.2260 C   0  0  0  0  0  0  0  0  0  0  0  0
   12.3530   -1.5380   23.2660 C   0  0  0  0  0  0  0  0  0  0  0  0
    6.2960    0.3900   17.9510 N   0  0  0  0  0  0  0  0  0  0  0  0
    4.7090    1.7200   19.0190 C   0  0  0  0  0  0  0  0  0  0  0  0
    8.5480    3.6960   23.0300 C   0  0  0  0  0  0  0  0  0  0  0  0
   12.9840   -0.1940   23.6350 C   0  0  0  0  0  0  0  0  0  0  0  0
   12.8450   -2.0280   22.0700 C   0  0  0  0  0  0  0  0  0  0  0  0
   12.7040   -2.3270   24.2930 C   0  0  0  0  0  0  0  0  0  0  0  0
    5.1930    1.1610   17.8590 C   0  0  0  0  0  0  0  0  0  0  0  0
    9.7790    3.4410   23.6700 C   0  0  0  0  0  0  0  0  0  0  0  0
    8.2050    5.0140   22.7090 C   0  0  0  0  0  0  0  0  0  0  0  0
   10.2470    2.0320   24.0630 C   0  0  0  0  0  0  0  0  0  0  0  0
   10.6210    4.5330   23.9660 C   0  0  0  0  0  0  0  0  0  0  0  0
    9.0780    6.0510   23.0320 C   0  0  0  0  0  0  0  0  0  0  0  0
   10.2970    5.8460   23.6650 C   0  0  0  0  0  0  0  0  0  0  0  0
   11.0320    6.8020   23.9350 O   0  0  0  0  0  0  0  0  0  0  0  0
   11.8620    6.6590   25.0160 C   0  0  0  0  0  0  0  0  0  0  0  0
  1  2  1  0
  2  3  1  0
  2  4  2  0
  3  5  1  0
  5  6  1  1
  5  7  1  0
  7  8  1  0
  6  9  1  0
  9 10  1  0
  9 11  2  0
 12  8  1  1
 12 13  1  0
 12 14  1  0
 13 15  1  1
 14 16  1  0
 13 17  1  0
 16 18  1  0
 15 19  1  0
 16 20  1  0
 17 20  1  0
 18 21  2  3
 20 22  1  6
 19 23  2  0
 19 24  1  0
 22 25  1  0
 24 26  2  0
 24 27  1  0
 25 28  1  0
 25 29  1  0
 26 30  1  0
 27 31  2  0
 28 32  1  6
 28 33  1  0
 29 34  2  0
 29 35  1  0
 30 36  2  0
 31 36  1  0
 32 37  1  0
 32 38  2  0
 33 39  2  0
 33 40  1  0
 34 41  1  0
 35 42  2  0
 41 42  1  0
 42 43  1  0
 40 44  2  0
 39 45  1  0
 37 46  1  0
 43 47  1  0
 43 48  1  0
 43 49  1  0
 44 50  1  0
 45 50  2  0
 46 51  2  0
 46 52  1  0
 51 53  1  0
 51 54  1  0
 52 55  2  0
 54 56  2  0
 55 56  1  0
 56 57  1  0
 57 58  1  0
M  END
