x0981-x2694-x1380
     RDKit          3D

 58 63  0  0  0  0  0  0  0  0999 V2000
    1.1300   -8.7460   21.2810 C   0  0  0  0  0  0  0  0  0  0  0  0
    1.2770   -7.4850   22.0950 C   0  0  0  0  0  0  0  0  0  0  0  0
    2.4800   -7.3280   22.7600 N   0  0  0  0  0  0  0  0  0  0  0  0
    0.3390   -6.6850   22.0980 O   0  0  0  0  0  0  0  0  0  0  0  0
    2.7000   -6.0960   23.5270 C   0  0  1  0  0  0  0  0  0  0  0  0
    2.3940   -6.3940   24.9970 C   0  0  0  0  0  0  0  0  0  0  0  0
    4.1730   -5.6550   23.4440 C   0  0  0  0  0  0  0  0  0  0  0  0
    4.7940   -5.6600   22.2920 N   0  0  0  0  0  0  0  0  0  0  0  0
    4.7690   -5.3030   24.4960 N   0  0  0  0  0  0  0  0  0  0  0  0
    2.9610   -7.7560   25.3610 C   0  0  0  0  0  0  0  0  0  0  0  0
    2.3830   -8.4040   26.5670 N   0  0  0  0  0  0  0  0  0  0  0  0
    3.8390   -8.2570   24.6810 O   0  0  0  0  0  0  0  0  0  0  0  0
    6.1730   -5.5530   22.6350 C   0  0  2  0  0  0  0  0  0  0  0  0
    6.0750   -4.9920   23.9310 C   0  0  1  0  0  0  0  0  0  0  0  0
    6.7690   -4.6610   21.6720 N   0  0  0  0  0  0  0  0  0  0  0  0
    5.9300   -3.6220   23.8690 C   0  0  1  0  0  0  0  0  0  0  0  0
    6.8430   -5.1270   20.3570 C   0  0  0  0  0  0  0  0  0  0  0  0
    5.8680   -3.0840   25.3240 C   0  0  0  0  0  0  0  0  0  0  0  0
    6.9700   -2.9140   23.2030 C   0  0  1  0  0  0  0  0  0  0  0  0
    7.6900   -3.7260   22.3530 C   0  0  0  0  0  0  0  0  0  0  0  0
    5.9620   -6.0320   19.8900 C   0  0  0  0  0  0  0  0  0  0  0  0
    6.3910   -1.7280   22.3870 C   0  0  0  0  0  0  0  0  0  0  0  0
    5.0050   -1.9640   25.5550 O   0  0  0  0  0  0  0  0  0  0  0  0
    6.5600   -3.6450   26.4160 N   0  0  0  0  0  0  0  0  0  0  0  0
    7.4900   -0.8460   21.9260 N   0  0  0  0  0  0  0  0  0  0  0  0
    7.8990   -4.2520   26.4700 C   0  0  0  0  0  0  0  0  0  0  0  0
    5.9670   -3.3630   27.7260 C   0  0  0  0  0  0  0  0  0  0  0  0
    6.9790    0.5380   21.7040 C   0  0  1  0  0  0  0  0  0  0  0  0
    8.7740   -1.0130   22.6230 C   0  0  0  0  0  0  0  0  0  0  0  0
    7.8080   -5.3970   27.2730 C   0  0  0  0  0  0  0  0  0  0  0  0
    6.1670   -4.4830   28.7270 C   0  0  0  0  0  0  0  0  0  0  0  0
    8.0790    1.5830   21.8230 C   0  0  0  0  0  0  0  0  0  0  0  0
    6.3930    0.7030   20.3180 C   0  0  0  0  0  0  0  0  0  0  0  0
    9.0340   -1.1360   23.9330 N   0  0  0  0  0  0  0  0  0  0  0  0
    9.9860   -1.0800   22.0260 C   0  0  0  0  0  0  0  0  0  0  0  0
    7.4090   -5.1150   28.5800 C   0  0  0  0  0  0  0  0  0  0  0  0
    7.8080    2.5110   22.7510 N   0  0  0  0  0  0  0  0  0  0  0  0
    9.0750    1.5710   21.1190 O   0  0  0  0  0  0  0  0  0  0  0  0
    5.2920    1.5360   20.1660 C   0  0  0  0  0  0  0  0  0  0  0  0
    6.8420    0.1020   19.0900 C   0  0  0  0  0  0  0  0  0  0  0  0
   10.4130   -1.2850   24.1370 O   0  0  0  0  0  0  0  0  0  0  0  0
   11.0880   -1.2540   22.9710 C   0  0  0  0  0  0  0  0  0  0  0  0
   12.5600   -1.3860   23.0140 C   0  0  0  0  0  0  0  0  0  0  0  0
    6.2890    0.2920   17.8290 N   0  0  0  0  0  0  0  0  0  0  0  0
    4.7320    1.7340   18.9270 C   0  0  0  0  0  0  0  0  0  0  0  0
    8.5920    3.6470   23.0160 C   0  0  0  0  0  0  0  0  0  0  0  0
   12.9730   -0.1660   23.5350 C   0  0  0  0  0  0  0  0  0  0  0  0
   12.9570   -1.9980   21.8630 C   0  0  0  0  0  0  0  0  0  0  0  0
   12.8830   -2.1990   24.0370 C   0  0  0  0  0  0  0  0  0  0  0  0
    5.2390    1.1230   17.8190 C   0  0  0  0  0  0  0  0  0  0  0  0
    9.8010    3.4500   23.6430 C   0  0  0  0  0  0  0  0  0  0  0  0
    8.1830    4.9260   22.6670 C   0  0  0  0  0  0  0  0  0  0  0  0
   10.2930    2.0520   24.0470 C   0  0  0  0  0  0  0  0  0  0  0  0
   10.6130    4.5490   23.9260 C   0  0  0  0  0  0  0  0  0  0  0  0
    9.0000    6.0150   22.9580 C   0  0  0  0  0  0  0  0  0  0  0  0
   10.2440    5.8680   23.6020 C   0  0  0  0  0  0  0  0  0  0  0  0
   11.1630    6.8370   23.9650 O   0  0  0  0  0  0  0  0  0  0  0  0
   11.8600    6.6240   25.1860 C   0  0  0  0  0  0  0  0  0  0  0  0
  1  2  1  0
  2  3  1  0
  2  4  2  0
  3  5  1  0
  5  6  1  1
  5  7  1  0
  7  8  1  0
  7  9  2  0
  6 10  1  0
 10 11  1  0
 10 12  2  0
 13  8  1  6
 14  9  1  6
 13 14  1  0
 13 15  1  0
 14 16  1  0
 15 17  1  0
 16 18  1  1
 16 19  1  0
 15 20  1  0
 19 20  1  0
 17 21  2  3
 19 22  1  6
 18 23  2  0
 18 24  1  0
 22 25  1  0
 24 26  1  0
 24 27  1  0
 25 28  1  0
 25 29  1  0
 26 30  1  0
 27 31  1  0
 28 32  1  6
 28 33  1  0
 29 34  2  0
 29 35  1  0
 30 36  1  0
 31 36  1  0
 32 37  1  0
 32 38  2  0
 33 39  2  0
 33 40  1  0
 34 41  1  0
 35 42  2  0
 41 42  1  0
 42 43  1  0
 40 44  2  0
 39 45  1  0
 37 46  1  0
 43 47  1  0
 43 48  1  0
 43 49  1  0
 44 50  1  0
 45 50  2  0
 46 51  2  0
 46 52  1  0
 51 53  1  0
 51 54  1  0
 52 55  2  0
 54 56  2  0
 55 56  1  0
 56 57  1  0
 57 58  1  0
M  END
