x0981-x2563
     RDKit          3D

 38 40  0  0  0  0  0  0  0  0999 V2000
    1.2660   -8.7190   21.3570 C   0  0  0  0  0  0  0  0  0  0  0  0
    1.4300   -7.4020   22.1710 C   0  0  0  0  0  0  0  0  0  0  0  0
    2.6690   -7.2280   22.7830 N   0  0  0  0  0  0  0  0  0  0  0  0
    0.5480   -6.5530   22.2630 O   0  0  0  0  0  0  0  0  0  0  0  0
    2.9690   -5.9580   23.4880 C   0  0  1  0  0  0  0  0  0  0  0  0
    2.5800   -6.2270   24.9970 C   0  0  0  0  0  0  0  0  0  0  0  0
    4.4580   -5.5620   23.4000 C   0  0  0  0  0  0  0  0  0  0  0  0
    5.2430   -5.6810   22.2870 N   0  0  0  0  0  0  0  0  0  0  0  0
    5.0450   -5.0590   24.3560 O   0  0  0  0  0  0  0  0  0  0  0  0
    3.0280   -7.6960   25.3060 C   0  0  0  0  0  0  0  0  0  0  0  0
    2.3360   -8.4160   26.3800 N   0  0  0  0  0  0  0  0  0  0  0  0
    3.9210   -8.1950   24.6660 O   0  0  0  0  0  0  0  0  0  0  0  0
    6.1030   -4.6300   21.7080 C   0  0  1  0  0  0  0  0  0  0  0  0
    6.3590   -4.9650   20.2270 C   0  0  0  0  0  0  0  0  0  0  0  0
    5.4810   -3.4110   21.9880 C   0  0  0  0  0  0  0  0  0  0  0  0
    5.6870   -6.2420   19.8100 C   0  0  0  0  0  0  0  0  0  0  0  0
    5.8780   -2.3370   21.2130 C   0  0  0  0  0  0  0  0  0  0  0  0
    7.1600   -1.8830   21.5180 C   0  0  0  0  0  0  0  0  0  0  0  0
    7.1590   -0.4030   21.2260 C   0  0  1  0  0  0  0  0  0  0  0  0
    8.5440    0.2390   21.2710 C   0  0  0  0  0  0  0  0  0  0  0  0
    6.3960    0.1690   20.0620 C   0  0  0  0  0  0  0  0  0  0  0  0
    8.6900    1.5840   20.9900 O   0  0  0  0  0  0  0  0  0  0  0  0
    9.5670   -0.6860   21.6290 N   0  0  0  0  0  0  0  0  0  0  0  0
    5.2170    0.8640   20.2620 C   0  0  0  0  0  0  0  0  0  0  0  0
    6.9390   -0.0220   18.7900 C   0  0  0  0  0  0  0  0  0  0  0  0
    6.2230    0.5670   17.6620 N   0  0  0  0  0  0  0  0  0  0  0  0
    4.5570    1.4130   19.1700 C   0  0  0  0  0  0  0  0  0  0  0  0
    4.6750    1.0280   21.5550 C   0  0  0  0  0  0  0  0  0  0  0  0
   10.2960   -0.5510   22.7900 C   0  0  0  0  0  0  0  0  0  0  0  0
    5.1020    1.2410   17.9210 C   0  0  0  0  0  0  0  0  0  0  0  0
    3.3290    2.1420   19.3980 C   0  0  0  0  0  0  0  0  0  0  0  0
    3.5080    1.7170   21.7710 C   0  0  0  0  0  0  0  0  0  0  0  0
   11.6810   -0.6500   22.6780 C   0  0  0  0  0  0  0  0  0  0  0  0
    9.6730   -0.3240   23.9970 C   0  0  0  0  0  0  0  0  0  0  0  0
    2.8350    2.2730   20.7080 C   0  0  0  0  0  0  0  0  0  0  0  0
   12.5660   -0.5270   23.7730 C   0  0  0  0  0  0  0  0  0  0  0  0
   10.5000   -0.1790   25.2650 C   0  0  0  0  0  0  0  0  0  0  0  0
   11.9770   -0.3080   24.9970 C   0  0  0  0  0  0  0  0  0  0  0  0
  1  2  1  0
  2  3  1  0
  2  4  2  0
  3  5  1  0
  5  6  1  1
  5  7  1  0
  7  8  1  0
  7  9  2  0
  6 10  1  0
 10 11  1  0
 10 12  2  0
  8 13  1  0
 13 14  1  6
 13 15  1  0
 14 16  2  3
 15 17  1  0
 17 18  1  0
 19 18  1  6
 19 20  1  0
 19 21  1  0
 20 22  2  0
 20 23  1  0
 21 24  1  0
 21 25  2  0
 25 26  1  0
 24 27  2  0
 24 28  1  0
 23 29  1  0
 26 30  2  0
 27 30  1  0
 27 31  1  0
 28 32  2  0
 29 33  2  0
 29 34  1  0
 31 35  2  0
 32 35  1  0
 33 36  1  0
 34 37  2  0
 36 38  2  0
 37 38  1  0
M  END
