x0981-x3110-x3115-x0769
     RDKit          3D

 61 64  0  0  0  0  0  0  0  0999 V2000
    8.1140    1.8230   23.1370 N   0  0  0  0  0  0  0  0  0  0  0  0
    8.9930    2.8870   23.0440 C   0  0  2  0  0  0  0  0  0  0  0  0
   10.3000    2.6500   23.7220 C   0  0  0  0  0  0  0  0  0  0  0  0
    7.8750    1.1190   21.8950 C   0  0  0  0  0  0  0  0  0  0  0  0
    8.6190    1.2930   20.9330 O   0  0  0  0  0  0  0  0  0  0  0  0
    6.7370    0.2670   21.8250 C   0  0  2  0  0  0  0  0  0  0  0  0
    8.3080    4.2000   23.5210 C   0  0  0  0  0  0  0  0  0  0  0  0
    7.0460   -1.1250   22.2000 N   0  0  0  0  0  0  0  0  0  0  0  0
   11.3000    3.6040   23.5420 C   0  0  0  0  0  0  0  0  0  0  0  0
    8.9190    5.3460   23.0980 O   0  0  0  0  0  0  0  0  0  0  0  0
    6.1990    0.5650   20.4360 C   0  0  0  0  0  0  0  0  0  0  0  0
   12.0280    3.3460   22.6000 O   0  0  0  0  0  0  0  0  0  0  0  0
   11.4220    4.6000   24.2480 O   0  0  0  0  0  0  0  0  0  0  0  0
    8.1450    6.1630   22.2210 C   0  0  0  0  0  0  0  0  0  0  0  0
    6.7190   -2.1850   21.3880 C   0  0  0  0  0  0  0  0  0  0  0  0
    5.0680    1.3690   20.2660 C   0  0  0  0  0  0  0  0  0  0  0  0
    6.8240    0.0600   19.1500 C   0  0  0  0  0  0  0  0  0  0  0  0
    8.3520   -1.2870   22.6920 C   0  0  0  0  0  0  0  0  0  0  0  0
   12.3910    4.5200   21.8730 C   0  0  0  0  0  0  0  0  0  0  0  0
    5.7120   -3.1910   21.8930 C   0  0  0  0  0  0  0  0  0  0  0  0
    6.3330    0.3650   17.7860 N   0  0  0  0  0  0  0  0  0  0  0  0
    4.5770    1.6780   19.0000 C   0  0  0  0  0  0  0  0  0  0  0  0
    9.4100   -1.5320   21.8250 C   0  0  0  0  0  0  0  0  0  0  0  0
    8.5920   -1.2080   24.0390 C   0  0  0  0  0  0  0  0  0  0  0  0
   13.4890    5.2680   22.6580 C   0  0  0  0  0  0  0  0  0  0  0  0
    5.2610    1.1460   17.7810 C   0  0  0  0  0  0  0  0  0  0  0  0
   10.7350   -1.7030   22.2310 C   0  0  0  0  0  0  0  0  0  0  0  0
    9.9610   -1.3660   24.6170 C   0  0  0  0  0  0  0  0  0  0  0  0
    6.1350   -4.7170   21.7940 C   0  0  2  0  0  0  0  0  0  0  0  0
    6.4550   -5.0870   20.2840 C   0  0  0  0  0  0  0  0  0  0  0  0
   11.1710   -1.6350   23.7070 C   0  0  0  0  0  0  0  0  0  0  0  0
    5.1820   -5.6620   22.2270 C   0  0  0  0  0  0  0  0  0  0  0  0
    7.2660   -4.9160   22.8170 C   0  0  0  0  0  0  0  0  0  0  0  0
   12.5990   -1.7860   24.1970 C   0  0  0  0  0  0  0  0  0  0  0  0
    5.7350   -6.2980   19.7600 C   0  0  0  0  0  0  0  0  0  0  0  0
    4.3930   -5.3680   23.3190 C   0  0  2  0  0  0  0  0  0  0  0  0
    6.7660   -4.8420   24.2640 C   0  0  0  0  0  0  0  0  0  0  0  0
   12.7570   -0.5350   24.7360 C   0  0  0  0  0  0  0  0  0  0  0  0
   13.3870   -2.1210   22.9840 C   0  0  0  0  0  0  0  0  0  0  0  0
   12.8210   -2.9500   25.0710 C   0  0  0  0  0  0  0  0  0  0  0  0
    3.0010   -6.1680   23.4420 C   0  0  1  0  0  0  0  0  0  0  0  0
    3.9380   -4.0840   22.9980 O   0  0  0  0  0  0  0  0  0  0  0  0
    5.3300   -5.2400   24.5120 N   0  0  0  0  0  0  0  0  0  0  0  0
    2.8500   -7.1470   22.5530 N   0  0  0  0  0  0  0  0  0  0  0  0
    2.5980   -6.5360   24.7180 C   0  0  0  0  0  0  0  0  0  0  0  0
    4.8210   -5.0040   26.1260 S   0  0  0  0  0  0  0  0  0  0  0  0
    1.4620   -7.4470   22.1250 C   0  0  0  0  0  0  0  0  0  0  0  0
    2.9890   -7.7960   25.1620 C   0  0  0  0  0  0  0  0  0  0  0  0
    5.8850   -4.4350   26.8880 O   0  0  0  0  0  0  0  0  0  0  0  0
    4.1790   -6.2040   26.6170 O   0  0  0  0  0  0  0  0  0  0  0  0
    3.6660   -3.6640   26.0660 C   0  0  0  0  0  0  0  0  0  0  0  0
    1.2620   -8.7460   21.3200 C   0  0  0  0  0  0  0  0  0  0  0  0
    0.2720   -6.6720   22.3200 O   0  0  0  0  0  0  0  0  0  0  0  0
    2.3500   -8.5240   26.1060 N   0  0  0  0  0  0  0  0  0  0  0  0
    3.9800   -8.2650   24.6630 O   0  0  0  0  0  0  0  0  0  0  0  0
    4.1840   -2.3640   26.0750 C   0  0  0  0  0  0  0  0  0  0  0  0
    2.2790   -3.8390   26.0120 C   0  0  0  0  0  0  0  0  0  0  0  0
    5.5050   -2.1370   26.1310 F   0  0  0  0  0  0  0  0  0  0  0  0
    1.4270   -2.7170   25.9650 C   0  0  0  0  0  0  0  0  0  0  0  0
    3.3300   -1.2760   26.0290 C   0  0  0  0  0  0  0  0  0  0  0  0
    1.9520   -1.4240   25.9740 C   0  0  0  0  0  0  0  0  0  0  0  0
  1  2  1  0
  2  3  1  1
  1  4  1  0
  4  5  2  0
  6  4  1  6
  2  7  1  0
  6  8  1  0
  3  9  1  0
  7 10  1  0
  6 11  1  0
  9 12  1  0
  9 13  2  0
 10 14  1  0
  8 15  1  0
 11 16  2  0
 11 17  1  0
  8 18  1  0
 12 19  1  0
 15 20  1  0
 17 21  2  0
 16 22  1  0
 18 23  2  0
 18 24  1  0
 19 25  1  0
 21 26  1  0
 22 26  2  0
 23 27  1  0
 24 28  2  0
 29 20  1  6
 29 30  1  0
 27 31  2  0
 28 31  1  0
 29 32  1  0
 29 33  1  0
 31 34  1  0
 30 35  2  3
 32 36  1  0
 33 37  1  0
 34 38  1  0
 34 39  1  0
 34 40  1  0
 36 41  1  0
 36 42  1  6
 36 43  1  0
 37 43  1  0
 41 44  1  0
 41 45  1  1
 43 46  1  0
 44 47  1  0
 45 48  1  0
 46 49  2  0
 46 50  2  0
 46 51  1  0
 47 52  1  0
 47 53  2  0
 48 54  1  0
 48 55  2  0
 51 56  2  0
 51 57  1  0
 56 58  1  0
 57 59  2  0
 56 60  1  0
 59 61  1  0
 60 61  2  0
M  END
