x0981-x2776-x0769
     RDKit          3D

 59 64  0  0  0  0  0  0  0  0999 V2000
    1.2360   -8.6610   21.4400 C   0  0  0  0  0  0  0  0  0  0  0  0
    1.4460   -7.3260   22.2180 C   0  0  0  0  0  0  0  0  0  0  0  0
    2.7130   -7.0540   22.7330 N   0  0  0  0  0  0  0  0  0  0  0  0
    0.4210   -6.6500   22.2540 O   0  0  0  0  0  0  0  0  0  0  0  0
    3.0900   -5.9590   23.6740 C   0  0  1  0  0  0  0  0  0  0  0  0
    3.6980   -6.5680   24.9380 C   0  0  0  0  0  0  0  0  0  0  0  0
    4.2120   -4.8550   23.3090 C   0  0  2  0  0  0  0  0  0  0  0  0
    3.5270   -3.8220   22.6810 O   0  0  0  0  0  0  0  0  0  0  0  0
    3.4590   -7.8700   25.1740 C   0  0  0  0  0  0  0  0  0  0  0  0
    4.5980   -5.4450   25.9830 S   0  0  2  0  0  0  0  0  0  0  0  0
    5.1020   -5.2550   22.2990 C   0  0  0  0  0  0  0  0  0  0  0  0
    4.7740   -4.4470   24.5010 N   0  0  0  0  0  0  0  0  0  0  0  0
    2.9490   -8.1670   26.5490 N   0  0  0  0  0  0  0  0  0  0  0  0
    3.6500   -8.5270   24.2220 O   0  0  0  0  0  0  0  0  0  0  0  0
    5.3360   -5.6210   27.2090 O   0  0  0  0  0  0  0  0  0  0  0  0
    4.2780   -3.7090   25.8210 C   0  0  0  0  0  0  0  0  0  0  0  0
    6.0680   -4.3870   21.7460 C   0  0  1  0  0  0  0  0  0  0  0  0
    6.2350   -4.0150   24.1970 C   0  0  0  0  0  0  0  0  0  0  0  0
    6.4960   -4.9420   20.3800 C   0  0  0  0  0  0  0  0  0  0  0  0
    5.6100   -3.0060   21.6540 C   0  0  0  0  0  0  0  0  0  0  0  0
    5.0540   -2.5460   25.9330 C   0  0  0  0  0  0  0  0  0  0  0  0
    2.7410   -3.6150   25.5690 C   0  0  0  0  0  0  0  0  0  0  0  0
    6.9570   -4.4820   23.0270 C   0  0  0  0  0  0  0  0  0  0  0  0
    5.7580   -6.1830   19.9070 C   0  0  0  0  0  0  0  0  0  0  0  0
    6.3590   -2.5560   26.1750 F   0  0  0  0  0  0  0  0  0  0  0  0
    6.5940   -2.0720   21.2700 C   0  0  0  0  0  0  0  0  0  0  0  0
    2.0640   -2.4070   25.4390 C   0  0  0  0  0  0  0  0  0  0  0  0
    4.2820   -1.1810   25.7770 C   0  0  0  0  0  0  0  0  0  0  0  0
    6.9570   -0.9580   22.1450 N   0  0  0  0  0  0  0  0  0  0  0  0
    2.9180   -1.0870   25.5530 C   0  0  0  0  0  0  0  0  0  0  0  0
    6.7510    0.3240   21.7130 C   0  0  1  0  0  0  0  0  0  0  0  0
    8.2810   -1.1900   22.6800 C   0  0  0  0  0  0  0  0  0  0  0  0
    7.8090    1.2260   21.8870 C   0  0  0  0  0  0  0  0  0  0  0  0
    6.2560    0.5820   20.3000 C   0  0  0  0  0  0  0  0  0  0  0  0
    9.3850   -1.7390   21.7700 C   0  0  0  0  0  0  0  0  0  0  0  0
    8.6400   -0.9180   24.1030 C   0  0  0  0  0  0  0  0  0  0  0  0
    7.8850    1.9810   22.9920 N   0  0  0  0  0  0  0  0  0  0  0  0
    8.6460    1.3290   20.9820 O   0  0  0  0  0  0  0  0  0  0  0  0
    5.1110    1.3830   20.1760 C   0  0  0  0  0  0  0  0  0  0  0  0
    6.8610    0.0990   19.1270 C   0  0  0  0  0  0  0  0  0  0  0  0
   10.6000   -1.9300   22.2980 C   0  0  0  0  0  0  0  0  0  0  0  0
   10.0540   -1.1940   24.5110 C   0  0  0  0  0  0  0  0  0  0  0  0
    6.4240    0.3590   17.8670 N   0  0  0  0  0  0  0  0  0  0  0  0
    4.6380    1.6680   18.9110 C   0  0  0  0  0  0  0  0  0  0  0  0
    8.6460    3.2310   23.1870 C   0  0  0  0  0  0  0  0  0  0  0  0
   10.9650   -1.6720   23.6370 C   0  0  0  0  0  0  0  0  0  0  0  0
   12.3600   -1.9210   24.0720 C   0  0  2  0  0  0  0  0  0  0  0  0
    5.2250    1.2130   17.7550 C   0  0  0  0  0  0  0  0  0  0  0  0
    9.9730    3.1320   23.5990 C   0  0  0  0  0  0  0  0  0  0  0  0
    8.0770    4.5020   22.9740 C   0  0  0  0  0  0  0  0  0  0  0  0
   12.4060   -2.7640   25.2060 O   0  0  0  0  0  0  0  0  0  0  0  0
   10.6680    1.8310   23.8480 C   0  0  0  0  0  0  0  0  0  0  0  0
   12.9030   -0.7110   24.4160 C   0  0  0  0  0  0  0  0  0  0  0  0
   10.6840    4.3050   23.7920 C   0  0  0  0  0  0  0  0  0  0  0  0
    8.7620    5.7210   23.1610 C   0  0  0  0  0  0  0  0  0  0  0  0
   13.7300   -3.0040   25.5860 C   0  0  0  0  0  0  0  0  0  0  0  0
   10.0930    5.6760   23.5840 C   0  0  0  0  0  0  0  0  0  0  0  0
   10.8480    6.8030   23.8080 O   0  0  0  0  0  0  0  0  0  0  0  0
   11.8340    6.7030   24.8370 C   0  0  0  0  0  0  0  0  0  0  0  0
  1  2  1  0
  2  3  1  0
  2  4  2  0
  5  3  1  6
  5  6  1  0
  5  7  1  0
  7  8  1  6
  6  9  1  0
  6 10  2  0
  7 11  1  0
  7 12  1  0
 10 12  1  0
  9 13  1  0
  9 14  2  0
 10 15  2  0
 10 16  1  1
 11 17  1  0
 12 18  1  0
 17 19  1  6
 17 20  1  0
 16 21  2  0
 16 22  1  0
 17 23  1  0
 18 23  1  0
 19 24  2  3
 21 25  1  0
 20 26  1  0
 22 27  2  0
 21 28  1  0
 26 29  1  0
 27 30  1  0
 28 30  2  0
 29 31  1  0
 29 32  1  0
 31 33  1  6
 31 34  1  0
 32 35  2  0
 32 36  1  0
 33 37  1  0
 33 38  2  0
 34 39  2  0
 34 40  1  0
 35 41  1  0
 36 42  2  0
 40 43  2  0
 39 44  1  0
 37 45  1  0
 41 46  2  0
 42 46  1  0
 46 47  1  0
 43 48  1  0
 44 48  2  0
 45 49  2  0
 45 50  1  0
 47 51  1  0
 49 52  1  0
 47 53  1  1
 49 54  1  0
 50 55  2  0
 51 56  1  0
 54 57  2  0
 55 57  1  0
 57 58  1  0
 58 59  1  0
M  END
