x0981-x2705-x3115-x1308
     RDKit          3D

 68 73  0  0  0  0  0  0  0  0999 V2000
    1.2160   -8.7010   21.4080 C   0  0  0  0  0  0  0  0  0  0  0  0
    1.4790   -7.4410   22.1910 C   0  0  0  0  0  0  0  0  0  0  0  0
    2.7290   -7.3710   22.7780 N   0  0  0  0  0  0  0  0  0  0  0  0
    0.6310   -6.5530   22.2650 O   0  0  0  0  0  0  0  0  0  0  0  0
    3.1930   -6.1410   23.4490 C   0  0  1  0  0  0  0  0  0  0  0  0
    2.6440   -6.2050   24.8510 C   0  0  1  0  0  0  0  0  0  0  0  0
    4.7760   -5.9980   23.2930 C   0  0  2  0  0  0  0  0  0  0  0  0
    2.9560   -7.4540   25.4270 C   0  0  0  0  0  0  0  0  0  0  0  0
    5.7420   -5.7240   24.4380 N   0  0  0  0  0  0  0  0  0  0  0  0
    4.8870   -4.9050   22.2240 C   0  0  0  0  0  0  0  0  0  0  0  0
    2.9160   -4.8820   25.5980 C   0  0  0  0  0  0  0  0  0  0  0  0
    2.3000   -7.7820   26.5650 N   0  0  0  0  0  0  0  0  0  0  0  0
    3.7600   -8.2080   24.8880 O   0  0  0  0  0  0  0  0  0  0  0  0
    5.3770   -5.6770   26.0830 S   0  0  0  0  0  0  0  0  0  0  0  0
    6.2420   -4.2990   21.7250 C   0  0  1  0  0  0  0  0  0  0  0  0
    6.5330   -4.5750   24.1290 C   0  0  2  0  0  0  0  0  0  0  0  0
    1.8350   -3.9820   25.6440 C   0  0  0  0  0  0  0  0  0  0  0  0
    4.0890   -4.4590   26.2090 C   0  0  0  0  0  0  0  0  0  0  0  0
    5.4980   -3.6300   24.2510 O   0  0  0  0  0  0  0  0  0  0  0  0
    6.5270   -4.9090   20.2900 C   0  0  0  0  0  0  0  0  0  0  0  0
    5.9080   -2.7400   21.5800 C   0  0  0  0  0  0  0  0  0  0  0  0
    6.5410   -5.1210   26.7360 O   0  0  0  0  0  0  0  0  0  0  0  0
    4.8790   -6.9520   26.5200 O   0  0  0  0  0  0  0  0  0  0  0  0
    7.1440   -4.6340   22.7060 C   0  0  0  0  0  0  0  0  0  0  0  0
    4.2720   -3.2160   26.8500 C   0  0  0  0  0  0  0  0  0  0  0  0
    1.9240   -2.6800   26.2840 C   0  0  0  0  0  0  0  0  0  0  0  0
    5.7650   -6.1610   19.8970 C   0  0  0  0  0  0  0  0  0  0  0  0
    6.1710   -1.9170   22.7000 C   0  0  0  0  0  0  0  0  0  0  0  0
    0.5990   -1.5850   26.3430 Cl  0  0  0  0  0  0  0  0  0  0  0  0
    3.1900   -2.3540   26.8730 C   0  0  0  0  0  0  0  0  0  0  0  0
    7.0840   -0.7780   22.4520 N   0  0  0  0  0  0  0  0  0  0  0  0
    6.4530    0.4550   22.1000 C   0  0  1  0  0  0  0  0  0  0  0  0
    8.5190   -1.0500   22.9210 C   0  0  0  0  0  0  0  0  0  0  0  0
    7.2110    1.6970   22.2520 C   0  0  0  0  0  0  0  0  0  0  0  0
    5.7080    0.5630   20.6800 C   0  0  0  0  0  0  0  0  0  0  0  0
    8.8640   -1.4020   24.1640 N   0  0  0  0  0  0  0  0  0  0  0  0
    9.7740   -1.0180   22.2310 C   0  0  0  0  0  0  0  0  0  0  0  0
    7.3900    2.3810   23.4690 N   0  0  0  0  0  0  0  0  0  0  0  0
    7.8280    2.3030   21.0520 N   0  0  0  0  0  0  0  0  0  0  0  0
    4.5230    1.2450   20.5000 C   0  0  0  0  0  0  0  0  0  0  0  0
    6.1820    0.0030   19.3410 C   0  0  0  0  0  0  0  0  0  0  0  0
   10.2170   -1.5470   24.1570 N   0  0  0  0  0  0  0  0  0  0  0  0
   10.8580   -1.3190   22.9550 C   0  0  0  0  0  0  0  0  0  0  0  0
   12.3530   -1.4000   22.6140 C   0  0  0  0  0  0  0  0  0  0  0  0
    7.5070    1.4160   20.1570 N   0  0  0  0  0  0  0  0  0  0  0  0
    6.0010   -0.1350   18.0890 N   0  0  0  0  0  0  0  0  0  0  0  0
    4.1610    1.2010   19.0940 C   0  0  0  0  0  0  0  0  0  0  0  0
    8.1660    3.6330   23.3190 C   0  0  0  0  0  0  0  0  0  0  0  0
   12.9980   -0.1640   22.7290 C   0  0  0  0  0  0  0  0  0  0  0  0
   12.9670   -2.3670   23.5530 C   0  0  0  0  0  0  0  0  0  0  0  0
   12.5790   -1.9890   21.4010 C   0  0  0  0  0  0  0  0  0  0  0  0
    8.1480    0.4740   20.7610 C   0  0  0  0  0  0  0  0  0  0  0  0
    4.8690    0.5590   18.0170 C   0  0  0  0  0  0  0  0  0  0  0  0
    9.5210    3.4920   23.6220 C   0  0  0  0  0  0  0  0  0  0  0  0
    7.5540    4.9500   22.8560 C   0  0  0  0  0  0  0  0  0  0  0  0
   10.2270    2.2120   24.0460 C   0  0  0  0  0  0  0  0  0  0  0  0
    6.0990    5.0880   22.4950 C   0  0  0  0  0  0  0  0  0  0  0  0
    9.0040    0.9540   21.8740 N   0  0  0  0  0  0  0  0  0  0  0  0
    7.9830   -0.8580   20.3090 C   0  0  0  0  0  0  0  0  0  0  0  0
   10.3410    4.6170   23.5250 C   0  0  0  0  0  0  0  0  0  0  0  0
    8.4520    6.0200   22.7860 C   0  0  0  0  0  0  0  0  0  0  0  0
   12.7480   -2.1610   25.0210 C   0  0  0  0  0  0  0  0  0  0  0  0
    9.3610    1.4230   24.7850 C   0  0  0  0  0  0  0  0  0  0  0  0
    8.6160   -1.9910   20.9070 N   0  0  0  0  0  0  0  0  0  0  0  0
    9.8030    5.8460   23.1180 C   0  0  0  0  0  0  0  0  0  0  0  0
   13.8610   -2.6050   25.6760 C   0  0  0  0  0  0  0  0  0  0  0  0
   11.6730   -3.2160   25.3840 C   0  0  0  0  0  0  0  0  0  0  0  0
   12.3490   -0.8790   25.2960 C   0  0  0  0  0  0  0  0  0  0  0  0
  1  2  1  0
  2  3  1  0
  2  4  2  0
  5  3  1  6
  5  6  1  0
  5  7  1  0
  6  8  1  1
  7  9  1  0
  7 10  1  6
  6 11  1  0
  8 12  1  0
  8 13  2  0
  9 14  1  0
 10 15  1  0
  9 16  1  0
 11 17  2  0
 11 18  1  0
 14 18  1  0
 16 19  1  6
 15 20  1  6
 15 21  1  0
 14 22  2  0
 14 23  2  0
 15 24  1  0
 16 24  1  0
 18 25  2  0
 17 26  1  0
 20 27  2  3
 21 28  1  0
 26 29  1  0
 25 30  1  0
 26 30  2  0
 28 31  1  0
 31 32  1  0
 31 33  1  0
 32 34  1  6
 32 35  1  0
 33 36  2  0
 33 37  1  0
 34 38  1  0
 34 39  2  3
 35 40  2  0
 35 41  1  0
 36 42  1  0
 37 43  2  0
 42 43  1  0
 43 44  1  0
 39 45  1  0
 41 46  2  0
 40 47  1  0
 38 48  1  0
 44 49  1  0
 44 50  1  0
 44 51  1  0
 45 52  2  3
 46 53  1  0
 47 53  2  0
 48 54  2  0
 48 55  1  0
 54 56  1  0
 55 57  1  0
 52 58  1  0
 52 59  1  0
 54 60  1  0
 55 61  2  0
 62 50  1  0
 56 63  1  0
 59 64  1  0
 60 65  2  0
 61 65  1  0
 62 66  1  0
 62 67  1  0
 62 68  1  0
M  END
