x0981-x0755-x3110-x3113-x0946
     RDKit          3D

 64 68  0  0  0  0  0  0  0  0999 V2000
    7.8340    2.3680   23.0520 N   0  0  0  0  0  0  0  0  0  0  0  0
    8.7490    2.4980   24.2220 C   0  0  0  0  0  0  0  0  0  0  0  0
   10.1920    2.5700   23.7410 C   0  0  0  0  0  0  0  0  0  0  0  0
    7.9940    1.4110   21.9520 C   0  0  0  0  0  0  0  0  0  0  0  0
    8.9260    1.3580   21.1460 O   0  0  0  0  0  0  0  0  0  0  0  0
    6.8310    0.4410   21.7530 C   0  0  2  0  0  0  0  0  0  0  0  0
    7.0060   -0.9790   22.1120 N   0  0  0  0  0  0  0  0  0  0  0  0
    6.2090    0.6950   20.4040 C   0  0  0  0  0  0  0  0  0  0  0  0
   10.9740    3.6440   23.4860 C   0  0  0  0  0  0  0  0  0  0  0  0
   10.7790    1.3310   23.5410 C   0  0  0  0  0  0  0  0  0  0  0  0
   10.3580    5.0480   23.6540 C   0  0  0  0  0  0  0  0  0  0  0  0
    6.1860   -1.9110   21.3080 C   0  0  0  0  0  0  0  0  0  0  0  0
    4.9300    1.5470   20.2520 C   0  0  0  0  0  0  0  0  0  0  0  0
    6.8180    0.1620   19.3210 C   0  0  0  0  0  0  0  0  0  0  0  0
    8.3430   -1.2560   22.5230 C   0  0  0  0  0  0  0  0  0  0  0  0
   12.2280    1.1100   23.0620 C   0  0  0  0  0  0  0  0  0  0  0  0
   12.3730    3.5970   23.0510 C   0  0  0  0  0  0  0  0  0  0  0  0
   13.2220    4.8070   22.8220 C   0  0  0  0  0  0  0  0  0  0  0  0
    9.1410    5.0520   23.0640 N   0  0  0  0  0  0  0  0  0  0  0  0
   10.4080    5.4340   24.8170 O   0  0  0  0  0  0  0  0  0  0  0  0
   11.0290    5.9870   22.9090 O   0  0  0  0  0  0  0  0  0  0  0  0
    5.6310   -3.1760   22.0370 C   0  0  0  0  0  0  0  0  0  0  0  0
    6.4000    0.3170   18.0330 N   0  0  0  0  0  0  0  0  0  0  0  0
    4.4550    1.7360   18.8810 C   0  0  0  0  0  0  0  0  0  0  0  0
    9.3760   -1.4590   21.6240 C   0  0  0  0  0  0  0  0  0  0  0  0
    8.5900   -1.2900   23.8480 C   0  0  0  0  0  0  0  0  0  0  0  0
   12.9820    2.3900   22.8400 C   0  0  0  0  0  0  0  0  0  0  0  0
   13.1680    5.2190   21.4130 C   0  0  0  0  0  0  0  0  0  0  0  0
    5.2050    1.1170   17.7790 C   0  0  0  0  0  0  0  0  0  0  0  0
   10.6990   -1.6900   22.0120 C   0  0  0  0  0  0  0  0  0  0  0  0
    9.9690   -1.5240   24.3780 C   0  0  0  0  0  0  0  0  0  0  0  0
    6.2140   -4.6390   21.8290 C   0  0  1  0  0  0  0  0  0  0  0  0
    6.4360   -4.9380   20.2820 C   0  0  0  0  0  0  0  0  0  0  0  0
   11.0250   -1.7160   23.5050 C   0  0  0  0  0  0  0  0  0  0  0  0
    7.3000   -4.8750   22.6680 C   0  0  0  0  0  0  0  0  0  0  0  0
    5.1750   -5.7050   22.2430 C   0  0  0  0  0  0  0  0  0  0  0  0
   12.4390   -1.9350   24.0500 C   0  0  0  0  0  0  0  0  0  0  0  0
    5.7420   -6.2080   19.7990 C   0  0  0  0  0  0  0  0  0  0  0  0
    7.0570   -4.7730   24.0470 C   0  0  0  0  0  0  0  0  0  0  0  0
    4.6020   -5.3520   23.4440 C   0  0  1  0  0  0  0  0  0  0  0  0
   12.7320   -0.9640   24.9370 C   0  0  0  0  0  0  0  0  0  0  0  0
   13.4140   -2.2660   22.9750 C   0  0  0  0  0  0  0  0  0  0  0  0
   12.3730   -2.9520   24.8580 C   0  0  0  0  0  0  0  0  0  0  0  0
    3.3610   -6.2930   23.8410 C   0  0  1  0  0  0  0  0  0  0  0  0
    5.6920   -5.2010   24.4810 N   0  0  0  0  0  0  0  0  0  0  0  0
    2.9280   -7.0780   22.7740 N   0  0  0  0  0  0  0  0  0  0  0  0
    3.5620   -6.8900   25.0580 C   0  0  0  0  0  0  0  0  0  0  0  0
    5.1590   -4.7570   26.0550 S   0  0  0  0  0  0  0  0  0  0  0  0
    1.5390   -7.2540   22.2770 C   0  0  0  0  0  0  0  0  0  0  0  0
    2.8130   -8.1380   25.4420 C   0  0  0  0  0  0  0  0  0  0  0  0
    6.1550   -3.9100   26.5520 O   0  0  0  0  0  0  0  0  0  0  0  0
    4.9580   -6.0500   26.9340 O   0  0  0  0  0  0  0  0  0  0  0  0
    3.7200   -3.7000   25.9820 C   0  0  0  0  0  0  0  0  0  0  0  0
    1.2720   -8.5000   21.6950 C   0  0  0  0  0  0  0  0  0  0  0  0
    0.5620   -6.2190   22.3630 O   0  0  0  0  0  0  0  0  0  0  0  0
    2.0220   -8.1580   26.4930 N   0  0  0  0  0  0  0  0  0  0  0  0
    2.9470   -9.1400   24.8010 O   0  0  0  0  0  0  0  0  0  0  0  0
    2.3510   -4.0510   25.9620 C   0  0  0  0  0  0  0  0  0  0  0  0
    4.1550   -2.2200   25.9550 C   0  0  0  0  0  0  0  0  0  0  0  0
    1.9120   -5.3090   25.9920 F   0  0  0  0  0  0  0  0  0  0  0  0
    5.4320   -1.8220   25.9780 F   0  0  0  0  0  0  0  0  0  0  0  0
    3.0560   -1.1610   25.9060 C   0  0  0  0  0  0  0  0  0  0  0  0
    1.3480   -3.0840   25.9150 C   0  0  0  0  0  0  0  0  0  0  0  0
    1.7370   -1.6120   25.8900 C   0  0  0  0  0  0  0  0  0  0  0  0
  1  2  1  0
  2  3  1  0
  1  4  1  0
  4  5  2  0
  6  4  1  6
  6  7  1  0
  6  8  1  0
  3  9  2  0
  3 10  1  0
  9 11  1  0
  7 12  1  0
  8 13  2  0
  8 14  1  0
  7 15  1  0
 10 16  2  0
  9 17  1  0
 17 18  1  0
 11 19  1  0
 11 20  1  0
 11 21  1  0
 12 22  1  0
 14 23  2  0
 13 24  1  0
 15 25  2  0
 15 26  1  0
 16 27  1  0
 17 27  2  0
 18 28  1  0
 23 29  1  0
 24 29  2  0
 25 30  1  0
 26 31  2  0
 32 22  1  6
 32 33  1  0
 30 34  2  0
 31 34  1  0
 32 35  1  0
 32 36  1  0
 34 37  1  0
 33 38  2  3
 35 39  1  0
 40 36  1  6
 37 41  1  0
 37 42  1  0
 37 43  1  0
 40 44  1  0
 39 45  1  0
 40 45  1  0
 44 46  1  0
 44 47  1  1
 45 48  1  0
 46 49  1  0
 47 50  1  0
 48 51  2  0
 48 52  2  0
 48 53  1  0
 49 54  1  0
 49 55  2  0
 50 56  1  0
 50 57  2  0
 53 58  2  0
 53 59  1  0
 58 60  1  0
 59 61  1  0
 59 62  2  0
 58 63  1  0
 62 64  1  0
 63 64  2  0
M  END
