x0981-x0978-x0426-x2694
     RDKit          3D

 60 63  0  0  0  0  0  0  0  0999 V2000
    1.0050   -8.4540   21.6970 C   0  0  0  0  0  0  0  0  0  0  0  0
    1.1370   -7.0880   22.3330 C   0  0  0  0  0  0  0  0  0  0  0  0
    2.4680   -6.9330   22.7390 N   0  0  0  0  0  0  0  0  0  0  0  0
    0.6320   -6.1570   21.7380 O   0  0  0  0  0  0  0  0  0  0  0  0
    0.2800   -6.9130   23.6300 C   0  0  0  0  0  0  0  0  0  0  0  0
    2.8540   -5.9240   23.7210 C   0  0  1  0  0  0  0  0  0  0  0  0
    2.7590   -6.4070   25.1680 C   0  0  0  0  0  0  0  0  0  0  0  0
    4.2340   -5.2550   23.4390 C   0  0  0  0  0  0  0  0  0  0  0  0
    5.0260   -5.6450   22.2530 N   0  0  0  0  0  0  0  0  0  0  0  0
    4.6640   -4.3900   24.1980 O   0  0  0  0  0  0  0  0  0  0  0  0
    3.0960   -7.7260   25.3600 C   0  0  0  0  0  0  0  0  0  0  0  0
    2.4100   -8.3860   26.3640 N   0  0  0  0  0  0  0  0  0  0  0  0
    3.9590   -8.1990   24.6460 O   0  0  0  0  0  0  0  0  0  0  0  0
    5.9370   -4.6340   21.6590 C   0  0  2  0  0  0  0  0  0  0  0  0
    6.3430   -5.0380   20.2420 C   0  0  0  0  0  0  0  0  0  0  0  0
    7.1100   -4.4570   22.6400 C   0  0  0  0  0  0  0  0  0  0  0  0
    5.7930   -6.1620   19.8370 C   0  0  0  0  0  0  0  0  0  0  0  0
    7.7360   -3.1940   22.6460 C   0  0  0  0  0  0  0  0  0  0  0  0
    6.8500   -2.0660   22.0040 C   0  0  0  0  0  0  0  0  0  0  0  0
    7.5850   -0.9300   21.9090 N   0  0  0  0  0  0  0  0  0  0  0  0
    6.9350    0.4430   21.7860 C   0  0  1  0  0  0  0  0  0  0  0  0
    8.7530   -1.0450   22.6220 C   0  0  0  0  0  0  0  0  0  0  0  0
    7.8170    1.5260   21.9480 C   0  0  0  0  0  0  0  0  0  0  0  0
    6.2050    0.6390   20.4540 C   0  0  0  0  0  0  0  0  0  0  0  0
    8.7970   -1.0970   23.9550 N   0  0  0  0  0  0  0  0  0  0  0  0
    9.9930   -1.1360   22.0530 C   0  0  0  0  0  0  0  0  0  0  0  0
    7.5590    2.5460   22.7830 N   0  0  0  0  0  0  0  0  0  0  0  0
    8.9460    1.4990   21.0760 O   0  0  0  0  0  0  0  0  0  0  0  0
    4.8720    1.3640   20.2000 C   0  0  0  0  0  0  0  0  0  0  0  0
    6.8930    0.0520   19.1770 C   0  0  0  0  0  0  0  0  0  0  0  0
   10.1650   -1.2330   24.3010 O   0  0  0  0  0  0  0  0  0  0  0  0
   10.9820   -1.2690   23.1880 C   0  0  0  0  0  0  0  0  0  0  0  0
   12.4600   -1.4070   23.2930 C   0  0  0  0  0  0  0  0  0  0  0  0
    4.0020    1.9920   21.1080 C   0  0  0  0  0  0  0  0  0  0  0  0
    6.3720    0.1850   17.9540 N   0  0  0  0  0  0  0  0  0  0  0  0
    4.4790    1.4100   18.8860 C   0  0  0  0  0  0  0  0  0  0  0  0
    8.5370    3.5780   23.0790 C   0  0  0  0  0  0  0  0  0  0  0  0
   12.9410   -0.1200   23.2920 C   0  0  0  0  0  0  0  0  0  0  0  0
   12.9600   -2.0690   21.9980 C   0  0  0  0  0  0  0  0  0  0  0  0
   12.8260   -2.1910   24.3350 C   0  0  0  0  0  0  0  0  0  0  0  0
    4.2500    1.7930   22.6040 C   0  0  0  0  0  0  0  0  0  0  0  0
    5.2040    0.8530   17.8540 C   0  0  0  0  0  0  0  0  0  0  0  0
    9.8820    3.3140   23.2630 C   0  0  0  0  0  0  0  0  0  0  0  0
    8.0190    4.8750   23.1750 C   0  0  0  0  0  0  0  0  0  0  0  0
   10.4990    1.9380   23.1440 C   0  0  0  0  0  0  0  0  0  0  0  0
    3.2380    2.4850   23.2000 N   0  0  0  0  0  0  0  0  0  0  0  0
   10.8550    4.4370   23.6070 C   0  0  0  0  0  0  0  0  0  0  0  0
    8.9460    6.0590   23.5120 C   0  0  0  0  0  0  0  0  0  0  0  0
    2.4960    1.9260   24.2840 C   0  0  0  0  0  0  0  0  0  0  0  0
   10.2580    5.8780   23.7220 C   0  0  0  0  0  0  0  0  0  0  0  0
   11.1550    6.8520   24.0380 O   0  0  0  0  0  0  0  0  0  0  0  0
    2.7980    0.8980   24.8570 O   0  0  0  0  0  0  0  0  0  0  0  0
    1.3090    2.6610   24.7570 C   0  0  0  0  0  0  0  0  0  0  0  0
   11.8970    6.6140   25.2330 C   0  0  0  0  0  0  0  0  0  0  0  0
    1.4720    4.0340   25.3480 C   0  0  0  0  0  0  0  0  0  0  0  0
    0.0550    2.0950   24.6680 C   0  0  0  0  0  0  0  0  0  0  0  0
    2.6900    4.5890   25.4370 F   0  0  0  0  0  0  0  0  0  0  0  0
   -1.0390    2.8060   25.1310 C   0  0  0  0  0  0  0  0  0  0  0  0
    0.3720    4.7510   25.8160 C   0  0  0  0  0  0  0  0  0  0  0  0
   -0.9150    4.2050   25.7430 C   0  0  0  0  0  0  0  0  0  0  0  0
  1  2  1  0
  2  3  1  0
  2  4  1  0
  2  5  1  0
  3  6  1  0
  6  7  1  1
  6  8  1  0
  8  9  1  0
  8 10  2  0
  7 11  1  0
 11 12  1  0
 11 13  2  0
  9 14  1  0
 14 15  1  6
 14 16  1  0
 15 17  2  3
 16 18  1  0
 18 19  1  0
 19 20  1  0
 20 21  1  0
 20 22  1  0
 21 23  1  6
 21 24  1  0
 22 25  2  0
 22 26  1  0
 23 27  1  0
 23 28  2  0
 24 29  1  0
 24 30  2  0
 25 31  1  0
 26 32  2  0
 31 32  1  0
 32 33  1  0
 29 34  1  0
 30 35  1  0
 29 36  2  0
 27 37  1  0
 33 38  1  0
 33 39  1  0
 33 40  1  0
 34 41  1  0
 35 42  2  0
 36 42  1  0
 37 43  2  0
 37 44  1  0
 43 45  1  0
 41 46  1  0
 43 47  1  0
 44 48  2  0
 46 49  1  0
 47 50  2  0
 48 50  1  0
 50 51  1  0
 49 52  2  0
 49 53  1  0
 51 54  1  0
 53 55  2  0
 53 56  1  0
 55 57  1  0
 56 58  2  0
 55 59  1  0
 58 60  1  0
 59 60  2  0
M  END
