x0981-x0426-x2705
     RDKit          3D

 59 62  0  0  0  0  0  0  0  0999 V2000
    1.3220   -8.7700   21.2740 C   0  0  0  0  0  0  0  0  0  0  0  0
    1.5130   -7.5450   22.1360 C   0  0  0  0  0  0  0  0  0  0  0  0
    2.7590   -7.3890   22.7330 N   0  0  0  0  0  0  0  0  0  0  0  0
    0.6030   -6.7270   22.2710 O   0  0  0  0  0  0  0  0  0  0  0  0
    3.0630   -6.1080   23.3830 C   0  0  1  0  0  0  0  0  0  0  0  0
    2.6950   -6.2590   24.8560 C   0  0  0  0  0  0  0  0  0  0  0  0
    4.5730   -5.6340   23.2780 C   0  0  0  0  0  0  0  0  0  0  0  0
    5.3390   -5.7770   22.1390 N   0  0  0  0  0  0  0  0  0  0  0  0
    5.0930   -5.0670   24.2400 O   0  0  0  0  0  0  0  0  0  0  0  0
    3.1220   -7.6340   25.2690 C   0  0  0  0  0  0  0  0  0  0  0  0
    2.4540   -8.2190   26.4270 N   0  0  0  0  0  0  0  0  0  0  0  0
    3.9850   -8.2250   24.6610 O   0  0  0  0  0  0  0  0  0  0  0  0
    6.2270   -4.7340   21.5650 C   0  0  1  0  0  0  0  0  0  0  0  0
    6.8200   -5.2260   20.2940 C   0  0  0  0  0  0  0  0  0  0  0  0
    5.3430   -3.5680   21.1270 C   0  0  0  0  0  0  0  0  0  0  0  0
    5.9320   -6.2460   19.6940 C   0  0  0  0  0  0  0  0  0  0  0  0
    5.7180   -2.2360   21.1830 C   0  0  0  0  0  0  0  0  0  0  0  0
    6.8170   -2.0090   21.9740 C   0  0  0  0  0  0  0  0  0  0  0  0
    7.5660   -0.9680   21.7830 N   0  0  0  0  0  0  0  0  0  0  0  0
    6.9110    0.2330   21.7010 C   0  0  1  0  0  0  0  0  0  0  0  0
    8.6980   -1.0970   22.6950 C   0  0  0  0  0  0  0  0  0  0  0  0
    7.8620    1.2590   21.7910 C   0  0  0  0  0  0  0  0  0  0  0  0
    6.2110    0.5080   20.3760 C   0  0  0  0  0  0  0  0  0  0  0  0
    8.7610   -1.1920   24.0300 N   0  0  0  0  0  0  0  0  0  0  0  0
    9.9710   -1.1580   22.2300 C   0  0  0  0  0  0  0  0  0  0  0  0
    7.5030    2.1580   22.7500 N   0  0  0  0  0  0  0  0  0  0  0  0
    8.9820    1.4110   21.0380 O   0  0  0  0  0  0  0  0  0  0  0  0
    4.9700    1.1460   20.1950 C   0  0  0  0  0  0  0  0  0  0  0  0
    6.8610    0.0940   19.2190 C   0  0  0  0  0  0  0  0  0  0  0  0
   10.1000   -1.3030   24.3020 N   0  0  0  0  0  0  0  0  0  0  0  0
   10.9240   -1.2870   23.1860 C   0  0  0  0  0  0  0  0  0  0  0  0
   12.4610   -1.3930   23.2310 C   0  0  0  0  0  0  0  0  0  0  0  0
    4.0050    1.6990   21.2240 C   0  0  0  0  0  0  0  0  0  0  0  0
    6.4060    0.2740   17.9670 N   0  0  0  0  0  0  0  0  0  0  0  0
    4.4870    1.3380   18.9150 C   0  0  0  0  0  0  0  0  0  0  0  0
    8.2780    3.3800   22.9360 C   0  0  0  0  0  0  0  0  0  0  0  0
   12.9080   -0.1300   23.5930 C   0  0  0  0  0  0  0  0  0  0  0  0
   12.8850   -2.4160   24.3180 C   0  0  0  0  0  0  0  0  0  0  0  0
   12.9180   -1.8490   22.0440 C   0  0  0  0  0  0  0  0  0  0  0  0
    4.3060    1.6710   22.5870 C   0  0  0  0  0  0  0  0  0  0  0  0
    5.2350    0.8950   17.8580 C   0  0  0  0  0  0  0  0  0  0  0  0
    9.5750    3.3940   23.4950 C   0  0  0  0  0  0  0  0  0  0  0  0
    7.6710    4.5580   22.5250 C   0  0  0  0  0  0  0  0  0  0  0  0
   10.2250    2.2890   23.9060 C   0  0  0  0  0  0  0  0  0  0  0  0
    6.3200    4.7260   21.9110 C   0  0  0  0  0  0  0  0  0  0  0  0
    3.2550    2.5160   23.1440 N   0  0  0  0  0  0  0  0  0  0  0  0
   10.2300    4.6360   23.6300 C   0  0  0  0  0  0  0  0  0  0  0  0
    8.3280    5.7200   22.6700 C   0  0  0  0  0  0  0  0  0  0  0  0
    9.2510    1.5330   24.8310 C   0  0  0  0  0  0  0  0  0  0  0  0
    2.2080    1.7630   23.8380 C   0  0  0  0  0  0  0  0  0  0  0  0
    9.6050    5.8200   23.2150 C   0  0  0  0  0  0  0  0  0  0  0  0
    2.1550    0.3440   23.8690 O   0  0  0  0  0  0  0  0  0  0  0  0
    1.1710    2.5420   24.5330 C   0  0  0  0  0  0  0  0  0  0  0  0
    1.5270    3.8540   25.2370 C   0  0  0  0  0  0  0  0  0  0  0  0
   -0.1430    2.1040   24.5680 C   0  0  0  0  0  0  0  0  0  0  0  0
    2.7700    4.3490   25.2530 F   0  0  0  0  0  0  0  0  0  0  0  0
   -1.1250    2.8370   25.2270 C   0  0  0  0  0  0  0  0  0  0  0  0
    0.5060    4.5430   25.8780 C   0  0  0  0  0  0  0  0  0  0  0  0
   -0.7960    4.0470   25.8750 C   0  0  0  0  0  0  0  0  0  0  0  0
  1  2  1  0
  2  3  1  0
  2  4  2  0
  3  5  1  0
  5  6  1  1
  5  7  1  0
  7  8  1  0
  7  9  2  0
  6 10  1  0
 10 11  1  0
 10 12  2  0
  8 13  1  0
 13 14  1  6
 13 15  1  0
 14 16  2  3
 15 17  1  0
 17 18  1  0
 18 19  1  0
 19 20  1  0
 19 21  1  0
 20 22  1  6
 20 23  1  0
 21 24  2  0
 21 25  1  0
 22 26  1  0
 22 27  2  0
 23 28  1  0
 23 29  2  0
 24 30  1  0
 25 31  2  0
 30 31  1  0
 31 32  1  0
 28 33  1  0
 29 34  1  0
 28 35  2  0
 26 36  1  0
 32 37  1  0
 32 38  1  0
 32 39  1  0
 33 40  1  0
 34 41  2  0
 35 41  1  0
 36 42  2  0
 36 43  1  0
 42 44  1  0
 43 45  1  0
 40 46  1  0
 42 47  1  0
 43 48  2  0
 44 49  1  0
 46 50  1  0
 47 51  2  0
 48 51  1  0
 50 52  2  0
 50 53  1  0
 53 54  2  0
 53 55  1  0
 54 56  1  0
 55 57  2  0
 54 58  1  0
 57 59  1  0
 58 59  2  0
M  END
