x0981-x3110-x0161-x3115
     RDKit          3D

 54 56  0  0  0  0  0  0  0  0999 V2000
    7.9530    1.5820   23.2730 N   0  0  0  0  0  0  0  0  0  0  0  0
    8.5590    2.9060   23.1780 C   0  0  1  0  0  0  0  0  0  0  0  0
    7.9280    4.0100   24.0300 C   0  0  0  0  0  0  0  0  0  0  0  0
    7.8730    1.0080   21.9720 C   0  0  0  0  0  0  0  0  0  0  0  0
    8.6580    1.3610   21.0730 O   0  0  0  0  0  0  0  0  0  0  0  0
    6.7200   -0.0110   21.7700 C   0  0  2  0  0  0  0  0  0  0  0  0
   10.0650    2.7970   23.1460 C   0  0  0  0  0  0  0  0  0  0  0  0
    7.1060   -1.4350   22.0730 N   0  0  0  0  0  0  0  0  0  0  0  0
    8.3220    5.2710   23.5960 O   0  0  0  0  0  0  0  0  0  0  0  0
    6.2330    0.3510   20.3830 C   0  0  0  0  0  0  0  0  0  0  0  0
   10.9890    3.8260   23.2960 C   0  0  0  0  0  0  0  0  0  0  0  0
   10.6410    1.4110   22.8800 C   0  0  0  0  0  0  0  0  0  0  0  0
   10.6530    5.2790   23.6330 C   0  0  0  0  0  0  0  0  0  0  0  0
    7.8450    5.7040   22.3180 C   0  0  0  0  0  0  0  0  0  0  0  0
    6.2070   -2.3520   22.6610 C   0  0  0  0  0  0  0  0  0  0  0  0
    5.1090    1.2010   20.3150 C   0  0  0  0  0  0  0  0  0  0  0  0
    6.8310   -0.0840   19.2390 C   0  0  0  0  0  0  0  0  0  0  0  0
    8.3900   -1.5610   22.6250 C   0  0  0  0  0  0  0  0  0  0  0  0
   12.0040    1.2250   22.7630 C   0  0  0  0  0  0  0  0  0  0  0  0
   12.3140    3.5630   23.1310 C   0  0  0  0  0  0  0  0  0  0  0  0
   13.2920    4.7090   23.2190 C   0  0  0  0  0  0  0  0  0  0  0  0
   11.0630    6.2570   23.0160 O   0  0  0  0  0  0  0  0  0  0  0  0
    9.9720    5.6050   24.6110 O   0  0  0  0  0  0  0  0  0  0  0  0
    5.5300   -3.2550   21.8100 C   0  0  0  0  0  0  0  0  0  0  0  0
    6.4080    0.2670   17.8900 N   0  0  0  0  0  0  0  0  0  0  0  0
    4.6120    1.6050   19.0850 C   0  0  0  0  0  0  0  0  0  0  0  0
    9.3580   -1.9180   21.7440 C   0  0  0  0  0  0  0  0  0  0  0  0
    8.7550   -1.3350   24.0560 C   0  0  0  0  0  0  0  0  0  0  0  0
   12.7650    2.3190   22.8830 C   0  0  0  0  0  0  0  0  0  0  0  0
   13.2130    5.4510   21.9230 C   0  0  0  0  0  0  0  0  0  0  0  0
    6.0460   -4.5660   21.7170 C   0  0  1  0  0  0  0  0  0  0  0  0
    5.2760    1.1370   17.8000 C   0  0  0  0  0  0  0  0  0  0  0  0
   10.6780   -2.0930   22.0680 C   0  0  0  0  0  0  0  0  0  0  0  0
   10.0950   -1.5090   24.3860 C   0  0  0  0  0  0  0  0  0  0  0  0
    5.0620   -5.6020   22.2120 N   0  0  0  0  0  0  0  0  0  0  0  0
    6.3620   -4.9240   20.2610 C   0  0  0  0  0  0  0  0  0  0  0  0
   11.0950   -1.8730   23.5160 C   0  0  0  0  0  0  0  0  0  0  0  0
   12.5230   -2.0280   23.9940 C   0  0  0  0  0  0  0  0  0  0  0  0
    4.4010   -5.3190   23.3580 C   0  0  0  0  0  0  0  0  0  0  0  0
    5.7250   -6.2210   19.8000 C   0  0  0  0  0  0  0  0  0  0  0  0
   12.9670   -0.6700   24.5040 C   0  0  0  0  0  0  0  0  0  0  0  0
   13.4170   -2.3660   22.8170 C   0  0  0  0  0  0  0  0  0  0  0  0
   12.8380   -3.0250   25.0890 C   0  0  0  0  0  0  0  0  0  0  0  0
    3.0160   -5.9420   23.6080 C   0  0  1  0  0  0  0  0  0  0  0  0
    4.8940   -4.5620   24.1910 O   0  0  0  0  0  0  0  0  0  0  0  0
   13.6210   -0.0350   23.6990 O   0  0  0  0  0  0  0  0  0  0  0  0
    2.8160   -6.9870   22.7220 N   0  0  0  0  0  0  0  0  0  0  0  0
    2.8410   -6.3120   24.9590 C   0  0  0  0  0  0  0  0  0  0  0  0
    1.5710   -7.3150   22.2590 C   0  0  0  0  0  0  0  0  0  0  0  0
    3.1220   -7.6400   25.2650 C   0  0  0  0  0  0  0  0  0  0  0  0
    1.3010   -8.5500   21.6100 C   0  0  0  0  0  0  0  0  0  0  0  0
    0.6530   -6.5060   22.3840 O   0  0  0  0  0  0  0  0  0  0  0  0
    2.4770   -8.3300   26.2440 N   0  0  0  0  0  0  0  0  0  0  0  0
    3.9960   -8.1640   24.6040 O   0  0  0  0  0  0  0  0  0  0  0  0
  1  2  1  0
  2  3  1  1
  1  4  1  0
  4  5  2  0
  6  4  1  6
  2  7  1  0
  6  8  1  0
  3  9  1  0
  6 10  1  0
  7 11  2  0
  7 12  1  0
 11 13  1  0
  9 14  1  0
  8 15  1  0
 10 16  2  0
 10 17  1  0
  8 18  1  0
 12 19  2  0
 11 20  1  0
 20 21  1  0
 13 22  2  0
 13 23  1  0
 15 24  1  0
 17 25  2  0
 16 26  1  0
 18 27  2  0
 18 28  1  0
 19 29  1  0
 20 29  2  0
 21 30  1  0
 31 24  1  6
 25 32  1  0
 26 32  2  0
 27 33  1  0
 28 34  2  0
 31 35  1  0
 31 36  1  0
 33 37  2  0
 34 37  1  0
 37 38  1  0
 35 39  1  0
 36 40  2  3
 38 41  1  0
 38 42  1  0
 38 43  1  0
 39 44  1  0
 39 45  2  0
 41 46  2  0
 44 47  1  0
 44 48  1  1
 47 49  1  0
 48 50  1  0
 49 51  1  0
 49 52  2  0
 50 53  1  0
 50 54  2  0
M  END
