x0981-x2649
     RDKit          3D

 37 38  0  0  0  0  0  0  0  0999 V2000
    1.2900   -8.7250   21.3580 C   0  0  0  0  0  0  0  0  0  0  0  0
    1.4250   -7.3970   22.1610 C   0  0  0  0  0  0  0  0  0  0  0  0
    2.6570   -7.1830   22.7710 N   0  0  0  0  0  0  0  0  0  0  0  0
    0.5220   -6.5700   22.2470 O   0  0  0  0  0  0  0  0  0  0  0  0
    2.8900   -5.9140   23.5010 C   0  0  1  0  0  0  0  0  0  0  0  0
    2.5420   -6.2420   25.0100 C   0  0  0  0  0  0  0  0  0  0  0  0
    4.3310   -5.3660   23.3970 C   0  0  0  0  0  0  0  0  0  0  0  0
    5.2020   -5.6180   22.3610 N   0  0  0  0  0  0  0  0  0  0  0  0
    4.7300   -4.5830   24.3790 N   0  0  0  0  0  0  0  0  0  0  0  0
    3.0110   -7.7130   25.2810 C   0  0  0  0  0  0  0  0  0  0  0  0
    2.3240   -8.4670   26.3310 N   0  0  0  0  0  0  0  0  0  0  0  0
    3.9160   -8.1840   24.6340 O   0  0  0  0  0  0  0  0  0  0  0  0
    6.2840   -4.7630   21.8080 C   0  0  0  0  0  0  0  0  0  0  0  0
    5.9290   -3.9780   24.5100 C   0  0  0  0  0  0  0  0  0  0  0  0
    6.4270   -4.9860   20.3130 C   0  0  0  0  0  0  0  0  0  0  0  0
    6.0970   -2.4940   24.1650 C   0  0  0  0  0  0  0  0  0  0  0  0
    5.7100   -6.2180   19.8190 C   0  0  0  0  0  0  0  0  0  0  0  0
    7.3570   -2.3080   24.5910 C   0  0  0  0  0  0  0  0  0  0  0  0
    7.9110   -0.9940   24.0300 C   0  0  0  0  0  0  0  0  0  0  0  0
    8.5620   -1.1670   22.7610 C   0  0  1  0  0  0  0  0  0  0  0  0
    8.1030   -0.2270   21.6640 C   0  0  0  0  0  0  0  0  0  0  0  0
   10.0300   -0.8650   22.9120 C   0  0  0  0  0  0  0  0  0  0  0  0
    6.9160   -0.6650   20.9280 N   0  0  0  0  0  0  0  0  0  0  0  0
    8.8090    0.9210   21.4410 O   0  0  0  0  0  0  0  0  0  0  0  0
   10.5920    0.0860   23.7650 C   0  0  0  0  0  0  0  0  0  0  0  0
   10.9500   -1.6120   22.0920 C   0  0  0  0  0  0  0  0  0  0  0  0
    6.3210    0.0650   19.9550 C   0  0  0  0  0  0  0  0  0  0  0  0
   11.9650    0.3160   23.8250 C   0  0  0  0  0  0  0  0  0  0  0  0
   12.3040   -1.3670   22.1680 C   0  0  0  0  0  0  0  0  0  0  0  0
   13.2400   -2.3120   21.1380 Cl  0  0  0  0  0  0  0  0  0  0  0  0
    5.3220    0.9590   20.2840 C   0  0  0  0  0  0  0  0  0  0  0  0
    6.7330   -0.0990   18.6570 C   0  0  0  0  0  0  0  0  0  0  0  0
   12.8740   -0.4030   23.0260 C   0  0  0  0  0  0  0  0  0  0  0  0
    4.8720    1.1470   21.7020 C   0  0  0  0  0  0  0  0  0  0  0  0
    6.2320    0.5610   17.6120 N   0  0  0  0  0  0  0  0  0  0  0  0
    4.7320    1.6980   19.2470 C   0  0  0  0  0  0  0  0  0  0  0  0
    5.1650    1.5240   17.9050 C   0  0  0  0  0  0  0  0  0  0  0  0
  1  2  1  0
  2  3  1  0
  2  4  2  0
  3  5  1  0
  5  6  1  1
  5  7  1  0
  7  8  1  0
  7  9  2  3
  6 10  1  0
 10 11  1  0
 10 12  2  0
  8 13  1  0
  9 14  1  0
 13 15  1  0
 14 16  1  0
 15 17  2  3
 16 18  1  0
 18 19  1  0
 20 19  1  1
 20 21  1  0
 20 22  1  0
 21 23  1  0
 21 24  2  0
 22 25  2  0
 22 26  1  0
 23 27  1  0
 25 28  1  0
 26 29  2  0
 29 30  1  0
 27 31  2  0
 27 32  1  0
 28 33  2  0
 29 33  1  0
 31 34  1  0
 32 35  2  0
 31 36  1  0
 35 37  1  0
 36 37  2  0
M  END
