x0981-x3117-x2193-x1402-x3110
     RDKit          3D

 68 74  0  0  0  0  0  0  0  0999 V2000
    7.8210    2.2570   23.0960 N   0  0  0  0  0  0  0  0  0  0  0  0
    7.9420    1.3480   21.9740 C   0  0  0  0  0  0  0  0  0  0  0  0
    9.0160    1.4000   21.0590 O   0  0  0  0  0  0  0  0  0  0  0  0
    8.6740    3.3740   23.1130 C   0  0  2  0  0  0  0  0  0  0  0  0
    6.7820    0.3670   21.8070 C   0  0  2  0  0  0  0  0  0  0  0  0
    9.5700    3.3200   24.0830 C   0  0  1  0  0  0  0  0  0  0  0  0
    7.9650    4.5530   22.9480 C   0  0  0  0  0  0  0  0  0  0  0  0
    7.1300   -1.0090   22.2130 N   0  0  0  0  0  0  0  0  0  0  0  0
   10.2740    2.0070   24.1400 C   0  0  0  0  0  0  0  0  0  0  0  0
    6.2650    0.6080   20.4190 C   0  0  0  0  0  0  0  0  0  0  0  0
   10.5140    4.1910   23.8780 C   0  0  1  0  0  0  0  0  0  0  0  0
    8.6900    5.6670   23.2050 C   0  0  0  0  0  0  0  0  0  0  0  0
   11.6570    3.3780   23.2160 C   0  0  1  0  0  0  0  0  0  0  0  0
    6.9140   -2.0210   21.2220 C   0  0  0  0  0  0  0  0  0  0  0  0
    5.0080    1.4230   20.2240 C   0  0  0  0  0  0  0  0  0  0  0  0
    6.8460    0.1580   19.1000 C   0  0  0  0  0  0  0  0  0  0  0  0
    8.4850   -1.2210   22.7250 C   0  0  0  0  0  0  0  0  0  0  0  0
   10.0880    5.3790   23.1930 O   0  0  0  0  0  0  0  0  0  0  0  0
   11.7070    1.8950   23.5710 C   0  0  0  0  0  0  0  0  0  0  0  0
   11.7060    3.4410   22.0310 O   0  0  0  0  0  0  0  0  0  0  0  0
    5.7910   -2.8260   21.4100 C   0  0  0  0  0  0  0  0  0  0  0  0
    6.3730    0.4160   17.8670 N   0  0  0  0  0  0  0  0  0  0  0  0
    4.5440    1.6760   18.9540 C   0  0  0  0  0  0  0  0  0  0  0  0
    9.4830   -1.5210   21.8150 C   0  0  0  0  0  0  0  0  0  0  0  0
    8.7130   -1.1240   24.0230 C   0  0  0  0  0  0  0  0  0  0  0  0
   12.2840    4.6480   21.5490 C   0  0  0  0  0  0  0  0  0  0  0  0
    5.1420    1.2370   17.8010 C   0  0  0  0  0  0  0  0  0  0  0  0
   10.7470   -1.7270   22.2090 C   0  0  0  0  0  0  0  0  0  0  0  0
   10.1000   -1.3350   24.5660 C   0  0  0  0  0  0  0  0  0  0  0  0
    6.1210   -4.3560   21.6700 C   0  0  1  0  0  0  0  0  0  0  0  0
   13.6220    4.9600   22.2050 C   0  0  0  0  0  0  0  0  0  0  0  0
    6.4960   -4.9540   20.2620 C   0  0  0  0  0  0  0  0  0  0  0  0
   11.0880   -1.6270   23.6870 C   0  0  0  0  0  0  0  0  0  0  0  0
    7.0230   -4.5610   22.7230 C   0  0  0  0  0  0  0  0  0  0  0  0
    4.8220   -5.0790   22.1840 C   0  0  0  0  0  0  0  0  0  0  0  0
   12.4090   -1.8040   24.1790 C   0  0  0  0  0  0  0  0  0  0  0  0
    5.7890   -6.2110   19.8350 C   0  0  0  0  0  0  0  0  0  0  0  0
    6.2450   -4.3970   24.0240 C   0  0  1  0  0  0  0  0  0  0  0  0
    4.7370   -6.0560   23.3880 C   0  0  2  0  0  0  0  0  0  0  0  0
   12.7030   -0.5790   24.9960 C   0  0  0  0  0  0  0  0  0  0  0  0
   13.3950   -1.8850   23.0230 C   0  0  0  0  0  0  0  0  0  0  0  0
   12.6810   -3.0040   25.0890 C   0  0  0  0  0  0  0  0  0  0  0  0
    3.1160   -6.2470   23.4760 C   0  0  1  0  0  0  0  0  0  0  0  0
    5.2490   -3.4300   23.8280 O   0  0  0  0  0  0  0  0  0  0  0  0
    5.5740   -5.5660   24.5270 N   0  0  0  0  0  0  0  0  0  0  0  0
    2.7390   -7.2960   22.5650 N   0  0  0  0  0  0  0  0  0  0  0  0
    2.5730   -6.4310   24.7360 C   0  0  0  0  0  0  0  0  0  0  0  0
    5.1250   -5.4140   26.1970 S   0  0  1  0  0  0  0  0  0  0  0  0
    1.3920   -7.5240   22.0820 C   0  0  0  0  0  0  0  0  0  0  0  0
    2.8110   -7.6820   25.1660 C   0  0  0  0  0  0  0  0  0  0  0  0
    4.0970   -6.5470   26.6210 O   0  0  0  0  0  0  0  0  0  0  0  0
    6.5750   -5.2460   27.0600 N   0  0  0  0  0  0  0  0  0  0  0  0
    4.2890   -3.8210   26.2800 C   0  0  0  0  0  0  0  0  0  0  0  0
    1.1160   -8.6920   21.3940 C   0  0  0  0  0  0  0  0  0  0  0  0
    0.4910   -6.7060   22.2350 O   0  0  0  0  0  0  0  0  0  0  0  0
    2.0510   -8.3480   26.0700 N   0  0  0  0  0  0  0  0  0  0  0  0
    3.9410   -8.2680   24.6130 O   0  0  0  0  0  0  0  0  0  0  0  0
    7.7850   -5.1210   26.2640 C   0  0  2  0  0  0  0  0  0  0  0  0
    2.5390   -3.7800   26.2740 S   0  0  0  0  0  0  0  0  0  0  0  0
    4.6930   -2.5210   26.3360 C   0  0  0  0  0  0  0  0  0  0  0  0
    8.8430   -6.0350   26.5690 N   0  0  0  0  0  0  0  0  0  0  0  0
    8.3980   -3.7740   26.4700 C   0  0  0  0  0  0  0  0  0  0  0  0
    3.7140   -1.5680   26.3690 C   0  0  0  0  0  0  0  0  0  0  0  0
    2.4290   -2.0830   26.3420 C   0  0  0  0  0  0  0  0  0  0  0  0
    0.9070   -1.2960   26.3730 Cl  0  0  0  0  0  0  0  0  0  0  0  0
    9.1390   -3.4400   25.2490 N   0  0  0  0  0  0  0  0  0  0  0  0
    9.7320   -5.9000   25.5350 C   0  0  0  0  0  0  0  0  0  0  0  0
    9.6130   -4.6770   24.6100 C   0  0  0  0  0  0  0  0  0  0  0  0
  1  2  1  0
  2  3  2  0
  4  1  1  1
  5  2  1  6
  4  6  1  0
  4  7  1  0
  5  8  1  0
  6  9  1  6
  5 10  1  0
  6 11  1  0
  7 12  1  0
 11 13  1  0
  8 14  1  0
 10 15  2  0
 10 16  1  0
  8 17  1  0
 11 18  1  6
 12 18  1  0
  9 19  2  0
 13 19  1  0
 13 20  1  6
 14 21  1  0
 16 22  2  0
 15 23  1  0
 17 24  2  0
 17 25  1  0
 20 26  1  0
 22 27  1  0
 23 27  2  0
 24 28  1  0
 25 29  2  0
 30 21  1  6
 26 31  1  0
 30 32  1  0
 28 33  2  0
 29 33  1  0
 30 34  1  0
 30 35  1  0
 33 36  1  0
 32 37  2  3
 34 38  1  0
 39 35  1  6
 36 40  1  0
 36 41  1  0
 36 42  1  0
 39 43  1  0
 38 44  1  6
 38 45  1  0
 39 45  1  0
 43 46  1  0
 43 47  1  1
 45 48  1  0
 46 49  1  0
 47 50  1  0
 48 51  2  0
 48 52  2  0
 48 53  1  6
 49 54  1  0
 49 55  2  0
 50 56  1  0
 50 57  2  0
 58 52  1  1
 53 59  1  0
 53 60  2  0
 58 61  1  0
 58 62  1  0
 60 63  1  0
 59 64  1  0
 63 64  2  0
 64 65  1  0
 62 66  1  0
 61 67  1  0
 66 68  1  0
 67 68  1  0
M  END
