x0981-x3113-x3110
     RDKit          3D

 45 46  0  0  0  0  0  0  0  0999 V2000
    8.0880    1.3500   23.4570 N   0  0  0  0  0  0  0  0  0  0  0  0
    9.0320    2.2460   24.1050 C   0  0  0  0  0  0  0  0  0  0  0  0
   10.4950    2.0170   23.6290 C   0  0  0  0  0  0  0  0  0  0  0  0
    7.9560    1.0420   22.0490 C   0  0  0  0  0  0  0  0  0  0  0  0
    8.7730    1.6460   21.0540 O   0  0  0  0  0  0  0  0  0  0  0  0
    6.8270    0.0270   21.7780 C   0  0  2  0  0  0  0  0  0  0  0  0
    7.1440   -1.4110   21.9480 N   0  0  0  0  0  0  0  0  0  0  0  0
   11.1760    3.3350   23.4260 C   0  0  0  0  0  0  0  0  0  0  0  0
    6.3070    0.3950   20.3570 C   0  0  0  0  0  0  0  0  0  0  0  0
   12.0780    3.2670   22.3500 O   0  0  0  0  0  0  0  0  0  0  0  0
   10.9320    4.4890   24.2170 O   0  0  0  0  0  0  0  0  0  0  0  0
    6.1210   -2.2420   22.4880 C   0  0  0  0  0  0  0  0  0  0  0  0
    5.1090    1.3530   20.2500 C   0  0  0  0  0  0  0  0  0  0  0  0
    6.8600   -0.0680   19.1910 C   0  0  0  0  0  0  0  0  0  0  0  0
    8.4300   -1.5570   22.4910 C   0  0  0  0  0  0  0  0  0  0  0  0
   12.4710    4.5580   21.8770 C   0  0  0  0  0  0  0  0  0  0  0  0
    5.2950   -3.3170   21.7240 C   0  0  0  0  0  0  0  0  0  0  0  0
    6.3720    0.3190   17.8540 N   0  0  0  0  0  0  0  0  0  0  0  0
    4.5590    1.7870   19.0590 C   0  0  0  0  0  0  0  0  0  0  0  0
    9.5710   -1.4740   21.7300 C   0  0  0  0  0  0  0  0  0  0  0  0
    8.5790   -1.7920   23.8560 C   0  0  0  0  0  0  0  0  0  0  0  0
   13.4210    5.2030   22.9100 C   0  0  0  0  0  0  0  0  0  0  0  0
    5.9150   -4.5360   21.6970 C   0  0  1  0  0  0  0  0  0  0  0  0
    5.2230    1.2510   17.7830 C   0  0  0  0  0  0  0  0  0  0  0  0
   10.8370   -1.6140   22.2450 C   0  0  0  0  0  0  0  0  0  0  0  0
    9.8440   -1.9340   24.4090 C   0  0  0  0  0  0  0  0  0  0  0  0
    5.1230   -5.5890   22.1790 N   0  0  0  0  0  0  0  0  0  0  0  0
    6.3090   -4.9200   20.2640 C   0  0  0  0  0  0  0  0  0  0  0  0
   10.9650   -1.8460   23.6050 C   0  0  0  0  0  0  0  0  0  0  0  0
   12.3170   -2.0040   24.2490 C   0  0  0  0  0  0  0  0  0  0  0  0
    4.5040   -5.3070   23.3560 C   0  0  0  0  0  0  0  0  0  0  0  0
    5.7270   -6.2280   19.7950 C   0  0  0  0  0  0  0  0  0  0  0  0
   12.6860   -0.7720   25.0440 C   0  0  0  0  0  0  0  0  0  0  0  0
   13.4040   -2.2770   23.2050 C   0  0  0  0  0  0  0  0  0  0  0  0
   12.1700   -3.1980   25.1750 C   0  0  0  0  0  0  0  0  0  0  0  0
    3.0730   -5.9280   23.6180 C   0  0  1  0  0  0  0  0  0  0  0  0
    5.0350   -4.5780   24.1880 O   0  0  0  0  0  0  0  0  0  0  0  0
    2.8650   -7.0770   22.7080 N   0  0  0  0  0  0  0  0  0  0  0  0
    2.9830   -6.2290   24.9860 C   0  0  0  0  0  0  0  0  0  0  0  0
    1.5060   -7.4050   22.1870 C   0  0  0  0  0  0  0  0  0  0  0  0
    3.1600   -7.5900   25.2600 C   0  0  0  0  0  0  0  0  0  0  0  0
    1.2680   -8.6200   21.5310 C   0  0  0  0  0  0  0  0  0  0  0  0
    0.3970   -6.5210   22.2780 O   0  0  0  0  0  0  0  0  0  0  0  0
    2.3440   -8.1550   26.3170 N   0  0  0  0  0  0  0  0  0  0  0  0
    4.0070   -8.1110   24.5490 O   0  0  0  0  0  0  0  0  0  0  0  0
  1  2  1  0
  2  3  1  0
  1  4  1  0
  4  5  2  0
  6  4  1  6
  6  7  1  0
  3  8  1  0
  6  9  1  0
  8 10  1  0
  8 11  2  0
  7 12  1  0
  9 13  2  0
  9 14  1  0
  7 15  1  0
 10 16  1  0
 12 17  1  0
 14 18  2  0
 13 19  1  0
 15 20  2  0
 15 21  1  0
 16 22  1  0
 23 17  1  6
 18 24  1  0
 19 24  2  0
 20 25  1  0
 21 26  2  0
 23 27  1  0
 23 28  1  0
 25 29  2  0
 26 29  1  0
 29 30  1  0
 27 31  1  0
 28 32  2  3
 30 33  1  0
 30 34  1  0
 30 35  1  0
 31 36  1  0
 31 37  2  0
 36 38  1  0
 36 39  1  1
 38 40  1  0
 39 41  1  0
 40 42  1  0
 40 43  2  0
 41 44  1  0
 41 45  2  0
M  END
