x0981-x0978-x1351-x2694
     RDKit          3D

 59 63  0  0  0  0  0  0  0  0999 V2000
    0.6640   -8.4910   21.4330 C   0  0  0  0  0  0  0  0  0  0  0  0
    0.8570   -7.1780   22.2090 C   0  0  0  0  0  0  0  0  0  0  0  0
    2.0940   -7.2790   22.7860 N   0  0  0  0  0  0  0  0  0  0  0  0
    0.5380   -6.1320   21.6770 O   0  0  0  0  0  0  0  0  0  0  0  0
   -0.1720   -7.0170   23.3240 C   0  0  0  0  0  0  0  0  0  0  0  0
    2.6210   -6.2320   23.5860 C   0  0  1  0  0  0  0  0  0  0  0  0
    2.4280   -6.4470   25.0770 C   0  0  0  0  0  0  0  0  0  0  0  0
    4.1060   -6.2310   23.2800 C   0  0  0  0  0  0  0  0  0  0  0  0
    4.8230   -5.2980   24.1020 N   0  0  0  0  0  0  0  0  0  0  0  0
    2.9120   -7.8230   25.4940 C   0  0  0  0  0  0  0  0  0  0  0  0
    2.3140   -8.4000   26.7130 N   0  0  0  0  0  0  0  0  0  0  0  0
    3.7490   -8.3470   24.7870 O   0  0  0  0  0  0  0  0  0  0  0  0
    5.4850   -4.4550   23.1620 C   0  0  1  0  0  0  0  0  0  0  0  0
    5.8380   -3.0780   23.6390 C   0  0  1  0  0  0  0  0  0  0  0  0
    6.6800   -5.2500   22.6220 C   0  0  0  0  0  0  0  0  0  0  0  0
    5.3890   -2.8320   25.0320 N   0  0  0  0  0  0  0  0  0  0  0  0
    7.1740   -4.3780   21.5770 N   0  0  0  0  0  0  0  0  0  0  0  0
    7.1480   -2.8770   23.4490 C   0  0  0  0  0  0  0  0  0  0  0  0
    6.8370   -4.7500   20.2900 C   0  0  0  0  0  0  0  0  0  0  0  0
    6.2440   -2.5150   26.1940 C   0  0  0  0  0  0  0  0  0  0  0  0
    7.5660   -3.0410   22.1370 C   0  0  2  0  0  0  0  0  0  0  0  0
    5.8410   -5.8970   19.9780 C   0  0  0  0  0  0  0  0  0  0  0  0
    7.2480   -1.7890   21.2960 C   0  0  0  0  0  0  0  0  0  0  0  0
    6.9920   -3.3170   26.6880 O   0  0  0  0  0  0  0  0  0  0  0  0
    6.1200   -1.1590   26.8200 C   0  0  0  0  0  0  0  0  0  0  0  0
    7.7660   -0.7000   21.8230 N   0  0  0  0  0  0  0  0  0  0  0  0
    6.8680   -0.8610   27.9640 C   0  0  0  0  0  0  0  0  0  0  0  0
    5.2710   -0.1650   26.3100 C   0  0  0  0  0  0  0  0  0  0  0  0
    7.0870    0.5630   21.6410 C   0  0  1  0  0  0  0  0  0  0  0  0
    8.9300   -0.8760   22.7220 C   0  0  0  0  0  0  0  0  0  0  0  0
    6.7640    0.3880   28.5790 C   0  0  0  0  0  0  0  0  0  0  0  0
    5.1780    1.0890   26.9390 C   0  0  0  0  0  0  0  0  0  0  0  0
    7.9170    1.6210   21.8990 C   0  0  0  0  0  0  0  0  0  0  0  0
    6.4500    0.7390   20.2690 C   0  0  0  0  0  0  0  0  0  0  0  0
    9.0270   -0.8660   24.0700 N   0  0  0  0  0  0  0  0  0  0  0  0
   10.1830   -1.0960   22.2220 C   0  0  0  0  0  0  0  0  0  0  0  0
    5.9240    1.3810   28.0870 C   0  0  0  0  0  0  0  0  0  0  0  0
    7.6940    2.6590   22.9070 N   0  0  0  0  0  0  0  0  0  0  0  0
    9.0280    1.5650   21.0200 O   0  0  0  0  0  0  0  0  0  0  0  0
    5.3340    1.5540   20.1550 C   0  0  0  0  0  0  0  0  0  0  0  0
    6.9320    0.1300   19.1210 C   0  0  0  0  0  0  0  0  0  0  0  0
   10.3680   -1.0840   24.4020 O   0  0  0  0  0  0  0  0  0  0  0  0
   11.0720   -1.2210   23.2560 C   0  0  0  0  0  0  0  0  0  0  0  0
   12.4680   -1.4310   23.2270 C   0  0  0  0  0  0  0  0  0  0  0  0
    6.2630    0.3720   17.8350 N   0  0  0  0  0  0  0  0  0  0  0  0
    4.7010    1.7870   18.9800 C   0  0  0  0  0  0  0  0  0  0  0  0
    8.5670    3.7290   23.1380 C   0  0  0  0  0  0  0  0  0  0  0  0
   13.0350   -0.1760   23.4050 C   0  0  0  0  0  0  0  0  0  0  0  0
   12.9020   -1.9060   22.0070 C   0  0  0  0  0  0  0  0  0  0  0  0
   12.9030   -2.3680   24.3250 C   0  0  0  0  0  0  0  0  0  0  0  0
    5.1970    1.1820   17.8430 C   0  0  0  0  0  0  0  0  0  0  0  0
    9.7860    3.4470   23.6770 C   0  0  0  0  0  0  0  0  0  0  0  0
    8.1830    5.1520   22.8030 C   0  0  0  0  0  0  0  0  0  0  0  0
   10.2600    2.0320   24.0420 C   0  0  0  0  0  0  0  0  0  0  0  0
   10.6410    4.4960   23.9070 C   0  0  0  0  0  0  0  0  0  0  0  0
    9.1170    6.1750   23.0760 C   0  0  0  0  0  0  0  0  0  0  0  0
   10.3450    5.8060   23.6370 C   0  0  0  0  0  0  0  0  0  0  0  0
   11.1800    6.8500   23.8820 O   0  0  0  0  0  0  0  0  0  0  0  0
   11.8990    6.7580   25.0290 C   0  0  0  0  0  0  0  0  0  0  0  0
  1  2  1  0
  2  3  1  0
  2  4  1  0
  2  5  1  0
  3  6  1  0
  6  7  1  1
  6  8  1  0
  8  9  1  0
  7 10  1  0
 10 11  1  0
 10 12  2  0
 13  9  1  1
 13 14  1  0
 13 15  1  0
 14 16  1  1
 15 17  1  0
 14 18  1  0
 17 19  1  0
 16 20  1  0
 17 21  1  0
 18 21  1  0
 19 22  2  3
 21 23  1  6
 20 24  2  0
 20 25  1  0
 23 26  1  0
 25 27  2  0
 25 28  1  0
 26 29  1  0
 26 30  1  0
 27 31  1  0
 28 32  2  0
 29 33  1  6
 29 34  1  0
 30 35  2  0
 30 36  1  0
 31 37  2  0
 32 37  1  0
 33 38  1  0
 33 39  2  0
 34 40  2  0
 34 41  1  0
 35 42  1  0
 36 43  2  0
 42 43  1  0
 43 44  1  0
 41 45  2  0
 40 46  1  0
 38 47  1  0
 44 48  1  0
 44 49  1  0
 44 50  1  0
 45 51  1  0
 46 51  2  0
 47 52  2  0
 47 53  1  0
 52 54  1  0
 52 55  1  0
 53 56  2  0
 55 57  2  0
 56 57  1  0
 57 58  1  0
 58 59  1  0
M  END
