x0981-x1392
     RDKit          3D

 32 34  0  0  0  0  0  0  0  0999 V2000
    1.2070   -8.7620   21.2750 C   0  0  0  0  0  0  0  0  0  0  0  0
    1.2710   -7.4940   22.0850 C   0  0  0  0  0  0  0  0  0  0  0  0
    2.4340   -7.3070   22.7910 N   0  0  0  0  0  0  0  0  0  0  0  0
    0.3470   -6.6870   22.0930 O   0  0  0  0  0  0  0  0  0  0  0  0
    2.6480   -6.0790   23.5710 C   0  0  1  0  0  0  0  0  0  0  0  0
    2.5330   -6.3750   25.0560 C   0  0  0  0  0  0  0  0  0  0  0  0
    4.0080   -5.4010   23.2030 C   0  0  0  0  0  0  0  0  0  0  0  0
    4.6750   -5.6840   22.0390 N   0  0  0  0  0  0  0  0  0  0  0  0
    4.5190   -4.5630   23.9470 O   0  0  0  0  0  0  0  0  0  0  0  0
    3.0190   -7.7580   25.3400 C   0  0  0  0  0  0  0  0  0  0  0  0
    2.4160   -8.4250   26.3630 N   0  0  0  0  0  0  0  0  0  0  0  0
    3.9140   -8.2260   24.6680 O   0  0  0  0  0  0  0  0  0  0  0  0
    5.6220   -4.7520   21.4600 C   0  0  2  0  0  0  0  0  0  0  0  0
    6.1550   -5.1250   20.1070 C   0  0  0  0  0  0  0  0  0  0  0  0
    6.6250   -4.6740   22.5340 C   0  0  0  0  0  0  0  0  0  0  0  0
    5.7360   -6.2960   19.7190 C   0  0  0  0  0  0  0  0  0  0  0  0
    6.8700   -3.3210   23.1050 C   0  0  2  0  0  0  0  0  0  0  0  0
    7.1740   -2.2940   22.0690 N   0  0  0  0  0  0  0  0  0  0  0  0
    7.9980   -3.5870   24.0150 C   0  0  0  0  0  0  0  0  0  0  0  0
    8.4940   -1.6840   21.9330 C   0  0  0  0  0  0  0  0  0  0  0  0
    9.3750   -3.1190   23.7630 C   0  0  0  0  0  0  0  0  0  0  0  0
    7.6610   -4.4160   25.2330 C   0  0  0  0  0  0  0  0  0  0  0  0
    9.5490   -2.3690   22.5880 C   0  0  2  0  0  0  0  0  0  0  0  0
    8.6820   -4.7260   26.1080 C   0  0  0  0  0  0  0  0  0  0  0  0
   10.3500   -3.4740   24.6990 C   0  0  0  0  0  0  0  0  0  0  0  0
    9.9930   -4.2530   25.8230 C   0  0  0  0  0  0  0  0  0  0  0  0
   10.6590   -1.3870   22.7780 C   0  0  0  0  0  0  0  0  0  0  0  0
   11.8900   -1.5950   22.1740 C   0  0  0  0  0  0  0  0  0  0  0  0
   10.3700   -0.1750   23.6480 C   0  0  0  0  0  0  0  0  0  0  0  0
   12.9170   -0.6940   22.3360 C   0  0  0  0  0  0  0  0  0  0  0  0
   11.5300    0.7820   23.7880 C   0  0  0  0  0  0  0  0  0  0  0  0
   12.7490    0.5600   23.1720 C   0  0  0  0  0  0  0  0  0  0  0  0
  1  2  1  0
  2  3  1  0
  2  4  2  0
  3  5  1  0
  5  6  1  1
  5  7  1  0
  7  8  1  0
  7  9  2  0
  6 10  1  0
 10 11  1  0
 10 12  2  0
  8 13  1  0
 13 14  1  6
 13 15  1  0
 14 16  2  3
 17 15  1  6
 17 18  1  0
 17 19  1  0
 18 20  1  0
 19 21  2  0
 19 22  1  0
 20 23  1  0
 21 23  1  0
 22 24  2  0
 21 25  1  0
 24 26  1  0
 25 26  2  0
 23 27  1  1
 27 28  2  0
 27 29  1  0
 28 30  1  0
 29 31  2  0
 30 32  2  0
 31 32  1  0
M  END
