x0981-x0734-x0540-x3113-x3110
     RDKit          3D

 69 74  0  0  0  0  0  0  0  0999 V2000
    7.9540    1.2590   23.2030 N   0  0  0  0  0  0  0  0  0  0  0  0
    8.7080    2.4060   23.5740 C   0  0  0  0  0  0  0  0  0  0  0  0
   10.2000    2.0930   23.5920 C   0  0  0  0  0  0  0  0  0  0  0  0
    7.9260    0.7810   21.8160 C   0  0  0  0  0  0  0  0  0  0  0  0
    8.5790    1.3440   20.9230 O   0  0  0  0  0  0  0  0  0  0  0  0
    6.9800   -0.4700   21.5290 C   0  0  2  0  0  0  0  0  0  0  0  0
    7.7110   -1.7820   21.4150 N   0  0  0  0  0  0  0  0  0  0  0  0
   11.0870    3.3270   23.4000 C   0  0  0  0  0  0  0  0  0  0  0  0
    6.2900    0.0590   20.2690 C   0  0  0  0  0  0  0  0  0  0  0  0
   12.0220    3.2120   22.3320 O   0  0  0  0  0  0  0  0  0  0  0  0
   10.9810    4.3250   24.1050 O   0  0  0  0  0  0  0  0  0  0  0  0
    5.0760    0.6910   20.3200 C   0  0  0  0  0  0  0  0  0  0  0  0
    6.9410   -0.0800   18.9110 C   0  0  0  0  0  0  0  0  0  0  0  0
    8.8440   -1.7570   22.1750 C   0  0  0  0  0  0  0  0  0  0  0  0
    7.3770   -3.1610   22.0100 C   0  0  2  0  0  0  0  0  0  0  0  0
   12.5420    4.4760   21.9370 C   0  0  0  0  0  0  0  0  0  0  0  0
    4.3880    0.8380   21.6380 C   0  0  0  0  0  0  0  0  0  0  0  0
    6.4110    0.3960   17.7790 N   0  0  0  0  0  0  0  0  0  0  0  0
    4.4860    1.2240   19.0150 C   0  0  0  0  0  0  0  0  0  0  0  0
    9.9900   -2.3430   21.7590 C   0  0  0  0  0  0  0  0  0  0  0  0
    8.8470   -1.1550   23.4330 C   0  0  0  0  0  0  0  0  0  0  0  0
    6.3060   -4.0210   21.3300 N   0  0  0  0  0  0  0  0  0  0  0  0
    7.5250   -3.2160   23.5970 C   0  0  0  0  0  0  0  0  0  0  0  0
   13.4030    5.2660   22.8960 C   0  0  0  0  0  0  0  0  0  0  0  0
    4.9730    1.7550   22.5210 C   0  0  0  0  0  0  0  0  0  0  0  0
    6.5230   -4.6820   20.1190 C   0  0  0  0  0  0  0  0  0  0  0  0
    5.2300    1.0240   17.8600 C   0  0  0  0  0  0  0  0  0  0  0  0
   11.1870   -2.3450   22.6040 C   0  0  0  0  0  0  0  0  0  0  0  0
    9.9780   -1.1810   24.1870 C   0  0  0  0  0  0  0  0  0  0  0  0
    5.7990   -5.0350   22.2780 C   0  0  2  0  0  0  0  0  0  0  0  0
    6.9150   -4.4040   24.1320 N   0  0  0  0  0  0  0  0  0  0  0  0
    4.1340    2.7810   23.1010 N   0  0  0  0  0  0  0  0  0  0  0  0
    4.4500   -5.4450   22.0850 N   0  0  0  0  0  0  0  0  0  0  0  0
    5.8610   -6.0500   19.8450 C   0  0  0  0  0  0  0  0  0  0  0  0
   11.1790   -1.7750   23.8060 C   0  0  0  0  0  0  0  0  0  0  0  0
    7.2880   -4.9590   25.3410 C   0  0  0  0  0  0  0  0  0  0  0  0
    5.5980   -4.3860   23.6470 C   0  0  2  0  0  0  0  0  0  0  0  0
   12.3780   -1.7920   24.6070 C   0  0  0  0  0  0  0  0  0  0  0  0
    2.8920    2.3670   23.7330 C   0  0  0  0  0  0  0  0  0  0  0  0
    4.4960   -5.0560   24.3500 N   0  0  0  0  0  0  0  0  0  0  0  0
    3.7910   -5.6400   23.3490 C   0  0  0  0  0  0  0  0  0  0  0  0
    6.4450   -4.9690   26.6030 C   0  0  0  0  0  0  0  0  0  0  0  0
    8.5160   -5.5530   25.4300 C   0  0  0  0  0  0  0  0  0  0  0  0
   12.7870   -0.5430   24.9370 C   0  0  0  0  0  0  0  0  0  0  0  0
   13.4010   -1.2520   23.7050 C   0  0  0  0  0  0  0  0  0  0  0  0
   13.0040   -2.9640   25.0890 C   0  0  0  0  0  0  0  0  0  0  0  0
    2.8140    1.4940   24.5920 O   0  0  0  0  0  0  0  0  0  0  0  0
    1.7560    3.1290   23.2060 N   0  0  0  0  0  0  0  0  0  0  0  0
    2.5680   -6.3110   23.5800 C   0  0  1  0  0  0  0  0  0  0  0  0
    5.1240   -4.3960   26.6420 N   0  0  0  0  0  0  0  0  0  0  0  0
    8.9510   -6.1210   26.6260 C   0  0  0  0  0  0  0  0  0  0  0  0
    6.9130   -5.5360   27.7820 C   0  0  0  0  0  0  0  0  0  0  0  0
    2.4490   -7.2750   22.6380 N   0  0  0  0  0  0  0  0  0  0  0  0
    2.2840   -6.6500   24.8940 C   0  0  0  0  0  0  0  0  0  0  0  0
    4.1860   -5.1980   26.5810 O   0  0  0  0  0  0  0  0  0  0  0  0
    5.0120   -3.2350   27.0390 O   0  0  0  0  0  0  0  0  0  0  0  0
    0.5670    3.2970   24.0170 C   0  0  0  0  0  0  0  0  0  0  0  0
    8.1710   -6.1050   27.7760 C   0  0  0  0  0  0  0  0  0  0  0  0
    1.2630   -7.5630   21.9960 C   0  0  0  0  0  0  0  0  0  0  0  0
    2.9220   -7.7820   25.2650 C   0  0  0  0  0  0  0  0  0  0  0  0
    0.5030    4.7220   24.5910 C   0  0  0  0  0  0  0  0  0  0  0  0
   -0.5700    2.9610   23.2720 C   0  0  0  0  0  0  0  0  0  0  0  0
    1.2120   -8.7770   21.2940 C   0  0  0  0  0  0  0  0  0  0  0  0
    0.1420   -6.6750   22.0060 O   0  0  0  0  0  0  0  0  0  0  0  0
    2.2570   -8.5400   26.3650 N   0  0  0  0  0  0  0  0  0  0  0  0
    4.1270   -8.2050   24.6530 O   0  0  0  0  0  0  0  0  0  0  0  0
   -0.9040    5.0950   25.0720 C   0  0  0  0  0  0  0  0  0  0  0  0
   -1.8240    3.4020   23.7090 C   0  0  0  0  0  0  0  0  0  0  0  0
   -1.9360    4.5730   24.3740 C   0  0  0  0  0  0  0  0  0  0  0  0
  1  2  1  0
  2  3  1  0
  1  4  1  0
  4  5  2  0
  6  4  1  6
  6  7  1  0
  3  8  1  0
  6  9  1  0
  8 10  1  0
  8 11  2  0
  9 12  1  0
  9 13  2  0
  7 14  1  0
 15  7  1  1
 10 16  1  0
 12 17  1  0
 13 18  1  0
 12 19  2  0
 14 20  2  0
 14 21  1  0
 15 22  1  0
 15 23  1  0
 16 24  1  0
 17 25  1  0
 22 26  1  0
 18 27  2  0
 19 27  1  0
 20 28  1  0
 21 29  2  0
 22 30  1  0
 23 31  1  0
 25 32  1  0
 30 33  1  6
 26 34  2  3
 28 35  2  0
 29 35  1  0
 31 36  1  0
 30 37  1  0
 31 37  1  0
 35 38  1  0
 32 39  1  0
 37 40  1  1
 33 41  1  0
 40 41  2  0
 36 42  2  0
 36 43  1  0
 38 44  1  0
 38 45  1  0
 38 46  1  0
 39 47  2  0
 39 48  1  0
 41 49  1  0
 42 50  1  0
 43 51  2  0
 42 52  1  0
 49 53  1  0
 49 54  1  1
 50 55  2  0
 50 56  1  0
 48 57  1  0
 51 58  1  0
 52 58  2  0
 53 59  1  0
 54 60  1  0
 57 61  1  0
 57 62  1  0
 59 63  1  0
 59 64  2  0
 60 65  1  0
 60 66  2  0
 61 67  1  0
 62 68  1  0
 67 69  1  0
 68 69  1  0
M  CHG  2  50   1  56  -1
M  END
