x0981-x2754-x2776-x1478
     RDKit          3D

 61 65  0  0  0  0  0  0  0  0999 V2000
    1.0930   -8.7250   21.3460 C   0  0  0  0  0  0  0  0  0  0  0  0
    1.4540   -7.5030   22.1480 C   0  0  0  0  0  0  0  0  0  0  0  0
    2.6950   -7.4030   22.7220 N   0  0  0  0  0  0  0  0  0  0  0  0
    0.4510   -6.4860   22.2270 O   0  0  0  0  0  0  0  0  0  0  0  0
    3.1840   -6.1860   23.4000 C   0  0  1  0  0  0  0  0  0  0  0  0
    2.7240   -6.2530   24.8550 C   0  0  0  0  0  0  0  0  0  0  0  0
    4.8510   -6.1360   23.3530 C   0  0  0  0  0  0  0  0  0  0  0  0
    3.0690   -7.6760   25.2880 C   0  0  0  0  0  0  0  0  0  0  0  0
    5.4050   -5.1370   22.4120 N   0  0  0  0  0  0  0  0  0  0  0  0
    2.3190   -8.2140   26.4350 N   0  0  0  0  0  0  0  0  0  0  0  0
    3.9250   -8.2540   24.6650 O   0  0  0  0  0  0  0  0  0  0  0  0
    6.7520   -5.3820   21.8730 C   0  0  0  0  0  0  0  0  0  0  0  0
    5.3030   -3.7790   22.9060 N   0  0  0  0  0  0  0  0  0  0  0  0
    6.7510   -5.3550   20.3600 C   0  0  0  0  0  0  0  0  0  0  0  0
    5.5830   -2.8210   21.8550 C   0  0  0  0  0  0  0  0  0  0  0  0
    4.3370   -3.4160   23.7100 C   0  0  0  0  0  0  0  0  0  0  0  0
    5.6990   -6.2760   19.8050 C   0  0  0  0  0  0  0  0  0  0  0  0
    5.8560   -1.5400   22.3910 C   0  0  2  0  0  0  0  0  0  0  0  0
    4.6340   -2.2960   24.4580 C   0  0  1  0  0  0  0  0  0  0  0  0
    7.0600   -1.0080   22.0600 N   0  0  0  0  0  0  0  0  0  0  0  0
    4.7480   -2.8690   25.7580 C   0  0  0  0  0  0  0  0  0  0  0  0
    5.8230   -1.5450   23.7920 C   0  0  1  0  0  0  0  0  0  0  0  0
    7.4260    0.0110   21.2540 C   0  0  2  0  0  0  0  0  0  0  0  0
    3.8130   -3.5930   26.0720 O   0  0  0  0  0  0  0  0  0  0  0  0
    5.7470   -2.6200   26.6680 N   0  0  0  0  0  0  0  0  0  0  0  0
    7.1790   -2.0370   24.3880 C   0  0  0  0  0  0  0  0  0  0  0  0
    8.0720    1.1660   21.7280 C   0  0  0  0  0  0  0  0  0  0  0  0
    5.4120   -1.9220   27.7630 C   0  0  0  0  0  0  0  0  0  0  0  0
    6.4930    0.4900   20.1960 C   0  0  0  0  0  0  0  0  0  0  0  0
    6.8310   -3.4570   26.8900 C   0  0  0  0  0  0  0  0  0  0  0  0
    8.5620   -2.1230   23.7190 C   0  0  0  0  0  0  0  0  0  0  0  0
    7.7660    1.9640   22.7720 N   0  0  0  0  0  0  0  0  0  0  0  0
    9.0250    1.4450   21.0330 O   0  0  0  0  0  0  0  0  0  0  0  0
    5.3580    1.2730   20.3390 C   0  0  0  0  0  0  0  0  0  0  0  0
    6.8770    0.0710   18.7750 C   0  0  0  0  0  0  0  0  0  0  0  0
    6.7290   -4.7900   27.6560 C   0  0  0  0  0  0  0  0  0  0  0  0
    8.0790   -3.1060   26.4280 C   0  0  0  0  0  0  0  0  0  0  0  0
    9.7730   -1.8300   24.3970 C   0  0  0  0  0  0  0  0  0  0  0  0
    8.6690   -2.5190   22.4000 C   0  0  0  0  0  0  0  0  0  0  0  0
    6.2220    0.4080   17.6600 N   0  0  0  0  0  0  0  0  0  0  0  0
    4.6180    1.6520   19.0620 C   0  0  0  0  0  0  0  0  0  0  0  0
    8.4970    3.2300   23.0740 C   0  0  0  0  0  0  0  0  0  0  0  0
    7.8450   -5.6030   27.8770 C   0  0  0  0  0  0  0  0  0  0  0  0
    9.1720   -3.9090   26.6450 C   0  0  0  0  0  0  0  0  0  0  0  0
    9.9930   -2.6150   21.7280 C   0  0  0  0  0  0  0  0  0  0  0  0
   11.0000   -1.9520   23.7220 C   0  0  0  0  0  0  0  0  0  0  0  0
    5.1170    1.1950   17.8360 C   0  0  0  0  0  0  0  0  0  0  0  0
    9.8020    3.0660   23.5780 C   0  0  0  0  0  0  0  0  0  0  0  0
    7.9160    4.4810   22.8600 C   0  0  0  0  0  0  0  0  0  0  0  0
    9.1050   -5.1860   27.3780 C   0  0  0  0  0  0  0  0  0  0  0  0
   12.2530   -1.7470   24.2320 C   0  0  2  0  0  0  0  0  0  0  0  0
   11.0980   -2.3250   22.4240 C   0  0  0  0  0  0  0  0  0  0  0  0
   10.4530    1.7000   23.8130 C   0  0  0  0  0  0  0  0  0  0  0  0
   10.5510    4.2120   23.8820 C   0  0  0  0  0  0  0  0  0  0  0  0
    8.7030    5.7260   23.1850 C   0  0  0  0  0  0  0  0  0  0  0  0
   12.3160   -2.6280   25.3490 O   0  0  0  0  0  0  0  0  0  0  0  0
   12.5330   -0.3850   24.7980 C   0  0  0  0  0  0  0  0  0  0  0  0
    9.9890    5.6110   23.6880 C   0  0  0  0  0  0  0  0  0  0  0  0
   13.6100   -3.1180   25.5900 C   0  0  0  0  0  0  0  0  0  0  0  0
   10.6800    6.7950   23.9830 O   0  0  0  0  0  0  0  0  0  0  0  0
   11.8070    6.6820   24.8510 C   0  0  0  0  0  0  0  0  0  0  0  0
  1  2  1  0
  2  3  1  0
  2  4  2  0
  3  5  1  0
  5  6  1  1
  5  7  1  0
  6  8  1  0
  7  9  1  0
  8 10  1  0
  8 11  2  0
  9 12  1  0
  9 13  1  0
 12 14  1  0
 13 15  1  0
 13 16  1  0
 14 17  2  3
 15 18  1  0
 16 19  1  0
 18 20  1  1
 19 21  1  1
 18 22  1  0
 19 22  1  0
 23 20  1  1
 21 24  2  0
 21 25  1  0
 22 26  1  1
 23 27  1  0
 25 28  1  0
 23 29  1  0
 25 30  1  0
 26 31  1  0
 27 32  1  0
 27 33  2  0
 29 34  2  0
 29 35  1  0
 30 36  2  0
 30 37  1  0
 31 38  2  0
 31 39  1  0
 35 40  2  0
 34 41  1  0
 32 42  1  0
 36 43  1  0
 37 44  2  0
 39 45  2  0
 38 46  1  0
 40 47  1  0
 41 47  2  0
 42 48  2  0
 42 49  1  0
 43 50  2  0
 44 50  1  0
 46 51  1  0
 45 52  1  0
 46 52  2  0
 48 53  1  0
 48 54  1  0
 49 55  2  0
 51 56  1  0
 51 57  1  1
 54 58  2  0
 55 58  1  0
 56 59  1  0
 58 60  1  0
 60 61  1  0
M  END
