x0981-x3115-x0426
     RDKit          3D

 54 56  0  0  0  0  0  0  0  0999 V2000
    1.2610   -8.6450   21.4560 C   0  0  0  0  0  0  0  0  0  0  0  0
    1.4210   -7.2990   22.1950 C   0  0  0  0  0  0  0  0  0  0  0  0
    2.6880   -7.0330   22.7040 N   0  0  0  0  0  0  0  0  0  0  0  0
    0.4830   -6.5120   22.2930 O   0  0  0  0  0  0  0  0  0  0  0  0
    2.9160   -5.8740   23.5560 C   0  0  1  0  0  0  0  0  0  0  0  0
    2.7520   -6.2610   25.0240 C   0  0  0  0  0  0  0  0  0  0  0  0
    4.3370   -5.2330   23.3860 C   0  0  0  0  0  0  0  0  0  0  0  0
    5.2560   -5.7580   22.3670 N   0  0  0  0  0  0  0  0  0  0  0  0
    4.6960   -4.2010   24.1840 O   0  0  0  0  0  0  0  0  0  0  0  0
    3.1110   -7.7040   25.3310 C   0  0  0  0  0  0  0  0  0  0  0  0
    2.3940   -8.3650   26.4470 N   0  0  0  0  0  0  0  0  0  0  0  0
    3.9670   -8.2020   24.6310 O   0  0  0  0  0  0  0  0  0  0  0  0
    6.4890   -5.0530   21.9080 C   0  0  1  0  0  0  0  0  0  0  0  0
    6.4810   -5.0550   20.3790 C   0  0  0  0  0  0  0  0  0  0  0  0
    6.8190   -3.7230   22.6170 C   0  0  0  0  0  0  0  0  0  0  0  0
    5.6740   -6.2110   19.8370 C   0  0  0  0  0  0  0  0  0  0  0  0
    6.2080   -2.5060   22.2380 C   0  0  0  0  0  0  0  0  0  0  0  0
    7.1100   -1.5610   21.8060 N   0  0  0  0  0  0  0  0  0  0  0  0
    6.6410   -0.1520   21.7680 C   0  0  1  0  0  0  0  0  0  0  0  0
    8.3430   -1.6040   22.4610 C   0  0  0  0  0  0  0  0  0  0  0  0
    7.6970    0.7580   21.9680 C   0  0  0  0  0  0  0  0  0  0  0  0
    5.9960    0.2910   20.4450 C   0  0  0  0  0  0  0  0  0  0  0  0
    9.4650   -2.0550   21.7810 C   0  0  0  0  0  0  0  0  0  0  0  0
    8.5760   -1.2170   23.7630 C   0  0  0  0  0  0  0  0  0  0  0  0
    7.7220    1.7620   23.0760 N   0  0  0  0  0  0  0  0  0  0  0  0
    8.6470    0.7660   21.1860 O   0  0  0  0  0  0  0  0  0  0  0  0
    4.7320    0.8680   20.2860 C   0  0  0  0  0  0  0  0  0  0  0  0
    6.8260    0.0690   19.3360 C   0  0  0  0  0  0  0  0  0  0  0  0
   10.7140   -2.0820   22.3680 C   0  0  0  0  0  0  0  0  0  0  0  0
    9.9310   -1.2450   24.4140 C   0  0  0  0  0  0  0  0  0  0  0  0
    8.7020    2.7870   23.4510 C   0  0  0  0  0  0  0  0  0  0  0  0
    3.8490    1.0950   21.2690 C   0  0  0  0  0  0  0  0  0  0  0  0
    6.4870    0.4050   18.0660 N   0  0  0  0  0  0  0  0  0  0  0  0
    4.3880    1.2200   18.9810 C   0  0  0  0  0  0  0  0  0  0  0  0
   11.0200   -1.6970   23.6290 C   0  0  0  0  0  0  0  0  0  0  0  0
    8.0770    3.7610   22.6340 C   0  0  0  0  0  0  0  0  0  0  0  0
   12.4670   -1.7330   24.1590 C   0  0  0  0  0  0  0  0  0  0  0  0
    4.2680    2.0670   22.1880 C   0  0  0  0  0  0  0  0  0  0  0  0
    5.2470    0.9940   17.9230 C   0  0  0  0  0  0  0  0  0  0  0  0
    8.5730    5.0480   23.0630 O   0  0  0  0  0  0  0  0  0  0  0  0
   13.3470   -1.7370   23.1290 C   0  0  0  0  0  0  0  0  0  0  0  0
   12.7470   -2.9510   24.9470 C   0  0  0  0  0  0  0  0  0  0  0  0
   12.5970   -0.6960   24.9890 C   0  0  0  0  0  0  0  0  0  0  0  0
    3.2650    2.7300   22.8440 N   0  0  0  0  0  0  0  0  0  0  0  0
    8.1760    6.1440   22.2300 C   0  0  0  0  0  0  0  0  0  0  0  0
    2.5930    2.0860   24.0020 C   0  0  0  0  0  0  0  0  0  0  0  0
    2.9730    1.0330   24.4950 O   0  0  0  0  0  0  0  0  0  0  0  0
    1.4180    2.7720   24.6200 C   0  0  0  0  0  0  0  0  0  0  0  0
    1.5310    3.9790   25.2620 C   0  0  0  0  0  0  0  0  0  0  0  0
    0.1390    2.2300   24.5900 C   0  0  0  0  0  0  0  0  0  0  0  0
    2.7440    4.5420   25.3200 F   0  0  0  0  0  0  0  0  0  0  0  0
   -1.1500    2.8610   25.2100 C   0  0  0  0  0  0  0  0  0  0  0  0
    0.4470    4.6530   25.8620 C   0  0  0  0  0  0  0  0  0  0  0  0
   -0.9690    4.0690   25.8390 C   0  0  0  0  0  0  0  0  0  0  0  0
  1  2  1  0
  2  3  1  0
  2  4  2  0
  3  5  1  0
  5  6  1  1
  5  7  1  0
  7  8  1  0
  7  9  2  0
  6 10  1  0
 10 11  1  0
 10 12  2  0
  8 13  1  0
 13 14  1  6
 13 15  1  0
 14 16  2  3
 15 17  1  0
 17 18  1  0
 18 19  1  0
 18 20  1  0
 19 21  1  6
 19 22  1  0
 20 23  2  0
 20 24  1  0
 21 25  1  0
 21 26  2  0
 22 27  1  0
 22 28  2  0
 23 29  1  0
 24 30  2  0
 25 31  1  0
 27 32  1  0
 28 33  1  0
 27 34  2  0
 29 35  2  0
 30 35  1  0
 31 36  1  0
 35 37  1  0
 32 38  1  0
 33 39  2  0
 34 39  1  0
 36 40  1  0
 37 41  1  0
 37 42  1  0
 37 43  1  0
 38 44  1  0
 40 45  1  0
 44 46  1  0
 46 47  2  0
 46 48  1  0
 48 49  2  0
 48 50  1  0
 49 51  1  0
 50 52  2  0
 49 53  1  0
 52 54  1  0
 53 54  2  0
M  END
