x0981-x1478-x1493-x1351-x3110
     RDKit          3D

 64 68  0  0  0  0  0  0  0  0999 V2000
    7.9180    1.8840   23.3960 N   0  0  0  0  0  0  0  0  0  0  0  0
    9.0300    2.5130   24.1000 C   0  0  0  0  0  0  0  0  0  0  0  0
   10.4290    2.1550   23.5630 C   0  0  0  0  0  0  0  0  0  0  0  0
    7.9220    1.5480   21.9770 C   0  0  0  0  0  0  0  0  0  0  0  0
    8.8880    2.0410   21.0540 O   0  0  0  0  0  0  0  0  0  0  0  0
    6.7550    0.5900   21.6660 C   0  0  2  0  0  0  0  0  0  0  0  0
    7.0390   -0.8590   21.9170 N   0  0  0  0  0  0  0  0  0  0  0  0
   11.2630    3.4140   23.3790 C   0  0  0  0  0  0  0  0  0  0  0  0
    6.2900    0.7760   20.4150 C   0  0  0  0  0  0  0  0  0  0  0  0
   12.0030    3.3140   22.4150 O   0  0  0  0  0  0  0  0  0  0  0  0
   11.1910    4.4010   24.1050 O   0  0  0  0  0  0  0  0  0  0  0  0
    5.2340    1.6340   20.2180 C   0  0  0  0  0  0  0  0  0  0  0  0
    6.9090    0.0480   19.2080 C   0  0  0  0  0  0  0  0  0  0  0  0
    8.3520   -1.1760   22.4790 C   0  0  0  0  0  0  0  0  0  0  0  0
    6.0460   -1.7610   21.3700 C   0  0  0  0  0  0  0  0  0  0  0  0
   12.4580    4.5730   21.8990 C   0  0  0  0  0  0  0  0  0  0  0  0
    6.4130    0.2620   17.9440 N   0  0  0  0  0  0  0  0  0  0  0  0
    4.7650    1.8210   18.9370 C   0  0  0  0  0  0  0  0  0  0  0  0
    9.3580   -1.7570   21.7220 C   0  0  0  0  0  0  0  0  0  0  0  0
    8.6750   -0.8840   23.8080 C   0  0  0  0  0  0  0  0  0  0  0  0
    5.3600   -2.5390   22.4550 C   0  0  1  0  0  0  0  0  0  0  0  0
   13.4140    5.2230   22.8890 C   0  0  0  0  0  0  0  0  0  0  0  0
    5.3060    1.1870   17.8570 C   0  0  0  0  0  0  0  0  0  0  0  0
   10.6270   -1.9950   22.2380 C   0  0  0  0  0  0  0  0  0  0  0  0
    9.9520   -1.1370   24.2940 C   0  0  0  0  0  0  0  0  0  0  0  0
    6.2860   -3.3180   22.8890 C   0  0  0  0  0  0  0  0  0  0  0  0
    4.9660   -1.6960   23.5330 C   0  0  0  0  0  0  0  0  0  0  0  0
   10.9870   -1.6820   23.5360 C   0  0  0  0  0  0  0  0  0  0  0  0
    5.4280   -4.3660   23.5000 C   0  0  2  0  0  0  0  0  0  0  0  0
    4.3100   -2.5570   24.3560 C   0  0  2  0  0  0  0  0  0  0  0  0
   12.3850   -1.8610   24.1230 C   0  0  0  0  0  0  0  0  0  0  0  0
    5.0320   -2.6880   25.6610 N   0  0  0  0  0  0  0  0  0  0  0  0
    4.2050   -3.8440   23.9430 C   0  0  0  0  0  0  0  0  0  0  0  0
    6.2050   -5.0630   24.4620 N   0  0  0  0  0  0  0  0  0  0  0  0
    5.3440   -5.3870   22.3530 C   0  0  0  0  0  0  0  0  0  0  0  0
   12.7260   -0.6440   24.9420 C   0  0  0  0  0  0  0  0  0  0  0  0
   13.4090   -1.9460   22.9930 C   0  0  0  0  0  0  0  0  0  0  0  0
   12.6430   -3.0660   24.9940 C   0  0  0  0  0  0  0  0  0  0  0  0
    6.3010   -2.0660   25.9730 C   0  0  0  0  0  0  0  0  0  0  0  0
    5.7630   -5.3750   25.8270 C   0  0  0  0  0  0  0  0  0  0  0  0
    7.5270   -5.2730   23.9400 C   0  0  0  0  0  0  0  0  0  0  0  0
    6.6240   -5.2220   21.6600 N   0  0  0  0  0  0  0  0  0  0  0  0
    6.6390   -5.3860   20.3190 C   0  0  0  0  0  0  0  0  0  0  0  0
    7.4800   -2.5230   25.5440 O   0  0  0  0  0  0  0  0  0  0  0  0
    4.8190   -6.5220   25.9700 C   0  0  0  0  0  0  0  0  0  0  0  0
    6.1660   -4.6770   26.9890 O   0  0  0  0  0  0  0  0  0  0  0  0
    6.1980   -0.8520   26.8020 C   0  0  0  0  0  0  0  0  0  0  0  0
    7.7960   -5.4660   22.5620 C   0  0  0  0  0  0  0  0  0  0  0  0
    5.6960   -6.3550   19.6990 C   0  0  0  0  0  0  0  0  0  0  0  0
    6.9070   -0.7180   28.0060 C   0  0  0  0  0  0  0  0  0  0  0  0
    5.3100    0.3080   26.3850 C   0  0  0  0  0  0  0  0  0  0  0  0
    3.3890   -6.0060   26.1590 C   0  0  0  0  0  0  0  0  0  0  0  0
    6.7800    0.4190   28.7460 C   0  0  0  0  0  0  0  0  0  0  0  0
    5.1790    1.5640   27.2190 C   0  0  0  0  0  0  0  0  0  0  0  0
    2.4450   -6.6740   25.1440 C   0  0  1  0  0  0  0  0  0  0  0  0
    5.8920    1.6670   28.4050 C   0  0  0  0  0  0  0  0  0  0  0  0
    2.6210   -6.3090   23.7970 C   0  0  0  0  0  0  0  0  0  0  0  0
    2.7110   -8.0140   25.3060 C   0  0  0  0  0  0  0  0  0  0  0  0
    2.3790   -7.3040   22.7940 N   0  0  0  0  0  0  0  0  0  0  0  0
    2.1340   -8.5630   26.5160 N   0  0  0  0  0  0  0  0  0  0  0  0
    3.3720   -8.6270   24.5130 O   0  0  0  0  0  0  0  0  0  0  0  0
    1.2520   -7.5190   22.0610 C   0  0  0  0  0  0  0  0  0  0  0  0
    1.1370   -8.7190   21.3360 C   0  0  0  0  0  0  0  0  0  0  0  0
    0.3820   -6.6470   22.0480 O   0  0  0  0  0  0  0  0  0  0  0  0
  1  2  1  0
  2  3  1  0
  1  4  1  0
  4  5  2  0
  6  4  1  6
  6  7  1  0
  3  8  1  0
  6  9  1  0
  8 10  1  0
  8 11  2  0
  9 12  2  0
  9 13  1  0
  7 14  1  0
  7 15  1  0
 10 16  1  0
 13 17  2  0
 12 18  1  0
 14 19  2  0
 14 20  1  0
 21 15  1  6
 16 22  1  0
 17 23  1  0
 18 23  2  0
 19 24  1  0
 20 25  2  0
 21 26  1  0
 21 27  1  0
 24 28  2  0
 25 28  1  0
 29 26  1  6
 27 30  1  0
 28 31  1  0
 30 32  1  1
 29 33  1  0
 30 33  1  0
 29 34  1  0
 29 35  1  0
 31 36  1  0
 31 37  1  0
 31 38  1  0
 32 39  1  0
 34 40  1  0
 34 41  1  0
 35 42  1  0
 42 43  1  0
 39 44  2  0
 40 45  1  0
 40 46  2  0
 39 47  1  0
 41 48  1  0
 42 48  1  0
 43 49  2  3
 47 50  2  0
 47 51  1  0
 45 52  1  0
 50 53  1  0
 51 54  2  0
 55 52  1  1
 53 56  2  0
 54 56  1  0
 55 57  1  0
 55 58  1  0
 57 59  1  0
 58 60  1  0
 58 61  2  0
 59 62  1  0
 62 63  1  0
 62 64  2  0
M  END
