x0981-x0426-x3110-x2193
     RDKit          3D

 64 67  0  0  0  0  0  0  0  0999 V2000
    8.0470    1.4020   23.4020 N   0  0  0  0  0  0  0  0  0  0  0  0
    8.9400    2.4630   23.8410 C   0  0  0  0  0  0  0  0  0  0  0  0
   10.4080    2.1470   23.6000 C   0  0  0  0  0  0  0  0  0  0  0  0
    7.8670    1.0830   22.0690 C   0  0  0  0  0  0  0  0  0  0  0  0
    8.6690    1.6320   21.1020 O   0  0  0  0  0  0  0  0  0  0  0  0
    6.6950    0.0870   21.8260 C   0  0  2  0  0  0  0  0  0  0  0  0
    7.1180   -1.2910   22.2010 N   0  0  0  0  0  0  0  0  0  0  0  0
   11.2280    3.3920   23.4740 C   0  0  0  0  0  0  0  0  0  0  0  0
    6.0990    0.3770   20.4420 C   0  0  0  0  0  0  0  0  0  0  0  0
   12.0510    3.3330   22.4050 O   0  0  0  0  0  0  0  0  0  0  0  0
   11.1450    4.3380   24.2570 O   0  0  0  0  0  0  0  0  0  0  0  0
    6.8030   -2.3600   21.5150 C   0  0  0  0  0  0  0  0  0  0  0  0
    4.8380    0.8970   20.2360 C   0  0  0  0  0  0  0  0  0  0  0  0
    6.9020    0.1070   19.3510 C   0  0  0  0  0  0  0  0  0  0  0  0
    8.4590   -1.4320   22.6610 C   0  0  0  0  0  0  0  0  0  0  0  0
   12.3940    4.5510   21.9260 C   0  0  0  0  0  0  0  0  0  0  0  0
    3.8020    1.2240   21.3030 C   0  0  0  0  0  0  0  0  0  0  0  0
    5.7960   -3.2560   21.9240 C   0  0  0  0  0  0  0  0  0  0  0  0
    6.5380    0.3450   18.0680 N   0  0  0  0  0  0  0  0  0  0  0  0
    4.4460    1.1530   18.9330 C   0  0  0  0  0  0  0  0  0  0  0  0
    9.6510   -1.0180   21.8080 C   0  0  0  0  0  0  0  0  0  0  0  0
    8.7300   -1.9470   23.8750 C   0  0  0  0  0  0  0  0  0  0  0  0
   13.4160    5.1450   22.8590 C   0  0  0  0  0  0  0  0  0  0  0  0
    4.2630    2.0800   22.3190 C   0  0  0  0  0  0  0  0  0  0  0  0
    6.2060   -4.7500   21.7370 C   0  0  1  0  0  0  0  0  0  0  0  0
    5.3190    0.8710   17.8940 C   0  0  0  0  0  0  0  0  0  0  0  0
   10.9380   -1.1690   22.3050 C   0  0  0  0  0  0  0  0  0  0  0  0
    9.9800   -2.0620   24.3160 C   0  0  0  0  0  0  0  0  0  0  0  0
    7.6630   -2.4420   24.8180 C   0  0  0  0  0  0  0  0  0  0  0  0
    3.2410    2.6600   22.9930 N   0  0  0  0  0  0  0  0  0  0  0  0
    5.2660   -5.6650   22.2250 N   0  0  0  0  0  0  0  0  0  0  0  0
    6.4430   -5.0670   20.2560 C   0  0  0  0  0  0  0  0  0  0  0  0
   11.0940   -1.6960   23.5880 C   0  0  0  0  0  0  0  0  0  0  0  0
    7.9180   -3.8340   25.2770 N   0  0  0  0  0  0  0  0  0  0  0  0
   12.4520   -1.8800   24.1890 C   0  0  0  0  0  0  0  0  0  0  0  0
    2.2490    1.8760   23.7400 C   0  0  0  0  0  0  0  0  0  0  0  0
    4.5220   -5.4650   23.3560 C   0  0  0  0  0  0  0  0  0  0  0  0
    5.6960   -6.2800   19.7830 C   0  0  0  0  0  0  0  0  0  0  0  0
    8.0400   -3.9160   26.7190 C   0  0  0  0  0  0  0  0  0  0  0  0
    9.0990   -4.5280   24.7410 C   0  0  0  0  0  0  0  0  0  0  0  0
   12.8160   -0.7750   24.8220 C   0  0  0  0  0  0  0  0  0  0  0  0
   13.4800   -2.1970   23.1070 C   0  0  0  0  0  0  0  0  0  0  0  0
   12.3470   -3.0710   25.1400 C   0  0  0  0  0  0  0  0  0  0  0  0
    2.2620    0.4530   23.7590 O   0  0  0  0  0  0  0  0  0  0  0  0
    3.1560   -6.1570   23.4820 C   0  0  1  0  0  0  0  0  0  0  0  0
    4.9390   -4.7340   24.2470 O   0  0  0  0  0  0  0  0  0  0  0  0
    1.2080    2.6190   24.5010 C   0  0  0  0  0  0  0  0  0  0  0  0
    7.8300   -5.1980   27.1600 C   0  0  0  0  0  0  0  0  0  0  0  0
    9.1520   -5.8530   25.1630 C   0  0  0  0  0  0  0  0  0  0  0  0
    3.0040   -7.2000   22.6070 N   0  0  0  0  0  0  0  0  0  0  0  0
    2.7910   -6.2960   24.8350 C   0  0  0  0  0  0  0  0  0  0  0  0
    1.4940    3.9020   25.2630 C   0  0  0  0  0  0  0  0  0  0  0  0
   -0.1070    2.1260   24.5290 C   0  0  0  0  0  0  0  0  0  0  0  0
    8.7640   -6.1510   26.5650 N   0  0  0  0  0  0  0  0  0  0  0  0
    2.7240    4.4440   25.2920 F   0  0  0  0  0  0  0  0  0  0  0  0
    1.5500   -7.4190   22.2140 C   0  0  0  0  0  0  0  0  0  0  0  0
    3.0870   -7.5720   25.2790 C   0  0  0  0  0  0  0  0  0  0  0  0
   -1.1050    2.8150   25.2420 C   0  0  0  0  0  0  0  0  0  0  0  0
    0.4680    4.5430   25.9500 C   0  0  0  0  0  0  0  0  0  0  0  0
    1.2830   -8.7260   21.4200 C   0  0  0  0  0  0  0  0  0  0  0  0
    0.5010   -6.4950   22.5010 O   0  0  0  0  0  0  0  0  0  0  0  0
    2.4310   -8.1810   26.3740 N   0  0  0  0  0  0  0  0  0  0  0  0
    4.1080   -8.2430   24.5630 O   0  0  0  0  0  0  0  0  0  0  0  0
   -0.8290    4.0000   25.9390 C   0  0  0  0  0  0  0  0  0  0  0  0
  1  2  1  0
  2  3  1  0
  1  4  1  0
  4  5  2  0
  6  4  1  6
  6  7  1  0
  3  8  1  0
  6  9  1  0
  8 10  1  0
  8 11  2  0
  7 12  1  0
  9 13  1  0
  9 14  2  0
  7 15  1  0
 10 16  1  0
 13 17  1  0
 12 18  1  0
 14 19  1  0
 13 20  2  0
 15 21  2  0
 15 22  1  0
 16 23  1  0
 17 24  1  0
 25 18  1  6
 19 26  2  0
 20 26  1  0
 21 27  1  0
 22 28  2  0
 22 29  1  0
 24 30  1  0
 25 31  1  0
 25 32  1  0
 27 33  2  0
 28 33  1  0
 29 34  1  0
 33 35  1  0
 30 36  1  0
 31 37  1  0
 32 38  2  3
 34 39  1  0
 34 40  1  0
 35 41  1  0
 35 42  1  0
 35 43  1  0
 36 44  2  0
 37 45  1  0
 37 46  2  0
 36 47  1  0
 39 48  1  0
 40 49  1  0
 45 50  1  0
 45 51  1  1
 47 52  2  0
 47 53  1  0
 48 54  1  0
 49 54  1  0
 52 55  1  0
 50 56  1  0
 51 57  1  0
 53 58  2  0
 52 59  1  0
 56 60  1  0
 56 61  2  0
 57 62  1  0
 57 63  2  0
 58 64  1  0
 59 64  2  0
M  END
