x0981-x0820-x3113-x3115
     RDKit          3D

 53 57  0  0  0  0  0  0  0  0999 V2000
    1.2400   -8.6020   21.5100 C   0  0  0  0  0  0  0  0  0  0  0  0
    1.4430   -7.2820   22.2150 C   0  0  0  0  0  0  0  0  0  0  0  0
    2.7260   -7.0430   22.6810 N   0  0  0  0  0  0  0  0  0  0  0  0
    0.5180   -6.4820   22.3280 O   0  0  0  0  0  0  0  0  0  0  0  0
    3.0570   -5.8250   23.4640 C   0  0  1  0  0  0  0  0  0  0  0  0
    2.7060   -6.2370   24.9020 C   0  0  0  0  0  0  0  0  0  0  0  0
    4.5860   -5.4460   23.2350 C   0  0  1  0  0  0  0  0  0  0  0  0
    4.8000   -4.5690   22.2090 N   0  0  0  0  0  0  0  0  0  0  0  0
    3.1440   -7.5430   25.2040 C   0  0  0  0  0  0  0  0  0  0  0  0
    5.3520   -4.7780   24.3730 C   0  0  0  0  0  0  0  0  0  0  0  0
    2.5630   -8.1270   26.2850 N   0  0  0  0  0  0  0  0  0  0  0  0
    3.9890   -8.1080   24.5370 O   0  0  0  0  0  0  0  0  0  0  0  0
    6.2130   -4.4240   21.8530 C   0  0  1  0  0  0  0  0  0  0  0  0
    6.4500   -3.8270   24.2240 C   0  0  0  0  0  0  0  0  0  0  0  0
    5.2050   -5.0010   25.7450 C   0  0  0  0  0  0  0  0  0  0  0  0
    6.4260   -4.7430   20.3290 C   0  0  0  0  0  0  0  0  0  0  0  0
    6.9610   -3.3960   22.8160 C   0  0  2  0  0  0  0  0  0  0  0  0
    6.9920   -3.4710   25.6500 C   0  0  1  0  0  0  0  0  0  0  0  0
    6.2190   -4.2130   26.4960 C   0  0  0  0  0  0  0  0  0  0  0  0
    5.7130   -6.0510   19.9630 C   0  0  0  0  0  0  0  0  0  0  0  0
    7.6900   -2.1780   22.3690 C   0  0  1  0  0  0  0  0  0  0  0  0
    6.3140   -4.3300   27.8020 C   0  0  0  0  0  0  0  0  0  0  0  0
    8.4060   -4.0200   25.8410 C   0  0  0  0  0  0  0  0  0  0  0  0
    7.4060   -0.6970   21.7080 C   0  0  2  0  0  0  0  0  0  0  0  0
    7.6650   -4.5140   28.1330 C   0  0  0  0  0  0  0  0  0  0  0  0
    8.6280   -4.5190   27.1240 C   0  0  0  0  0  0  0  0  0  0  0  0
    9.1630   -2.1460   22.7650 C   0  0  0  0  0  0  0  0  0  0  0  0
    8.0180    0.5590   22.1210 C   0  0  0  0  0  0  0  0  0  0  0  0
    6.4830   -0.2030   20.6300 C   0  0  0  0  0  0  0  0  0  0  0  0
    9.9870   -2.0860   23.9190 C   0  0  0  0  0  0  0  0  0  0  0  0
    9.8660   -2.1950   21.5040 C   0  0  0  0  0  0  0  0  0  0  0  0
    8.1360    1.1520   23.3280 N   0  0  0  0  0  0  0  0  0  0  0  0
    8.5660    1.2770   21.0020 O   0  0  0  0  0  0  0  0  0  0  0  0
    5.1500    0.4990   20.7300 C   0  0  0  0  0  0  0  0  0  0  0  0
    6.9930   -0.3940   19.2090 C   0  0  0  0  0  0  0  0  0  0  0  0
   11.3590   -2.1790   21.3380 C   0  0  0  0  0  0  0  0  0  0  0  0
   11.3870   -2.0760   23.7360 C   0  0  0  0  0  0  0  0  0  0  0  0
    8.8810    2.3220   23.3160 C   0  0  1  0  0  0  0  0  0  0  0  0
   12.4040   -2.0320   24.7840 C   0  0  0  0  0  0  0  0  0  0  0  0
    6.3100    0.0580   17.9740 N   0  0  0  0  0  0  0  0  0  0  0  0
    4.4250    0.9680   19.5110 C   0  0  0  0  0  0  0  0  0  0  0  0
   12.0870   -2.1120   22.5700 C   0  0  0  0  0  0  0  0  0  0  0  0
   10.1460    2.2550   22.6880 C   0  0  0  0  0  0  0  0  0  0  0  0
   13.6400   -2.4260   24.3380 C   0  0  0  0  0  0  0  0  0  0  0  0
   11.8980   -3.2180   25.6180 C   0  0  0  0  0  0  0  0  0  0  0  0
   12.3650   -0.7630   25.2950 C   0  0  0  0  0  0  0  0  0  0  0  0
    8.1910    3.4720   22.8120 C   0  0  0  0  0  0  0  0  0  0  0  0
    5.0020    0.7600   18.0930 C   0  0  0  0  0  0  0  0  0  0  0  0
   11.2350    2.8110   23.4570 C   0  0  0  0  0  0  0  0  0  0  0  0
    8.7490    4.7520   23.2100 O   0  0  0  0  0  0  0  0  0  0  0  0
   11.5860    4.1610   23.0770 O   0  0  0  0  0  0  0  0  0  0  0  0
    8.2800    5.8460   22.4430 C   0  0  0  0  0  0  0  0  0  0  0  0
   12.9740    4.3490   22.7930 C   0  0  0  0  0  0  0  0  0  0  0  0
  1  2  1  0
  2  3  1  0
  2  4  2  0
  3  5  1  0
  5  6  1  1
  5  7  1  0
  7  8  1  6
  6  9  1  0
  7 10  1  0
  9 11  1  0
  9 12  2  0
  8 13  1  0
 10 14  2  0
 10 15  1  0
 13 16  1  6
 13 17  1  0
 17 14  1  1
 14 18  1  0
 15 19  2  0
 18 19  1  0
 16 20  2  3
 17 21  1  0
 19 22  1  0
 18 23  1  6
 21 24  1  0
 22 25  2  0
 23 26  2  0
 25 26  1  0
 21 27  1  1
 24 28  1  1
 24 29  1  0
 27 30  2  0
 27 31  1  0
 28 32  1  0
 28 33  2  0
 29 34  2  0
 29 35  1  0
 31 36  2  0
 30 37  1  0
 32 38  1  0
 37 39  1  0
 35 40  2  0
 34 41  1  0
 36 42  1  0
 37 42  2  0
 38 43  1  6
 39 44  1  0
 39 45  1  0
 39 46  1  0
 38 47  1  0
 40 48  1  0
 41 48  2  0
 43 49  1  0
 47 50  1  0
 49 51  1  0
 50 52  1  0
 51 53  1  0
M  END
