x0981-x0540-x3110
     RDKit          3D

 57 59  0  0  0  0  0  0  0  0999 V2000
    8.0350    1.5220   23.3420 N   0  0  0  0  0  0  0  0  0  0  0  0
    8.9150    2.6090   23.6450 C   0  0  0  0  0  0  0  0  0  0  0  0
   10.4250    2.2780   23.5950 C   0  0  0  0  0  0  0  0  0  0  0  0
    7.8440    0.9990   22.0140 C   0  0  0  0  0  0  0  0  0  0  0  0
    8.5140    1.4290   21.0490 O   0  0  0  0  0  0  0  0  0  0  0  0
    6.7620   -0.0830   21.8380 C   0  0  2  0  0  0  0  0  0  0  0  0
    7.0840   -1.3490   22.1650 N   0  0  0  0  0  0  0  0  0  0  0  0
   11.3240    3.4810   23.4230 C   0  0  0  0  0  0  0  0  0  0  0  0
    6.2490    0.2400   20.3980 C   0  0  0  0  0  0  0  0  0  0  0  0
   12.0570    3.3510   22.4680 O   0  0  0  0  0  0  0  0  0  0  0  0
   11.2950    4.4610   24.1540 O   0  0  0  0  0  0  0  0  0  0  0  0
    6.8340   -2.5340   21.5300 C   0  0  0  0  0  0  0  0  0  0  0  0
    5.0230    0.8680   20.2600 C   0  0  0  0  0  0  0  0  0  0  0  0
    6.9230   -0.0400   19.2070 C   0  0  0  0  0  0  0  0  0  0  0  0
    8.4020   -1.4660   22.6850 C   0  0  0  0  0  0  0  0  0  0  0  0
   12.3850    4.5780   21.8190 C   0  0  0  0  0  0  0  0  0  0  0  0
    4.2100    1.1840   21.4850 C   0  0  0  0  0  0  0  0  0  0  0  0
    5.7240   -3.3510   21.8170 C   0  0  0  0  0  0  0  0  0  0  0  0
    6.4620    0.2830   17.9760 N   0  0  0  0  0  0  0  0  0  0  0  0
    4.5350    1.2040   19.0550 C   0  0  0  0  0  0  0  0  0  0  0  0
    9.4250   -1.7660   21.7970 C   0  0  0  0  0  0  0  0  0  0  0  0
    8.7300   -1.2970   24.0120 C   0  0  0  0  0  0  0  0  0  0  0  0
   13.6530    5.1950   22.3880 C   0  0  0  0  0  0  0  0  0  0  0  0
    4.8860    2.0740   22.3260 C   0  0  0  0  0  0  0  0  0  0  0  0
    6.1330   -4.7070   21.6560 C   0  0  1  0  0  0  0  0  0  0  0  0
    5.2770    0.9070   17.9240 C   0  0  0  0  0  0  0  0  0  0  0  0
   10.7530   -1.8890   22.2230 C   0  0  0  0  0  0  0  0  0  0  0  0
   10.0280   -1.4080   24.4560 C   0  0  0  0  0  0  0  0  0  0  0  0
    4.0620    2.9900   22.8370 N   0  0  0  0  0  0  0  0  0  0  0  0
    5.1420   -5.6650   22.2440 N   0  0  0  0  0  0  0  0  0  0  0  0
    6.3960   -5.0810   20.2430 C   0  0  0  0  0  0  0  0  0  0  0  0
   11.0640   -1.7060   23.5700 C   0  0  0  0  0  0  0  0  0  0  0  0
   12.4740   -1.8010   24.0620 C   0  0  0  0  0  0  0  0  0  0  0  0
    2.9080    2.4720   23.5740 C   0  0  0  0  0  0  0  0  0  0  0  0
    4.4680   -5.4050   23.3860 C   0  0  0  0  0  0  0  0  0  0  0  0
    5.7560   -6.1740   19.8540 C   0  0  0  0  0  0  0  0  0  0  0  0
   12.7080   -0.5320   24.8460 C   0  0  0  0  0  0  0  0  0  0  0  0
   13.4420   -1.9790   22.9420 C   0  0  0  0  0  0  0  0  0  0  0  0
   12.7480   -2.9620   24.9990 C   0  0  0  0  0  0  0  0  0  0  0  0
    2.9660    1.5530   24.4110 O   0  0  0  0  0  0  0  0  0  0  0  0
    1.6750    3.2060   23.1670 N   0  0  0  0  0  0  0  0  0  0  0  0
    3.0530   -5.9580   23.5830 C   0  0  1  0  0  0  0  0  0  0  0  0
    5.0010   -4.7170   24.2510 O   0  0  0  0  0  0  0  0  0  0  0  0
    2.7130   -7.1230   22.7120 N   0  0  0  0  0  0  0  0  0  0  0  0
    2.8690   -6.2640   24.9420 C   0  0  0  0  0  0  0  0  0  0  0  0
    0.5320    3.2890   24.0520 C   0  0  0  0  0  0  0  0  0  0  0  0
    1.4710   -7.3580   22.1980 C   0  0  0  0  0  0  0  0  0  0  0  0
    3.1880   -7.5930   25.2310 C   0  0  0  0  0  0  0  0  0  0  0  0
    0.4670    4.5670   24.6060 C   0  0  0  0  0  0  0  0  0  0  0  0
   -0.6910    2.7920   23.2990 C   0  0  0  0  0  0  0  0  0  0  0  0
    1.2970   -8.5870   21.5360 C   0  0  0  0  0  0  0  0  0  0  0  0
    0.3040   -6.5300   22.1970 O   0  0  0  0  0  0  0  0  0  0  0  0
    2.4560   -8.2350   26.3090 N   0  0  0  0  0  0  0  0  0  0  0  0
    4.0480   -8.1630   24.5980 O   0  0  0  0  0  0  0  0  0  0  0  0
   -0.7740    5.0220   25.0530 C   0  0  0  0  0  0  0  0  0  0  0  0
   -1.8820    3.3430   23.7910 C   0  0  0  0  0  0  0  0  0  0  0  0
   -1.8800    4.6510   24.2850 C   0  0  0  0  0  0  0  0  0  0  0  0
  1  2  1  0
  2  3  1  0
  1  4  1  0
  4  5  2  0
  6  4  1  6
  6  7  1  0
  3  8  1  0
  6  9  1  0
  8 10  1  0
  8 11  2  0
  7 12  1  0
  9 13  1  0
  9 14  2  0
  7 15  1  0
 10 16  1  0
 13 17  1  0
 12 18  1  0
 14 19  1  0
 13 20  2  0
 15 21  2  0
 15 22  1  0
 16 23  1  0
 17 24  1  0
 25 18  1  6
 19 26  2  0
 20 26  1  0
 21 27  1  0
 22 28  2  0
 24 29  1  0
 25 30  1  0
 25 31  1  0
 27 32  2  0
 28 32  1  0
 32 33  1  0
 29 34  1  0
 30 35  1  0
 31 36  2  3
 33 37  1  0
 33 38  1  0
 33 39  1  0
 34 40  2  0
 34 41  1  0
 35 42  1  0
 35 43  2  0
 42 44  1  0
 42 45  1  1
 41 46  1  0
 44 47  1  0
 45 48  1  0
 46 49  1  0
 46 50  1  0
 47 51  1  0
 47 52  2  0
 48 53  1  0
 48 54  2  0
 49 55  1  0
 50 56  1  0
 55 57  1  0
 56 57  1  0
M  END
