x0981-x0107-x0540-x3113-x3110
     RDKit          3D

 58 61  0  0  0  0  0  0  0  0999 V2000
    8.1530    1.0390   23.1390 N   0  0  0  0  0  0  0  0  0  0  0  0
    8.9710    2.2780   23.1940 C   0  0  0  0  0  0  0  0  0  0  0  0
   10.3460    2.0770   23.5300 C   0  0  0  0  0  0  0  0  0  0  0  0
    8.3500   -0.0680   22.1400 C   0  0  2  0  0  0  0  0  0  0  0  0
    9.1660    0.2910   21.2750 O   0  0  0  0  0  0  0  0  0  0  0  0
    7.0110   -0.4410   21.5780 C   0  0  2  0  0  0  0  0  0  0  0  0
    9.1930   -1.3600   22.8840 C   0  0  0  0  0  0  0  0  0  0  0  0
    7.1730   -1.8490   21.4510 N   0  0  0  0  0  0  0  0  0  0  0  0
   11.1590    3.3710   23.3730 C   0  0  0  0  0  0  0  0  0  0  0  0
    6.3530    0.1350   20.2900 C   0  0  0  0  0  0  0  0  0  0  0  0
    9.5680   -2.1780   21.7240 C   0  0  0  0  0  0  0  0  0  0  0  0
   12.0070    3.2650   22.4990 O   0  0  0  0  0  0  0  0  0  0  0  0
   10.9460    4.5420   24.1400 O   0  0  0  0  0  0  0  0  0  0  0  0
    6.2480   -2.7490   22.0700 C   0  0  0  0  0  0  0  0  0  0  0  0
    5.1330    0.7850   20.3100 C   0  0  0  0  0  0  0  0  0  0  0  0
    6.9550    0.0170   19.0370 C   0  0  0  0  0  0  0  0  0  0  0  0
   10.8470   -2.1940   22.2130 C   0  0  0  0  0  0  0  0  0  0  0  0
    8.3650   -1.7960   22.0590 C   0  0  0  0  0  0  0  0  0  0  0  0
   12.3590    4.4510   21.9560 C   0  0  0  0  0  0  0  0  0  0  0  0
    4.3210    0.9770   21.5630 C   0  0  0  0  0  0  0  0  0  0  0  0
    6.8200   -3.8980   22.5400 C   0  0  0  0  0  0  0  0  0  0  0  0
    6.4650    0.4940   17.8700 N   0  0  0  0  0  0  0  0  0  0  0  0
    4.5900    1.2960   19.1310 C   0  0  0  0  0  0  0  0  0  0  0  0
   11.0350   -1.6640   23.5040 C   0  0  0  0  0  0  0  0  0  0  0  0
    8.4440   -1.1850   23.5430 C   0  0  0  0  0  0  0  0  0  0  0  0
   13.4020    5.1470   22.8290 C   0  0  0  0  0  0  0  0  0  0  0  0
   12.4180   -1.6420   24.1290 C   0  0  0  0  0  0  0  0  0  0  0  0
    5.0520    1.7750   22.4470 C   0  0  0  0  0  0  0  0  0  0  0  0
    6.4790   -5.1060   21.8900 C   0  0  1  0  0  0  0  0  0  0  0  0
    5.2950    1.1310   17.9380 C   0  0  0  0  0  0  0  0  0  0  0  0
    9.7370   -1.1310   24.2180 C   0  0  0  0  0  0  0  0  0  0  0  0
   12.4520   -0.4910   25.1020 C   0  0  0  0  0  0  0  0  0  0  0  0
   13.3930   -1.3860   22.9990 C   0  0  0  0  0  0  0  0  0  0  0  0
   12.8740   -2.8900   24.8930 C   0  0  0  0  0  0  0  0  0  0  0  0
    4.1270    2.8200   22.9320 N   0  0  0  0  0  0  0  0  0  0  0  0
    5.2390   -5.7990   22.3870 N   0  0  0  0  0  0  0  0  0  0  0  0
    6.4820   -5.0930   20.3470 C   0  0  0  0  0  0  0  0  0  0  0  0
    2.9330    2.5120   23.5180 C   0  0  0  0  0  0  0  0  0  0  0  0
    4.3740   -5.2660   23.3350 C   0  0  0  0  0  0  0  0  0  0  0  0
    5.6640   -6.2500   19.8000 C   0  0  0  0  0  0  0  0  0  0  0  0
    2.8790    1.5120   24.4500 O   0  0  0  0  0  0  0  0  0  0  0  0
    1.8090    3.2180   23.1620 N   0  0  0  0  0  0  0  0  0  0  0  0
    3.0260   -5.9500   23.6040 C   0  0  1  0  0  0  0  0  0  0  0  0
    4.6640   -4.2540   23.9590 O   0  0  0  0  0  0  0  0  0  0  0  0
    2.7940   -7.0540   22.7960 N   0  0  0  0  0  0  0  0  0  0  0  0
    2.6810   -6.3230   25.0690 C   0  0  0  0  0  0  0  0  0  0  0  0
    0.6550    3.3040   24.0460 C   0  0  0  0  0  0  0  0  0  0  0  0
    1.4450   -7.2860   22.2370 C   0  0  0  0  0  0  0  0  0  0  0  0
    3.0230   -7.6970   25.2760 C   0  0  0  0  0  0  0  0  0  0  0  0
    0.5530    4.6180   24.5450 C   0  0  0  0  0  0  0  0  0  0  0  0
   -0.4830    2.8000   23.3850 C   0  0  0  0  0  0  0  0  0  0  0  0
    1.2660   -8.6280   21.4810 C   0  0  0  0  0  0  0  0  0  0  0  0
    0.5310   -6.4710   22.3390 O   0  0  0  0  0  0  0  0  0  0  0  0
    2.4060   -8.5030   26.1640 N   0  0  0  0  0  0  0  0  0  0  0  0
    3.9420   -8.1660   24.6040 O   0  0  0  0  0  0  0  0  0  0  0  0
   -0.6960    4.9700   25.0490 C   0  0  0  0  0  0  0  0  0  0  0  0
   -1.7440    3.3470   23.6520 C   0  0  0  0  0  0  0  0  0  0  0  0
   -1.8210    4.5620   24.3410 C   0  0  0  0  0  0  0  0  0  0  0  0
  1  2  1  0
  2  3  1  0
  1  4  1  0
  4  5  1  6
  4  6  1  0
  4  7  1  0
  6  8  1  0
  3  9  1  0
  6 10  1  6
  7 11  1  0
  9 12  1  0
  9 13  2  0
  8 14  1  0
 10 15  1  0
 10 16  2  0
 11 17  2  0
  8 18  1  0
 11 18  1  0
 12 19  1  0
 15 20  1  0
 14 21  1  0
 16 22  1  0
 15 23  2  0
 17 24  1  0
 18 25  2  0
 19 26  1  0
 24 27  1  0
 20 28  1  0
 29 21  1  1
 22 30  2  0
 23 30  1  0
 24 31  2  0
 25 31  1  0
 27 32  1  0
 27 33  1  0
 27 34  1  0
 28 35  1  0
 29 36  1  0
 29 37  1  0
 35 38  1  0
 36 39  1  0
 37 40  2  3
 38 41  2  0
 38 42  1  0
 39 43  1  0
 39 44  2  0
 43 45  1  0
 43 46  1  1
 42 47  1  0
 45 48  1  0
 46 49  1  0
 47 50  1  0
 47 51  1  0
 48 52  1  0
 48 53  2  0
 49 54  1  0
 49 55  2  0
 50 56  1  0
 51 57  1  0
 56 58  1  0
 57 58  1  0
M  END
