x0981-x3110-x0689
     RDKit          3D

 56 59  0  0  0  0  0  0  0  0999 V2000
    8.1330    1.4350   23.4090 N   0  0  0  0  0  0  0  0  0  0  0  0
    9.0810    2.3780   23.8020 C   0  0  0  0  0  0  0  0  0  0  0  0
   10.4160    2.1620   23.5720 C   0  0  0  0  0  0  0  0  0  0  0  0
    7.9090    1.1100   21.9960 C   0  0  0  0  0  0  0  0  0  0  0  0
    8.6730    1.5520   21.1200 O   0  0  0  0  0  0  0  0  0  0  0  0
    6.7770    0.3360   21.7670 C   0  0  2  0  0  0  0  0  0  0  0  0
    6.9650   -1.1100   22.0760 N   0  0  0  0  0  0  0  0  0  0  0  0
   11.1330    3.3410   23.4110 C   0  0  0  0  0  0  0  0  0  0  0  0
    6.2200    0.6550   20.4160 C   0  0  0  0  0  0  0  0  0  0  0  0
   11.8850    3.2360   22.4540 O   0  0  0  0  0  0  0  0  0  0  0  0
   11.0350    4.3580   24.1140 O   0  0  0  0  0  0  0  0  0  0  0  0
    6.3250   -1.9740   21.1540 C   0  0  0  0  0  0  0  0  0  0  0  0
    5.1250    1.4890   20.2620 C   0  0  0  0  0  0  0  0  0  0  0  0
    6.9250    0.0220   19.2000 C   0  0  0  0  0  0  0  0  0  0  0  0
    8.2700   -1.3250   22.6020 C   0  0  0  0  0  0  0  0  0  0  0  0
   12.3930    4.4850   21.9840 C   0  0  0  0  0  0  0  0  0  0  0  0
    5.5620   -3.0720   21.6090 C   0  0  0  0  0  0  0  0  0  0  0  0
    6.3830    0.3620   17.8760 N   0  0  0  0  0  0  0  0  0  0  0  0
    4.6750    1.7550   18.9670 C   0  0  0  0  0  0  0  0  0  0  0  0
    9.3240   -1.6370   21.7700 C   0  0  0  0  0  0  0  0  0  0  0  0
    8.6100   -1.2050   24.1010 C   0  0  0  0  0  0  0  0  0  0  0  0
   13.4480    5.2690   22.7910 C   0  0  0  0  0  0  0  0  0  0  0  0
    5.2340    1.2530   17.8020 C   0  0  0  0  0  0  0  0  0  0  0  0
   10.6320   -1.8180   22.2020 C   0  0  0  0  0  0  0  0  0  0  0  0
    9.9530   -1.3960   24.4580 C   0  0  0  0  0  0  0  0  0  0  0  0
    6.1690   -4.5430   21.7370 C   0  0  2  0  0  0  0  0  0  0  0  0
    6.5940   -5.0180   20.2930 C   0  0  0  0  0  0  0  0  0  0  0  0
   10.9600   -1.6880   23.5410 C   0  0  0  0  0  0  0  0  0  0  0  0
    5.1750   -5.6460   22.2130 C   0  0  0  0  0  0  0  0  0  0  0  0
    7.2000   -4.7490   22.8490 C   0  0  0  0  0  0  0  0  0  0  0  0
   12.3710   -1.8180   24.0850 C   0  0  0  0  0  0  0  0  0  0  0  0
    5.8350   -6.2190   19.7700 C   0  0  0  0  0  0  0  0  0  0  0  0
    4.3330   -5.3200   23.4330 C   0  0  2  0  0  0  0  0  0  0  0  0
    6.5090   -4.3430   24.1660 C   0  0  0  0  0  0  0  0  0  0  0  0
   12.7130   -0.6750   24.7920 C   0  0  0  0  0  0  0  0  0  0  0  0
   13.3430   -1.9550   22.9040 C   0  0  0  0  0  0  0  0  0  0  0  0
   12.7150   -3.0060   24.9800 C   0  0  0  0  0  0  0  0  0  0  0  0
    3.0080   -6.0820   23.5490 C   0  0  1  0  0  0  0  0  0  0  0  0
    3.9680   -3.9660   23.2760 O   0  0  0  0  0  0  0  0  0  0  0  0
    5.3460   -5.2420   24.5360 N   0  0  0  0  0  0  0  0  0  0  0  0
    2.8260   -7.1590   22.5760 N   0  0  0  0  0  0  0  0  0  0  0  0
    2.6180   -6.4340   24.8350 C   0  0  0  0  0  0  0  0  0  0  0  0
    4.8250   -4.7780   26.1070 S   0  0  0  0  0  0  0  0  0  0  0  0
    1.5670   -7.4680   22.1640 C   0  0  0  0  0  0  0  0  0  0  0  0
    2.9630   -7.7530   25.2780 C   0  0  0  0  0  0  0  0  0  0  0  0
    4.2360   -5.9180   26.7840 O   0  0  0  0  0  0  0  0  0  0  0  0
    5.8610   -4.0490   26.7870 O   0  0  0  0  0  0  0  0  0  0  0  0
    3.6240   -3.5890   25.9680 C   0  0  0  0  0  0  0  0  0  0  0  0
    1.1980   -8.7320   21.4070 C   0  0  0  0  0  0  0  0  0  0  0  0
    0.5620   -6.7620   22.3050 O   0  0  0  0  0  0  0  0  0  0  0  0
    2.3290   -8.4380   26.2790 N   0  0  0  0  0  0  0  0  0  0  0  0
    4.0520   -8.2280   24.5260 O   0  0  0  0  0  0  0  0  0  0  0  0
    4.0310   -1.9100   25.9590 S   0  0  0  0  0  0  0  0  0  0  0  0
    2.2440   -3.7780   25.8490 C   0  0  0  0  0  0  0  0  0  0  0  0
    1.5000   -2.4760   25.7420 C   0  0  0  0  0  0  0  0  0  0  0  0
    2.3940   -1.4290   25.7950 C   0  0  0  0  0  0  0  0  0  0  0  0
  1  2  1  0
  2  3  1  0
  1  4  1  0
  4  5  2  0
  6  4  1  6
  6  7  1  0
  3  8  1  0
  6  9  1  0
  8 10  1  0
  8 11  2  0
  7 12  1  0
  9 13  2  0
  9 14  1  0
  7 15  1  0
 10 16  1  0
 12 17  1  0
 14 18  2  0
 13 19  1  0
 15 20  2  0
 15 21  1  0
 16 22  1  0
 18 23  1  0
 19 23  2  0
 20 24  1  0
 21 25  2  0
 26 17  1  6
 26 27  1  0
 24 28  2  0
 25 28  1  0
 26 29  1  0
 26 30  1  0
 28 31  1  0
 27 32  2  3
 29 33  1  0
 30 34  1  0
 31 35  1  0
 31 36  1  0
 31 37  1  0
 33 38  1  0
 33 39  1  6
 33 40  1  0
 34 40  1  0
 38 41  1  0
 38 42  1  1
 40 43  1  0
 41 44  1  0
 42 45  1  0
 43 46  2  0
 43 47  2  0
 43 48  1  0
 44 49  1  0
 44 50  2  0
 45 51  1  0
 45 52  2  0
 48 53  1  0
 48 54  2  0
 54 55  1  0
 53 56  1  0
 55 56  2  0
M  END
