x0981-x2776-x0734
     RDKit          3D

 60 65  0  0  0  0  0  0  0  0999 V2000
    1.2820   -8.8530   21.1240 C   0  0  0  0  0  0  0  0  0  0  0  0
    1.2850   -7.6290   22.0010 C   0  0  0  0  0  0  0  0  0  0  0  0
    2.4660   -7.3340   22.6390 N   0  0  0  0  0  0  0  0  0  0  0  0
    0.2950   -6.9200   22.1220 O   0  0  0  0  0  0  0  0  0  0  0  0
    2.5320   -6.1680   23.3970 C   0  0  1  0  0  0  0  0  0  0  0  0
    2.2530   -6.4770   24.8650 C   0  0  0  0  0  0  0  0  0  0  0  0
    3.8780   -5.4340   23.2680 C   0  0  0  0  0  0  0  0  0  0  0  0
    4.5070   -4.9100   22.0730 N   0  0  0  0  0  0  0  0  0  0  0  0
    4.7010   -5.1130   24.4100 N   0  0  0  0  0  0  0  0  0  0  0  0
    2.9040   -7.8460   25.2240 C   0  0  0  0  0  0  0  0  0  0  0  0
    2.2910   -8.5390   26.2580 N   0  0  0  0  0  0  0  0  0  0  0  0
    3.8810   -8.2350   24.6170 O   0  0  0  0  0  0  0  0  0  0  0  0
    5.9010   -4.8310   22.3500 C   0  0  2  0  0  0  0  0  0  0  0  0
    5.7360   -4.3440   23.7210 C   0  0  2  0  0  0  0  0  0  0  0  0
    6.7190   -3.8280   21.4950 C   0  0  1  0  0  0  0  0  0  0  0  0
    7.0330   -4.4100   24.2330 N   0  0  0  0  0  0  0  0  0  0  0  0
    6.7330   -4.5490   20.1430 C   0  0  0  0  0  0  0  0  0  0  0  0
    6.2510   -2.2560   21.5290 C   0  0  0  0  0  0  0  0  0  0  0  0
    7.3200   -4.9530   25.4330 C   0  0  0  0  0  0  0  0  0  0  0  0
    7.9700   -3.5490   23.5590 C   0  0  0  0  0  0  0  0  0  0  0  0
    8.0520   -3.9830   22.2460 C   0  0  0  0  0  0  0  0  0  0  0  0
    5.9140   -5.8650   19.9640 C   0  0  0  0  0  0  0  0  0  0  0  0
    7.1520   -1.1670   21.7010 N   0  0  0  0  0  0  0  0  0  0  0  0
    6.4900   -4.9150   26.5580 C   0  0  0  0  0  0  0  0  0  0  0  0
    8.6970   -5.6450   25.4670 C   0  0  0  0  0  0  0  0  0  0  0  0
    6.5930    0.2110   21.5880 C   0  0  1  0  0  0  0  0  0  0  0  0
    5.1780   -4.3090   26.6030 N   0  0  0  0  0  0  0  0  0  0  0  0
    8.4800   -1.3110   22.3420 C   0  0  0  0  0  0  0  0  0  0  0  0
    9.1580   -6.2820   26.7680 C   0  0  0  0  0  0  0  0  0  0  0  0
    6.8790   -5.4750   27.7480 C   0  0  0  0  0  0  0  0  0  0  0  0
    7.7260    1.0320   21.8850 C   0  0  0  0  0  0  0  0  0  0  0  0
    4.2460   -5.1240   26.5940 O   0  0  0  0  0  0  0  0  0  0  0  0
    5.0590   -3.1630   27.0410 O   0  0  0  0  0  0  0  0  0  0  0  0
    6.1230    0.5800   20.2130 C   0  0  0  0  0  0  0  0  0  0  0  0
    9.5210   -1.8790   21.6900 C   0  0  0  0  0  0  0  0  0  0  0  0
    8.7760   -0.8510   23.7570 C   0  0  0  0  0  0  0  0  0  0  0  0
    8.2100   -6.1730   27.9290 C   0  0  0  0  0  0  0  0  0  0  0  0
    7.8090    1.8740   23.0810 N   0  0  0  0  0  0  0  0  0  0  0  0
    8.7860    1.1660   20.9680 O   0  0  0  0  0  0  0  0  0  0  0  0
    5.0210    1.3870   20.0910 C   0  0  0  0  0  0  0  0  0  0  0  0
    6.7590    0.1520   19.0520 C   0  0  0  0  0  0  0  0  0  0  0  0
   10.7740   -2.0330   22.2540 C   0  0  0  0  0  0  0  0  0  0  0  0
   10.0280   -1.0110   24.3170 C   0  0  0  0  0  0  0  0  0  0  0  0
    6.3320    0.5130   17.8220 N   0  0  0  0  0  0  0  0  0  0  0  0
    4.5510    1.7790   18.8250 C   0  0  0  0  0  0  0  0  0  0  0  0
    8.5090    3.1630   23.2180 C   0  0  0  0  0  0  0  0  0  0  0  0
   11.0340   -1.6110   23.5400 C   0  0  0  0  0  0  0  0  0  0  0  0
   12.4170   -1.8220   24.0290 C   0  0  2  0  0  0  0  0  0  0  0  0
    5.2520    1.3130   17.7490 C   0  0  0  0  0  0  0  0  0  0  0  0
    9.8580    3.1410   23.6130 C   0  0  0  0  0  0  0  0  0  0  0  0
    7.8170    4.3630   22.9560 C   0  0  0  0  0  0  0  0  0  0  0  0
   12.4040   -2.6650   25.1750 O   0  0  0  0  0  0  0  0  0  0  0  0
   10.5930    1.8240   23.8830 C   0  0  0  0  0  0  0  0  0  0  0  0
   12.8650   -0.4450   24.4300 C   0  0  0  0  0  0  0  0  0  0  0  0
   10.5890    4.3080   23.7790 C   0  0  0  0  0  0  0  0  0  0  0  0
    8.6340    5.6200   23.1470 C   0  0  0  0  0  0  0  0  0  0  0  0
   13.7090   -3.0050   25.5270 C   0  0  0  0  0  0  0  0  0  0  0  0
   10.0640    5.5650   23.5780 C   0  0  0  0  0  0  0  0  0  0  0  0
   10.8520    6.6760   23.7780 O   0  0  0  0  0  0  0  0  0  0  0  0
   11.8240    6.6050   24.8210 C   0  0  0  0  0  0  0  0  0  0  0  0
  1  2  1  0
  2  3  1  0
  2  4  2  0
  3  5  1  0
  5  6  1  1
  5  7  1  0
  7  8  1  0
  7  9  2  0
  6 10  1  0
 10 11  1  0
 10 12  2  0
 13  8  1  6
 14  9  1  1
 13 14  1  0
 13 15  1  0
 14 16  1  0
 15 17  1  6
 15 18  1  0
 16 19  1  0
 16 20  1  0
 15 21  1  0
 20 21  1  0
 17 22  2  3
 18 23  1  0
 19 24  2  0
 19 25  1  0
 23 26  1  0
 24 27  1  0
 23 28  1  0
 25 29  2  0
 24 30  1  0
 26 31  1  6
 27 32  2  0
 27 33  1  0
 26 34  1  0
 28 35  2  0
 28 36  1  0
 29 37  1  0
 30 37  2  0
 31 38  1  0
 31 39  2  0
 34 40  2  0
 34 41  1  0
 35 42  1  0
 36 43  2  0
 41 44  2  0
 40 45  1  0
 38 46  1  0
 42 47  2  0
 43 47  1  0
 47 48  1  0
 44 49  1  0
 45 49  2  0
 46 50  2  0
 46 51  1  0
 48 52  1  0
 50 53  1  0
 48 54  1  1
 50 55  1  0
 51 56  2  0
 52 57  1  0
 55 58  2  0
 56 58  1  0
 58 59  1  0
 59 60  1  0
M  CHG  2  27   1  33  -1
M  END
