x0981-x3110-x2754-x2776-x3117
     RDKit          3D

 63 67  0  0  0  0  0  0  0  0999 V2000
    7.7020    1.4940   22.8780 N   0  0  0  0  0  0  0  0  0  0  0  0
    7.7930    0.6090   21.7020 C   0  0  0  0  0  0  0  0  0  0  0  0
    8.8090    0.9460   20.7280 O   0  0  0  0  0  0  0  0  0  0  0  0
    8.0720    2.8740   22.8380 C   0  0  0  0  0  0  0  0  0  0  0  0
    6.7460   -0.5860   21.5730 C   0  0  2  0  0  0  0  0  0  0  0  0
    9.5280    3.0840   22.8720 C   0  0  0  0  0  0  0  0  0  0  0  0
    6.9450    3.7400   22.7650 C   0  0  0  0  0  0  0  0  0  0  0  0
    7.2090   -2.0540   21.7100 N   0  0  0  0  0  0  0  0  0  0  0  0
   11.1200    3.3140   22.9100 C   0  0  2  0  0  0  0  0  0  0  0  0
    5.9910   -0.2550   20.2590 C   0  0  0  0  0  0  0  0  0  0  0  0
    9.4240    4.6780   22.7860 C   0  0  0  0  0  0  0  0  0  0  0  0
    7.0270    5.0950   22.7030 C   0  0  0  0  0  0  0  0  0  0  0  0
   11.5530    3.5940   21.5560 O   0  0  0  0  0  0  0  0  0  0  0  0
   11.6970    1.9620   23.4720 C   0  0  0  0  0  0  0  0  0  0  0  0
    4.6700    0.2700   20.3910 C   0  0  0  0  0  0  0  0  0  0  0  0
    6.5730   -0.4320   18.9640 C   0  0  0  0  0  0  0  0  0  0  0  0
    8.5780   -2.1570   22.2000 C   0  0  0  0  0  0  0  0  0  0  0  0
    8.3010    5.5960   22.7110 C   0  0  0  0  0  0  0  0  0  0  0  0
    6.2210   -3.1170   22.3740 C   0  0  2  0  0  0  0  0  0  0  0  0
   12.4830    4.6550   21.1950 C   0  0  0  0  0  0  0  0  0  0  0  0
    8.3360    6.9750   22.6400 O   0  0  0  0  0  0  0  0  0  0  0  0
    5.8780   -0.0860   17.7060 N   0  0  0  0  0  0  0  0  0  0  0  0
    3.9800    0.6140   19.0540 C   0  0  0  0  0  0  0  0  0  0  0  0
    9.7040   -2.5560   21.4120 C   0  0  0  0  0  0  0  0  0  0  0  0
    8.8240   -1.8460   23.5560 C   0  0  0  0  0  0  0  0  0  0  0  0
    6.1780   -4.5110   21.7780 N   0  0  0  0  0  0  0  0  0  0  0  0
    4.8690   -2.8730   22.7710 C   0  0  0  0  0  0  0  0  0  0  0  0
   13.7820    4.6960   22.0580 C   0  0  0  0  0  0  0  0  0  0  0  0
    8.8780    7.7400   23.7170 C   0  0  0  0  0  0  0  0  0  0  0  0
    6.2400   -4.8870   20.3740 C   0  0  0  0  0  0  0  0  0  0  0  0
    4.6320    0.4140   17.8330 C   0  0  0  0  0  0  0  0  0  0  0  0
   11.1520   -2.6500   22.0350 C   0  0  0  0  0  0  0  0  0  0  0  0
   10.0540   -1.9260   24.1300 C   0  0  0  0  0  0  0  0  0  0  0  0
    4.2980   -3.8680   23.9030 C   0  0  2  0  0  0  0  0  0  0  0  0
    5.9890   -5.5980   22.8370 C   0  0  0  0  0  0  0  0  0  0  0  0
    5.5400   -6.1380   19.7610 C   0  0  0  0  0  0  0  0  0  0  0  0
    4.3410   -3.2260   25.3690 C   0  0  0  0  0  0  0  0  0  0  0  0
   11.3460   -2.3410   23.4110 C   0  0  0  0  0  0  0  0  0  0  0  0
    4.8490   -5.2040   23.8900 C   0  0  2  0  0  0  0  0  0  0  0  0
   12.6850   -2.4070   24.1840 C   0  0  0  0  0  0  0  0  0  0  0  0
    3.7090   -6.2120   23.9000 N   0  0  0  0  0  0  0  0  0  0  0  0
    3.0770   -3.0580   26.0350 O   0  0  0  0  0  0  0  0  0  0  0  0
    5.4970   -2.8440   26.0300 N   0  0  0  0  0  0  0  0  0  0  0  0
   13.0630   -1.1720   24.8460 C   0  0  0  0  0  0  0  0  0  0  0  0
   13.8750   -2.8400   23.3170 C   0  0  0  0  0  0  0  0  0  0  0  0
   12.5120   -3.4630   25.2740 C   0  0  0  0  0  0  0  0  0  0  0  0
    2.9420   -6.5270   22.7980 C   0  0  0  0  0  0  0  0  0  0  0  0
    5.5110   -1.3980   26.4210 C   0  0  0  0  0  0  0  0  0  0  0  0
    6.3880   -3.7220   26.8150 C   0  0  0  0  0  0  0  0  0  0  0  0
    1.7130   -7.5260   23.0350 C   0  0  1  0  0  0  0  0  0  0  0  0
    5.8280   -4.6540   27.7370 C   0  0  0  0  0  0  0  0  0  0  0  0
    7.8080   -3.6730   26.6830 C   0  0  0  0  0  0  0  0  0  0  0  0
    1.8500   -8.5800   21.9920 N   0  0  0  0  0  0  0  0  0  0  0  0
    1.4210   -7.9010   24.3920 C   0  0  0  0  0  0  0  0  0  0  0  0
    6.7190   -5.6020   28.5780 C   0  0  0  0  0  0  0  0  0  0  0  0
    8.6830   -4.5100   27.4220 C   0  0  0  0  0  0  0  0  0  0  0  0
    1.1420   -8.5330   20.6790 C   0  0  0  0  0  0  0  0  0  0  0  0
    2.2590   -8.8280   25.0920 C   0  0  0  0  0  0  0  0  0  0  0  0
    8.0920   -5.5280   28.4190 C   0  0  0  0  0  0  0  0  0  0  0  0
    1.7300   -9.1760   19.5820 C   0  0  0  0  0  0  0  0  0  0  0  0
   -0.1050   -7.8720   20.4510 O   0  0  0  0  0  0  0  0  0  0  0  0
    1.6160   -9.8340   25.9200 N   0  0  0  0  0  0  0  0  0  0  0  0
    3.4680   -8.6490   24.9360 O   0  0  0  0  0  0  0  0  0  0  0  0
  1  2  1  0
  2  3  2  0
  1  4  1  0
  5  2  1  6
  4  6  2  0
  4  7  1  0
  5  8  1  0
  6  9  1  0
  5 10  1  0
  6 11  1  0
  7 12  2  0
  9 13  1  0
  9 14  1  6
 10 15  2  0
 10 16  1  0
  8 17  1  0
 11 18  2  0
 12 18  1  0
 19  8  1  6
 13 20  1  0
 18 21  1  0
 16 22  2  0
 15 23  1  0
 17 24  2  0
 17 25  1  0
 19 26  1  0
 19 27  1  0
 20 28  1  0
 21 29  1  0
 26 30  1  0
 22 31  1  0
 23 31  2  0
 24 32  1  0
 25 33  2  0
 27 34  1  0
 26 35  1  0
 30 36  2  3
 34 37  1  1
 32 38  2  0
 33 38  1  0
 34 39  1  0
 35 39  1  0
 38 40  1  0
 39 41  1  6
 37 42  2  0
 37 43  1  0
 40 44  1  0
 40 45  1  0
 40 46  1  0
 41 47  1  0
 43 48  1  0
 43 49  1  0
 50 47  1  1
 49 51  2  0
 49 52  1  0
 50 53  1  0
 50 54  1  0
 51 55  1  0
 52 56  2  0
 53 57  1  0
 54 58  1  0
 55 59  2  0
 56 59  1  0
 57 60  1  0
 57 61  2  0
 58 62  1  0
 58 63  2  0
M  END
