x0981-x3110-x3115-x3124
     RDKit          3D

 48 49  0  0  0  0  0  0  0  0999 V2000
    8.0420    1.6970   23.0240 N   0  0  0  0  0  0  0  0  0  0  0  0
    8.9230    2.8570   22.9800 C   0  0  2  0  0  0  0  0  0  0  0  0
   10.1980    2.5320   23.7400 C   0  0  0  0  0  0  0  0  0  0  0  0
    7.8510    1.0940   21.8620 C   0  0  0  0  0  0  0  0  0  0  0  0
    8.6230    1.2970   20.9250 O   0  0  0  0  0  0  0  0  0  0  0  0
    6.7220    0.2790   21.8050 C   0  0  2  0  0  0  0  0  0  0  0  0
    8.2020    4.1430   23.3870 C   0  0  0  0  0  0  0  0  0  0  0  0
    6.9450   -1.1100   22.2330 N   0  0  0  0  0  0  0  0  0  0  0  0
   11.2570    3.6050   23.5290 C   0  0  0  0  0  0  0  0  0  0  0  0
    8.8770    5.1350   23.1040 O   0  0  0  0  0  0  0  0  0  0  0  0
    6.2380    0.5130   20.4180 C   0  0  0  0  0  0  0  0  0  0  0  0
   11.9490    3.3520   22.5570 O   0  0  0  0  0  0  0  0  0  0  0  0
   11.4100    4.7550   24.3450 O   0  0  0  0  0  0  0  0  0  0  0  0
    8.1880    6.0780   22.2820 C   0  0  0  0  0  0  0  0  0  0  0  0
    6.4990   -2.1580   21.4720 C   0  0  0  0  0  0  0  0  0  0  0  0
    5.1190    1.3290   20.2420 C   0  0  0  0  0  0  0  0  0  0  0  0
    6.8550   -0.0280   19.2960 C   0  0  0  0  0  0  0  0  0  0  0  0
    8.3140   -1.3130   22.6360 C   0  0  0  0  0  0  0  0  0  0  0  0
   12.3890    4.5330   21.8830 C   0  0  0  0  0  0  0  0  0  0  0  0
    5.6170   -3.2790   22.0190 C   0  0  0  0  0  0  0  0  0  0  0  0
    6.3330    0.2720   17.9530 N   0  0  0  0  0  0  0  0  0  0  0  0
    4.6140    1.6220   18.9760 C   0  0  0  0  0  0  0  0  0  0  0  0
    9.3090   -1.6590   21.7220 C   0  0  0  0  0  0  0  0  0  0  0  0
    8.6630   -1.1600   23.9720 C   0  0  0  0  0  0  0  0  0  0  0  0
   13.4540    5.2520   22.7110 C   0  0  0  0  0  0  0  0  0  0  0  0
    6.1010   -4.5810   21.7030 C   0  0  1  0  0  0  0  0  0  0  0  0
    5.2210    1.0980   17.8440 C   0  0  0  0  0  0  0  0  0  0  0  0
   10.7670   -1.8570   22.1870 C   0  0  0  0  0  0  0  0  0  0  0  0
   10.0840   -1.3430   24.4650 C   0  0  0  0  0  0  0  0  0  0  0  0
    5.1970   -5.6740   22.2410 N   0  0  0  0  0  0  0  0  0  0  0  0
    6.3670   -4.9380   20.2220 C   0  0  0  0  0  0  0  0  0  0  0  0
   11.1410   -1.6770   23.6510 C   0  0  0  0  0  0  0  0  0  0  0  0
   12.5220   -1.8200   24.1780 C   0  0  0  0  0  0  0  0  0  0  0  0
    4.4280   -5.3480   23.4760 C   0  0  0  0  0  0  0  0  0  0  0  0
    5.6790   -6.2560   19.7920 C   0  0  0  0  0  0  0  0  0  0  0  0
   12.8230   -0.6670   24.8650 C   0  0  0  0  0  0  0  0  0  0  0  0
   13.3720   -1.9950   23.1180 C   0  0  0  0  0  0  0  0  0  0  0  0
   12.7090   -2.9180   24.9600 C   0  0  0  0  0  0  0  0  0  0  0  0
    3.1490   -5.9040   23.6900 C   0  0  1  0  0  0  0  0  0  0  0  0
    4.8980   -4.5910   24.3180 O   0  0  0  0  0  0  0  0  0  0  0  0
    2.8670   -6.9950   22.6910 N   0  0  0  0  0  0  0  0  0  0  0  0
    2.7060   -6.3840   25.0360 C   0  0  0  0  0  0  0  0  0  0  0  0
    1.4830   -7.3340   22.2050 C   0  0  0  0  0  0  0  0  0  0  0  0
    3.0370   -7.6940   25.3240 C   0  0  0  0  0  0  0  0  0  0  0  0
    1.3100   -8.5860   21.5890 C   0  0  0  0  0  0  0  0  0  0  0  0
    0.4750   -6.4990   22.3170 O   0  0  0  0  0  0  0  0  0  0  0  0
    2.3980   -8.3870   26.3040 N   0  0  0  0  0  0  0  0  0  0  0  0
    3.9270   -8.2120   24.6720 O   0  0  0  0  0  0  0  0  0  0  0  0
  1  2  1  0
  2  3  1  1
  1  4  1  0
  4  5  2  0
  6  4  1  6
  2  7  1  0
  6  8  1  0
  3  9  1  0
  7 10  1  0
  6 11  1  0
  9 12  1  0
  9 13  2  0
 10 14  1  0
  8 15  1  0
 11 16  2  0
 11 17  1  0
  8 18  1  0
 12 19  1  0
 15 20  1  0
 17 21  2  0
 16 22  1  0
 18 23  2  0
 18 24  1  0
 19 25  1  0
 26 20  1  6
 21 27  1  0
 22 27  2  0
 23 28  1  0
 24 29  2  0
 26 30  1  0
 26 31  1  0
 28 32  2  0
 29 32  1  0
 32 33  1  0
 30 34  1  0
 31 35  2  3
 33 36  1  0
 33 37  1  0
 33 38  1  0
 34 39  1  0
 34 40  2  0
 39 41  1  0
 39 42  1  1
 41 43  1  0
 42 44  1  0
 43 45  1  0
 43 46  2  0
 44 47  1  0
 44 48  2  0
M  END
