x0981-x1351-x2705
     RDKit          3D

 59 64  0  0  0  0  0  0  0  0999 V2000
    1.1900   -8.6830   21.3780 C   0  0  0  0  0  0  0  0  0  0  0  0
    1.3950   -7.4120   22.1650 C   0  0  0  0  0  0  0  0  0  0  0  0
    2.5370   -7.2920   22.7650 N   0  0  0  0  0  0  0  0  0  0  0  0
    0.5360   -6.5280   22.2210 O   0  0  0  0  0  0  0  0  0  0  0  0
    2.9200   -6.1210   23.4310 C   0  0  1  0  0  0  0  0  0  0  0  0
    2.3970   -6.2010   24.8960 C   0  0  0  0  0  0  0  0  0  0  0  0
    4.4820   -6.1270   23.4590 C   0  0  0  0  0  0  0  0  0  0  0  0
    5.1640   -5.3630   22.5550 N   0  0  0  0  0  0  0  0  0  0  0  0
    2.8370   -7.5900   25.4140 C   0  0  0  0  0  0  0  0  0  0  0  0
    2.2610   -8.1750   26.5240 N   0  0  0  0  0  0  0  0  0  0  0  0
    3.8690   -8.2940   24.7280 O   0  0  0  0  0  0  0  0  0  0  0  0
    5.1510   -3.9480   22.7530 C   0  0  1  0  0  0  0  0  0  0  0  0
    6.0900   -3.5560   23.7640 C   0  0  2  0  0  0  0  0  0  0  0  0
    5.3160   -3.2530   21.5520 C   0  0  0  0  0  0  0  0  0  0  0  0
    5.3820   -2.9130   24.9220 N   0  0  0  0  0  0  0  0  0  0  0  0
    6.5760   -3.2750   21.0810 C   0  0  1  0  0  0  0  0  0  0  0  0
    7.1230   -2.7150   23.3440 C   0  0  0  0  0  0  0  0  0  0  0  0
    6.9230   -4.5780   20.2460 C   0  0  0  0  0  0  0  0  0  0  0  0
    7.0310   -2.2840   20.1530 C   0  0  0  0  0  0  0  0  0  0  0  0
    6.1090   -2.6300   26.1970 C   0  0  0  0  0  0  0  0  0  0  0  0
    7.4810   -2.6900   21.9850 C   0  0  2  0  0  0  0  0  0  0  0  0
    5.8260   -5.6160   20.0340 C   0  0  0  0  0  0  0  0  0  0  0  0
    7.7220   -1.1600   21.5790 C   0  0  1  0  0  0  0  0  0  0  0  0
    6.8100   -3.6430   26.9020 O   0  0  0  0  0  0  0  0  0  0  0  0
    6.0770   -1.2700   26.8080 C   0  0  0  0  0  0  0  0  0  0  0  0
    7.6450   -1.2640   20.1100 C   0  0  0  0  0  0  0  0  0  0  0  0
    6.8580    0.0930   21.7780 C   0  0  1  0  0  0  0  0  0  0  0  0
    9.0000   -1.1400   22.3840 C   0  0  0  0  0  0  0  0  0  0  0  0
    6.9350   -0.9070   28.0720 C   0  0  0  0  0  0  0  0  0  0  0  0
    5.1780   -0.2020   26.1980 C   0  0  0  0  0  0  0  0  0  0  0  0
    7.6980    1.2100   21.8500 C   0  0  0  0  0  0  0  0  0  0  0  0
    6.1360    0.4970   20.4510 C   0  0  0  0  0  0  0  0  0  0  0  0
    8.9740   -0.9240   23.7390 N   0  0  0  0  0  0  0  0  0  0  0  0
   10.2660   -1.3430   22.0250 C   0  0  0  0  0  0  0  0  0  0  0  0
    6.7890    0.4120   28.5480 C   0  0  0  0  0  0  0  0  0  0  0  0
    5.1270    1.1810   26.8250 C   0  0  0  0  0  0  0  0  0  0  0  0
    7.3820    2.3040   22.7270 N   0  0  0  0  0  0  0  0  0  0  0  0
    8.8900    1.4700   21.0960 O   0  0  0  0  0  0  0  0  0  0  0  0
    4.7300    1.0700   20.3660 C   0  0  0  0  0  0  0  0  0  0  0  0
    6.8540    0.3260   19.2500 C   0  0  0  0  0  0  0  0  0  0  0  0
   10.2400   -1.0020   24.2130 N   0  0  0  0  0  0  0  0  0  0  0  0
   11.2040   -1.2830   23.1470 C   0  0  0  0  0  0  0  0  0  0  0  0
    5.8810    1.4880   27.9390 C   0  0  0  0  0  0  0  0  0  0  0  0
   12.6460   -1.4280   23.2880 C   0  0  0  0  0  0  0  0  0  0  0  0
    6.3040    0.6680   18.0690 N   0  0  0  0  0  0  0  0  0  0  0  0
    4.2200    1.4070   19.1220 C   0  0  0  0  0  0  0  0  0  0  0  0
    8.1880    3.4930   22.9510 C   0  0  0  0  0  0  0  0  0  0  0  0
   13.0160   -0.1580   23.6680 C   0  0  0  0  0  0  0  0  0  0  0  0
   12.9330   -2.4080   24.4540 C   0  0  0  0  0  0  0  0  0  0  0  0
   13.1280   -1.9290   22.1430 C   0  0  0  0  0  0  0  0  0  0  0  0
    4.9690    1.2290   17.9570 C   0  0  0  0  0  0  0  0  0  0  0  0
    9.4490    3.4990   23.5210 C   0  0  0  0  0  0  0  0  0  0  0  0
    7.5900    4.6760   22.5300 C   0  0  0  0  0  0  0  0  0  0  0  0
   10.1540    2.2480   23.9910 C   0  0  0  0  0  0  0  0  0  0  0  0
    6.2150    4.7260   21.8930 C   0  0  0  0  0  0  0  0  0  0  0  0
   10.1340    4.7070   23.6820 C   0  0  0  0  0  0  0  0  0  0  0  0
    8.2730    5.8930   22.6880 C   0  0  0  0  0  0  0  0  0  0  0  0
    9.2840    1.5740   24.8550 C   0  0  0  0  0  0  0  0  0  0  0  0
    9.5500    5.9110   23.2670 C   0  0  0  0  0  0  0  0  0  0  0  0
  1  2  1  0
  2  3  1  0
  2  4  2  0
  3  5  1  0
  5  6  1  1
  5  7  1  0
  7  8  1  0
  6  9  1  0
  9 10  1  0
  9 11  2  0
 12  8  1  6
 12 13  1  0
 12 14  1  0
 13 15  1  1
 14 16  1  0
 13 17  1  0
 16 18  1  6
 16 19  1  0
 15 20  1  0
 16 21  1  0
 21 17  1  1
 18 22  2  3
 21 23  1  0
 20 24  2  0
 20 25  1  0
 19 26  2  0
 23 26  1  0
 23 27  1  0
 23 28  1  6
 25 29  2  0
 25 30  1  0
 27 31  1  6
 27 32  1  0
 28 33  2  0
 28 34  1  0
 29 35  1  0
 30 36  2  0
 31 37  1  0
 31 38  2  0
 32 39  2  0
 32 40  1  0
 33 41  1  0
 34 42  2  0
 41 42  1  0
 35 43  2  0
 36 43  1  0
 42 44  1  0
 40 45  2  0
 39 46  1  0
 37 47  1  0
 44 48  1  0
 44 49  1  0
 44 50  1  0
 45 51  1  0
 46 51  2  0
 47 52  2  0
 47 53  1  0
 52 54  1  0
 53 55  1  0
 52 56  1  0
 53 57  2  0
 54 58  1  0
 56 59  2  0
 57 59  1  0
M  END
