x0981-x2694-x0426
     RDKit          3D

 59 62  0  0  0  0  0  0  0  0999 V2000
    1.1830   -8.7620   21.2620 C   0  0  0  0  0  0  0  0  0  0  0  0
    1.3540   -7.4830   22.1360 C   0  0  0  0  0  0  0  0  0  0  0  0
    2.6810   -7.4620   22.7690 N   0  0  0  0  0  0  0  0  0  0  0  0
    0.4760   -6.6280   22.2380 O   0  0  0  0  0  0  0  0  0  0  0  0
    3.0520   -6.2010   23.4270 C   0  0  1  0  0  0  0  0  0  0  0  0
    2.7510   -6.4000   24.7870 C   0  0  0  0  0  0  0  0  0  0  0  0
    4.3510   -5.5380   23.3850 C   0  0  0  0  0  0  0  0  0  0  0  0
    5.1010   -5.7490   22.2550 N   0  0  0  0  0  0  0  0  0  0  0  0
    4.7490   -4.8220   24.3010 O   0  0  0  0  0  0  0  0  0  0  0  0
    3.1090   -7.6520   25.2810 C   0  0  0  0  0  0  0  0  0  0  0  0
    2.5080   -8.1280   26.4090 N   0  0  0  0  0  0  0  0  0  0  0  0
    3.9580   -8.2520   24.6560 O   0  0  0  0  0  0  0  0  0  0  0  0
    5.9230   -4.6820   21.6870 C   0  0  2  0  0  0  0  0  0  0  0  0
    6.2230   -5.0070   20.2230 C   0  0  0  0  0  0  0  0  0  0  0  0
    7.0730   -4.4420   22.6400 C   0  0  0  0  0  0  0  0  0  0  0  0
    5.6560   -6.3130   19.7610 C   0  0  0  0  0  0  0  0  0  0  0  0
    7.4940   -3.1470   22.7720 C   0  0  0  0  0  0  0  0  0  0  0  0
    6.8350   -1.9610   22.0290 C   0  0  0  0  0  0  0  0  0  0  0  0
    7.6120   -0.8850   21.8830 N   0  0  0  0  0  0  0  0  0  0  0  0
    6.9770    0.3330   21.7160 C   0  0  1  0  0  0  0  0  0  0  0  0
    8.7880   -1.0110   22.7440 C   0  0  0  0  0  0  0  0  0  0  0  0
    7.9240    1.5300   21.8800 C   0  0  0  0  0  0  0  0  0  0  0  0
    6.3020    0.5460   20.3570 C   0  0  0  0  0  0  0  0  0  0  0  0
    8.9360   -1.0600   24.0780 N   0  0  0  0  0  0  0  0  0  0  0  0
   10.1800   -1.1360   22.2340 C   0  0  0  0  0  0  0  0  0  0  0  0
    7.6740    2.5150   22.7430 N   0  0  0  0  0  0  0  0  0  0  0  0
    9.0210    1.5560   21.0890 O   0  0  0  0  0  0  0  0  0  0  0  0
    5.0890    1.2450   20.1950 C   0  0  0  0  0  0  0  0  0  0  0  0
    6.8920    0.0520   19.1990 C   0  0  0  0  0  0  0  0  0  0  0  0
   10.3220   -1.2010   24.3560 O   0  0  0  0  0  0  0  0  0  0  0  0
   11.1010   -1.2470   23.2120 C   0  0  0  0  0  0  0  0  0  0  0  0
   12.5790   -1.3790   23.3190 C   0  0  0  0  0  0  0  0  0  0  0  0
    4.1370    1.9200   21.1690 C   0  0  0  0  0  0  0  0  0  0  0  0
    6.3890    0.2160   17.9680 N   0  0  0  0  0  0  0  0  0  0  0  0
    4.5560    1.4240   18.9420 C   0  0  0  0  0  0  0  0  0  0  0  0
    8.5740    3.6220   23.0530 C   0  0  0  0  0  0  0  0  0  0  0  0
   12.9290   -0.0480   23.4720 C   0  0  0  0  0  0  0  0  0  0  0  0
   12.9990   -2.0330   22.0290 C   0  0  0  0  0  0  0  0  0  0  0  0
   12.8520   -2.3830   24.3230 C   0  0  0  0  0  0  0  0  0  0  0  0
    4.2530    1.6220   22.5230 C   0  0  0  0  0  0  0  0  0  0  0  0
    5.2440    0.8970   17.8660 C   0  0  0  0  0  0  0  0  0  0  0  0
    9.8150    3.4130   23.6420 C   0  0  0  0  0  0  0  0  0  0  0  0
    8.2060    4.9340   22.7600 C   0  0  0  0  0  0  0  0  0  0  0  0
   10.3000    2.0330   23.9980 C   0  0  0  0  0  0  0  0  0  0  0  0
    3.2860    2.3690   23.3340 N   0  0  0  0  0  0  0  0  0  0  0  0
   10.6490    4.4980   23.9220 C   0  0  0  0  0  0  0  0  0  0  0  0
    9.0330    6.0110   23.0460 C   0  0  0  0  0  0  0  0  0  0  0  0
    2.2250    1.7420   23.8860 C   0  0  0  0  0  0  0  0  0  0  0  0
   10.2740    5.8040   23.6410 C   0  0  0  0  0  0  0  0  0  0  0  0
   11.0230    6.9120   23.9010 O   0  0  0  0  0  0  0  0  0  0  0  0
    2.0840    0.5250   23.8400 O   0  0  0  0  0  0  0  0  0  0  0  0
    1.2010    2.5600   24.5800 C   0  0  0  0  0  0  0  0  0  0  0  0
   11.8850    6.8170   25.0270 C   0  0  0  0  0  0  0  0  0  0  0  0
    1.5020    3.7840   25.2190 C   0  0  0  0  0  0  0  0  0  0  0  0
   -0.1290    2.0800   24.5940 C   0  0  0  0  0  0  0  0  0  0  0  0
    2.7460    4.2800   25.2320 F   0  0  0  0  0  0  0  0  0  0  0  0
   -1.1110    2.8210   25.2370 C   0  0  0  0  0  0  0  0  0  0  0  0
    0.5020    4.5040   25.8550 C   0  0  0  0  0  0  0  0  0  0  0  0
   -0.8510    4.0080   25.8660 C   0  0  0  0  0  0  0  0  0  0  0  0
  1  2  1  0
  2  3  1  0
  2  4  2  0
  3  5  1  0
  5  6  1  1
  5  7  1  0
  7  8  1  0
  7  9  2  0
  6 10  1  0
 10 11  1  0
 10 12  2  0
  8 13  1  0
 13 14  1  6
 13 15  1  0
 14 16  2  3
 15 17  1  0
 17 18  1  0
 18 19  1  0
 19 20  1  0
 19 21  1  0
 20 22  1  6
 20 23  1  0
 21 24  2  0
 21 25  1  0
 22 26  1  0
 22 27  2  0
 23 28  1  0
 23 29  2  0
 24 30  1  0
 25 31  2  0
 30 31  1  0
 31 32  1  0
 28 33  1  0
 29 34  1  0
 28 35  2  0
 26 36  1  0
 32 37  1  0
 32 38  1  0
 32 39  1  0
 33 40  1  0
 34 41  2  0
 35 41  1  0
 36 42  2  0
 36 43  1  0
 42 44  1  0
 40 45  1  0
 42 46  1  0
 43 47  2  0
 45 48  1  0
 46 49  2  0
 47 49  1  0
 49 50  1  0
 48 51  2  0
 48 52  1  0
 50 53  1  0
 52 54  2  0
 52 55  1  0
 54 56  1  0
 55 57  2  0
 54 58  1  0
 57 59  1  0
 58 59  2  0
M  END
