x0981-x3303
     RDKit          3D

 42 45  0  0  0  0  0  0  0  0999 V2000
    1.2110   -8.7190   21.3580 C   0  0  0  0  0  0  0  0  0  0  0  0
    1.3880   -7.4410   22.1440 C   0  0  0  0  0  0  0  0  0  0  0  0
    2.6210   -7.2830   22.7510 N   0  0  0  0  0  0  0  0  0  0  0  0
    0.4920   -6.6040   22.2130 O   0  0  0  0  0  0  0  0  0  0  0  0
    2.9540   -6.1040   23.5710 C   0  0  1  0  0  0  0  0  0  0  0  0
    2.5300   -6.3800   25.0010 C   0  0  0  0  0  0  0  0  0  0  0  0
    4.4890   -5.7300   23.4950 C   0  0  0  0  0  0  0  0  0  0  0  0
    5.2870   -5.9760   22.4080 N   0  0  0  0  0  0  0  0  0  0  0  0
    5.0510   -5.1390   24.4190 O   0  0  0  0  0  0  0  0  0  0  0  0
    2.9930   -7.7500   25.3720 C   0  0  0  0  0  0  0  0  0  0  0  0
    2.4110   -8.3520   26.4430 N   0  0  0  0  0  0  0  0  0  0  0  0
    3.8680   -8.2690   24.7050 O   0  0  0  0  0  0  0  0  0  0  0  0
    6.0190   -4.8850   21.7890 C   0  0  1  0  0  0  0  0  0  0  0  0
    6.3500   -5.1700   20.3270 C   0  0  0  0  0  0  0  0  0  0  0  0
    5.0360   -3.6980   21.8720 C   0  0  0  0  0  0  0  0  0  0  0  0
    5.7480   -6.2240   19.8270 C   0  0  0  0  0  0  0  0  0  0  0  0
    5.3530   -2.6020   22.6240 C   0  0  0  0  0  0  0  0  0  0  0  0
    5.3010   -1.7710   21.8560 N   0  0  0  0  0  0  0  0  0  0  0  0
    6.4340   -1.1300   21.2360 C   0  0  0  0  0  0  0  0  0  0  0  0
    7.7850   -1.3490   21.4240 N   0  0  0  0  0  0  0  0  0  0  0  0
    5.9340   -0.0910   20.2650 C   0  0  0  0  0  0  0  0  0  0  0  0
    8.7220   -0.2410   21.3840 C   0  0  0  0  0  0  0  0  0  0  0  0
    8.3680   -2.4150   22.2360 C   0  0  0  0  0  0  0  0  0  0  0  0
    4.9330    0.8160   20.6590 C   0  0  0  0  0  0  0  0  0  0  0  0
    6.4200    0.0060   18.9810 C   0  0  0  0  0  0  0  0  0  0  0  0
    9.2040    0.1710   22.7650 C   0  0  0  0  0  0  0  0  0  0  0  0
    8.5520   -1.9510   23.5450 C   0  0  0  0  0  0  0  0  0  0  0  0
    4.4460    1.7860   19.7600 C   0  0  0  0  0  0  0  0  0  0  0  0
    5.9040    0.9860   18.1490 C   0  0  0  0  0  0  0  0  0  0  0  0
    4.3610    0.8180   21.9560 C   0  0  0  0  0  0  0  0  0  0  0  0
    6.3090    1.1690   16.8990 O   0  0  0  0  0  0  0  0  0  0  0  0
    9.6730   -1.0000   23.5430 N   0  0  0  0  0  0  0  0  0  0  0  0
    4.8840    1.9120   18.5310 N   0  0  0  0  0  0  0  0  0  0  0  0
    3.3700    1.7290   22.3280 C   0  0  0  0  0  0  0  0  0  0  0  0
    3.4610    2.6810   20.1320 C   0  0  0  0  0  0  0  0  0  0  0  0
   10.9460   -1.5000   23.5220 C   0  0  0  0  0  0  0  0  0  0  0  0
    2.9160    2.6680   21.3980 C   0  0  0  0  0  0  0  0  0  0  0  0
   11.6360   -1.6550   22.3260 C   0  0  0  0  0  0  0  0  0  0  0  0
   11.5210   -1.8530   24.7220 C   0  0  0  0  0  0  0  0  0  0  0  0
   13.0350   -2.2230   22.2720 C   0  0  0  0  0  0  0  0  0  0  0  0
   12.9130   -2.4380   24.8060 C   0  0  0  0  0  0  0  0  0  0  0  0
   13.6150   -2.5960   23.4810 C   0  0  0  0  0  0  0  0  0  0  0  0
  1  2  1  0
  2  3  1  0
  2  4  2  0
  3  5  1  0
  5  6  1  1
  5  7  1  0
  7  8  1  0
  7  9  2  0
  6 10  1  0
 10 11  1  0
 10 12  2  0
  8 13  1  0
 13 14  1  6
 13 15  1  0
 14 16  2  3
 15 17  1  0
 17 18  1  0
 18 19  2  3
 19 20  1  0
 19 21  1  0
 20 22  1  0
 20 23  1  0
 21 24  1  0
 21 25  2  0
 22 26  1  0
 23 27  1  0
 24 28  2  0
 25 29  1  0
 24 30  1  0
 29 31  1  0
 26 32  1  0
 27 32  1  0
 28 33  1  0
 29 33  2  0
 30 34  2  0
 28 35  1  0
 32 36  1  0
 34 37  1  0
 35 37  2  0
 36 38  2  0
 36 39  1  0
 38 40  1  0
 39 41  2  0
 40 42  2  0
 41 42  1  0
M  END
