x0981-x1077-x1478-x3110-x0946
     RDKit          3D

 63 67  0  0  0  0  0  0  0  0999 V2000
    7.9590    1.5830   23.4020 N   0  0  0  0  0  0  0  0  0  0  0  0
    8.7990    2.5440   24.1630 C   0  0  0  0  0  0  0  0  0  0  0  0
   10.2380    2.4920   23.7310 C   0  0  0  0  0  0  0  0  0  0  0  0
    8.0600    1.3150   21.9510 C   0  0  0  0  0  0  0  0  0  0  0  0
    8.8880    1.8740   21.2210 O   0  0  0  0  0  0  0  0  0  0  0  0
    7.0230    0.2900   21.4960 C   0  0  2  0  0  0  0  0  0  0  0  0
    7.4260   -1.0900   21.6270 N   0  0  0  0  0  0  0  0  0  0  0  0
    6.4960    0.5720   20.1260 C   0  0  0  0  0  0  0  0  0  0  0  0
   11.0100    3.6340   23.5290 C   0  0  0  0  0  0  0  0  0  0  0  0
   10.7610    1.2260   23.5360 C   0  0  0  0  0  0  0  0  0  0  0  0
   10.4310    5.0240   23.7520 C   0  0  0  0  0  0  0  0  0  0  0  0
    5.4570    1.4980   20.0910 C   0  0  0  0  0  0  0  0  0  0  0  0
    6.9150    0.0240   18.9110 C   0  0  0  0  0  0  0  0  0  0  0  0
    8.6310   -1.3770   22.3570 C   0  0  0  0  0  0  0  0  0  0  0  0
   12.0640    1.0610   23.1300 C   0  0  0  0  0  0  0  0  0  0  0  0
   12.3130    3.4760   23.1240 C   0  0  0  0  0  0  0  0  0  0  0  0
    6.2560   -1.8190   21.8690 C   0  0  0  0  0  0  0  0  0  0  0  0
   13.2170    4.6400   22.8920 C   0  0  0  0  0  0  0  0  0  0  0  0
    9.5000    5.3560   22.8820 N   0  0  0  0  0  0  0  0  0  0  0  0
   11.3360    6.0840   23.9070 O   0  0  0  0  0  0  0  0  0  0  0  0
    9.8390    5.2130   24.9690 O   0  0  0  0  0  0  0  0  0  0  0  0
    6.2300    0.4820   17.6780 N   0  0  0  0  0  0  0  0  0  0  0  0
    4.8190    1.9190   18.9500 C   0  0  0  0  0  0  0  0  0  0  0  0
    9.7810   -1.1360   21.6750 C   0  0  0  0  0  0  0  0  0  0  0  0
    8.7790   -1.8590   23.6730 C   0  0  0  0  0  0  0  0  0  0  0  0
   12.9040    2.1080   22.9040 C   0  0  0  0  0  0  0  0  0  0  0  0
    6.1400   -2.1110   23.3510 C   0  0  2  0  0  0  0  0  0  0  0  0
   12.8670    5.3700   21.6360 C   0  0  0  0  0  0  0  0  0  0  0  0
    5.2340    1.3950   17.7530 C   0  0  0  0  0  0  0  0  0  0  0  0
   11.1020   -1.3720   22.3290 C   0  0  0  0  0  0  0  0  0  0  0  0
   10.0980   -2.1160   24.3920 C   0  0  0  0  0  0  0  0  0  0  0  0
    6.2650   -3.4400   23.4110 C   0  0  2  0  0  0  0  0  0  0  0  0
    4.9930   -1.5410   23.8640 C   0  0  0  0  0  0  0  0  0  0  0  0
   11.2950   -1.8720   23.7540 C   0  0  0  0  0  0  0  0  0  0  0  0
    5.0080   -4.0370   22.8350 N   0  0  0  0  0  0  0  0  0  0  0  0
    3.8690   -2.3070   24.1780 C   0  0  0  0  0  0  0  0  0  0  0  0
    6.7420   -4.0760   24.7400 C   0  0  0  0  0  0  0  0  0  0  0  0
   12.6500   -2.0140   24.3100 C   0  0  0  0  0  0  0  0  0  0  0  0
    5.0610   -5.3050   22.3690 N   0  0  0  0  0  0  0  0  0  0  0  0
    3.9740   -3.7970   23.8840 C   0  0  0  0  0  0  0  0  0  0  0  0
    7.3310   -5.4780   24.6750 C   0  0  2  0  0  0  0  0  0  0  0  0
   12.8690   -0.7560   25.0980 C   0  0  0  0  0  0  0  0  0  0  0  0
   13.5140   -2.2490   23.1340 C   0  0  0  0  0  0  0  0  0  0  0  0
   12.8760   -3.1440   25.3180 C   0  0  0  0  0  0  0  0  0  0  0  0
    6.3030   -5.5990   21.8810 C   0  0  0  0  0  0  0  0  0  0  0  0
    7.3410   -6.0350   26.0170 O   0  0  0  0  0  0  0  0  0  0  0  0
    8.5730   -5.5890   24.0810 C   0  0  0  0  0  0  0  0  0  0  0  0
    4.5210   -6.2960   23.3010 C   0  0  0  0  0  0  0  0  0  0  0  0
    6.4310   -5.3390   20.3930 C   0  0  0  0  0  0  0  0  0  0  0  0
    9.5500   -5.6720   25.0600 C   0  0  0  0  0  0  0  0  0  0  0  0
    7.5840   -5.1990   27.0590 C   0  0  0  0  0  0  0  0  0  0  0  0
    2.9670   -6.3880   23.4270 C   0  0  1  0  0  0  0  0  0  0  0  0
    5.6060   -6.3870   19.7110 C   0  0  0  0  0  0  0  0  0  0  0  0
    9.5320   -4.4260   25.7530 N   0  0  0  0  0  0  0  0  0  0  0  0
    8.6580   -4.3250   26.9180 C   0  0  0  0  0  0  0  0  0  0  0  0
    2.5170   -7.5580   22.6580 N   0  0  0  0  0  0  0  0  0  0  0  0
    2.5680   -6.5270   24.8850 C   0  0  0  0  0  0  0  0  0  0  0  0
    1.2070   -7.6380   21.9730 C   0  0  0  0  0  0  0  0  0  0  0  0
    3.0010   -7.7230   25.4180 C   0  0  0  0  0  0  0  0  0  0  0  0
    1.0610   -8.7820   21.1840 C   0  0  0  0  0  0  0  0  0  0  0  0
    0.3330   -6.7820   22.0730 O   0  0  0  0  0  0  0  0  0  0  0  0
    2.3560   -8.2220   26.6380 N   0  0  0  0  0  0  0  0  0  0  0  0
    3.8890   -8.3230   24.8660 O   0  0  0  0  0  0  0  0  0  0  0  0
  1  2  1  0
  2  3  1  0
  1  4  1  0
  4  5  2  0
  6  4  1  6
  6  7  1  0
  6  8  1  0
  3  9  2  0
  3 10  1  0
  9 11  1  0
  8 12  2  0
  8 13  1  0
  7 14  1  0
 10 15  2  0
  9 16  1  0
  7 17  1  0
 16 18  1  0
 11 19  1  0
 11 20  1  0
 11 21  1  0
 13 22  2  0
 12 23  1  0
 14 24  2  0
 14 25  1  0
 15 26  1  0
 16 26  2  0
 27 17  1  6
 18 28  1  0
 22 29  1  0
 23 29  2  0
 24 30  1  0
 25 31  2  0
 27 32  1  0
 27 33  1  0
 30 34  2  0
 31 34  1  0
 32 35  1  0
 33 36  2  0
 32 37  1  1
 34 38  1  0
 35 39  1  0
 35 40  1  0
 36 40  1  0
 41 37  1  1
 38 42  1  0
 38 43  1  0
 38 44  1  0
 39 45  1  0
 41 46  1  0
 41 47  1  0
 39 48  1  0
 45 49  1  0
 47 50  1  0
 46 51  1  0
 52 48  1  1
 49 53  2  3
 50 54  1  0
 51 55  1  0
 54 55  1  0
 52 56  1  0
 52 57  1  0
 56 58  1  0
 57 59  1  0
 58 60  1  0
 58 61  2  0
 59 62  1  0
 59 63  2  0
M  END
