x0981-x0678
     RDKit          3D

 34 35  0  0  0  0  0  0  0  0999 V2000
    1.2880   -8.6930   21.4000 C   0  0  0  0  0  0  0  0  0  0  0  0
    1.4470   -7.3560   22.1870 C   0  0  0  0  0  0  0  0  0  0  0  0
    2.6940   -7.1440   22.7760 N   0  0  0  0  0  0  0  0  0  0  0  0
    0.5510   -6.5230   22.2770 O   0  0  0  0  0  0  0  0  0  0  0  0
    2.9700   -5.8650   23.4810 C   0  0  1  0  0  0  0  0  0  0  0  0
    2.6140   -6.1570   24.9960 C   0  0  0  0  0  0  0  0  0  0  0  0
    4.4380   -5.3870   23.3730 C   0  0  0  0  0  0  0  0  0  0  0  0
    5.2280   -5.5090   22.2640 N   0  0  0  0  0  0  0  0  0  0  0  0
    4.9950   -4.8160   24.3040 O   0  0  0  0  0  0  0  0  0  0  0  0
    3.0240   -7.6430   25.2790 C   0  0  0  0  0  0  0  0  0  0  0  0
    2.3010   -8.3590   26.3310 N   0  0  0  0  0  0  0  0  0  0  0  0
    3.9140   -8.1560   24.6410 O   0  0  0  0  0  0  0  0  0  0  0  0
    6.2510   -4.5680   21.7260 C   0  0  1  0  0  0  0  0  0  0  0  0
    6.4590   -4.9520   20.2570 C   0  0  0  0  0  0  0  0  0  0  0  0
    5.8970   -3.2190   21.9370 C   0  0  0  0  0  0  0  0  0  0  0  0
    5.7240   -6.2020   19.8340 C   0  0  0  0  0  0  0  0  0  0  0  0
    6.9200   -2.3760   22.4330 C   0  0  0  0  0  0  0  0  0  0  0  0
    7.7150   -1.7650   21.4500 C   0  0  0  0  0  0  0  0  0  0  0  0
    7.6010   -0.3160   21.4690 N   0  0  0  0  0  0  0  0  0  0  0  0
    8.6770    0.3440   21.9560 C   0  0  0  0  0  0  0  0  0  0  0  0
    6.8270    0.2250   20.3510 C   0  0  0  0  0  0  0  0  0  0  0  0
    9.2090    1.4710   21.3450 O   0  0  0  0  0  0  0  0  0  0  0  0
    9.3010   -0.1030   23.1830 C   0  0  0  0  0  0  0  0  0  0  0  0
    5.7710    1.1480   20.4610 C   0  0  0  0  0  0  0  0  0  0  0  0
    7.1060   -0.1710   19.0440 C   0  0  0  0  0  0  0  0  0  0  0  0
   10.8520   -0.2120   23.0380 C   0  0  0  0  0  0  0  0  0  0  0  0
    5.0700    1.6230   19.3560 C   0  0  0  0  0  0  0  0  0  0  0  0
    6.3670    0.3300   17.8140 N   0  0  0  0  0  0  0  0  0  0  0  0
   11.2810   -1.5040   22.3320 C   0  0  0  0  0  0  0  0  0  0  0  0
   11.4360   -0.0020   24.2760 C   0  0  0  0  0  0  0  0  0  0  0  0
    5.3920    1.2010   18.0760 C   0  0  0  0  0  0  0  0  0  0  0  0
   12.6060   -1.7620   22.3420 C   0  0  0  0  0  0  0  0  0  0  0  0
   12.3910   -0.9390   24.6410 C   0  0  0  0  0  0  0  0  0  0  0  0
   13.2220   -1.1840   23.5270 C   0  0  0  0  0  0  0  0  0  0  0  0
  1  2  1  0
  2  3  1  0
  2  4  2  0
  3  5  1  0
  5  6  1  1
  5  7  1  0
  7  8  1  0
  7  9  2  0
  6 10  1  0
 10 11  1  0
 10 12  2  0
  8 13  1  0
 13 14  1  6
 13 15  1  0
 14 16  2  3
 15 17  1  0
 17 18  1  0
 18 19  1  0
 19 20  1  0
 19 21  1  0
 20 22  2  0
 20 23  1  0
 21 24  2  0
 21 25  1  0
 23 26  1  0
 24 27  1  0
 25 28  2  0
 26 29  1  0
 26 30  1  0
 27 31  2  0
 28 31  1  0
 29 32  1  0
 30 33  1  0
 32 34  1  0
 33 34  1  0
M  END
