x0981-x1478-x0978-x3110-x1119
     RDKit          3D

 72 76  0  0  0  0  0  0  0  0999 V2000
    8.2430    1.7580   23.3670 N   0  0  0  0  0  0  0  0  0  0  0  0
    9.2410    2.6540   23.7440 C   0  0  0  0  0  0  0  0  0  0  0  0
   10.5620    2.3440   23.5010 C   0  0  0  0  0  0  0  0  0  0  0  0
    8.0300    1.3810   21.9660 C   0  0  0  0  0  0  0  0  0  0  0  0
    8.7960    1.7680   21.0840 O   0  0  0  0  0  0  0  0  0  0  0  0
    6.9190    0.5970   21.7720 C   0  0  2  0  0  0  0  0  0  0  0  0
    7.2420   -0.7860   22.1460 N   0  0  0  0  0  0  0  0  0  0  0  0
   11.3390    3.5050   23.4250 C   0  0  0  0  0  0  0  0  0  0  0  0
    6.3940    0.7440   20.3650 C   0  0  0  0  0  0  0  0  0  0  0  0
   12.2830    3.3230   22.6480 O   0  0  0  0  0  0  0  0  0  0  0  0
   11.1220    4.5560   24.0520 O   0  0  0  0  0  0  0  0  0  0  0  0
    5.3160    1.5710   20.1200 C   0  0  0  0  0  0  0  0  0  0  0  0
    6.9040    0.1040   19.2200 C   0  0  0  0  0  0  0  0  0  0  0  0
    8.5600   -1.0920   22.5880 C   0  0  0  0  0  0  0  0  0  0  0  0
    6.5450   -1.7470   21.3030 C   0  0  0  0  0  0  0  0  0  0  0  0
   12.9700    4.4920   22.1440 C   0  0  0  0  0  0  0  0  0  0  0  0
    6.3360    0.3100   17.8620 N   0  0  0  0  0  0  0  0  0  0  0  0
    4.7840    1.7820   18.9530 C   0  0  0  0  0  0  0  0  0  0  0  0
    9.5620   -1.4820   21.7530 C   0  0  0  0  0  0  0  0  0  0  0  0
    8.7860   -0.9460   24.0620 C   0  0  0  0  0  0  0  0  0  0  0  0
    5.8090   -2.7530   22.1830 C   0  0  1  0  0  0  0  0  0  0  0  0
   14.3470    4.9620   22.7410 C   0  0  0  0  0  0  0  0  0  0  0  0
    5.2900    1.1600   17.8300 C   0  0  0  0  0  0  0  0  0  0  0  0
   10.8080   -1.7360   22.1990 C   0  0  0  0  0  0  0  0  0  0  0  0
   10.0590   -1.2030   24.5080 C   0  0  0  0  0  0  0  0  0  0  0  0
    6.7190   -3.3600   23.0890 C   0  0  0  0  0  0  0  0  0  0  0  0
    4.9450   -1.9800   22.9110 C   0  0  0  0  0  0  0  0  0  0  0  0
   15.5730    4.3430   22.0680 C   0  0  0  0  0  0  0  0  0  0  0  0
   11.0620   -1.5810   23.6190 C   0  0  0  0  0  0  0  0  0  0  0  0
    5.9440   -4.4340   23.7330 N   0  0  0  0  0  0  0  0  0  0  0  0
    4.4550   -2.4810   24.0990 C   0  0  0  0  0  0  0  0  0  0  0  0
   12.4200   -1.8080   24.1080 C   0  0  0  0  0  0  0  0  0  0  0  0
   16.9020    4.2160   22.6180 C   0  0  0  0  0  0  0  0  0  0  0  0
    5.4410   -5.2290   22.7900 N   0  0  0  0  0  0  0  0  0  0  0  0
    4.8420   -3.7640   24.5340 C   0  0  0  0  0  0  0  0  0  0  0  0
   12.7780   -0.6560   24.7880 C   0  0  0  0  0  0  0  0  0  0  0  0
   13.3800   -2.0000   22.9310 C   0  0  0  0  0  0  0  0  0  0  0  0
   12.7350   -2.9860   25.0150 C   0  0  0  0  0  0  0  0  0  0  0  0
   17.4740    4.9850   23.5800 C   0  0  0  0  0  0  0  0  0  0  0  0
    6.4540   -5.6880   21.9100 C   0  0  0  0  0  0  0  0  0  0  0  0
    4.6570   -6.3060   23.4710 C   0  0  0  0  0  0  0  0  0  0  0  0
   18.8310    5.4240   23.4370 C   0  0  0  0  0  0  0  0  0  0  0  0
    6.4610   -5.4110   20.3960 C   0  0  0  0  0  0  0  0  0  0  0  0
    3.0710   -6.1620   23.5340 C   0  0  1  0  0  0  0  0  0  0  0  0
   19.2550    6.8610   23.5520 C   0  0  0  0  0  0  0  0  0  0  0  0
    5.5790   -6.4020   19.7420 C   0  0  0  0  0  0  0  0  0  0  0  0
    2.4870   -7.0970   22.5650 N   0  0  0  0  0  0  0  0  0  0  0  0
    2.5990   -6.3690   24.8370 C   0  0  0  0  0  0  0  0  0  0  0  0
   20.6450    7.1330   23.1300 N   0  0  0  0  0  0  0  0  0  0  0  0
    1.0640   -7.3600   22.3890 C   0  0  0  0  0  0  0  0  0  0  0  0
    2.9260   -7.6170   25.3250 C   0  0  0  0  0  0  0  0  0  0  0  0
   21.4710    6.1620   23.6080 C   0  0  0  0  0  0  0  0  0  0  0  0
    0.9700   -8.3990   21.4500 C   0  0  0  0  0  0  0  0  0  0  0  0
    0.6020   -7.8450   23.6120 O   0  0  0  0  0  0  0  0  0  0  0  0
    2.3300   -8.1130   26.4480 N   0  0  0  0  0  0  0  0  0  0  0  0
    3.8700   -8.2940   24.6220 O   0  0  0  0  0  0  0  0  0  0  0  0
    0.0970   -6.1940   22.0900 C   0  0  0  0  0  0  0  0  0  0  0  0
   22.5160    5.5790   22.9130 C   0  0  0  0  0  0  0  0  0  0  0  0
   21.2010    5.7270   24.8990 C   0  0  0  0  0  0  0  0  0  0  0  0
   23.2690    4.5730   23.4660 C   0  0  0  0  0  0  0  0  0  0  0  0
   21.9360    4.7150   25.4810 C   0  0  0  0  0  0  0  0  0  0  0  0
   22.9570    4.1390   24.7480 C   0  0  0  0  0  0  0  0  0  0  0  0
   23.9400    2.8240   25.3140 S   0  0  0  0  0  0  0  0  0  0  0  0
   23.0620    1.7000   25.2570 O   0  0  0  0  0  0  0  0  0  0  0  0
   24.2370    3.2520   26.8910 N   0  0  0  0  0  0  0  0  0  0  0  0
   25.1720    2.8390   24.5690 O   0  0  0  0  0  0  0  0  0  0  0  0
   25.0340    4.3480   27.1990 C   0  0  0  0  0  0  0  0  0  0  0  0
   25.0670    4.6150   28.5360 N   0  0  0  0  0  0  0  0  0  0  0  0
   25.8050    5.1870   26.2150 C   0  0  0  0  0  0  0  0  0  0  0  0
   25.8210    5.6730   29.0040 C   0  0  0  0  0  0  0  0  0  0  0  0
   26.6350    6.3490   26.7120 C   0  0  0  0  0  0  0  0  0  0  0  0
   26.5970    6.5510   28.2140 C   0  0  0  0  0  0  0  0  0  0  0  0
  1  2  1  0
  2  3  1  0
  1  4  1  0
  4  5  2  0
  6  4  1  6
  6  7  1  0
  3  8  1  0
  6  9  1  0
  8 10  1  0
  8 11  2  0
  9 12  2  0
  9 13  1  0
  7 14  1  0
  7 15  1  0
 10 16  1  0
 13 17  2  0
 12 18  1  0
 14 19  2  0
 14 20  1  0
 21 15  1  6
 16 22  1  0
 17 23  1  0
 18 23  2  0
 19 24  1  0
 20 25  2  0
 21 26  1  0
 21 27  1  0
 22 28  1  0
 24 29  2  0
 25 29  1  0
 26 30  1  0
 27 31  2  0
 29 32  1  0
 28 33  1  0
 30 34  1  0
 30 35  1  0
 31 35  1  0
 32 36  1  0
 32 37  1  0
 32 38  1  0
 33 39  1  0
 34 40  1  0
 34 41  1  0
 39 42  1  0
 40 43  1  0
 44 41  1  1
 42 45  1  0
 43 46  2  3
 44 47  1  0
 44 48  1  0
 45 49  1  0
 47 50  1  0
 48 51  1  0
 49 52  1  0
 50 53  1  0
 50 54  1  0
 51 55  1  0
 51 56  2  0
 50 57  1  0
 52 58  2  0
 52 59  1  0
 58 60  1  0
 59 61  2  0
 60 62  2  0
 61 62  1  0
 62 63  1  0
 63 64  2  0
 63 65  1  0
 63 66  2  0
 65 67  1  0
 67 68  2  0
 67 69  1  0
 68 70  1  0
 69 71  2  0
 70 72  2  0
 71 72  1  0
M  END
