x0981-x2705-x1308
     RDKit          3D

 59 64  0  0  0  0  0  0  0  0999 V2000
    1.2740   -8.7660   21.3210 C   0  0  0  0  0  0  0  0  0  0  0  0
    1.4890   -7.4650   22.1560 C   0  0  0  0  0  0  0  0  0  0  0  0
    2.7440   -7.2260   22.7190 N   0  0  0  0  0  0  0  0  0  0  0  0
    0.4750   -6.7710   22.1880 O   0  0  0  0  0  0  0  0  0  0  0  0
    3.1180   -6.0300   23.5210 C   0  0  1  0  0  0  0  0  0  0  0  0
    2.4970   -6.2460   24.8970 C   0  0  1  0  0  0  0  0  0  0  0  0
    4.5820   -5.3680   23.4470 C   0  0  1  0  0  0  0  0  0  0  0  0
    2.9370   -7.4790   25.4420 C   0  0  0  0  0  0  0  0  0  0  0  0
    5.5360   -5.7080   24.3300 N   0  0  0  0  0  0  0  0  0  0  0  0
    5.1620   -5.5620   22.1030 C   0  0  0  0  0  0  0  0  0  0  0  0
    2.5950   -4.8720   25.5960 C   0  0  0  0  0  0  0  0  0  0  0  0
    2.3530   -7.8880   26.7610 N   0  0  0  0  0  0  0  0  0  0  0  0
    3.7340   -8.0690   24.7150 O   0  0  0  0  0  0  0  0  0  0  0  0
    5.1740   -5.4970   25.9910 S   0  0  0  0  0  0  0  0  0  0  0  0
    6.2080   -4.5300   21.6950 C   0  0  1  0  0  0  0  0  0  0  0  0
    6.8120   -5.0270   24.0400 C   0  0  2  0  0  0  0  0  0  0  0  0
    1.5940   -3.9640   25.7420 C   0  0  0  0  0  0  0  0  0  0  0  0
    3.8050   -4.4480   26.1170 C   0  0  0  0  0  0  0  0  0  0  0  0
    6.4970   -3.7690   24.5630 O   0  0  0  0  0  0  0  0  0  0  0  0
    6.5990   -4.9930   20.2750 C   0  0  0  0  0  0  0  0  0  0  0  0
    5.6740   -3.0490   21.5850 C   0  0  0  0  0  0  0  0  0  0  0  0
    6.1530   -4.6850   26.6280 O   0  0  0  0  0  0  0  0  0  0  0  0
    4.8260   -6.7830   26.5230 O   0  0  0  0  0  0  0  0  0  0  0  0
    7.1790   -4.7990   22.6770 C   0  0  0  0  0  0  0  0  0  0  0  0
    4.0500   -3.2390   26.7340 C   0  0  0  0  0  0  0  0  0  0  0  0
    1.6690   -2.6420   26.3650 C   0  0  0  0  0  0  0  0  0  0  0  0
    5.8590   -6.2060   19.7140 C   0  0  0  0  0  0  0  0  0  0  0  0
    6.4170   -1.9630   22.3600 C   0  0  0  0  0  0  0  0  0  0  0  0
    0.3170   -1.5980   26.4770 Cl  0  0  0  0  0  0  0  0  0  0  0  0
    2.9070   -2.2650   26.8690 C   0  0  0  0  0  0  0  0  0  0  0  0
    7.4200   -1.1540   21.8880 N   0  0  0  0  0  0  0  0  0  0  0  0
    6.9940    0.1210   21.6750 C   0  0  1  0  0  0  0  0  0  0  0  0
    8.6390   -1.2760   22.7110 C   0  0  0  0  0  0  0  0  0  0  0  0
    7.7660    1.2390   21.9240 C   0  0  0  0  0  0  0  0  0  0  0  0
    6.3110    0.4010   20.3300 C   0  0  0  0  0  0  0  0  0  0  0  0
    8.8040   -1.4150   24.1800 N   0  0  0  0  0  0  0  0  0  0  0  0
    9.9240   -1.2780   22.2170 C   0  0  0  0  0  0  0  0  0  0  0  0
    7.5380    2.2190   22.8000 N   0  0  0  0  0  0  0  0  0  0  0  0
    8.9080    1.3440   21.0660 O   0  0  0  0  0  0  0  0  0  0  0  0
    5.1340    1.1560   20.2870 C   0  0  0  0  0  0  0  0  0  0  0  0
    6.9010   -0.0980   19.1500 C   0  0  0  0  0  0  0  0  0  0  0  0
   10.1550   -1.4790   24.3740 N   0  0  0  0  0  0  0  0  0  0  0  0
   10.8510   -1.4020   23.2480 C   0  0  0  0  0  0  0  0  0  0  0  0
   12.3290   -1.4360   23.1370 C   0  0  0  0  0  0  0  0  0  0  0  0
    6.3710    0.1370   17.8940 N   0  0  0  0  0  0  0  0  0  0  0  0
    4.5590    1.4220   19.0820 C   0  0  0  0  0  0  0  0  0  0  0  0
    8.2860    3.4570   22.9560 C   0  0  0  0  0  0  0  0  0  0  0  0
   12.8140   -0.1630   23.4410 C   0  0  0  0  0  0  0  0  0  0  0  0
   12.8520   -2.4030   24.2220 C   0  0  0  0  0  0  0  0  0  0  0  0
   12.7480   -1.8840   21.8970 C   0  0  0  0  0  0  0  0  0  0  0  0
    5.2100    0.8910   17.8040 C   0  0  0  0  0  0  0  0  0  0  0  0
    9.5550    3.4590   23.4840 C   0  0  0  0  0  0  0  0  0  0  0  0
    7.6500    4.6260   22.5430 C   0  0  0  0  0  0  0  0  0  0  0  0
   10.2880    2.2080   23.9310 C   0  0  0  0  0  0  0  0  0  0  0  0
    6.2900    4.6290   21.9620 C   0  0  0  0  0  0  0  0  0  0  0  0
   10.2480    4.6520   23.6310 C   0  0  0  0  0  0  0  0  0  0  0  0
    8.3010    5.8770   22.6640 C   0  0  0  0  0  0  0  0  0  0  0  0
    9.4180    1.4590   24.7310 C   0  0  0  0  0  0  0  0  0  0  0  0
    9.6080    6.0120   23.1990 C   0  0  0  0  0  0  0  0  0  0  0  0
  1  2  1  0
  2  3  1  0
  2  4  2  0
  5  3  1  1
  5  6  1  0
  5  7  1  0
  6  8  1  1
  7  9  1  0
  7 10  1  6
  6 11  1  0
  8 12  1  0
  8 13  2  0
  9 14  1  0
 10 15  1  0
  9 16  1  0
 11 17  2  0
 11 18  1  0
 14 18  1  0
 16 19  1  1
 15 20  1  6
 15 21  1  0
 14 22  2  0
 14 23  2  0
 15 24  1  0
 16 24  1  0
 18 25  2  0
 17 26  1  0
 20 27  2  3
 21 28  1  0
 26 29  1  0
 25 30  1  0
 26 30  2  0
 28 31  1  0
 31 32  1  0
 31 33  1  0
 32 34  1  6
 32 35  1  0
 33 36  2  0
 33 37  1  0
 34 38  1  0
 34 39  2  0
 35 40  2  0
 35 41  1  0
 36 42  1  0
 37 43  2  0
 42 43  1  0
 43 44  1  0
 41 45  2  0
 40 46  1  0
 38 47  1  0
 44 48  1  0
 44 49  1  0
 44 50  1  0
 45 51  1  0
 46 51  2  0
 47 52  2  0
 47 53  1  0
 52 54  1  0
 53 55  1  0
 52 56  1  0
 53 57  2  0
 54 58  1  0
 56 59  2  0
 57 59  1  0
M  END
