x0981-x3080
     RDKit          3D

 44 46  0  0  0  0  0  0  0  0999 V2000
    1.2790   -8.7270   21.3380 C   0  0  0  0  0  0  0  0  0  0  0  0
    1.4020   -7.4140   22.1650 C   0  0  0  0  0  0  0  0  0  0  0  0
    2.6130   -7.2300   22.8230 N   0  0  0  0  0  0  0  0  0  0  0  0
    0.5100   -6.5750   22.2300 O   0  0  0  0  0  0  0  0  0  0  0  0
    2.8570   -5.9350   23.5010 C   0  0  1  0  0  0  0  0  0  0  0  0
    2.8290   -6.1860   25.0640 C   0  0  0  0  0  0  0  0  0  0  0  0
    4.1580   -5.2430   23.0370 C   0  0  0  0  0  0  0  0  0  0  0  0
    5.2200   -5.8820   22.4100 N   0  0  0  0  0  0  0  0  0  0  0  0
    4.2010   -3.9480   23.2730 N   0  0  0  0  0  0  0  0  0  0  0  0
    3.1580   -7.6910   25.2930 C   0  0  0  0  0  0  0  0  0  0  0  0
    2.4140   -8.4200   26.3250 N   0  0  0  0  0  0  0  0  0  0  0  0
    4.0090   -8.2060   24.6210 O   0  0  0  0  0  0  0  0  0  0  0  0
    6.5510   -5.3950   21.9360 C   0  0  0  0  0  0  0  0  0  0  0  0
    5.1770   -3.0730   22.9660 C   0  0  0  0  0  0  0  0  0  0  0  0
    6.5180   -5.2550   20.4130 C   0  0  0  0  0  0  0  0  0  0  0  0
    6.2890   -3.0160   24.0140 C   0  0  0  0  0  0  0  0  0  0  0  0
    5.6380   -6.2940   19.7970 C   0  0  0  0  0  0  0  0  0  0  0  0
    6.3260   -1.6960   24.3040 C   0  0  0  0  0  0  0  0  0  0  0  0
    7.5590   -1.1740   23.6950 N   0  0  0  0  0  0  0  0  0  0  0  0
    8.7920   -0.8260   24.5620 S   0  0  1  0  0  0  0  0  0  0  0  0
    9.9100   -0.4630   23.3840 N   0  0  0  0  0  0  0  0  0  0  0  0
    8.8620    0.2590   25.5240 O   0  0  0  0  0  0  0  0  0  0  0  0
    9.4110   -2.3170   25.2520 C   0  0  0  0  0  0  0  0  0  0  0  0
   10.6270    0.8160   23.3940 C   0  0  0  0  0  0  0  0  0  0  0  0
    9.7140   -0.8180   22.0520 C   0  0  0  0  0  0  0  0  0  0  0  0
   10.7940   -2.4570   25.2920 C   0  0  0  0  0  0  0  0  0  0  0  0
    8.5510   -3.2940   25.7400 C   0  0  0  0  0  0  0  0  0  0  0  0
    8.7240    0.0810   21.3570 C   0  0  0  0  0  0  0  0  0  0  0  0
   11.5880   -1.4890   24.8110 N   0  0  0  0  0  0  0  0  0  0  0  0
   11.3090   -3.6180   25.8550 C   0  0  0  0  0  0  0  0  0  0  0  0
    9.0750   -4.4280   26.2720 C   0  0  0  0  0  0  0  0  0  0  0  0
    9.0390    1.4140   21.2070 O   0  0  0  0  0  0  0  0  0  0  0  0
    7.5720   -0.5260   20.9190 N   0  0  0  0  0  0  0  0  0  0  0  0
   12.7120   -3.7990   25.9600 C   0  0  0  0  0  0  0  0  0  0  0  0
   12.9090   -1.6240   24.8800 C   0  0  0  0  0  0  0  0  0  0  0  0
   10.4240   -4.6130   26.3420 C   0  0  0  0  0  0  0  0  0  0  0  0
    6.7380    0.0690   19.9800 C   0  0  0  0  0  0  0  0  0  0  0  0
   13.5400   -2.7390   25.4440 C   0  0  0  0  0  0  0  0  0  0  0  0
    5.6230    0.7860   20.4020 C   0  0  0  0  0  0  0  0  0  0  0  0
    6.9930   -0.0220   18.6220 C   0  0  0  0  0  0  0  0  0  0  0  0
    5.2830    0.9170   21.8570 C   0  0  0  0  0  0  0  0  0  0  0  0
    6.2370    0.5520   17.6630 N   0  0  0  0  0  0  0  0  0  0  0  0
    4.8290    1.3840   19.4310 C   0  0  0  0  0  0  0  0  0  0  0  0
    5.1820    1.2410   18.0870 C   0  0  0  0  0  0  0  0  0  0  0  0
  1  2  1  0
  2  3  1  0
  2  4  2  0
  3  5  1  0
  5  6  1  1
  5  7  1  0
  7  8  1  0
  7  9  2  3
  6 10  1  0
 10 11  1  0
 10 12  2  0
  8 13  1  0
  9 14  1  0
 13 15  1  0
 14 16  1  0
 15 17  2  3
 16 18  1  0
 18 19  1  0
 19 20  2  0
 20 21  1  6
 20 22  2  0
 20 23  1  0
 21 24  1  0
 21 25  1  0
 23 26  1  0
 23 27  2  0
 25 28  1  0
 26 29  2  0
 26 30  1  0
 27 31  1  0
 28 32  2  0
 28 33  1  0
 30 34  2  0
 29 35  1  0
 30 36  1  0
 31 36  2  0
 33 37  1  0
 34 38  1  0
 35 38  2  0
 37 39  2  0
 37 40  1  0
 39 41  1  0
 40 42  2  0
 39 43  1  0
 42 44  1  0
 43 44  2  0
M  END
