x0981-x1093
     RDKit          3D

 37 39  0  0  0  0  0  0  0  0999 V2000
    1.2870   -8.6870   21.4180 C   0  0  0  0  0  0  0  0  0  0  0  0
    1.4450   -7.3480   22.2020 C   0  0  0  0  0  0  0  0  0  0  0  0
    2.6900   -7.1360   22.7920 N   0  0  0  0  0  0  0  0  0  0  0  0
    0.5490   -6.5140   22.2870 O   0  0  0  0  0  0  0  0  0  0  0  0
    2.9580   -5.8680   23.5240 C   0  0  1  0  0  0  0  0  0  0  0  0
    2.6670   -6.1920   25.0460 C   0  0  0  0  0  0  0  0  0  0  0  0
    4.4040   -5.3350   23.3520 C   0  0  0  0  0  0  0  0  0  0  0  0
    5.2540   -5.6970   22.3440 N   0  0  0  0  0  0  0  0  0  0  0  0
    4.8710   -4.5170   24.1390 O   0  0  0  0  0  0  0  0  0  0  0  0
    3.0810   -7.6820   25.2910 C   0  0  0  0  0  0  0  0  0  0  0  0
    2.3680   -8.4290   26.3300 N   0  0  0  0  0  0  0  0  0  0  0  0
    3.9650   -8.1730   24.6340 O   0  0  0  0  0  0  0  0  0  0  0  0
    6.5570   -5.1290   21.8970 C   0  0  1  0  0  0  0  0  0  0  0  0
    6.5150   -5.0760   20.3640 C   0  0  0  0  0  0  0  0  0  0  0  0
    6.9800   -3.7960   22.5720 C   0  0  0  0  0  0  0  0  0  0  0  0
    5.6770   -6.2150   19.8310 C   0  0  0  0  0  0  0  0  0  0  0  0
    6.2300   -2.6790   22.1840 C   0  0  0  0  0  0  0  0  0  0  0  0
    6.9650   -1.3610   22.4520 C   0  0  0  0  0  0  0  0  0  0  0  0
    7.9110   -0.9880   21.2660 C   0  0  2  0  0  0  0  0  0  0  0  0
    8.8270   -0.0610   21.6340 C   0  0  0  0  0  0  0  0  0  0  0  0
    7.0880   -0.4220   20.1320 C   0  0  0  0  0  0  0  0  0  0  0  0
    8.7100    1.1220   21.3060 O   0  0  0  0  0  0  0  0  0  0  0  0
    9.9150   -0.4770   22.3910 N   0  0  0  0  0  0  0  0  0  0  0  0
    7.3430   -0.7090   18.8190 C   0  0  0  0  0  0  0  0  0  0  0  0
    6.0100    0.4270   20.2010 C   0  0  0  0  0  0  0  0  0  0  0  0
   10.6740    0.5150   22.9280 C   0  0  0  0  0  0  0  0  0  0  0  0
   10.0240   -1.6880   22.9670 C   0  0  0  0  0  0  0  0  0  0  0  0
    6.3360    0.0420   18.0710 N   0  0  0  0  0  0  0  0  0  0  0  0
    5.5360    0.7210   18.9290 C   0  0  0  0  0  0  0  0  0  0  0  0
    5.2380    1.0950   21.3110 C   0  0  0  0  0  0  0  0  0  0  0  0
   12.0050    0.0850   23.1300 C   0  0  0  0  0  0  0  0  0  0  0  0
   11.3500   -2.0660   23.0610 C   0  0  0  0  0  0  0  0  0  0  0  0
    4.5140    1.4980   18.5490 N   0  0  0  0  0  0  0  0  0  0  0  0
    4.1510    1.9160   20.9280 C   0  0  0  0  0  0  0  0  0  0  0  0
   12.0380   -1.1220   23.7370 N   0  0  0  0  0  0  0  0  0  0  0  0
    3.8510    2.0720   19.5680 C   0  0  0  0  0  0  0  0  0  0  0  0
   13.2980   -1.4950   23.9380 C   0  0  0  0  0  0  0  0  0  0  0  0
  1  2  1  0
  2  3  1  0
  2  4  2  0
  3  5  1  0
  5  6  1  1
  5  7  1  0
  7  8  1  0
  7  9  2  0
  6 10  1  0
 10 11  1  0
 10 12  2  0
  8 13  1  0
 13 14  1  6
 13 15  1  0
 14 16  2  3
 15 17  1  0
 17 18  1  0
 19 18  1  1
 19 20  1  0
 19 21  1  0
 20 22  2  0
 20 23  1  0
 21 24  2  0
 21 25  1  0
 23 26  1  0
 23 27  1  0
 24 28  1  0
 25 29  2  0
 28 29  1  0
 25 30  1  0
 26 31  1  0
 27 32  1  0
 29 33  1  0
 30 34  2  0
 31 35  1  0
 32 35  1  0
 33 36  2  0
 34 36  1  0
 35 37  1  0
M  END
