x0981-x3113-x2754
     RDKit          3D

 55 58  0  0  0  0  0  0  0  0999 V2000
    1.1630   -8.7970   21.1230 C   0  0  0  0  0  0  0  0  0  0  0  0
    1.1510   -7.5430   22.0340 C   0  0  0  0  0  0  0  0  0  0  0  0
    2.2510   -7.4940   22.8350 N   0  0  0  0  0  0  0  0  0  0  0  0
    0.2550   -6.7040   22.0040 O   0  0  0  0  0  0  0  0  0  0  0  0
    2.6710   -6.2610   23.3330 C   0  0  1  0  0  0  0  0  0  0  0  0
    2.6430   -6.2100   24.8670 C   0  0  0  0  0  0  0  0  0  0  0  0
    4.0960   -6.0560   22.8360 C   0  0  0  0  0  0  0  0  0  0  0  0
    5.1330   -6.0910   23.8420 N   0  0  0  0  0  0  0  0  0  0  0  0
    2.9800   -7.6040   25.3810 C   0  0  0  0  0  0  0  0  0  0  0  0
    2.3580   -8.2720   26.5220 N   0  0  0  0  0  0  0  0  0  0  0  0
    3.9830   -8.2360   24.6220 O   0  0  0  0  0  0  0  0  0  0  0  0
    5.9410   -4.8900   23.7250 C   0  0  2  0  0  0  0  0  0  0  0  0
    5.1550   -3.5570   23.6890 C   0  0  1  0  0  0  0  0  0  0  0  0
    6.9750   -5.1890   22.6150 C   0  0  0  0  0  0  0  0  0  0  0  0
    4.6410   -3.0610   25.0720 C   0  0  0  0  0  0  0  0  0  0  0  0
    7.0180   -4.0740   21.6250 N   0  0  0  0  0  0  0  0  0  0  0  0
    5.6390   -2.5550   22.9170 C   0  0  0  0  0  0  0  0  0  0  0  0
    6.6720   -4.4490   20.2810 C   0  0  0  0  0  0  0  0  0  0  0  0
    3.3940   -2.4070   25.0730 O   0  0  0  0  0  0  0  0  0  0  0  0
    5.3780   -3.2690   26.3490 N   0  0  0  0  0  0  0  0  0  0  0  0
    6.8340   -2.7520   22.3620 C   0  0  2  0  0  0  0  0  0  0  0  0
    5.8040   -5.7220   20.0550 C   0  0  0  0  0  0  0  0  0  0  0  0
    7.5130   -1.5400   21.8230 N   0  0  0  0  0  0  0  0  0  0  0  0
    4.8150   -2.4310   27.4560 C   0  0  0  0  0  0  0  0  0  0  0  0
    6.7300   -3.7480   26.4760 C   0  0  0  0  0  0  0  0  0  0  0  0
    7.0140   -0.1430   21.7790 C   0  0  1  0  0  0  0  0  0  0  0  0
    8.7360   -1.5920   22.4740 C   0  0  0  0  0  0  0  0  0  0  0  0
    7.0710   -4.9980   27.2990 C   0  0  0  0  0  0  0  0  0  0  0  0
    7.8980   -3.0170   25.7940 C   0  0  0  0  0  0  0  0  0  0  0  0
    8.0130    0.9990   21.9920 C   0  0  0  0  0  0  0  0  0  0  0  0
    6.4390    0.2280   20.4160 C   0  0  0  0  0  0  0  0  0  0  0  0
    9.7460   -2.1660   21.7790 C   0  0  0  0  0  0  0  0  0  0  0  0
    8.8930   -1.1150   23.7180 C   0  0  0  0  0  0  0  0  0  0  0  0
    8.4890   -5.4990   27.4410 C   0  0  0  0  0  0  0  0  0  0  0  0
    9.3410   -3.5280   25.9400 C   0  0  0  0  0  0  0  0  0  0  0  0
    8.1860    1.6580   23.2820 N   0  0  0  0  0  0  0  0  0  0  0  0
    8.6550    1.3700   20.9940 O   0  0  0  0  0  0  0  0  0  0  0  0
    5.2230    1.1110   20.3000 C   0  0  0  0  0  0  0  0  0  0  0  0
    6.9180   -0.1520   19.1070 C   0  0  0  0  0  0  0  0  0  0  0  0
   11.0940   -2.3080   22.3030 C   0  0  0  0  0  0  0  0  0  0  0  0
   10.0860   -1.1790   24.3460 C   0  0  0  0  0  0  0  0  0  0  0  0
    9.6460   -4.7810   26.7720 C   0  0  0  0  0  0  0  0  0  0  0  0
    9.3890    2.4730   23.4300 C   0  0  0  0  0  0  0  0  0  0  0  0
    6.3820    0.2240   17.9070 N   0  0  0  0  0  0  0  0  0  0  0  0
    4.6300    1.5240   18.9950 C   0  0  0  0  0  0  0  0  0  0  0  0
   11.3000   -1.7880   23.6740 C   0  0  0  0  0  0  0  0  0  0  0  0
   10.5740    1.8800   23.1960 C   0  0  0  0  0  0  0  0  0  0  0  0
   12.6450   -1.8420   24.3460 C   0  0  0  0  0  0  0  0  0  0  0  0
    5.2900    1.0270   17.8930 C   0  0  0  0  0  0  0  0  0  0  0  0
   11.6530    2.9100   23.3400 C   0  0  0  0  0  0  0  0  0  0  0  0
   13.5700   -1.9840   23.1700 C   0  0  0  0  0  0  0  0  0  0  0  0
   12.8890   -3.0190   25.2400 C   0  0  0  0  0  0  0  0  0  0  0  0
   12.7850   -0.7630   25.0850 C   0  0  0  0  0  0  0  0  0  0  0  0
   11.7250    3.8090   22.2610 O   0  0  0  0  0  0  0  0  0  0  0  0
   12.8800    4.6400   22.3790 C   0  0  0  0  0  0  0  0  0  0  0  0
  1  2  1  0
  2  3  1  0
  2  4  2  0
  3  5  1  0
  5  6  1  1
  5  7  1  0
  7  8  1  0
  6  9  1  0
  9 10  1  0
  9 11  2  0
 12  8  1  6
 12 13  1  0
 12 14  1  0
 13 15  1  1
 14 16  1  0
 13 17  1  0
 16 18  1  0
 15 19  2  0
 15 20  1  0
 16 21  1  0
 17 21  1  0
 18 22  2  3
 21 23  1  6
 20 24  1  0
 20 25  1  0
 23 26  1  0
 23 27  1  0
 25 28  2  0
 25 29  1  0
 26 30  1  6
 26 31  1  0
 27 32  2  0
 27 33  1  0
 28 34  1  0
 29 35  2  0
 30 36  1  0
 30 37  2  0
 31 38  2  0
 31 39  1  0
 32 40  1  0
 33 41  2  0
 34 42  2  0
 35 42  1  0
 36 43  1  0
 39 44  2  0
 38 45  1  0
 40 46  2  0
 41 46  1  0
 43 47  1  0
 46 48  1  0
 44 49  1  0
 45 49  2  0
 47 50  1  0
 48 51  1  0
 48 52  1  0
 48 53  1  0
 50 54  1  0
 54 55  1  0
M  END
