x0981-x2569
     RDKit          3D

 36 37  0  0  0  0  0  0  0  0999 V2000
    1.2800   -8.6930   21.3850 C   0  0  0  0  0  0  0  0  0  0  0  0
    1.4400   -7.3630   22.1820 C   0  0  0  0  0  0  0  0  0  0  0  0
    2.6800   -7.1710   22.7880 N   0  0  0  0  0  0  0  0  0  0  0  0
    0.5530   -6.5200   22.2650 O   0  0  0  0  0  0  0  0  0  0  0  0
    2.9590   -5.9060   23.5160 C   0  0  1  0  0  0  0  0  0  0  0  0
    2.6090   -6.2150   25.0280 C   0  0  0  0  0  0  0  0  0  0  0  0
    4.4300   -5.4410   23.4060 C   0  0  0  0  0  0  0  0  0  0  0  0
    5.1900   -5.4810   22.2730 N   0  0  0  0  0  0  0  0  0  0  0  0
    5.0160   -4.9470   24.3640 O   0  0  0  0  0  0  0  0  0  0  0  0
    3.0260   -7.7000   25.3050 C   0  0  0  0  0  0  0  0  0  0  0  0
    2.2640   -8.4440   26.3140 N   0  0  0  0  0  0  0  0  0  0  0  0
    3.9460   -8.1860   24.6910 O   0  0  0  0  0  0  0  0  0  0  0  0
    5.9950   -4.3890   21.6730 C   0  0  2  0  0  0  0  0  0  0  0  0
    6.4990   -4.8840   20.3060 C   0  0  0  0  0  0  0  0  0  0  0  0
    7.0650   -3.8570   22.6700 C   0  0  0  0  0  0  0  0  0  0  0  0
    5.8250   -6.1480   19.8430 C   0  0  0  0  0  0  0  0  0  0  0  0
    6.6310   -2.6180   23.1780 C   0  0  0  0  0  0  0  0  0  0  0  0
    7.6400   -1.5610   23.6410 C   0  0  0  0  0  0  0  0  0  0  0  0
    8.6420   -1.1220   22.5540 C   0  0  1  0  0  0  0  0  0  0  0  0
    8.0950    0.0380   21.6500 C   0  0  0  0  0  0  0  0  0  0  0  0
   10.0130   -0.7880   23.0510 C   0  0  0  0  0  0  0  0  0  0  0  0
    8.9060    1.1160   21.2910 O   0  0  0  0  0  0  0  0  0  0  0  0
    6.8460   -0.1450   21.2880 N   0  0  0  0  0  0  0  0  0  0  0  0
   11.0220   -1.1550   22.2100 C   0  0  0  0  0  0  0  0  0  0  0  0
   10.3340   -0.1400   24.2780 C   0  0  0  0  0  0  0  0  0  0  0  0
   11.7480    0.1250   24.6190 N   0  0  0  0  0  0  0  0  0  0  0  0
   12.3390   -0.9190   22.4940 C   0  0  0  0  0  0  0  0  0  0  0  0
    6.3180    0.3140   20.1530 C   0  0  0  0  0  0  0  0  0  0  0  0
   13.2260   -1.3000   21.5780 C   0  0  0  0  0  0  0  0  0  0  0  0
   12.7030   -0.3060   23.6460 C   0  0  0  0  0  0  0  0  0  0  0  0
    6.8900    0.0900   18.9250 C   0  0  0  0  0  0  0  0  0  0  0  0
    5.1490    1.0510   20.2410 C   0  0  0  0  0  0  0  0  0  0  0  0
   14.0080   -1.5380   20.4250 N   0  0  0  0  0  0  0  0  0  0  0  0
    6.3840    0.5630   17.7770 N   0  0  0  0  0  0  0  0  0  0  0  0
    4.5540    1.5750   19.0870 C   0  0  0  0  0  0  0  0  0  0  0  0
    5.2540    1.2820   17.8740 C   0  0  0  0  0  0  0  0  0  0  0  0
  1  2  1  0
  2  3  1  0
  2  4  2  0
  3  5  1  0
  5  6  1  1
  5  7  1  0
  7  8  1  0
  7  9  2  0
  6 10  1  0
 10 11  1  0
 10 12  2  0
  8 13  1  0
 13 14  1  6
 13 15  1  0
 14 16  2  3
 15 17  1  0
 17 18  1  0
 19 18  1  1
 19 20  1  0
 19 21  1  0
 20 22  2  0
 20 23  1  0
 21 24  2  0
 21 25  1  0
 25 26  2  0
 24 27  1  0
 23 28  1  0
 27 29  1  0
 26 30  1  0
 27 30  2  0
 28 31  2  0
 28 32  1  0
 29 33  3  0
 31 34  1  0
 32 35  2  0
 34 36  2  0
 35 36  1  0
M  END
