x0981-x0734-x3113-x2929
     RDKit          3D

 83 90  0  0  0  0  0  0  0  0999 V2000
    1.2540   -8.8320   21.1010 C   0  0  0  0  0  0  0  0  0  0  0  0
    1.2160   -7.5650   21.9950 C   0  0  0  0  0  0  0  0  0  0  0  0
    2.3470   -7.3900   22.7500 N   0  0  0  0  0  0  0  0  0  0  0  0
    0.2860   -6.7660   22.0350 O   0  0  0  0  0  0  0  0  0  0  0  0
    2.5470   -6.0830   23.3930 C   0  0  1  0  0  0  0  0  0  0  0  0
    2.2340   -6.3270   24.9230 C   0  0  0  0  0  0  0  0  0  0  0  0
    4.0000   -5.6940   23.2380 C   0  0  0  0  0  0  0  0  0  0  0  0
    4.8020   -6.1850   22.2550 N   0  0  0  0  0  0  0  0  0  0  0  0
    4.5170   -4.8580   24.0750 N   0  0  0  0  0  0  0  0  0  0  0  0
    2.8180   -7.7400   25.2910 C   0  0  0  0  0  0  0  0  0  0  0  0
    2.2340   -8.4200   26.4480 N   0  0  0  0  0  0  0  0  0  0  0  0
    3.7160   -8.2310   24.6380 O   0  0  0  0  0  0  0  0  0  0  0  0
    6.0280   -5.4410   22.2230 C   0  0  2  0  0  0  0  0  0  0  0  0
    5.9400   -4.8300   23.6550 C   0  0  1  0  0  0  0  0  0  0  0  0
    5.9740   -4.4560   21.1660 N   0  0  0  0  0  0  0  0  0  0  0  0
    6.6490   -3.5920   23.9400 N   0  0  0  0  0  0  0  0  0  0  0  0
    6.2600   -4.8770   19.9550 C   0  0  0  0  0  0  0  0  0  0  0  0
    7.4530   -4.1640   24.9970 C   0  0  0  0  0  0  0  0  0  0  0  0
    7.0160   -2.8570   22.6260 C   0  0  1  0  0  0  0  0  0  0  0  0
    5.9270   -3.0730   21.5960 C   0  0  0  0  0  0  0  0  0  0  0  0
    5.7530   -6.2580   19.6340 C   0  0  0  0  0  0  0  0  0  0  0  0
    7.5050   -1.4490   22.5330 N   0  0  0  0  0  0  0  0  0  0  0  0
    6.8330   -4.6760   26.3330 C   0  0  0  0  0  0  0  0  0  0  0  0
    8.8530   -4.3450   24.9180 C   0  0  0  0  0  0  0  0  0  0  0  0
    7.0640   -0.0880   22.0250 C   0  0  1  0  0  0  0  0  0  0  0  0
    5.4110   -4.5820   26.5790 N   0  0  0  0  0  0  0  0  0  0  0  0
    8.8480   -1.5720   22.8570 C   0  0  0  0  0  0  0  0  0  0  0  0
    9.6090   -4.9300   25.9590 C   0  0  0  0  0  0  0  0  0  0  0  0
    7.5630   -5.2640   27.3850 C   0  0  0  0  0  0  0  0  0  0  0  0
    8.1330    1.0050   22.1800 C   0  0  0  0  0  0  0  0  0  0  0  0
    4.7420   -5.5780   26.2740 O   0  0  0  0  0  0  0  0  0  0  0  0
    4.9450   -3.5210   27.0210 O   0  0  0  0  0  0  0  0  0  0  0  0
    6.4210    0.1610   20.6490 C   0  0  0  0  0  0  0  0  0  0  0  0
    9.8630   -1.4550   21.9630 C   0  0  0  0  0  0  0  0  0  0  0  0
    8.9510   -1.8680   24.3270 C   0  0  0  0  0  0  0  0  0  0  0  0
    8.9320   -5.4140   27.2560 C   0  0  0  0  0  0  0  0  0  0  0  0
    8.4680    1.5260   23.3980 N   0  0  0  0  0  0  0  0  0  0  0  0
    8.6260    1.3700   21.0980 O   0  0  0  0  0  0  0  0  0  0  0  0
    5.2410    0.9010   20.5420 C   0  0  0  0  0  0  0  0  0  0  0  0
    7.0160   -0.3310   19.3180 C   0  0  0  0  0  0  0  0  0  0  0  0
   11.2660   -1.6330   22.4540 C   0  0  0  0  0  0  0  0  0  0  0  0
   10.2920   -2.0700   24.9140 C   0  0  0  0  0  0  0  0  0  0  0  0
    9.2540    2.7340   23.5430 C   0  0  0  0  0  0  0  0  0  0  0  0
    6.4560   -0.0650   18.0990 N   0  0  0  0  0  0  0  0  0  0  0  0
    4.6580    1.1650   19.1510 C   0  0  0  0  0  0  0  0  0  0  0  0
   11.4390   -1.9380   23.9440 C   0  0  0  0  0  0  0  0  0  0  0  0
   10.7260    2.3640   23.3970 C   0  0  0  0  0  0  0  0  0  0  0  0
   12.8420   -2.0510   24.3300 C   0  0  0  0  0  0  0  0  0  0  0  0
    5.3170    0.6610   18.0410 C   0  0  0  0  0  0  0  0  0  0  0  0
   11.2820    3.6290   23.1760 C   0  0  0  0  0  0  0  0  0  0  0  0
   13.5450   -2.3120   23.2370 C   0  0  0  0  0  0  0  0  0  0  0  0
   13.1350   -3.0680   25.3840 C   0  0  0  0  0  0  0  0  0  0  0  0
   13.0020   -0.7750   24.8770 C   0  0  0  0  0  0  0  0  0  0  0  0
   12.4640    3.5330   22.3880 O   0  0  0  0  0  0  0  0  0  0  0  0
   13.2820    4.7040   22.3860 C   0  0  0  0  0  0  0  0  0  0  0  0
   14.6160    4.3760   22.0000 C   0  0  0  0  0  0  0  0  0  0  0  0
   15.5130    4.8920   22.8920 C   0  0  0  0  0  0  0  0  0  0  0  0
   16.8290    4.4330   22.8490 C   0  0  0  0  0  0  0  0  0  0  0  0
   17.7430    5.2170   23.6020 C   0  0  0  0  0  0  0  0  0  0  0  0
   18.9680    6.0030   23.2420 C   0  0  0  0  0  0  0  0  0  0  0  0
   19.8910    5.8850   24.3070 C   0  0  0  0  0  0  0  0  0  0  0  0
   21.2840    5.9450   24.1310 C   0  0  0  0  0  0  0  0  0  0  0  0
   21.8620    4.9350   24.8150 N   0  0  0  0  0  0  0  0  0  0  0  0
   23.0870    4.5550   24.6600 C   0  0  0  0  0  0  0  0  0  0  0  0
   23.9710    5.1360   23.8040 N   0  0  0  0  0  0  0  0  0  0  0  0
   23.5000    3.3130   25.4900 C   0  0  1  0  0  0  0  0  0  0  0  0
   23.7890    2.2060   24.7140 C   0  0  0  0  0  0  0  0  0  0  0  0
   24.4510    3.2790   26.7340 C   0  0  1  0  0  0  0  0  0  0  0  0
   24.7650    1.3870   25.4280 N   0  0  0  0  0  0  0  0  0  0  0  0
   25.3480    2.2440   26.4580 C   0  0  0  0  0  0  0  0  0  0  0  0
   25.1400    4.5030   27.3280 C   0  0  0  0  0  0  0  0  0  0  0  0
   24.3360    0.0720   25.9310 C   0  0  0  0  0  0  0  0  0  0  0  0
   25.1300    4.6960   28.7260 C   0  0  0  0  0  0  0  0  0  0  0  0
   25.7910    5.4190   26.5050 C   0  0  0  0  0  0  0  0  0  0  0  0
   23.1530   -0.5450   25.2310 C   0  0  0  0  0  0  0  0  0  0  0  0
   25.7570    5.7850   29.3090 C   0  0  0  0  0  0  0  0  0  0  0  0
   26.4450    6.5420   27.0340 C   0  0  0  0  0  0  0  0  0  0  0  0
   22.0410   -0.9420   25.9740 C   0  0  0  0  0  0  0  0  0  0  0  0
   23.1250   -0.7590   23.6770 C   0  0  0  0  0  0  0  0  0  0  0  0
   26.4670    6.7790   28.4040 C   0  0  0  0  0  0  0  0  0  0  0  0
   20.9120   -1.5000   25.4930 N   0  0  0  0  0  0  0  0  0  0  0  0
   21.8540   -1.3900   23.1300 C   0  0  0  0  0  0  0  0  0  0  0  0
   20.8000   -1.7170   24.1710 C   0  0  0  0  0  0  0  0  0  0  0  0
  1  2  1  0
  2  3  1  0
  2  4  2  0
  3  5  1  0
  5  6  1  1
  5  7  1  0
  7  8  1  0
  7  9  2  0
  6 10  1  0
 10 11  1  0
 10 12  2  0
 13  8  1  6
 14  9  1  6
 13 14  1  0
 13 15  1  0
 14 16  1  0
 15 17  1  0
 16 18  1  0
 16 19  1  0
 15 20  1  0
 19 20  1  0
 17 21  2  3
 19 22  1  1
 18 23  2  0
 18 24  1  0
 22 25  1  0
 23 26  1  0
 22 27  1  0
 24 28  2  0
 23 29  1  0
 25 30  1  6
 26 31  2  0
 26 32  1  0
 25 33  1  0
 27 34  2  0
 27 35  1  0
 28 36  1  0
 29 36  2  0
 30 37  1  0
 30 38  2  0
 33 39  2  0
 33 40  1  0
 34 41  1  0
 35 42  2  0
 37 43  1  0
 40 44  2  0
 39 45  1  0
 41 46  2  0
 42 46  1  0
 43 47  1  0
 46 48  1  0
 44 49  1  0
 45 49  2  0
 47 50  1  0
 48 51  1  0
 48 52  1  0
 48 53  1  0
 50 54  1  0
 54 55  1  0
 55 56  1  0
 56 57  1  0
 57 58  1  0
 58 59  1  0
 59 60  1  0
 60 61  1  0
 61 62  1  0
 62 63  1  0
 63 64  2  3
 64 65  1  0
 66 64  1  6
 66 67  1  0
 66 68  1  0
 67 69  1  0
 68 70  1  0
 69 70  1  0
 68 71  1  6
 69 72  1  0
 71 73  2  0
 71 74  1  0
 72 75  1  0
 73 76  1  0
 74 77  2  0
 75 78  2  0
 75 79  1  0
 76 80  2  0
 77 80  1  0
 78 81  1  0
 79 82  2  0
 81 83  2  0
 82 83  1  0
M  CHG  2  26   1  32  -1
M  END
