x0981-x2776-x1402
     RDKit          3D

 58 63  0  0  0  0  0  0  0  0999 V2000
    1.1640   -8.7250   21.3010 C   0  0  0  0  0  0  0  0  0  0  0  0
    1.4650   -7.4680   22.1750 C   0  0  0  0  0  0  0  0  0  0  0  0
    2.8410   -7.5270   22.7010 N   0  0  0  0  0  0  0  0  0  0  0  0
    0.6420   -6.5710   22.3510 O   0  0  0  0  0  0  0  0  0  0  0  0
    3.3230   -6.3790   23.4710 C   0  0  1  0  0  0  0  0  0  0  0  0
    3.5840   -6.6910   24.7870 C   0  0  0  0  0  0  0  0  0  0  0  0
    4.6400   -5.7210   23.2560 C   0  0  2  0  0  0  0  0  0  0  0  0
    3.2740   -7.9230   25.3360 C   0  0  0  0  0  0  0  0  0  0  0  0
    4.1810   -5.5400   25.8940 S   0  0  2  0  0  0  0  0  0  0  0  0
    4.6310   -4.7830   24.3850 N   0  0  0  0  0  0  0  0  0  0  0  0
    4.8510   -4.8480   22.0260 C   0  0  0  0  0  0  0  0  0  0  0  0
    3.0710   -8.0020   26.6740 N   0  0  0  0  0  0  0  0  0  0  0  0
    3.1520   -8.8690   24.6070 O   0  0  0  0  0  0  0  0  0  0  0  0
    4.5330   -5.7900   27.2720 O   0  0  0  0  0  0  0  0  0  0  0  0
    6.1040   -4.3250   21.7840 C   0  0  1  0  0  0  0  0  0  0  0  0
    5.9860   -4.1610   24.1020 C   0  0  2  0  0  0  0  0  0  0  0  0
    4.5260   -3.8440   26.0870 C   0  0  0  0  0  0  0  0  0  0  0  0
    5.6250   -2.8110   24.1410 O   0  0  0  0  0  0  0  0  0  0  0  0
    6.5600   -4.9530   20.3770 C   0  0  0  0  0  0  0  0  0  0  0  0
    5.7660   -2.7900   21.5280 C   0  0  0  0  0  0  0  0  0  0  0  0
    6.8180   -4.5440   22.9840 C   0  0  0  0  0  0  0  0  0  0  0  0
    2.8880   -3.2760   25.9280 S   0  0  0  0  0  0  0  0  0  0  0  0
    5.4480   -2.6850   26.3240 C   0  0  0  0  0  0  0  0  0  0  0  0
    5.7990   -6.1700   19.9000 C   0  0  0  0  0  0  0  0  0  0  0  0
    6.8590   -1.9650   21.2630 C   0  0  0  0  0  0  0  0  0  0  0  0
    4.6320   -1.5350   26.3360 C   0  0  0  0  0  0  0  0  0  0  0  0
    3.2620   -1.6510   26.1520 C   0  0  0  0  0  0  0  0  0  0  0  0
    1.9880   -0.4940   26.1280 Cl  0  0  0  0  0  0  0  0  0  0  0  0
    7.1460   -0.9880   22.1190 N   0  0  0  0  0  0  0  0  0  0  0  0
    6.8490    0.4230   21.7200 C   0  0  1  0  0  0  0  0  0  0  0  0
    8.3990   -1.1920   22.6860 C   0  0  0  0  0  0  0  0  0  0  0  0
    7.9420    1.3050   21.8370 C   0  0  0  0  0  0  0  0  0  0  0  0
    6.2400    0.6520   20.3550 C   0  0  0  0  0  0  0  0  0  0  0  0
    9.4960   -1.7600   21.7990 C   0  0  0  0  0  0  0  0  0  0  0  0
    8.7080   -0.9070   23.9890 C   0  0  0  0  0  0  0  0  0  0  0  0
    7.7910    2.1360   22.9050 N   0  0  0  0  0  0  0  0  0  0  0  0
    8.8950    1.3470   21.0610 O   0  0  0  0  0  0  0  0  0  0  0  0
    5.0800    1.3790   20.2030 C   0  0  0  0  0  0  0  0  0  0  0  0
    6.8860    0.1160   19.0910 C   0  0  0  0  0  0  0  0  0  0  0  0
   10.7470   -1.9490   22.3490 C   0  0  0  0  0  0  0  0  0  0  0  0
    9.9610   -1.0870   24.5750 C   0  0  0  0  0  0  0  0  0  0  0  0
    6.3010    0.3800   17.7820 N   0  0  0  0  0  0  0  0  0  0  0  0
    4.5290    1.6220   18.9370 C   0  0  0  0  0  0  0  0  0  0  0  0
    8.5310    3.3140   23.1380 C   0  0  0  0  0  0  0  0  0  0  0  0
   11.0480   -1.6580   23.6310 C   0  0  0  0  0  0  0  0  0  0  0  0
   12.4340   -1.8880   24.0910 C   0  0  2  0  0  0  0  0  0  0  0  0
    5.1640    1.1190   17.8010 C   0  0  0  0  0  0  0  0  0  0  0  0
    9.9890    3.1380   23.6140 C   0  0  0  0  0  0  0  0  0  0  0  0
    7.9920    4.5980   22.9480 C   0  0  0  0  0  0  0  0  0  0  0  0
   12.4300   -2.6730   25.2650 O   0  0  0  0  0  0  0  0  0  0  0  0
   10.6940    1.8010   23.8510 C   0  0  0  0  0  0  0  0  0  0  0  0
   12.9010   -0.6610   24.4280 C   0  0  0  0  0  0  0  0  0  0  0  0
   10.6360    4.3480   23.8190 C   0  0  0  0  0  0  0  0  0  0  0  0
    8.7680    5.7470   23.1990 C   0  0  0  0  0  0  0  0  0  0  0  0
   13.7440   -3.0230   25.6090 C   0  0  0  0  0  0  0  0  0  0  0  0
   10.0810    5.5950   23.6350 C   0  0  0  0  0  0  0  0  0  0  0  0
   10.7930    6.7380   23.8750 O   0  0  0  0  0  0  0  0  0  0  0  0
   11.8350    6.6610   24.8540 C   0  0  0  0  0  0  0  0  0  0  0  0
  1  2  1  0
  2  3  1  0
  2  4  2  0
  5  3  1  6
  5  6  1  0
  5  7  1  0
  6  8  1  0
  6  9  2  0
  7 10  1  0
  9 10  1  0
  7 11  1  6
  8 12  1  0
  8 13  2  0
  9 14  2  0
 11 15  1  0
 10 16  1  0
  9 17  1  1
 16 18  1  6
 15 19  1  6
 15 20  1  0
 15 21  1  0
 16 21  1  0
 17 22  1  0
 17 23  2  0
 19 24  2  3
 20 25  1  0
 23 26  1  0
 22 27  1  0
 26 27  2  0
 27 28  1  0
 25 29  1  0
 29 30  1  0
 29 31  1  0
 30 32  1  6
 30 33  1  0
 31 34  2  0
 31 35  1  0
 32 36  1  0
 32 37  2  0
 33 38  2  0
 33 39  1  0
 34 40  1  0
 35 41  2  0
 39 42  2  0
 38 43  1  0
 36 44  1  0
 40 45  2  0
 41 45  1  0
 45 46  1  0
 42 47  1  0
 43 47  2  0
 44 48  2  0
 44 49  1  0
 46 50  1  0
 48 51  1  0
 46 52  1  1
 48 53  1  0
 49 54  2  0
 50 55  1  0
 53 56  2  0
 54 56  1  0
 56 57  1  0
 57 58  1  0
M  END
