x0981-x0978-x3117-x0769
     RDKit          3D

 57 62  0  0  0  0  0  0  0  0999 V2000
    1.2000   -8.5910   21.5190 C   0  0  0  0  0  0  0  0  0  0  0  0
    1.5600   -7.3810   22.4460 C   0  0  0  0  0  0  0  0  0  0  0  0
    2.9200   -7.5780   22.8200 N   0  0  0  0  0  0  0  0  0  0  0  0
    1.2370   -6.2970   21.9960 O   0  0  0  0  0  0  0  0  0  0  0  0
    0.6070   -7.4500   23.5660 C   0  0  0  0  0  0  0  0  0  0  0  0
    3.6120   -6.5380   23.4540 C   0  0  0  0  0  0  0  0  0  0  0  0
    3.4300   -6.2750   24.8580 C   0  0  0  0  0  0  0  0  0  0  0  0
    4.6920   -5.5140   22.9020 C   0  0  2  0  0  0  0  0  0  0  0  0
    3.9710   -4.8290   21.9960 O   0  0  0  0  0  0  0  0  0  0  0  0
    2.7500   -7.3370   25.7140 C   0  0  0  0  0  0  0  0  0  0  0  0
    3.8690   -4.5380   25.1940 S   0  0  1  0  0  0  0  0  0  0  0  0
    5.7180   -5.9250   22.2340 C   0  0  0  0  0  0  0  0  0  0  0  0
    4.8890   -4.5870   23.8110 N   0  0  0  0  0  0  0  0  0  0  0  0
    1.8680   -7.1650   26.8520 N   0  0  0  0  0  0  0  0  0  0  0  0
    3.0980   -8.6580   25.2800 O   0  0  0  0  0  0  0  0  0  0  0  0
    3.3170   -5.2820   26.2940 O   0  0  0  0  0  0  0  0  0  0  0  0
    3.7430   -3.2830   26.2220 C   0  0  0  0  0  0  0  0  0  0  0  0
    6.2910   -4.6100   21.6360 C   0  0  1  0  0  0  0  0  0  0  0  0
    6.2410   -4.2660   23.9710 C   0  0  0  0  0  0  0  0  0  0  0  0
    6.8310   -5.0990   20.2800 C   0  0  0  0  0  0  0  0  0  0  0  0
    5.5800   -3.1490   21.5220 C   0  0  0  0  0  0  0  0  0  0  0  0
    4.6350   -2.3840   26.9250 C   0  0  0  0  0  0  0  0  0  0  0  0
    2.3710   -3.1100   26.3150 C   0  0  0  0  0  0  0  0  0  0  0  0
    7.2490   -4.4820   22.8210 C   0  0  0  0  0  0  0  0  0  0  0  0
    5.8990   -6.1570   19.7480 C   0  0  0  0  0  0  0  0  0  0  0  0
    5.9650   -2.6020   26.7830 F   0  0  0  0  0  0  0  0  0  0  0  0
    6.6870   -2.1450   21.1330 C   0  0  0  0  0  0  0  0  0  0  0  0
    1.7580   -2.0960   27.0550 C   0  0  0  0  0  0  0  0  0  0  0  0
    4.0240   -1.3780   27.6570 C   0  0  0  0  0  0  0  0  0  0  0  0
    6.9370   -1.2010   22.0710 N   0  0  0  0  0  0  0  0  0  0  0  0
    2.6160   -1.2330   27.7190 C   0  0  0  0  0  0  0  0  0  0  0  0
    6.6800    0.2290   21.7890 C   0  0  1  0  0  0  0  0  0  0  0  0
    8.2140   -1.3570   22.6470 C   0  0  0  0  0  0  0  0  0  0  0  0
    7.7960    1.2430   21.9630 C   0  0  0  0  0  0  0  0  0  0  0  0
    6.0650    0.5270   20.4290 C   0  0  0  0  0  0  0  0  0  0  0  0
    9.3920   -1.9410   21.8350 C   0  0  0  0  0  0  0  0  0  0  0  0
    8.3890   -0.9860   23.9230 C   0  0  0  0  0  0  0  0  0  0  0  0
    7.9750    2.0920   22.9930 N   0  0  0  0  0  0  0  0  0  0  0  0
    8.6800    1.2930   20.8630 O   0  0  0  0  0  0  0  0  0  0  0  0
    4.8630    1.1400   20.2730 C   0  0  0  0  0  0  0  0  0  0  0  0
    6.7510    0.1810   19.2980 C   0  0  0  0  0  0  0  0  0  0  0  0
   10.7440   -2.0930   22.4640 C   0  0  0  0  0  0  0  0  0  0  0  0
    9.7390   -1.1050   24.6440 C   0  0  0  0  0  0  0  0  0  0  0  0
    6.4200    0.3590   17.9980 N   0  0  0  0  0  0  0  0  0  0  0  0
    4.4130    1.3810   19.0340 C   0  0  0  0  0  0  0  0  0  0  0  0
    8.7950    3.2860   22.8090 C   0  0  0  0  0  0  0  0  0  0  0  0
   10.9130   -1.6650   23.8850 C   0  0  0  0  0  0  0  0  0  0  0  0
   12.2650   -1.7810   24.5360 C   0  0  0  0  0  0  0  0  0  0  0  0
    5.2490    0.9660   17.8820 C   0  0  0  0  0  0  0  0  0  0  0  0
    9.8570    3.3190   23.8860 C   0  0  0  0  0  0  0  0  0  0  0  0
    7.8720    4.5190   22.6200 C   0  0  0  0  0  0  0  0  0  0  0  0
   12.6750   -0.6260   25.0260 C   0  0  0  0  0  0  0  0  0  0  0  0
   13.2350   -1.1450   23.5890 C   0  0  0  0  0  0  0  0  0  0  0  0
   12.7350   -3.0210   24.9360 C   0  0  0  0  0  0  0  0  0  0  0  0
   10.2480    4.5640   24.2060 C   0  0  0  0  0  0  0  0  0  0  0  0
    8.6410    5.8080   22.9500 C   0  0  0  0  0  0  0  0  0  0  0  0
   10.0140    5.5200   23.1850 O   0  0  0  0  0  0  0  0  0  0  0  0
  1  2  1  0
  2  3  1  0
  2  4  1  0
  2  5  1  0
  3  6  1  0
  6  7  1  0
  6  8  1  0
  8  9  1  6
  7 10  1  0
  7 11  2  0
  8 12  1  0
  8 13  1  0
 11 13  1  0
 10 14  1  0
 10 15  2  0
 11 16  2  0
 11 17  1  6
 12 18  1  0
 13 19  1  0
 18 20  1  6
 18 21  1  0
 17 22  2  0
 17 23  1  0
 18 24  1  0
 19 24  1  0
 20 25  2  3
 22 26  1  0
 21 27  1  0
 23 28  2  0
 22 29  1  0
 27 30  1  0
 28 31  1  0
 29 31  2  0
 30 32  1  0
 30 33  1  0
 32 34  1  6
 32 35  1  0
 33 36  2  0
 33 37  1  0
 34 38  1  0
 34 39  2  0
 35 40  2  0
 35 41  1  0
 36 42  1  0
 37 43  2  0
 41 44  2  0
 40 45  1  0
 38 46  1  0
 42 47  2  0
 43 47  1  0
 47 48  1  0
 44 49  1  0
 45 49  2  0
 46 50  1  0
 46 51  1  0
 48 52  1  0
 48 53  1  0
 48 54  1  0
 50 55  1  0
 51 56  1  0
 55 57  1  0
 56 57  1  0
M  END
