x0981-x2754
     RDKit          3D

 29 30  0  0  0  0  0  0  0  0999 V2000
    1.2230   -8.7910   21.2230 C   0  0  0  0  0  0  0  0  0  0  0  0
    1.2240   -7.5190   22.0320 C   0  0  0  0  0  0  0  0  0  0  0  0
    2.3270   -7.3170   22.8200 N   0  0  0  0  0  0  0  0  0  0  0  0
    0.2990   -6.7160   21.9690 O   0  0  0  0  0  0  0  0  0  0  0  0
    2.4030   -6.1190   23.6720 C   0  0  1  0  0  0  0  0  0  0  0  0
    2.4020   -6.4850   25.1440 C   0  0  0  0  0  0  0  0  0  0  0  0
    3.6070   -5.2080   23.3080 C   0  0  0  0  0  0  0  0  0  0  0  0
    4.8180   -5.7070   22.9530 N   0  0  0  0  0  0  0  0  0  0  0  0
    2.9570   -7.8510   25.3440 C   0  0  0  0  0  0  0  0  0  0  0  0
    2.3730   -8.5990   26.3150 N   0  0  0  0  0  0  0  0  0  0  0  0
    3.8800   -8.2380   24.6570 O   0  0  0  0  0  0  0  0  0  0  0  0
    5.9010   -4.9870   23.6810 C   0  0  2  0  0  0  0  0  0  0  0  0
    5.5360   -3.4610   23.7940 C   0  0  1  0  0  0  0  0  0  0  0  0
    7.1230   -5.1490   22.8050 C   0  0  0  0  0  0  0  0  0  0  0  0
    4.9390   -3.0360   25.1710 C   0  0  0  0  0  0  0  0  0  0  0  0
    6.9610   -4.3390   21.6110 N   0  0  0  0  0  0  0  0  0  0  0  0
    6.5750   -2.6240   23.3790 C   0  0  0  0  0  0  0  0  0  0  0  0
    6.8710   -4.9320   20.3670 C   0  0  0  0  0  0  0  0  0  0  0  0
    3.5280   -2.8640   25.2090 O   0  0  0  0  0  0  0  0  0  0  0  0
    5.7190   -2.8200   26.3380 N   0  0  0  0  0  0  0  0  0  0  0  0
    6.9120   -2.8850   21.8820 C   0  0  0  0  0  0  0  0  0  0  0  0
    5.9020   -5.8150   20.0160 C   0  0  0  0  0  0  0  0  0  0  0  0
    5.1470   -2.1440   27.5150 C   0  0  0  0  0  0  0  0  0  0  0  0
    6.9830   -3.4730   26.5790 C   0  0  0  0  0  0  0  0  0  0  0  0
    7.0680   -4.6220   27.3880 C   0  0  0  0  0  0  0  0  0  0  0  0
    8.1540   -2.9720   26.0160 C   0  0  0  0  0  0  0  0  0  0  0  0
    8.2800   -5.2590   27.6340 C   0  0  0  0  0  0  0  0  0  0  0  0
    9.3760   -3.5940   26.2460 C   0  0  0  0  0  0  0  0  0  0  0  0
    9.4290   -4.7190   27.0460 C   0  0  0  0  0  0  0  0  0  0  0  0
  1  2  1  0
  2  3  1  0
  2  4  2  0
  3  5  1  0
  5  6  1  1
  5  7  1  0
  7  8  1  0
  6  9  1  0
  9 10  1  0
  9 11  2  0
 12  8  1  6
 12 13  1  0
 12 14  1  0
 13 15  1  1
 14 16  1  0
 13 17  1  0
 16 18  1  0
 15 19  2  0
 15 20  1  0
 16 21  1  0
 17 21  1  0
 18 22  2  3
 20 23  1  0
 20 24  1  0
 24 25  2  0
 24 26  1  0
 25 27  1  0
 26 28  2  0
 27 29  2  0
 28 29  1  0
M  END
