x0981-x0354
     RDKit          3D

 35 36  0  0  0  0  0  0  0  0999 V2000
    1.2910   -8.6870   21.4180 C   0  0  0  0  0  0  0  0  0  0  0  0
    1.4340   -7.3420   22.1930 C   0  0  0  0  0  0  0  0  0  0  0  0
    2.6710   -7.1160   22.8000 N   0  0  0  0  0  0  0  0  0  0  0  0
    0.5360   -6.5110   22.2620 O   0  0  0  0  0  0  0  0  0  0  0  0
    2.8920   -5.8560   23.5680 C   0  0  1  0  0  0  0  0  0  0  0  0
    2.6780   -6.2150   25.0960 C   0  0  0  0  0  0  0  0  0  0  0  0
    4.2700   -5.1820   23.3550 C   0  0  0  0  0  0  0  0  0  0  0  0
    5.1640   -5.5350   22.3620 N   0  0  0  0  0  0  0  0  0  0  0  0
    4.5920   -4.1820   24.1730 N   0  0  0  0  0  0  0  0  0  0  0  0
    3.0820   -7.7110   25.2940 C   0  0  0  0  0  0  0  0  0  0  0  0
    2.3670   -8.4860   26.3130 N   0  0  0  0  0  0  0  0  0  0  0  0
    3.9600   -8.1870   24.6230 O   0  0  0  0  0  0  0  0  0  0  0  0
    6.3290   -4.7990   21.8070 C   0  0  0  0  0  0  0  0  0  0  0  0
    5.7350   -3.4670   24.0980 C   0  0  0  0  0  0  0  0  0  0  0  0
    6.4490   -5.0310   20.3140 C   0  0  0  0  0  0  0  0  0  0  0  0
    6.3090   -2.6890   25.2860 C   0  0  0  0  0  0  0  0  0  0  0  0
    5.6970   -6.2380   19.8230 C   0  0  0  0  0  0  0  0  0  0  0  0
    7.5940   -2.4270   24.9480 N   0  0  0  0  0  0  0  0  0  0  0  0
    8.5190   -1.4200   25.2910 C   0  0  0  0  0  0  0  0  0  0  0  0
    8.1590   -0.2820   26.2750 C   0  0  0  0  0  0  0  0  0  0  0  0
    9.8250   -1.3660   24.7960 N   0  0  0  0  0  0  0  0  0  0  0  0
    7.4330   -0.6650   27.3810 O   0  0  0  0  0  0  0  0  0  0  0  0
   10.5160   -2.6030   24.3680 C   0  0  0  0  0  0  0  0  0  0  0  0
   10.7260   -0.2600   25.0360 C   0  0  0  0  0  0  0  0  0  0  0  0
   11.2560   -2.3140   23.2210 C   0  0  0  0  0  0  0  0  0  0  0  0
   11.6450   -0.0910   24.0100 C   0  0  0  0  0  0  0  0  0  0  0  0
    6.9860    0.3370   28.2140 C   0  0  0  0  0  0  0  0  0  0  0  0
   12.2970   -1.3340   23.5740 N   0  0  0  0  0  0  0  0  0  0  0  0
    7.7000    1.5320   28.2880 C   0  0  0  0  0  0  0  0  0  0  0  0
    5.8350    0.2150   29.0050 C   0  0  0  0  0  0  0  0  0  0  0  0
   13.1660   -1.1190   22.4330 C   0  0  0  0  0  0  0  0  0  0  0  0
    7.3350    2.6260   29.1110 C   0  0  0  0  0  0  0  0  0  0  0  0
    5.4160    1.3930   29.9080 C   0  0  0  0  0  0  0  0  0  0  0  0
    6.2020    2.5590   29.9160 C   0  0  0  0  0  0  0  0  0  0  0  0
    5.8080    3.7150   30.7870 C   0  0  0  0  0  0  0  0  0  0  0  0
  1  2  1  0
  2  3  1  0
  2  4  2  0
  3  5  1  0
  5  6  1  1
  5  7  1  0
  7  8  1  0
  7  9  2  3
  6 10  1  0
 10 11  1  0
 10 12  2  0
  8 13  1  0
  9 14  1  0
 13 15  1  0
 14 16  1  0
 15 17  2  3
 16 18  1  0
 18 19  2  3
 19 20  1  0
 19 21  1  0
 20 22  1  0
 21 23  1  0
 21 24  1  0
 23 25  1  0
 24 26  1  0
 22 27  1  0
 25 28  1  0
 26 28  1  0
 27 29  2  0
 27 30  1  0
 28 31  1  0
 29 32  1  0
 30 33  2  0
 32 34  2  0
 33 34  1  0
 34 35  1  0
M  END
