x0981-x0755-x3115
     RDKit          3D

 54 57  0  0  0  0  0  0  0  0999 V2000
    1.2780   -8.6320   21.5080 C   0  0  0  0  0  0  0  0  0  0  0  0
    1.5060   -7.2950   22.2120 C   0  0  0  0  0  0  0  0  0  0  0  0
    2.8000   -6.9380   22.6260 N   0  0  0  0  0  0  0  0  0  0  0  0
    0.5470   -6.5420   22.3740 O   0  0  0  0  0  0  0  0  0  0  0  0
    3.0790   -5.9020   23.6550 C   0  0  1  0  0  0  0  0  0  0  0  0
    2.5920   -6.4750   24.9760 C   0  0  0  0  0  0  0  0  0  0  0  0
    4.4270   -5.0680   23.5710 C   0  0  1  0  0  0  0  0  0  0  0  0
    3.0170   -7.9250   25.2230 C   0  0  0  0  0  0  0  0  0  0  0  0
    5.3460   -5.4850   24.4720 N   0  0  0  0  0  0  0  0  0  0  0  0
    4.7930   -4.8240   22.2740 C   0  0  0  0  0  0  0  0  0  0  0  0
    2.3160   -8.6500   26.1720 N   0  0  0  0  0  0  0  0  0  0  0  0
    3.9490   -8.3230   24.5690 O   0  0  0  0  0  0  0  0  0  0  0  0
    5.0470   -5.1030   26.1160 S   0  0  0  0  0  0  0  0  0  0  0  0
    6.3080   -4.7690   21.9420 C   0  0  1  0  0  0  0  0  0  0  0  0
    6.6610   -5.4350   24.0780 C   0  0  0  0  0  0  0  0  0  0  0  0
    6.5430   -5.0760   20.4170 C   0  0  0  0  0  0  0  0  0  0  0  0
    4.4810   -6.0940   26.9960 O   0  0  0  0  0  0  0  0  0  0  0  0
    6.2510   -4.4660   26.5830 O   0  0  0  0  0  0  0  0  0  0  0  0
    6.9320   -3.4210   22.4450 C   0  0  0  0  0  0  0  0  0  0  0  0
    3.8970   -3.7360   26.0710 C   0  0  0  0  0  0  0  0  0  0  0  0
    6.7950   -5.7280   22.7530 C   0  0  0  0  0  0  0  0  0  0  0  0
    5.7310   -6.2340   19.8570 C   0  0  0  0  0  0  0  0  0  0  0  0
    6.1940   -2.2380   21.7800 C   0  0  0  0  0  0  0  0  0  0  0  0
    2.3960   -3.9630   26.1430 C   0  0  0  0  0  0  0  0  0  0  0  0
    4.3690   -2.2890   25.9600 C   0  0  0  0  0  0  0  0  0  0  0  0
    5.6660   -1.9800   25.9000 F   0  0  0  0  0  0  0  0  0  0  0  0
    7.1540   -1.1410   21.8670 N   0  0  0  0  0  0  0  0  0  0  0  0
    3.3620   -1.2480   25.9240 C   0  0  0  0  0  0  0  0  0  0  0  0
    1.5200   -2.8940   26.0990 C   0  0  0  0  0  0  0  0  0  0  0  0
    6.6530    0.2150   21.7490 C   0  0  1  0  0  0  0  0  0  0  0  0
    1.9950   -1.4890   25.9870 C   0  0  0  0  0  0  0  0  0  0  0  0
    8.4260   -1.3340   22.5070 C   0  0  0  0  0  0  0  0  0  0  0  0
    7.8420    1.1850   21.9390 C   0  0  0  0  0  0  0  0  0  0  0  0
    6.1340    0.5170   20.3710 C   0  0  0  0  0  0  0  0  0  0  0  0
    9.4720   -1.8590   21.7970 C   0  0  0  0  0  0  0  0  0  0  0  0
    8.6730   -1.0030   23.8270 C   0  0  0  0  0  0  0  0  0  0  0  0
    7.8730    1.7170   23.1920 N   0  0  0  0  0  0  0  0  0  0  0  0
    8.6210    1.4130   21.0100 O   0  0  0  0  0  0  0  0  0  0  0  0
    5.0140    1.3140   20.2030 C   0  0  0  0  0  0  0  0  0  0  0  0
    6.7690    0.0210   19.2340 C   0  0  0  0  0  0  0  0  0  0  0  0
   10.8680   -2.0520   22.3690 C   0  0  0  0  0  0  0  0  0  0  0  0
   10.0250   -1.1580   24.5050 C   0  0  0  0  0  0  0  0  0  0  0  0
    8.3550    3.0520   23.5270 C   0  0  0  0  0  0  0  0  0  0  0  0
    6.2850    0.3380   17.9110 N   0  0  0  0  0  0  0  0  0  0  0  0
    4.5490    1.6160   18.9330 C   0  0  0  0  0  0  0  0  0  0  0  0
   11.1810   -1.7110   23.6780 C   0  0  0  0  0  0  0  0  0  0  0  0
    8.1370    4.0740   22.5910 C   0  0  0  0  0  0  0  0  0  0  0  0
   12.5970   -1.8670   24.2120 C   0  0  0  0  0  0  0  0  0  0  0  0
    5.1830    1.1360   17.7990 C   0  0  0  0  0  0  0  0  0  0  0  0
    8.6800    5.3080   23.0710 O   0  0  0  0  0  0  0  0  0  0  0  0
   13.4280   -2.1250   23.0870 C   0  0  0  0  0  0  0  0  0  0  0  0
   12.8880   -3.0330   25.1300 C   0  0  0  0  0  0  0  0  0  0  0  0
   12.7820   -0.6860   24.9250 C   0  0  0  0  0  0  0  0  0  0  0  0
    8.3550    6.4090   22.2190 C   0  0  0  0  0  0  0  0  0  0  0  0
  1  2  1  0
  2  3  1  0
  2  4  2  0
  3  5  1  0
  5  6  1  1
  5  7  1  0
  6  8  1  0
  7  9  1  0
  7 10  1  6
  8 11  1  0
  8 12  2  0
  9 13  1  0
 10 14  1  0
  9 15  1  0
 14 16  1  6
 13 17  2  0
 13 18  2  0
 14 19  1  0
 13 20  1  0
 14 21  1  0
 15 21  1  0
 16 22  2  3
 19 23  1  0
 20 24  2  0
 20 25  1  0
 25 26  1  0
 23 27  1  0
 25 28  2  0
 24 29  1  0
 27 30  1  0
 28 31  1  0
 29 31  2  0
 27 32  1  0
 30 33  1  6
 30 34  1  0
 32 35  2  0
 32 36  1  0
 33 37  1  0
 33 38  2  0
 34 39  2  0
 34 40  1  0
 35 41  1  0
 36 42  2  0
 37 43  1  0
 40 44  2  0
 39 45  1  0
 41 46  2  0
 42 46  1  0
 43 47  1  0
 46 48  1  0
 44 49  1  0
 45 49  2  0
 47 50  1  0
 48 51  1  0
 48 52  1  0
 48 53  1  0
 50 54  1  0
M  END
