x0981-x0540-x3110-x0161
     RDKit          3D

 64 67  0  0  0  0  0  0  0  0999 V2000
    7.9010    1.4140   23.3870 N   0  0  0  0  0  0  0  0  0  0  0  0
    8.6680    2.5840   23.9290 C   0  0  0  0  0  0  0  0  0  0  0  0
   10.1370    2.5190   23.5610 C   0  0  0  0  0  0  0  0  0  0  0  0
    7.8760    0.9490   21.9790 C   0  0  0  0  0  0  0  0  0  0  0  0
    8.6480    1.4160   21.1090 O   0  0  0  0  0  0  0  0  0  0  0  0
    6.7900   -0.1340   21.6860 C   0  0  2  0  0  0  0  0  0  0  0  0
    7.2280   -1.4320   21.9260 N   0  0  0  0  0  0  0  0  0  0  0  0
    6.3040    0.1480   20.4530 C   0  0  0  0  0  0  0  0  0  0  0  0
   10.8640    3.7200   23.5150 C   0  0  0  0  0  0  0  0  0  0  0  0
   10.7030    1.3060   23.2740 C   0  0  0  0  0  0  0  0  0  0  0  0
   10.2510    5.1060   23.8320 C   0  0  0  0  0  0  0  0  0  0  0  0
    6.2510   -2.4710   22.0640 C   0  0  0  0  0  0  0  0  0  0  0  0
    5.0830    0.7900   20.3480 C   0  0  0  0  0  0  0  0  0  0  0  0
    6.9510   -0.1450   19.1170 C   0  0  0  0  0  0  0  0  0  0  0  0
    8.5150   -1.5850   22.5110 C   0  0  0  0  0  0  0  0  0  0  0  0
   12.1410    1.2540   22.8910 C   0  0  0  0  0  0  0  0  0  0  0  0
   12.2260    3.6520   23.1560 C   0  0  0  0  0  0  0  0  0  0  0  0
   13.1900    4.8180   23.0480 C   0  0  0  0  0  0  0  0  0  0  0  0
    9.2980    5.0020   24.8370 O   0  0  0  0  0  0  0  0  0  0  0  0
   11.0760    5.7920   24.4130 O   0  0  0  0  0  0  0  0  0  0  0  0
    9.4350    5.6200   22.8820 N   0  0  0  0  0  0  0  0  0  0  0  0
    4.2510    1.1600   21.5420 C   0  0  0  0  0  0  0  0  0  0  0  0
    6.7500   -3.6590   22.6510 C   0  0  0  0  0  0  0  0  0  0  0  0
    6.4270    0.1960   17.9200 N   0  0  0  0  0  0  0  0  0  0  0  0
    4.5490    1.1380   19.1040 C   0  0  0  0  0  0  0  0  0  0  0  0
    9.5650   -2.0450   21.7610 C   0  0  0  0  0  0  0  0  0  0  0  0
    8.7670   -1.2780   23.8350 C   0  0  0  0  0  0  0  0  0  0  0  0
   12.8210    2.4350   22.8580 C   0  0  0  0  0  0  0  0  0  0  0  0
   13.1480    5.4170   21.6460 C   0  0  0  0  0  0  0  0  0  0  0  0
    4.8310    2.0680   22.4190 C   0  0  0  0  0  0  0  0  0  0  0  0
    6.4530   -5.0240   21.9600 C   0  0  1  0  0  0  0  0  0  0  0  0
    5.2490    0.8300   17.9440 C   0  0  0  0  0  0  0  0  0  0  0  0
   10.8400   -2.1910   22.2660 C   0  0  0  0  0  0  0  0  0  0  0  0
   10.0330   -1.4140   24.3890 C   0  0  0  0  0  0  0  0  0  0  0  0
    3.8970    2.9750   23.1130 N   0  0  0  0  0  0  0  0  0  0  0  0
    5.1720   -5.7020   22.4070 N   0  0  0  0  0  0  0  0  0  0  0  0
    6.4600   -5.0390   20.3710 C   0  0  0  0  0  0  0  0  0  0  0  0
   11.1110   -1.8740   23.6020 C   0  0  0  0  0  0  0  0  0  0  0  0
   12.5400   -2.0290   24.1250 C   0  0  0  0  0  0  0  0  0  0  0  0
    2.8570    2.3490   23.6920 C   0  0  0  0  0  0  0  0  0  0  0  0
    4.2580   -5.2310   23.3340 C   0  0  0  0  0  0  0  0  0  0  0  0
    5.6750   -6.2150   19.8290 C   0  0  0  0  0  0  0  0  0  0  0  0
   12.9680   -0.7910   24.5090 C   0  0  0  0  0  0  0  0  0  0  0  0
   13.4410   -2.4170   22.9660 C   0  0  0  0  0  0  0  0  0  0  0  0
   12.7810   -2.9630   25.0690 C   0  0  0  0  0  0  0  0  0  0  0  0
    2.9740    1.5240   24.5970 O   0  0  0  0  0  0  0  0  0  0  0  0
    1.6640    2.7000   23.1620 N   0  0  0  0  0  0  0  0  0  0  0  0
    3.0450   -5.9060   23.5410 C   0  0  1  0  0  0  0  0  0  0  0  0
    4.4870   -4.2180   23.9840 O   0  0  0  0  0  0  0  0  0  0  0  0
   13.7530   -0.0950   23.5650 O   0  0  0  0  0  0  0  0  0  0  0  0
    2.8540   -6.9600   22.7070 N   0  0  0  0  0  0  0  0  0  0  0  0
    2.7450   -6.3280   24.8520 C   0  0  0  0  0  0  0  0  0  0  0  0
    0.5710    3.1060   24.0390 C   0  0  0  0  0  0  0  0  0  0  0  0
    1.5840   -7.2690   22.2770 C   0  0  0  0  0  0  0  0  0  0  0  0
    3.0400   -7.6310   25.2270 C   0  0  0  0  0  0  0  0  0  0  0  0
    0.7040    4.4440   24.4060 C   0  0  0  0  0  0  0  0  0  0  0  0
   -0.7150    2.7380   23.3160 C   0  0  0  0  0  0  0  0  0  0  0  0
    1.3270   -8.5170   21.6650 C   0  0  0  0  0  0  0  0  0  0  0  0
    0.6110   -6.4720   22.3680 O   0  0  0  0  0  0  0  0  0  0  0  0
    2.3930   -8.2750   26.2200 N   0  0  0  0  0  0  0  0  0  0  0  0
    3.9440   -8.1720   24.6080 O   0  0  0  0  0  0  0  0  0  0  0  0
   -0.5390    5.1150   24.9930 C   0  0  0  0  0  0  0  0  0  0  0  0
   -1.9740    3.3350   23.9630 C   0  0  0  0  0  0  0  0  0  0  0  0
   -1.8090    4.7060   24.1720 C   0  0  0  0  0  0  0  0  0  0  0  0
  1  2  1  0
  2  3  1  0
  1  4  1  0
  4  5  2  0
  6  4  1  6
  6  7  1  0
  6  8  1  0
  3  9  2  0
  3 10  1  0
  9 11  1  0
  7 12  1  0
  8 13  1  0
  8 14  2  0
  7 15  1  0
 10 16  2  0
  9 17  1  0
 17 18  1  0
 11 19  1  0
 11 20  1  0
 11 21  1  0
 13 22  1  0
 12 23  1  0
 14 24  1  0
 13 25  2  0
 15 26  2  0
 15 27  1  0
 16 28  1  0
 17 28  2  0
 18 29  1  0
 22 30  1  0
 31 23  1  6
 24 32  2  0
 25 32  1  0
 26 33  1  0
 27 34  2  0
 30 35  1  0
 31 36  1  0
 31 37  1  0
 33 38  2  0
 34 38  1  0
 38 39  1  0
 35 40  1  0
 36 41  1  0
 37 42  2  3
 39 43  1  0
 39 44  1  0
 39 45  1  0
 40 46  2  0
 40 47  1  0
 41 48  1  0
 41 49  2  0
 43 50  2  0
 48 51  1  0
 48 52  1  1
 47 53  1  0
 51 54  1  0
 52 55  1  0
 53 56  1  0
 53 57  1  0
 54 58  1  0
 54 59  2  0
 55 60  1  0
 55 61  2  0
 56 62  1  0
 57 63  1  0
 62 64  1  0
 63 64  1  0
M  END
