x0995-x1458-x2694
     RDKit          3D

 47 50  0  0  0  0  0  0  0  0999 V2000
    7.6050   -0.9940   21.7990 N   0  0  0  0  0  0  0  0  0  0  0  0
    7.0820    0.3950   21.6430 C   0  0  1  0  0  0  0  0  0  0  0  0
    8.1300    1.5160   21.8090 C   0  0  0  0  0  0  0  0  0  0  0  0
    6.6820   -1.9980   21.8130 C   0  0  0  0  0  0  0  0  0  0  0  0
    8.7010   -1.1100   22.7710 C   0  0  0  0  0  0  0  0  0  0  0  0
    6.4250    0.5950   20.3070 C   0  0  0  0  0  0  0  0  0  0  0  0
    8.7860   -1.2020   24.2320 N   0  0  0  0  0  0  0  0  0  0  0  0
    9.9380   -1.1650   22.2100 C   0  0  0  0  0  0  0  0  0  0  0  0
    7.3300   -3.3600   22.1460 C   0  0  2  0  0  0  0  0  0  0  0  0
    7.7840    2.4280   22.7240 N   0  0  0  0  0  0  0  0  0  0  0  0
    9.1620    1.5960   21.1510 O   0  0  0  0  0  0  0  0  0  0  0  0
    5.2390    1.3250   20.2160 C   0  0  0  0  0  0  0  0  0  0  0  0
    6.9510    0.0830   19.1290 C   0  0  0  0  0  0  0  0  0  0  0  0
   10.1820   -1.3130   24.4210 O   0  0  0  0  0  0  0  0  0  0  0  0
   10.8860   -1.2900   23.2210 C   0  0  0  0  0  0  0  0  0  0  0  0
    6.7050   -4.3760   21.5330 N   0  0  0  0  0  0  0  0  0  0  0  0
    7.3240   -3.4480   23.5230 C   0  0  0  0  0  0  0  0  0  0  0  0
   12.3910   -1.3800   23.1630 C   0  0  0  0  0  0  0  0  0  0  0  0
    6.2420   -4.1400   20.2360 C   0  0  0  0  0  0  0  0  0  0  0  0
    6.4110    0.2570   17.9170 N   0  0  0  0  0  0  0  0  0  0  0  0
    4.6420    1.5260   19.0000 C   0  0  0  0  0  0  0  0  0  0  0  0
    8.5810    3.5460   23.0560 C   0  0  0  0  0  0  0  0  0  0  0  0
    6.2720   -4.1700   24.0130 C   0  0  2  0  0  0  0  0  0  0  0  0
    6.5560   -5.5850   22.1690 C   0  0  0  0  0  0  0  0  0  0  0  0
   12.9240    0.0500   23.2890 C   0  0  0  0  0  0  0  0  0  0  0  0
   12.8600   -1.9840   21.8060 C   0  0  0  0  0  0  0  0  0  0  0  0
   12.9340   -2.2330   24.3350 C   0  0  0  0  0  0  0  0  0  0  0  0
    3.4190    2.2940   19.0830 N   0  0  0  0  0  0  0  0  0  0  0  0
    5.1970   -4.6560   19.8920 O   0  0  0  0  0  0  0  0  0  0  0  0
    6.0180   -3.9970   25.5070 C   0  0  0  0  0  0  0  0  0  0  0  0
    7.0620   -3.2920   19.2740 C   0  0  0  0  0  0  0  0  0  0  0  0
    5.1600    1.0440   17.8360 C   0  0  0  0  0  0  0  0  0  0  0  0
    9.8050    3.3800   23.6970 C   0  0  0  0  0  0  0  0  0  0  0  0
    8.1770    4.8440   22.7550 C   0  0  0  0  0  0  0  0  0  0  0  0
    6.0630   -5.4280   23.4760 C   0  0  0  0  0  0  0  0  0  0  0  0
   10.3330    2.0170   24.0590 C   0  0  0  0  0  0  0  0  0  0  0  0
    6.9500   -3.5110   26.3500 N   0  0  0  0  0  0  0  0  0  0  0  0
    4.8880   -4.2800   25.8670 O   0  0  0  0  0  0  0  0  0  0  0  0
   10.6060    4.5920   24.0260 C   0  0  0  0  0  0  0  0  0  0  0  0
    8.9620    5.9540   23.0830 C   0  0  0  0  0  0  0  0  0  0  0  0
    7.5670   -4.4260   27.3530 C   0  0  0  0  0  0  0  0  0  0  0  0
    6.6030   -2.2680   26.7710 C   0  0  0  0  0  0  0  0  0  0  0  0
   10.1930    5.8220   23.7300 C   0  0  0  0  0  0  0  0  0  0  0  0
   11.0260    6.8370   24.0940 O   0  0  0  0  0  0  0  0  0  0  0  0
    8.9010   -4.7800   27.1110 C   0  0  0  0  0  0  0  0  0  0  0  0
    6.8530   -5.6640   27.5430 C   0  0  0  0  0  0  0  0  0  0  0  0
   11.8550    6.6240   25.2290 C   0  0  0  0  0  0  0  0  0  0  0  0
  1  2  1  0
  2  3  1  6
  1  4  1  0
  1  5  1  0
  2  6  1  0
  5  7  2  0
  5  8  1  0
  9  4  1  1
  3 10  1  0
  3 11  2  0
  6 12  2  0
  6 13  1  0
  7 14  1  0
  8 15  2  0
 14 15  1  0
  9 16  1  0
  9 17  1  0
 15 18  1  0
 16 19  1  0
 13 20  2  0
 12 21  1  0
 10 22  1  0
 17 23  1  0
 16 24  1  0
 18 25  1  0
 18 26  1  0
 18 27  1  0
 21 28  1  0
 19 29  2  0
 23 30  1  1
 19 31  1  0
 20 32  1  0
 21 32  2  0
 22 33  2  0
 22 34  1  0
 23 35  1  0
 24 35  1  0
 33 36  1  0
 30 37  1  0
 30 38  2  0
 33 39  1  0
 34 40  2  0
 37 41  1  0
 37 42  1  0
 39 43  2  0
 40 43  1  0
 43 44  1  0
 41 45  1  0
 41 46  1  0
 44 47  1  0
M  END
