x0995-x3124
     RDKit          3D

 27 28  0  0  0  0  0  0  0  0999 V2000
    6.8520   -1.7280   22.0340 N   0  0  0  0  0  0  0  0  0  0  0  0
    6.0420   -2.9170   21.6930 C   0  0  0  0  0  0  0  0  0  0  0  0
    4.8050   -3.0480   21.3260 O   0  0  0  0  0  0  0  0  0  0  0  0
    6.5350   -0.2670   21.7670 C   0  0  1  0  0  0  0  0  0  0  0  0
    8.1450   -1.8190   22.6190 C   0  0  0  0  0  0  0  0  0  0  0  0
    6.7540   -4.2370   21.7720 C   0  0  0  0  0  0  0  0  0  0  0  0
    7.5790    0.6140   22.1140 C   0  0  0  0  0  0  0  0  0  0  0  0
    6.1130    0.1750   20.3430 C   0  0  0  0  0  0  0  0  0  0  0  0
    9.2580   -1.7340   21.7880 C   0  0  0  0  0  0  0  0  0  0  0  0
    8.4240   -1.9650   23.9960 C   0  0  0  0  0  0  0  0  0  0  0  0
    6.6900   -4.8630   20.3870 C   0  0  0  0  0  0  0  0  0  0  0  0
    7.3550    1.4500   23.1830 N   0  0  0  0  0  0  0  0  0  0  0  0
    8.6190    0.6650   21.4520 O   0  0  0  0  0  0  0  0  0  0  0  0
    5.0040    0.9520   20.2530 C   0  0  0  0  0  0  0  0  0  0  0  0
    6.7790   -0.1090   18.9910 C   0  0  0  0  0  0  0  0  0  0  0  0
   10.7030   -1.7810   22.3420 C   0  0  0  0  0  0  0  0  0  0  0  0
    9.7070   -2.0120   24.5510 C   0  0  0  0  0  0  0  0  0  0  0  0
    7.8680    2.7930   23.1250 C   0  0  0  0  0  0  0  0  0  0  0  0
    6.3920    0.3330   17.7920 N   0  0  0  0  0  0  0  0  0  0  0  0
    4.4860    1.4790   19.0800 C   0  0  0  0  0  0  0  0  0  0  0  0
   10.9710   -1.9080   23.7050 C   0  0  0  0  0  0  0  0  0  0  0  0
   12.4100   -1.9160   24.2390 C   0  0  0  0  0  0  0  0  0  0  0  0
    3.2540    2.3370   19.0300 N   0  0  0  0  0  0  0  0  0  0  0  0
    5.1860    1.1900   17.7520 C   0  0  0  0  0  0  0  0  0  0  0  0
   12.6430   -0.6660   24.8240 C   0  0  0  0  0  0  0  0  0  0  0  0
   13.3730   -2.0370   23.0530 C   0  0  0  0  0  0  0  0  0  0  0  0
   12.8780   -2.9940   25.2470 C   0  0  0  0  0  0  0  0  0  0  0  0
  1  2  1  0
  2  3  2  0
  1  4  1  0
  1  5  1  0
  2  6  1  0
  4  7  1  6
  4  8  1  0
  5  9  2  0
  5 10  1  0
  6 11  1  0
  7 12  1  0
  7 13  2  0
  8 14  2  0
  8 15  1  0
  9 16  1  0
 10 17  2  0
 12 18  1  0
 15 19  2  0
 14 20  1  0
 16 21  2  0
 17 21  1  0
 21 22  1  0
 20 23  1  0
 19 24  1  0
 20 24  2  0
 22 25  1  0
 22 26  1  0
 22 27  1  0
M  END
