x0995-x0689-x2776-x2703
     RDKit          3D

 52 56  0  0  0  0  0  0  0  0999 V2000
    6.9790   -0.9990   21.9020 N   0  0  0  0  0  0  0  0  0  0  0  0
    6.8190    0.3550   21.6160 C   0  0  1  0  0  0  0  0  0  0  0  0
    7.9940    1.2810   21.8330 C   0  0  0  0  0  0  0  0  0  0  0  0
    5.8360   -1.9810   21.7850 C   0  0  0  0  0  0  0  0  0  0  0  0
    8.3060   -1.2940   22.5090 C   0  0  0  0  0  0  0  0  0  0  0  0
    5.5690   -3.0450   22.6640 C   0  0  0  0  0  0  0  0  0  0  0  0
    6.2350    0.6470   20.3100 C   0  0  0  0  0  0  0  0  0  0  0  0
    9.3450   -1.4200   21.6210 C   0  0  0  0  0  0  0  0  0  0  0  0
    8.5890   -1.4250   23.8600 C   0  0  0  0  0  0  0  0  0  0  0  0
    7.8310    2.0680   22.8330 N   0  0  0  0  0  0  0  0  0  0  0  0
    8.9810    1.3330   21.1160 O   0  0  0  0  0  0  0  0  0  0  0  0
    5.0870    1.3970   20.1740 C   0  0  0  0  0  0  0  0  0  0  0  0
    6.8080    0.2030   19.1630 C   0  0  0  0  0  0  0  0  0  0  0  0
   10.6430   -1.6580   22.0480 C   0  0  0  0  0  0  0  0  0  0  0  0
    9.8660   -1.6530   24.3680 C   0  0  0  0  0  0  0  0  0  0  0  0
    6.0730   -4.4420   22.1510 C   0  0  0  0  0  0  0  0  0  0  0  0
    6.3740   -4.2680   20.6470 C   0  0  0  0  0  0  0  0  0  0  0  0
    6.4100    0.4070   17.8910 N   0  0  0  0  0  0  0  0  0  0  0  0
    4.5480    1.6960   18.9360 C   0  0  0  0  0  0  0  0  0  0  0  0
    8.5350    3.2830   23.0100 C   0  0  0  0  0  0  0  0  0  0  0  0
   10.9470   -1.7770   23.5250 C   0  0  0  0  0  0  0  0  0  0  0  0
    5.0620   -5.4210   22.1970 C   0  0  0  0  0  0  0  0  0  0  0  0
    7.2780   -4.9020   22.9790 C   0  0  0  0  0  0  0  0  0  0  0  0
   12.3080   -1.9930   24.0040 C   0  0  2  0  0  0  0  0  0  0  0  0
    3.3350    2.4930   18.8380 N   0  0  0  0  0  0  0  0  0  0  0  0
    7.6250   -3.4640   20.1880 C   0  0  0  0  0  0  0  0  0  0  0  0
    5.5330   -4.7290   19.9100 O   0  0  0  0  0  0  0  0  0  0  0  0
    5.1840    1.2260   17.7870 C   0  0  0  0  0  0  0  0  0  0  0  0
    9.8160    3.2110   23.5710 C   0  0  0  0  0  0  0  0  0  0  0  0
    7.9440    4.4510   22.6360 C   0  0  0  0  0  0  0  0  0  0  0  0
    4.8660   -6.0760   23.3770 C   0  0  0  0  0  0  0  0  0  0  0  0
    6.9380   -5.0420   24.3260 C   0  0  0  0  0  0  0  0  0  0  0  0
   12.2700   -2.7130   24.9900 O   0  0  0  0  0  0  0  0  0  0  0  0
   10.4140    1.8840   23.9590 C   0  0  0  0  0  0  0  0  0  0  0  0
   12.8620   -0.7500   24.2240 C   0  0  0  0  0  0  0  0  0  0  0  0
    6.5930    4.7240   22.0130 C   0  0  0  0  0  0  0  0  0  0  0  0
   10.5460    4.3520   23.7820 C   0  0  0  0  0  0  0  0  0  0  0  0
    8.7580    5.5740   22.8930 C   0  0  0  0  0  0  0  0  0  0  0  0
    5.4880   -5.3060   24.4740 N   0  0  0  0  0  0  0  0  0  0  0  0
   13.5740   -2.9880   25.4640 C   0  0  0  0  0  0  0  0  0  0  0  0
    9.5330    1.1960   24.7890 C   0  0  0  0  0  0  0  0  0  0  0  0
    4.7170   -5.1150   25.9420 S   0  0  0  0  0  0  0  0  0  0  0  0
   10.0340    5.5820   23.4550 C   0  0  0  0  0  0  0  0  0  0  0  0
   10.8720    6.6350   23.7340 O   0  0  0  0  0  0  0  0  0  0  0  0
    4.0240   -6.3650   26.1840 O   0  0  0  0  0  0  0  0  0  0  0  0
    5.6330   -4.5410   26.8950 O   0  0  0  0  0  0  0  0  0  0  0  0
    3.5200   -3.9580   25.7870 C   0  0  0  0  0  0  0  0  0  0  0  0
   11.7910    6.5110   24.8490 C   0  0  0  0  0  0  0  0  0  0  0  0
    3.9280   -2.2930   26.0970 S   0  0  0  0  0  0  0  0  0  0  0  0
    2.0180   -4.0770   25.4020 C   0  0  0  0  0  0  0  0  0  0  0  0
    1.4520   -2.7010   25.4460 C   0  0  0  0  0  0  0  0  0  0  0  0
    2.3390   -1.7030   25.7900 C   0  0  0  0  0  0  0  0  0  0  0  0
  1  2  1  0
  2  3  1  6
  1  4  1  0
  1  5  1  0
  4  6  1  0
  2  7  1  0
  5  8  2  0
  5  9  1  0
  3 10  1  0
  3 11  2  0
  7 12  2  0
  7 13  1  0
  8 14  1  0
  9 15  2  0
  6 16  1  0
 16 17  1  0
 13 18  2  0
 12 19  1  0
 10 20  1  0
 14 21  2  0
 15 21  1  0
 16 22  1  0
 16 23  1  0
 21 24  1  0
 19 25  1  0
 17 26  1  0
 17 27  2  0
 18 28  1  0
 19 28  2  0
 20 29  2  0
 20 30  1  0
 22 31  1  0
 23 32  1  0
 24 33  1  0
 29 34  1  0
 24 35  1  1
 30 36  1  0
 29 37  1  0
 30 38  2  0
 31 39  1  0
 32 39  1  0
 33 40  1  0
 34 41  1  0
 39 42  1  0
 37 43  2  0
 38 43  1  0
 43 44  1  0
 42 45  2  0
 42 46  2  0
 42 47  1  0
 44 48  1  0
 47 49  1  0
 47 50  2  0
 50 51  1  0
 49 52  1  0
 51 52  2  0
M  END
