x0995-x0831
     RDKit          3D

 26 28  0  0  0  0  0  0  0  0999 V2000
   12.6940   -2.1860   22.4580 C   0  0  0  0  0  0  0  0  0  0  0  0
   12.0760   -0.9510   23.0450 C   0  0  0  0  0  0  0  0  0  0  0  0
   12.7520    0.2590   22.9040 C   0  0  0  0  0  0  0  0  0  0  0  0
   10.8420   -1.0030   23.7180 C   0  0  0  0  0  0  0  0  0  0  0  0
   10.0490   -2.2830   23.9070 C   0  0  0  0  0  0  0  0  0  0  0  0
   10.2490    0.1390   24.2620 C   0  0  0  0  0  0  0  0  0  0  0  0
   12.2440    1.4640   23.4060 C   0  0  0  0  0  0  0  0  0  0  0  0
   11.0260    1.5450   24.0880 C   0  0  0  0  0  0  0  0  0  0  0  0
    9.1990   -2.6790   22.8200 N   0  0  0  0  0  0  0  0  0  0  0  0
    8.9770   -1.5740   21.8930 C   0  0  0  0  0  0  0  0  0  0  0  0
    7.9400   -3.2870   23.3070 C   0  0  0  0  0  0  0  0  0  0  0  0
    7.7630   -1.0380   22.1030 C   0  0  0  0  0  0  0  0  0  0  0  0
    7.1610   -3.7970   22.2750 C   0  0  0  0  0  0  0  0  0  0  0  0
    6.6070   -3.0070   21.3070 N   0  0  0  0  0  0  0  0  0  0  0  0
    6.8640   -1.5530   21.2040 C   0  0  1  0  0  0  0  0  0  0  0  0
    6.3520   -3.5820   20.0520 C   0  0  0  0  0  0  0  0  0  0  0  0
    5.5710   -0.9850   20.8690 C   0  0  0  0  0  0  0  0  0  0  0  0
    5.4630   -4.4260   19.8710 O   0  0  0  0  0  0  0  0  0  0  0  0
    7.2250   -3.1380   18.8790 C   0  0  0  0  0  0  0  0  0  0  0  0
    5.6400    0.0990   19.9390 N   0  0  0  0  0  0  0  0  0  0  0  0
    6.1040   -0.2160   18.7020 C   0  0  0  0  0  0  0  0  0  0  0  0
    4.4920    0.8300   19.8550 C   0  0  0  0  0  0  0  0  0  0  0  0
    4.6130    2.0350   18.8760 C   0  0  2  0  0  0  0  0  0  0  0  0
    6.3370    0.8790   17.9820 N   0  0  0  0  0  0  0  0  0  0  0  0
    3.2990    2.7110   18.8620 N   0  0  0  0  0  0  0  0  0  0  0  0
    5.0620    1.3840   17.7150 C   0  0  0  0  0  0  0  0  0  0  0  0
  1  2  1  0
  2  3  2  0
  2  4  1  0
  4  5  1  0
  4  6  2  0
  3  7  1  0
  6  8  1  0
  7  8  2  0
  5  9  1  0
  9 10  1  0
  9 11  1  0
 10 12  1  0
 11 13  1  0
 13 14  1  0
 12 15  1  0
 14 15  1  0
 14 16  1  0
 15 17  1  1
 16 18  2  0
 16 19  1  0
 17 20  1  0
 20 21  1  0
 20 22  1  0
 22 23  1  0
 21 24  1  0
 23 25  1  6
 23 26  1  0
 24 26  1  0
M  END
