x0995-x2694-x1380
     RDKit          3D

 48 53  0  0  0  0  0  0  0  0999 V2000
    7.0650   -1.4640   21.8060 C   0  0  2  0  0  0  0  0  0  0  0  0
    6.0980   -2.8070   21.4280 C   0  0  0  0  0  0  0  0  0  0  0  0
    4.9180   -3.0260   20.8550 O   0  0  0  0  0  0  0  0  0  0  0  0
    6.6390   -0.0190   21.5780 C   0  0  1  0  0  0  0  0  0  0  0  0
    6.4580   -1.8960   23.0830 C   0  0  0  0  0  0  0  0  0  0  0  0
    8.5480   -1.4360   22.5130 C   0  0  0  0  0  0  0  0  0  0  0  0
    7.4580    1.2590   22.0360 C   0  0  0  0  0  0  0  0  0  0  0  0
    6.1880    0.4270   20.2740 C   0  0  0  0  0  0  0  0  0  0  0  0
    8.6390   -1.2060   23.8550 N   0  0  0  0  0  0  0  0  0  0  0  0
    9.8130   -1.5870   22.0240 C   0  0  0  0  0  0  0  0  0  0  0  0
    6.6210   -4.0020   21.9740 C   0  0  2  0  0  0  0  0  0  0  0  0
    7.1390   -3.3040   23.2280 C   0  0  2  0  0  0  0  0  0  0  0  0
    7.7290   -4.5770   21.1270 C   0  0  0  0  0  0  0  0  0  0  0  0
    7.6110    2.3090   22.9270 N   0  0  0  0  0  0  0  0  0  0  0  0
    8.3380    1.3640   21.1480 O   0  0  0  0  0  0  0  0  0  0  0  0
    5.0700    1.2420   20.2290 C   0  0  0  0  0  0  0  0  0  0  0  0
    6.8820    0.0370   19.1230 C   0  0  0  0  0  0  0  0  0  0  0  0
   10.0100   -1.2180   24.1600 O   0  0  0  0  0  0  0  0  0  0  0  0
   10.7620   -1.4450   23.0330 C   0  0  0  0  0  0  0  0  0  0  0  0
    5.5430   -5.0920   22.2850 C   0  0  0  0  0  0  0  0  0  0  0  0
    6.7400   -3.9190   24.4720 C   0  0  0  0  0  0  0  0  0  0  0  0
   12.3170   -1.4690   23.1740 C   0  0  0  0  0  0  0  0  0  0  0  0
    6.4580    0.4870   17.8140 N   0  0  0  0  0  0  0  0  0  0  0  0
    4.5860    1.7360   18.8790 C   0  0  0  0  0  0  0  0  0  0  0  0
    8.5330    3.3640   23.1060 C   0  0  0  0  0  0  0  0  0  0  0  0
    5.1300   -5.0360   23.6280 C   0  0  0  0  0  0  0  0  0  0  0  0
    5.4090   -3.9420   24.3330 C   0  0  1  0  0  0  0  0  0  0  0  0
   12.8460   -0.2620   23.4340 C   0  0  0  0  0  0  0  0  0  0  0  0
   12.9220   -1.9490   21.8350 C   0  0  0  0  0  0  0  0  0  0  0  0
   12.7980   -2.4200   24.3030 C   0  0  0  0  0  0  0  0  0  0  0  0
    3.4750    2.5470   18.8020 N   0  0  0  0  0  0  0  0  0  0  0  0
    4.8440   -3.8660   25.7390 C   0  0  0  0  0  0  0  0  0  0  0  0
    5.2760    1.3610   17.7490 C   0  0  0  0  0  0  0  0  0  0  0  0
    9.8190    3.1990   23.6530 C   0  0  0  0  0  0  0  0  0  0  0  0
    8.1640    4.6720   22.7450 C   0  0  0  0  0  0  0  0  0  0  0  0
   10.2060    1.7690   24.0410 C   0  0  0  0  0  0  0  0  0  0  0  0
    3.4970   -3.4570   25.8480 O   0  0  0  0  0  0  0  0  0  0  0  0
   10.6600    4.3190   23.8180 C   0  0  0  0  0  0  0  0  0  0  0  0
    9.0210    5.7770   22.9260 C   0  0  0  0  0  0  0  0  0  0  0  0
    5.5990   -4.1180   26.8740 N   0  0  0  0  0  0  0  0  0  0  0  0
   10.2840    5.6070   23.4750 C   0  0  0  0  0  0  0  0  0  0  0  0
    6.8630   -4.8400   26.9700 C   0  0  0  0  0  0  0  0  0  0  0  0
    5.3390   -3.2250   27.9950 C   0  0  0  0  0  0  0  0  0  0  0  0
   11.0200    6.5890   23.6400 O   0  0  0  0  0  0  0  0  0  0  0  0
    7.2610   -5.1770   28.2170 C   0  0  0  0  0  0  0  0  0  0  0  0
    5.6430   -3.9350   29.2920 C   0  0  0  0  0  0  0  0  0  0  0  0
   11.8480    6.6060   24.8040 C   0  0  0  0  0  0  0  0  0  0  0  0
    6.1800   -5.3450   29.0260 C   0  0  0  0  0  0  0  0  0  0  0  0
  1  2  1  0
  2  3  2  0
  1  4  1  0
  1  5  1  0
  1  6  1  1
  4  7  1  6
  4  8  1  0
  6  9  2  0
  6 10  1  0
  2 11  1  0
 12  5  1  1
 11 12  1  0
 11 13  1  6
  7 14  1  0
  7 15  2  0
  8 16  2  0
  8 17  1  0
  9 18  1  0
 10 19  2  0
 18 19  1  0
 11 20  1  0
 12 21  1  0
 19 22  1  0
 17 23  2  0
 16 24  1  0
 14 25  1  0
 20 26  1  0
 21 27  1  0
 26 27  1  0
 22 28  1  0
 22 29  1  0
 22 30  1  0
 24 31  1  0
 27 32  1  1
 23 33  1  0
 24 33  2  0
 25 34  2  0
 25 35  1  0
 34 36  1  0
 32 37  2  0
 34 38  1  0
 35 39  2  0
 32 40  1  0
 38 41  2  0
 39 41  1  0
 40 42  1  0
 40 43  1  0
 41 44  1  0
 42 45  1  0
 43 46  1  0
 44 47  1  0
 45 48  1  0
 46 48  1  0
M  END
