x0995-x3115
     RDKit          3D

 30 31  0  0  0  0  0  0  0  0999 V2000
    6.8320   -1.6600   21.8970 N   0  0  0  0  0  0  0  0  0  0  0  0
    6.0260   -2.8610   21.6180 C   0  0  0  0  0  0  0  0  0  0  0  0
    4.7990   -3.0110   21.2520 O   0  0  0  0  0  0  0  0  0  0  0  0
    6.5170   -0.1990   21.6430 C   0  0  1  0  0  0  0  0  0  0  0  0
    8.1730   -1.7760   22.5190 C   0  0  0  0  0  0  0  0  0  0  0  0
    6.7430   -4.1690   21.7800 C   0  0  0  0  0  0  0  0  0  0  0  0
    7.5290    0.7160   21.9980 C   0  0  0  0  0  0  0  0  0  0  0  0
    6.0250    0.2370   20.3030 C   0  0  0  0  0  0  0  0  0  0  0  0
    9.2800   -1.8000   21.7060 C   0  0  0  0  0  0  0  0  0  0  0  0
    8.4330   -1.8520   23.9690 C   0  0  0  0  0  0  0  0  0  0  0  0
    6.7160   -4.8800   20.4360 C   0  0  0  0  0  0  0  0  0  0  0  0
    7.0940    1.7820   22.7660 N   0  0  0  0  0  0  0  0  0  0  0  0
    8.6890    0.5970   21.6060 O   0  0  0  0  0  0  0  0  0  0  0  0
    4.9090    1.0590   20.3220 C   0  0  0  0  0  0  0  0  0  0  0  0
    6.7010   -0.1490   18.9420 C   0  0  0  0  0  0  0  0  0  0  0  0
   10.6040   -1.8860   22.2000 C   0  0  0  0  0  0  0  0  0  0  0  0
    9.7500   -1.9330   24.3960 C   0  0  0  0  0  0  0  0  0  0  0  0
    7.9800    2.8580   23.1330 C   0  0  0  0  0  0  0  0  0  0  0  0
    6.2840    0.2580   17.9140 N   0  0  0  0  0  0  0  0  0  0  0  0
    4.5050    1.4920   18.9380 C   0  0  0  0  0  0  0  0  0  0  0  0
   10.9090   -1.9530   23.5840 C   0  0  0  0  0  0  0  0  0  0  0  0
    7.7940    3.9880   22.3220 C   0  0  0  0  0  0  0  0  0  0  0  0
   12.2240   -2.0410   24.2880 C   0  0  0  0  0  0  0  0  0  0  0  0
    3.3610    2.3600   18.8250 N   0  0  0  0  0  0  0  0  0  0  0  0
    5.2050    1.0720   17.8830 C   0  0  0  0  0  0  0  0  0  0  0  0
    8.3840    4.9490   22.8630 O   0  0  0  0  0  0  0  0  0  0  0  0
   13.3520   -2.2890   23.2840 C   0  0  0  0  0  0  0  0  0  0  0  0
   12.0850   -3.2010   25.2700 C   0  0  0  0  0  0  0  0  0  0  0  0
   12.4970   -0.7250   25.0220 C   0  0  0  0  0  0  0  0  0  0  0  0
    8.1340    6.1270   22.2130 C   0  0  0  0  0  0  0  0  0  0  0  0
  1  2  1  0
  2  3  2  0
  1  4  1  0
  1  5  1  0
  2  6  1  0
  4  7  1  6
  4  8  1  0
  5  9  2  0
  5 10  1  0
  6 11  1  0
  7 12  1  0
  7 13  2  0
  8 14  2  0
  8 15  1  0
  9 16  1  0
 10 17  2  0
 12 18  1  0
 15 19  2  0
 14 20  1  0
 16 21  2  0
 17 21  1  0
 18 22  1  0
 21 23  1  0
 20 24  1  0
 19 25  1  0
 20 25  2  0
 22 26  1  0
 23 27  1  0
 23 28  1  0
 23 29  1  0
 26 30  1  0
M  END
