x0991-x3110
     RDKit          3D

 38 40  0  0  0  0  0  0  0  0999 V2000
    7.8790    1.2790   23.2420 N   0  0  0  0  0  0  0  0  0  0  0  0
    8.8500    2.2060   23.6310 C   0  0  0  0  0  0  0  0  0  0  0  0
   10.2330    1.9490   23.5590 C   0  0  0  0  0  0  0  0  0  0  0  0
    7.4250    0.8510   21.9090 C   0  0  0  0  0  0  0  0  0  0  0  0
    8.1270    1.4100   20.8600 O   0  0  0  0  0  0  0  0  0  0  0  0
    6.4540    0.0670   21.7100 C   0  0  2  0  0  0  0  0  0  0  0  0
    6.8690   -1.4450   21.8760 C   0  0  2  0  0  0  0  0  0  0  0  0
   11.0140    3.2600   23.4060 C   0  0  0  0  0  0  0  0  0  0  0  0
    6.0280    0.4980   20.3200 C   0  0  0  0  0  0  0  0  0  0  0  0
   11.8960    3.1940   22.5550 O   0  0  0  0  0  0  0  0  0  0  0  0
   10.7810    4.2640   24.0650 O   0  0  0  0  0  0  0  0  0  0  0  0
    5.9470   -2.5900   21.1140 C   0  0  0  0  0  0  0  0  0  0  0  0
    8.2470   -1.4680   21.2600 C   0  0  0  0  0  0  0  0  0  0  0  0
    4.9310    1.3130   20.1510 C   0  0  0  0  0  0  0  0  0  0  0  0
    6.7280    0.1090   19.1650 C   0  0  0  0  0  0  0  0  0  0  0  0
    8.1830   -1.6770   22.5390 C   0  0  0  0  0  0  0  0  0  0  0  0
   12.2580    4.4630   21.9880 C   0  0  0  0  0  0  0  0  0  0  0  0
    4.8170   -3.1300   21.4730 O   0  0  0  0  0  0  0  0  0  0  0  0
    6.4580   -3.1090   19.8110 C   0  0  0  0  0  0  0  0  0  0  0  0
    9.1740   -2.1260   22.4700 C   0  0  1  0  0  0  0  0  0  0  0  0
    6.3830    0.5140   17.8070 N   0  0  0  0  0  0  0  0  0  0  0  0
    4.5200    1.7560   18.9040 C   0  0  0  0  0  0  0  0  0  0  0  0
    9.3620   -2.2980   21.8970 C   0  0  0  0  0  0  0  0  0  0  0  0
    8.6940   -1.3370   23.6950 C   0  0  0  0  0  0  0  0  0  0  0  0
   13.3510    5.0740   22.8350 C   0  0  0  0  0  0  0  0  0  0  0  0
    7.5330   -4.1020   20.2050 C   0  0  0  0  0  0  0  0  0  0  0  0
    8.6590   -3.7330   22.6730 C   0  0  0  0  0  0  0  0  0  0  0  0
    5.2220    1.3840   17.7060 C   0  0  0  0  0  0  0  0  0  0  0  0
   10.8100   -2.4280   22.5370 C   0  0  0  0  0  0  0  0  0  0  0  0
    9.8750   -1.3680   24.4340 C   0  0  0  0  0  0  0  0  0  0  0  0
    8.7830   -4.3380   23.9010 C   0  0  0  0  0  0  0  0  0  0  0  0
   11.1130   -1.9610   23.7960 C   0  0  0  0  0  0  0  0  0  0  0  0
   12.5170   -2.0300   24.3580 C   0  0  0  0  0  0  0  0  0  0  0  0
    9.5910   -5.3400   24.3000 N   0  0  0  0  0  0  0  0  0  0  0  0
    7.7890   -3.7350   24.7980 N   0  0  0  0  0  0  0  0  0  0  0  0
   12.7080   -0.8890   25.1160 C   0  0  0  0  0  0  0  0  0  0  0  0
   13.4800   -1.9910   23.1720 C   0  0  0  0  0  0  0  0  0  0  0  0
   12.8750   -3.0330   25.1330 C   0  0  0  0  0  0  0  0  0  0  0  0
  1  2  1  0
  2  3  1  0
  1  4  1  0
  4  5  2  0
  6  4  1  6
  6  7  1  0
  3  8  1  0
  6  9  1  0
  8 10  1  0
  8 11  2  0
  7 12  1  6
  7 13  1  0
  9 14  2  0
  9 15  1  0
  7 16  1  0
 10 17  1  0
 12 18  2  0
 12 19  1  0
 13 20  1  0
 15 21  2  0
 14 22  1  0
 16 23  2  0
 16 24  1  0
 20 24  1  0
 17 25  1  0
 19 26  1  0
 20 27  1  1
 21 28  1  0
 22 28  2  0
 23 29  1  0
 24 30  2  0
 27 31  1  0
 29 32  2  0
 30 32  1  0
 32 33  1  0
 31 34  2  3
 31 35  1  0
 33 36  1  0
 33 37  1  0
 33 38  1  0
M  END
