x0995-x2694-x0978
     RDKit          3D

 45 47  0  0  0  0  0  0  0  0999 V2000
    7.0640   -1.4470   21.7110 N   0  0  0  0  0  0  0  0  0  0  0  0
    6.2140   -2.7310   21.6400 C   0  0  0  0  0  0  0  0  0  0  0  0
    4.9340   -3.0970   21.1840 O   0  0  0  0  0  0  0  0  0  0  0  0
    6.6720   -0.0840   21.5660 C   0  0  1  0  0  0  0  0  0  0  0  0
    8.3030   -1.4850   22.4940 C   0  0  0  0  0  0  0  0  0  0  0  0
    7.0510   -3.8970   22.2060 C   0  0  0  0  0  0  0  0  0  0  0  0
    7.7300    1.0350   21.7550 C   0  0  0  0  0  0  0  0  0  0  0  0
    6.0800    0.3680   20.2760 C   0  0  0  0  0  0  0  0  0  0  0  0
    8.4700   -1.5760   23.9670 N   0  0  0  0  0  0  0  0  0  0  0  0
    9.7470   -1.4270   22.0530 C   0  0  0  0  0  0  0  0  0  0  0  0
    7.0260   -5.0430   21.2380 C   0  0  0  0  0  0  0  0  0  0  0  0
    7.3060    2.4350   22.1380 N   0  0  0  0  0  0  0  0  0  0  0  0
    8.9170    0.8220   21.5480 O   0  0  0  0  0  0  0  0  0  0  0  0
    4.9050    1.0890   20.2270 C   0  0  0  0  0  0  0  0  0  0  0  0
    6.7640    0.0710   19.0950 C   0  0  0  0  0  0  0  0  0  0  0  0
    9.8620   -1.5600   24.2800 O   0  0  0  0  0  0  0  0  0  0  0  0
   10.6930   -1.4710   23.1090 C   0  0  0  0  0  0  0  0  0  0  0  0
   12.2180   -1.4370   23.1430 C   0  0  0  0  0  0  0  0  0  0  0  0
    5.6180   -5.6300   21.3470 N   0  0  0  0  0  0  0  0  0  0  0  0
    6.4150    0.4240   17.8250 N   0  0  0  0  0  0  0  0  0  0  0  0
    4.4540    1.5010   18.9920 C   0  0  0  0  0  0  0  0  0  0  0  0
    8.1290    3.4840   22.6470 C   0  0  0  0  0  0  0  0  0  0  0  0
   12.6480   -0.0210   23.5020 C   0  0  0  0  0  0  0  0  0  0  0  0
   12.8410   -2.0070   21.8330 C   0  0  0  0  0  0  0  0  0  0  0  0
   12.6350   -2.1990   24.1290 C   0  0  0  0  0  0  0  0  0  0  0  0
    4.7010   -5.3490   22.5690 C   0  0  0  0  0  0  0  0  0  0  0  0
    3.2080    2.2670   18.9840 N   0  0  0  0  0  0  0  0  0  0  0  0
    5.2890    1.1260   17.7870 C   0  0  0  0  0  0  0  0  0  0  0  0
    9.0660    3.2600   23.6400 C   0  0  0  0  0  0  0  0  0  0  0  0
    8.0360    4.9260   22.1380 C   0  0  0  0  0  0  0  0  0  0  0  0
    9.1090    1.9070   24.1100 C   0  0  0  0  0  0  0  0  0  0  0  0
    3.5010   -6.3110   23.0290 C   0  0  2  0  0  0  0  0  0  0  0  0
    4.8430   -4.3190   23.2220 O   0  0  0  0  0  0  0  0  0  0  0  0
    9.9930    4.4010   24.2090 C   0  0  0  0  0  0  0  0  0  0  0  0
    8.9430    6.0430   22.6990 C   0  0  0  0  0  0  0  0  0  0  0  0
    2.2220   -5.5630   23.0450 N   0  0  0  0  0  0  0  0  0  0  0  0
    3.5990   -7.0900   24.2360 C   0  0  1  0  0  0  0  0  0  0  0  0
    9.9720    5.7410   23.7920 C   0  0  0  0  0  0  0  0  0  0  0  0
   10.8330    6.6470   24.3710 O   0  0  0  0  0  0  0  0  0  0  0  0
    2.4590   -7.7670   24.6810 C   0  0  0  0  0  0  0  0  0  0  0  0
    4.6880   -7.8640   24.0920 O   0  0  0  0  0  0  0  0  0  0  0  0
    1.0590   -6.2560   22.5700 C   0  0  0  0  0  0  0  0  0  0  0  0
   11.9060    6.1880   25.1790 C   0  0  0  0  0  0  0  0  0  0  0  0
    0.9970   -7.4360   22.0080 O   0  0  0  0  0  0  0  0  0  0  0  0
   -0.1570   -5.5750   22.7160 C   0  0  0  0  0  0  0  0  0  0  0  0
  1  2  1  0
  2  3  2  0
  1  4  1  0
  1  5  1  0
  2  6  1  0
  4  7  1  6
  4  8  1  0
  5  9  2  0
  5 10  1  0
  6 11  1  0
  7 12  1  0
  7 13  2  0
  8 14  2  0
  8 15  1  0
  9 16  1  0
 10 17  2  0
 16 17  1  0
 17 18  1  0
 11 19  1  0
 15 20  2  0
 14 21  1  0
 12 22  1  0
 18 23  1  0
 18 24  1  0
 18 25  1  0
 19 26  1  0
 21 27  1  0
 20 28  1  0
 21 28  2  0
 22 29  2  0
 22 30  1  0
 29 31  1  0
 26 32  1  0
 26 33  2  0
 29 34  1  0
 30 35  2  0
 32 36  1  1
 32 37  1  0
 34 38  2  0
 35 38  1  0
 38 39  1  0
 37 40  1  6
 37 41  1  0
 36 42  1  0
 39 43  1  0
 42 44  2  0
 42 45  1  0
M  END
