x0995-x1336
     RDKit          3D

 29 31  0  0  0  0  0  0  0  0999 V2000
    5.9890   -5.3870   28.8690 C   0  0  0  0  0  0  0  0  0  0  0  0
    7.0100   -4.8730   27.8970 C   0  0  0  0  0  0  0  0  0  0  0  0
    8.2290   -5.5100   27.7290 C   0  0  0  0  0  0  0  0  0  0  0  0
    6.7220   -3.7080   27.1390 C   0  0  0  0  0  0  0  0  0  0  0  0
    7.7920   -3.0750   26.0590 C   0  0  0  0  0  0  0  0  0  0  0  0
    9.2670   -4.9700   26.7400 C   0  0  0  0  0  0  0  0  0  0  0  0
    7.3680   -1.6510   25.1960 S   0  0  0  0  0  0  0  0  0  0  0  0
    9.1220   -3.8410   25.9380 C   0  0  0  0  0  0  0  0  0  0  0  0
    8.5760   -0.8650   25.0810 O   0  0  0  0  0  0  0  0  0  0  0  0
    6.1720   -1.0900   25.7820 O   0  0  0  0  0  0  0  0  0  0  0  0
   10.3240   -3.6040   25.1140 C   0  0  0  0  0  0  0  0  0  0  0  0
    6.9600   -2.0500   23.5450 N   0  0  0  0  0  0  0  0  0  0  0  0
    6.1320   -3.2630   23.2900 C   0  0  0  0  0  0  0  0  0  0  0  0
    7.6810   -1.4090   22.3820 C   0  0  2  0  0  0  0  0  0  0  0  0
    7.0010   -0.1990   21.5610 C   0  0  1  0  0  0  0  0  0  0  0  0
    6.6820   -4.0490   22.3290 C   0  0  0  0  0  0  0  0  0  0  0  0
    7.9090   -2.3850   21.4670 C   0  0  0  0  0  0  0  0  0  0  0  0
    7.8930    0.8420   21.3020 C   0  0  0  0  0  0  0  0  0  0  0  0
    6.8920   -3.2580   21.2830 N   0  0  0  0  0  0  0  0  0  0  0  0
    6.1260   -0.4070   20.3280 N   0  0  0  0  0  0  0  0  0  0  0  0
    6.5010   -3.5750   19.9840 C   0  0  0  0  0  0  0  0  0  0  0  0
    6.7040   -0.4470   19.0770 C   0  0  0  0  0  0  0  0  0  0  0  0
    4.8690    0.2220   20.2390 C   0  0  0  0  0  0  0  0  0  0  0  0
    5.4620   -4.2190   19.7670 O   0  0  0  0  0  0  0  0  0  0  0  0
    7.3980   -3.1630   18.8300 C   0  0  0  0  0  0  0  0  0  0  0  0
    4.7860    1.4560   19.2320 C   0  0  2  0  0  0  0  0  0  0  0  0
    6.6150    0.6600   18.3040 N   0  0  0  0  0  0  0  0  0  0  0  0
    3.4240    2.0510   19.2180 N   0  0  0  0  0  0  0  0  0  0  0  0
    5.2570    0.8720   18.0580 C   0  0  0  0  0  0  0  0  0  0  0  0
  1  2  1  0
  2  3  2  0
  2  4  1  0
  4  5  2  0
  3  6  1  0
  7  5  1  0
  5  8  1  0
  6  8  2  0
  7  9  2  0
  7 10  2  0
  8 11  1  0
  7 12  1  0
 12 13  1  0
 12 14  1  0
 14 15  1  0
 13 16  1  0
 14 17  1  6
 15 18  1  6
 16 19  1  0
 17 19  1  0
 15 20  1  0
 19 21  1  0
 20 22  1  0
 20 23  1  0
 21 24  2  0
 21 25  1  0
 23 26  1  0
 22 27  1  0
 26 28  1  6
 26 29  1  0
 27 29  1  0
M  END
