x0995-x2694-x1311
     RDKit          3D

 50 54  0  0  0  0  0  0  0  0999 V2000
    6.8880   -1.5160   22.0260 C   0  0  1  0  0  0  0  0  0  0  0  0
    6.3180   -2.9090   21.2790 C   0  0  0  0  0  0  0  0  0  0  0  0
    5.0320   -3.1820   20.9460 O   0  0  0  0  0  0  0  0  0  0  0  0
    6.6670   -0.0260   21.6380 C   0  0  1  0  0  0  0  0  0  0  0  0
    5.9590   -1.7870   23.2140 C   0  0  0  0  0  0  0  0  0  0  0  0
    8.3610   -1.4700   22.6930 C   0  0  0  0  0  0  0  0  0  0  0  0
    7.3070   -4.0770   21.1670 C   0  0  0  0  0  0  0  0  0  0  0  0
    7.7210    0.9480   21.8460 C   0  0  0  0  0  0  0  0  0  0  0  0
    5.4640   -3.2210   23.5940 C   0  0  0  0  0  0  0  0  0  0  0  0
    6.1940    0.3930   20.2650 C   0  0  0  0  0  0  0  0  0  0  0  0
    8.6190   -1.1150   24.1110 N   0  0  0  0  0  0  0  0  0  0  0  0
    9.6180   -1.6910   22.1350 C   0  0  0  0  0  0  0  0  0  0  0  0
    7.3660   -3.4580   19.7930 C   0  0  0  0  0  0  0  0  0  0  0  0
    7.5200    2.0790   22.6660 N   0  0  0  0  0  0  0  0  0  0  0  0
    8.8190    0.8380   21.2910 O   0  0  0  0  0  0  0  0  0  0  0  0
    5.9810   -4.4270   23.1040 N   0  0  0  0  0  0  0  0  0  0  0  0
    4.9480    1.2970   20.2690 C   0  0  0  0  0  0  0  0  0  0  0  0
    6.8850   -0.0240   19.1400 C   0  0  0  0  0  0  0  0  0  0  0  0
   10.0070   -1.1500   24.2860 O   0  0  0  0  0  0  0  0  0  0  0  0
   10.6220   -1.4860   23.1050 C   0  0  0  0  0  0  0  0  0  0  0  0
   12.1430   -1.5180   23.2070 C   0  0  0  0  0  0  0  0  0  0  0  0
    6.4220    0.4230   17.8260 N   0  0  0  0  0  0  0  0  0  0  0  0
    4.5770    1.6760   18.9880 C   0  0  0  0  0  0  0  0  0  0  0  0
    8.4120    3.2500   22.9410 C   0  0  0  0  0  0  0  0  0  0  0  0
    7.2520   -4.6900   23.6660 C   0  0  0  0  0  0  0  0  0  0  0  0
    5.2380   -5.6240   23.5490 C   0  0  2  0  0  0  0  0  0  0  0  0
   12.6170   -0.2770   23.6500 C   0  0  0  0  0  0  0  0  0  0  0  0
   12.8040   -1.8490   21.8590 C   0  0  0  0  0  0  0  0  0  0  0  0
   12.5790   -2.4670   24.1370 C   0  0  0  0  0  0  0  0  0  0  0  0
    3.4190    2.5390   18.8040 N   0  0  0  0  0  0  0  0  0  0  0  0
    5.2310    1.2990   17.8160 C   0  0  0  0  0  0  0  0  0  0  0  0
    9.6540    3.0620   23.5740 C   0  0  0  0  0  0  0  0  0  0  0  0
    8.0900    4.5740   22.6090 C   0  0  0  0  0  0  0  0  0  0  0  0
    7.9320   -5.9020   23.5150 C   0  0  0  0  0  0  0  0  0  0  0  0
    7.9030   -3.5930   24.4880 C   0  0  0  0  0  0  0  0  0  0  0  0
    4.4640   -6.3150   22.4590 C   0  0  0  0  0  0  0  0  0  0  0  0
    4.2180   -5.3470   24.6690 C   0  0  0  0  0  0  0  0  0  0  0  0
   10.1280    1.7020   23.9930 C   0  0  0  0  0  0  0  0  0  0  0  0
   10.6130    4.2220   23.8890 C   0  0  0  0  0  0  0  0  0  0  0  0
    8.8960    5.6880   22.8670 C   0  0  0  0  0  0  0  0  0  0  0  0
    9.1500   -6.0320   24.1420 C   0  0  0  0  0  0  0  0  0  0  0  0
    9.1270   -3.6960   25.1040 C   0  0  0  0  0  0  0  0  0  0  0  0
    3.2150   -6.7790   24.5390 S   0  0  0  0  0  0  0  0  0  0  0  0
    3.3530   -6.9760   22.7990 C   0  0  0  0  0  0  0  0  0  0  0  0
    3.9040   -7.8420   25.2410 O   0  0  0  0  0  0  0  0  0  0  0  0
    1.8360   -6.4760   24.8270 O   0  0  0  0  0  0  0  0  0  0  0  0
   10.1430    5.6490   23.4900 C   0  0  0  0  0  0  0  0  0  0  0  0
    9.8580   -4.9800   24.9770 C   0  0  0  0  0  0  0  0  0  0  0  0
   10.8590    6.8650   23.7050 O   0  0  0  0  0  0  0  0  0  0  0  0
   11.8580    6.8300   24.7270 C   0  0  0  0  0  0  0  0  0  0  0  0
  1  2  1  0
  2  3  2  0
  1  4  1  0
  1  5  1  1
  1  6  1  0
  2  7  1  0
  4  8  1  6
  5  9  1  0
  4 10  1  0
  6 11  2  0
  6 12  1  0
  7 13  1  0
  8 14  1  0
  8 15  2  0
  9 16  1  0
 10 17  2  0
 10 18  1  0
 11 19  1  0
 12 20  2  0
 19 20  1  0
 20 21  1  0
 18 22  2  0
 17 23  1  0
 14 24  1  0
 16 25  1  0
 26 16  1  6
 21 27  1  0
 21 28  1  0
 21 29  1  0
 23 30  1  0
 22 31  1  0
 23 31  2  0
 24 32  2  0
 24 33  1  0
 25 34  2  0
 25 35  1  0
 26 36  1  0
 26 37  1  0
 32 38  1  0
 32 39  1  0
 33 40  2  0
 34 41  1  0
 35 42  2  0
 37 43  1  0
 36 44  2  0
 43 44  1  0
 43 45  1  0
 43 46  1  0
 39 47  2  0
 40 47  1  0
 41 48  2  0
 42 48  1  0
 47 49  1  0
 49 50  1  0
M  END
