x0995-x0771-x0305-x2694
     RDKit          3D

 60 65  0  0  0  0  0  0  0  0999 V2000
    6.9940   -0.5410   22.4040 N   0  0  0  0  0  0  0  0  0  0  0  0
    6.8070    0.6960   21.8160 C   0  0  1  0  0  0  0  0  0  0  0  0
    7.9870    1.6630   21.8700 C   0  0  0  0  0  0  0  0  0  0  0  0
    6.6780   -1.8820   21.8470 C   0  0  0  0  0  0  0  0  0  0  0  0
    8.3640   -0.6080   22.9830 C   0  0  1  0  0  0  0  0  0  0  0  0
    5.7850   -2.7660   22.4570 C   0  0  0  0  0  0  0  0  0  0  0  0
    6.3360    0.6790   20.3510 C   0  0  0  0  0  0  0  0  0  0  0  0
    8.8000   -1.6450   23.9470 N   0  0  0  0  0  0  0  0  0  0  0  0
    9.3810   -0.9370   22.0540 C   0  0  0  0  0  0  0  0  0  0  0  0
    7.8040    2.5780   22.8850 N   0  0  0  0  0  0  0  0  0  0  0  0
    8.9430    1.6680   21.1090 O   0  0  0  0  0  0  0  0  0  0  0  0
    5.1030    1.5190   20.1990 C   0  0  0  0  0  0  0  0  0  0  0  0
    6.9440   -0.0220   19.1470 C   0  0  0  0  0  0  0  0  0  0  0  0
   10.1050   -1.6590   23.9930 N   0  0  0  0  0  0  0  0  0  0  0  0
   10.6000   -1.4320   22.7620 C   0  0  2  0  0  0  0  0  0  0  0  0
    6.1350   -4.1940   22.0600 C   0  0  0  0  0  0  0  0  0  0  0  0
    6.4830   -4.0880   20.5550 C   0  0  0  0  0  0  0  0  0  0  0  0
    6.2630    0.1980   17.8730 N   0  0  0  0  0  0  0  0  0  0  0  0
    4.5120    1.6820   18.9960 C   0  0  0  0  0  0  0  0  0  0  0  0
    8.6270    3.7900   23.1210 C   0  0  0  0  0  0  0  0  0  0  0  0
   10.7780   -0.7090   24.8940 C   0  0  1  0  0  0  0  0  0  0  0  0
   11.6770   -0.3480   22.6940 C   0  0  0  0  0  0  0  0  0  0  0  0
    5.0880   -5.1030   22.1790 C   0  0  0  0  0  0  0  0  0  0  0  0
    7.3000   -4.7250   22.9300 C   0  0  0  0  0  0  0  0  0  0  0  0
   10.0570   -0.5140   26.1640 N   0  0  0  0  0  0  0  0  0  0  0  0
    3.3050    2.5100   18.8700 N   0  0  0  0  0  0  0  0  0  0  0  0
    5.5870   -4.4590   19.8340 O   0  0  0  0  0  0  0  0  0  0  0  0
    7.8230   -3.4500   20.0750 C   0  0  0  0  0  0  0  0  0  0  0  0
    5.1310    0.9990   17.8290 C   0  0  0  0  0  0  0  0  0  0  0  0
    9.8660    3.6170   23.6030 C   0  0  0  0  0  0  0  0  0  0  0  0
    8.1750    5.1230   22.8620 C   0  0  0  0  0  0  0  0  0  0  0  0
   12.2370   -0.8160   24.7410 N   0  0  0  0  0  0  0  0  0  0  0  0
   12.4660   -0.0630   23.6700 C   0  0  0  0  0  0  0  0  0  0  0  0
    5.1560   -6.0740   23.1390 C   0  0  0  0  0  0  0  0  0  0  0  0
    6.9320   -4.8390   24.2750 C   0  0  0  0  0  0  0  0  0  0  0  0
   10.3430    2.2330   23.8670 C   0  0  0  0  0  0  0  0  0  0  0  0
   12.7150   -2.2230   24.4920 C   0  0  2  0  0  0  0  0  0  0  0  0
    8.7690   -0.0640   26.1620 C   0  0  0  0  0  0  0  0  0  0  0  0
   10.9070    4.6560   23.9420 C   0  0  0  0  0  0  0  0  0  0  0  0
    9.0670    6.1200   23.1560 C   0  0  0  0  0  0  0  0  0  0  0  0
    5.5370   -5.3240   24.3270 N   0  0  0  0  0  0  0  0  0  0  0  0
   13.6400   -2.5590   25.4980 C   0  0  0  0  0  0  0  0  0  0  0  0
    8.1800   -0.1180   27.4500 C   0  0  0  0  0  0  0  0  0  0  0  0
    4.8560   -5.7430   25.8250 S   0  0  0  0  0  0  0  0  0  0  0  0
   10.3980    6.1240   23.6790 C   0  0  0  0  0  0  0  0  0  0  0  0
   13.5470   -2.2980   23.1910 C   0  0  0  0  0  0  0  0  0  0  0  0
   11.0790    7.2650   23.9020 O   0  0  0  0  0  0  0  0  0  0  0  0
    4.1810   -7.0150   25.6650 O   0  0  0  0  0  0  0  0  0  0  0  0
    5.8740   -5.5930   26.8240 O   0  0  0  0  0  0  0  0  0  0  0  0
    3.7190   -4.5300   25.9530 C   0  0  0  0  0  0  0  0  0  0  0  0
   13.0320   -2.7230   21.9560 C   0  0  0  0  0  0  0  0  0  0  0  0
   11.9000    7.2240   25.0570 C   0  0  0  0  0  0  0  0  0  0  0  0
    2.2970   -4.7030   25.5940 C   0  0  0  0  0  0  0  0  0  0  0  0
    4.0790   -3.1450   26.4580 C   0  0  0  0  0  0  0  0  0  0  0  0
   13.3160   -1.7820   20.8900 N   0  0  0  0  0  0  0  0  0  0  0  0
    1.8680   -6.0860   25.0650 C   0  0  0  0  0  0  0  0  0  0  0  0
    1.3190   -3.8020   25.6730 C   0  0  0  0  0  0  0  0  0  0  0  0
    2.9890   -2.0800   26.5650 C   0  0  0  0  0  0  0  0  0  0  0  0
    1.5710   -2.4110   26.1710 C   0  0  0  0  0  0  0  0  0  0  0  0
    0.4490   -1.3890   26.2780 C   0  0  0  0  0  0  0  0  0  0  0  0
  1  2  1  0
  2  3  1  6
  1  4  1  0
  5  1  1  6
  4  6  1  0
  2  7  1  0
  5  8  1  0
  5  9  1  0
  3 10  1  0
  3 11  2  0
  7 12  2  0
  7 13  1  0
  8 14  1  0
 15  9  1  6
 14 15  1  0
  6 16  1  0
 16 17  1  0
 13 18  2  0
 12 19  1  0
 10 20  1  0
 14 21  1  0
 15 22  1  0
 16 23  1  0
 16 24  1  0
 21 25  1  1
 19 26  1  0
 17 27  2  0
 17 28  1  0
 18 29  1  0
 19 29  2  0
 20 30  2  0
 20 31  1  0
 21 32  1  0
 22 33  2  0
 32 33  1  0
 23 34  1  0
 24 35  1  0
 30 36  1  0
 32 37  1  0
 25 38  1  0
 30 39  1  0
 31 40  2  0
 34 41  1  0
 35 41  1  0
 37 42  1  1
 38 43  1  0
 41 44  1  0
 39 45  2  0
 40 45  1  0
 37 46  1  0
 45 47  1  0
 44 48  2  0
 44 49  2  0
 44 50  1  0
 46 51  1  0
 47 52  1  0
 50 53  2  0
 50 54  1  0
 51 55  1  0
 53 56  1  0
 53 57  1  0
 54 58  2  0
 57 59  2  0
 58 59  1  0
 59 60  1  0
M  END
