x0995-x2694-x1425
     RDKit          3D

 48 53  0  0  0  0  0  0  0  0999 V2000
    7.0460   -1.4480   21.8550 C   0  0  1  0  0  0  0  0  0  0  0  0
    6.1820   -2.8520   21.3270 C   0  0  0  0  0  0  0  0  0  0  0  0
    4.9890   -3.1000   20.7430 O   0  0  0  0  0  0  0  0  0  0  0  0
    6.6690    0.0040   21.5480 C   0  0  1  0  0  0  0  0  0  0  0  0
    6.5910   -1.9840   23.2550 C   0  0  0  0  0  0  0  0  0  0  0  0
    8.4920   -1.4330   22.4160 C   0  0  0  0  0  0  0  0  0  0  0  0
    7.8330    1.0680   21.8240 C   0  0  0  0  0  0  0  0  0  0  0  0
    6.1650    0.3860   20.1480 C   0  0  0  0  0  0  0  0  0  0  0  0
    8.6640   -0.9660   23.8400 N   0  0  0  0  0  0  0  0  0  0  0  0
    9.8010   -1.7260   21.9560 C   0  0  0  0  0  0  0  0  0  0  0  0
    6.9330   -4.0020   21.8520 C   0  0  2  0  0  0  0  0  0  0  0  0
    7.3450   -3.3960   23.2290 C   0  0  2  0  0  0  0  0  0  0  0  0
    8.1440   -4.4560   21.0160 C   0  0  0  0  0  0  0  0  0  0  0  0
    7.3790    2.4600   22.2270 N   0  0  0  0  0  0  0  0  0  0  0  0
    9.0310    0.8430   21.6810 O   0  0  0  0  0  0  0  0  0  0  0  0
    5.0290    1.1400   20.0930 C   0  0  0  0  0  0  0  0  0  0  0  0
    6.8460    0.0110   18.9930 C   0  0  0  0  0  0  0  0  0  0  0  0
   10.0320   -1.0200   24.0580 O   0  0  0  0  0  0  0  0  0  0  0  0
   10.7600   -1.4530   22.9580 C   0  0  0  0  0  0  0  0  0  0  0  0
    6.7380   -4.2840   24.2310 C   0  0  0  0  0  0  0  0  0  0  0  0
    5.9530   -5.2240   21.9330 C   0  0  0  0  0  0  0  0  0  0  0  0
   12.2550   -1.4680   23.2080 C   0  0  0  0  0  0  0  0  0  0  0  0
    6.2590    0.5070   17.7330 N   0  0  0  0  0  0  0  0  0  0  0  0
    4.5260    1.5630   18.9390 C   0  0  0  0  0  0  0  0  0  0  0  0
    8.2230    3.5410   22.7150 C   0  0  0  0  0  0  0  0  0  0  0  0
    5.3550   -4.0810   23.9160 N   0  0  0  0  0  0  0  0  0  0  0  0
    4.8290   -5.0500   22.9640 C   0  0  0  0  0  0  0  0  0  0  0  0
   12.7140   -0.1790   23.5110 C   0  0  0  0  0  0  0  0  0  0  0  0
   13.0050   -1.9450   21.9220 C   0  0  0  0  0  0  0  0  0  0  0  0
   12.7850   -2.4850   24.2950 C   0  0  0  0  0  0  0  0  0  0  0  0
    3.4390    2.2850   18.8990 N   0  0  0  0  0  0  0  0  0  0  0  0
    5.1440    1.2530   17.7670 C   0  0  0  0  0  0  0  0  0  0  0  0
    9.0900    3.2660   23.7400 C   0  0  0  0  0  0  0  0  0  0  0  0
    8.2270    4.8480   22.2290 C   0  0  0  0  0  0  0  0  0  0  0  0
    4.5400   -3.6260   25.0270 C   0  0  0  0  0  0  0  0  0  0  0  0
    9.0200    1.8920   24.2340 C   0  0  0  0  0  0  0  0  0  0  0  0
    9.9690    4.2260   24.2870 C   0  0  0  0  0  0  0  0  0  0  0  0
    9.0710    5.8390   22.7360 C   0  0  0  0  0  0  0  0  0  0  0  0
    5.1220   -2.6750   25.8910 C   0  0  0  0  0  0  0  0  0  0  0  0
    3.1220   -4.1130   25.3100 C   0  0  0  0  0  0  0  0  0  0  0  0
    9.9580    5.5300   23.7770 C   0  0  0  0  0  0  0  0  0  0  0  0
    4.4870   -2.1370   27.0120 C   0  0  0  0  0  0  0  0  0  0  0  0
    2.4490   -3.5210   26.5280 C   0  0  0  0  0  0  0  0  0  0  0  0
   10.7580    6.5640   24.2190 O   0  0  0  0  0  0  0  0  0  0  0  0
    3.2110   -2.5000   27.3720 C   0  0  0  0  0  0  0  0  0  0  0  0
   11.8990    6.2610   25.0190 C   0  0  0  0  0  0  0  0  0  0  0  0
    2.5310   -2.0250   28.4510 O   0  0  0  0  0  0  0  0  0  0  0  0
    1.1280   -2.2340   28.4740 C   0  0  0  0  0  0  0  0  0  0  0  0
  1  2  1  0
  2  3  2  0
  1  4  1  0
  1  5  1  0
  1  6  1  1
  4  7  1  6
  4  8  1  0
  6  9  2  0
  6 10  1  0
  2 11  1  0
 12  5  1  6
 11 12  1  0
 11 13  1  6
  7 14  1  0
  7 15  2  0
  8 16  2  0
  8 17  1  0
  9 18  1  0
 10 19  2  0
 18 19  1  0
 12 20  1  0
 11 21  1  0
 19 22  1  0
 17 23  2  0
 16 24  1  0
 14 25  1  0
 20 26  1  0
 21 27  1  0
 26 27  1  0
 22 28  1  0
 22 29  1  0
 22 30  1  0
 24 31  1  0
 23 32  1  0
 24 32  2  0
 25 33  2  0
 25 34  1  0
 26 35  1  0
 33 36  1  0
 33 37  1  0
 34 38  2  0
 35 39  2  0
 35 40  1  0
 37 41  2  0
 38 41  1  0
 39 42  1  0
 40 43  2  0
 41 44  1  0
 42 45  2  0
 43 45  1  0
 44 46  1  0
 45 47  1  0
 47 48  1  0
M  END
