x1077-x3117
     RDKit          3D

 40 43  0  0  0  0  0  0  0  0999 V2000
    6.8470   -1.5780   22.1330 N   0  0  0  0  0  0  0  0  0  0  0  0
    6.0870   -2.7580   21.5570 C   0  0  0  0  0  0  0  0  0  0  0  0
    4.7890   -3.0560   21.4200 O   0  0  0  0  0  0  0  0  0  0  0  0
    6.5680   -0.2060   21.8710 C   0  0  1  0  0  0  0  0  0  0  0  0
    8.2640   -1.6540   22.6380 C   0  0  0  0  0  0  0  0  0  0  0  0
    6.9950   -3.8190   21.0350 C   0  0  0  0  0  0  0  0  0  0  0  0
    7.6500    0.7450   22.0940 C   0  0  0  0  0  0  0  0  0  0  0  0
    6.1110    0.2300   20.4510 C   0  0  0  0  0  0  0  0  0  0  0  0
    9.3490   -1.6820   21.7760 C   0  0  0  0  0  0  0  0  0  0  0  0
    8.5350   -1.6830   24.0190 C   0  0  0  0  0  0  0  0  0  0  0  0
    7.2010   -3.4460   19.5810 C   0  0  0  0  0  0  0  0  0  0  0  0
    7.5020    1.6810   23.1020 N   0  0  0  0  0  0  0  0  0  0  0  0
    8.6580    0.7460   21.3750 O   0  0  0  0  0  0  0  0  0  0  0  0
    4.8780    1.0490   20.2890 C   0  0  0  0  0  0  0  0  0  0  0  0
    6.8190   -0.0720   19.1650 C   0  0  0  0  0  0  0  0  0  0  0  0
   10.8280   -1.7340   22.1920 C   0  0  0  0  0  0  0  0  0  0  0  0
    9.9660   -1.7260   24.5380 C   0  0  0  0  0  0  0  0  0  0  0  0
    7.4960   -1.6820   25.0910 C   0  0  0  0  0  0  0  0  0  0  0  0
    6.3300    0.4190   17.8630 N   0  0  0  0  0  0  0  0  0  0  0  0
    4.4370    1.5170   18.9140 C   0  0  0  0  0  0  0  0  0  0  0  0
    8.3370    2.8980   23.3890 C   0  0  0  0  0  0  0  0  0  0  0  0
   11.0620   -1.7480   23.6990 C   0  0  0  0  0  0  0  0  0  0  0  0
    7.4570   -2.9710   25.6200 C   0  0  0  0  0  0  0  0  0  0  0  0
   12.4730   -1.7720   24.2810 C   0  0  0  0  0  0  0  0  0  0  0  0
    5.1830    1.1830   17.7960 C   0  0  0  0  0  0  0  0  0  0  0  0
    9.8030    2.6870   23.7000 C   0  0  0  0  0  0  0  0  0  0  0  0
    8.0930    4.0470   22.6020 C   0  0  0  0  0  0  0  0  0  0  0  0
    8.7930   -3.6700   25.6790 N   0  0  0  0  0  0  0  0  0  0  0  0
   12.5260   -0.4890   24.8880 C   0  0  0  0  0  0  0  0  0  0  0  0
   13.3720   -2.0070   23.1170 C   0  0  0  0  0  0  0  0  0  0  0  0
   12.7590   -2.9450   25.1410 C   0  0  0  0  0  0  0  0  0  0  0  0
   10.5230    3.8790   23.6260 C   0  0  0  0  0  0  0  0  0  0  0  0
    8.6590    5.2020   23.1430 C   0  0  0  0  0  0  0  0  0  0  0  0
    9.2370   -4.3900   24.4510 C   0  0  0  0  0  0  0  0  0  0  0  0
    8.7510   -4.6070   26.7870 C   0  0  0  0  0  0  0  0  0  0  0  0
    9.6820    4.9280   24.0930 O   0  0  0  0  0  0  0  0  0  0  0  0
    8.6580   -5.6480   24.2310 C   0  0  0  0  0  0  0  0  0  0  0  0
    7.5920   -5.5990   26.6930 C   0  0  0  0  0  0  0  0  0  0  0  0
    6.7260   -5.5850   25.5260 O   0  0  0  0  0  0  0  0  0  0  0  0
    7.2650   -5.5880   24.1910 C   0  0  0  0  0  0  0  0  0  0  0  0
  1  2  1  0
  2  3  2  0
  1  4  1  0
  1  5  1  0
  2  6  1  0
  4  7  1  6
  4  8  1  0
  5  9  2  0
  5 10  1  0
  6 11  1  0
  7 12  1  0
  7 13  2  0
  8 14  2  0
  8 15  1  0
  9 16  1  0
 10 17  2  0
 10 18  1  0
 15 19  2  0
 14 20  1  0
 12 21  1  0
 16 22  2  0
 17 22  1  0
 18 23  1  0
 22 24  1  0
 19 25  1  0
 20 25  2  0
 21 26  1  0
 21 27  1  0
 23 28  1  0
 24 29  1  0
 24 30  1  0
 24 31  1  0
 26 32  1  0
 27 33  1  0
 28 34  1  0
 28 35  1  0
 32 36  1  0
 33 36  1  0
 34 37  1  0
 35 38  1  0
 38 39  1  0
 37 40  1  0
 39 40  1  0
M  END
