x1077-x2694
     RDKit          3D

 42 45  0  0  0  0  0  0  0  0999 V2000
    7.1420   -1.4990   21.7290 N   0  0  0  0  0  0  0  0  0  0  0  0
    6.3110   -2.8030   21.3930 C   0  0  0  0  0  0  0  0  0  0  0  0
    4.9660   -3.1080   21.1230 O   0  0  0  0  0  0  0  0  0  0  0  0
    6.6810   -0.0700   21.5320 C   0  0  1  0  0  0  0  0  0  0  0  0
    8.4870   -1.3390   22.4260 C   0  0  1  0  0  0  0  0  0  0  0  0
    7.1850   -4.0570   21.4160 C   0  0  0  0  0  0  0  0  0  0  0  0
    7.7550    1.1450   21.6910 C   0  0  0  0  0  0  0  0  0  0  0  0
    6.1900    0.3340   20.1780 C   0  0  0  0  0  0  0  0  0  0  0  0
    8.5390   -1.5230   23.7890 N   0  0  0  0  0  0  0  0  0  0  0  0
    9.7390   -1.8310   21.9250 C   0  0  0  0  0  0  0  0  0  0  0  0
    7.1780   -3.5930   19.9440 C   0  0  0  0  0  0  0  0  0  0  0  0
    7.5730    2.2450   22.6420 N   0  0  0  0  0  0  0  0  0  0  0  0
    8.7460    1.2240   20.9870 O   0  0  0  0  0  0  0  0  0  0  0  0
    5.0370    1.1420   20.0950 C   0  0  0  0  0  0  0  0  0  0  0  0
    6.8290   -0.0150   19.0240 C   0  0  0  0  0  0  0  0  0  0  0  0
    9.8510   -1.2680   24.0850 O   0  0  0  0  0  0  0  0  0  0  0  0
   10.5950   -1.9540   23.0790 C   0  0  2  0  0  0  0  0  0  0  0  0
    8.3780   -2.8540   24.3400 C   0  0  0  0  0  0  0  0  0  0  0  0
   12.1310   -1.5600   23.1350 C   0  0  0  0  0  0  0  0  0  0  0  0
    6.3310    0.4600   17.7440 N   0  0  0  0  0  0  0  0  0  0  0  0
    4.5140    1.6140   18.9670 C   0  0  0  0  0  0  0  0  0  0  0  0
    8.4060    3.4100   22.7660 C   0  0  0  0  0  0  0  0  0  0  0  0
    9.5460   -3.2770   25.2560 C   0  0  0  0  0  0  0  0  0  0  0  0
   12.3560   -0.1210   23.5190 C   0  0  0  0  0  0  0  0  0  0  0  0
   12.8340   -1.7610   21.7810 C   0  0  0  0  0  0  0  0  0  0  0  0
   12.9150   -2.4070   24.1720 C   0  0  0  0  0  0  0  0  0  0  0  0
    5.1510    1.2930   17.7550 C   0  0  0  0  0  0  0  0  0  0  0  0
    9.7900    3.2530   23.0050 C   0  0  0  0  0  0  0  0  0  0  0  0
    7.9140    4.7270   22.6680 C   0  0  0  0  0  0  0  0  0  0  0  0
    9.3190   -4.5370   25.9090 N   0  0  0  0  0  0  0  0  0  0  0  0
   10.4190    1.8840   23.1390 C   0  0  0  0  0  0  0  0  0  0  0  0
   10.6750    4.3670   23.1580 C   0  0  0  0  0  0  0  0  0  0  0  0
    8.9080    5.8870   22.8420 C   0  0  0  0  0  0  0  0  0  0  0  0
    9.5290   -5.6990   25.0650 C   0  0  0  0  0  0  0  0  0  0  0  0
    8.3640   -4.6000   26.9340 C   0  0  0  0  0  0  0  0  0  0  0  0
   10.2640    5.6950   23.0880 C   0  0  0  0  0  0  0  0  0  0  0  0
    8.6050   -5.7540   23.8190 C   0  0  0  0  0  0  0  0  0  0  0  0
    7.0230   -4.7110   26.5500 C   0  0  0  0  0  0  0  0  0  0  0  0
   11.0130    6.8370   23.2350 O   0  0  0  0  0  0  0  0  0  0  0  0
    6.8440   -5.8020   25.6480 O   0  0  0  0  0  0  0  0  0  0  0  0
    7.2030   -5.5710   24.2940 C   0  0  0  0  0  0  0  0  0  0  0  0
   12.0880    6.8530   24.1730 C   0  0  0  0  0  0  0  0  0  0  0  0
  1  2  1  0
  2  3  2  0
  1  4  1  0
  5  1  1  6
  2  6  1  0
  4  7  1  6
  4  8  1  0
  5  9  1  0
  5 10  1  0
  6 11  1  0
  7 12  1  0
  7 13  2  0
  8 14  2  0
  8 15  1  0
  9 16  1  0
 10 17  1  0
 16 17  1  0
  9 18  1  0
 17 19  1  6
 15 20  2  0
 14 21  1  0
 12 22  1  0
 18 23  1  0
 19 24  1  0
 19 25  1  0
 19 26  1  0
 20 27  1  0
 21 27  2  0
 22 28  2  0
 22 29  1  0
 23 30  1  0
 28 31  1  0
 28 32  1  0
 29 33  2  0
 30 34  1  0
 30 35  1  0
 32 36  2  0
 33 36  1  0
 34 37  1  0
 35 38  1  0
 36 39  1  0
 38 40  1  0
 37 41  1  0
 40 41  1  0
 39 42  1  0
M  END
