x1077-x3113-x1311
     RDKit          3D

 44 47  0  0  0  0  0  0  0  0999 V2000
    6.8980   -1.6020   22.0160 N   0  0  0  0  0  0  0  0  0  0  0  0
    6.0980   -2.8030   21.5540 C   0  0  0  0  0  0  0  0  0  0  0  0
    4.8000   -3.0250   21.3360 O   0  0  0  0  0  0  0  0  0  0  0  0
    6.6420   -0.1380   21.7360 C   0  0  1  0  0  0  0  0  0  0  0  0
    8.2370   -1.6640   22.6080 C   0  0  0  0  0  0  0  0  0  0  0  0
    6.9620   -3.9810   21.2940 C   0  0  1  0  0  0  0  0  0  0  0  0
    7.8710    0.8430   21.9090 C   0  0  0  0  0  0  0  0  0  0  0  0
    6.1380    0.2760   20.3420 C   0  0  0  0  0  0  0  0  0  0  0  0
    9.4100   -1.6200   21.7970 C   0  0  0  0  0  0  0  0  0  0  0  0
    8.4180   -1.7480   23.9800 C   0  0  0  0  0  0  0  0  0  0  0  0
    7.5140   -3.4050   19.9370 C   0  0  0  0  0  0  0  0  0  0  0  0
    8.1140    1.3980   23.2890 N   0  0  0  0  0  0  0  0  0  0  0  0
    8.5940    1.1850   20.9620 O   0  0  0  0  0  0  0  0  0  0  0  0
    4.9830    1.0580   20.2030 C   0  0  0  0  0  0  0  0  0  0  0  0
    6.8910   -0.1410   19.2210 C   0  0  0  0  0  0  0  0  0  0  0  0
   10.6850   -1.6560   22.4080 C   0  0  0  0  0  0  0  0  0  0  0  0
    9.7120   -1.7750   24.5210 C   0  0  0  0  0  0  0  0  0  0  0  0
    7.7910   -4.2370   22.6080 C   0  0  0  0  0  0  0  0  0  0  0  0
    9.0680    2.3750   23.2000 C   0  0  0  0  0  0  0  0  0  0  0  0
    6.4400    0.2760   17.8850 N   0  0  0  0  0  0  0  0  0  0  0  0
    4.5160    1.4760   18.9660 C   0  0  0  0  0  0  0  0  0  0  0  0
   10.8750   -1.7250   23.7790 C   0  0  0  0  0  0  0  0  0  0  0  0
    9.1790   -4.3010   22.6040 C   0  0  0  0  0  0  0  0  0  0  0  0
    7.1510   -4.4110   23.8660 C   0  0  0  0  0  0  0  0  0  0  0  0
   10.5160    1.9880   23.5620 C   0  0  0  0  0  0  0  0  0  0  0  0
   12.2420   -1.7260   24.4910 C   0  0  0  0  0  0  0  0  0  0  0  0
    5.2430    1.0850   17.8820 C   0  0  0  0  0  0  0  0  0  0  0  0
    9.8520   -4.5340   23.7870 C   0  0  0  0  0  0  0  0  0  0  0  0
    7.9010   -4.6400   25.0160 C   0  0  0  0  0  0  0  0  0  0  0  0
    5.6550   -4.4050   24.0830 C   0  0  0  0  0  0  0  0  0  0  0  0
   11.4980    2.9230   22.8220 C   0  0  0  0  0  0  0  0  0  0  0  0
   12.7720   -2.9140   25.0030 C   0  0  0  0  0  0  0  0  0  0  0  0
   13.3720   -2.3350   23.7640 C   0  0  0  0  0  0  0  0  0  0  0  0
   12.6150   -0.5290   24.8960 C   0  0  0  0  0  0  0  0  0  0  0  0
    9.2180   -4.6980   24.9430 C   0  0  0  0  0  0  0  0  0  0  0  0
    5.3550   -5.8660   24.2810 C   0  0  2  0  0  0  0  0  0  0  0  0
   11.7070    3.9570   23.4560 O   0  0  0  0  0  0  0  0  0  0  0  0
    5.8320   -6.5530   23.0070 C   0  0  0  0  0  0  0  0  0  0  0  0
    3.6630   -6.5200   24.5140 S   0  0  0  0  0  0  0  0  0  0  0  0
   12.7830    4.6600   22.9780 C   0  0  0  0  0  0  0  0  0  0  0  0
    3.7440   -7.8550   25.0830 O   0  0  0  0  0  0  0  0  0  0  0  0
    2.7290   -5.5170   24.9660 O   0  0  0  0  0  0  0  0  0  0  0  0
    4.7530   -6.5480   22.1910 C   0  0  0  0  0  0  0  0  0  0  0  0
    3.5130   -6.5640   22.7530 C   0  0  0  0  0  0  0  0  0  0  0  0
  1  2  1  0
  2  3  2  0
  1  4  1  0
  1  5  1  0
  2  6  1  0
  4  7  1  6
  4  8  1  0
  5  9  2  0
  5 10  1  0
  6 11  1  6
  7 12  1  0
  7 13  2  0
  8 14  2  0
  8 15  1  0
  9 16  1  0
 10 17  2  0
  6 18  1  0
 12 19  1  0
 15 20  2  0
 14 21  1  0
 16 22  2  0
 17 22  1  0
 18 23  2  0
 18 24  1  0
 19 25  1  0
 22 26  1  0
 20 27  1  0
 21 27  2  0
 23 28  1  0
 24 29  2  0
 24 30  1  0
 25 31  1  0
 26 32  1  0
 26 33  1  0
 26 34  1  0
 28 35  2  0
 29 35  1  0
 36 30  1  6
 31 37  1  0
 36 38  1  0
 36 39  1  0
 37 40  1  0
 39 41  1  0
 39 42  1  0
 38 43  1  0
 39 44  1  0
 43 44  2  0
M  END
