x1077-x2193-x1351-x3110-x0946
     RDKit          3D

 58 63  0  0  0  0  0  0  0  0999 V2000
    8.1550    1.2940   23.3880 N   0  0  0  0  0  0  0  0  0  0  0  0
    8.9590    2.3260   24.0890 C   0  0  0  0  0  0  0  0  0  0  0  0
   10.4180    2.3370   23.6980 C   0  0  0  0  0  0  0  0  0  0  0  0
    8.1300    0.9570   21.9540 C   0  0  0  0  0  0  0  0  0  0  0  0
    8.7570    1.5320   21.0350 O   0  0  0  0  0  0  0  0  0  0  0  0
    7.2320   -0.2330   21.5050 C   0  0  2  0  0  0  0  0  0  0  0  0
    7.7830   -1.4590   21.6430 N   0  0  0  0  0  0  0  0  0  0  0  0
    6.5290    0.2150   20.1980 C   0  0  0  0  0  0  0  0  0  0  0  0
   11.2620    3.5990   23.5790 C   0  0  0  0  0  0  0  0  0  0  0  0
   11.0040    1.1500   23.4310 C   0  0  0  0  0  0  0  0  0  0  0  0
   10.6870    5.0000   23.8720 C   0  0  0  0  0  0  0  0  0  0  0  0
    5.2980    0.9120   20.2220 C   0  0  0  0  0  0  0  0  0  0  0  0
    7.0880   -0.0250   18.9380 C   0  0  0  0  0  0  0  0  0  0  0  0
    8.9810   -1.5260   22.2530 C   0  0  0  0  0  0  0  0  0  0  0  0
   12.3540    1.0740   23.0330 C   0  0  0  0  0  0  0  0  0  0  0  0
   12.6010    3.4700   23.1760 C   0  0  0  0  0  0  0  0  0  0  0  0
    7.0120   -2.6270   22.2350 C   0  0  2  0  0  0  0  0  0  0  0  0
   13.5560    4.5990   22.9740 C   0  0  0  0  0  0  0  0  0  0  0  0
    9.5660    5.2040   23.0480 N   0  0  0  0  0  0  0  0  0  0  0  0
   10.5350    5.1780   25.0840 O   0  0  0  0  0  0  0  0  0  0  0  0
   11.5520    6.0540   23.5860 O   0  0  0  0  0  0  0  0  0  0  0  0
    6.5650    0.3450   17.7570 N   0  0  0  0  0  0  0  0  0  0  0  0
    4.6830    1.3370   18.8680 C   0  0  0  0  0  0  0  0  0  0  0  0
   10.1720   -1.3970   21.5650 C   0  0  0  0  0  0  0  0  0  0  0  0
    9.0800   -1.7450   23.6270 C   0  0  0  0  0  0  0  0  0  0  0  0
   13.0900    2.2010   22.9160 C   0  0  0  0  0  0  0  0  0  0  0  0
    6.5310   -3.7970   21.4690 N   0  0  0  0  0  0  0  0  0  0  0  0
    6.1010   -2.1180   23.1170 C   0  0  0  0  0  0  0  0  0  0  0  0
   13.1630    5.3490   21.6980 C   0  0  0  0  0  0  0  0  0  0  0  0
    6.2210   -3.7570   20.1050 C   0  0  0  0  0  0  0  0  0  0  0  0
    5.4010    1.0060   17.7240 C   0  0  0  0  0  0  0  0  0  0  0  0
   11.4360   -1.4930   22.1490 C   0  0  0  0  0  0  0  0  0  0  0  0
   10.3390   -1.8440   24.2020 C   0  0  0  0  0  0  0  0  0  0  0  0
    5.5860   -3.0290   23.9970 C   0  0  2  0  0  0  0  0  0  0  0  0
    6.0330   -4.9420   22.2970 C   0  0  0  0  0  0  0  0  0  0  0  0
    7.2590   -3.1540   19.1680 C   0  0  0  0  0  0  0  0  0  0  0  0
    5.1630   -4.2560   19.7430 O   0  0  0  0  0  0  0  0  0  0  0  0
    6.4830   -3.2390   25.1340 N   0  0  0  0  0  0  0  0  0  0  0  0
   11.4970   -1.7220   23.5010 C   0  0  0  0  0  0  0  0  0  0  0  0
    5.0740   -4.3880   23.3550 C   0  0  0  0  0  0  0  0  0  0  0  0
   12.6560   -1.8870   24.4800 C   0  0  0  0  0  0  0  0  0  0  0  0
    6.9170   -2.3740   26.2720 C   0  0  0  0  0  0  0  0  0  0  0  0
   12.8040   -0.6440   25.3620 C   0  0  0  0  0  0  0  0  0  0  0  0
   13.7910   -1.9760   23.7320 C   0  0  0  0  0  0  0  0  0  0  0  0
   12.5940   -3.1110   25.4230 C   0  0  0  0  0  0  0  0  0  0  0  0
    8.0190   -3.0150   26.8070 N   0  0  0  0  0  0  0  0  0  0  0  0
    6.4020   -1.0580   26.8320 C   0  0  0  0  0  0  0  0  0  0  0  0
    8.6120   -4.1630   26.3730 C   0  0  1  0  0  0  0  0  0  0  0  0
    7.1790   -0.5460   28.0540 C   0  0  0  0  0  0  0  0  0  0  0  0
    5.1430   -0.2620   26.1820 C   0  0  0  0  0  0  0  0  0  0  0  0
    7.9210   -5.3520   26.1790 C   0  0  0  0  0  0  0  0  0  0  0  0
    9.2590   -3.8380   25.1150 N   0  0  0  0  0  0  0  0  0  0  0  0
    6.7890    0.6880   28.6500 C   0  0  0  0  0  0  0  0  0  0  0  0
    4.8040    0.9370   26.8250 C   0  0  0  0  0  0  0  0  0  0  0  0
    8.7780   -6.3710   25.9540 N   0  0  0  0  0  0  0  0  0  0  0  0
    9.5190   -4.9310   24.1580 C   0  0  0  0  0  0  0  0  0  0  0  0
    5.7390    0.8200   27.6850 C   0  0  0  0  0  0  0  0  0  0  0  0
    9.5680   -6.2030   24.7180 C   0  0  0  0  0  0  0  0  0  0  0  0
  1  2  1  0
  2  3  1  0
  1  4  1  0
  4  5  2  0
  6  4  1  6
  6  7  1  0
  6  8  1  0
  3  9  2  0
  3 10  1  0
  9 11  1  0
  8 12  2  0
  8 13  1  0
  7 14  1  0
 10 15  2  0
  9 16  1  0
 17  7  1  6
 16 18  1  0
 11 19  1  0
 11 20  1  0
 11 21  1  0
 13 22  2  0
 12 23  1  0
 14 24  2  0
 14 25  1  0
 15 26  1  0
 16 26  2  0
 17 27  1  0
 17 28  1  0
 18 29  1  0
 27 30  1  0
 22 31  1  0
 23 31  2  0
 24 32  1  0
 25 33  2  0
 28 34  1  0
 27 35  1  0
 30 36  1  0
 30 37  2  0
 34 38  1  1
 32 39  2  0
 33 39  1  0
 34 40  1  0
 35 40  1  0
 39 41  1  0
 38 42  1  0
 41 43  1  0
 41 44  1  0
 41 45  1  0
 42 46  2  3
 42 47  1  0
 48 46  1  6
 47 49  2  0
 47 50  1  0
 48 51  1  0
 48 52  1  0
 49 53  1  0
 50 54  2  0
 51 55  1  0
 52 56  1  0
 53 57  2  0
 54 57  1  0
 55 58  1  0
 56 58  1  0
M  END
