x1077-x3110
     RDKit          3D

 40 42  0  0  0  0  0  0  0  0999 V2000
    7.1700    1.0680   23.7000 N   0  0  0  0  0  0  0  0  0  0  0  0
    7.9830    2.1000   24.2550 C   0  0  0  0  0  0  0  0  0  0  0  0
    9.4020    2.0600   24.1070 C   0  0  0  0  0  0  0  0  0  0  0  0
    7.0150    0.8010   22.2980 C   0  0  0  0  0  0  0  0  0  0  0  0
    7.6170    1.5600   21.5290 O   0  0  0  0  0  0  0  0  0  0  0  0
    6.1930   -0.2950   21.7810 C   0  0  2  0  0  0  0  0  0  0  0  0
    6.7560   -1.7280   21.8650 N   0  0  0  0  0  0  0  0  0  0  0  0
   10.0880    3.4330   24.0790 C   0  0  0  0  0  0  0  0  0  0  0  0
    5.7360    0.0840   20.3390 C   0  0  0  0  0  0  0  0  0  0  0  0
   11.3390    3.3160   23.4980 O   0  0  0  0  0  0  0  0  0  0  0  0
    9.6120    4.4820   24.5210 O   0  0  0  0  0  0  0  0  0  0  0  0
    5.9840   -2.9500   21.4560 C   0  0  0  0  0  0  0  0  0  0  0  0
    4.4010    0.5710   20.1500 C   0  0  0  0  0  0  0  0  0  0  0  0
    6.5770    0.0050   19.1870 C   0  0  0  0  0  0  0  0  0  0  0  0
    8.0830   -1.8420   22.5210 C   0  0  0  0  0  0  0  0  0  0  0  0
   11.6560    4.0900   22.3040 C   0  0  0  0  0  0  0  0  0  0  0  0
    4.7330   -2.9840   21.3240 O   0  0  0  0  0  0  0  0  0  0  0  0
    6.6920   -4.3150   21.2150 C   0  0  0  0  0  0  0  0  0  0  0  0
    6.0230    0.4410   17.8760 N   0  0  0  0  0  0  0  0  0  0  0  0
    3.9270    0.9730   18.8810 C   0  0  0  0  0  0  0  0  0  0  0  0
    9.1590   -1.5380   21.6300 C   0  0  0  0  0  0  0  0  0  0  0  0
    8.0360   -2.2430   23.9640 C   0  0  0  0  0  0  0  0  0  0  0  0
   13.1490    4.4370   22.2850 C   0  0  0  0  0  0  0  0  0  0  0  0
    6.9850   -3.7720   19.7400 C   0  0  0  0  0  0  0  0  0  0  0  0
    4.7210    0.9240   17.6930 C   0  0  0  0  0  0  0  0  0  0  0  0
   10.4780   -1.5540   22.0190 C   0  0  0  0  0  0  0  0  0  0  0  0
    9.7140   -2.1840   24.1790 C   0  0  0  0  0  0  0  0  0  0  0  0
    7.9880   -2.6640   25.4800 C   0  0  0  0  0  0  0  0  0  0  0  0
   10.8570   -1.8660   23.3070 C   0  0  0  0  0  0  0  0  0  0  0  0
    8.2650   -4.0850   26.0060 N   0  0  0  0  0  0  0  0  0  0  0  0
   12.2090   -1.8940   23.7940 C   0  0  0  0  0  0  0  0  0  0  0  0
    8.2430   -5.2080   25.1370 C   0  0  0  0  0  0  0  0  0  0  0  0
    8.3340   -4.3580   27.4310 C   0  0  0  0  0  0  0  0  0  0  0  0
   12.4520   -0.7370   24.8220 C   0  0  0  0  0  0  0  0  0  0  0  0
   13.2930   -1.6690   22.7120 C   0  0  0  0  0  0  0  0  0  0  0  0
   12.5190   -3.2920   24.4650 C   0  0  0  0  0  0  0  0  0  0  0  0
    6.7090   -5.4240   24.8090 C   0  0  0  0  0  0  0  0  0  0  0  0
    7.1180   -4.7870   28.0020 C   0  0  0  0  0  0  0  0  0  0  0  0
    6.6180   -5.9640   27.3500 O   0  0  0  0  0  0  0  0  0  0  0  0
    5.9690   -5.8270   26.0820 C   0  0  0  0  0  0  0  0  0  0  0  0
  1  2  1  0
  2  3  1  0
  1  4  1  0
  4  5  2  0
  6  4  1  6
  6  7  1  0
  3  8  1  0
  6  9  1  0
  8 10  1  0
  8 11  2  0
  7 12  1  0
  9 13  2  0
  9 14  1  0
  7 15  1  0
 10 16  1  0
 12 17  2  0
 12 18  1  0
 14 19  2  0
 13 20  1  0
 15 21  2  0
 15 22  1  0
 16 23  1  0
 18 24  1  0
 19 25  1  0
 20 25  2  0
 21 26  1  0
 22 27  2  0
 22 28  1  0
 26 29  2  0
 27 29  1  0
 28 30  1  0
 29 31  1  0
 30 32  1  0
 30 33  1  0
 31 34  1  0
 31 35  1  0
 31 36  1  0
 32 37  1  0
 33 38  1  0
 38 39  1  0
 37 40  1  0
 39 40  1  0
M  END
