x1077-x3303
     RDKit          3D

 34 38  0  0  0  0  0  0  0  0999 V2000
    6.1260   -1.6510   20.9700 C   0  0  0  0  0  0  0  0  0  0  0  0
    7.3960   -1.6250   21.6630 N   0  0  0  0  0  0  0  0  0  0  0  0
    8.3970   -0.7060   21.4220 C   0  0  0  0  0  0  0  0  0  0  0  0
    5.1510   -2.7150   21.0030 O   0  0  0  0  0  0  0  0  0  0  0  0
    5.7160   -0.4940   20.1150 C   0  0  0  0  0  0  0  0  0  0  0  0
    7.5250   -2.3700   22.8630 C   0  0  0  0  0  0  0  0  0  0  0  0
    4.6610    0.4900   20.5370 C   0  0  0  0  0  0  0  0  0  0  0  0
    6.3460   -0.2480   18.7810 C   0  0  0  0  0  0  0  0  0  0  0  0
    9.0750   -0.1210   22.6490 C   0  0  2  0  0  0  0  0  0  0  0  0
    8.7380   -2.3880   23.5370 C   0  0  1  0  0  0  0  0  0  0  0  0
    4.2870    1.6400   19.6480 C   0  0  0  0  0  0  0  0  0  0  0  0
    5.8390    0.9800   18.0120 C   0  0  0  0  0  0  0  0  0  0  0  0
    3.9720    0.3110   21.8810 C   0  0  0  0  0  0  0  0  0  0  0  0
    6.3190    1.3020   16.8270 O   0  0  0  0  0  0  0  0  0  0  0  0
    9.8910    0.6630   22.3540 N   0  0  0  0  0  0  0  0  0  0  0  0
    9.4880   -1.2290   23.5160 N   0  0  0  0  0  0  0  0  0  0  0  0
    4.8090    1.8770   18.5070 N   0  0  0  0  0  0  0  0  0  0  0  0
    2.9960    1.2420   22.2400 C   0  0  0  0  0  0  0  0  0  0  0  0
    3.2030    2.5450   20.2150 C   0  0  0  0  0  0  0  0  0  0  0  0
    8.4400   -2.8030   25.0220 C   0  0  0  0  0  0  0  0  0  0  0  0
   10.8790   -1.5950   23.5770 C   0  0  0  0  0  0  0  0  0  0  0  0
    2.6020    2.3340   21.4540 C   0  0  0  0  0  0  0  0  0  0  0  0
    8.9800   -4.0750   25.5980 N   0  0  0  0  0  0  0  0  0  0  0  0
   11.8040   -1.3630   22.5710 C   0  0  0  0  0  0  0  0  0  0  0  0
   11.3140   -2.2390   24.7250 C   0  0  0  0  0  0  0  0  0  0  0  0
    9.2810   -5.0480   24.7310 C   0  0  0  0  0  0  0  0  0  0  0  0
    8.5390   -4.4560   26.8050 C   0  0  0  0  0  0  0  0  0  0  0  0
   13.2450   -1.7840   22.6870 C   0  0  0  0  0  0  0  0  0  0  0  0
   12.6100   -2.6460   24.8760 C   0  0  0  0  0  0  0  0  0  0  0  0
    8.2580   -5.4760   23.8380 C   0  0  0  0  0  0  0  0  0  0  0  0
    7.1730   -4.8490   26.6710 C   0  0  0  0  0  0  0  0  0  0  0  0
   13.5000   -2.4270   23.9100 C   0  0  0  0  0  0  0  0  0  0  0  0
    6.8140   -5.7370   25.6870 O   0  0  0  0  0  0  0  0  0  0  0  0
    6.9780   -5.2930   24.3360 C   0  0  0  0  0  0  0  0  0  0  0  0
  1  2  1  0
  2  3  1  0
  1  4  2  0
  1  5  1  0
  2  6  1  0
  5  7  1  0
  5  8  2  0
  3  9  1  0
  6 10  1  0
  7 11  2  0
  8 12  1  0
  7 13  1  0
 12 14  1  0
  9 15  1  6
  9 16  1  0
 10 16  1  0
 11 17  1  0
 12 17  2  0
 13 18  2  0
 11 19  1  0
 10 20  1  1
 16 21  1  0
 18 22  1  0
 19 22  2  0
 20 23  1  0
 21 24  2  0
 21 25  1  0
 23 26  1  0
 23 27  1  0
 24 28  1  0
 25 29  2  0
 26 30  1  0
 27 31  1  0
 28 32  2  0
 29 32  1  0
 31 33  1  0
 30 34  1  0
 33 34  1  0
M  END
