x1077-x2705
     RDKit          3D

 42 45  0  0  0  0  0  0  0  0999 V2000
    7.1080   -1.6480   21.5820 N   0  0  0  0  0  0  0  0  0  0  0  0
    6.2550   -2.8980   21.3680 C   0  0  0  0  0  0  0  0  0  0  0  0
    4.9510   -3.1100   21.1020 O   0  0  0  0  0  0  0  0  0  0  0  0
    6.6280   -0.2430   21.5410 C   0  0  1  0  0  0  0  0  0  0  0  0
    8.4100   -1.6420   22.2710 C   0  0  0  0  0  0  0  0  0  0  0  0
    7.0700   -4.1750   21.5180 C   0  0  0  0  0  0  0  0  0  0  0  0
    7.7220    0.8990   21.8390 C   0  0  0  0  0  0  0  0  0  0  0  0
    6.0820    0.2630   20.2050 C   0  0  0  0  0  0  0  0  0  0  0  0
    8.4510   -1.9560   23.5640 N   0  0  0  0  0  0  0  0  0  0  0  0
    9.7210   -1.3540   21.8660 C   0  0  0  0  0  0  0  0  0  0  0  0
    7.0620   -3.7540   20.0270 C   0  0  0  0  0  0  0  0  0  0  0  0
    7.3890    2.0240   22.7270 N   0  0  0  0  0  0  0  0  0  0  0  0
    8.8210    0.8940   21.3190 O   0  0  0  0  0  0  0  0  0  0  0  0
    4.9220    1.0220   20.1190 C   0  0  0  0  0  0  0  0  0  0  0  0
    6.8490   -0.0650   19.0380 C   0  0  0  0  0  0  0  0  0  0  0  0
    9.7200   -1.9000   24.0990 N   0  0  0  0  0  0  0  0  0  0  0  0
   10.5810   -1.5120   22.9830 C   0  0  0  0  0  0  0  0  0  0  0  0
    7.3710   -2.3350   24.4180 C   0  0  0  0  0  0  0  0  0  0  0  0
   12.0950   -1.3490   23.1390 C   0  0  0  0  0  0  0  0  0  0  0  0
    6.3770    0.4400   17.7700 N   0  0  0  0  0  0  0  0  0  0  0  0
    4.4670    1.5050   18.9110 C   0  0  0  0  0  0  0  0  0  0  0  0
    8.1290    3.2390   22.9080 C   0  0  0  0  0  0  0  0  0  0  0  0
    8.0710   -2.7890   25.6780 C   0  0  0  0  0  0  0  0  0  0  0  0
   12.4990    0.0540   23.5600 C   0  0  0  0  0  0  0  0  0  0  0  0
   12.6040   -2.3070   24.2590 C   0  0  0  0  0  0  0  0  0  0  0  0
   12.7960   -1.7320   21.8640 C   0  0  0  0  0  0  0  0  0  0  0  0
    5.1340    1.2540   17.7810 C   0  0  0  0  0  0  0  0  0  0  0  0
    9.4460    3.2850   23.4750 C   0  0  0  0  0  0  0  0  0  0  0  0
    7.4800    4.4550   22.4850 C   0  0  0  0  0  0  0  0  0  0  0  0
    9.0700   -3.8970   25.6460 N   0  0  0  0  0  0  0  0  0  0  0  0
   10.1260    2.0990   23.8910 C   0  0  0  0  0  0  0  0  0  0  0  0
    6.1040    4.4640   21.8730 C   0  0  0  0  0  0  0  0  0  0  0  0
   10.1260    4.4920   23.6400 C   0  0  0  0  0  0  0  0  0  0  0  0
    8.1330    5.6930   22.6350 C   0  0  0  0  0  0  0  0  0  0  0  0
    9.4080   -4.5610   24.3730 C   0  0  0  0  0  0  0  0  0  0  0  0
    8.8620   -4.8350   26.7640 C   0  0  0  0  0  0  0  0  0  0  0  0
    9.3420    1.2530   24.6920 C   0  0  0  0  0  0  0  0  0  0  0  0
    9.5290    5.6710   23.2510 C   0  0  0  0  0  0  0  0  0  0  0  0
    8.7080   -5.7410   24.1830 C   0  0  0  0  0  0  0  0  0  0  0  0
    7.6320   -5.5000   26.7640 C   0  0  0  0  0  0  0  0  0  0  0  0
    6.7490   -5.2860   25.6560 O   0  0  0  0  0  0  0  0  0  0  0  0
    7.1990   -5.4980   24.3200 C   0  0  0  0  0  0  0  0  0  0  0  0
  1  2  1  0
  2  3  2  0
  1  4  1  0
  1  5  1  0
  2  6  1  0
  4  7  1  6
  4  8  1  0
  5  9  1  0
  5 10  2  0
  6 11  1  0
  7 12  1  0
  7 13  2  0
  8 14  2  0
  8 15  1  0
  9 16  1  0
 10 17  1  0
 16 17  2  0
  9 18  1  0
 17 19  1  0
 15 20  2  0
 14 21  1  0
 12 22  1  0
 18 23  1  0
 19 24  1  0
 19 25  1  0
 19 26  1  0
 20 27  1  0
 21 27  2  0
 22 28  2  0
 22 29  1  0
 23 30  1  0
 28 31  1  0
 29 32  1  0
 28 33  1  0
 29 34  2  0
 30 35  1  0
 30 36  1  0
 31 37  1  0
 33 38  2  0
 34 38  1  0
 35 39  1  0
 36 40  1  0
 40 41  1  0
 39 42  1  0
 41 42  1  0
M  END
