x1093-x1308
     RDKit          3D

 40 44  0  0  0  0  0  0  0  0999 V2000
    7.2280   -3.3920   19.5010 C   0  0  0  0  0  0  0  0  0  0  0  0
    6.4230   -4.2880   20.4490 C   0  0  0  0  0  0  0  0  0  0  0  0
    5.7360   -5.2030   20.0280 O   0  0  0  0  0  0  0  0  0  0  0  0
    6.3530   -4.0140   21.9460 C   0  0  0  0  0  0  0  0  0  0  0  0
    6.0320   -2.4710   22.0750 C   0  0  0  0  0  0  0  0  0  0  0  0
    7.5560   -4.4760   22.7960 C   0  0  0  0  0  0  0  0  0  0  0  0
    5.2640   -4.9680   22.3110 C   0  0  0  0  0  0  0  0  0  0  0  0
    7.0900   -1.5600   22.4840 C   0  0  0  0  0  0  0  0  0  0  0  0
    7.3100   -4.4910   24.1970 C   0  0  0  0  0  0  0  0  0  0  0  0
    4.8990   -4.8530   23.6180 C   0  0  0  0  0  0  0  0  0  0  0  0
    7.8930   -0.8980   21.2800 C   0  0  2  0  0  0  0  0  0  0  0  0
    6.0310   -5.2130   24.4640 N   0  0  0  0  0  0  0  0  0  0  0  0
    5.5210   -5.4520   26.0610 S   0  0  0  0  0  0  0  0  0  0  0  0
    8.8430    0.1160   21.6970 C   0  0  0  0  0  0  0  0  0  0  0  0
    7.0430   -0.3570   20.1440 C   0  0  0  0  0  0  0  0  0  0  0  0
    6.5560   -5.0360   26.9700 O   0  0  0  0  0  0  0  0  0  0  0  0
    4.9190   -6.7630   26.1420 O   0  0  0  0  0  0  0  0  0  0  0  0
    8.7770    1.2770   21.2240 O   0  0  0  0  0  0  0  0  0  0  0  0
    4.1700   -4.2940   26.1550 C   0  0  0  0  0  0  0  0  0  0  0  0
    9.8460   -0.2030   22.6100 N   0  0  0  0  0  0  0  0  0  0  0  0
    7.2360   -0.5620   18.6830 C   0  0  0  0  0  0  0  0  0  0  0  0
    5.9140    0.4500   20.2560 C   0  0  0  0  0  0  0  0  0  0  0  0
    4.4130   -2.9560   26.4620 C   0  0  0  0  0  0  0  0  0  0  0  0
    2.8800   -4.7340   25.9210 C   0  0  0  0  0  0  0  0  0  0  0  0
   10.5960    0.6320   23.4040 C   0  0  0  0  0  0  0  0  0  0  0  0
    9.9710   -1.6470   22.8800 C   0  0  0  0  0  0  0  0  0  0  0  0
    6.2630    0.1100   18.0270 N   0  0  0  0  0  0  0  0  0  0  0  0
    5.4920    0.7020   18.9610 C   0  0  0  0  0  0  0  0  0  0  0  0
    5.2230    0.9840   21.3550 C   0  0  0  0  0  0  0  0  0  0  0  0
    3.3280   -2.0100   26.5460 C   0  0  0  0  0  0  0  0  0  0  0  0
    1.7740   -3.6770   26.0260 C   0  0  0  0  0  0  0  0  0  0  0  0
   12.0370    0.1660   23.3790 C   0  0  0  0  0  0  0  0  0  0  0  0
   11.3200   -2.0660   22.8740 C   0  0  0  0  0  0  0  0  0  0  0  0
    4.4090    1.4710   18.7280 N   0  0  0  0  0  0  0  0  0  0  0  0
    4.1160    1.7610   21.1140 C   0  0  0  0  0  0  0  0  0  0  0  0
    1.9810   -2.3750   26.3280 C   0  0  0  0  0  0  0  0  0  0  0  0
   12.0710   -1.2440   23.8150 N   0  0  0  0  0  0  0  0  0  0  0  0
    3.7740    1.9590   19.7950 C   0  0  0  0  0  0  0  0  0  0  0  0
    0.6100   -1.3330   26.4140 Cl  0  0  0  0  0  0  0  0  0  0  0  0
   13.4130   -1.7440   23.8060 C   0  0  0  0  0  0  0  0  0  0  0  0
  1  2  1  0
  2  3  2  0
  4  2  1  0
  4  5  1  0
  4  6  1  0
  4  7  1  0
  5  8  1  0
  6  9  1  0
  7 10  1  0
 11  8  1  1
  9 12  1  0
 10 12  1  0
 12 13  1  0
 11 14  1  0
 11 15  1  0
 13 16  2  0
 13 17  2  0
 14 18  2  0
 13 19  1  0
 14 20  1  0
 15 21  2  0
 15 22  1  0
 19 23  2  0
 19 24  1  0
 20 25  1  0
 20 26  1  0
 21 27  1  0
 22 28  2  0
 27 28  1  0
 22 29  1  0
 23 30  1  0
 24 31  2  0
 25 32  1  0
 26 33  1  0
 28 34  1  0
 29 35  2  0
 30 36  2  0
 31 36  1  0
 32 37  1  0
 33 37  1  0
 34 38  2  0
 35 38  1  0
 36 39  1  0
 37 40  1  0
M  END
