x1093-x0820
     RDKit          3D

 36 40  0  0  0  0  0  0  0  0999 V2000
    6.8820   -4.8800   21.7460 N   0  0  0  0  0  0  0  0  0  0  0  0
    7.1840   -3.9700   22.7480 C   0  0  1  0  0  0  0  0  0  0  0  0
    7.0990   -2.5250   22.2920 C   0  0  0  0  0  0  0  0  0  0  0  0
    6.3170   -4.6090   20.4660 C   0  0  0  0  0  0  0  0  0  0  0  0
    5.3770   -5.2620   20.0400 O   0  0  0  0  0  0  0  0  0  0  0  0
    6.9030   -3.5460   19.5290 C   0  0  0  0  0  0  0  0  0  0  0  0
    6.3070   -4.2400   23.9740 C   0  0  0  0  0  0  0  0  0  0  0  0
    8.2970   -1.8590   21.5970 C   0  0  0  0  0  0  0  0  0  0  0  0
    6.8570   -4.3280   25.2500 C   0  0  0  0  0  0  0  0  0  0  0  0
    4.9330   -4.3820   23.7510 C   0  0  0  0  0  0  0  0  0  0  0  0
    7.9780   -0.3800   21.5020 C   0  0  1  0  0  0  0  0  0  0  0  0
    6.0470   -4.5600   26.3540 C   0  0  0  0  0  0  0  0  0  0  0  0
    4.1100   -4.6170   24.8650 C   0  0  0  0  0  0  0  0  0  0  0  0
    8.2530   -4.1950   25.5480 C   0  0  0  0  0  0  0  0  0  0  0  0
    9.0900    0.6420   21.7880 C   0  0  0  0  0  0  0  0  0  0  0  0
    4.6650   -4.7050   26.1580 C   0  0  0  0  0  0  0  0  0  0  0  0
    6.4340   -4.6730   27.6860 C   0  0  0  0  0  0  0  0  0  0  0  0
    8.8000   -4.2870   26.8430 C   0  0  0  0  0  0  0  0  0  0  0  0
    7.1290   -0.0670   20.2720 C   0  0  0  0  0  0  0  0  0  0  0  0
    9.1530    1.7480   21.2360 O   0  0  0  0  0  0  0  0  0  0  0  0
    7.8890   -4.5440   28.0650 C   0  0  0  0  0  0  0  0  0  0  0  0
   10.0710    0.1920   22.7870 N   0  0  0  0  0  0  0  0  0  0  0  0
    7.3370   -0.4940   18.8400 C   0  0  0  0  0  0  0  0  0  0  0  0
    5.9700    0.6890   20.2680 C   0  0  0  0  0  0  0  0  0  0  0  0
   11.1060    1.0050   23.1410 C   0  0  0  0  0  0  0  0  0  0  0  0
    9.9540   -0.9130   23.7440 C   0  0  0  0  0  0  0  0  0  0  0  0
    6.3140    0.0480   18.1270 N   0  0  0  0  0  0  0  0  0  0  0  0
    5.5250    0.7330   18.9710 C   0  0  0  0  0  0  0  0  0  0  0  0
    5.2700    1.3380   21.2920 C   0  0  0  0  0  0  0  0  0  0  0  0
   12.3760    0.1810   23.1140 C   0  0  0  0  0  0  0  0  0  0  0  0
   11.0300   -1.8140   23.4810 C   0  0  0  0  0  0  0  0  0  0  0  0
    4.4030    1.4140   18.6520 N   0  0  0  0  0  0  0  0  0  0  0  0
    4.1290    2.0190   20.9660 C   0  0  0  0  0  0  0  0  0  0  0  0
   12.2680   -1.1070   23.8380 N   0  0  0  0  0  0  0  0  0  0  0  0
    3.7440    2.0270   19.6470 C   0  0  0  0  0  0  0  0  0  0  0  0
   13.4110   -1.9700   23.5210 C   0  0  0  0  0  0  0  0  0  0  0  0
  1  2  1  0
  2  3  1  6
  1  4  1  0
  4  5  2  0
  4  6  1  0
  2  7  1  0
  3  8  1  0
  7  9  1  0
  7 10  2  0
 11  8  1  6
  9 12  2  0
 10 13  1  0
  9 14  1  0
 11 15  1  0
 12 16  1  0
 13 16  2  0
 12 17  1  0
 14 18  2  0
 11 19  1  0
 15 20  2  0
 17 21  2  0
 18 21  1  0
 15 22  1  0
 19 23  2  0
 19 24  1  0
 22 25  1  0
 22 26  1  0
 23 27  1  0
 24 28  2  0
 27 28  1  0
 24 29  1  0
 25 30  1  0
 26 31  1  0
 28 32  1  0
 29 33  2  0
 30 34  1  0
 31 34  1  0
 32 35  2  0
 33 35  1  0
 34 36  1  0
M  END
