x1093-x1334
     RDKit          3D

 35 39  0  0  0  0  0  0  0  0999 V2000
    7.3710   -3.1900   18.7040 C   0  0  0  0  0  0  0  0  0  0  0  0
    6.3210   -3.5030   19.8170 C   0  0  0  0  0  0  0  0  0  0  0  0
    5.3410   -4.2100   19.6540 O   0  0  0  0  0  0  0  0  0  0  0  0
    6.5070   -2.9680   21.0740 N   0  0  0  0  0  0  0  0  0  0  0  0
    7.5880   -2.0600   21.3800 C   0  0  1  0  0  0  0  0  0  0  0  0
    6.0840   -3.6630   22.2260 C   0  0  0  0  0  0  0  0  0  0  0  0
    8.6790   -2.7630   21.8320 C   0  0  0  0  0  0  0  0  0  0  0  0
    7.1030   -3.6970   23.3810 C   0  0  0  0  0  0  0  0  0  0  0  0
    7.9850   -1.2380   20.2000 C   0  0  0  0  0  0  0  0  0  0  0  0
    8.1660   -2.7110   23.1840 N   0  0  0  0  0  0  0  0  0  0  0  0
    6.9700   -0.2890   19.8880 C   0  0  0  0  0  0  0  0  0  0  0  0
    9.0060   -2.4830   24.3040 C   0  0  1  0  0  0  0  0  0  0  0  0
    6.5640    0.2910   18.6710 N   0  0  0  0  0  0  0  0  0  0  0  0
    6.1390    0.2190   21.0000 C   0  0  0  0  0  0  0  0  0  0  0  0
    9.0660   -3.6510   25.1810 C   0  0  0  0  0  0  0  0  0  0  0  0
   10.2240   -1.8130   23.7480 C   0  0  1  0  0  0  0  0  0  0  0  0
    5.2930    1.0450   20.4160 C   0  0  0  0  0  0  0  0  0  0  0  0
    5.5000    1.1450   18.9580 C   0  0  0  0  0  0  0  0  0  0  0  0
    9.8870   -4.7920   25.1740 C   0  0  0  0  0  0  0  0  0  0  0  0
    7.9250   -3.7390   26.4710 S   0  0  0  0  0  0  0  0  0  0  0  0
   10.0400   -0.3660   23.3190 N   0  0  0  0  0  0  0  0  0  0  0  0
   11.5520   -1.8750   24.4070 C   0  0  0  0  0  0  0  0  0  0  0  0
    4.8110    1.8900   18.1350 N   0  0  0  0  0  0  0  0  0  0  0  0
    4.1980    1.8490   21.0440 C   0  0  0  0  0  0  0  0  0  0  0  0
    9.6380   -0.0120   21.9710 C   0  0  0  0  0  0  0  0  0  0  0  0
    8.4570   -5.2240   27.0160 C   0  0  0  0  0  0  0  0  0  0  0  0
    9.5220   -5.7670   26.2970 C   0  0  0  0  0  0  0  0  0  0  0  0
   12.3180   -1.2600   23.3700 N   0  0  0  0  0  0  0  0  0  0  0  0
   10.9670    0.5150   23.8090 C   0  0  0  0  0  0  0  0  0  0  0  0
    3.8150    2.6140   18.7320 C   0  0  0  0  0  0  0  0  0  0  0  0
    3.4230    2.6820   20.0840 C   0  0  0  0  0  0  0  0  0  0  0  0
    7.7030   -5.9760   28.3600 Cl  0  0  0  0  0  0  0  0  0  0  0  0
   13.5690   -1.8850   23.2310 C   0  0  0  0  0  0  0  0  0  0  0  0
    8.9720    0.9730   21.6160 O   0  0  0  0  0  0  0  0  0  0  0  0
   12.2820    0.1910   23.4590 C   0  0  0  0  0  0  0  0  0  0  0  0
  1  2  1  0
  2  3  2  0
  2  4  1  0
  4  5  1  0
  4  6  1  0
  5  7  1  0
  6  8  1  0
  5  9  1  6
  7 10  1  0
  8 10  1  0
  9 11  1  0
 10 12  1  0
 11 13  1  0
 11 14  2  0
 12 15  1  6
 12 16  1  0
 14 17  1  0
 13 18  1  0
 17 18  2  0
 15 19  2  0
 15 20  1  0
 16 21  1  0
 16 22  1  1
 18 23  1  0
 17 24  1  0
 21 25  1  0
 20 26  1  0
 19 27  1  0
 26 27  2  0
 22 28  1  0
 21 29  1  0
 23 30  2  0
 24 31  2  0
 30 31  1  0
 26 32  1  0
 28 33  1  0
 25 34  2  0
 28 35  1  0
 29 35  1  0
M  END
