x1093-x1358
     RDKit          3D

 39 43  0  0  0  0  0  0  0  0999 V2000
    6.8090   -2.5930   26.0930 N   0  0  0  0  0  0  0  0  0  0  0  0
    5.9360   -3.4630   25.5020 C   0  0  0  0  0  0  0  0  0  0  0  0
    4.8550   -3.8590   25.9150 O   0  0  0  0  0  0  0  0  0  0  0  0
    6.6120   -1.5840   27.0450 C   0  0  0  0  0  0  0  0  0  0  0  0
    5.8600   -0.3110   26.6440 C   0  0  0  0  0  0  0  0  0  0  0  0
    7.0670   -1.6340   28.3510 C   0  0  0  0  0  0  0  0  0  0  0  0
    6.4890   -3.8980   24.1580 C   0  0  2  0  0  0  0  0  0  0  0  0
    5.3600   -0.1400   25.3760 O   0  0  0  0  0  0  0  0  0  0  0  0
    6.8750   -0.6030   29.2660 C   0  0  0  0  0  0  0  0  0  0  0  0
    5.6750    0.7100   27.5730 C   0  0  0  0  0  0  0  0  0  0  0  0
    6.1350   -2.9730   23.3020 C   0  0  0  0  0  0  0  0  0  0  0  0
    5.9050   -5.1440   23.4710 C   0  0  0  0  0  0  0  0  0  0  0  0
    6.1850    0.5700   28.8910 C   0  0  0  0  0  0  0  0  0  0  0  0
    7.0960   -2.9290   22.3340 C   0  0  2  0  0  0  0  0  0  0  0  0
    6.3380   -5.2960   21.9780 C   0  0  0  0  0  0  0  0  0  0  0  0
    7.0310   -1.4360   21.9190 C   0  0  0  0  0  0  0  0  0  0  0  0
    6.6150   -3.9730   21.3890 N   0  0  0  0  0  0  0  0  0  0  0  0
    6.1830   -3.8300   20.0680 C   0  0  0  0  0  0  0  0  0  0  0  0
    7.9570   -0.8050   20.9030 C   0  0  2  0  0  0  0  0  0  0  0  0
    5.1050   -4.2830   19.7370 O   0  0  0  0  0  0  0  0  0  0  0  0
    7.1170   -3.1780   19.0610 C   0  0  0  0  0  0  0  0  0  0  0  0
    8.9260    0.2100   21.5000 C   0  0  0  0  0  0  0  0  0  0  0  0
    7.0800   -0.1870   19.8910 C   0  0  0  0  0  0  0  0  0  0  0  0
    8.8100    1.4330   21.2590 O   0  0  0  0  0  0  0  0  0  0  0  0
    9.9560   -0.2120   22.2700 N   0  0  0  0  0  0  0  0  0  0  0  0
    7.2360   -0.2750   18.4610 C   0  0  0  0  0  0  0  0  0  0  0  0
    5.9510    0.5770   20.0940 C   0  0  0  0  0  0  0  0  0  0  0  0
   10.8530    0.6930   22.9510 C   0  0  0  0  0  0  0  0  0  0  0  0
   10.0200   -1.4770   22.7490 C   0  0  0  0  0  0  0  0  0  0  0  0
    6.2620    0.4020   17.8780 N   0  0  0  0  0  0  0  0  0  0  0  0
    5.4740    0.9240   18.8570 C   0  0  0  0  0  0  0  0  0  0  0  0
    5.2510    1.0330   21.2180 C   0  0  0  0  0  0  0  0  0  0  0  0
   12.2210    0.1090   23.2240 C   0  0  0  0  0  0  0  0  0  0  0  0
   11.2210   -2.1170   23.1370 C   0  0  0  0  0  0  0  0  0  0  0  0
    4.3990    1.6610   18.5880 N   0  0  0  0  0  0  0  0  0  0  0  0
    4.1190    1.8030   21.0070 C   0  0  0  0  0  0  0  0  0  0  0  0
   12.0910   -1.2090   23.8760 N   0  0  0  0  0  0  0  0  0  0  0  0
    3.7590    2.0720   19.6900 C   0  0  0  0  0  0  0  0  0  0  0  0
   13.3530   -1.8900   24.0250 C   0  0  0  0  0  0  0  0  0  0  0  0
  1  2  1  0
  2  3  2  0
  1  4  1  0
  4  5  2  0
  4  6  1  0
  7  2  1  1
  5  8  1  0
  6  9  2  0
  5 10  1  0
  7 11  1  0
  7 12  1  0
  9 13  1  0
 10 13  2  0
 11 14  1  0
 12 15  1  0
 14 16  1  6
 14 17  1  0
 15 17  1  0
 17 18  1  0
 19 16  1  1
 18 20  2  0
 18 21  1  0
 19 22  1  0
 19 23  1  0
 22 24  2  0
 22 25  1  0
 23 26  2  0
 23 27  1  0
 25 28  1  0
 25 29  1  0
 26 30  1  0
 27 31  2  0
 30 31  1  0
 27 32  1  0
 28 33  1  0
 29 34  1  0
 31 35  1  0
 32 36  2  0
 33 37  1  0
 34 37  1  0
 35 38  2  0
 36 38  1  0
 37 39  1  0
M  END
