x1093-x1458
     RDKit          3D

 36 39  0  0  0  0  0  0  0  0999 V2000
    7.2490   -3.5430   26.7410 N   0  0  0  0  0  0  0  0  0  0  0  0
    7.7340   -4.6320   27.4650 C   0  0  0  0  0  0  0  0  0  0  0  0
    8.8770   -5.3830   26.7740 C   0  0  0  0  0  0  0  0  0  0  0  0
    7.8390   -2.2130   27.0790 C   0  0  0  0  0  0  0  0  0  0  0  0
    6.3680   -3.7640   25.5790 C   0  0  0  0  0  0  0  0  0  0  0  0
    5.1660   -3.4790   25.6070 O   0  0  0  0  0  0  0  0  0  0  0  0
    6.5930   -5.6140   27.8550 C   0  0  0  0  0  0  0  0  0  0  0  0
    6.9920   -4.3510   24.2960 C   0  0  2  0  0  0  0  0  0  0  0  0
    7.6940   -3.3280   23.5830 C   0  0  0  0  0  0  0  0  0  0  0  0
    5.9570   -4.9880   23.6150 C   0  0  0  0  0  0  0  0  0  0  0  0
    7.4770   -3.0550   22.2040 C   0  0  2  0  0  0  0  0  0  0  0  0
    6.4000   -5.2830   22.2210 C   0  0  0  0  0  0  0  0  0  0  0  0
    7.0240   -1.7220   21.9330 C   0  0  0  0  0  0  0  0  0  0  0  0
    6.5870   -4.0240   21.5160 N   0  0  0  0  0  0  0  0  0  0  0  0
    6.1820   -3.9830   20.1870 C   0  0  0  0  0  0  0  0  0  0  0  0
    7.8250   -0.9220   21.0570 C   0  0  2  0  0  0  0  0  0  0  0  0
    5.1600   -4.5560   19.8550 O   0  0  0  0  0  0  0  0  0  0  0  0
    7.0620   -3.2700   19.1720 C   0  0  0  0  0  0  0  0  0  0  0  0
    8.6860    0.0300   21.5690 C   0  0  0  0  0  0  0  0  0  0  0  0
    6.9830   -0.2500   20.0120 C   0  0  0  0  0  0  0  0  0  0  0  0
    8.6490    1.3330   21.1220 O   0  0  0  0  0  0  0  0  0  0  0  0
    9.5270   -0.4710   22.4810 N   0  0  0  0  0  0  0  0  0  0  0  0
    7.2040   -0.3270   18.6500 C   0  0  0  0  0  0  0  0  0  0  0  0
    5.8500    0.5540   20.1720 C   0  0  0  0  0  0  0  0  0  0  0  0
   10.2600    0.4830   23.2760 C   0  0  0  0  0  0  0  0  0  0  0  0
   10.1970   -1.7590   22.3510 C   0  0  0  0  0  0  0  0  0  0  0  0
    6.2540    0.4100   17.8500 N   0  0  0  0  0  0  0  0  0  0  0  0
    5.5010    0.8920   18.8080 C   0  0  0  0  0  0  0  0  0  0  0  0
    5.1070    1.0190   21.2540 C   0  0  0  0  0  0  0  0  0  0  0  0
   11.6270    0.4890   23.0330 C   0  0  0  0  0  0  0  0  0  0  0  0
   11.5820   -1.8070   22.1670 C   0  0  0  0  0  0  0  0  0  0  0  0
    4.4270    1.6770   18.6210 N   0  0  0  0  0  0  0  0  0  0  0  0
    4.0510    1.7900   21.0040 C   0  0  0  0  0  0  0  0  0  0  0  0
   12.1190   -0.8730   23.1510 N   0  0  0  0  0  0  0  0  0  0  0  0
    3.7240    2.1100   19.6990 C   0  0  0  0  0  0  0  0  0  0  0  0
   13.5130   -0.8650   23.0100 C   0  0  0  0  0  0  0  0  0  0  0  0
  1  2  1  0
  2  3  1  0
  1  4  1  0
  1  5  1  0
  5  6  2  0
  2  7  1  0
  8  5  1  1
  8  9  1  0
  8 10  1  0
  9 11  1  0
 10 12  1  0
 11 13  1  1
 11 14  1  0
 12 14  1  0
 14 15  1  0
 16 13  1  1
 15 17  2  0
 15 18  1  0
 16 19  1  0
 16 20  1  0
 19 21  2  0
 19 22  1  0
 20 23  2  0
 20 24  1  0
 22 25  1  0
 22 26  1  0
 23 27  1  0
 24 28  2  0
 27 28  1  0
 24 29  1  0
 25 30  1  0
 26 31  1  0
 28 32  1  0
 29 33  2  0
 30 34  1  0
 31 34  1  0
 32 35  2  0
 33 35  1  0
 34 36  1  0
M  END
