x1093-x0736
     RDKit          3D

 35 40  0  0  0  0  0  0  0  0999 V2000
    7.3650   -3.0320   18.8890 C   0  0  0  0  0  0  0  0  0  0  0  0
    6.3830   -3.3860   20.0000 C   0  0  0  0  0  0  0  0  0  0  0  0
    5.3970   -4.0920   19.7430 O   0  0  0  0  0  0  0  0  0  0  0  0
    6.6760   -2.9530   21.3300 N   0  0  0  0  0  0  0  0  0  0  0  0
    7.3280   -1.7040   21.8190 C   0  0  2  0  0  0  0  0  0  0  0  0
    6.2490   -3.8240   22.4090 C   0  0  0  0  0  0  0  0  0  0  0  0
    7.8860   -0.6530   20.8500 C   0  0  2  0  0  0  0  0  0  0  0  0
    8.3930   -1.8400   22.9320 C   0  0  1  0  0  0  0  0  0  0  0  0
    7.2750   -4.1450   23.2520 C   0  0  0  0  0  0  0  0  0  0  0  0
    8.8410    0.3880   21.4260 C   0  0  0  0  0  0  0  0  0  0  0  0
    8.0400   -3.0100   23.8020 N   0  0  0  0  0  0  0  0  0  0  0  0
    9.7680   -1.5670   22.2030 C   0  0  1  0  0  0  0  0  0  0  0  0
    6.9610   -0.0220   19.9000 C   0  0  0  0  0  0  0  0  0  0  0  0
    7.4380   -2.4280   24.9910 C   0  0  0  0  0  0  0  0  0  0  0  0
    8.6920    1.6120   21.2110 O   0  0  0  0  0  0  0  0  0  0  0  0
    9.8540   -0.1120   22.1060 N   0  0  0  0  0  0  0  0  0  0  0  0
   11.1620   -2.0970   22.5170 C   0  0  0  0  0  0  0  0  0  0  0  0
    7.1300   -0.0430   18.4680 C   0  0  0  0  0  0  0  0  0  0  0  0
    5.7270    0.7370   20.1580 C   0  0  0  0  0  0  0  0  0  0  0  0
    6.1330   -2.8180   25.3910 O   0  0  0  0  0  0  0  0  0  0  0  0
    8.1360   -1.4290   25.7560 C   0  0  0  0  0  0  0  0  0  0  0  0
   12.1440   -1.0920   23.0510 N   0  0  0  0  0  0  0  0  0  0  0  0
   10.5000    0.6260   23.1810 C   0  0  0  0  0  0  0  0  0  0  0  0
    6.0920    0.6440   17.9060 N   0  0  0  0  0  0  0  0  0  0  0  0
    5.2490    1.1150   18.8700 C   0  0  0  0  0  0  0  0  0  0  0  0
    5.1600    1.0230   21.3170 C   0  0  0  0  0  0  0  0  0  0  0  0
   13.4150   -1.2250   22.4020 C   0  0  0  0  0  0  0  0  0  0  0  0
    8.5370   -0.2290   25.2700 O   0  0  0  0  0  0  0  0  0  0  0  0
    8.5020   -1.5220   27.0730 C   0  0  0  0  0  0  0  0  0  0  0  0
   11.7930    0.3330   23.2240 C   0  0  0  0  0  0  0  0  0  0  0  0
    4.1470    1.8210   18.6510 N   0  0  0  0  0  0  0  0  0  0  0  0
    4.0010    1.7580   21.1950 C   0  0  0  0  0  0  0  0  0  0  0  0
    9.1660   -0.3760   27.4670 C   0  0  0  0  0  0  0  0  0  0  0  0
    9.1600    0.4150   26.2670 C   0  0  0  0  0  0  0  0  0  0  0  0
    3.5240    2.1400   19.8080 C   0  0  0  0  0  0  0  0  0  0  0  0
  1  2  1  0
  2  3  2  0
  2  4  1  0
  5  4  1  6
  4  6  1  0
  5  7  1  0
  5  8  1  0
  6  9  1  0
  7 10  1  0
  8 11  1  6
  9 11  1  0
  8 12  1  0
  7 13  1  1
 11 14  1  0
 10 15  2  0
 10 16  1  0
 12 16  1  0
 12 17  1  1
 13 18  2  0
 13 19  1  0
 14 20  2  0
 14 21  1  0
 17 22  1  0
 16 23  1  0
 18 24  1  0
 19 25  2  0
 24 25  1  0
 19 26  1  0
 22 27  1  0
 21 28  1  0
 21 29  2  0
 22 30  1  0
 23 30  1  0
 25 31  1  0
 26 32  2  0
 29 33  1  0
 28 34  1  0
 33 34  2  0
 31 35  2  0
 32 35  1  0
M  END
