x1093-x1412
     RDKit          3D

 35 40  0  0  0  0  0  0  0  0999 V2000
    7.5540   -3.0060   18.9000 C   0  0  0  0  0  0  0  0  0  0  0  0
    6.5680   -3.3790   19.9940 C   0  0  0  0  0  0  0  0  0  0  0  0
    5.5300   -4.0180   19.7330 O   0  0  0  0  0  0  0  0  0  0  0  0
    6.9440   -3.0350   21.3200 N   0  0  0  0  0  0  0  0  0  0  0  0
    7.5160   -1.7860   21.9400 C   0  0  2  0  0  0  0  0  0  0  0  0
    6.8110   -4.1030   22.3000 C   0  0  0  0  0  0  0  0  0  0  0  0
    7.6190   -0.3600   21.3610 C   0  0  1  0  0  0  0  0  0  0  0  0
    8.6730   -1.8920   22.9490 C   0  0  1  0  0  0  0  0  0  0  0  0
    7.9820   -4.3230   22.9720 C   0  0  0  0  0  0  0  0  0  0  0  0
    8.9480    0.3990   21.5270 C   0  0  0  0  0  0  0  0  0  0  0  0
    8.5430   -3.1500   23.6570 N   0  0  0  0  0  0  0  0  0  0  0  0
    9.9990   -1.6340   22.2150 C   0  0  1  0  0  0  0  0  0  0  0  0
    6.9440   -0.0010   20.0770 C   0  0  0  0  0  0  0  0  0  0  0  0
    8.2940   -2.8690   25.0500 C   0  0  0  0  0  0  0  0  0  0  0  0
    8.9600    1.5930   21.1550 O   0  0  0  0  0  0  0  0  0  0  0  0
   10.0580   -0.1740   22.0510 N   0  0  0  0  0  0  0  0  0  0  0  0
   11.3060   -2.2210   22.8090 C   0  0  0  0  0  0  0  0  0  0  0  0
    7.2190   -0.2370   18.6360 C   0  0  0  0  0  0  0  0  0  0  0  0
    5.7030    0.7840   20.1080 C   0  0  0  0  0  0  0  0  0  0  0  0
    7.8440   -1.5910   25.4780 O   0  0  0  0  0  0  0  0  0  0  0  0
    8.5300   -4.0000   25.9820 C   0  0  0  0  0  0  0  0  0  0  0  0
   12.0110   -1.3200   23.7420 N   0  0  0  0  0  0  0  0  0  0  0  0
   10.7710    0.5800   23.0920 C   0  0  0  0  0  0  0  0  0  0  0  0
    6.2130    0.3810   17.9280 N   0  0  0  0  0  0  0  0  0  0  0  0
    5.3220    0.9810   18.7660 C   0  0  0  0  0  0  0  0  0  0  0  0
    5.0640    1.2250   21.1820 C   0  0  0  0  0  0  0  0  0  0  0  0
   13.3620   -1.8040   23.8800 C   0  0  0  0  0  0  0  0  0  0  0  0
    9.3870   -5.0650   25.6520 C   0  0  0  0  0  0  0  0  0  0  0  0
    7.7330   -4.0820   27.5650 S   0  0  0  0  0  0  0  0  0  0  0  0
   12.0010    0.0900   23.2990 C   0  0  0  0  0  0  0  0  0  0  0  0
    4.2480    1.6570   18.3900 N   0  0  0  0  0  0  0  0  0  0  0  0
    3.9230    1.9370   20.8980 C   0  0  0  0  0  0  0  0  0  0  0  0
    8.6120   -5.6000   27.7190 C   0  0  0  0  0  0  0  0  0  0  0  0
    9.4590   -6.0490   26.6690 C   0  0  0  0  0  0  0  0  0  0  0  0
    3.5490    2.1310   19.4460 C   0  0  0  0  0  0  0  0  0  0  0  0
  1  2  1  0
  2  3  2  0
  2  4  1  0
  5  4  1  6
  4  6  1  0
  5  7  1  0
  5  8  1  0
  6  9  1  0
  7 10  1  0
  8 11  1  6
  9 11  1  0
  8 12  1  0
  7 13  1  6
 11 14  1  0
 10 15  2  0
 10 16  1  0
 12 16  1  0
 12 17  1  1
 13 18  2  0
 13 19  1  0
 14 20  2  0
 14 21  1  0
 17 22  1  0
 16 23  1  0
 18 24  1  0
 19 25  2  0
 24 25  1  0
 19 26  1  0
 22 27  1  0
 21 28  2  0
 21 29  1  0
 22 30  1  0
 23 30  1  0
 25 31  1  0
 26 32  2  0
 29 33  1  0
 28 34  1  0
 33 34  2  0
 31 35  2  0
 32 35  1  0
M  END
