x1093-x0734
     RDKit          3D

 38 42  0  0  0  0  0  0  0  0999 V2000
    4.9750   -4.5440   26.3460 N   0  0  0  0  0  0  0  0  0  0  0  0
    6.3680   -4.9750   26.1990 C   0  0  0  0  0  0  0  0  0  0  0  0
    6.9530   -5.6780   27.2690 C   0  0  0  0  0  0  0  0  0  0  0  0
    4.1230   -5.2580   25.7940 O   0  0  0  0  0  0  0  0  0  0  0  0
    4.7650   -3.4510   26.8780 O   0  0  0  0  0  0  0  0  0  0  0  0
    7.0820   -4.6340   24.8960 C   0  0  0  0  0  0  0  0  0  0  0  0
    8.5150   -5.1890   24.8740 C   0  0  0  0  0  0  0  0  0  0  0  0
    8.2800   -6.1180   27.1420 C   0  0  0  0  0  0  0  0  0  0  0  0
    6.6030   -3.9110   23.7790 N   0  0  0  0  0  0  0  0  0  0  0  0
    9.0240   -5.8870   25.9760 C   0  0  0  0  0  0  0  0  0  0  0  0
    5.5550   -4.6510   23.0180 C   0  0  0  0  0  0  0  0  0  0  0  0
    7.5530   -3.0570   23.0010 C   0  0  2  0  0  0  0  0  0  0  0  0
    7.1110   -1.6370   22.4810 C   0  0  0  0  0  0  0  0  0  0  0  0
    6.2110   -5.4650   22.0780 C   0  0  0  0  0  0  0  0  0  0  0  0
    8.0640   -3.9060   21.9120 C   0  0  0  0  0  0  0  0  0  0  0  0
    7.9920   -0.9570   21.3530 C   0  0  2  0  0  0  0  0  0  0  0  0
    6.9650   -4.5870   21.2070 N   0  0  0  0  0  0  0  0  0  0  0  0
    6.4120   -4.0340   20.0410 C   0  0  0  0  0  0  0  0  0  0  0  0
    8.9130    0.0640   21.7950 C   0  0  0  0  0  0  0  0  0  0  0  0
    7.1260   -0.3560   20.2340 C   0  0  0  0  0  0  0  0  0  0  0  0
    5.2350   -4.2330   19.7540 O   0  0  0  0  0  0  0  0  0  0  0  0
    7.3510   -3.2490   19.1170 C   0  0  0  0  0  0  0  0  0  0  0  0
    8.7370    1.2440   21.4640 O   0  0  0  0  0  0  0  0  0  0  0  0
   10.0210   -0.2990   22.5710 N   0  0  0  0  0  0  0  0  0  0  0  0
    7.3360   -0.5190   18.8720 C   0  0  0  0  0  0  0  0  0  0  0  0
    5.9950    0.4450   20.3480 C   0  0  0  0  0  0  0  0  0  0  0  0
   10.7510    0.7110   23.3310 C   0  0  0  0  0  0  0  0  0  0  0  0
   10.3880   -1.6570   22.9470 C   0  0  0  0  0  0  0  0  0  0  0  0
    6.4140    0.1360   18.1740 N   0  0  0  0  0  0  0  0  0  0  0  0
    5.5690    0.7420   19.0040 C   0  0  0  0  0  0  0  0  0  0  0  0
    5.2260    0.9940   21.3740 C   0  0  0  0  0  0  0  0  0  0  0  0
   12.1270    0.4460   23.2970 C   0  0  0  0  0  0  0  0  0  0  0  0
   11.7170   -1.8480   22.4560 C   0  0  0  0  0  0  0  0  0  0  0  0
    4.5260    1.4810   18.6260 N   0  0  0  0  0  0  0  0  0  0  0  0
    4.1570    1.7470   21.0280 C   0  0  0  0  0  0  0  0  0  0  0  0
   12.5270   -0.9910   23.1690 N   0  0  0  0  0  0  0  0  0  0  0  0
    3.8450    1.9650   19.6810 C   0  0  0  0  0  0  0  0  0  0  0  0
   13.0330   -1.5720   24.4070 C   0  0  0  0  0  0  0  0  0  0  0  0
  1  2  1  0
  2  3  2  0
  1  4  2  0
  1  5  1  0
  2  6  1  0
  6  7  2  0
  3  8  1  0
  6  9  1  0
  7 10  1  0
  8 10  2  0
  9 11  1  0
  9 12  1  0
 12 13  1  6
 11 14  1  0
 12 15  1  0
 16 13  1  1
 14 17  1  0
 15 17  1  0
 17 18  1  0
 16 19  1  0
 16 20  1  0
 18 21  2  0
 18 22  1  0
 19 23  2  0
 19 24  1  0
 20 25  2  0
 20 26  1  0
 24 27  1  0
 24 28  1  0
 25 29  1  0
 26 30  2  0
 29 30  1  0
 26 31  1  0
 27 32  1  0
 28 33  1  0
 30 34  1  0
 31 35  2  0
 32 36  1  0
 33 36  1  0
 34 37  2  0
 35 37  1  0
 36 38  1  0
M  CHG  2   1   1   5  -1
M  END
