x1093-x0978
     RDKit          3D

 36 38  0  0  0  0  0  0  0  0999 V2000
    2.0060   -5.6210   23.1920 N   0  0  0  0  0  0  0  0  0  0  0  0
    3.2980   -6.3360   23.2050 C   0  0  2  0  0  0  0  0  0  0  0  0
    3.4250   -7.1860   24.4790 C   0  0  1  0  0  0  0  0  0  0  0  0
    0.7960   -6.2170   22.5440 C   0  0  0  0  0  0  0  0  0  0  0  0
    0.7990   -7.2970   21.9480 O   0  0  0  0  0  0  0  0  0  0  0  0
   -0.4960   -5.3490   22.6790 C   0  0  0  0  0  0  0  0  0  0  0  0
    4.4590   -5.3410   22.8760 C   0  0  0  0  0  0  0  0  0  0  0  0
    2.1750   -8.0700   24.5590 C   0  0  0  0  0  0  0  0  0  0  0  0
    4.4520   -7.7770   24.7430 O   0  0  0  0  0  0  0  0  0  0  0  0
    5.3640   -5.6820   21.7510 N   0  0  0  0  0  0  0  0  0  0  0  0
    4.5870   -4.3010   23.5270 O   0  0  0  0  0  0  0  0  0  0  0  0
    6.5520   -4.9750   21.5010 C   0  0  1  0  0  0  0  0  0  0  0  0
    6.5780   -4.4020   20.0370 C   0  0  0  0  0  0  0  0  0  0  0  0
    7.0740   -4.0910   22.6890 C   0  0  0  0  0  0  0  0  0  0  0  0
    5.4230   -3.5940   19.4840 C   0  0  0  0  0  0  0  0  0  0  0  0
    6.7890   -2.6770   22.5750 C   0  0  0  0  0  0  0  0  0  0  0  0
    7.6190   -2.1050   21.6060 C   0  0  0  0  0  0  0  0  0  0  0  0
    7.6420   -0.5770   21.5840 C   0  0  1  0  0  0  0  0  0  0  0  0
    8.8710    0.1200   21.7350 C   0  0  0  0  0  0  0  0  0  0  0  0
    6.9630   -0.1580   20.3080 C   0  0  0  0  0  0  0  0  0  0  0  0
    8.9360    1.3760   21.1490 O   0  0  0  0  0  0  0  0  0  0  0  0
    9.9330   -0.3360   22.4380 N   0  0  0  0  0  0  0  0  0  0  0  0
    7.2940   -0.4850   18.9790 C   0  0  0  0  0  0  0  0  0  0  0  0
    5.8080    0.6760   20.2750 C   0  0  0  0  0  0  0  0  0  0  0  0
   10.6980    0.6610   23.2030 C   0  0  0  0  0  0  0  0  0  0  0  0
   10.2280   -1.7320   22.7940 C   0  0  0  0  0  0  0  0  0  0  0  0
    6.4090    0.1160   18.1390 N   0  0  0  0  0  0  0  0  0  0  0  0
    5.5720    0.7710   18.9270 C   0  0  0  0  0  0  0  0  0  0  0  0
    5.0110    1.3040   21.2300 C   0  0  0  0  0  0  0  0  0  0  0  0
   12.1880    0.2810   23.3220 C   0  0  0  0  0  0  0  0  0  0  0  0
   11.2210   -1.7800   23.9670 C   0  0  0  0  0  0  0  0  0  0  0  0
    4.5200    1.5110   18.5190 N   0  0  0  0  0  0  0  0  0  0  0  0
    3.9470    2.0440   20.7820 C   0  0  0  0  0  0  0  0  0  0  0  0
   12.4480   -1.0060   23.7770 N   0  0  0  0  0  0  0  0  0  0  0  0
    3.7330    2.1250   19.4280 C   0  0  0  0  0  0  0  0  0  0  0  0
   13.3290   -1.7200   22.8650 C   0  0  0  0  0  0  0  0  0  0  0  0
  2  1  1  1
  2  3  1  0
  1  4  1  0
  4  5  2  0
  4  6  1  0
  2  7  1  0
  3  8  1  6
  3  9  1  0
  7 10  1  0
  7 11  2  0
 10 12  1  0
 12 13  1  6
 12 14  1  0
 13 15  2  3
 14 16  1  0
 16 17  1  0
 18 17  1  6
 18 19  1  0
 18 20  1  0
 19 21  2  0
 19 22  1  0
 20 23  2  0
 20 24  1  0
 22 25  1  0
 22 26  1  0
 23 27  1  0
 24 28  2  0
 27 28  1  0
 24 29  1  0
 25 30  1  0
 26 31  1  0
 28 32  1  0
 29 33  2  0
 30 34  1  0
 31 34  1  0
 32 35  2  0
 33 35  1  0
 34 36  1  0
M  END
