x1093-x0759
     RDKit          3D

 29 33  0  0  0  0  0  0  0  0999 V2000
   13.3720   -2.0360   23.7200 C   0  0  0  0  0  0  0  0  0  0  0  0
   12.1680   -1.1620   23.6350 C   0  0  1  0  0  0  0  0  0  0  0  0
   10.9560   -2.0350   23.1770 C   0  0  0  0  0  0  0  0  0  0  0  0
   11.9670   -0.7730   24.9290 F   0  0  0  0  0  0  0  0  0  0  0  0
   12.2690    0.0910   22.9960 C   0  0  0  0  0  0  0  0  0  0  0  0
   10.9150    0.8080   23.0670 C   0  0  0  0  0  0  0  0  0  0  0  0
    9.7480   -1.3700   23.2280 C   0  0  1  0  0  0  0  0  0  0  0  0
    9.9530   -0.1240   22.4780 N   0  0  0  0  0  0  0  0  0  0  0  0
    8.5580   -2.2160   22.9200 C   0  0  1  0  0  0  0  0  0  0  0  0
    8.9470    0.3920   21.6890 C   0  0  0  0  0  0  0  0  0  0  0  0
    8.0650   -2.0730   21.6150 C   0  0  2  0  0  0  0  0  0  0  0  0
    8.6990   -3.6010   23.2730 O   0  0  0  0  0  0  0  0  0  0  0  0
    8.9300    1.5350   21.2010 O   0  0  0  0  0  0  0  0  0  0  0  0
    7.7390   -0.5600   21.4440 C   0  0  2  0  0  0  0  0  0  0  0  0
    6.9890   -2.9990   21.3680 N   0  0  0  0  0  0  0  0  0  0  0  0
    7.4250   -4.2850   23.3040 C   0  0  0  0  0  0  0  0  0  0  0  0
    6.6120   -3.4560   20.0640 C   0  0  0  0  0  0  0  0  0  0  0  0
    7.0320   -0.1520   20.1840 C   0  0  0  0  0  0  0  0  0  0  0  0
    6.3850   -3.6230   22.4030 C   0  0  0  0  0  0  0  0  0  0  0  0
    5.6230   -4.1990   19.8450 O   0  0  0  0  0  0  0  0  0  0  0  0
    7.4790   -3.0560   18.8920 C   0  0  0  0  0  0  0  0  0  0  0  0
    7.2800   -0.3450   18.8660 C   0  0  0  0  0  0  0  0  0  0  0  0
    5.8740    0.5940   20.2340 C   0  0  0  0  0  0  0  0  0  0  0  0
    6.3130    0.2640   18.0120 N   0  0  0  0  0  0  0  0  0  0  0  0
    5.4280    0.8560   18.8790 C   0  0  0  0  0  0  0  0  0  0  0  0
    5.1740    1.0670   21.3350 C   0  0  0  0  0  0  0  0  0  0  0  0
    4.2480    1.6170   18.5250 N   0  0  0  0  0  0  0  0  0  0  0  0
    3.9170    1.8700   20.9610 C   0  0  0  0  0  0  0  0  0  0  0  0
    3.5090    2.1120   19.7020 C   0  0  0  0  0  0  0  0  0  0  0  0
  2  1  1  1
  2  3  1  0
  2  4  1  0
  2  5  1  0
  5  6  1  0
  7  3  1  6
  6  8  1  0
  7  8  1  0
  7  9  1  0
  8 10  1  0
  9 11  1  0
  9 12  1  6
 10 13  2  0
 10 14  1  0
 11 14  1  0
 11 15  1  1
 12 16  1  0
 15 17  1  0
 14 18  1  6
 15 19  1  0
 16 19  1  0
 17 20  2  0
 17 21  1  0
 18 22  2  0
 18 23  1  0
 22 24  1  0
 23 25  2  0
 24 25  1  0
 23 26  1  0
 25 27  1  0
 26 28  2  0
 27 29  2  0
 28 29  1  0
M  END
