x1093-x0689
     RDKit          3D

 38 42  0  0  0  0  0  0  0  0999 V2000
    6.9770   -3.4230   19.4720 C   0  0  0  0  0  0  0  0  0  0  0  0
    6.1890   -4.3100   20.4310 C   0  0  0  0  0  0  0  0  0  0  0  0
    5.5990   -5.2910   20.0180 O   0  0  0  0  0  0  0  0  0  0  0  0
    6.1010   -3.9260   21.9130 C   0  0  0  0  0  0  0  0  0  0  0  0
    5.9160   -2.3610   21.9880 C   0  0  0  0  0  0  0  0  0  0  0  0
    4.8580   -4.7290   22.3670 C   0  0  0  0  0  0  0  0  0  0  0  0
    7.1960   -4.4120   22.7810 C   0  0  0  0  0  0  0  0  0  0  0  0
    7.0800   -1.5760   22.4000 C   0  0  0  0  0  0  0  0  0  0  0  0
    5.0370   -5.7620   23.2790 C   0  0  0  0  0  0  0  0  0  0  0  0
    6.7640   -4.1790   24.0950 C   0  0  0  0  0  0  0  0  0  0  0  0
    7.8950   -0.9400   21.2020 C   0  0  2  0  0  0  0  0  0  0  0  0
    5.7150   -5.1740   24.4200 N   0  0  0  0  0  0  0  0  0  0  0  0
    4.8260   -5.0740   25.8590 S   0  0  0  0  0  0  0  0  0  0  0  0
    8.8410    0.0730   21.6200 C   0  0  0  0  0  0  0  0  0  0  0  0
    7.0440   -0.3360   20.0970 C   0  0  0  0  0  0  0  0  0  0  0  0
    4.1350   -6.3320   26.0580 O   0  0  0  0  0  0  0  0  0  0  0  0
    5.6980   -4.5310   26.8680 O   0  0  0  0  0  0  0  0  0  0  0  0
    8.7480    1.2660   21.2300 O   0  0  0  0  0  0  0  0  0  0  0  0
    3.5340   -3.8480   25.7250 C   0  0  0  0  0  0  0  0  0  0  0  0
    9.8780   -0.3410   22.4450 N   0  0  0  0  0  0  0  0  0  0  0  0
    7.2370   -0.4870   18.7330 C   0  0  0  0  0  0  0  0  0  0  0  0
    5.9280    0.4680   20.2620 C   0  0  0  0  0  0  0  0  0  0  0  0
    3.9670   -2.2070   26.0690 S   0  0  0  0  0  0  0  0  0  0  0  0
    2.1350   -4.0040   25.3730 C   0  0  0  0  0  0  0  0  0  0  0  0
   10.6480    0.6470   23.2210 C   0  0  0  0  0  0  0  0  0  0  0  0
   10.3850   -1.7140   22.5190 C   0  0  0  0  0  0  0  0  0  0  0  0
    6.2890    0.1990   18.0620 N   0  0  0  0  0  0  0  0  0  0  0  0
    5.4710    0.7940   18.9430 C   0  0  0  0  0  0  0  0  0  0  0  0
    5.1960    0.9970   21.3250 C   0  0  0  0  0  0  0  0  0  0  0  0
    1.4580   -2.8050   25.3980 C   0  0  0  0  0  0  0  0  0  0  0  0
    2.3750   -1.6840   25.7810 C   0  0  0  0  0  0  0  0  0  0  0  0
   12.0060    0.2990   23.2720 C   0  0  0  0  0  0  0  0  0  0  0  0
   11.0270   -1.9480   23.7650 C   0  0  0  0  0  0  0  0  0  0  0  0
    4.4270    1.5480   18.6080 N   0  0  0  0  0  0  0  0  0  0  0  0
    4.1240    1.7650   21.0300 C   0  0  0  0  0  0  0  0  0  0  0  0
   12.1770   -1.0420   23.9000 N   0  0  0  0  0  0  0  0  0  0  0  0
    3.7750    2.0160   19.6990 C   0  0  0  0  0  0  0  0  0  0  0  0
   13.3600   -1.7190   23.4170 C   0  0  0  0  0  0  0  0  0  0  0  0
  1  2  1  0
  2  3  2  0
  4  2  1  0
  4  5  1  0
  4  6  1  0
  4  7  1  0
  5  8  1  0
  6  9  1  0
  7 10  1  0
 11  8  1  1
  9 12  1  0
 10 12  1  0
 12 13  1  0
 11 14  1  0
 11 15  1  0
 13 16  2  0
 13 17  2  0
 14 18  2  0
 13 19  1  0
 14 20  1  0
 15 21  2  0
 15 22  1  0
 19 23  1  0
 19 24  2  0
 20 25  1  0
 20 26  1  0
 21 27  1  0
 22 28  2  0
 27 28  1  0
 22 29  1  0
 24 30  1  0
 23 31  1  0
 30 31  2  0
 25 32  1  0
 26 33  1  0
 28 34  1  0
 29 35  2  0
 32 36  1  0
 33 36  1  0
 34 37  2  0
 35 37  1  0
 36 38  1  0
M  END
