x1093-x0731
     RDKit          3D

 40 44  0  0  0  0  0  0  0  0999 V2000
    1.1640   -1.0780   26.0760 C   0  0  0  0  0  0  0  0  0  0  0  0
    2.2180   -2.1400   26.0150 C   0  0  0  0  0  0  0  0  0  0  0  0
    3.4630   -1.8750   26.5860 C   0  0  0  0  0  0  0  0  0  0  0  0
    1.9640   -3.3760   25.4090 C   0  0  0  0  0  0  0  0  0  0  0  0
    2.9560   -4.3740   25.3820 C   0  0  0  0  0  0  0  0  0  0  0  0
    4.4530   -2.8640   26.5640 C   0  0  0  0  0  0  0  0  0  0  0  0
    4.1990   -4.1060   25.9740 C   0  0  0  0  0  0  0  0  0  0  0  0
    5.4820   -5.3440   26.0180 S   0  0  0  0  0  0  0  0  0  0  0  0
    6.5170   -4.8730   26.8960 O   0  0  0  0  0  0  0  0  0  0  0  0
    4.8170   -6.6020   26.2710 O   0  0  0  0  0  0  0  0  0  0  0  0
    6.1770   -5.5010   24.4830 N   0  0  0  0  0  0  0  0  0  0  0  0
    7.2510   -4.7530   24.0670 C   0  0  0  0  0  0  0  0  0  0  0  0
    5.3810   -6.1030   23.4030 C   0  0  0  0  0  0  0  0  0  0  0  0
    7.3460   -4.7450   22.5300 C   0  0  0  0  0  0  0  0  0  0  0  0
    5.0420   -4.9710   22.4430 C   0  0  0  0  0  0  0  0  0  0  0  0
    6.2900   -4.2140   21.9220 C   0  0  0  0  0  0  0  0  0  0  0  0
    6.1380   -4.3820   20.3940 C   0  0  0  0  0  0  0  0  0  0  0  0
    6.2970   -2.6610   22.0790 C   0  0  0  0  0  0  0  0  0  0  0  0
    5.4400   -5.2970   20.0020 O   0  0  0  0  0  0  0  0  0  0  0  0
    6.8280   -3.4150   19.4290 C   0  0  0  0  0  0  0  0  0  0  0  0
    7.6560   -1.9290   21.9870 C   0  0  0  0  0  0  0  0  0  0  0  0
    7.6570   -0.4700   21.5080 C   0  0  1  0  0  0  0  0  0  0  0  0
    8.9480    0.3580   21.6630 C   0  0  0  0  0  0  0  0  0  0  0  0
    6.9680   -0.1410   20.2050 C   0  0  0  0  0  0  0  0  0  0  0  0
    9.0090    1.5160   21.2040 O   0  0  0  0  0  0  0  0  0  0  0  0
   10.0210   -0.2110   22.3450 N   0  0  0  0  0  0  0  0  0  0  0  0
    7.2280   -0.4450   18.8680 C   0  0  0  0  0  0  0  0  0  0  0  0
    5.8720    0.5870   20.1580 C   0  0  0  0  0  0  0  0  0  0  0  0
   10.7950    0.6380   23.2690 C   0  0  0  0  0  0  0  0  0  0  0  0
   10.5780   -1.5510   22.1520 C   0  0  0  0  0  0  0  0  0  0  0  0
    6.2460    0.1490   18.0920 N   0  0  0  0  0  0  0  0  0  0  0  0
    5.3880    0.8030   18.8970 C   0  0  0  0  0  0  0  0  0  0  0  0
    5.1210    1.1770   21.1870 C   0  0  0  0  0  0  0  0  0  0  0  0
   12.1100    0.1990   23.4100 C   0  0  0  0  0  0  0  0  0  0  0  0
   11.0630   -2.0330   23.3410 C   0  0  0  0  0  0  0  0  0  0  0  0
    4.3250    1.4880   18.4990 N   0  0  0  0  0  0  0  0  0  0  0  0
    3.9870    1.9040   20.8520 C   0  0  0  0  0  0  0  0  0  0  0  0
   12.1230   -1.2030   23.9140 N   0  0  0  0  0  0  0  0  0  0  0  0
    3.6440    2.0250   19.5190 C   0  0  0  0  0  0  0  0  0  0  0  0
   13.4030   -1.8320   23.6710 C   0  0  0  0  0  0  0  0  0  0  0  0
  1  2  1  0
  2  3  2  0
  2  4  1  0
  4  5  2  0
  3  6  1  0
  5  7  1  0
  6  7  2  0
  8  7  1  0
  8  9  2  0
  8 10  2  0
  8 11  1  0
 11 12  1  0
 11 13  1  0
 12 14  1  0
 13 15  1  0
 14 16  1  0
 15 16  1  0
 16 17  1  0
 16 18  1  0
 17 19  2  0
 17 20  1  0
 18 21  1  0
 22 21  1  6
 22 23  1  0
 22 24  1  0
 23 25  2  0
 23 26  1  0
 24 27  2  0
 24 28  1  0
 26 29  1  0
 26 30  1  0
 27 31  1  0
 28 32  2  0
 31 32  1  0
 28 33  1  0
 29 34  1  0
 30 35  1  0
 32 36  1  0
 33 37  2  0
 34 38  1  0
 35 38  1  0
 36 39  2  0
 37 39  1  0
 38 40  1  0
M  END
