x1119-x2694-x1425
     RDKit          3D

 71 78  0  0  0  0  0  0  0  0999 V2000
    7.0870   -1.3840   21.8050 C   0  0  1  0  0  0  0  0  0  0  0  0
    6.0670   -2.6770   21.2880 C   0  0  0  0  0  0  0  0  0  0  0  0
    4.9060   -3.0020   20.7160 O   0  0  0  0  0  0  0  0  0  0  0  0
    6.6730    0.0860   21.5670 C   0  0  1  0  0  0  0  0  0  0  0  0
    6.5270   -1.9010   23.1550 C   0  0  0  0  0  0  0  0  0  0  0  0
    8.5370   -1.4150   22.4190 C   0  0  0  0  0  0  0  0  0  0  0  0
    7.6360    1.1390   21.8010 C   0  0  0  0  0  0  0  0  0  0  0  0
    6.1790    0.4640   20.2060 C   0  0  0  0  0  0  0  0  0  0  0  0
    8.7330   -1.2860   23.9340 N   0  0  0  0  0  0  0  0  0  0  0  0
    9.8770   -1.5030   22.0330 C   0  0  0  0  0  0  0  0  0  0  0  0
    6.8420   -3.8740   21.8020 C   0  0  2  0  0  0  0  0  0  0  0  0
    7.2410   -3.2800   23.1770 C   0  0  2  0  0  0  0  0  0  0  0  0
    8.0420   -4.3830   21.0060 C   0  0  0  0  0  0  0  0  0  0  0  0
    7.4400    2.1260   22.8430 N   0  0  0  0  0  0  0  0  0  0  0  0
    8.5940    1.1630   21.0260 O   0  0  0  0  0  0  0  0  0  0  0  0
    5.0710    1.3050   20.1260 C   0  0  0  0  0  0  0  0  0  0  0  0
    6.8600   -0.0210   19.0910 C   0  0  0  0  0  0  0  0  0  0  0  0
   10.0820   -1.3130   24.2360 O   0  0  0  0  0  0  0  0  0  0  0  0
   10.7990   -1.4370   23.0950 C   0  0  0  0  0  0  0  0  0  0  0  0
    6.8890   -4.0540   24.1610 C   0  0  0  0  0  0  0  0  0  0  0  0
    5.8930   -5.1030   21.9580 C   0  0  0  0  0  0  0  0  0  0  0  0
   12.3080   -1.4650   23.1600 C   0  0  0  0  0  0  0  0  0  0  0  0
    6.3800    0.4000   17.7420 N   0  0  0  0  0  0  0  0  0  0  0  0
    4.5960    1.7140   18.8860 C   0  0  0  0  0  0  0  0  0  0  0  0
    8.2970    3.2720   23.0900 C   0  0  0  0  0  0  0  0  0  0  0  0
    5.4760   -4.2180   24.1150 N   0  0  0  0  0  0  0  0  0  0  0  0
    4.9160   -4.8960   22.9420 C   0  0  0  0  0  0  0  0  0  0  0  0
   12.8200   -0.2130   23.4730 C   0  0  0  0  0  0  0  0  0  0  0  0
   12.9300   -1.9130   21.8270 C   0  0  0  0  0  0  0  0  0  0  0  0
   12.8090   -2.4370   24.2650 C   0  0  0  0  0  0  0  0  0  0  0  0
    5.2340    1.2790   17.7580 C   0  0  0  0  0  0  0  0  0  0  0  0
    9.5240    3.1130   23.7250 C   0  0  0  0  0  0  0  0  0  0  0  0
    7.9310    4.5760   22.7080 C   0  0  0  0  0  0  0  0  0  0  0  0
    4.7020   -3.6710   25.1130 C   0  0  0  0  0  0  0  0  0  0  0  0
   10.0420    1.7700   24.1880 C   0  0  0  0  0  0  0  0  0  0  0  0
   10.4260    4.3540   23.9840 C   0  0  0  0  0  0  0  0  0  0  0  0
    8.7250    5.7010   22.9340 C   0  0  0  0  0  0  0  0  0  0  0  0
    5.2900   -2.6380   26.0470 C   0  0  0  0  0  0  0  0  0  0  0  0
    3.3890   -4.0510   25.2940 C   0  0  0  0  0  0  0  0  0  0  0  0
    9.9630    5.6030   23.5700 C   0  0  0  0  0  0  0  0  0  0  0  0
    4.5160   -2.1070   27.0540 C   0  0  0  0  0  0  0  0  0  0  0  0
    2.6300   -3.4950   26.3230 C   0  0  0  0  0  0  0  0  0  0  0  0
   10.8180    6.6320   23.8470 O   0  0  0  0  0  0  0  0  0  0  0  0
    3.1740   -2.5510   27.1850 C   0  0  0  0  0  0  0  0  0  0  0  0
   12.2070    6.3230   23.8530 C   0  0  0  0  0  0  0  0  0  0  0  0
    2.5340   -1.9040   28.2770 O   0  0  0  0  0  0  0  0  0  0  0  0
   12.5160    5.5640   22.6990 C   0  0  0  0  0  0  0  0  0  0  0  0
    1.1800   -2.2670   28.4960 C   0  0  0  0  0  0  0  0  0  0  0  0
   13.8310    5.6610   22.2920 C   0  0  0  0  0  0  0  0  0  0  0  0
   14.6140    4.6530   22.8500 C   0  0  0  0  0  0  0  0  0  0  0  0
   15.9860    4.5480   22.4660 C   0  0  0  0  0  0  0  0  0  0  0  0
   16.9960    4.8400   23.4640 C   0  0  0  0  0  0  0  0  0  0  0  0
   18.3990    5.0790   23.2330 C   0  0  0  0  0  0  0  0  0  0  0  0
   19.0960    6.4850   23.5400 C   0  0  0  0  0  0  0  0  0  0  0  0
   20.4400    6.9220   23.0990 N   0  0  0  0  0  0  0  0  0  0  0  0
   21.3970    6.0060   23.4960 C   0  0  0  0  0  0  0  0  0  0  0  0
   22.5320    5.6160   22.7750 C   0  0  0  0  0  0  0  0  0  0  0  0
   21.0720    5.4740   24.7600 C   0  0  0  0  0  0  0  0  0  0  0  0
   23.4070    4.5410   23.4140 C   0  0  0  0  0  0  0  0  0  0  0  0
   21.8730    4.5210   25.2870 C   0  0  0  0  0  0  0  0  0  0  0  0
   22.9740    4.0710   24.6370 C   0  0  0  0  0  0  0  0  0  0  0  0
   23.9450    2.7480   25.3850 S   0  0  0  0  0  0  0  0  0  0  0  0
   23.0420    1.6350   25.4340 O   0  0  0  0  0  0  0  0  0  0  0  0
   24.1090    3.2530   26.9670 N   0  0  0  0  0  0  0  0  0  0  0  0
   25.2180    2.6460   24.7280 O   0  0  0  0  0  0  0  0  0  0  0  0
   24.9710    4.3770   27.3390 C   0  0  0  0  0  0  0  0  0  0  0  0
   25.0530    4.6830   28.6680 N   0  0  0  0  0  0  0  0  0  0  0  0
   25.6530    5.0550   26.2880 C   0  0  0  0  0  0  0  0  0  0  0  0
   25.9130    5.7970   29.0480 C   0  0  0  0  0  0  0  0  0  0  0  0
   26.5760    6.2370   26.6200 C   0  0  0  0  0  0  0  0  0  0  0  0
   26.6960    6.6080   28.0710 C   0  0  0  0  0  0  0  0  0  0  0  0
  1  2  1  0
  2  3  2  0
  1  4  1  0
  1  5  1  0
  1  6  1  1
  4  7  1  6
  4  8  1  0
  6  9  2  0
  6 10  1  0
  2 11  1  0
 12  5  1  1
 11 12  1  0
 11 13  1  6
  7 14  1  0
  7 15  2  0
  8 16  2  0
  8 17  1  0
  9 18  1  0
 10 19  2  0
 18 19  1  0
 12 20  1  0
 11 21  1  0
 19 22  1  0
 17 23  2  0
 16 24  1  0
 14 25  1  0
 20 26  1  0
 21 27  1  0
 26 27  1  0
 22 28  1  0
 22 29  1  0
 22 30  1  0
 23 31  1  0
 24 31  2  0
 25 32  2  0
 25 33  1  0
 26 34  1  0
 32 35  1  0
 32 36  1  0
 33 37  2  0
 34 38  2  0
 34 39  1  0
 36 40  2  0
 37 40  1  0
 38 41  1  0
 39 42  2  0
 40 43  1  0
 41 44  2  0
 42 44  1  0
 43 45  1  0
 44 46  1  0
 45 47  1  0
 46 48  1  0
 47 49  1  0
 49 50  1  0
 50 51  1  0
 51 52  1  0
 52 53  1  0
 53 54  1  0
 54 55  1  0
 55 56  1  0
 56 57  2  0
 56 58  1  0
 57 59  1  0
 58 60  2  0
 59 61  2  0
 60 61  1  0
 61 62  1  0
 62 63  2  0
 62 64  1  0
 62 65  2  0
 64 66  1  0
 66 67  2  0
 66 68  1  0
 67 69  1  0
 68 70  2  0
 69 71  2  0
 70 71  1  0
M  END
