x1119-x2694-x1374
     RDKit          3D

 73 79  0  0  0  0  0  0  0  0999 V2000
    6.6920   -1.0410   21.4510 N   0  0  0  0  0  0  0  0  0  0  0  0
    5.5940   -2.1020   21.4960 C   0  0  0  0  0  0  0  0  0  0  0  0
    4.6790   -3.0170   21.5220 O   0  0  0  0  0  0  0  0  0  0  0  0
    6.2880    0.3300   21.2720 C   0  0  1  0  0  0  0  0  0  0  0  0
    8.0090   -1.1340   22.0650 C   0  0  0  0  0  0  0  0  0  0  0  0
    6.4500   -3.3140   20.7260 C   0  0  1  0  0  0  0  0  0  0  0  0
    7.2730    1.5110   21.5570 C   0  0  0  0  0  0  0  0  0  0  0  0
    5.7430    0.7350   19.8900 C   0  0  0  0  0  0  0  0  0  0  0  0
    8.2080   -1.1780   23.5670 N   0  0  0  0  0  0  0  0  0  0  0  0
    9.3770   -1.1600   21.4580 C   0  0  0  0  0  0  0  0  0  0  0  0
    7.0740   -3.0270   19.3200 C   0  0  0  0  0  0  0  0  0  0  0  0
    7.0070    2.5920   22.5580 N   0  0  0  0  0  0  0  0  0  0  0  0
    8.3340    1.6300   20.9220 O   0  0  0  0  0  0  0  0  0  0  0  0
    4.4390    1.2310   19.7830 C   0  0  0  0  0  0  0  0  0  0  0  0
    6.5460    0.6490   18.7370 C   0  0  0  0  0  0  0  0  0  0  0  0
    9.6370   -1.2400   23.7900 O   0  0  0  0  0  0  0  0  0  0  0  0
   10.3880   -1.2270   22.5830 C   0  0  0  0  0  0  0  0  0  0  0  0
    7.0890   -4.4260   21.8030 C   0  0  0  0  0  0  0  0  0  0  0  0
   11.9560   -1.2480   22.5030 C   0  0  0  0  0  0  0  0  0  0  0  0
    6.0490    1.0750   17.4340 N   0  0  0  0  0  0  0  0  0  0  0  0
    3.9460    1.6890   18.3720 C   0  0  0  0  0  0  0  0  0  0  0  0
    7.8190    3.7290   22.7180 C   0  0  0  0  0  0  0  0  0  0  0  0
    8.2290   -4.5000   22.7250 C   0  0  0  0  0  0  0  0  0  0  0  0
    6.5960   -5.6770   22.1020 C   0  0  0  0  0  0  0  0  0  0  0  0
   12.4160    0.2510   22.6540 C   0  0  0  0  0  0  0  0  0  0  0  0
   12.4010   -2.0560   21.1810 C   0  0  0  0  0  0  0  0  0  0  0  0
   12.5160   -1.9370   23.5510 C   0  0  0  0  0  0  0  0  0  0  0  0
    4.7940    1.5870   17.2760 C   0  0  0  0  0  0  0  0  0  0  0  0
    8.9690    3.6470   23.6100 C   0  0  0  0  0  0  0  0  0  0  0  0
    7.5060    4.9180   21.9970 C   0  0  0  0  0  0  0  0  0  0  0  0
    9.2660   -4.5620   23.5610 C   0  0  0  0  0  0  0  0  0  0  0  0
    7.1640   -6.7640   23.1290 C   0  0  0  0  0  0  0  0  0  0  0  0
    9.2580    2.4040   24.3510 C   0  0  0  0  0  0  0  0  0  0  0  0
   10.3060   -4.9740   24.6090 C   0  0  0  0  0  0  0  0  0  0  0  0
    9.8210    4.7610   23.7830 C   0  0  0  0  0  0  0  0  0  0  0  0
    8.3930    6.1500   22.1230 C   0  0  0  0  0  0  0  0  0  0  0  0
    8.4520   -5.9080   23.6730 C   0  0  0  0  0  0  0  0  0  0  0  0
    5.9430   -7.5760   22.6120 C   0  0  0  0  0  0  0  0  0  0  0  0
    9.6310    6.1360   23.0500 C   0  0  0  0  0  0  0  0  0  0  0  0
    4.6160   -7.3990   23.4680 C   0  0  0  0  0  0  0  0  0  0  0  0
   10.5280    7.1550   23.2730 O   0  0  0  0  0  0  0  0  0  0  0  0
    3.3190   -6.7540   22.8460 C   0  0  2  0  0  0  0  0  0  0  0  0
   11.9520    6.9510   23.3330 C   0  0  0  0  0  0  0  0  0  0  0  0
    2.9810   -5.5200   23.4290 C   0  0  0  0  0  0  0  0  0  0  0  0
    2.1970   -7.6260   22.6310 C   0  0  0  0  0  0  0  0  0  0  0  0
   12.6210    6.1050   22.1960 C   0  0  0  0  0  0  0  0  0  0  0  0
    0.9040   -6.7450   23.4770 S   0  0  0  0  0  0  0  0  0  0  0  0
    1.7130   -5.3350   23.8330 C   0  0  0  0  0  0  0  0  0  0  0  0
   14.0270    5.6080   22.5520 C   0  0  0  0  0  0  0  0  0  0  0  0
   -0.3380   -6.5290   22.4970 O   0  0  0  0  0  0  0  0  0  0  0  0
    0.5380   -7.4690   24.6870 O   0  0  0  0  0  0  0  0  0  0  0  0
   14.8420    4.8060   21.4650 C   0  0  0  0  0  0  0  0  0  0  0  0
   15.9570    4.0610   21.9850 C   0  0  0  0  0  0  0  0  0  0  0  0
   16.9620    4.5920   23.1660 C   0  0  0  0  0  0  0  0  0  0  0  0
   18.3680    4.6080   22.9330 C   0  0  0  0  0  0  0  0  0  0  0  0
   19.0640    5.7470   23.4040 C   0  0  0  0  0  0  0  0  0  0  0  0
   20.4510    5.7990   22.9020 N   0  0  0  0  0  0  0  0  0  0  0  0
   21.5960    5.5030   23.6530 C   0  0  0  0  0  0  0  0  0  0  0  0
   22.6850    4.8140   22.7870 C   0  0  0  0  0  0  0  0  0  0  0  0
   21.8450    5.7540   25.0450 C   0  0  0  0  0  0  0  0  0  0  0  0
   24.0400    4.4010   23.4010 C   0  0  0  0  0  0  0  0  0  0  0  0
   23.1780    5.3540   25.6790 C   0  0  0  0  0  0  0  0  0  0  0  0
   24.2020    4.7260   24.9170 C   0  0  0  0  0  0  0  0  0  0  0  0
   25.8200    4.1900   25.4800 S   0  0  0  0  0  0  0  0  0  0  0  0
   25.9360    2.7730   25.2360 O   0  0  0  0  0  0  0  0  0  0  0  0
   25.7570    4.4330   27.1610 N   0  0  0  0  0  0  0  0  0  0  0  0
   26.7290    5.1190   24.8710 O   0  0  0  0  0  0  0  0  0  0  0  0
   26.5240    5.3740   27.9120 C   0  0  0  0  0  0  0  0  0  0  0  0
   25.8070    5.8650   28.9620 N   0  0  0  0  0  0  0  0  0  0  0  0
   27.9610    5.8310   27.6750 C   0  0  0  0  0  0  0  0  0  0  0  0
   26.3980    6.8000   29.8040 C   0  0  0  0  0  0  0  0  0  0  0  0
   28.4860    6.7780   28.5850 C   0  0  0  0  0  0  0  0  0  0  0  0
   27.7130    7.2900   29.6740 C   0  0  0  0  0  0  0  0  0  0  0  0
  1  2  1  0
  2  3  2  0
  1  4  1  0
  1  5  1  0
  2  6  1  0
  4  7  1  6
  4  8  1  0
  5  9  2  0
  5 10  1  0
  6 11  1  1
  7 12  1  0
  7 13  2  0
  8 14  2  0
  8 15  1  0
  9 16  1  0
 10 17  2  0
 16 17  1  0
  6 18  1  0
 17 19  1  0
 15 20  2  0
 14 21  1  0
 12 22  1  0
 18 23  2  0
 18 24  1  0
 19 25  1  0
 19 26  1  0
 19 27  1  0
 20 28  1  0
 21 28  2  0
 22 29  2  0
 22 30  1  0
 23 31  1  0
 24 32  2  0
 29 33  1  0
 31 34  1  0
 29 35  1  0
 30 36  2  0
 31 37  2  0
 32 37  1  0
 32 38  1  0
 35 39  2  0
 36 39  1  0
 38 40  1  0
 39 41  1  0
 42 40  1  1
 41 43  1  0
 42 44  1  0
 42 45  1  0
 43 46  1  0
 45 47  1  0
 44 48  2  0
 47 48  1  0
 46 49  1  0
 47 50  1  0
 47 51  1  0
 49 52  1  0
 52 53  1  0
 53 54  1  0
 54 55  1  0
 55 56  1  0
 56 57  1  0
 57 58  1  0
 58 59  2  0
 58 60  1  0
 59 61  1  0
 60 62  2  0
 61 63  2  0
 62 63  1  0
 63 64  1  0
 64 65  2  0
 64 66  1  0
 64 67  2  0
 66 68  1  0
 68 69  2  0
 68 70  1  0
 69 71  1  0
 70 72  2  0
 71 73  2  0
 72 73  1  0
M  END
