x1119-x2694-x0771
     RDKit          3D

 76 83  0  0  0  0  0  0  0  0999 V2000
    6.7470   -1.2850   21.9840 C   0  0  1  0  0  0  0  0  0  0  0  0
    5.9020   -2.2560   21.0070 C   0  0  0  0  0  0  0  0  0  0  0  0
    4.7350   -2.8880   21.1850 O   0  0  0  0  0  0  0  0  0  0  0  0
    6.5170    0.2500   21.6110 C   0  0  1  0  0  0  0  0  0  0  0  0
    5.8030   -1.8770   23.0190 C   0  0  0  0  0  0  0  0  0  0  0  0
    8.2800   -1.4240   22.6210 C   0  0  0  0  0  0  0  0  0  0  0  0
    6.3660   -2.6160   19.7460 C   0  0  0  0  0  0  0  0  0  0  0  0
    7.6110    1.3240   21.8220 C   0  0  0  0  0  0  0  0  0  0  0  0
    5.3690   -3.3360   22.6090 C   0  0  0  0  0  0  0  0  0  0  0  0
    6.0410    0.6240   20.2440 C   0  0  0  0  0  0  0  0  0  0  0  0
    8.4940   -1.5770   23.9350 N   0  0  0  0  0  0  0  0  0  0  0  0
    9.5810   -1.3710   22.0470 C   0  0  0  0  0  0  0  0  0  0  0  0
    6.6430   -4.0120   20.0740 C   0  0  0  0  0  0  0  0  0  0  0  0
    7.2120    2.6960   22.2060 N   0  0  0  0  0  0  0  0  0  0  0  0
    8.9640    0.9500   21.5680 O   0  0  0  0  0  0  0  0  0  0  0  0
    4.8720    1.3690   20.2060 C   0  0  0  0  0  0  0  0  0  0  0  0
    6.7880    0.2330   19.0990 C   0  0  0  0  0  0  0  0  0  0  0  0
    9.8610   -1.6050   24.2220 O   0  0  0  0  0  0  0  0  0  0  0  0
   10.5600   -1.4780   23.0690 C   0  0  0  0  0  0  0  0  0  0  0  0
    6.3070   -4.3660   21.7000 C   0  0  0  0  0  0  0  0  0  0  0  0
   12.0980   -1.4560   23.0650 C   0  0  0  0  0  0  0  0  0  0  0  0
    6.3490    0.6180   17.8710 N   0  0  0  0  0  0  0  0  0  0  0  0
    4.3230    1.8320   18.8830 C   0  0  0  0  0  0  0  0  0  0  0  0
    8.0450    3.7620   22.6320 C   0  0  0  0  0  0  0  0  0  0  0  0
    5.6070   -5.5710   21.7230 C   0  0  0  0  0  0  0  0  0  0  0  0
    7.5110   -4.6320   22.6700 C   0  0  0  0  0  0  0  0  0  0  0  0
   12.5460   -0.1890   23.4430 C   0  0  0  0  0  0  0  0  0  0  0  0
   12.7080   -2.0210   21.7450 C   0  0  0  0  0  0  0  0  0  0  0  0
   12.5740   -2.3500   24.1910 C   0  0  0  0  0  0  0  0  0  0  0  0
    5.1740    1.3910   17.7360 C   0  0  0  0  0  0  0  0  0  0  0  0
    9.0720    3.4520   23.6860 C   0  0  0  0  0  0  0  0  0  0  0  0
    8.0010    5.2090   22.1280 C   0  0  0  0  0  0  0  0  0  0  0  0
    5.5600   -6.4250   23.0150 C   0  0  0  0  0  0  0  0  0  0  0  0
    7.1200   -4.7230   24.0220 C   0  0  0  0  0  0  0  0  0  0  0  0
    9.1010    2.0670   24.1810 C   0  0  0  0  0  0  0  0  0  0  0  0
    9.9510    4.4380   24.1810 C   0  0  0  0  0  0  0  0  0  0  0  0
    9.0040    6.1700   22.7460 C   0  0  0  0  0  0  0  0  0  0  0  0
    5.9060   -5.5660   24.1560 N   0  0  0  0  0  0  0  0  0  0  0  0
    5.0330   -5.7310   25.6390 S   0  0  0  0  0  0  0  0  0  0  0  0
    9.9270    5.7640   23.7330 C   0  0  0  0  0  0  0  0  0  0  0  0
   10.8310    6.6070   24.3100 O   0  0  0  0  0  0  0  0  0  0  0  0
    4.3460   -7.0010   25.5550 O   0  0  0  0  0  0  0  0  0  0  0  0
    5.9280   -5.4520   26.7210 O   0  0  0  0  0  0  0  0  0  0  0  0
    3.7750   -4.4660   25.7940 C   0  0  0  0  0  0  0  0  0  0  0  0
   12.2250    6.3670   24.2710 C   0  0  0  0  0  0  0  0  0  0  0  0
    2.4330   -4.7330   25.4640 C   0  0  0  0  0  0  0  0  0  0  0  0
    4.1250   -3.2150   26.2540 C   0  0  0  0  0  0  0  0  0  0  0  0
   12.7480    5.9100   23.0400 C   0  0  0  0  0  0  0  0  0  0  0  0
    1.9820   -6.0740   24.9500 C   0  0  0  0  0  0  0  0  0  0  0  0
    1.4350   -3.7480   25.6060 C   0  0  0  0  0  0  0  0  0  0  0  0
    3.0300   -2.1370   26.4070 C   0  0  0  0  0  0  0  0  0  0  0  0
   13.7070    4.7020   23.1100 C   0  0  0  0  0  0  0  0  0  0  0  0
    1.7210   -2.4670   26.0750 C   0  0  0  0  0  0  0  0  0  0  0  0
   14.8350    4.6410   22.0570 C   0  0  0  0  0  0  0  0  0  0  0  0
    0.6330   -1.4500   26.2300 C   0  0  0  0  0  0  0  0  0  0  0  0
   16.1840    4.2830   22.3880 C   0  0  0  0  0  0  0  0  0  0  0  0
   16.8830    4.9930   23.3890 C   0  0  0  0  0  0  0  0  0  0  0  0
   18.3180    5.0360   23.2120 C   0  0  0  0  0  0  0  0  0  0  0  0
   18.9550    6.3070   23.5470 C   0  0  0  0  0  0  0  0  0  0  0  0
   20.2150    6.6320   22.8450 N   0  0  0  0  0  0  0  0  0  0  0  0
   21.2260    5.8510   23.3170 C   0  0  0  0  0  0  0  0  0  0  0  0
   22.5080    5.5390   22.5540 C   0  0  0  0  0  0  0  0  0  0  0  0
   21.0710    5.2730   24.5840 C   0  0  0  0  0  0  0  0  0  0  0  0
   23.3890    4.6680   23.1990 C   0  0  0  0  0  0  0  0  0  0  0  0
   21.9800    4.4320   25.1480 C   0  0  0  0  0  0  0  0  0  0  0  0
   23.1070    4.1240   24.4540 C   0  0  0  0  0  0  0  0  0  0  0  0
   24.1480    2.9400   25.2970 S   0  0  0  0  0  0  0  0  0  0  0  0
   23.1800    1.6440   25.2800 O   0  0  0  0  0  0  0  0  0  0  0  0
   24.1890    3.3940   26.9080 N   0  0  0  0  0  0  0  0  0  0  0  0
   25.4750    2.8590   24.7630 O   0  0  0  0  0  0  0  0  0  0  0  0
   25.0210    4.4520   27.2470 C   0  0  0  0  0  0  0  0  0  0  0  0
   25.0350    4.6550   28.5960 N   0  0  0  0  0  0  0  0  0  0  0  0
   25.7400    5.1850   26.2700 C   0  0  0  0  0  0  0  0  0  0  0  0
   25.8910    5.7560   29.0700 C   0  0  0  0  0  0  0  0  0  0  0  0
   26.6190    6.3150   26.7760 C   0  0  0  0  0  0  0  0  0  0  0  0
   26.7050    6.6040   28.1160 C   0  0  0  0  0  0  0  0  0  0  0  0
  1  2  1  0
  2  3  2  0
  1  4  1  0
  1  5  1  0
  1  6  1  1
  2  7  1  0
  4  8  1  6
  5  9  1  0
  4 10  1  0
  6 11  2  0
  6 12  1  0
  7 13  1  0
  8 14  1  0
  8 15  2  0
 10 16  2  0
 10 17  1  0
 11 18  1  0
 12 19  2  0
 18 19  1  0
 20  9  1  0
 13 20  1  0
 19 21  1  0
 17 22  2  0
 16 23  1  0
 14 24  1  0
 20 25  1  0
 20 26  1  0
 21 27  1  0
 21 28  1  0
 21 29  1  0
 22 30  1  0
 23 30  2  0
 24 31  2  0
 24 32  1  0
 25 33  1  0
 26 34  1  0
 31 35  1  0
 31 36  1  0
 32 37  2  0
 33 38  1  0
 34 38  1  0
 38 39  1  0
 36 40  2  0
 37 40  1  0
 40 41  1  0
 39 42  2  0
 39 43  2  0
 39 44  1  0
 41 45  1  0
 44 46  2  0
 44 47  1  0
 45 48  1  0
 46 49  1  0
 46 50  1  0
 47 51  2  0
 48 52  1  0
 50 53  2  0
 51 53  1  0
 52 54  1  0
 53 55  1  0
 54 56  1  0
 56 57  1  0
 57 58  1  0
 58 59  1  0
 59 60  1  0
 60 61  1  0
 61 62  2  0
 61 63  1  0
 62 64  1  0
 63 65  2  0
 64 66  2  0
 65 66  1  0
 66 67  1  0
 67 68  2  0
 67 69  1  0
 67 70  2  0
 69 71  1  0
 71 72  2  0
 71 73  1  0
 72 74  1  0
 73 75  2  0
 74 76  2  0
 75 76  1  0
M  END
