x1119-x2694-x0387
     RDKit          3D

 66 72  0  0  0  0  0  0  0  0999 V2000
    7.0330   -1.3750   21.5720 N   0  0  0  0  0  0  0  0  0  0  0  0
    6.2330   -2.7050   21.3350 C   0  0  0  0  0  0  0  0  0  0  0  0
    4.9170   -3.0370   21.0790 O   0  0  0  0  0  0  0  0  0  0  0  0
    6.5190    0.0260   21.4540 C   0  0  1  0  0  0  0  0  0  0  0  0
    8.2080   -1.2090   22.4550 C   0  0  1  0  0  0  0  0  0  0  0  0
    7.1270   -3.9460   21.4620 C   0  0  0  0  0  0  0  0  0  0  0  0
    7.5640    1.2520   21.6920 C   0  0  0  0  0  0  0  0  0  0  0  0
    6.0900    0.4270   20.0870 C   0  0  0  0  0  0  0  0  0  0  0  0
    8.5660   -2.2080   23.2230 N   0  0  0  0  0  0  0  0  0  0  0  0
    9.5090   -0.8190   22.0240 C   0  0  0  0  0  0  0  0  0  0  0  0
    7.0190   -3.6230   19.9540 C   0  0  0  0  0  0  0  0  0  0  0  0
    7.4170    2.2410   22.7850 N   0  0  0  0  0  0  0  0  0  0  0  0
    8.5030    1.4320   20.9240 O   0  0  0  0  0  0  0  0  0  0  0  0
    4.9620    1.2190   20.1060 C   0  0  0  0  0  0  0  0  0  0  0  0
    6.7380    0.0890   18.9150 C   0  0  0  0  0  0  0  0  0  0  0  0
    9.6040   -1.7650   24.1740 C   0  0  2  0  0  0  0  0  0  0  0  0
   10.4560   -1.3540   23.1110 C   0  0  2  0  0  0  0  0  0  0  0  0
    6.3380    0.5050   17.7140 N   0  0  0  0  0  0  0  0  0  0  0  0
    4.5070    1.6750   18.8800 C   0  0  0  0  0  0  0  0  0  0  0  0
    8.2550    3.3950   22.9340 C   0  0  0  0  0  0  0  0  0  0  0  0
    9.5440   -2.8580   25.0050 N   0  0  0  0  0  0  0  0  0  0  0  0
   11.6400   -0.4330   23.5600 C   0  0  1  0  0  0  0  0  0  0  0  0
   11.1750   -2.4150   22.3470 C   0  0  0  0  0  0  0  0  0  0  0  0
   12.3110   -0.8840   24.8430 C   0  0  0  0  0  0  0  0  0  0  0  0
    5.2350    1.2900   17.7390 C   0  0  0  0  0  0  0  0  0  0  0  0
    9.4890    3.2370   23.5560 C   0  0  0  0  0  0  0  0  0  0  0  0
    7.9740    4.6830   22.5090 C   0  0  0  0  0  0  0  0  0  0  0  0
    8.2970   -3.4990   25.2300 C   0  0  0  0  0  0  0  0  0  0  0  0
   10.7590   -3.6140   25.1670 C   0  0  0  0  0  0  0  0  0  0  0  0
   12.7700   -1.9730   21.7470 S   0  0  0  0  0  0  0  0  0  0  0  0
   12.7840   -0.5070   22.6250 C   0  0  0  0  0  0  0  0  0  0  0  0
   10.0360    1.9880   24.1020 C   0  0  0  0  0  0  0  0  0  0  0  0
   13.2440   -2.0730   24.7050 C   0  0  0  0  0  0  0  0  0  0  0  0
   10.4150    4.2780   23.7450 C   0  0  0  0  0  0  0  0  0  0  0  0
    8.9270    5.8750   22.6810 C   0  0  0  0  0  0  0  0  0  0  0  0
    8.1640   -4.5100   26.1370 C   0  0  0  0  0  0  0  0  0  0  0  0
   10.5180   -4.7750   26.1060 C   0  0  0  0  0  0  0  0  0  0  0  0
   10.1450    5.5880   23.3100 C   0  0  0  0  0  0  0  0  0  0  0  0
    9.2750   -4.5830   26.9500 C   0  0  0  0  0  0  0  0  0  0  0  0
   11.0930    6.5560   23.5130 O   0  0  0  0  0  0  0  0  0  0  0  0
    9.1130   -5.6460   27.8690 O   0  0  0  0  0  0  0  0  0  0  0  0
   12.4140    6.2020   23.9260 C   0  0  0  0  0  0  0  0  0  0  0  0
   13.3590    5.8120   22.7270 C   0  0  0  0  0  0  0  0  0  0  0  0
   14.2170    4.6450   23.0110 C   0  0  0  0  0  0  0  0  0  0  0  0
   15.7140    4.4910   22.4680 C   0  0  0  0  0  0  0  0  0  0  0  0
   16.8210    4.4640   23.4750 C   0  0  0  0  0  0  0  0  0  0  0  0
   17.8470    5.3730   23.4400 C   0  0  0  0  0  0  0  0  0  0  0  0
   19.3210    5.3400   23.7080 C   0  0  0  0  0  0  0  0  0  0  0  0
   19.5060    6.7470   23.7480 C   0  0  0  0  0  0  0  0  0  0  0  0
   20.8000    7.2050   23.2020 N   0  0  0  0  0  0  0  0  0  0  0  0
   21.6400    6.2320   23.6090 C   0  0  0  0  0  0  0  0  0  0  0  0
   22.7160    5.6290   22.7190 C   0  0  0  0  0  0  0  0  0  0  0  0
   21.4200    5.8080   24.9090 C   0  0  0  0  0  0  0  0  0  0  0  0
   23.5260    4.4960   23.3230 C   0  0  0  0  0  0  0  0  0  0  0  0
   22.1780    4.7050   25.5350 C   0  0  0  0  0  0  0  0  0  0  0  0
   23.2470    4.0060   24.7400 C   0  0  0  0  0  0  0  0  0  0  0  0
   24.1700    2.6210   25.4070 S   0  0  0  0  0  0  0  0  0  0  0  0
   23.2700    1.5110   25.2490 O   0  0  0  0  0  0  0  0  0  0  0  0
   24.3410    3.0400   27.0440 N   0  0  0  0  0  0  0  0  0  0  0  0
   25.4610    2.5740   24.7830 O   0  0  0  0  0  0  0  0  0  0  0  0
   25.0860    4.2640   27.3580 C   0  0  0  0  0  0  0  0  0  0  0  0
   25.1320    4.6650   28.7470 N   0  0  0  0  0  0  0  0  0  0  0  0
   25.7230    4.9990   26.3460 C   0  0  0  0  0  0  0  0  0  0  0  0
   25.8260    5.7870   29.0210 C   0  0  0  0  0  0  0  0  0  0  0  0
   26.4380    6.1530   26.6170 C   0  0  0  0  0  0  0  0  0  0  0  0
   26.5360    6.6130   27.9440 C   0  0  0  0  0  0  0  0  0  0  0  0
  1  2  1  0
  2  3  2  0
  1  4  1  0
  5  1  1  6
  2  6  1  0
  4  7  1  6
  4  8  1  0
  5  9  1  0
  5 10  1  0
  6 11  1  0
  7 12  1  0
  7 13  2  0
  8 14  2  0
  8 15  1  0
  9 16  1  0
 17 10  1  6
 16 17  1  0
 15 18  2  0
 14 19  1  0
 12 20  1  0
 16 21  1  6
 17 22  1  0
 17 23  1  0
 22 24  1  1
 18 25  1  0
 19 25  2  0
 20 26  2  0
 20 27  1  0
 21 28  1  0
 21 29  1  0
 23 30  2  0
 22 31  1  0
 30 31  2  0
 26 32  1  0
 24 33  1  0
 26 34  1  0
 27 35  2  0
 28 36  1  0
 29 37  1  0
 34 38  2  0
 35 38  1  0
 36 39  1  0
 37 39  1  0
 38 40  1  0
 39 41  1  0
 40 42  1  0
 42 43  1  0
 43 44  1  0
 44 45  1  0
 45 46  1  0
 46 47  1  0
 47 48  1  0
 48 49  1  0
 49 50  1  0
 50 51  1  0
 51 52  2  0
 51 53  1  0
 52 54  1  0
 53 55  2  0
 54 56  2  0
 55 56  1  0
 56 57  1  0
 57 58  2  0
 57 59  1  0
 57 60  2  0
 59 61  1  0
 61 62  2  0
 61 63  1  0
 62 64  1  0
 63 65  2  0
 64 66  2  0
 65 66  1  0
M  END
