x1119-x0731-x2694
     RDKit          3D

 74 80  0  0  0  0  0  0  0  0999 V2000
    7.2240   -0.9500   21.8820 N   0  0  0  0  0  0  0  0  0  0  0  0
    6.9100    0.3750   21.7030 C   0  0  1  0  0  0  0  0  0  0  0  0
    8.0150    1.3750   21.8650 C   0  0  0  0  0  0  0  0  0  0  0  0
    5.9990   -1.7400   21.8590 C   0  0  0  0  0  0  0  0  0  0  0  0
    8.4640   -1.2350   22.6980 C   0  0  0  0  0  0  0  0  0  0  0  0
    6.0260   -2.8950   22.6460 C   0  0  0  0  0  0  0  0  0  0  0  0
    6.3870    0.6220   20.3300 C   0  0  0  0  0  0  0  0  0  0  0  0
    8.5700   -1.5300   24.0210 N   0  0  0  0  0  0  0  0  0  0  0  0
    9.8970   -1.2150   22.1700 C   0  0  0  0  0  0  0  0  0  0  0  0
    7.8050    2.2730   22.8790 N   0  0  0  0  0  0  0  0  0  0  0  0
    9.0040    1.4490   21.1480 O   0  0  0  0  0  0  0  0  0  0  0  0
    5.2020    1.5510   20.1910 C   0  0  0  0  0  0  0  0  0  0  0  0
    6.8740    0.1030   19.1320 C   0  0  0  0  0  0  0  0  0  0  0  0
    9.9390   -1.6830   24.3320 O   0  0  0  0  0  0  0  0  0  0  0  0
   10.7340   -1.4910   23.2330 C   0  0  0  0  0  0  0  0  0  0  0  0
    6.2790   -4.2990   21.9500 C   0  0  0  0  0  0  0  0  0  0  0  0
   12.2440   -1.5780   23.2940 C   0  0  0  0  0  0  0  0  0  0  0  0
    6.1280   -4.1850   20.4260 C   0  0  0  0  0  0  0  0  0  0  0  0
    6.2850    0.4470   17.8140 N   0  0  0  0  0  0  0  0  0  0  0  0
    4.6640    1.8500   18.8590 C   0  0  0  0  0  0  0  0  0  0  0  0
    8.6100    3.4580   23.0620 C   0  0  0  0  0  0  0  0  0  0  0  0
    7.4250   -4.8120   22.4590 C   0  0  0  0  0  0  0  0  0  0  0  0
    5.1500   -5.3660   22.2190 C   0  0  0  0  0  0  0  0  0  0  0  0
   12.7790   -0.3440   23.6640 C   0  0  0  0  0  0  0  0  0  0  0  0
   12.8270   -1.8920   22.0800 C   0  0  0  0  0  0  0  0  0  0  0  0
   12.6970   -2.3930   24.2680 C   0  0  0  0  0  0  0  0  0  0  0  0
    5.2560   -4.8710   19.9320 O   0  0  0  0  0  0  0  0  0  0  0  0
    6.9710   -3.2830   19.5220 C   0  0  0  0  0  0  0  0  0  0  0  0
    5.2300    1.2900   17.7340 C   0  0  0  0  0  0  0  0  0  0  0  0
    9.8530    3.3420   23.6190 C   0  0  0  0  0  0  0  0  0  0  0  0
    8.1230    4.6940   22.6650 C   0  0  0  0  0  0  0  0  0  0  0  0
    7.3450   -4.9370   23.9750 C   0  0  0  0  0  0  0  0  0  0  0  0
    5.4550   -6.2450   23.2350 C   0  0  0  0  0  0  0  0  0  0  0  0
   10.3710    1.9960   24.0470 C   0  0  0  0  0  0  0  0  0  0  0  0
   10.7640    4.5430   23.8300 C   0  0  0  0  0  0  0  0  0  0  0  0
    8.9430    5.9440   22.8320 C   0  0  0  0  0  0  0  0  0  0  0  0
    5.9720   -5.3570   24.2590 N   0  0  0  0  0  0  0  0  0  0  0  0
    5.2480   -5.4350   25.8320 S   0  0  0  0  0  0  0  0  0  0  0  0
   10.2220    5.8210   23.4020 C   0  0  0  0  0  0  0  0  0  0  0  0
   11.0630    6.8630   23.6030 O   0  0  0  0  0  0  0  0  0  0  0  0
    6.1710   -5.0300   26.8520 O   0  0  0  0  0  0  0  0  0  0  0  0
    4.5510   -6.6910   25.9210 O   0  0  0  0  0  0  0  0  0  0  0  0
    4.0280   -4.1610   25.8720 C   0  0  0  0  0  0  0  0  0  0  0  0
   12.4640    6.6500   23.7190 C   0  0  0  0  0  0  0  0  0  0  0  0
    2.7360   -4.3260   25.3580 C   0  0  0  0  0  0  0  0  0  0  0  0
    4.3420   -2.8170   26.4950 C   0  0  0  0  0  0  0  0  0  0  0  0
   13.2540    5.7990   22.5990 C   0  0  0  0  0  0  0  0  0  0  0  0
    1.6840   -3.1970   25.4410 C   0  0  0  0  0  0  0  0  0  0  0  0
    3.2410   -1.7600   26.5330 C   0  0  0  0  0  0  0  0  0  0  0  0
   14.3360    4.6830   22.8480 C   0  0  0  0  0  0  0  0  0  0  0  0
    1.9770   -2.0050   26.0150 C   0  0  0  0  0  0  0  0  0  0  0  0
    0.9490   -0.9240   26.1110 C   0  0  0  0  0  0  0  0  0  0  0  0
   15.6680    4.5780   22.3270 C   0  0  0  0  0  0  0  0  0  0  0  0
   16.9560    4.6070   23.3120 C   0  0  0  0  0  0  0  0  0  0  0  0
   18.3420    5.0360   23.1450 C   0  0  0  0  0  0  0  0  0  0  0  0
   18.7940    6.2830   23.7190 C   0  0  0  0  0  0  0  0  0  0  0  0
   19.5720    7.3710   23.1690 C   0  0  0  0  0  0  0  0  0  0  0  0
   20.9260    7.2630   22.7900 N   0  0  0  0  0  0  0  0  0  0  0  0
   21.6490    6.2770   23.3870 C   0  0  0  0  0  0  0  0  0  0  0  0
   22.6430    5.6550   22.6470 C   0  0  0  0  0  0  0  0  0  0  0  0
   21.3970    5.8900   24.7020 C   0  0  0  0  0  0  0  0  0  0  0  0
   23.3590    4.6240   23.2500 C   0  0  0  0  0  0  0  0  0  0  0  0
   22.0840    4.8840   25.2870 C   0  0  0  0  0  0  0  0  0  0  0  0
   23.0540    4.2470   24.5630 C   0  0  0  0  0  0  0  0  0  0  0  0
   23.9010    2.9200   25.3200 S   0  0  0  0  0  0  0  0  0  0  0  0
   22.9220    1.8860   25.2870 O   0  0  0  0  0  0  0  0  0  0  0  0
   24.0640    3.4030   26.9000 N   0  0  0  0  0  0  0  0  0  0  0  0
   25.3070    2.7080   24.6110 O   0  0  0  0  0  0  0  0  0  0  0  0
   24.9410    4.4350   27.2280 C   0  0  0  0  0  0  0  0  0  0  0  0
   24.9840    4.6700   28.5480 N   0  0  0  0  0  0  0  0  0  0  0  0
   25.7800    5.2380   26.2550 C   0  0  0  0  0  0  0  0  0  0  0  0
   25.8190    5.6620   28.9460 C   0  0  0  0  0  0  0  0  0  0  0  0
   26.5930    6.2220   26.7570 C   0  0  0  0  0  0  0  0  0  0  0  0
   26.6170    6.4380   28.0990 C   0  0  0  0  0  0  0  0  0  0  0  0
  1  2  1  0
  2  3  1  6
  1  4  1  0
  1  5  1  0
  4  6  1  0
  2  7  1  0
  5  8  2  0
  5  9  1  0
  3 10  1  0
  3 11  2  0
  7 12  2  0
  7 13  1  0
  8 14  1  0
  9 15  2  0
 14 15  1  0
  6 16  1  0
 15 17  1  0
 16 18  1  0
 13 19  2  0
 12 20  1  0
 10 21  1  0
 16 22  1  0
 16 23  1  0
 17 24  1  0
 17 25  1  0
 17 26  1  0
 18 27  2  0
 18 28  1  0
 19 29  1  0
 20 29  2  0
 21 30  2  0
 21 31  1  0
 22 32  1  0
 23 33  1  0
 30 34  1  0
 30 35  1  0
 31 36  2  0
 32 37  1  0
 33 37  1  0
 37 38  1  0
 35 39  2  0
 36 39  1  0
 39 40  1  0
 38 41  2  0
 38 42  2  0
 38 43  1  0
 40 44  1  0
 43 45  2  0
 43 46  1  0
 44 47  1  0
 45 48  1  0
 46 49  2  0
 47 50  1  0
 48 51  2  0
 49 51  1  0
 51 52  1  0
 50 53  1  0
 53 54  1  0
 54 55  1  0
 55 56  1  0
 56 57  1  0
 57 58  1  0
 58 59  1  0
 59 60  2  0
 59 61  1  0
 60 62  1  0
 61 63  2  0
 62 64  2  0
 63 64  1  0
 64 65  1  0
 65 66  2  0
 65 67  1  0
 65 68  2  0
 67 69  1  0
 69 70  2  0
 69 71  1  0
 70 72  1  0
 71 73  2  0
 72 74  2  0
 73 74  1  0
M  END
