x1119-x0691-x2694
     RDKit          3D

 74 80  0  0  0  0  0  0  0  0999 V2000
    7.3890   -1.0010   21.8390 N   0  0  0  0  0  0  0  0  0  0  0  0
    6.9840    0.3080   21.6370 C   0  0  1  0  0  0  0  0  0  0  0  0
    8.0350    1.3820   21.8280 C   0  0  0  0  0  0  0  0  0  0  0  0
    6.1530   -1.8370   22.0090 C   0  0  0  0  0  0  0  0  0  0  0  0
    8.5820   -1.1830   22.6570 C   0  0  0  0  0  0  0  0  0  0  0  0
    6.4230   -2.9820   22.7500 C   0  0  0  0  0  0  0  0  0  0  0  0
    6.3220    0.6890   20.3360 C   0  0  0  0  0  0  0  0  0  0  0  0
    8.6450   -1.3840   24.0040 N   0  0  0  0  0  0  0  0  0  0  0  0
    9.8550   -1.1760   22.1900 C   0  0  0  0  0  0  0  0  0  0  0  0
    7.7470    2.3550   22.8900 N   0  0  0  0  0  0  0  0  0  0  0  0
    9.0360    1.4720   21.1260 O   0  0  0  0  0  0  0  0  0  0  0  0
    5.2140    1.5120   20.1920 C   0  0  0  0  0  0  0  0  0  0  0  0
    6.8000    0.2200   19.0590 C   0  0  0  0  0  0  0  0  0  0  0  0
    9.9940   -1.4990   24.3630 O   0  0  0  0  0  0  0  0  0  0  0  0
   10.7420   -1.3660   23.2400 C   0  0  0  0  0  0  0  0  0  0  0  0
    6.2030   -4.4170   22.1220 C   0  0  0  0  0  0  0  0  0  0  0  0
   12.1760   -1.4110   23.2220 C   0  0  0  0  0  0  0  0  0  0  0  0
    6.2360   -4.4830   20.5540 C   0  0  0  0  0  0  0  0  0  0  0  0
    6.3480    0.4660   17.8320 N   0  0  0  0  0  0  0  0  0  0  0  0
    4.7170    1.7880   18.9320 C   0  0  0  0  0  0  0  0  0  0  0  0
    8.6400    3.5090   23.0430 C   0  0  0  0  0  0  0  0  0  0  0  0
    4.9300   -4.9290   22.4210 C   0  0  0  0  0  0  0  0  0  0  0  0
    7.1340   -5.2870   22.9810 C   0  0  0  0  0  0  0  0  0  0  0  0
   12.8730   -0.0560   23.4200 C   0  0  0  0  0  0  0  0  0  0  0  0
   12.7050   -2.0010   21.9000 C   0  0  0  0  0  0  0  0  0  0  0  0
   12.6670   -2.3360   24.3620 C   0  0  0  0  0  0  0  0  0  0  0  0
    5.5750   -5.3280   19.9940 O   0  0  0  0  0  0  0  0  0  0  0  0
    7.0620   -3.4070   19.8160 C   0  0  0  0  0  0  0  0  0  0  0  0
    5.2690    1.2830   17.7820 C   0  0  0  0  0  0  0  0  0  0  0  0
    9.8700    3.2940   23.5940 C   0  0  0  0  0  0  0  0  0  0  0  0
    8.2460    4.7810   22.6220 C   0  0  0  0  0  0  0  0  0  0  0  0
    4.7620   -5.9200   23.3690 C   0  0  0  0  0  0  0  0  0  0  0  0
    6.8170   -5.1980   24.3360 C   0  0  0  0  0  0  0  0  0  0  0  0
   10.3300    1.9080   24.0720 C   0  0  0  0  0  0  0  0  0  0  0  0
   10.7570    4.3370   23.7330 C   0  0  0  0  0  0  0  0  0  0  0  0
    9.1420    5.8390   22.7650 C   0  0  0  0  0  0  0  0  0  0  0  0
    5.5080   -5.5160   24.5410 N   0  0  0  0  0  0  0  0  0  0  0  0
    4.7870   -5.6160   25.8820 S   0  0  0  0  0  0  0  0  0  0  0  0
   10.3970    5.6070   23.3140 C   0  0  0  0  0  0  0  0  0  0  0  0
   11.2140    6.6830   23.3960 O   0  0  0  0  0  0  0  0  0  0  0  0
    4.0900   -6.8810   25.9170 O   0  0  0  0  0  0  0  0  0  0  0  0
    5.7190   -5.2480   26.9210 O   0  0  0  0  0  0  0  0  0  0  0  0
    3.5410   -4.3390   25.8290 C   0  0  0  0  0  0  0  0  0  0  0  0
   12.5990    6.4330   23.6430 C   0  0  0  0  0  0  0  0  0  0  0  0
    3.8700   -2.9880   25.9150 C   0  0  0  0  0  0  0  0  0  0  0  0
    2.1800   -4.6570   25.7070 C   0  0  0  0  0  0  0  0  0  0  0  0
   13.3840    5.5680   22.5440 C   0  0  0  0  0  0  0  0  0  0  0  0
    2.9280   -1.9620   25.8910 C   0  0  0  0  0  0  0  0  0  0  0  0
    1.2100   -3.6440   25.6800 C   0  0  0  0  0  0  0  0  0  0  0  0
    3.2800   -0.6680   25.9770 F   0  0  0  0  0  0  0  0  0  0  0  0
   14.4550    4.6130   22.9510 C   0  0  0  0  0  0  0  0  0  0  0  0
    1.5840   -2.3020   25.7740 C   0  0  0  0  0  0  0  0  0  0  0  0
   15.8710    4.9330   22.7160 C   0  0  0  0  0  0  0  0  0  0  0  0
   17.0960    4.2650   23.3850 C   0  0  0  0  0  0  0  0  0  0  0  0
   18.3410    5.2430   23.3270 C   0  0  0  0  0  0  0  0  0  0  0  0
   19.3510    5.4380   22.1220 C   0  0  0  0  0  0  0  0  0  0  0  0
   19.8290    6.9520   22.0240 C   0  0  0  0  0  0  0  0  0  0  0  0
   21.2720    7.2220   22.1740 N   0  0  0  0  0  0  0  0  0  0  0  0
   21.9780    6.2430   22.8150 C   0  0  0  0  0  0  0  0  0  0  0  0
   23.3610    5.7160   22.4990 C   0  0  0  0  0  0  0  0  0  0  0  0
   21.3330    5.6620   23.8670 C   0  0  0  0  0  0  0  0  0  0  0  0
   23.9160    4.6820   23.2530 C   0  0  0  0  0  0  0  0  0  0  0  0
   21.9100    4.6460   24.5680 C   0  0  0  0  0  0  0  0  0  0  0  0
   23.1630    4.1420   24.3010 C   0  0  0  0  0  0  0  0  0  0  0  0
   23.7450    2.7970   25.3080 S   0  0  0  0  0  0  0  0  0  0  0  0
   22.6170    1.9150   25.4850 O   0  0  0  0  0  0  0  0  0  0  0  0
   24.1160    3.3540   26.8490 N   0  0  0  0  0  0  0  0  0  0  0  0
   24.9730    2.3440   24.7080 O   0  0  0  0  0  0  0  0  0  0  0  0
   24.9950    4.4170   27.0870 C   0  0  0  0  0  0  0  0  0  0  0  0
   25.0830    4.6760   28.4080 N   0  0  0  0  0  0  0  0  0  0  0  0
   25.6870    5.1160   26.1100 C   0  0  0  0  0  0  0  0  0  0  0  0
   25.9030    5.6870   28.7690 C   0  0  0  0  0  0  0  0  0  0  0  0
   26.5220    6.1460   26.5140 C   0  0  0  0  0  0  0  0  0  0  0  0
   26.6350    6.4420   27.8700 C   0  0  0  0  0  0  0  0  0  0  0  0
  1  2  1  0
  2  3  1  6
  1  4  1  0
  1  5  1  0
  4  6  1  0
  2  7  1  0
  5  8  2  0
  5  9  1  0
  3 10  1  0
  3 11  2  0
  7 12  2  0
  7 13  1  0
  8 14  1  0
  9 15  2  0
 14 15  1  0
  6 16  1  0
 15 17  1  0
 16 18  1  0
 13 19  2  0
 12 20  1  0
 10 21  1  0
 16 22  1  0
 16 23  1  0
 17 24  1  0
 17 25  1  0
 17 26  1  0
 18 27  2  0
 18 28  1  0
 19 29  1  0
 20 29  2  0
 21 30  2  0
 21 31  1  0
 22 32  1  0
 23 33  1  0
 30 34  1  0
 30 35  1  0
 31 36  2  0
 32 37  1  0
 33 37  1  0
 37 38  1  0
 35 39  2  0
 36 39  1  0
 39 40  1  0
 38 41  2  0
 38 42  2  0
 38 43  1  0
 40 44  1  0
 43 45  2  0
 43 46  1  0
 44 47  1  0
 45 48  1  0
 46 49  2  0
 48 50  1  0
 47 51  1  0
 48 52  2  0
 49 52  1  0
 51 53  1  0
 53 54  1  0
 54 55  1  0
 55 56  1  0
 56 57  1  0
 57 58  1  0
 58 59  1  0
 59 60  2  0
 59 61  1  0
 60 62  1  0
 61 63  2  0
 62 64  2  0
 63 64  1  0
 64 65  1  0
 65 66  2  0
 65 67  1  0
 65 68  2  0
 67 69  1  0
 69 70  2  0
 69 71  1  0
 70 72  1  0
 71 73  2  0
 72 74  2  0
 73 74  1  0
M  END
