x1119-x2694-x0426
     RDKit          3D

 69 74  0  0  0  0  0  0  0  0999 V2000
    7.0090   -1.5120   21.7620 N   0  0  0  0  0  0  0  0  0  0  0  0
    6.1380   -2.7430   21.5330 C   0  0  0  0  0  0  0  0  0  0  0  0
    4.8460   -3.0120   21.2150 O   0  0  0  0  0  0  0  0  0  0  0  0
    6.6800   -0.1420   21.6200 C   0  0  1  0  0  0  0  0  0  0  0  0
    8.3050   -1.6020   22.5340 C   0  0  0  0  0  0  0  0  0  0  0  0
    6.9240   -4.0120   21.6910 C   0  0  0  0  0  0  0  0  0  0  0  0
    7.8180    0.8200   22.0180 C   0  0  0  0  0  0  0  0  0  0  0  0
    6.0380    0.3150   20.2950 C   0  0  0  0  0  0  0  0  0  0  0  0
    8.4540   -1.8060   23.8790 N   0  0  0  0  0  0  0  0  0  0  0  0
    9.7470   -1.4700   22.0420 C   0  0  0  0  0  0  0  0  0  0  0  0
    6.7840   -4.7700   20.3970 C   0  0  0  0  0  0  0  0  0  0  0  0
    7.5910    1.9560   22.9640 N   0  0  0  0  0  0  0  0  0  0  0  0
    8.9170    0.7120   21.4910 O   0  0  0  0  0  0  0  0  0  0  0  0
    4.7010    0.9950   20.1480 C   0  0  0  0  0  0  0  0  0  0  0  0
    6.8810    0.0730   19.0300 C   0  0  0  0  0  0  0  0  0  0  0  0
    9.8390   -1.8100   24.2650 O   0  0  0  0  0  0  0  0  0  0  0  0
   10.6850   -1.6120   23.2040 C   0  0  0  0  0  0  0  0  0  0  0  0
   12.1450   -1.5570   23.2770 C   0  0  0  0  0  0  0  0  0  0  0  0
    3.7320    1.2930   21.2710 C   0  0  0  0  0  0  0  0  0  0  0  0
    6.3650    0.5410   17.7490 N   0  0  0  0  0  0  0  0  0  0  0  0
    4.3550    1.3820   18.8370 C   0  0  0  0  0  0  0  0  0  0  0  0
    8.4060    3.1160   23.0750 C   0  0  0  0  0  0  0  0  0  0  0  0
   12.5660   -0.1550   23.7190 C   0  0  0  0  0  0  0  0  0  0  0  0
   12.7300   -2.0800   21.9180 C   0  0  0  0  0  0  0  0  0  0  0  0
   12.5760   -2.3710   24.2140 C   0  0  0  0  0  0  0  0  0  0  0  0
    4.2240    2.0820   22.3490 C   0  0  0  0  0  0  0  0  0  0  0  0
    5.1660    1.1560   17.7530 C   0  0  0  0  0  0  0  0  0  0  0  0
    9.6590    2.9920   23.6660 C   0  0  0  0  0  0  0  0  0  0  0  0
    7.9770    4.5040   22.5710 C   0  0  0  0  0  0  0  0  0  0  0  0
   10.1590    1.7110   24.1860 C   0  0  0  0  0  0  0  0  0  0  0  0
    3.3200    2.6030   23.3200 N   0  0  0  0  0  0  0  0  0  0  0  0
   10.5710    4.2040   23.7940 C   0  0  0  0  0  0  0  0  0  0  0  0
    8.9080    5.7050   22.7160 C   0  0  0  0  0  0  0  0  0  0  0  0
    2.2480    1.7620   23.8680 C   0  0  0  0  0  0  0  0  0  0  0  0
   10.1670    5.5830   23.3000 C   0  0  0  0  0  0  0  0  0  0  0  0
   11.0940    6.5470   23.4820 O   0  0  0  0  0  0  0  0  0  0  0  0
    2.2350    0.5350   23.7810 O   0  0  0  0  0  0  0  0  0  0  0  0
    1.1630    2.4990   24.5470 C   0  0  0  0  0  0  0  0  0  0  0  0
   12.4580    6.1890   23.6660 C   0  0  0  0  0  0  0  0  0  0  0  0
    1.4820    3.8110   25.2560 C   0  0  0  0  0  0  0  0  0  0  0  0
   -0.1210    2.0040   24.5380 C   0  0  0  0  0  0  0  0  0  0  0  0
    2.7320    4.2940   25.2670 F   0  0  0  0  0  0  0  0  0  0  0  0
   13.1470    5.2760   22.5790 C   0  0  0  0  0  0  0  0  0  0  0  0
   -1.2130    2.7840   25.2440 C   0  0  0  0  0  0  0  0  0  0  0  0
    0.4870    4.5600   25.9220 C   0  0  0  0  0  0  0  0  0  0  0  0
   14.5190    5.1110   22.8570 C   0  0  0  0  0  0  0  0  0  0  0  0
   -0.8440    4.1010   25.9440 C   0  0  0  0  0  0  0  0  0  0  0  0
   15.6530    4.2740   22.1160 C   0  0  0  0  0  0  0  0  0  0  0  0
   17.0020    4.1340   22.5930 C   0  0  0  0  0  0  0  0  0  0  0  0
   17.6770    4.9880   23.4350 C   0  0  0  0  0  0  0  0  0  0  0  0
   18.9360    5.5100   23.0160 C   0  0  0  0  0  0  0  0  0  0  0  0
   19.2920    6.8480   23.3340 C   0  0  0  0  0  0  0  0  0  0  0  0
   20.5730    7.2480   23.0550 N   0  0  0  0  0  0  0  0  0  0  0  0
   21.4310    6.2750   23.5010 C   0  0  0  0  0  0  0  0  0  0  0  0
   22.6010    5.7310   22.6570 C   0  0  0  0  0  0  0  0  0  0  0  0
   21.1990    5.7610   24.7680 C   0  0  0  0  0  0  0  0  0  0  0  0
   23.3590    4.7210   23.2150 C   0  0  0  0  0  0  0  0  0  0  0  0
   21.9310    4.7850   25.2970 C   0  0  0  0  0  0  0  0  0  0  0  0
   22.9940    4.2060   24.6190 C   0  0  0  0  0  0  0  0  0  0  0  0
   23.9350    2.8480   25.3430 S   0  0  0  0  0  0  0  0  0  0  0  0
   23.0090    1.7640   25.3220 O   0  0  0  0  0  0  0  0  0  0  0  0
   24.1050    3.2990   26.9900 N   0  0  0  0  0  0  0  0  0  0  0  0
   25.2090    2.7570   24.6870 O   0  0  0  0  0  0  0  0  0  0  0  0
   24.9590    4.3790   27.2490 C   0  0  0  0  0  0  0  0  0  0  0  0
   25.0560    4.6820   28.5780 N   0  0  0  0  0  0  0  0  0  0  0  0
   25.6630    5.0960   26.2600 C   0  0  0  0  0  0  0  0  0  0  0  0
   25.8480    5.7020   28.9870 C   0  0  0  0  0  0  0  0  0  0  0  0
   26.4950    6.1570   26.6340 C   0  0  0  0  0  0  0  0  0  0  0  0
   26.5830    6.4690   28.0960 C   0  0  0  0  0  0  0  0  0  0  0  0
  1  2  1  0
  2  3  2  0
  1  4  1  0
  1  5  1  0
  2  6  1  0
  4  7  1  6
  4  8  1  0
  5  9  2  0
  5 10  1  0
  6 11  1  0
  7 12  1  0
  7 13  2  0
  8 14  1  0
  8 15  2  0
  9 16  1  0
 10 17  2  0
 16 17  1  0
 17 18  1  0
 14 19  1  0
 15 20  1  0
 14 21  2  0
 12 22  1  0
 18 23  1  0
 18 24  1  0
 18 25  1  0
 19 26  1  0
 20 27  2  0
 21 27  1  0
 22 28  2  0
 22 29  1  0
 28 30  1  0
 26 31  1  0
 28 32  1  0
 29 33  2  0
 31 34  1  0
 32 35  2  0
 33 35  1  0
 35 36  1  0
 34 37  2  0
 34 38  1  0
 36 39  1  0
 38 40  2  0
 38 41  1  0
 40 42  1  0
 39 43  1  0
 41 44  2  0
 40 45  1  0
 43 46  1  0
 44 47  1  0
 45 47  2  0
 46 48  1  0
 48 49  1  0
 49 50  1  0
 50 51  1  0
 51 52  1  0
 52 53  1  0
 53 54  1  0
 54 55  2  0
 54 56  1  0
 55 57  1  0
 56 58  2  0
 57 59  2  0
 58 59  1  0
 59 60  1  0
 60 61  2  0
 60 62  1  0
 60 63  2  0
 62 64  1  0
 64 65  2  0
 64 66  1  0
 65 67  1  0
 66 68  2  0
 67 69  2  0
 68 69  1  0
M  END
