x1119-x3110-x3113-x1458
     RDKit          3D

 67 72  0  0  0  0  0  0  0  0999 V2000
    7.9680    1.2170   23.1690 N   0  0  0  0  0  0  0  0  0  0  0  0
    8.8910    2.3200   23.5540 C   0  0  0  0  0  0  0  0  0  0  0  0
   10.2810    2.0770   23.4840 C   0  0  0  0  0  0  0  0  0  0  0  0
    7.7450    0.8230   21.8410 C   0  0  0  0  0  0  0  0  0  0  0  0
    8.5860    1.4560   20.8590 O   0  0  0  0  0  0  0  0  0  0  0  0
    6.6740   -0.1250   21.5600 C   0  0  2  0  0  0  0  0  0  0  0  0
    6.9810   -1.5270   21.7300 C   0  0  2  0  0  0  0  0  0  0  0  0
   11.1790    3.1410   23.2710 C   0  0  0  0  0  0  0  0  0  0  0  0
    6.1320    0.3710   20.2190 C   0  0  0  0  0  0  0  0  0  0  0  0
   12.1300    3.0570   22.4750 O   0  0  0  0  0  0  0  0  0  0  0  0
   10.9030    4.1190   23.9620 O   0  0  0  0  0  0  0  0  0  0  0  0
    6.1770   -2.8850   21.2060 C   0  0  0  0  0  0  0  0  0  0  0  0
    6.4130   -2.1560   22.9410 C   0  0  0  0  0  0  0  0  0  0  0  0
    5.0230    1.2040   20.2020 C   0  0  0  0  0  0  0  0  0  0  0  0
    6.7620   -0.0010   19.0430 C   0  0  0  0  0  0  0  0  0  0  0  0
    8.4340   -1.5690   22.3790 C   0  0  0  0  0  0  0  0  0  0  0  0
   12.8140    4.1960   22.1580 C   0  0  0  0  0  0  0  0  0  0  0  0
    4.9850   -3.1090   20.6690 O   0  0  0  0  0  0  0  0  0  0  0  0
    6.3990    0.3860   17.8180 N   0  0  0  0  0  0  0  0  0  0  0  0
    4.5760    1.6570   18.9670 C   0  0  0  0  0  0  0  0  0  0  0  0
    9.5530   -1.9980   21.7260 C   0  0  0  0  0  0  0  0  0  0  0  0
    8.6520   -1.1700   23.7010 C   0  0  0  0  0  0  0  0  0  0  0  0
    6.9420   -4.1130   21.6530 C   0  0  2  0  0  0  0  0  0  0  0  0
    7.3350   -3.3920   22.8800 C   0  0  2  0  0  0  0  0  0  0  0  0
   13.9790    4.7310   22.9690 C   0  0  0  0  0  0  0  0  0  0  0  0
    8.3210   -4.5550   21.0660 C   0  0  0  0  0  0  0  0  0  0  0  0
    5.2140    1.2900   17.8020 C   0  0  0  0  0  0  0  0  0  0  0  0
   10.8100   -2.0320   22.3020 C   0  0  0  0  0  0  0  0  0  0  0  0
    9.8990   -1.1970   24.3060 C   0  0  0  0  0  0  0  0  0  0  0  0
    7.3550   -4.1190   24.1280 C   0  0  0  0  0  0  0  0  0  0  0  0
    5.9940   -5.2370   22.0530 C   0  0  0  0  0  0  0  0  0  0  0  0
   15.3950    4.9420   22.4430 C   0  0  0  0  0  0  0  0  0  0  0  0
   11.0190   -1.6290   23.6090 C   0  0  0  0  0  0  0  0  0  0  0  0
    6.2460   -4.8340   24.4230 C   0  0  2  0  0  0  0  0  0  0  0  0
    5.4010   -5.0610   23.3180 C   0  0  0  0  0  0  0  0  0  0  0  0
   12.3780   -1.6520   24.2040 C   0  0  0  0  0  0  0  0  0  0  0  0
    5.5710   -3.9780   25.5220 C   0  0  0  0  0  0  0  0  0  0  0  0
   16.6900    4.3800   22.7240 C   0  0  0  0  0  0  0  0  0  0  0  0
   12.5440   -0.5910   25.0590 C   0  0  0  0  0  0  0  0  0  0  0  0
   13.3670   -1.4790   23.0440 C   0  0  0  0  0  0  0  0  0  0  0  0
   12.7850   -2.9450   24.9230 C   0  0  0  0  0  0  0  0  0  0  0  0
    6.2130   -3.8020   26.7000 N   0  0  0  0  0  0  0  0  0  0  0  0
    4.4770   -3.4410   25.3610 O   0  0  0  0  0  0  0  0  0  0  0  0
   17.5710    5.1880   23.5270 C   0  0  0  0  0  0  0  0  0  0  0  0
    6.2420   -5.0220   27.5550 C   0  0  0  0  0  0  0  0  0  0  0  0
    6.4530   -2.4880   27.2410 C   0  0  0  0  0  0  0  0  0  0  0  0
   18.8700    5.8000   23.1790 C   0  0  0  0  0  0  0  0  0  0  0  0
    6.9150   -4.7660   28.7560 C   0  0  0  0  0  0  0  0  0  0  0  0
    4.8990   -5.2670   27.7720 C   0  0  0  0  0  0  0  0  0  0  0  0
   19.2780    7.1490   23.3950 C   0  0  0  0  0  0  0  0  0  0  0  0
   20.6120    7.3340   22.7300 N   0  0  0  0  0  0  0  0  0  0  0  0
   21.5580    6.3440   23.0660 C   0  0  0  0  0  0  0  0  0  0  0  0
   22.7400    5.7970   22.1620 C   0  0  0  0  0  0  0  0  0  0  0  0
   21.3920    5.8150   24.3130 C   0  0  0  0  0  0  0  0  0  0  0  0
   23.6550    4.6310   22.7630 C   0  0  0  0  0  0  0  0  0  0  0  0
   22.2880    4.7540   24.7240 C   0  0  0  0  0  0  0  0  0  0  0  0
   23.3610    4.1700   24.0120 C   0  0  0  0  0  0  0  0  0  0  0  0
   24.1590    2.8200   24.9510 S   0  0  0  0  0  0  0  0  0  0  0  0
   23.0890    1.6320   24.9720 O   0  0  0  0  0  0  0  0  0  0  0  0
   24.2760    3.3010   26.5590 N   0  0  0  0  0  0  0  0  0  0  0  0
   25.4400    2.4750   24.4120 O   0  0  0  0  0  0  0  0  0  0  0  0
   25.0750    4.3790   26.9610 C   0  0  0  0  0  0  0  0  0  0  0  0
   25.0010    4.5130   28.3060 N   0  0  0  0  0  0  0  0  0  0  0  0
   25.8140    5.1610   26.0720 C   0  0  0  0  0  0  0  0  0  0  0  0
   25.7920    5.6030   28.8490 C   0  0  0  0  0  0  0  0  0  0  0  0
   26.6090    6.2350   26.4990 C   0  0  0  0  0  0  0  0  0  0  0  0
   26.6660    6.5600   28.0020 C   0  0  0  0  0  0  0  0  0  0  0  0
  1  2  1  0
  2  3  1  0
  1  4  1  0
  4  5  2  0
  6  4  1  6
  6  7  1  0
  3  8  1  0
  6  9  1  0
  8 10  1  0
  8 11  2  0
  7 12  1  0
  7 13  1  0
  9 14  2  0
  9 15  1  0
  7 16  1  1
 10 17  1  0
 12 18  2  0
 15 19  2  0
 14 20  1  0
 16 21  2  0
 16 22  1  0
 12 23  1  0
 24 13  1  1
 23 24  1  0
 17 25  1  0
 23 26  1  6
 19 27  1  0
 20 27  2  0
 21 28  1  0
 22 29  2  0
 24 30  1  0
 23 31  1  0
 25 32  1  0
 28 33  2  0
 29 33  1  0
 30 34  1  0
 31 35  1  0
 34 35  1  0
 33 36  1  0
 34 37  1  1
 32 38  1  0
 36 39  1  0
 36 40  1  0
 36 41  1  0
 37 42  1  0
 37 43  2  0
 38 44  1  0
 42 45  1  0
 42 46  1  0
 44 47  1  0
 45 48  1  0
 45 49  1  0
 47 50  1  0
 50 51  1  0
 51 52  1  0
 52 53  2  0
 52 54  1  0
 53 55  1  0
 54 56  2  0
 55 57  2  0
 56 57  1  0
 57 58  1  0
 58 59  2  0
 58 60  1  0
 58 61  2  0
 60 62  1  0
 62 63  2  0
 62 64  1  0
 63 65  1  0
 64 66  2  0
 65 67  2  0
 66 67  1  0
M  END
