x1119-x2694-x0731
     RDKit          3D

 75 82  0  0  0  0  0  0  0  0999 V2000
    6.7770   -1.1970   21.9360 C   0  0  1  0  0  0  0  0  0  0  0  0
    5.8780   -2.1820   21.0270 C   0  0  0  0  0  0  0  0  0  0  0  0
    4.7440   -2.8510   20.9270 O   0  0  0  0  0  0  0  0  0  0  0  0
    6.6490    0.3330   21.7330 C   0  0  1  0  0  0  0  0  0  0  0  0
    5.8650   -1.8350   23.0000 C   0  0  0  0  0  0  0  0  0  0  0  0
    8.2780   -1.3450   22.5730 C   0  0  0  0  0  0  0  0  0  0  0  0
    6.7870   -2.3080   19.9960 C   0  0  0  0  0  0  0  0  0  0  0  0
    7.7110    1.2510   21.9170 C   0  0  0  0  0  0  0  0  0  0  0  0
    5.5800   -3.2330   22.7050 C   0  0  0  0  0  0  0  0  0  0  0  0
    6.1920    0.6700   20.3020 C   0  0  0  0  0  0  0  0  0  0  0  0
    8.4750   -1.5760   24.0290 N   0  0  0  0  0  0  0  0  0  0  0  0
    9.5930   -1.2820   22.0360 C   0  0  0  0  0  0  0  0  0  0  0  0
    6.8430   -3.7640   20.0500 C   0  0  0  0  0  0  0  0  0  0  0  0
    7.6760    2.1850   22.9820 N   0  0  0  0  0  0  0  0  0  0  0  0
    8.6730    1.3070   21.1300 O   0  0  0  0  0  0  0  0  0  0  0  0
    5.0620    1.4460   20.1350 C   0  0  0  0  0  0  0  0  0  0  0  0
    6.8780    0.2320   19.1740 C   0  0  0  0  0  0  0  0  0  0  0  0
    9.8470   -1.6280   24.2560 O   0  0  0  0  0  0  0  0  0  0  0  0
   10.5460   -1.4540   23.0950 C   0  0  0  0  0  0  0  0  0  0  0  0
    6.4510   -4.2460   21.6590 C   0  0  0  0  0  0  0  0  0  0  0  0
   12.0990   -1.4750   23.1900 C   0  0  0  0  0  0  0  0  0  0  0  0
    6.3920    0.6110   17.8460 N   0  0  0  0  0  0  0  0  0  0  0  0
    4.5760    1.8210   18.9040 C   0  0  0  0  0  0  0  0  0  0  0  0
    8.4880    3.3410   23.1080 C   0  0  0  0  0  0  0  0  0  0  0  0
    7.5150   -4.5700   22.4640 C   0  0  0  0  0  0  0  0  0  0  0  0
    5.7730   -5.6440   21.6470 C   0  0  0  0  0  0  0  0  0  0  0  0
   12.5540   -0.1540   23.3970 C   0  0  0  0  0  0  0  0  0  0  0  0
   12.7190   -1.8770   21.8200 C   0  0  0  0  0  0  0  0  0  0  0  0
   12.5670   -2.4120   24.1430 C   0  0  0  0  0  0  0  0  0  0  0  0
    5.1980    1.4400   17.7460 C   0  0  0  0  0  0  0  0  0  0  0  0
    9.7610    3.2070   23.6740 C   0  0  0  0  0  0  0  0  0  0  0  0
    8.0770    4.6130   22.6900 C   0  0  0  0  0  0  0  0  0  0  0  0
    7.3010   -4.8470   23.8180 C   0  0  0  0  0  0  0  0  0  0  0  0
    5.1690   -5.9690   22.8920 C   0  0  0  0  0  0  0  0  0  0  0  0
   10.2490    1.8660   24.1380 C   0  0  0  0  0  0  0  0  0  0  0  0
   10.5980    4.3300   23.8120 C   0  0  0  0  0  0  0  0  0  0  0  0
    8.9170    5.7180   22.8360 C   0  0  0  0  0  0  0  0  0  0  0  0
    5.9320   -5.4170   24.0450 N   0  0  0  0  0  0  0  0  0  0  0  0
    5.2260   -5.4450   25.5930 S   0  0  0  0  0  0  0  0  0  0  0  0
   10.1910    5.5980   23.3980 C   0  0  0  0  0  0  0  0  0  0  0  0
   11.0750    6.6130   23.5760 O   0  0  0  0  0  0  0  0  0  0  0  0
    6.1790   -5.0790   26.5920 O   0  0  0  0  0  0  0  0  0  0  0  0
    4.5040   -6.6870   25.6940 O   0  0  0  0  0  0  0  0  0  0  0  0
    4.0490   -4.1840   25.6970 C   0  0  0  0  0  0  0  0  0  0  0  0
   12.4640    6.3210   23.6820 C   0  0  0  0  0  0  0  0  0  0  0  0
    2.7450   -4.3920   25.2160 C   0  0  0  0  0  0  0  0  0  0  0  0
    4.4190   -2.9680   26.2840 C   0  0  0  0  0  0  0  0  0  0  0  0
   12.9710    5.5600   22.5740 C   0  0  0  0  0  0  0  0  0  0  0  0
    1.7480   -3.4140   25.3010 C   0  0  0  0  0  0  0  0  0  0  0  0
    3.4970   -1.9350   26.4140 C   0  0  0  0  0  0  0  0  0  0  0  0
   14.0100    4.6410   22.8900 C   0  0  0  0  0  0  0  0  0  0  0  0
    2.1810   -2.1130   25.9530 C   0  0  0  0  0  0  0  0  0  0  0  0
   15.2870    5.0840   22.4960 C   0  0  0  0  0  0  0  0  0  0  0  0
    1.1940   -0.9970   26.1170 C   0  0  0  0  0  0  0  0  0  0  0  0
   16.4430    4.5880   23.1970 C   0  0  0  0  0  0  0  0  0  0  0  0
   17.8190    4.5690   22.8850 C   0  0  0  0  0  0  0  0  0  0  0  0
   19.0460    5.3520   23.4360 C   0  0  0  0  0  0  0  0  0  0  0  0
   19.3290    6.8980   23.4810 C   0  0  0  0  0  0  0  0  0  0  0  0
   20.5830    7.3420   23.1980 N   0  0  0  0  0  0  0  0  0  0  0  0
   21.4860    6.3700   23.4980 C   0  0  0  0  0  0  0  0  0  0  0  0
   22.5690    5.8620   22.7680 C   0  0  0  0  0  0  0  0  0  0  0  0
   21.2580    5.7080   24.8560 C   0  0  0  0  0  0  0  0  0  0  0  0
   23.4130    4.7180   23.3170 C   0  0  0  0  0  0  0  0  0  0  0  0
   22.0080    4.7250   25.2850 C   0  0  0  0  0  0  0  0  0  0  0  0
   23.0800    4.2210   24.5110 C   0  0  0  0  0  0  0  0  0  0  0  0
   23.9070    2.8370   25.3220 S   0  0  0  0  0  0  0  0  0  0  0  0
   22.8830    1.8490   25.3730 O   0  0  0  0  0  0  0  0  0  0  0  0
   24.1490    3.3600   26.8930 N   0  0  0  0  0  0  0  0  0  0  0  0
   25.1580    2.5820   24.6590 O   0  0  0  0  0  0  0  0  0  0  0  0
   24.9950    4.4160   27.2010 C   0  0  0  0  0  0  0  0  0  0  0  0
   25.0110    4.6430   28.5410 N   0  0  0  0  0  0  0  0  0  0  0  0
   25.7420    5.1530   26.2410 C   0  0  0  0  0  0  0  0  0  0  0  0
   25.7920    5.6440   29.0160 C   0  0  0  0  0  0  0  0  0  0  0  0
   26.6180    6.2740   26.7670 C   0  0  0  0  0  0  0  0  0  0  0  0
   26.6620    6.5360   28.1220 C   0  0  0  0  0  0  0  0  0  0  0  0
  1  2  1  0
  2  3  2  0
  1  4  1  0
  1  5  1  0
  1  6  1  1
  2  7  1  0
  4  8  1  6
  5  9  1  0
  4 10  1  0
  6 11  2  0
  6 12  1  0
  7 13  1  0
  8 14  1  0
  8 15  2  0
 10 16  2  0
 10 17  1  0
 11 18  1  0
 12 19  2  0
 18 19  1  0
 20  9  1  0
 13 20  1  0
 19 21  1  0
 17 22  2  0
 16 23  1  0
 14 24  1  0
 20 25  1  0
 20 26  1  0
 21 27  1  0
 21 28  1  0
 21 29  1  0
 22 30  1  0
 23 30  2  0
 24 31  2  0
 24 32  1  0
 25 33  1  0
 26 34  1  0
 31 35  1  0
 31 36  1  0
 32 37  2  0
 33 38  1  0
 34 38  1  0
 38 39  1  0
 36 40  2  0
 37 40  1  0
 40 41  1  0
 39 42  2  0
 39 43  2  0
 39 44  1  0
 41 45  1  0
 44 46  2  0
 44 47  1  0
 45 48  1  0
 46 49  1  0
 47 50  2  0
 48 51  1  0
 49 52  2  0
 50 52  1  0
 51 53  1  0
 52 54  1  0
 53 55  1  0
 55 56  1  0
 56 57  1  0
 57 58  1  0
 58 59  1  0
 59 60  1  0
 60 61  2  0
 60 62  1  0
 61 63  1  0
 62 64  2  0
 63 65  2  0
 64 65  1  0
 65 66  1  0
 66 67  2  0
 66 68  1  0
 66 69  2  0
 68 70  1  0
 70 71  2  0
 70 72  1  0
 71 73  1  0
 72 74  2  0
 73 75  2  0
 74 75  1  0
M  END
