x1119-x2694-x1358
     RDKit          3D

 73 80  0  0  0  0  0  0  0  0999 V2000
    6.9740   -1.4480   21.7630 C   0  0  1  0  0  0  0  0  0  0  0  0
    6.1230   -2.8100   21.2910 C   0  0  0  0  0  0  0  0  0  0  0  0
    4.9430   -3.0470   20.7230 O   0  0  0  0  0  0  0  0  0  0  0  0
    6.4640   -0.0400   21.5590 C   0  0  1  0  0  0  0  0  0  0  0  0
    6.4970   -1.9500   23.1200 C   0  0  0  0  0  0  0  0  0  0  0  0
    8.4840   -1.4060   22.4760 C   0  0  0  0  0  0  0  0  0  0  0  0
    7.2250    1.2050   22.1090 C   0  0  0  0  0  0  0  0  0  0  0  0
    6.1340    0.3940   20.1500 C   0  0  0  0  0  0  0  0  0  0  0  0
    8.6980   -1.1370   23.8140 N   0  0  0  0  0  0  0  0  0  0  0  0
    9.7680   -1.5930   22.0180 C   0  0  0  0  0  0  0  0  0  0  0  0
    6.7230   -4.0040   21.7630 C   0  0  2  0  0  0  0  0  0  0  0  0
    7.3020   -3.2930   22.9890 C   0  0  2  0  0  0  0  0  0  0  0  0
    7.9100   -4.5700   20.9980 C   0  0  0  0  0  0  0  0  0  0  0  0
    7.3040    2.3110   22.9240 N   0  0  0  0  0  0  0  0  0  0  0  0
    8.2610    1.1630   21.4210 O   0  0  0  0  0  0  0  0  0  0  0  0
    5.0320    1.2410   20.0800 C   0  0  0  0  0  0  0  0  0  0  0  0
    6.8210    0.0370   18.9990 C   0  0  0  0  0  0  0  0  0  0  0  0
   10.0740   -1.1700   24.1000 O   0  0  0  0  0  0  0  0  0  0  0  0
   10.7800   -1.4540   22.9730 C   0  0  0  0  0  0  0  0  0  0  0  0
    7.2970   -4.0140   24.0860 C   0  0  0  0  0  0  0  0  0  0  0  0
    5.7120   -5.0800   22.1940 C   0  0  0  0  0  0  0  0  0  0  0  0
   12.3200   -1.5230   23.1000 C   0  0  0  0  0  0  0  0  0  0  0  0
    6.3730    0.5800   17.6810 N   0  0  0  0  0  0  0  0  0  0  0  0
    4.6360    1.7260   18.8470 C   0  0  0  0  0  0  0  0  0  0  0  0
    8.3980    3.3210   23.1210 C   0  0  0  0  0  0  0  0  0  0  0  0
    6.0600   -4.4340   24.4970 C   0  0  2  0  0  0  0  0  0  0  0  0
    5.1730   -4.7980   23.4660 C   0  0  0  0  0  0  0  0  0  0  0  0
   12.6290   -0.2500   23.4110 C   0  0  0  0  0  0  0  0  0  0  0  0
   12.9490   -1.8860   21.7430 C   0  0  0  0  0  0  0  0  0  0  0  0
   12.8220   -2.4460   24.2450 C   0  0  0  0  0  0  0  0  0  0  0  0
    5.4970   -3.3740   25.4680 C   0  0  0  0  0  0  0  0  0  0  0  0
    5.3010    1.3960   17.7100 C   0  0  0  0  0  0  0  0  0  0  0  0
    9.6270    2.9770   23.6810 C   0  0  0  0  0  0  0  0  0  0  0  0
    8.2160    4.6500   22.7580 C   0  0  0  0  0  0  0  0  0  0  0  0
    9.9890    1.5950   24.1320 C   0  0  0  0  0  0  0  0  0  0  0  0
    6.4900   -2.7530   26.1600 N   0  0  0  0  0  0  0  0  0  0  0  0
    4.2960   -3.1670   25.5680 O   0  0  0  0  0  0  0  0  0  0  0  0
   10.5570    3.9730   23.8270 C   0  0  0  0  0  0  0  0  0  0  0  0
    9.2700    5.7190   22.9440 C   0  0  0  0  0  0  0  0  0  0  0  0
   10.4830    5.2700   23.5200 C   0  0  0  0  0  0  0  0  0  0  0  0
    6.4900   -1.6320   27.0220 C   0  0  0  0  0  0  0  0  0  0  0  0
   11.4970    6.1410   23.7250 O   0  0  0  0  0  0  0  0  0  0  0  0
    5.8510   -0.3160   26.5840 C   0  0  0  0  0  0  0  0  0  0  0  0
    7.1310   -1.6640   28.4350 C   0  0  0  0  0  0  0  0  0  0  0  0
   12.4050    6.1450   22.6320 C   0  0  0  0  0  0  0  0  0  0  0  0
    5.2630   -0.1960   25.3570 O   0  0  0  0  0  0  0  0  0  0  0  0
    7.0990   -0.4870   29.2460 C   0  0  0  0  0  0  0  0  0  0  0  0
    5.8530    0.7840   27.4170 C   0  0  0  0  0  0  0  0  0  0  0  0
   13.6430    5.5590   22.9290 C   0  0  0  0  0  0  0  0  0  0  0  0
    6.5010    0.6510   28.7650 C   0  0  0  0  0  0  0  0  0  0  0  0
   14.2330    4.5350   22.1920 C   0  0  0  0  0  0  0  0  0  0  0  0
   15.8050    4.2820   22.2760 C   0  0  0  0  0  0  0  0  0  0  0  0
   16.6760    4.7990   23.3200 C   0  0  0  0  0  0  0  0  0  0  0  0
   18.0770    4.8040   23.1200 C   0  0  0  0  0  0  0  0  0  0  0  0
   18.7670    6.0250   23.5210 C   0  0  0  0  0  0  0  0  0  0  0  0
   19.4740    6.8130   22.5240 C   0  0  0  0  0  0  0  0  0  0  0  0
   20.9170    7.0280   22.7060 N   0  0  0  0  0  0  0  0  0  0  0  0
   21.7560    6.0040   23.2910 C   0  0  0  0  0  0  0  0  0  0  0  0
   23.1140    6.1390   23.2760 C   0  0  0  0  0  0  0  0  0  0  0  0
   21.1140    4.9370   23.8380 C   0  0  0  0  0  0  0  0  0  0  0  0
   23.8510    5.1490   23.8620 C   0  0  0  0  0  0  0  0  0  0  0  0
   21.7740    3.7790   24.5060 C   0  0  0  0  0  0  0  0  0  0  0  0
   23.2430    3.8750   24.5460 C   0  0  0  0  0  0  0  0  0  0  0  0
   24.0500    2.5410   25.3500 S   0  0  0  0  0  0  0  0  0  0  0  0
   23.0180    1.5470   25.5530 O   0  0  0  0  0  0  0  0  0  0  0  0
   24.3870    3.0510   26.9350 N   0  0  0  0  0  0  0  0  0  0  0  0
   25.2660    2.2660   24.6390 O   0  0  0  0  0  0  0  0  0  0  0  0
   25.1180    4.2110   27.2030 C   0  0  0  0  0  0  0  0  0  0  0  0
   25.0480    4.6100   28.6210 N   0  0  0  0  0  0  0  0  0  0  0  0
   25.9090    5.0110   26.2090 C   0  0  0  0  0  0  0  0  0  0  0  0
   25.7420    5.7350   28.9380 C   0  0  0  0  0  0  0  0  0  0  0  0
   26.6060    6.1500   26.5600 C   0  0  0  0  0  0  0  0  0  0  0  0
   26.5720    6.5720   27.8910 C   0  0  0  0  0  0  0  0  0  0  0  0
  1  2  1  0
  2  3  2  0
  1  4  1  0
  1  5  1  0
  1  6  1  1
  4  7  1  6
  4  8  1  0
  6  9  2  0
  6 10  1  0
  2 11  1  0
 12  5  1  1
 11 12  1  0
 11 13  1  6
  7 14  1  0
  7 15  2  0
  8 16  2  0
  8 17  1  0
  9 18  1  0
 10 19  2  0
 18 19  1  0
 12 20  1  0
 11 21  1  0
 19 22  1  0
 17 23  2  0
 16 24  1  0
 14 25  1  0
 20 26  1  0
 21 27  1  0
 26 27  1  0
 22 28  1  0
 22 29  1  0
 22 30  1  0
 26 31  1  6
 23 32  1  0
 24 32  2  0
 25 33  2  0
 25 34  1  0
 33 35  1  0
 31 36  1  0
 31 37  2  0
 33 38  1  0
 34 39  2  0
 38 40  2  0
 39 40  1  0
 36 41  1  0
 40 42  1  0
 41 43  2  0
 41 44  1  0
 42 45  1  0
 43 46  1  0
 44 47  2  0
 43 48  1  0
 45 49  1  0
 47 50  1  0
 48 50  2  0
 49 51  1  0
 51 52  1  0
 52 53  1  0
 53 54  1  0
 54 55  1  0
 55 56  1  0
 56 57  1  0
 57 58  1  0
 58 59  2  0
 58 60  1  0
 59 61  1  0
 60 62  2  0
 61 63  2  0
 62 63  1  0
 63 64  1  0
 64 65  2  0
 64 66  1  0
 64 67  2  0
 66 68  1  0
 68 69  2  0
 68 70  1  0
 69 71  1  0
 70 72  2  0
 71 73  2  0
 72 73  1  0
M  END
