x1119-x3117-x0771-x3113
     RDKit          3D

 76 84  0  0  0  0  0  0  0  0999 V2000
    6.7940   -1.5640   22.1430 C   0  0  1  0  0  0  0  0  0  0  0  0
    5.8790   -2.4960   21.1380 C   0  0  0  0  0  0  0  0  0  0  0  0
    4.7230   -2.9960   21.4230 O   0  0  0  0  0  0  0  0  0  0  0  0
    6.5310   -0.0180   22.0690 C   0  0  1  0  0  0  0  0  0  0  0  0
    6.4360   -2.5360   23.2540 C   0  0  0  0  0  0  0  0  0  0  0  0
    8.3840   -1.7000   22.5400 C   0  0  0  0  0  0  0  0  0  0  0  0
    6.3250   -2.9930   19.8660 C   0  0  0  0  0  0  0  0  0  0  0  0
    7.9090    0.7890   22.3130 C   0  0  0  0  0  0  0  0  0  0  0  0
    6.1830    0.3840   20.6140 C   0  0  0  0  0  0  0  0  0  0  0  0
    9.4520   -2.0390   21.7340 C   0  0  0  0  0  0  0  0  0  0  0  0
    8.7110   -1.4280   23.8910 C   0  0  0  0  0  0  0  0  0  0  0  0
    7.2210   -3.8990   22.9540 C   0  0  2  0  0  0  0  0  0  0  0  0
    7.4270   -3.8290   20.3430 C   0  0  0  0  0  0  0  0  0  0  0  0
    8.3420    1.6890   23.3950 N   0  0  0  0  0  0  0  0  0  0  0  0
    8.8050    0.6060   21.2370 O   0  0  0  0  0  0  0  0  0  0  0  0
    4.9360    1.2700   20.3800 C   0  0  0  0  0  0  0  0  0  0  0  0
    6.9680   -0.0390   19.5380 C   0  0  0  0  0  0  0  0  0  0  0  0
   10.7580   -2.1120   22.2010 C   0  0  0  0  0  0  0  0  0  0  0  0
   10.0080   -1.4960   24.3790 C   0  0  0  0  0  0  0  0  0  0  0  0
    7.0500   -4.6040   21.6040 N   0  0  0  0  0  0  0  0  0  0  0  0
    6.9270   -4.8320   24.1110 C   0  0  0  0  0  0  0  0  0  0  0  0
    6.5810    0.3820   18.1780 N   0  0  0  0  0  0  0  0  0  0  0  0
    4.5080    1.7080   19.1250 C   0  0  0  0  0  0  0  0  0  0  0  0
   11.0250   -1.8370   23.5380 C   0  0  0  0  0  0  0  0  0  0  0  0
    9.5800    2.5470   23.0840 C   0  0  2  0  0  0  0  0  0  0  0  0
    6.1030   -5.7640   21.6100 C   0  0  0  0  0  0  0  0  0  0  0  0
    5.5420   -5.3150   24.0760 N   0  0  0  0  0  0  0  0  0  0  0  0
   10.7130    1.4880   22.9560 C   0  0  0  0  0  0  0  0  0  0  0  0
   12.4890   -1.9260   23.9590 C   0  0  0  0  0  0  0  0  0  0  0  0
    4.8730   -5.7250   25.5970 S   0  0  0  0  0  0  0  0  0  0  0  0
    5.3800    1.2430   17.9420 C   0  0  0  0  0  0  0  0  0  0  0  0
   10.2420    3.4480   24.0010 C   0  0  1  0  0  0  0  0  0  0  0  0
    9.2100    3.2120   21.9810 C   0  0  0  0  0  0  0  0  0  0  0  0
    5.0950   -5.9280   22.7940 C   0  0  0  0  0  0  0  0  0  0  0  0
   11.6900    3.5010   23.4640 N   0  0  0  0  0  0  0  0  0  0  0  0
   11.9360    2.1510   23.0700 C   0  0  0  0  0  0  0  0  0  0  0  0
   13.3880   -2.1900   22.9460 C   0  0  0  0  0  0  0  0  0  0  0  0
   12.7840   -2.9930   25.0280 C   0  0  0  0  0  0  0  0  0  0  0  0
   12.7920   -0.6120   24.6620 C   0  0  0  0  0  0  0  0  0  0  0  0
    4.3140   -7.0530   25.4860 O   0  0  0  0  0  0  0  0  0  0  0  0
    5.8470   -5.4120   26.6220 O   0  0  0  0  0  0  0  0  0  0  0  0
    9.6660    4.7680   24.2090 O   0  0  0  0  0  0  0  0  0  0  0  0
    8.3900    4.4690   22.3450 C   0  0  0  0  0  0  0  0  0  0  0  0
    3.5910   -4.4940   25.7450 C   0  0  0  0  0  0  0  0  0  0  0  0
   12.4560    4.6110   22.7240 C   0  0  0  0  0  0  0  0  0  0  0  0
    9.1000    5.4160   23.0620 C   0  0  0  0  0  0  0  0  0  0  0  0
    2.2500   -4.7540   25.4200 C   0  0  0  0  0  0  0  0  0  0  0  0
    3.9790   -3.2240   26.2080 C   0  0  0  0  0  0  0  0  0  0  0  0
   13.8710    4.9430   23.0210 C   0  0  0  0  0  0  0  0  0  0  0  0
    1.7610   -6.0840   24.9160 C   0  0  0  0  0  0  0  0  0  0  0  0
    1.3170   -3.7150   25.5730 C   0  0  0  0  0  0  0  0  0  0  0  0
    3.0370   -2.2080   26.3510 C   0  0  0  0  0  0  0  0  0  0  0  0
   14.9650    4.4350   22.2260 C   0  0  0  0  0  0  0  0  0  0  0  0
    1.6960   -2.4470   26.0360 C   0  0  0  0  0  0  0  0  0  0  0  0
   16.4230    4.4100   22.5360 C   0  0  0  0  0  0  0  0  0  0  0  0
    0.6750   -1.3600   26.1950 C   0  0  0  0  0  0  0  0  0  0  0  0
   17.1650    5.1570   23.5250 C   0  0  0  0  0  0  0  0  0  0  0  0
   18.5400    5.5680   23.2360 C   0  0  0  0  0  0  0  0  0  0  0  0
   19.1050    6.9060   23.5290 C   0  0  0  0  0  0  0  0  0  0  0  0
   20.4520    7.2050   22.9300 N   0  0  0  0  0  0  0  0  0  0  0  0
   21.4770    6.2630   23.1540 C   0  0  0  0  0  0  0  0  0  0  0  0
   22.5660    5.8720   22.3490 C   0  0  0  0  0  0  0  0  0  0  0  0
   21.3360    5.6370   24.3710 C   0  0  0  0  0  0  0  0  0  0  0  0
   23.5640    4.7410   22.8230 C   0  0  0  0  0  0  0  0  0  0  0  0
   22.1910    4.6490   24.7930 C   0  0  0  0  0  0  0  0  0  0  0  0
   23.3340    4.1470   24.0410 C   0  0  0  0  0  0  0  0  0  0  0  0
   24.1140    2.8330   24.9430 S   0  0  0  0  0  0  0  0  0  0  0  0
   23.1580    1.7390   25.0190 O   0  0  0  0  0  0  0  0  0  0  0  0
   24.2450    3.3440   26.5860 N   0  0  0  0  0  0  0  0  0  0  0  0
   25.4660    2.6830   24.4980 O   0  0  0  0  0  0  0  0  0  0  0  0
   25.0450    4.3980   27.0360 C   0  0  0  0  0  0  0  0  0  0  0  0
   25.1000    4.5880   28.3760 N   0  0  0  0  0  0  0  0  0  0  0  0
   25.7240    5.1740   26.1000 C   0  0  0  0  0  0  0  0  0  0  0  0
   25.9280    5.6850   28.8750 C   0  0  0  0  0  0  0  0  0  0  0  0
   26.5260    6.2280   26.5320 C   0  0  0  0  0  0  0  0  0  0  0  0
   26.6420    6.5130   28.0380 C   0  0  0  0  0  0  0  0  0  0  0  0
  1  2  1  0
  2  3  2  0
  1  4  1  0
  1  5  1  0
  1  6  1  6
  2  7  1  0
  4  8  1  6
  4  9  1  0
  6 10  2  0
  6 11  1  0
 12  5  1  6
  7 13  1  0
  8 14  1  0
  8 15  2  0
  9 16  2  0
  9 17  1  0
 10 18  1  0
 11 19  2  0
 12 20  1  0
 13 20  1  0
 12 21  1  0
 17 22  2  0
 16 23  1  0
 18 24  2  0
 19 24  1  0
 25 14  1  1
 20 26  1  0
 21 27  1  0
 25 28  1  0
 24 29  1  0
 27 30  1  0
 22 31  1  0
 23 31  2  0
 25 32  1  0
 25 33  1  0
 26 34  1  0
 27 34  1  0
 32 35  1  0
 28 36  1  0
 35 36  1  0
 29 37  1  0
 29 38  1  0
 29 39  1  0
 30 40  2  0
 30 41  2  0
 32 42  1  6
 33 43  1  0
 30 44  1  0
 35 45  1  0
 42 46  1  0
 43 46  1  0
 44 47  2  0
 44 48  1  0
 45 49  1  0
 47 50  1  0
 47 51  1  0
 48 52  2  0
 49 53  1  0
 51 54  2  0
 52 54  1  0
 53 55  1  0
 54 56  1  0
 55 57  1  0
 57 58  1  0
 58 59  1  0
 59 60  1  0
 60 61  1  0
 61 62  2  0
 61 63  1  0
 62 64  1  0
 63 65  2  0
 64 66  2  0
 65 66  1  0
 66 67  1  0
 67 68  2  0
 67 69  1  0
 67 70  2  0
 69 71  1  0
 71 72  2  0
 71 73  1  0
 72 74  1  0
 73 75  2  0
 74 76  2  0
 75 76  1  0
M  END
