x1119-x3110-x0946-x1478
     RDKit          3D

 68 73  0  0  0  0  0  0  0  0999 V2000
    7.9700    1.1440   23.4090 N   0  0  0  0  0  0  0  0  0  0  0  0
    8.7240    2.3980   23.7230 C   0  0  0  0  0  0  0  0  0  0  0  0
   10.2380    2.4860   23.3860 C   0  0  0  0  0  0  0  0  0  0  0  0
    7.7040    0.8090   21.9790 C   0  0  0  0  0  0  0  0  0  0  0  0
    8.4980    1.4640   20.9530 O   0  0  0  0  0  0  0  0  0  0  0  0
    6.6550   -0.1180   21.5800 C   0  0  2  0  0  0  0  0  0  0  0  0
    7.0100   -1.5760   21.8100 N   0  0  0  0  0  0  0  0  0  0  0  0
    6.2610    0.2770   20.2550 C   0  0  0  0  0  0  0  0  0  0  0  0
   11.1640    3.7500   23.3610 C   0  0  0  0  0  0  0  0  0  0  0  0
   10.8980    1.1450   23.0230 C   0  0  0  0  0  0  0  0  0  0  0  0
   10.4560    5.0590   23.7570 C   0  0  0  0  0  0  0  0  0  0  0  0
    6.2750   -2.8750   21.4890 C   0  0  0  0  0  0  0  0  0  0  0  0
    5.1660    1.1250   20.1620 C   0  0  0  0  0  0  0  0  0  0  0  0
    6.8300   -0.0560   19.0470 C   0  0  0  0  0  0  0  0  0  0  0  0
    8.3260   -1.6350   22.4300 C   0  0  0  0  0  0  0  0  0  0  0  0
   12.2220    1.0550   22.6880 C   0  0  0  0  0  0  0  0  0  0  0  0
   12.5420    3.6620   22.9980 C   0  0  0  0  0  0  0  0  0  0  0  0
   13.6290    4.7900   22.8910 C   0  0  2  0  0  0  0  0  0  0  0  0
    4.9770   -3.1350   21.1040 O   0  0  0  0  0  0  0  0  0  0  0  0
    7.2000   -4.0560   21.7950 C   0  0  2  0  0  0  0  0  0  0  0  0
   10.2010    6.0860   22.7690 N   0  0  0  0  0  0  0  0  0  0  0  0
   11.2280    5.7730   24.6640 O   0  0  0  0  0  0  0  0  0  0  0  0
    9.5110    4.7320   24.4240 O   0  0  0  0  0  0  0  0  0  0  0  0
    6.3690    0.4230   17.7670 N   0  0  0  0  0  0  0  0  0  0  0  0
    4.6400    1.6380   18.9830 C   0  0  0  0  0  0  0  0  0  0  0  0
    9.4240   -2.0130   21.7040 C   0  0  0  0  0  0  0  0  0  0  0  0
    8.5540   -1.3130   23.7700 C   0  0  0  0  0  0  0  0  0  0  0  0
   13.0850    2.3030   22.6620 C   0  0  0  0  0  0  0  0  0  0  0  0
   12.8620    6.0760   22.4830 C   0  0  0  0  0  0  0  0  0  0  0  0
    6.8460   -4.0400   20.2810 C   0  0  0  0  0  0  0  0  0  0  0  0
   14.7970    4.6070   21.9030 C   0  0  0  0  0  0  0  0  0  0  0  0
    5.2020    1.3220   17.8000 C   0  0  0  0  0  0  0  0  0  0  0  0
   10.8620   -2.0940   22.2690 C   0  0  0  0  0  0  0  0  0  0  0  0
    9.8510   -1.3710   24.3280 C   0  0  0  0  0  0  0  0  0  0  0  0
    6.5200   -4.5020   23.1160 C   0  0  2  0  0  0  0  0  0  0  0  0
   16.2860    4.1770   22.2460 C   0  0  0  0  0  0  0  0  0  0  0  0
   10.9990   -1.7490   23.6010 C   0  0  0  0  0  0  0  0  0  0  0  0
    5.0810   -4.8000   23.0510 N   0  0  0  0  0  0  0  0  0  0  0  0
    6.7540   -3.3070   24.0490 C   0  0  0  0  0  0  0  0  0  0  0  0
   12.4090   -1.7700   24.2350 C   0  0  0  0  0  0  0  0  0  0  0  0
   17.1470    4.8670   23.3780 C   0  0  0  0  0  0  0  0  0  0  0  0
    5.7260   -2.4700   24.4610 C   0  0  0  0  0  0  0  0  0  0  0  0
    4.0980   -3.8470   23.3990 C   0  0  0  0  0  0  0  0  0  0  0  0
    4.8130   -6.2230   22.9670 C   0  0  0  0  0  0  0  0  0  0  0  0
   12.5900   -0.6790   25.0610 C   0  0  0  0  0  0  0  0  0  0  0  0
   13.4200   -1.6970   23.1410 C   0  0  0  0  0  0  0  0  0  0  0  0
   12.7520   -3.0150   25.0350 C   0  0  0  0  0  0  0  0  0  0  0  0
   18.6550    5.0450   22.9720 C   0  0  0  0  0  0  0  0  0  0  0  0
    4.4090   -2.6720   24.0900 C   0  0  0  0  0  0  0  0  0  0  0  0
    6.3350   -6.8710   22.3390 Cl  0  0  0  0  0  0  0  0  0  0  0  0
   19.2930    6.3450   22.7650 C   0  0  0  0  0  0  0  0  0  0  0  0
   20.6170    6.7520   22.8240 N   0  0  0  0  0  0  0  0  0  0  0  0
   21.5260    5.8570   23.2990 C   0  0  0  0  0  0  0  0  0  0  0  0
   22.8340    5.7760   22.8320 C   0  0  0  0  0  0  0  0  0  0  0  0
   21.0960    5.0250   24.2620 C   0  0  0  0  0  0  0  0  0  0  0  0
   23.6780    4.8020   23.3950 C   0  0  0  0  0  0  0  0  0  0  0  0
   21.9250    4.1040   24.7590 C   0  0  0  0  0  0  0  0  0  0  0  0
   23.1820    3.9860   24.3530 C   0  0  0  0  0  0  0  0  0  0  0  0
   23.9780    2.6710   25.2190 S   0  0  0  0  0  0  0  0  0  0  0  0
   23.0140    1.5970   25.3050 O   0  0  0  0  0  0  0  0  0  0  0  0
   24.2370    3.2650   26.7840 N   0  0  0  0  0  0  0  0  0  0  0  0
   25.2800    2.4610   24.6500 O   0  0  0  0  0  0  0  0  0  0  0  0
   25.0420    4.3520   27.1260 C   0  0  0  0  0  0  0  0  0  0  0  0
   25.1100    4.5900   28.4490 N   0  0  0  0  0  0  0  0  0  0  0  0
   25.7840    5.1980   26.0840 C   0  0  0  0  0  0  0  0  0  0  0  0
   25.8630    5.6210   28.8800 C   0  0  0  0  0  0  0  0  0  0  0  0
   26.5560    6.2590   26.5830 C   0  0  0  0  0  0  0  0  0  0  0  0
   26.6550    6.5450   27.9530 C   0  0  0  0  0  0  0  0  0  0  0  0
  1  2  1  0
  2  3  1  0
  1  4  1  0
  4  5  2  0
  6  4  1  6
  6  7  1  0
  6  8  1  0
  3  9  2  0
  3 10  1  0
  9 11  1  0
  7 12  1  0
  8 13  2  0
  8 14  1  0
  7 15  1  0
 10 16  2  0
  9 17  1  0
 17 18  1  0
 12 19  2  0
 12 20  1  0
 11 21  1  0
 11 22  1  0
 11 23  1  0
 14 24  2  0
 13 25  1  0
 15 26  2  0
 15 27  1  0
 16 28  1  0
 17 28  2  0
 18 29  1  6
 20 30  1  6
 18 31  1  0
 24 32  1  0
 25 32  2  0
 26 33  1  0
 27 34  2  0
 20 35  1  0
 31 36  1  0
 33 37  2  0
 34 37  1  0
 35 38  1  0
 35 39  1  1
 37 40  1  0
 36 41  1  0
 39 42  2  0
 38 43  1  0
 38 44  1  0
 40 45  1  0
 40 46  1  0
 40 47  1  0
 41 48  1  0
 42 49  1  0
 43 49  2  0
 44 50  1  0
 48 51  1  0
 51 52  1  0
 52 53  1  0
 53 54  2  0
 53 55  1  0
 54 56  1  0
 55 57  2  0
 56 58  2  0
 57 58  1  0
 58 59  1  0
 59 60  2  0
 59 61  1  0
 59 62  2  0
 61 63  1  0
 63 64  2  0
 63 65  1  0
 64 66  1  0
 65 67  2  0
 66 68  2  0
 67 68  1  0
M  END
