x1119-x2694-x0540
     RDKit          3D

 69 74  0  0  0  0  0  0  0  0999 V2000
    7.0810   -1.6240   21.8350 N   0  0  0  0  0  0  0  0  0  0  0  0
    6.1800   -2.8280   21.5770 C   0  0  0  0  0  0  0  0  0  0  0  0
    4.8770   -3.0550   21.2360 O   0  0  0  0  0  0  0  0  0  0  0  0
    6.7820   -0.1550   21.5730 C   0  0  1  0  0  0  0  0  0  0  0  0
    8.3270   -1.6920   22.6070 C   0  0  0  0  0  0  0  0  0  0  0  0
    6.9450   -4.1040   21.7380 C   0  0  0  0  0  0  0  0  0  0  0  0
    7.9530    0.9000   21.9080 C   0  0  0  0  0  0  0  0  0  0  0  0
    6.1900    0.3050   20.2690 C   0  0  0  0  0  0  0  0  0  0  0  0
    8.4550   -1.8590   23.9490 N   0  0  0  0  0  0  0  0  0  0  0  0
    9.6550   -1.5750   22.1620 C   0  0  0  0  0  0  0  0  0  0  0  0
    6.8100   -4.8530   20.4360 C   0  0  0  0  0  0  0  0  0  0  0  0
    7.6230    1.9890   22.7520 N   0  0  0  0  0  0  0  0  0  0  0  0
    9.0690    0.7790   21.4210 O   0  0  0  0  0  0  0  0  0  0  0  0
    4.9680    0.9440   20.2170 C   0  0  0  0  0  0  0  0  0  0  0  0
    6.8750    0.1240   18.9820 C   0  0  0  0  0  0  0  0  0  0  0  0
    9.8140   -1.8390   24.3080 O   0  0  0  0  0  0  0  0  0  0  0  0
   10.5740   -1.6620   23.2040 C   0  0  0  0  0  0  0  0  0  0  0  0
   12.1350   -1.5790   23.2070 C   0  0  0  0  0  0  0  0  0  0  0  0
    4.1610    1.1610   21.4770 C   0  0  0  0  0  0  0  0  0  0  0  0
    6.3460    0.6010   17.7210 N   0  0  0  0  0  0  0  0  0  0  0  0
    4.4440    1.4120   18.9940 C   0  0  0  0  0  0  0  0  0  0  0  0
    8.4650    3.1420   22.9690 C   0  0  0  0  0  0  0  0  0  0  0  0
   12.5870   -0.1280   23.4930 C   0  0  0  0  0  0  0  0  0  0  0  0
   12.7980   -1.9880   21.8750 C   0  0  0  0  0  0  0  0  0  0  0  0
   12.7050   -2.4900   24.3210 C   0  0  0  0  0  0  0  0  0  0  0  0
    4.8310    2.0400   22.3430 C   0  0  0  0  0  0  0  0  0  0  0  0
    5.1670    1.2230   17.8010 C   0  0  0  0  0  0  0  0  0  0  0  0
    9.7000    3.0360   23.6210 C   0  0  0  0  0  0  0  0  0  0  0  0
    8.0380    4.3930   22.5190 C   0  0  0  0  0  0  0  0  0  0  0  0
   10.2300    1.7230   24.1450 C   0  0  0  0  0  0  0  0  0  0  0  0
    3.9660    2.9440   23.1030 N   0  0  0  0  0  0  0  0  0  0  0  0
   10.5230    4.1400   23.8260 C   0  0  0  0  0  0  0  0  0  0  0  0
    8.8400    5.5210   22.7160 C   0  0  0  0  0  0  0  0  0  0  0  0
    2.8680    2.3820   23.6340 C   0  0  0  0  0  0  0  0  0  0  0  0
   10.0840    5.3830   23.3700 C   0  0  0  0  0  0  0  0  0  0  0  0
   10.9660    6.3970   23.6200 O   0  0  0  0  0  0  0  0  0  0  0  0
    2.9470    1.6020   24.5820 O   0  0  0  0  0  0  0  0  0  0  0  0
    1.5430    2.6600   23.0520 N   0  0  0  0  0  0  0  0  0  0  0  0
   12.3680    6.1230   23.7030 C   0  0  0  0  0  0  0  0  0  0  0  0
    0.4610    3.0610   23.8480 C   0  0  0  0  0  0  0  0  0  0  0  0
   13.0320    5.2060   22.6240 C   0  0  0  0  0  0  0  0  0  0  0  0
    0.5960    4.5400   24.2390 C   0  0  0  0  0  0  0  0  0  0  0  0
   -0.8170    2.8200   23.3810 C   0  0  0  0  0  0  0  0  0  0  0  0
   14.4180    5.1120   22.8160 C   0  0  0  0  0  0  0  0  0  0  0  0
   -0.4920    4.9600   25.0120 C   0  0  0  0  0  0  0  0  0  0  0  0
   -1.8890    3.4000   24.0460 C   0  0  0  0  0  0  0  0  0  0  0  0
   15.3640    4.3620   22.1000 C   0  0  0  0  0  0  0  0  0  0  0  0
   -1.7020    4.7450   24.3660 C   0  0  0  0  0  0  0  0  0  0  0  0
   16.7250    4.1980   22.5370 C   0  0  0  0  0  0  0  0  0  0  0  0
   17.3480    4.9510   23.5040 C   0  0  0  0  0  0  0  0  0  0  0  0
   18.7330    5.2430   23.2730 C   0  0  0  0  0  0  0  0  0  0  0  0
   19.2370    6.5690   23.5810 C   0  0  0  0  0  0  0  0  0  0  0  0
   20.4600    6.9710   23.1120 N   0  0  0  0  0  0  0  0  0  0  0  0
   21.4670    6.0140   23.4600 C   0  0  0  0  0  0  0  0  0  0  0  0
   22.8360    5.9350   22.7390 C   0  0  0  0  0  0  0  0  0  0  0  0
   21.1700    5.1720   24.4420 C   0  0  0  0  0  0  0  0  0  0  0  0
   23.8980    4.8370   23.1780 C   0  0  0  0  0  0  0  0  0  0  0  0
   22.0940    4.1410   24.8720 C   0  0  0  0  0  0  0  0  0  0  0  0
   23.4060    3.9070   24.3460 C   0  0  0  0  0  0  0  0  0  0  0  0
   24.1290    2.6100   25.1580 S   0  0  0  0  0  0  0  0  0  0  0  0
   23.0380    1.4490   25.2510 O   0  0  0  0  0  0  0  0  0  0  0  0
   24.3800    3.1720   26.7280 N   0  0  0  0  0  0  0  0  0  0  0  0
   25.4900    2.2290   24.4470 O   0  0  0  0  0  0  0  0  0  0  0  0
   25.1250    4.3090   27.0420 C   0  0  0  0  0  0  0  0  0  0  0  0
   25.1230    4.4880   28.3950 N   0  0  0  0  0  0  0  0  0  0  0  0
   25.7590    5.1070   26.0840 C   0  0  0  0  0  0  0  0  0  0  0  0
   25.8470    5.6270   28.9640 C   0  0  0  0  0  0  0  0  0  0  0  0
   26.5520    6.3300   26.5710 C   0  0  0  0  0  0  0  0  0  0  0  0
   26.5940    6.5960   28.0750 C   0  0  0  0  0  0  0  0  0  0  0  0
  1  2  1  0
  2  3  2  0
  1  4  1  0
  1  5  1  0
  2  6  1  0
  4  7  1  6
  4  8  1  0
  5  9  2  0
  5 10  1  0
  6 11  1  0
  7 12  1  0
  7 13  2  0
  8 14  1  0
  8 15  2  0
  9 16  1  0
 10 17  2  0
 16 17  1  0
 17 18  1  0
 14 19  1  0
 15 20  1  0
 14 21  2  0
 12 22  1  0
 18 23  1  0
 18 24  1  0
 18 25  1  0
 19 26  1  0
 20 27  2  0
 21 27  1  0
 22 28  2  0
 22 29  1  0
 28 30  1  0
 26 31  1  0
 28 32  1  0
 29 33  2  0
 31 34  1  0
 32 35  2  0
 33 35  1  0
 35 36  1  0
 34 37  2  0
 34 38  1  0
 36 39  1  0
 38 40  1  0
 39 41  1  0
 40 42  1  0
 40 43  1  0
 41 44  1  0
 42 45  1  0
 43 46  1  0
 44 47  1  0
 45 48  1  0
 46 48  1  0
 47 49  1  0
 49 50  1  0
 50 51  1  0
 51 52  1  0
 52 53  1  0
 53 54  1  0
 54 55  2  0
 54 56  1  0
 55 57  1  0
 56 58  2  0
 57 59  2  0
 58 59  1  0
 59 60  1  0
 60 61  2  0
 60 62  1  0
 60 63  2  0
 62 64  1  0
 64 65  2  0
 64 66  1  0
 65 67  1  0
 66 68  2  0
 67 69  2  0
 68 69  1  0
M  END
