x1119-x1348-x0540-x3113
     RDKit          3D

 77 83  0  0  0  0  0  0  0  0999 V2000
    7.5310   -1.3030   21.7010 N   0  0  0  0  0  0  0  0  0  0  0  0
    7.0700    0.0610   21.6490 C   0  0  1  0  0  0  0  0  0  0  0  0
    8.1850    1.0960   21.8550 C   0  0  0  0  0  0  0  0  0  0  0  0
    6.5140   -2.2100   21.9670 C   0  0  0  0  0  0  0  0  0  0  0  0
    8.7120   -1.5460   22.4140 C   0  0  0  0  0  0  0  0  0  0  0  0
    6.7120   -3.4600   21.5000 N   0  0  0  0  0  0  0  0  0  0  0  0
    6.3480    0.3870   20.3340 C   0  0  0  0  0  0  0  0  0  0  0  0
    9.8780   -1.3090   21.7860 C   0  0  0  0  0  0  0  0  0  0  0  0
    8.6890   -2.0290   23.8220 C   0  0  0  0  0  0  0  0  0  0  0  0
    8.6380    1.3040   22.9200 N   0  0  0  0  0  0  0  0  0  0  0  0
    8.5330    1.7360   20.6530 O   0  0  0  0  0  0  0  0  0  0  0  0
    6.3770   -3.6980   20.1710 C   0  0  0  0  0  0  0  0  0  0  0  0
    5.0740    0.9510   20.3610 C   0  0  0  0  0  0  0  0  0  0  0  0
    6.9390    0.1260   19.1220 C   0  0  0  0  0  0  0  0  0  0  0  0
   11.0960   -1.4790   22.3300 C   0  0  0  0  0  0  0  0  0  0  0  0
    9.9310   -2.2000   24.3940 C   0  0  0  0  0  0  0  0  0  0  0  0
    6.2460   -4.3220   22.4720 C   0  0  0  0  0  0  0  0  0  0  0  0
    9.5460    2.4650   23.1510 C   0  0  0  0  0  0  0  0  0  0  0  0
    4.3200    1.2440   21.6140 C   0  0  0  0  0  0  0  0  0  0  0  0
    5.3830   -4.3450   19.8360 O   0  0  0  0  0  0  0  0  0  0  0  0
    7.3030   -3.1430   19.1020 C   0  0  0  0  0  0  0  0  0  0  0  0
    6.4200    0.3920   17.8920 N   0  0  0  0  0  0  0  0  0  0  0  0
    4.4690    1.2570   19.1630 C   0  0  0  0  0  0  0  0  0  0  0  0
   11.1320   -1.9590   23.7550 C   0  0  0  0  0  0  0  0  0  0  0  0
    6.8140   -4.3080   23.7930 N   0  0  0  0  0  0  0  0  0  0  0  0
    4.9850   -5.4010   22.2520 S   0  0  0  0  0  0  0  0  0  0  0  0
   11.0850    2.3270   23.2510 C   0  0  0  0  0  0  0  0  0  0  0  0
   12.4130   -2.1610   24.4590 C   0  0  0  0  0  0  0  0  0  0  0  0
    5.0560    2.0100   22.4960 C   0  0  0  0  0  0  0  0  0  0  0  0
    5.2230    0.9500   17.9020 C   0  0  0  0  0  0  0  0  0  0  0  0
    6.1060   -5.1780   24.5550 C   0  0  0  0  0  0  0  0  0  0  0  0
    5.0620   -5.8690   23.9120 C   0  0  0  0  0  0  0  0  0  0  0  0
   11.8640    3.6510   22.9260 C   0  0  0  0  0  0  0  0  0  0  0  0
   13.4850   -2.5060   23.4040 C   0  0  0  0  0  0  0  0  0  0  0  0
   12.1960   -3.3230   25.4190 C   0  0  0  0  0  0  0  0  0  0  0  0
   12.8080   -0.8670   25.1460 C   0  0  0  0  0  0  0  0  0  0  0  0
    4.1180    2.9580   23.0660 N   0  0  0  0  0  0  0  0  0  0  0  0
    6.3190   -5.4710   26.0320 C   0  0  0  0  0  0  0  0  0  0  0  0
    4.2620   -6.7740   24.6110 C   0  0  0  0  0  0  0  0  0  0  0  0
   13.0460    3.6020   22.5070 O   0  0  0  0  0  0  0  0  0  0  0  0
    2.9050    2.4900   23.7090 C   0  0  0  0  0  0  0  0  0  0  0  0
    7.3250   -4.8430   26.7450 O   0  0  0  0  0  0  0  0  0  0  0  0
    4.4340   -7.0420   25.9620 C   0  0  0  0  0  0  0  0  0  0  0  0
    5.4610   -6.3890   26.6500 C   0  0  0  0  0  0  0  0  0  0  0  0
   13.9440    4.7050   22.8730 C   0  0  0  0  0  0  0  0  0  0  0  0
    2.8720    1.5370   24.4910 O   0  0  0  0  0  0  0  0  0  0  0  0
    1.7630    3.3140   23.2860 N   0  0  0  0  0  0  0  0  0  0  0  0
    7.9950   -5.7640   27.6000 C   0  0  0  0  0  0  0  0  0  0  0  0
   15.4660    4.5000   22.4460 C   0  0  0  0  0  0  0  0  0  0  0  0
    0.5920    3.3150   24.0450 C   0  0  0  0  0  0  0  0  0  0  0  0
   16.5050    4.7790   23.4050 C   0  0  0  0  0  0  0  0  0  0  0  0
    0.4510    4.5830   24.6160 C   0  0  0  0  0  0  0  0  0  0  0  0
   -0.6630    2.7950   23.3500 C   0  0  0  0  0  0  0  0  0  0  0  0
   17.8320    4.4220   23.0470 C   0  0  0  0  0  0  0  0  0  0  0  0
   -0.7740    4.9560   25.0470 C   0  0  0  0  0  0  0  0  0  0  0  0
   -1.8920    3.3400   23.7230 C   0  0  0  0  0  0  0  0  0  0  0  0
   18.9980    5.2050   23.3700 C   0  0  0  0  0  0  0  0  0  0  0  0
   -1.8720    4.6480   24.2330 C   0  0  0  0  0  0  0  0  0  0  0  0
   18.8820    6.5440   23.8010 C   0  0  0  0  0  0  0  0  0  0  0  0
   19.7040    7.5510   23.1900 C   0  0  0  0  0  0  0  0  0  0  0  0
   20.9920    7.4150   22.8210 N   0  0  0  0  0  0  0  0  0  0  0  0
   21.6660    6.4010   23.4430 C   0  0  0  0  0  0  0  0  0  0  0  0
   22.6210    5.6890   22.7190 C   0  0  0  0  0  0  0  0  0  0  0  0
   21.3790    6.0850   24.7890 C   0  0  0  0  0  0  0  0  0  0  0  0
   23.3450    4.5380   23.4010 C   0  0  0  0  0  0  0  0  0  0  0  0
   22.0010    5.0550   25.4320 C   0  0  0  0  0  0  0  0  0  0  0  0
   23.0000    4.2670   24.6970 C   0  0  0  0  0  0  0  0  0  0  0  0
   23.9140    2.8300   25.3380 S   0  0  0  0  0  0  0  0  0  0  0  0
   23.0100    1.7230   25.3230 O   0  0  0  0  0  0  0  0  0  0  0  0
   24.1800    3.2300   26.9450 N   0  0  0  0  0  0  0  0  0  0  0  0
   25.3240    2.6570   24.6400 O   0  0  0  0  0  0  0  0  0  0  0  0
   24.9840    4.3320   27.2720 C   0  0  0  0  0  0  0  0  0  0  0  0
   25.0460    4.6330   28.5890 N   0  0  0  0  0  0  0  0  0  0  0  0
   25.6440    5.0160   26.2500 C   0  0  0  0  0  0  0  0  0  0  0  0
   25.8020    5.6780   28.9990 C   0  0  0  0  0  0  0  0  0  0  0  0
   26.4520    6.1200   26.6020 C   0  0  0  0  0  0  0  0  0  0  0  0
   26.6000    6.5490   28.0320 C   0  0  0  0  0  0  0  0  0  0  0  0
  1  2  1  0
  2  3  1  6
  1  4  1  0
  1  5  1  0
  4  6  1  0
  2  7  1  0
  5  8  2  0
  5  9  1  0
  3 10  1  0
  3 11  2  0
  6 12  1  0
  7 13  1  0
  7 14  2  0
  8 15  1  0
  9 16  2  0
  6 17  1  0
 10 18  1  0
 13 19  1  0
 12 20  2  0
 12 21  1  0
 14 22  1  0
 13 23  2  0
 15 24  2  0
 16 24  1  0
 17 25  2  0
 17 26  1  0
 18 27  1  0
 24 28  1  0
 19 29  1  0
 22 30  2  0
 23 30  1  0
 25 31  1  0
 26 32  1  0
 31 32  2  0
 27 33  1  0
 28 34  1  0
 28 35  1  0
 28 36  1  0
 29 37  1  0
 31 38  1  0
 32 39  1  0
 33 40  1  0
 37 41  1  0
 38 42  1  0
 39 43  2  0
 38 44  2  0
 43 44  1  0
 40 45  1  0
 41 46  2  0
 41 47  1  0
 42 48  1  0
 45 49  1  0
 47 50  1  0
 49 51  1  0
 50 52  1  0
 50 53  1  0
 51 54  1  0
 52 55  1  0
 53 56  1  0
 54 57  1  0
 55 58  1  0
 56 58  1  0
 57 59  1  0
 59 60  1  0
 60 61  1  0
 61 62  1  0
 62 63  2  0
 62 64  1  0
 63 65  1  0
 64 66  2  0
 65 67  2  0
 66 67  1  0
 67 68  1  0
 68 69  2  0
 68 70  1  0
 68 71  2  0
 70 72  1  0
 72 73  2  0
 72 74  1  0
 73 75  1  0
 74 76  2  0
 75 77  2  0
 76 77  1  0
M  END
