x1119-x3115
     RDKit          3D

 53 56  0  0  0  0  0  0  0  0999 V2000
    7.0640   -1.8310   21.8120 N   0  0  0  0  0  0  0  0  0  0  0  0
    6.1510   -2.9900   21.5840 C   0  0  0  0  0  0  0  0  0  0  0  0
    4.8770   -3.0880   21.2540 O   0  0  0  0  0  0  0  0  0  0  0  0
    6.6980   -0.3660   21.5950 C   0  0  1  0  0  0  0  0  0  0  0  0
    8.4520   -2.0090   22.4390 C   0  0  0  0  0  0  0  0  0  0  0  0
    6.8110   -4.3240   21.7410 C   0  0  0  0  0  0  0  0  0  0  0  0
    7.7440    0.7090   22.0420 C   0  0  0  0  0  0  0  0  0  0  0  0
    6.1940    0.0860   20.2420 C   0  0  0  0  0  0  0  0  0  0  0  0
    9.6720   -1.6690   21.8000 C   0  0  0  0  0  0  0  0  0  0  0  0
    8.6340   -2.5220   23.7180 C   0  0  0  0  0  0  0  0  0  0  0  0
    6.7260   -5.0120   20.3950 C   0  0  0  0  0  0  0  0  0  0  0  0
    7.2060    1.6800   22.8790 N   0  0  0  0  0  0  0  0  0  0  0  0
    8.9000    0.6850   21.6360 O   0  0  0  0  0  0  0  0  0  0  0  0
    5.0470    0.9010   20.2400 C   0  0  0  0  0  0  0  0  0  0  0  0
    6.8300   -0.2480   19.0480 C   0  0  0  0  0  0  0  0  0  0  0  0
   11.0580   -1.8470   22.4360 C   0  0  0  0  0  0  0  0  0  0  0  0
    9.9230   -2.6800   24.3070 C   0  0  0  0  0  0  0  0  0  0  0  0
    8.0310    2.8140   23.2110 C   0  0  0  0  0  0  0  0  0  0  0  0
    6.2710    0.2940   17.7790 N   0  0  0  0  0  0  0  0  0  0  0  0
    4.5360    1.3960   19.0480 C   0  0  0  0  0  0  0  0  0  0  0  0
   11.1730   -2.3470   23.6800 C   0  0  0  0  0  0  0  0  0  0  0  0
    7.7370    4.0600   22.3610 C   0  0  0  0  0  0  0  0  0  0  0  0
   12.5460   -2.5640   24.5130 C   0  0  0  0  0  0  0  0  0  0  0  0
    5.1650    1.0830   17.8600 C   0  0  0  0  0  0  0  0  0  0  0  0
    8.4430    5.1750   22.9650 O   0  0  0  0  0  0  0  0  0  0  0  0
   13.8280   -2.9960   24.0360 C   0  0  0  0  0  0  0  0  0  0  0  0
   12.0410   -3.4770   25.6240 C   0  0  0  0  0  0  0  0  0  0  0  0
   12.8120   -1.1790   25.1200 C   0  0  0  0  0  0  0  0  0  0  0  0
    8.2590    6.3770   22.2090 C   0  0  0  0  0  0  0  0  0  0  0  0
   14.9040   -3.7160   24.9410 C   0  0  0  0  0  0  0  0  0  0  0  0
   16.2540   -4.3880   24.5230 C   0  0  0  0  0  0  0  0  0  0  0  0
   17.6710   -3.9280   25.0280 C   0  0  0  0  0  0  0  0  0  0  0  0
   18.9410   -3.1480   24.5560 C   0  0  0  0  0  0  0  0  0  0  0  0
   19.8830   -2.1960   25.3320 C   0  0  0  0  0  0  0  0  0  0  0  0
   20.5300   -0.9160   24.7650 C   0  0  0  0  0  0  0  0  0  0  0  0
   21.7220   -0.1450   25.3650 C   0  0  0  0  0  0  0  0  0  0  0  0
   21.8430    1.3310   25.1800 N   0  0  0  0  0  0  0  0  0  0  0  0
   23.1390    2.3880   25.1650 S   0  0  1  0  0  0  0  0  0  0  0  0
   23.7460    2.7260   26.7340 N   0  0  0  0  0  0  0  0  0  0  0  0
   24.2530    1.7750   24.4890 O   0  0  0  0  0  0  0  0  0  0  0  0
   22.8190    3.9950   24.3410 C   0  0  0  0  0  0  0  0  0  0  0  0
   23.6500    4.4470   23.3080 C   0  0  0  0  0  0  0  0  0  0  0  0
   21.6480    4.8970   24.7110 C   0  0  0  0  0  0  0  0  0  0  0  0
   24.6100    3.8430   27.0180 C   0  0  0  0  0  0  0  0  0  0  0  0
   23.3930    5.6880   22.6310 C   0  0  0  0  0  0  0  0  0  0  0  0
   21.4620    6.1910   23.9410 C   0  0  0  0  0  0  0  0  0  0  0  0
   24.7460    4.2200   28.3270 N   0  0  0  0  0  0  0  0  0  0  0  0
   25.3030    4.5410   26.0260 C   0  0  0  0  0  0  0  0  0  0  0  0
   22.3240    6.5400   22.9350 C   0  0  0  0  0  0  0  0  0  0  0  0
   25.5480    5.2690   28.6470 C   0  0  0  0  0  0  0  0  0  0  0  0
   26.1300    5.6240   26.3770 C   0  0  0  0  0  0  0  0  0  0  0  0
   22.1020    7.7380   22.2450 N   0  0  0  0  0  0  0  0  0  0  0  0
   26.2570    6.0000   27.7160 C   0  0  0  0  0  0  0  0  0  0  0  0
  1  2  1  0
  2  3  2  0
  1  4  1  0
  1  5  1  0
  2  6  1  0
  4  7  1  6
  4  8  1  0
  5  9  2  0
  5 10  1  0
  6 11  1  0
  7 12  1  0
  7 13  2  0
  8 14  2  0
  8 15  1  0
  9 16  1  0
 10 17  2  0
 12 18  1  0
 15 19  2  0
 14 20  1  0
 16 21  2  0
 17 21  1  0
 18 22  1  0
 21 23  1  0
 19 24  1  0
 20 24  2  0
 22 25  1  0
 23 26  1  0
 23 27  1  0
 23 28  1  0
 25 29  1  0
 26 30  1  0
 30 31  1  0
 31 32  1  0
 32 33  1  0
 33 34  1  0
 34 35  1  0
 35 36  1  0
 36 37  1  0
 37 38  2  0
 38 39  1  1
 38 40  2  0
 38 41  1  0
 41 42  2  0
 41 43  1  0
 39 44  1  0
 42 45  1  0
 43 46  2  0
 44 47  2  0
 44 48  1  0
 45 49  2  0
 46 49  1  0
 47 50  1  0
 48 51  2  0
 49 52  1  0
 50 53  2  0
 51 53  1  0
M  END
