x1119-x2694-x1311
     RDKit          3D

 73 79  0  0  0  0  0  0  0  0999 V2000
    6.9470   -1.4470   22.0090 C   0  0  1  0  0  0  0  0  0  0  0  0
    6.2320   -2.7820   21.3030 C   0  0  0  0  0  0  0  0  0  0  0  0
    4.9610   -3.0810   20.9310 O   0  0  0  0  0  0  0  0  0  0  0  0
    6.7450    0.0430   21.5880 C   0  0  1  0  0  0  0  0  0  0  0  0
    6.1570   -1.5860   23.3120 C   0  0  0  0  0  0  0  0  0  0  0  0
    8.4270   -1.5260   22.5460 C   0  0  0  0  0  0  0  0  0  0  0  0
    7.2350   -3.9500   21.2560 C   0  0  0  0  0  0  0  0  0  0  0  0
    7.7340    1.0940   21.8230 C   0  0  0  0  0  0  0  0  0  0  0  0
    5.5190   -2.8110   23.6310 C   0  0  0  0  0  0  0  0  0  0  0  0
    6.2710    0.4490   20.2290 C   0  0  0  0  0  0  0  0  0  0  0  0
    8.7010   -1.8980   23.9520 N   0  0  0  0  0  0  0  0  0  0  0  0
    9.6860   -1.2870   21.9790 C   0  0  0  0  0  0  0  0  0  0  0  0
    7.2640   -3.4510   19.8190 C   0  0  0  0  0  0  0  0  0  0  0  0
    7.6470    1.8780   22.7140 N   0  0  0  0  0  0  0  0  0  0  0  0
    8.6870    1.2110   21.0430 O   0  0  0  0  0  0  0  0  0  0  0  0
    5.9060   -4.0740   23.2530 N   0  0  0  0  0  0  0  0  0  0  0  0
    5.1520    1.2930   20.1710 C   0  0  0  0  0  0  0  0  0  0  0  0
    6.8700    0.0660   19.0240 C   0  0  0  0  0  0  0  0  0  0  0  0
   10.0700   -1.8790   24.1980 O   0  0  0  0  0  0  0  0  0  0  0  0
   10.7440   -1.5220   23.0900 C   0  0  0  0  0  0  0  0  0  0  0  0
   12.2820   -1.4070   23.0880 C   0  0  0  0  0  0  0  0  0  0  0  0
    6.3470    0.5520   17.7120 N   0  0  0  0  0  0  0  0  0  0  0  0
    4.6580    1.7530   18.8260 C   0  0  0  0  0  0  0  0  0  0  0  0
    8.4100    3.0670   22.9090 C   0  0  0  0  0  0  0  0  0  0  0  0
    7.1010   -4.5260   23.8950 C   0  0  0  0  0  0  0  0  0  0  0  0
    4.7770   -4.9660   23.5640 C   0  0  1  0  0  0  0  0  0  0  0  0
   12.7060    0.0240   23.3850 C   0  0  0  0  0  0  0  0  0  0  0  0
   12.9270   -1.7840   21.7420 C   0  0  0  0  0  0  0  0  0  0  0  0
   12.8220   -2.3340   24.1600 C   0  0  0  0  0  0  0  0  0  0  0  0
    5.2830    1.3630   17.6830 C   0  0  0  0  0  0  0  0  0  0  0  0
    9.6710    2.9960   23.5690 C   0  0  0  0  0  0  0  0  0  0  0  0
    7.9980    4.4630   22.4670 C   0  0  0  0  0  0  0  0  0  0  0  0
    7.8200   -5.6610   23.4730 C   0  0  0  0  0  0  0  0  0  0  0  0
    7.5420   -3.7870   24.9900 C   0  0  0  0  0  0  0  0  0  0  0  0
    4.3710   -5.9180   22.4610 C   0  0  0  0  0  0  0  0  0  0  0  0
    4.8470   -5.6300   24.7310 C   0  0  0  0  0  0  0  0  0  0  0  0
   10.2210    1.6720   24.0810 C   0  0  0  0  0  0  0  0  0  0  0  0
   10.4870    4.1320   23.7910 C   0  0  0  0  0  0  0  0  0  0  0  0
    8.8780    5.6610   22.7170 C   0  0  0  0  0  0  0  0  0  0  0  0
    8.9670   -6.0580   24.1400 C   0  0  0  0  0  0  0  0  0  0  0  0
    8.6840   -4.1450   25.6760 C   0  0  0  0  0  0  0  0  0  0  0  0
    3.4560   -6.7190   24.5360 S   0  0  0  0  0  0  0  0  0  0  0  0
    3.5630   -6.8920   22.8920 C   0  0  0  0  0  0  0  0  0  0  0  0
    3.7630   -7.9480   25.2320 O   0  0  0  0  0  0  0  0  0  0  0  0
    2.2520   -5.9990   24.8800 O   0  0  0  0  0  0  0  0  0  0  0  0
   10.1030    5.5650   23.3550 C   0  0  0  0  0  0  0  0  0  0  0  0
    9.4490   -5.3580   25.2270 C   0  0  0  0  0  0  0  0  0  0  0  0
   11.0210    6.6020   23.6420 O   0  0  0  0  0  0  0  0  0  0  0  0
   12.4000    6.2590   23.7920 C   0  0  0  0  0  0  0  0  0  0  0  0
   12.9330    5.5310   22.6780 C   0  0  0  0  0  0  0  0  0  0  0  0
   13.9810    4.6480   23.0720 C   0  0  0  0  0  0  0  0  0  0  0  0
   15.3580    5.1450   22.5850 C   0  0  0  0  0  0  0  0  0  0  0  0
   16.4280    4.7380   23.4010 C   0  0  0  0  0  0  0  0  0  0  0  0
   17.8530    5.2050   23.3430 C   0  0  0  0  0  0  0  0  0  0  0  0
   18.5100    6.3910   23.8480 C   0  0  0  0  0  0  0  0  0  0  0  0
   19.4260    7.0580   23.0140 C   0  0  0  0  0  0  0  0  0  0  0  0
   20.6020    7.5720   23.6730 N   0  0  0  0  0  0  0  0  0  0  0  0
   21.4160    6.4350   24.0610 C   0  0  0  0  0  0  0  0  0  0  0  0
   22.4490    5.9070   23.0370 C   0  0  0  0  0  0  0  0  0  0  0  0
   21.2050    5.8720   25.3080 C   0  0  0  0  0  0  0  0  0  0  0  0
   23.2210    4.6960   23.4910 C   0  0  0  0  0  0  0  0  0  0  0  0
   21.9140    4.7720   25.6970 C   0  0  0  0  0  0  0  0  0  0  0  0
   22.8730    4.1640   24.8840 C   0  0  0  0  0  0  0  0  0  0  0  0
   23.7100    2.6920   25.5020 S   0  0  0  0  0  0  0  0  0  0  0  0
   22.6490    1.7170   25.6510 O   0  0  0  0  0  0  0  0  0  0  0  0
   24.2090    3.0940   27.0920 N   0  0  0  0  0  0  0  0  0  0  0  0
   24.8750    2.3880   24.7090 O   0  0  0  0  0  0  0  0  0  0  0  0
   24.9840    4.2360   27.3520 C   0  0  0  0  0  0  0  0  0  0  0  0
   25.0500    4.6030   28.6480 N   0  0  0  0  0  0  0  0  0  0  0  0
   25.6240    4.9080   26.3260 C   0  0  0  0  0  0  0  0  0  0  0  0
   25.8660    5.7920   28.9040 C   0  0  0  0  0  0  0  0  0  0  0  0
   26.4010    6.0350   26.5570 C   0  0  0  0  0  0  0  0  0  0  0  0
   26.4970    6.4480   27.8830 C   0  0  0  0  0  0  0  0  0  0  0  0
  1  2  1  0
  2  3  2  0
  1  4  1  0
  1  5  1  1
  1  6  1  0
  2  7  1  0
  4  8  1  6
  5  9  1  0
  4 10  1  0
  6 11  2  0
  6 12  1  0
  7 13  1  0
  8 14  1  0
  8 15  2  0
  9 16  1  0
 10 17  2  0
 10 18  1  0
 11 19  1  0
 12 20  2  0
 19 20  1  0
 20 21  1  0
 18 22  2  0
 17 23  1  0
 14 24  1  0
 16 25  1  0
 26 16  1  6
 21 27  1  0
 21 28  1  0
 21 29  1  0
 22 30  1  0
 23 30  2  0
 24 31  2  0
 24 32  1  0
 25 33  2  0
 25 34  1  0
 26 35  1  0
 26 36  1  0
 31 37  1  0
 31 38  1  0
 32 39  2  0
 33 40  1  0
 34 41  2  0
 36 42  1  0
 35 43  2  0
 42 43  1  0
 42 44  1  0
 42 45  1  0
 38 46  2  0
 39 46  1  0
 40 47  2  0
 41 47  1  0
 46 48  1  0
 48 49  1  0
 49 50  1  0
 50 51  1  0
 51 52  1  0
 52 53  1  0
 53 54  1  0
 54 55  1  0
 55 56  1  0
 56 57  1  0
 57 58  1  0
 58 59  2  0
 58 60  1  0
 59 61  1  0
 60 62  2  0
 61 63  2  0
 62 63  1  0
 63 64  1  0
 64 65  2  0
 64 66  1  0
 64 67  2  0
 66 68  1  0
 68 69  2  0
 68 70  1  0
 69 71  1  0
 70 72  2  0
 71 73  2  0
 72 73  1  0
M  END
