x1119-x0387-x2694-x1402
     RDKit          3D

 83 92  0  0  0  0  0  0  0  0999 V2000
    6.6800   -1.1470   21.9210 C   0  0  1  0  0  0  0  0  0  0  0  0
    5.9460   -2.1770   20.8900 C   0  0  0  0  0  0  0  0  0  0  0  0
    4.7820   -2.8760   20.9730 O   0  0  0  0  0  0  0  0  0  0  0  0
    6.3670    0.3380   21.5860 C   0  0  1  0  0  0  0  0  0  0  0  0
    5.8890   -1.8040   22.9900 C   0  0  0  0  0  0  0  0  0  0  0  0
    8.2390   -1.0480   22.5470 C   0  0  1  0  0  0  0  0  0  0  0  0
    6.5670   -2.4790   19.7550 C   0  0  0  0  0  0  0  0  0  0  0  0
    7.4440    1.4510   21.8760 C   0  0  0  0  0  0  0  0  0  0  0  0
    5.6400   -3.2200   22.8080 C   0  0  0  0  0  0  0  0  0  0  0  0
    6.0370    0.6820   20.1590 C   0  0  0  0  0  0  0  0  0  0  0  0
    8.3570   -1.5150   23.8840 N   0  0  0  0  0  0  0  0  0  0  0  0
    9.4950   -1.1640   21.9500 C   0  0  0  0  0  0  0  0  0  0  0  0
    6.7880   -3.8820   20.1380 C   0  0  0  0  0  0  0  0  0  0  0  0
    7.3600    2.3900   22.8440 N   0  0  0  0  0  0  0  0  0  0  0  0
    8.4910    1.4040   20.9910 O   0  0  0  0  0  0  0  0  0  0  0  0
    4.9050    1.4690   20.0230 C   0  0  0  0  0  0  0  0  0  0  0  0
    6.8040    0.2610   19.0780 C   0  0  0  0  0  0  0  0  0  0  0  0
    9.6550   -1.6600   24.2220 C   0  0  2  0  0  0  0  0  0  0  0  0
   10.3900   -1.3730   23.0660 C   0  0  2  0  0  0  0  0  0  0  0  0
    6.4840   -4.2270   21.7670 C   0  0  0  0  0  0  0  0  0  0  0  0
    6.3640    0.6980   17.7900 N   0  0  0  0  0  0  0  0  0  0  0  0
    4.4890    1.8820   18.8110 C   0  0  0  0  0  0  0  0  0  0  0  0
    8.3150    3.5450   23.0210 C   0  0  0  0  0  0  0  0  0  0  0  0
    7.5930   -4.9080   22.5190 C   0  0  0  0  0  0  0  0  0  0  0  0
    5.5490   -5.4780   21.6580 C   0  0  0  0  0  0  0  0  0  0  0  0
    9.5450   -2.9300   24.8970 N   0  0  0  0  0  0  0  0  0  0  0  0
   11.5160   -0.3180   23.3610 C   0  0  1  0  0  0  0  0  0  0  0  0
   11.2140   -2.4620   22.4440 C   0  0  0  0  0  0  0  0  0  0  0  0
   12.2010   -0.4710   24.7240 C   0  0  0  0  0  0  0  0  0  0  0  0
    5.1690    1.5410   17.6680 C   0  0  0  0  0  0  0  0  0  0  0  0
    9.5350    3.3490   23.6490 C   0  0  0  0  0  0  0  0  0  0  0  0
    7.9960    4.8090   22.5610 C   0  0  0  0  0  0  0  0  0  0  0  0
    7.1220   -5.5840   23.8250 C   0  0  0  0  0  0  0  0  0  0  0  0
    4.7860   -5.8500   22.9280 C   0  0  0  0  0  0  0  0  0  0  0  0
    8.2090   -3.1840   25.4810 C   0  0  0  0  0  0  0  0  0  0  0  0
   10.3510   -4.0830   24.6440 C   0  0  0  0  0  0  0  0  0  0  0  0
   12.8070   -2.0010   21.8250 S   0  0  0  0  0  0  0  0  0  0  0  0
   12.7060   -0.4460   22.5000 C   0  0  0  0  0  0  0  0  0  0  0  0
    9.9380    2.0890   24.1490 C   0  0  0  0  0  0  0  0  0  0  0  0
   12.9530   -1.6690   24.8390 C   0  0  0  0  0  0  0  0  0  0  0  0
   10.4400    4.3840   23.8220 C   0  0  0  0  0  0  0  0  0  0  0  0
    8.9890    5.9360   22.7580 C   0  0  0  0  0  0  0  0  0  0  0  0
    5.6520   -5.6150   24.0950 N   0  0  0  0  0  0  0  0  0  0  0  0
    8.2410   -4.2080   26.4180 C   0  0  0  0  0  0  0  0  0  0  0  0
   10.4810   -4.9180   25.9080 C   0  0  0  0  0  0  0  0  0  0  0  0
    5.0050   -5.5420   25.6620 S   0  0  0  0  0  0  0  0  0  0  0  0
   10.2120    5.6520   23.4050 C   0  0  0  0  0  0  0  0  0  0  0  0
    9.4620   -4.5080   26.9500 C   0  0  0  0  0  0  0  0  0  0  0  0
   11.0640    6.7040   23.5460 O   0  0  0  0  0  0  0  0  0  0  0  0
    3.9760   -6.5550   25.7300 O   0  0  0  0  0  0  0  0  0  0  0  0
    6.0410   -5.4920   26.6590 O   0  0  0  0  0  0  0  0  0  0  0  0
    9.3100   -5.4330   28.0100 O   0  0  0  0  0  0  0  0  0  0  0  0
    4.1730   -3.9710   25.8420 C   0  0  0  0  0  0  0  0  0  0  0  0
   12.4040    6.3920   23.9660 C   0  0  0  0  0  0  0  0  0  0  0  0
    2.4380   -3.9910   25.8920 S   0  0  0  0  0  0  0  0  0  0  0  0
    4.6490   -2.6670   25.9610 C   0  0  0  0  0  0  0  0  0  0  0  0
   13.2120    5.8600   22.7130 C   0  0  0  0  0  0  0  0  0  0  0  0
    3.6200   -1.7480   26.0930 C   0  0  0  0  0  0  0  0  0  0  0  0
    2.3630   -2.3080   26.0800 C   0  0  0  0  0  0  0  0  0  0  0  0
   14.0410    4.7220   22.9610 C   0  0  0  0  0  0  0  0  0  0  0  0
    0.9010   -1.4190   26.2380 Cl  0  0  0  0  0  0  0  0  0  0  0  0
   15.4040    4.6370   22.4660 C   0  0  0  0  0  0  0  0  0  0  0  0
   16.6360    4.8900   23.4460 C   0  0  0  0  0  0  0  0  0  0  0  0
   17.9510    4.5340   23.0940 C   0  0  0  0  0  0  0  0  0  0  0  0
   18.8760    5.5400   23.3690 C   0  0  0  0  0  0  0  0  0  0  0  0
   20.0860    5.3080   22.8000 C   0  0  0  0  0  0  0  0  0  0  0  0
   20.9950    6.5230   22.8840 N   0  0  0  0  0  0  0  0  0  0  0  0
   21.7540    5.7440   23.7550 C   0  0  0  0  0  0  0  0  0  0  0  0
   22.7830    5.2000   23.0310 C   0  0  0  0  0  0  0  0  0  0  0  0
   21.1550    5.7380   25.0590 C   0  0  0  0  0  0  0  0  0  0  0  0
   23.5220    4.3060   23.6040 C   0  0  0  0  0  0  0  0  0  0  0  0
   22.0530    4.6430   25.7000 C   0  0  0  0  0  0  0  0  0  0  0  0
   23.1750    3.9140   25.0160 C   0  0  0  0  0  0  0  0  0  0  0  0
   24.0000    2.6310   25.8520 S   0  0  0  0  0  0  0  0  0  0  0  0
   22.9930    1.6070   26.0170 O   0  0  0  0  0  0  0  0  0  0  0  0
   24.2500    3.2240   27.3970 N   0  0  0  0  0  0  0  0  0  0  0  0
   25.2390    2.3930   25.1590 O   0  0  0  0  0  0  0  0  0  0  0  0
   25.0460    4.3490   27.5260 C   0  0  0  0  0  0  0  0  0  0  0  0
   25.1620    4.7850   28.8180 N   0  0  0  0  0  0  0  0  0  0  0  0
   25.7720    5.1090   26.4210 C   0  0  0  0  0  0  0  0  0  0  0  0
   25.9870    5.9770   29.1070 C   0  0  0  0  0  0  0  0  0  0  0  0
   26.5480    6.2210   26.6480 C   0  0  0  0  0  0  0  0  0  0  0  0
   26.6980    6.6970   27.9250 C   0  0  0  0  0  0  0  0  0  0  0  0
  1  2  1  0
  2  3  2  0
  1  4  1  0
  1  5  1  1
  1  6  1  0
  2  7  1  0
  4  8  1  6
  5  9  1  0
  4 10  1  0
  6 11  1  0
  6 12  1  6
  7 13  1  0
  8 14  1  0
  8 15  2  0
 10 16  2  0
 10 17  1  0
 11 18  1  0
 19 12  1  6
 18 19  1  0
 20  9  1  0
 13 20  1  0
 17 21  2  0
 16 22  1  0
 14 23  1  0
 20 24  1  0
 20 25  1  0
 18 26  1  6
 19 27  1  0
 19 28  1  0
 27 29  1  1
 21 30  1  0
 22 30  2  0
 23 31  2  0
 23 32  1  0
 24 33  1  0
 25 34  1  0
 26 35  1  0
 26 36  1  0
 28 37  2  0
 27 38  1  0
 37 38  2  0
 31 39  1  0
 29 40  1  0
 31 41  1  0
 32 42  2  0
 33 43  1  0
 34 43  1  0
 35 44  1  0
 36 45  1  0
 43 46  1  0
 41 47  2  0
 42 47  1  0
 44 48  1  0
 45 48  1  0
 47 49  1  0
 46 50  2  0
 46 51  2  0
 48 52  1  0
 46 53  1  0
 49 54  1  0
 53 55  1  0
 53 56  2  0
 54 57  1  0
 56 58  1  0
 55 59  1  0
 58 59  2  0
 57 60  1  0
 59 61  1  0
 60 62  1  0
 62 63  1  0
 63 64  1  0
 64 65  1  0
 65 66  1  0
 66 67  1  0
 67 68  1  0
 68 69  2  0
 68 70  1  0
 69 71  1  0
 70 72  2  0
 71 73  2  0
 72 73  1  0
 73 74  1  0
 74 75  2  0
 74 76  1  0
 74 77  2  0
 76 78  1  0
 78 79  2  0
 78 80  1  0
 79 81  1  0
 80 82  2  0
 81 83  2  0
 82 83  1  0
M  END
