x1119-x0540-x3110-x0734-x0946
     RDKit          3D

 86 93  0  0  0  0  0  0  0  0999 V2000
    8.0410    1.2390   23.2490 N   0  0  0  0  0  0  0  0  0  0  0  0
    8.8210    2.4750   23.6180 C   0  0  0  0  0  0  0  0  0  0  0  0
   10.3280    2.4730   23.3240 C   0  0  0  0  0  0  0  0  0  0  0  0
    7.8660    0.8740   21.8580 C   0  0  0  0  0  0  0  0  0  0  0  0
    8.5990    1.4210   21.0120 O   0  0  0  0  0  0  0  0  0  0  0  0
    6.7000   -0.1860   21.5100 C   0  0  2  0  0  0  0  0  0  0  0  0
    7.0940   -1.6280   21.6030 N   0  0  0  0  0  0  0  0  0  0  0  0
    6.1400    0.2980   20.2320 C   0  0  0  0  0  0  0  0  0  0  0  0
   11.2650    3.7250   23.3150 C   0  0  0  0  0  0  0  0  0  0  0  0
   10.8570    1.2250   23.0400 C   0  0  0  0  0  0  0  0  0  0  0  0
   10.6490    5.1110   23.6720 C   0  0  0  0  0  0  0  0  0  0  0  0
    6.2710   -2.8580   21.2800 C   0  0  0  0  0  0  0  0  0  0  0  0
    4.9330    0.9600   20.2600 C   0  0  0  0  0  0  0  0  0  0  0  0
    6.8130    0.1080   19.0500 C   0  0  0  0  0  0  0  0  0  0  0  0
    8.3400   -1.6440   22.3410 C   0  0  0  0  0  0  0  0  0  0  0  0
   12.1720    1.0030   22.7410 C   0  0  0  0  0  0  0  0  0  0  0  0
   12.7710    3.5410   22.9620 C   0  0  0  0  0  0  0  0  0  0  0  0
   13.8860    4.6610   22.8760 C   0  0  2  0  0  0  0  0  0  0  0  0
    4.9550   -3.0730   20.9500 O   0  0  0  0  0  0  0  0  0  0  0  0
    4.2350    1.1390   21.4510 C   0  0  0  0  0  0  0  0  0  0  0  0
   11.4310    5.7540   24.5310 N   0  0  0  0  0  0  0  0  0  0  0  0
    9.6100    5.0280   24.3210 O   0  0  0  0  0  0  0  0  0  0  0  0
   10.2730    5.7760   22.7100 O   0  0  0  0  0  0  0  0  0  0  0  0
    6.4100    0.5390   17.8400 N   0  0  0  0  0  0  0  0  0  0  0  0
    4.4060    1.4600   19.0780 C   0  0  0  0  0  0  0  0  0  0  0  0
    9.4730   -2.0420   21.6840 C   0  0  0  0  0  0  0  0  0  0  0  0
    8.5210   -1.2770   23.7040 C   0  0  0  0  0  0  0  0  0  0  0  0
   13.1990    2.1190   22.6830 C   0  0  0  0  0  0  0  0  0  0  0  0
    7.0290   -4.1620   21.4470 C   0  0  0  0  0  0  0  0  0  0  0  0
   13.2960    5.8480   22.1820 C   0  0  0  0  0  0  0  0  0  0  0  0
    8.3750   -4.5930   20.8700 C   0  0  0  0  0  0  0  0  0  0  0  0
    4.9510    1.8880   22.3780 C   0  0  0  0  0  0  0  0  0  0  0  0
   15.2380    4.3110   22.1330 C   0  0  0  0  0  0  0  0  0  0  0  0
    5.1550    1.2740   17.7620 C   0  0  0  0  0  0  0  0  0  0  0  0
   10.8470   -2.1070   22.3110 C   0  0  0  0  0  0  0  0  0  0  0  0
    9.7750   -1.3160   24.3350 C   0  0  0  0  0  0  0  0  0  0  0  0
    6.0370   -5.3380   21.6860 C   0  0  0  0  0  0  0  0  0  0  0  0
    7.6940   -3.9510   22.8040 C   0  0  0  0  0  0  0  0  0  0  0  0
    4.0610    2.9140   22.9040 N   0  0  0  0  0  0  0  0  0  0  0  0
   16.6100    4.1980   22.6290 C   0  0  0  0  0  0  0  0  0  0  0  0
   11.0140   -1.7570   23.6070 C   0  0  0  0  0  0  0  0  0  0  0  0
    6.1500   -5.9450   23.0860 C   0  0  0  0  0  0  0  0  0  0  0  0
    6.6750   -3.6000   23.8000 C   0  0  0  0  0  0  0  0  0  0  0  0
   12.3890   -1.8020   24.2670 C   0  0  0  0  0  0  0  0  0  0  0  0
    2.8200    2.4800   23.5410 C   0  0  0  0  0  0  0  0  0  0  0  0
   17.3150    4.9940   23.5100 C   0  0  0  0  0  0  0  0  0  0  0  0
    6.2160   -4.9110   24.1510 N   0  0  0  0  0  0  0  0  0  0  0  0
   12.5240   -0.7080   25.0860 C   0  0  0  0  0  0  0  0  0  0  0  0
   13.4410   -1.6900   23.1690 C   0  0  0  0  0  0  0  0  0  0  0  0
   12.7310   -2.9960   24.9450 C   0  0  0  0  0  0  0  0  0  0  0  0
    2.8170    1.6060   24.4090 O   0  0  0  0  0  0  0  0  0  0  0  0
    1.6860    3.0890   23.1190 N   0  0  0  0  0  0  0  0  0  0  0  0
   18.6840    5.2850   23.3250 C   0  0  0  0  0  0  0  0  0  0  0  0
    6.9780   -5.3430   25.2200 C   0  0  0  0  0  0  0  0  0  0  0  0
   19.2040    6.6430   23.5160 C   0  0  0  0  0  0  0  0  0  0  0  0
    0.5450    3.3120   23.9840 C   0  0  0  0  0  0  0  0  0  0  0  0
    6.3130   -5.4050   26.5370 C   0  0  0  0  0  0  0  0  0  0  0  0
    8.3360   -5.7260   25.1590 C   0  0  0  0  0  0  0  0  0  0  0  0
   20.5400    7.0550   23.1020 N   0  0  0  0  0  0  0  0  0  0  0  0
    4.9230   -5.0140   26.6040 N   0  0  0  0  0  0  0  0  0  0  0  0
    0.5140    4.6330   24.4680 C   0  0  0  0  0  0  0  0  0  0  0  0
   -0.5750    2.9820   23.2930 C   0  0  0  0  0  0  0  0  0  0  0  0
    8.9980   -6.1420   26.3130 C   0  0  0  0  0  0  0  0  0  0  0  0
    6.9820   -5.8180   27.6670 C   0  0  0  0  0  0  0  0  0  0  0  0
    4.1620   -5.6180   25.8380 O   0  0  0  0  0  0  0  0  0  0  0  0
    4.7070   -3.8640   27.0200 O   0  0  0  0  0  0  0  0  0  0  0  0
   -0.7120    4.9600   25.0920 C   0  0  0  0  0  0  0  0  0  0  0  0
   -1.8370    3.3110   23.7980 C   0  0  0  0  0  0  0  0  0  0  0  0
   21.4540    6.1370   23.4780 C   0  0  0  0  0  0  0  0  0  0  0  0
    8.3250   -6.1790   27.5380 C   0  0  0  0  0  0  0  0  0  0  0  0
   -1.8370    4.5640   24.4230 C   0  0  0  0  0  0  0  0  0  0  0  0
   22.5430    5.6880   22.7440 C   0  0  0  0  0  0  0  0  0  0  0  0
   21.1850    5.6270   24.7510 C   0  0  0  0  0  0  0  0  0  0  0  0
   23.4110    4.7040   23.2050 C   0  0  0  0  0  0  0  0  0  0  0  0
   22.0510    4.5390   25.3830 C   0  0  0  0  0  0  0  0  0  0  0  0
   23.1140    4.0840   24.6390 C   0  0  0  0  0  0  0  0  0  0  0  0
   24.0810    2.8030   25.3320 S   0  0  0  0  0  0  0  0  0  0  0  0
   23.2470    1.6470   25.2530 O   0  0  0  0  0  0  0  0  0  0  0  0
   24.2600    3.2510   26.9400 N   0  0  0  0  0  0  0  0  0  0  0  0
   25.4920    2.8110   24.6190 O   0  0  0  0  0  0  0  0  0  0  0  0
   25.0510    4.3690   27.2140 C   0  0  0  0  0  0  0  0  0  0  0  0
   25.0890    4.6230   28.5420 N   0  0  0  0  0  0  0  0  0  0  0  0
   25.7060    5.1060   26.2360 C   0  0  0  0  0  0  0  0  0  0  0  0
   25.8220    5.6750   28.9640 C   0  0  0  0  0  0  0  0  0  0  0  0
   26.4660    6.1910   26.6440 C   0  0  0  0  0  0  0  0  0  0  0  0
   26.5310    6.5000   28.1130 C   0  0  0  0  0  0  0  0  0  0  0  0
  1  2  1  0
  2  3  1  0
  1  4  1  0
  4  5  2  0
  6  4  1  6
  6  7  1  0
  6  8  1  0
  3  9  2  0
  3 10  1  0
  9 11  1  0
  7 12  1  0
  8 13  1  0
  8 14  2  0
  7 15  1  0
 10 16  2  0
  9 17  1  0
 17 18  1  0
 12 19  2  0
 13 20  1  0
 11 21  1  0
 11 22  1  0
 11 23  1  0
 14 24  1  0
 13 25  2  0
 15 26  2  0
 15 27  1  0
 16 28  1  0
 17 28  2  0
 29 12  1  0
 18 30  1  6
 29 31  1  0
 20 32  1  0
 18 33  1  0
 24 34  2  0
 25 34  1  0
 26 35  1  0
 27 36  2  0
 29 37  1  0
 29 38  1  0
 32 39  1  0
 33 40  1  0
 35 41  2  0
 36 41  1  0
 37 42  1  0
 38 43  1  0
 41 44  1  0
 39 45  1  0
 40 46  1  0
 42 47  1  0
 43 47  1  0
 44 48  1  0
 44 49  1  0
 44 50  1  0
 45 51  2  0
 45 52  1  0
 46 53  1  0
 47 54  1  0
 53 55  1  0
 52 56  1  0
 54 57  2  0
 54 58  1  0
 55 59  1  0
 57 60  1  0
 56 61  1  0
 56 62  1  0
 58 63  2  0
 57 64  1  0
 60 65  2  0
 60 66  1  0
 61 67  1  0
 62 68  1  0
 59 69  1  0
 63 70  1  0
 64 70  2  0
 67 71  1  0
 68 71  1  0
 69 72  2  0
 69 73  1  0
 72 74  1  0
 73 75  2  0
 74 76  2  0
 75 76  1  0
 76 77  1  0
 77 78  2  0
 77 79  1  0
 77 80  2  0
 79 81  1  0
 81 82  2  0
 81 83  1  0
 82 84  1  0
 83 85  2  0
 84 86  2  0
 85 86  1  0
M  CHG  2  60   1  66  -1
M  END
