x1132
     RDKit          3D

 15 16  0  0  0  0  0  0  0  0999 V2000
    7.3810  -23.2960   -1.3700 C   0  0  0  0  0  0  0  0  0  0  0  0
    7.0640  -21.8220   -1.0500 C   0  0  1  0  0  0  0  0  0  0  0  0
    7.6510  -20.9170   -2.1310 C   0  0  0  0  0  0  0  0  0  0  0  0
    7.1440  -19.5670   -2.2030 N   0  0  0  0  0  0  0  0  0  0  0  0
    7.6450  -18.5920   -3.1510 C   0  0  0  0  0  0  0  0  0  0  0  0
    7.1900  -17.4950   -3.1730 O   0  0  0  0  0  0  0  0  0  0  0  0
    8.7570  -18.9500   -4.1400 C   0  0  0  0  0  0  0  0  0  0  0  0
    9.2670  -17.7280   -4.7340 N   0  0  0  0  0  0  0  0  0  0  0  0
    9.9780  -16.8130   -4.1000 C   0  0  0  0  0  0  0  0  0  0  0  0
   10.2620  -15.8030   -4.9970 C   0  0  0  0  0  0  0  0  0  0  0  0
    9.6760  -16.1660   -6.2000 C   0  0  0  0  0  0  0  0  0  0  0  0
    9.0780  -17.3300   -6.0250 N   0  0  0  0  0  0  0  0  0  0  0  0
    6.1010  -19.2600   -1.2560 C   0  0  0  0  0  0  0  0  0  0  0  0
    5.1440  -20.3970   -0.9010 C   0  0  0  0  0  0  0  0  0  0  0  0
    5.6690  -21.7090   -0.9210 O   0  0  0  0  0  0  0  0  0  0  0  0
  2  1  1  6
  2  3  1  0
  3  4  1  0
  4  5  1  0
  5  6  2  0
  5  7  1  0
  7  8  1  0
  8  9  1  0
  9 10  2  0
 10 11  1  0
  8 12  1  0
 11 12  2  0
  4 13  1  0
 13 14  1  0
  2 15  1  0
 14 15  1  0
M  END
