x1226
     RDKit          3D

 10 10  0  0  0  0  0  0  0  0999 V2000
   22.8730  -20.3050   23.2710 N   0  0  0  0  0  0  0  0  0  0  0  0
   23.8300  -18.0890   23.9760 C   0  0  0  0  0  0  0  0  0  0  0  0
   22.9510  -18.8310   22.9590 C   0  0  0  0  0  0  0  0  0  0  0  0
   20.6310  -24.1800   24.0050 N   0  0  0  0  0  0  0  0  0  0  0  0
   21.6260  -20.6380   24.0350 C   0  0  0  0  0  0  0  0  0  0  0  0
   20.2610  -23.7110   22.7740 N   0  0  0  0  0  0  0  0  0  0  0  0
   21.2060  -22.0510   23.8470 C   0  0  0  0  0  0  0  0  0  0  0  0
   20.5980  -22.4810   22.6730 N   0  0  0  0  0  0  0  0  0  0  0  0
   21.2410  -23.1440   24.7200 C   0  0  0  0  0  0  0  0  0  0  0  0
   20.4130  -25.5720   24.4400 C   0  0  0  0  0  0  0  0  0  0  0  0
  1  3  1  0
  2  3  1  0
  1  5  1  0
  4  6  1  0
  5  7  1  0
  6  8  2  0
  7  8  1  0
  4  9  1  0
  7  9  2  0
  4 10  1  0
M  END
