x1237
     RDKit          3D

 14 15  0  0  0  0  0  0  0  0999 V2000
   14.4430  -25.9400    4.3070 N   0  0  0  0  0  0  0  0  0  0  0  0
   15.8650  -25.6120    7.0350 C   0  0  0  0  0  0  0  0  0  0  0  0
   15.0650  -27.8920    7.8170 O   0  0  0  0  0  0  0  0  0  0  0  0
   16.0090  -27.5900    5.4390 C   0  0  0  0  0  0  0  0  0  0  0  0
   13.6960  -28.1120    4.4870 N   0  0  0  0  0  0  0  0  0  0  0  0
   17.4630  -27.4770    7.5170 O   0  0  0  0  0  0  0  0  0  0  0  0
   14.7350  -27.1970    4.7480 C   0  0  0  0  0  0  0  0  0  0  0  0
   13.1520  -26.0390    3.7520 C   0  0  0  0  0  0  0  0  0  0  0  0
   12.3230  -25.0330    3.2070 C   0  0  0  0  0  0  0  0  0  0  0  0
   11.0580  -25.4030    2.8030 C   0  0  0  0  0  0  0  0  0  0  0  0
   10.6020  -26.7420    2.9110 C   0  0  0  0  0  0  0  0  0  0  0  0
   11.3930  -27.7390    3.4320 C   0  0  0  0  0  0  0  0  0  0  0  0
   12.6800  -27.3750    3.8590 C   0  0  0  0  0  0  0  0  0  0  0  0
   16.1140  -27.2490    7.1230 S   0  0  1  0  0  0  0  0  0  0  0  0
  1  7  2  0
  4  7  1  0
  5  7  1  0
  1  8  1  0
  8  9  2  0
  9 10  1  0
 10 11  2  0
 11 12  1  0
  5 13  1  0
  8 13  1  0
 12 13  2  0
 14  2  1  6
  3 14  2  0
  4 14  1  0
  6 14  2  0
M  END
