x1249-x1334
     RDKit          3D

 36 40  0  0  0  0  0  0  0  0999 V2000
    8.2820    0.5650   24.8590 N   0  0  0  0  0  0  0  0  0  0  0  0
    7.5330    1.2770   23.7680 C   0  0  0  0  0  0  0  0  0  0  0  0
    8.0800    2.1390   23.0860 O   0  0  0  0  0  0  0  0  0  0  0  0
    9.4140    1.3900   25.1810 C   0  0  0  0  0  0  0  0  0  0  0  0
    8.8450   -0.8010   24.7500 C   0  0  1  0  0  0  0  0  0  0  0  0
    7.9640   -1.7920   24.3800 C   0  0  0  0  0  0  0  0  0  0  0  0
    6.1590    0.9310   23.5810 N   0  0  0  0  0  0  0  0  0  0  0  0
   10.1320   -0.3660   24.0360 C   0  0  0  0  0  0  0  0  0  0  0  0
   10.5110    0.9010   24.2630 C   0  0  0  0  0  0  0  0  0  0  0  0
    8.8150   -3.0010   24.0040 C   0  0  2  0  0  0  0  0  0  0  0  0
    5.3770    1.4640   22.6150 C   0  0  0  0  0  0  0  0  0  0  0  0
    5.4750    0.7450   24.7360 C   0  0  0  0  0  0  0  0  0  0  0  0
   11.6980    1.6430   23.7530 C   0  0  0  0  0  0  0  0  0  0  0  0
   11.0300   -1.0270   23.1740 C   0  0  0  0  0  0  0  0  0  0  0  0
    4.1050    0.6240   22.5830 C   0  0  0  0  0  0  0  0  0  0  0  0
    4.0040    0.2540   24.6540 C   0  0  0  0  0  0  0  0  0  0  0  0
   12.6170    0.8690   22.8720 C   0  0  0  0  0  0  0  0  0  0  0  0
   12.1830   -0.5550   22.5960 C   0  0  0  0  0  0  0  0  0  0  0  0
    8.6020   -3.3210   22.6950 N   0  0  0  0  0  0  0  0  0  0  0  0
    8.7760   -4.0470   25.0640 C   0  0  0  0  0  0  0  0  0  0  0  0
   13.0010   -1.4280   21.6930 C   0  0  0  0  0  0  0  0  0  0  0  0
    3.4200    0.8510   23.7470 O   0  0  0  0  0  0  0  0  0  0  0  0
    8.8040   -2.3170   21.7520 C   0  0  0  0  0  0  0  0  0  0  0  0
    7.4880   -4.2430   22.4800 C   0  0  0  0  0  0  0  0  0  0  0  0
    9.6370   -5.2680   25.1630 C   0  0  0  0  0  0  0  0  0  0  0  0
    7.6350   -3.9600   26.4290 S   0  0  0  0  0  0  0  0  0  0  0  0
   13.6220   -2.1490   20.7440 N   0  0  0  0  0  0  0  0  0  0  0  0
    7.6270   -1.8070   21.3260 C   0  0  0  0  0  0  0  0  0  0  0  0
    6.1960   -3.4990   22.1950 C   0  0  0  0  0  0  0  0  0  0  0  0
    8.2020   -5.4070   27.0980 C   0  0  0  0  0  0  0  0  0  0  0  0
    9.2320   -6.0210   26.3990 C   0  0  0  0  0  0  0  0  0  0  0  0
    7.4930   -6.0020   28.5280 Cl  0  0  0  0  0  0  0  0  0  0  0  0
    6.4550   -2.6560   21.0420 N   0  0  0  0  0  0  0  0  0  0  0  0
    6.3840   -3.3250   19.8280 C   0  0  0  0  0  0  0  0  0  0  0  0
    7.4390   -3.0360   18.7430 C   0  0  0  0  0  0  0  0  0  0  0  0
    5.4720   -4.1440   19.6950 O   0  0  0  0  0  0  0  0  0  0  0  0
  1  2  1  0
  2  3  2  0
  1  4  1  0
  1  5  1  0
  5  6  1  6
  2  7  1  0
  5  8  1  0
  4  9  1  0
  8  9  2  0
 10  6  1  1
  7 11  1  0
  7 12  1  0
  9 13  1  0
  8 14  1  0
 11 15  1  0
 12 16  1  0
 13 17  2  0
 14 18  2  0
 17 18  1  0
 10 19  1  0
 10 20  1  0
 18 21  1  0
 15 22  1  0
 16 22  1  0
 19 23  1  0
 19 24  1  0
 20 25  2  0
 20 26  1  0
 21 27  3  0
 23 28  1  0
 24 29  1  0
 26 30  1  0
 25 31  1  0
 30 31  2  0
 30 32  1  0
 28 33  1  0
 29 33  1  0
 33 34  1  0
 34 35  1  0
 34 36  2  0
M  END
