x1249-x2052
     RDKit          3D

 38 42  0  0  0  0  0  0  0  0999 V2000
    5.8920   -1.3030   24.7980 C   0  0  0  0  0  0  0  0  0  0  0  0
    4.9750   -0.3780   24.2390 N   0  0  0  0  0  0  0  0  0  0  0  0
    4.9950    0.9630   24.6520 C   0  0  2  0  0  0  0  0  0  0  0  0
    6.7590   -0.8330   25.8710 N   0  0  0  0  0  0  0  0  0  0  0  0
    5.8730   -2.5580   23.9390 C   0  0  0  0  0  0  0  0  0  0  0  0
    8.0100   -0.3950   25.6320 C   0  0  0  0  0  0  0  0  0  0  0  0
    6.2350   -1.8050   22.6130 C   0  0  0  0  0  0  0  0  0  0  0  0
    6.8240   -3.7650   24.0900 C   0  0  0  0  0  0  0  0  0  0  0  0
    6.3060   -0.2740   27.0420 C   0  0  0  0  0  0  0  0  0  0  0  0
    8.1820    0.6250   24.7260 N   0  0  0  0  0  0  0  0  0  0  0  0
    7.4220   -2.5510   22.0810 C   0  0  0  0  0  0  0  0  0  0  0  0
    6.6670   -4.5730   22.7620 C   0  0  0  0  0  0  0  0  0  0  0  0
    6.6140    1.0560   27.3190 C   0  0  0  0  0  0  0  0  0  0  0  0
    5.4760   -0.9250   28.1660 C   0  0  0  0  0  0  0  0  0  0  0  0
    3.9360    1.4360   24.2180 O   0  0  0  0  0  0  0  0  0  0  0  0
    5.8890    1.5170   24.0710 N   0  0  0  0  0  0  0  0  0  0  0  0
    7.2490    1.7000   24.4100 C   0  0  0  0  0  0  0  0  0  0  0  0
    9.5600    1.1440   24.8740 C   0  0  0  0  0  0  0  0  0  0  0  0
    7.0330   -3.7710   21.6710 N   0  0  0  0  0  0  0  0  0  0  0  0
    6.3020    1.8150   28.3820 N   0  0  0  0  0  0  0  0  0  0  0  0
    5.1130   -0.0890   29.3810 C   0  0  0  0  0  0  0  0  0  0  0  0
    4.1440    1.4910   22.8690 C   0  0  0  0  0  0  0  0  0  0  0  0
    5.4970    1.6750   22.6640 C   0  0  0  0  0  0  0  0  0  0  0  0
    6.5240   -3.9690   20.3540 C   0  0  0  0  0  0  0  0  0  0  0  0
    7.7860    3.0290   24.3460 O   0  0  0  0  0  0  0  0  0  0  0  0
    5.5240    1.2520   29.4790 C   0  0  0  0  0  0  0  0  0  0  0  0
   10.5440    0.3750   24.0020 C   0  0  0  0  0  0  0  0  0  0  0  0
    5.5770   -4.7140   20.0310 O   0  0  0  0  0  0  0  0  0  0  0  0
    5.1850    2.0290   30.6280 O   0  0  0  0  0  0  0  0  0  0  0  0
    7.2660   -3.2510   19.2460 C   0  0  0  0  0  0  0  0  0  0  0  0
   11.9390    0.8650   23.6520 C   0  0  0  0  0  0  0  0  0  0  0  0
   10.1760   -0.8430   23.4790 C   0  0  0  0  0  0  0  0  0  0  0  0
    5.9370    3.2250   30.8190 C   0  0  0  0  0  0  0  0  0  0  0  0
   12.7740    0.1080   22.8490 C   0  0  0  0  0  0  0  0  0  0  0  0
   10.9840   -1.6100   22.6810 C   0  0  0  0  0  0  0  0  0  0  0  0
   12.2810   -1.2440   22.3040 C   0  0  0  0  0  0  0  0  0  0  0  0
   12.9760   -2.1360   21.4790 C   0  0  0  0  0  0  0  0  0  0  0  0
   13.5360   -3.1730   20.6430 N   0  0  0  0  0  0  0  0  0  0  0  0
  1  2  2  0
  3  2  1  6
  1  4  1  0
  1  5  1  0
  4  6  1  0
  5  7  1  0
  5  8  1  0
  4  9  1  0
  6 10  1  0
  7 11  1  0
  8 12  1  0
  9 13  2  0
  9 14  1  0
  3 15  1  0
  3 16  1  0
 10 17  1  0
 16 17  1  0
 10 18  1  0
 11 19  1  0
 12 19  1  0
 13 20  1  0
 14 21  2  0
 15 22  1  0
 16 23  1  0
 22 23  1  0
 19 24  1  0
 17 25  2  0
 20 26  2  0
 21 26  1  0
 18 27  1  0
 24 28  2  0
 26 29  1  0
 24 30  1  0
 27 31  2  0
 27 32  1  0
 29 33  1  0
 31 34  1  0
 32 35  2  0
 34 36  2  0
 35 36  1  0
 36 37  1  0
 37 38  3  0
M  END
