x1249-x1380
     RDKit          3D

 36 39  0  0  0  0  0  0  0  0999 V2000
    8.3060    0.6190   24.8010 N   0  0  0  0  0  0  0  0  0  0  0  0
    7.5280    1.4720   23.9240 C   0  0  0  0  0  0  0  0  0  0  0  0
    7.9620    2.7130   23.3480 O   0  0  0  0  0  0  0  0  0  0  0  0
    9.5730    1.0190   25.0550 C   0  0  0  0  0  0  0  0  0  0  0  0
    6.1840    0.9820   23.6280 N   0  0  0  0  0  0  0  0  0  0  0  0
   10.5500    0.3530   24.1190 C   0  0  0  0  0  0  0  0  0  0  0  0
    5.4740    1.5090   22.6270 C   0  0  0  0  0  0  0  0  0  0  0  0
    5.3270    0.8020   24.7990 C   0  0  0  0  0  0  0  0  0  0  0  0
   11.8490    0.8070   23.8200 C   0  0  0  0  0  0  0  0  0  0  0  0
   10.0890   -0.9000   23.4610 C   0  0  0  0  0  0  0  0  0  0  0  0
    4.1090    0.7930   22.5580 C   0  0  0  0  0  0  0  0  0  0  0  0
    4.1850    0.0910   24.5680 C   0  0  2  0  0  0  0  0  0  0  0  0
   12.7620    0.0350   22.8730 C   0  0  0  0  0  0  0  0  0  0  0  0
   10.9640   -1.5270   22.6270 C   0  0  0  0  0  0  0  0  0  0  0  0
    4.5060   -1.4120   24.1900 C   0  0  0  0  0  0  0  0  0  0  0  0
    3.5370    0.6130   23.6420 O   0  0  0  0  0  0  0  0  0  0  0  0
   12.2260   -1.0950   22.3540 C   0  0  0  0  0  0  0  0  0  0  0  0
   12.9260   -1.9390   21.4860 C   0  0  0  0  0  0  0  0  0  0  0  0
    5.0800   -2.0770   25.3670 N   0  0  0  0  0  0  0  0  0  0  0  0
   13.5040   -2.8860   20.7060 N   0  0  0  0  0  0  0  0  0  0  0  0
    6.0740   -3.1610   25.4620 C   0  0  0  0  0  0  0  0  0  0  0  0
    6.7690   -3.8920   24.2730 C   0  0  0  0  0  0  0  0  0  0  0  0
    6.4330   -3.5400   26.8250 N   0  0  0  0  0  0  0  0  0  0  0  0
    5.7860   -4.6820   23.6790 C   0  0  0  0  0  0  0  0  0  0  0  0
    7.4760   -3.0030   23.4630 C   0  0  0  0  0  0  0  0  0  0  0  0
    7.8380   -3.9580   27.0570 C   0  0  0  0  0  0  0  0  0  0  0  0
    5.5910   -3.8030   27.8400 C   0  0  0  0  0  0  0  0  0  0  0  0
    6.2120   -5.1140   22.4330 C   0  0  0  0  0  0  0  0  0  0  0  0
    7.4110   -3.1670   22.0970 C   0  0  0  0  0  0  0  0  0  0  0  0
    8.0220   -5.2750   27.8380 C   0  0  0  0  0  0  0  0  0  0  0  0
    5.7070   -5.0870   28.4240 C   0  0  0  0  0  0  0  0  0  0  0  0
    6.7060   -4.1890   21.5740 N   0  0  0  0  0  0  0  0  0  0  0  0
    6.9960   -5.5090   28.7330 C   0  0  0  0  0  0  0  0  0  0  0  0
    6.2620   -4.0620   20.2630 C   0  0  0  0  0  0  0  0  0  0  0  0
    7.1410   -3.2830   19.2860 C   0  0  0  0  0  0  0  0  0  0  0  0
    5.2300   -4.6000   19.8970 O   0  0  0  0  0  0  0  0  0  0  0  0
  1  2  1  0
  2  3  2  0
  1  4  1  0
  2  5  1  0
  4  6  1  0
  5  7  1  0
  5  8  1  0
  6  9  2  0
  6 10  1  0
  7 11  1  0
  8 12  1  0
  9 13  1  0
 10 14  2  0
 12 15  1  6
 11 16  1  0
 12 16  1  0
 13 17  2  0
 14 17  1  0
 17 18  1  0
 15 19  1  0
 18 20  3  0
 19 21  2  3
 21 22  1  0
 21 23  1  0
 22 24  1  0
 22 25  1  0
 23 26  1  0
 23 27  1  0
 24 28  1  0
 25 29  1  0
 26 30  1  0
 27 31  1  0
 28 32  1  0
 29 32  1  0
 30 33  1  0
 31 33  1  0
 32 34  1  0
 34 35  1  0
 34 36  2  0
M  END
