x1249-x0736
     RDKit          3D

 33 36  0  0  0  0  0  0  0  0999 V2000
    7.0870    1.3230   24.1980 C   0  0  0  0  0  0  0  0  0  0  0  0
    5.7160    1.0870   23.9310 N   0  0  0  0  0  0  0  0  0  0  0  0
    5.1890    1.2660   22.6740 C   0  0  0  0  0  0  0  0  0  0  0  0
    7.5780    2.4310   23.9790 O   0  0  0  0  0  0  0  0  0  0  0  0
    7.9100    0.1980   24.7220 C   0  0  2  0  0  0  0  0  0  0  0  0
    4.8190    0.9630   24.9480 C   0  0  0  0  0  0  0  0  0  0  0  0
    7.4820   -1.0960   25.5060 C   0  0  1  0  0  0  0  0  0  0  0  0
    9.0390    0.8470   25.4700 C   0  0  2  0  0  0  0  0  0  0  0  0
   10.0160    1.4990   24.4590 C   0  0  0  0  0  0  0  0  0  0  0  0
    6.8830   -2.2970   24.7950 C   0  0  0  0  0  0  0  0  0  0  0  0
    3.8500    0.9560   22.4730 C   0  0  0  0  0  0  0  0  0  0  0  0
    3.8520    0.0880   24.4390 C   0  0  0  0  0  0  0  0  0  0  0  0
    8.5690   -1.2920   26.3180 C   0  0  0  0  0  0  0  0  0  0  0  0
    9.5210   -0.1580   26.3020 C   0  0  0  0  0  0  0  0  0  0  0  0
    5.7400   -2.6290   25.0770 O   0  0  0  0  0  0  0  0  0  0  0  0
    3.1650    0.6920   23.6100 O   0  0  0  0  0  0  0  0  0  0  0  0
   10.9040    0.5940   23.6900 C   0  0  0  0  0  0  0  0  0  0  0  0
    7.5700   -3.0220   23.8670 N   0  0  0  0  0  0  0  0  0  0  0  0
   12.2350    0.9550   23.4890 C   0  0  0  0  0  0  0  0  0  0  0  0
   10.3530   -0.5660   23.1900 C   0  0  0  0  0  0  0  0  0  0  0  0
    8.4070   -2.4980   22.9770 C   0  0  0  0  0  0  0  0  0  0  0  0
    6.8750   -4.1600   23.3230 C   0  0  0  0  0  0  0  0  0  0  0  0
   13.1220    0.0180   22.6760 C   0  0  0  0  0  0  0  0  0  0  0  0
   11.0300   -1.4840   22.4510 C   0  0  0  0  0  0  0  0  0  0  0  0
    7.6280   -2.0830   21.6940 C   0  0  0  0  0  0  0  0  0  0  0  0
    5.9730   -3.6730   22.3850 C   0  0  0  0  0  0  0  0  0  0  0  0
   12.4610   -1.2290   22.1570 C   0  0  0  0  0  0  0  0  0  0  0  0
    6.6350   -2.9350   21.2830 N   0  0  0  0  0  0  0  0  0  0  0  0
   13.1130   -2.3080   21.3200 C   0  0  0  0  0  0  0  0  0  0  0  0
    6.3830   -3.3890   19.9830 C   0  0  0  0  0  0  0  0  0  0  0  0
   13.5200   -3.1640   20.6940 N   0  0  0  0  0  0  0  0  0  0  0  0
    7.3870   -3.0300   18.9070 C   0  0  0  0  0  0  0  0  0  0  0  0
    5.4020   -4.1020   19.7310 O   0  0  0  0  0  0  0  0  0  0  0  0
  1  2  1  0
  2  3  1  0
  1  4  2  0
  5  1  1  1
  2  6  1  0
  5  7  1  0
  5  8  1  0
  8  9  1  6
  7 10  1  6
  3 11  1  0
  6 12  1  0
  7 13  1  0
  8 14  1  0
 13 14  2  0
 10 15  2  0
 11 16  1  0
 12 16  1  0
  9 17  1  0
 10 18  1  0
 17 19  2  0
 17 20  1  0
 18 21  1  0
 18 22  1  0
 19 23  1  0
 20 24  2  0
 21 25  1  0
 22 26  1  0
 23 27  2  0
 24 27  1  0
 25 28  1  0
 26 28  1  0
 27 29  1  0
 28 30  1  0
 29 31  3  0
 30 32  1  0
 30 33  2  0
M  END
