x1249-x1458
     RDKit          3D

 36 38  0  0  0  0  0  0  0  0999 V2000
    7.0970   -3.6070   26.6260 N   0  0  0  0  0  0  0  0  0  0  0  0
    7.7640   -4.7650   27.0010 C   0  0  0  0  0  0  0  0  0  0  0  0
    9.2160   -4.7040   27.4460 C   0  0  0  0  0  0  0  0  0  0  0  0
    7.3510   -2.3710   27.3900 C   0  0  0  0  0  0  0  0  0  0  0  0
    6.1640   -3.6060   25.5490 C   0  0  0  0  0  0  0  0  0  0  0  0
    4.9620   -3.2880   25.6770 O   0  0  0  0  0  0  0  0  0  0  0  0
    6.9370   -5.5960   27.9750 C   0  0  0  0  0  0  0  0  0  0  0  0
    8.1500   -1.2930   26.6200 C   0  0  0  0  0  0  0  0  0  0  0  0
    6.6950   -4.0200   24.1950 C   0  0  0  0  0  0  0  0  0  0  0  0
    7.3690   -0.1830   25.9370 C   0  0  0  0  0  0  0  0  0  0  0  0
    6.7750   -2.9220   23.3610 C   0  0  0  0  0  0  0  0  0  0  0  0
    5.8930   -4.9710   23.5230 C   0  0  0  0  0  0  0  0  0  0  0  0
    8.0790    0.5700   24.8310 N   0  0  0  0  0  0  0  0  0  0  0  0
    7.3710   -3.2530   22.1440 C   0  0  0  0  0  0  0  0  0  0  0  0
    6.4190   -5.3250   22.2850 C   0  0  0  0  0  0  0  0  0  0  0  0
    7.3880    1.4330   23.9530 C   0  0  0  0  0  0  0  0  0  0  0  0
    9.4560    0.9680   25.0860 C   0  0  0  0  0  0  0  0  0  0  0  0
    6.7980   -4.2990   21.4950 N   0  0  0  0  0  0  0  0  0  0  0  0
    6.2690   -4.0630   20.2200 C   0  0  0  0  0  0  0  0  0  0  0  0
    7.9610    2.3380   23.3580 O   0  0  0  0  0  0  0  0  0  0  0  0
    6.0530    1.2240   23.8010 N   0  0  0  0  0  0  0  0  0  0  0  0
   10.5130    0.3570   24.1350 C   0  0  0  0  0  0  0  0  0  0  0  0
    5.1940   -4.5150   19.8640 O   0  0  0  0  0  0  0  0  0  0  0  0
    7.1290   -3.2610   19.2550 C   0  0  0  0  0  0  0  0  0  0  0  0
    5.4570    1.4720   22.4880 C   0  0  0  0  0  0  0  0  0  0  0  0
    5.1690    1.4100   24.8010 C   0  0  0  0  0  0  0  0  0  0  0  0
   11.7790    0.8990   23.8440 C   0  0  0  0  0  0  0  0  0  0  0  0
   10.1060   -0.8410   23.5610 C   0  0  0  0  0  0  0  0  0  0  0  0
    4.3690    0.5970   22.3630 C   0  0  0  0  0  0  0  0  0  0  0  0
    4.0660    0.5640   24.7870 C   0  0  0  0  0  0  0  0  0  0  0  0
   12.6430    0.2240   22.9890 C   0  0  0  0  0  0  0  0  0  0  0  0
   10.8420   -1.6110   22.7020 C   0  0  0  0  0  0  0  0  0  0  0  0
    3.4570    0.5480   23.4850 O   0  0  0  0  0  0  0  0  0  0  0  0
   12.2360   -1.1250   22.3400 C   0  0  0  0  0  0  0  0  0  0  0  0
   12.9410   -2.0420   21.4370 C   0  0  0  0  0  0  0  0  0  0  0  0
   13.5100   -2.9800   20.6830 N   0  0  0  0  0  0  0  0  0  0  0  0
  1  2  1  0
  2  3  1  0
  1  4  1  0
  1  5  1  0
  5  6  2  0
  2  7  1  0
  4  8  1  0
  5  9  1  0
  8 10  1  0
  9 11  1  0
  9 12  1  0
 10 13  1  0
 11 14  1  0
 12 15  1  0
 13 16  1  0
 13 17  1  0
 14 18  1  0
 15 18  1  0
 18 19  1  0
 16 20  2  0
 16 21  1  0
 17 22  1  0
 19 23  2  0
 19 24  1  0
 21 25  1  0
 21 26  1  0
 22 27  2  0
 22 28  1  0
 25 29  1  0
 26 30  1  0
 27 31  1  0
 28 32  2  0
 29 33  1  0
 30 33  1  0
 31 34  2  0
 32 34  1  0
 34 35  1  0
 35 36  3  0
M  END
