x1249-x0755
     RDKit          3D

 39 42  0  0  0  0  0  0  0  0999 V2000
    4.5150   -6.3430   25.9270 O   0  0  0  0  0  0  0  0  0  0  0  0
    5.0550   -5.0080   25.7640 S   0  0  0  0  0  0  0  0  0  0  0  0
    6.0660   -4.5210   26.6730 O   0  0  0  0  0  0  0  0  0  0  0  0
    3.6970   -3.8610   25.8900 C   0  0  0  0  0  0  0  0  0  0  0  0
    5.6190   -4.8630   24.1590 N   0  0  0  0  0  0  0  0  0  0  0  0
    2.4120   -4.3180   25.8640 C   0  0  0  0  0  0  0  0  0  0  0  0
    3.9000   -2.4980   26.0220 C   0  0  0  0  0  0  0  0  0  0  0  0
    7.0180   -4.7690   23.9760 C   0  0  0  0  0  0  0  0  0  0  0  0
    4.9280   -5.7660   23.1950 C   0  0  0  0  0  0  0  0  0  0  0  0
    2.1050   -5.6130   25.7340 F   0  0  0  0  0  0  0  0  0  0  0  0
    5.1940   -1.8850   26.0430 O   0  0  0  0  0  0  0  0  0  0  0  0
    2.9070   -1.5250   26.1510 C   0  0  0  0  0  0  0  0  0  0  0  0
    1.3840   -3.3980   25.9790 C   0  0  0  0  0  0  0  0  0  0  0  0
    7.5170   -4.5900   22.6740 C   0  0  0  0  0  0  0  0  0  0  0  0
    5.7010   -6.0970   22.0730 C   0  0  0  0  0  0  0  0  0  0  0  0
    5.6130   -1.1610   24.8700 C   0  0  0  0  0  0  0  0  0  0  0  0
    1.6070   -2.0130   26.1260 C   0  0  0  0  0  0  0  0  0  0  0  0
    6.6980   -5.1180   21.5970 N   0  0  0  0  0  0  0  0  0  0  0  0
    6.3620   -4.4210   20.4360 C   0  0  0  0  0  0  0  0  0  0  0  0
    5.3790    0.3690   24.9490 C   0  0  1  0  0  0  0  0  0  0  0  0
    5.2750   -4.6160   19.9190 O   0  0  0  0  0  0  0  0  0  0  0  0
    7.3440   -3.4160   19.7890 C   0  0  0  0  0  0  0  0  0  0  0  0
    6.1900    1.1690   24.0270 N   0  0  0  0  0  0  0  0  0  0  0  0
    4.0300    0.7060   24.7540 C   0  0  0  0  0  0  0  0  0  0  0  0
    7.6080    1.4480   24.2150 C   0  0  0  0  0  0  0  0  0  0  0  0
    3.7770    1.7120   23.7390 O   0  0  0  0  0  0  0  0  0  0  0  0
    5.8580    0.9920   22.7410 C   0  0  0  0  0  0  0  0  0  0  0  0
    8.0440    0.7750   25.0420 N   0  0  0  0  0  0  0  0  0  0  0  0
    8.2410    2.2860   23.5800 O   0  0  0  0  0  0  0  0  0  0  0  0
    4.5410    1.6970   22.5180 C   0  0  0  0  0  0  0  0  0  0  0  0
    9.4390    0.8310   25.3600 C   0  0  0  0  0  0  0  0  0  0  0  0
   10.4070    0.2190   24.3960 C   0  0  0  0  0  0  0  0  0  0  0  0
   11.5970    1.0210   23.8910 C   0  0  0  0  0  0  0  0  0  0  0  0
   10.2100   -1.0760   23.9580 C   0  0  0  0  0  0  0  0  0  0  0  0
   12.4420    0.4520   23.0120 C   0  0  0  0  0  0  0  0  0  0  0  0
   11.1810   -1.6630   22.9720 C   0  0  0  0  0  0  0  0  0  0  0  0
   12.2140   -0.8370   22.5820 C   0  0  0  0  0  0  0  0  0  0  0  0
   13.1300   -1.3540   21.6240 C   0  0  0  0  0  0  0  0  0  0  0  0
   13.9080   -1.7320   20.5300 N   0  0  0  0  0  0  0  0  0  0  0  0
  1  2  2  0
  2  3  2  0
  2  4  1  0
  2  5  1  0
  4  6  2  0
  4  7  1  0
  5  8  1  0
  5  9  1  0
  6 10  1  0
  7 11  1  0
  7 12  2  0
  6 13  1  0
  8 14  1  0
  9 15  1  0
 11 16  1  0
 12 17  1  0
 13 17  2  0
 14 18  1  0
 15 18  1  0
 18 19  1  0
 20 16  1  6
 19 21  2  0
 19 22  1  0
 20 23  1  0
 20 24  1  0
 23 25  1  0
 24 26  1  0
 23 27  1  0
 25 28  1  0
 25 29  2  0
 26 30  1  0
 27 30  1  0
 28 31  1  0
 31 32  1  0
 32 33  2  0
 32 34  1  0
 33 35  1  0
 34 36  2  0
 35 37  2  0
 36 37  1  0
 37 38  1  0
 38 39  3  0
M  END
