x1249-x1425
     RDKit          3D

 37 40  0  0  0  0  0  0  0  0999 V2000
    8.1330    0.4730   25.2090 N   0  0  0  0  0  0  0  0  0  0  0  0
    7.5990    1.3510   24.1290 C   0  0  0  0  0  0  0  0  0  0  0  0
    8.1330    2.3270   23.6080 O   0  0  0  0  0  0  0  0  0  0  0  0
    9.5050    0.7660   25.5030 C   0  0  0  0  0  0  0  0  0  0  0  0
    6.2570    0.9850   23.6320 C   0  0  0  0  0  0  0  0  0  0  0  0
   10.4280    0.1910   24.5080 C   0  0  0  0  0  0  0  0  0  0  0  0
    5.7140    1.9450   22.5680 C   0  0  0  0  0  0  0  0  0  0  0  0
    5.3630    0.8260   24.7020 C   0  0  0  0  0  0  0  0  0  0  0  0
   11.4960    0.9390   23.9980 C   0  0  0  0  0  0  0  0  0  0  0  0
   10.2170   -1.2080   24.0340 C   0  0  0  0  0  0  0  0  0  0  0  0
    6.5480   -0.3180   22.8890 C   0  0  0  0  0  0  0  0  0  0  0  0
    4.2330    1.6420   22.4960 C   0  0  0  0  0  0  0  0  0  0  0  0
    4.0680    0.3810   24.3510 C   0  0  0  0  0  0  0  0  0  0  0  0
   12.3830    0.4180   23.0510 C   0  0  0  0  0  0  0  0  0  0  0  0
   11.1290   -1.8000   23.0280 C   0  0  0  0  0  0  0  0  0  0  0  0
    6.6150   -1.6140   23.7280 C   0  0  0  0  0  0  0  0  0  0  0  0
    3.5470    1.2530   23.6930 O   0  0  0  0  0  0  0  0  0  0  0  0
   12.2420   -0.8890   22.5540 C   0  0  0  0  0  0  0  0  0  0  0  0
    6.3340   -2.7820   23.0160 C   0  0  1  0  0  0  0  0  0  0  0  0
   13.1710   -1.3540   21.5590 C   0  0  0  0  0  0  0  0  0  0  0  0
    7.3310   -3.2640   22.2160 C   0  0  0  0  0  0  0  0  0  0  0  0
    5.7590   -3.8090   23.8950 N   0  0  0  0  0  0  0  0  0  0  0  0
   13.9210   -1.6500   20.5060 N   0  0  0  0  0  0  0  0  0  0  0  0
    4.9200   -3.4580   25.0510 C   0  0  0  0  0  0  0  0  0  0  0  0
    6.8140   -4.3580   21.4660 N   0  0  0  0  0  0  0  0  0  0  0  0
    5.3030   -4.9420   23.1660 C   0  0  0  0  0  0  0  0  0  0  0  0
    6.2640   -4.1300   20.2190 C   0  0  0  0  0  0  0  0  0  0  0  0
    5.5320   -2.7670   26.0930 C   0  0  0  0  0  0  0  0  0  0  0  0
    3.5860   -3.8090   25.0740 C   0  0  0  0  0  0  0  0  0  0  0  0
    6.3390   -5.4270   22.3380 C   0  0  0  0  0  0  0  0  0  0  0  0
    5.1950   -4.6080   19.8800 O   0  0  0  0  0  0  0  0  0  0  0  0
    7.0820   -3.2860   19.2580 C   0  0  0  0  0  0  0  0  0  0  0  0
    4.7860   -2.3940   27.2200 C   0  0  0  0  0  0  0  0  0  0  0  0
    2.8060   -3.4000   26.2980 C   0  0  0  0  0  0  0  0  0  0  0  0
    3.4560   -2.6990   27.3280 C   0  0  0  0  0  0  0  0  0  0  0  0
    2.6650   -2.3730   28.3950 O   0  0  0  0  0  0  0  0  0  0  0  0
    1.2560   -2.3010   28.1830 C   0  0  0  0  0  0  0  0  0  0  0  0
  1  2  1  0
  2  3  2  0
  1  4  1  0
  5  2  1  0
  4  6  1  0
  5  7  1  0
  5  8  1  0
  6  9  2  0
  6 10  1  0
  5 11  1  0
  7 12  1  0
  8 13  1  0
  9 14  1  0
 10 15  2  0
 11 16  1  0
 12 17  1  0
 13 17  1  0
 14 18  2  0
 15 18  1  0
 19 16  1  1
 18 20  1  0
 19 21  1  0
 19 22  1  0
 20 23  3  0
 22 24  1  0
 21 25  1  0
 22 26  1  0
 25 27  1  0
 24 28  2  0
 24 29  1  0
 25 30  1  0
 26 30  1  0
 27 31  2  0
 27 32  1  0
 28 33  1  0
 29 34  2  0
 33 35  2  0
 34 35  1  0
 35 36  1  0
 36 37  1  0
M  END
