x1249-x0689
     RDKit          3D

 38 41  0  0  0  0  0  0  0  0999 V2000
    7.5420   -3.4940   20.1710 C   0  0  0  0  0  0  0  0  0  0  0  0
    6.4050   -4.4850   20.6070 C   0  0  0  0  0  0  0  0  0  0  0  0
    5.3840   -4.6640   19.9380 O   0  0  0  0  0  0  0  0  0  0  0  0
    6.5570   -5.2190   21.8100 N   0  0  0  0  0  0  0  0  0  0  0  0
    5.6970   -6.3660   22.1550 C   0  0  0  0  0  0  0  0  0  0  0  0
    7.0910   -4.4640   22.9890 C   0  0  0  0  0  0  0  0  0  0  0  0
    4.7610   -6.0690   23.1600 C   0  0  0  0  0  0  0  0  0  0  0  0
    6.0170   -4.0140   23.7350 C   0  0  1  0  0  0  0  0  0  0  0  0
    4.9900   -3.0890   23.1080 C   0  0  0  0  0  0  0  0  0  0  0  0
    5.3160   -5.1910   24.2190 N   0  0  0  0  0  0  0  0  0  0  0  0
    4.6140   -5.1910   25.7780 S   0  0  0  0  0  0  0  0  0  0  0  0
    5.2770   -1.5890   23.3790 C   0  0  0  0  0  0  0  0  0  0  0  0
    3.9920   -6.4800   25.9870 O   0  0  0  0  0  0  0  0  0  0  0  0
    5.6150   -4.6730   26.6860 O   0  0  0  0  0  0  0  0  0  0  0  0
    3.2830   -4.0170   25.8290 C   0  0  0  0  0  0  0  0  0  0  0  0
    4.4600   -1.0970   24.5390 C   0  0  0  0  0  0  0  0  0  0  0  0
    3.5530   -2.5620   26.7180 S   0  0  0  0  0  0  0  0  0  0  0  0
    2.0070   -4.0680   25.2550 C   0  0  0  0  0  0  0  0  0  0  0  0
    4.2060    0.4220   24.7150 C   0  0  2  0  0  0  0  0  0  0  0  0
    1.2210   -2.9620   25.5050 C   0  0  0  0  0  0  0  0  0  0  0  0
    2.0020   -1.9610   26.3630 C   0  0  0  0  0  0  0  0  0  0  0  0
    3.6120    1.0420   23.5680 O   0  0  0  0  0  0  0  0  0  0  0  0
    5.5030    1.0840   25.0480 C   0  0  0  0  0  0  0  0  0  0  0  0
    4.4780    1.4690   22.4860 C   0  0  0  0  0  0  0  0  0  0  0  0
    6.3630    1.4180   23.9130 N   0  0  0  0  0  0  0  0  0  0  0  0
    7.8030    1.4500   24.0990 C   0  0  0  0  0  0  0  0  0  0  0  0
    5.7920    2.0770   22.8960 C   0  0  0  0  0  0  0  0  0  0  0  0
    8.2090    0.4600   24.9170 N   0  0  0  0  0  0  0  0  0  0  0  0
    8.5240    2.2860   23.5720 O   0  0  0  0  0  0  0  0  0  0  0  0
    9.4380    0.6700   25.4400 C   0  0  0  0  0  0  0  0  0  0  0  0
   10.4130    0.1560   24.4670 C   0  0  0  0  0  0  0  0  0  0  0  0
   11.4390    0.9850   24.0190 C   0  0  0  0  0  0  0  0  0  0  0  0
   10.2660   -1.1580   24.0180 C   0  0  0  0  0  0  0  0  0  0  0  0
   12.4290    0.5360   23.0450 C   0  0  0  0  0  0  0  0  0  0  0  0
   11.2210   -1.7110   23.0170 C   0  0  0  0  0  0  0  0  0  0  0  0
   12.2190   -0.8860   22.5810 C   0  0  0  0  0  0  0  0  0  0  0  0
   13.1780   -1.3400   21.5760 C   0  0  0  0  0  0  0  0  0  0  0  0
   13.9780   -1.5800   20.4450 N   0  0  0  0  0  0  0  0  0  0  0  0
  1  2  1  0
  2  3  2  0
  2  4  1  0
  4  5  1  0
  4  6  1  0
  5  7  1  0
  6  8  1  0
  8  9  1  6
  7 10  1  0
  8 10  1  0
 10 11  1  0
  9 12  1  0
 11 13  2  0
 11 14  2  0
 11 15  1  0
 12 16  1  0
 15 17  1  0
 15 18  2  0
 19 16  1  6
 18 20  1  0
 17 21  1  0
 20 21  2  0
 19 22  1  0
 19 23  1  0
 22 24  1  0
 23 25  1  0
 25 26  1  0
 24 27  1  0
 25 27  1  0
 26 28  1  0
 26 29  2  0
 28 30  1  0
 30 31  1  0
 31 32  2  0
 31 33  1  0
 32 34  1  0
 33 35  2  0
 34 36  2  0
 35 36  1  0
 36 37  1  0
 37 38  3  0
M  END
