x1249-x1412
     RDKit          3D

 35 38  0  0  0  0  0  0  0  0999 V2000
    8.1270    0.5460   24.6510 N   0  0  0  0  0  0  0  0  0  0  0  0
    7.4200    1.6130   23.8790 C   0  0  0  0  0  0  0  0  0  0  0  0
    7.9960    2.5850   23.4000 O   0  0  0  0  0  0  0  0  0  0  0  0
    9.3970    0.9830   25.2160 C   0  0  0  0  0  0  0  0  0  0  0  0
    7.3230   -0.3130   25.4970 C   0  0  0  0  0  0  0  0  0  0  0  0
    7.9050   -1.5790   26.0120 N   0  0  0  0  0  0  0  0  0  0  0  0
    5.9740    1.3840   23.7600 N   0  0  0  0  0  0  0  0  0  0  0  0
   10.4790    0.5430   24.2870 C   0  0  0  0  0  0  0  0  0  0  0  0
    8.0700   -2.7050   25.0390 C   0  0  0  0  0  0  0  0  0  0  0  0
    5.4120    1.6780   22.5780 C   0  0  0  0  0  0  0  0  0  0  0  0
    5.1070    1.4490   24.7920 C   0  0  0  0  0  0  0  0  0  0  0  0
   11.5520    1.3410   23.8980 C   0  0  0  0  0  0  0  0  0  0  0  0
   10.3570   -0.7340   23.8080 C   0  0  0  0  0  0  0  0  0  0  0  0
    4.3910    0.7280   22.3720 C   0  0  0  0  0  0  0  0  0  0  0  0
    3.9920    0.6270   24.6690 C   0  0  0  0  0  0  0  0  0  0  0  0
   12.5670    0.7840   22.9640 C   0  0  0  0  0  0  0  0  0  0  0  0
   11.2420   -1.3040   22.9290 C   0  0  0  0  0  0  0  0  0  0  0  0
    7.7780   -2.6990   23.6610 N   0  0  0  0  0  0  0  0  0  0  0  0
    8.5100   -3.9330   25.7590 C   0  0  0  0  0  0  0  0  0  0  0  0
    3.4340    0.9890   23.3980 O   0  0  0  0  0  0  0  0  0  0  0  0
   12.3300   -0.6260   22.4900 C   0  0  0  0  0  0  0  0  0  0  0  0
    8.2130   -1.7320   22.6340 C   0  0  0  0  0  0  0  0  0  0  0  0
    7.4910   -3.9260   23.1270 C   0  0  0  0  0  0  0  0  0  0  0  0
    9.3640   -4.9660   25.3740 C   0  0  0  0  0  0  0  0  0  0  0  0
    7.8370   -4.1500   27.3790 S   0  0  0  0  0  0  0  0  0  0  0  0
   13.1820   -1.3500   21.5630 C   0  0  0  0  0  0  0  0  0  0  0  0
    7.2090   -1.7020   21.5000 C   0  0  0  0  0  0  0  0  0  0  0  0
    6.4750   -3.9130   22.0670 C   0  0  0  0  0  0  0  0  0  0  0  0
    8.6760   -5.6350   27.6010 C   0  0  0  0  0  0  0  0  0  0  0  0
    9.5040   -5.9590   26.3600 C   0  0  0  0  0  0  0  0  0  0  0  0
   13.7900   -2.0350   20.6160 N   0  0  0  0  0  0  0  0  0  0  0  0
    6.4850   -2.9430   21.1330 N   0  0  0  0  0  0  0  0  0  0  0  0
    6.3030   -3.3990   19.8550 C   0  0  0  0  0  0  0  0  0  0  0  0
    7.3570   -3.0450   18.8030 C   0  0  0  0  0  0  0  0  0  0  0  0
    5.3190   -4.0950   19.6440 O   0  0  0  0  0  0  0  0  0  0  0  0
  1  2  1  0
  2  3  2  0
  1  4  1  0
  1  5  1  0
  5  6  1  0
  2  7  1  0
  4  8  1  0
  6  9  2  3
  7 10  1  0
  7 11  1  0
  8 12  2  0
  8 13  1  0
 10 14  1  0
 11 15  1  0
 12 16  1  0
 13 17  2  0
  9 18  1  0
  9 19  1  0
 14 20  1  0
 15 20  1  0
 16 21  2  0
 17 21  1  0
 18 22  1  0
 18 23  1  0
 19 24  2  0
 19 25  1  0
 21 26  1  0
 22 27  1  0
 23 28  1  0
 25 29  1  0
 24 30  1  0
 29 30  2  0
 26 31  3  0
 27 32  1  0
 28 32  1  0
 32 33  1  0
 33 34  1  0
 33 35  2  0
M  END
