x1249-x0397
     RDKit          3D

 36 39  0  0  0  0  0  0  0  0999 V2000
    7.9330   -1.5610   20.9860 C   0  0  0  0  0  0  0  0  0  0  0  0
    6.7220   -1.9660   20.2690 N   0  0  0  0  0  0  0  0  0  0  0  0
    6.6960   -1.5810   18.8390 C   0  0  0  0  0  0  0  0  0  0  0  0
    7.6350   -0.5500   22.0470 C   0  0  0  0  0  0  0  0  0  0  0  0
    6.0550   -3.2360   20.6330 C   0  0  0  0  0  0  0  0  0  0  0  0
    8.4250    0.5370   21.6810 C   0  0  0  0  0  0  0  0  0  0  0  0
    5.4270   -3.9620   19.8490 O   0  0  0  0  0  0  0  0  0  0  0  0
    6.1790   -3.5360   21.7590 N   0  0  0  0  0  0  0  0  0  0  0  0
    8.3230    1.7120   22.4290 C   0  0  0  0  0  0  0  0  0  0  0  0
    5.9960   -0.3060   18.6740 C   0  0  0  0  0  0  0  0  0  0  0  0
    7.5820    1.6220   23.7890 C   0  0  1  0  0  0  0  0  0  0  0  0
    4.8780    0.0190   19.6490 C   0  0  0  0  0  0  0  0  0  0  0  0
    6.3610    0.5240   17.6820 N   0  0  0  0  0  0  0  0  0  0  0  0
    5.5890   -4.6470   22.2680 C   0  0  0  0  0  0  0  0  0  0  0  0
    8.1840    0.6530   24.7130 N   0  0  0  0  0  0  0  0  0  0  0  0
    7.5220    2.8050   24.0890 O   0  0  0  0  0  0  0  0  0  0  0  0
    5.6200    1.4700   17.8080 O   0  0  0  0  0  0  0  0  0  0  0  0
    4.7570    1.3110   18.8570 C   0  0  0  0  0  0  0  0  0  0  0  0
    6.4840   -5.3970   23.2150 C   0  0  0  0  0  0  0  0  0  0  0  0
    6.0600   -5.8810   21.8100 C   0  0  0  0  0  0  0  0  0  0  0  0
    6.1860    1.2170   23.7340 N   0  0  0  0  0  0  0  0  0  0  0  0
    3.7960    2.5060   19.0480 C   0  0  0  0  0  0  0  0  0  0  0  0
    9.5510    0.9580   25.1670 C   0  0  0  0  0  0  0  0  0  0  0  0
    5.3300    1.6030   22.6230 C   0  0  0  0  0  0  0  0  0  0  0  0
    5.4460    1.1620   24.9990 C   0  0  0  0  0  0  0  0  0  0  0  0
    4.1100    0.6380   22.5970 C   0  0  0  0  0  0  0  0  0  0  0  0
    4.3370    0.3260   24.8620 C   0  0  0  0  0  0  0  0  0  0  0  0
   10.5370    0.3090   24.2490 C   0  0  0  0  0  0  0  0  0  0  0  0
    3.5050    0.5750   23.6800 O   0  0  0  0  0  0  0  0  0  0  0  0
   11.7250    0.8900   23.7950 C   0  0  0  0  0  0  0  0  0  0  0  0
   10.2790   -0.9600   23.7940 C   0  0  0  0  0  0  0  0  0  0  0  0
   12.6720    0.1540   22.8480 C   0  0  0  0  0  0  0  0  0  0  0  0
   11.0790   -1.6720   22.9430 C   0  0  0  0  0  0  0  0  0  0  0  0
   12.3730   -1.1410   22.3940 C   0  0  0  0  0  0  0  0  0  0  0  0
   13.0340   -2.1030   21.4980 C   0  0  0  0  0  0  0  0  0  0  0  0
   13.5530   -3.1510   20.6490 N   0  0  0  0  0  0  0  0  0  0  0  0
  1  2  1  0
  2  3  1  0
  1  4  1  0
  2  5  1  0
  4  6  1  0
  5  7  2  0
  5  8  1  0
  6  9  1  0
  3 10  1  0
  9 11  1  0
 10 12  1  0
 10 13  2  0
  8 14  1  0
 11 15  1  0
 11 16  1  1
 13 17  1  0
 12 18  2  0
 17 18  1  0
 14 19  1  0
 14 20  1  0
 19 20  1  0
 11 21  1  0
 18 22  1  0
 15 23  1  0
 21 24  1  0
 21 25  1  0
 24 26  1  0
 25 27  1  0
 23 28  1  0
 26 29  1  0
 27 29  1  0
 28 30  2  0
 28 31  1  0
 30 32  1  0
 31 33  2  0
 32 34  2  0
 33 34  1  0
 34 35  1  0
 35 36  3  0
M  END
