x1249-x3305
     RDKit          3D

 39 42  0  0  0  0  0  0  0  0999 V2000
    3.3870   -7.1980   23.7880 C   0  0  0  0  0  0  0  0  0  0  0  0
    4.5870   -6.3920   23.5700 N   0  0  0  0  0  0  0  0  0  0  0  0
    4.8800   -5.1820   24.0900 C   0  0  0  0  0  0  0  0  0  0  0  0
    5.5810   -6.8180   22.7710 N   0  0  0  0  0  0  0  0  0  0  0  0
    6.1230   -4.8620   23.5750 C   0  0  0  0  0  0  0  0  0  0  0  0
    6.5320   -5.8880   22.7650 N   0  0  0  0  0  0  0  0  0  0  0  0
    6.9580   -3.6730   23.7830 C   0  0  0  0  0  0  0  0  0  0  0  0
    6.4060   -2.6280   23.0830 N   0  0  0  0  0  0  0  0  0  0  0  0
    6.1970   -2.6490   21.6290 C   0  0  0  0  0  0  0  0  0  0  0  0
    5.4600   -3.4610   21.0720 O   0  0  0  0  0  0  0  0  0  0  0  0
    6.9140   -1.6740   20.9640 N   0  0  0  0  0  0  0  0  0  0  0  0
    8.0400   -0.9670   21.4520 C   0  0  0  0  0  0  0  0  0  0  0  0
    6.7020   -1.5040   19.5570 C   0  0  0  0  0  0  0  0  0  0  0  0
    8.9170   -1.9160   21.9360 C   0  0  0  0  0  0  0  0  0  0  0  0
    5.9660   -0.4060   19.2320 C   0  0  0  0  0  0  0  0  0  0  0  0
    6.4740    0.5610   18.1780 C   0  0  0  0  0  0  0  0  0  0  0  0
    4.6120   -0.0490   19.8600 C   0  0  0  0  0  0  0  0  0  0  0  0
   10.1910   -1.3200   22.1750 C   0  0  0  0  0  0  0  0  0  0  0  0
    5.8530    1.6460   17.7240 N   0  0  0  0  0  0  0  0  0  0  0  0
    3.9750    1.2040   19.3230 C   0  0  0  0  0  0  0  0  0  0  0  0
   10.2220   -0.1500   22.8000 C   0  0  0  0  0  0  0  0  0  0  0  0
   11.2540   -1.8790   21.7850 C   0  0  0  0  0  0  0  0  0  0  0  0
    4.6820    1.9790   18.2450 C   0  0  0  0  0  0  0  0  0  0  0  0
   11.3660    0.7150   23.1760 C   0  0  0  0  0  0  0  0  0  0  0  0
   12.5480   -1.2460   22.0150 C   0  0  0  0  0  0  0  0  0  0  0  0
   13.3940   -2.2450   21.3590 C   0  0  0  0  0  0  0  0  0  0  0  0
   12.6980    0.1190   22.7540 C   0  0  0  0  0  0  0  0  0  0  0  0
   10.9140    1.9360   23.8510 C   0  0  0  0  0  0  0  0  0  0  0  0
   13.8190   -3.4070   20.5560 N   0  0  0  0  0  0  0  0  0  0  0  0
    9.6830    1.6370   24.7630 C   0  0  0  0  0  0  0  0  0  0  0  0
    8.4840    1.0170   24.2420 N   0  0  0  0  0  0  0  0  0  0  0  0
    7.4630    1.8120   23.8320 C   0  0  0  0  0  0  0  0  0  0  0  0
    7.6570    2.9820   23.5430 O   0  0  0  0  0  0  0  0  0  0  0  0
    6.2200    1.2140   23.7590 N   0  0  0  0  0  0  0  0  0  0  0  0
    5.5060    0.9620   22.5040 C   0  0  0  0  0  0  0  0  0  0  0  0
    5.5800    0.7430   24.9940 C   0  0  0  0  0  0  0  0  0  0  0  0
    4.0250    1.3070   22.5960 C   0  0  0  0  0  0  0  0  0  0  0  0
    4.3030    0.2560   24.7350 C   0  0  0  0  0  0  0  0  0  0  0  0
    3.5220    1.1470   23.9280 O   0  0  0  0  0  0  0  0  0  0  0  0
  1  2  1  0
  2  3  1  0
  2  4  1  0
  3  5  2  0
  4  6  2  0
  5  6  1  0
  5  7  1  0
  7  8  1  0
  8  9  1  0
  9 10  2  0
  9 11  1  0
 11 12  1  0
 11 13  1  0
 12 14  1  0
 13 15  1  0
 15 16  2  0
 15 17  1  0
 14 18  1  0
 16 19  1  0
 17 20  2  0
 18 21  2  0
 18 22  1  0
 19 23  2  0
 20 23  1  0
 21 24  1  0
 22 25  2  0
 25 26  1  0
 24 27  2  0
 25 27  1  0
 24 28  1  0
 26 29  3  0
 28 30  1  0
 30 31  1  0
 31 32  1  0
 32 33  2  0
 32 34  1  0
 34 35  1  0
 34 36  1  0
 35 37  1  0
 36 38  1  0
 37 39  1  0
 38 39  1  0
M  END
