x1249-x0769
     RDKit          3D

 38 41  0  0  0  0  0  0  0  0999 V2000
    5.8920   -4.8220   26.7600 O   0  0  0  0  0  0  0  0  0  0  0  0
    4.8210   -5.1170   25.8360 S   0  0  0  0  0  0  0  0  0  0  0  0
    4.0920   -6.3680   25.9130 O   0  0  0  0  0  0  0  0  0  0  0  0
    3.5840   -3.8370   25.9360 C   0  0  0  0  0  0  0  0  0  0  0  0
    5.4520   -4.9830   24.2600 N   0  0  0  0  0  0  0  0  0  0  0  0
    3.9590   -2.4710   25.8430 C   0  0  0  0  0  0  0  0  0  0  0  0
    2.2160   -4.1190   26.1050 C   0  0  0  0  0  0  0  0  0  0  0  0
    5.0360   -5.9890   23.2360 C   0  0  0  0  0  0  0  0  0  0  0  0
    6.8710   -4.5560   24.2060 C   0  0  0  0  0  0  0  0  0  0  0  0
    5.2420   -2.0460   25.6610 O   0  0  0  0  0  0  0  0  0  0  0  0
    1.1730   -3.1930   26.2010 C   0  0  0  0  0  0  0  0  0  0  0  0
    2.9540   -1.5220   25.9370 C   0  0  0  0  0  0  0  0  0  0  0  0
    6.0980   -6.0140   22.1330 C   0  0  0  0  0  0  0  0  0  0  0  0
    7.1540   -3.9510   22.8180 C   0  0  0  0  0  0  0  0  0  0  0  0
    5.4180   -1.2380   24.4690 C   0  0  0  0  0  0  0  0  0  0  0  0
    1.4870   -1.8480   26.1260 C   0  0  0  0  0  0  0  0  0  0  0  0
    6.6890   -4.8570   21.7220 N   0  0  0  0  0  0  0  0  0  0  0  0
    6.2930   -4.3990   20.4700 C   0  0  0  0  0  0  0  0  0  0  0  0
    5.7690    0.2210   24.7550 C   0  0  1  0  0  0  0  0  0  0  0  0
    5.2670   -4.8050   19.9550 O   0  0  0  0  0  0  0  0  0  0  0  0
    7.1370   -3.3780   19.7120 C   0  0  0  0  0  0  0  0  0  0  0  0
    6.3520    0.8380   23.7070 N   0  0  0  0  0  0  0  0  0  0  0  0
    4.6260    0.9680   25.0790 C   0  0  0  0  0  0  0  0  0  0  0  0
    7.4610    1.7660   23.8000 C   0  0  0  0  0  0  0  0  0  0  0  0
    3.7030    1.0710   23.9820 O   0  0  0  0  0  0  0  0  0  0  0  0
    5.5240    0.9710   22.5080 C   0  0  0  0  0  0  0  0  0  0  0  0
    8.4770    1.2770   23.8580 N   0  0  0  0  0  0  0  0  0  0  0  0
    7.3460    2.9790   23.8000 O   0  0  0  0  0  0  0  0  0  0  0  0
    4.2360    1.7060   22.9050 C   0  0  0  0  0  0  0  0  0  0  0  0
    9.6190    2.0020   23.3640 C   0  0  0  0  0  0  0  0  0  0  0  0
   10.5650    0.9150   22.9790 C   0  0  0  0  0  0  0  0  0  0  0  0
   11.9680    1.0930   22.9650 C   0  0  0  0  0  0  0  0  0  0  0  0
   10.0320   -0.3160   22.6030 C   0  0  0  0  0  0  0  0  0  0  0  0
   12.8830   -0.0400   22.5100 C   0  0  0  0  0  0  0  0  0  0  0  0
   10.8570   -1.3240   22.1890 C   0  0  0  0  0  0  0  0  0  0  0  0
   12.3340   -1.2510   22.0970 C   0  0  0  0  0  0  0  0  0  0  0  0
   13.0130   -2.3600   21.5900 C   0  0  0  0  0  0  0  0  0  0  0  0
   13.5560   -3.4960   20.8420 N   0  0  0  0  0  0  0  0  0  0  0  0
  1  2  2  0
  2  3  2  0
  2  4  1  0
  2  5  1  0
  4  6  1  0
  4  7  2  0
  5  8  1  0
  5  9  1  0
  6 10  1  0
  7 11  1  0
  6 12  2  0
  8 13  1  0
  9 14  1  0
 10 15  1  0
 11 16  2  0
 12 16  1  0
 13 17  1  0
 14 17  1  0
 17 18  1  0
 19 15  1  6
 18 20  2  0
 18 21  1  0
 19 22  1  0
 19 23  1  0
 22 24  1  0
 23 25  1  0
 22 26  1  0
 24 27  1  0
 24 28  2  0
 25 29  1  0
 26 29  1  0
 27 30  1  0
 30 31  1  0
 31 32  2  0
 31 33  1  0
 32 34  1  0
 33 35  2  0
 34 36  2  0
 35 36  1  0
 36 37  1  0
 37 38  3  0
M  END
