x1308-x3124
     RDKit          3D

 42 45  0  0  0  0  0  0  0  0999 V2000
    7.0780   -1.2710   22.0410 N   0  0  0  0  0  0  0  0  0  0  0  0
    6.6380    0.0100   21.7720 C   0  0  1  0  0  0  0  0  0  0  0  0
    7.7430    1.0420   21.9750 C   0  0  0  0  0  0  0  0  0  0  0  0
    6.1650   -2.4330   22.2800 C   0  0  0  0  0  0  0  0  0  0  0  0
    8.4250   -1.4400   22.5530 C   0  0  0  0  0  0  0  0  0  0  0  0
    6.0990    0.3790   20.4240 C   0  0  0  0  0  0  0  0  0  0  0  0
    9.4380   -1.8580   21.7550 C   0  0  0  0  0  0  0  0  0  0  0  0
    8.6750   -1.1320   23.9840 C   0  0  0  0  0  0  0  0  0  0  0  0
    6.8470   -3.8000   22.7660 C   0  0  2  0  0  0  0  0  0  0  0  0
    7.8130    1.6120   23.2380 N   0  0  0  0  0  0  0  0  0  0  0  0
    8.5150    1.3680   21.0600 O   0  0  0  0  0  0  0  0  0  0  0  0
    4.9480    1.1410   20.2710 C   0  0  0  0  0  0  0  0  0  0  0  0
    6.8070   -0.0590   19.1510 C   0  0  0  0  0  0  0  0  0  0  0  0
   10.8280   -2.0150   22.2320 C   0  0  0  0  0  0  0  0  0  0  0  0
   10.0580   -1.2670   24.5480 C   0  0  0  0  0  0  0  0  0  0  0  0
    6.5950   -4.7860   21.8350 N   0  0  0  0  0  0  0  0  0  0  0  0
    6.3290   -3.9780   24.0250 C   0  0  0  0  0  0  0  0  0  0  0  0
    8.7840    2.5220   23.6380 C   0  0  0  0  0  0  0  0  0  0  0  0
    6.2900   -4.3960   20.5110 C   0  0  0  0  0  0  0  0  0  0  0  0
    6.3640    0.2740   17.9620 N   0  0  0  0  0  0  0  0  0  0  0  0
    4.5190    1.4660   18.9940 C   0  0  0  0  0  0  0  0  0  0  0  0
   11.2130   -1.7190   23.6690 C   0  0  0  0  0  0  0  0  0  0  0  0
    5.9910   -5.3880   24.4410 N   0  0  0  0  0  0  0  0  0  0  0  0
    6.1850   -5.9970   22.2280 C   0  0  0  0  0  0  0  0  0  0  0  0
   12.5960   -1.8460   24.1560 C   0  0  0  0  0  0  0  0  0  0  0  0
    7.1510   -3.4020   19.7130 C   0  0  0  0  0  0  0  0  0  0  0  0
    5.3030   -4.8640   19.9680 O   0  0  0  0  0  0  0  0  0  0  0  0
    5.3100   -5.6050   25.9740 S   0  0  0  0  0  0  0  0  0  0  0  0
    5.2420    1.0250   17.8980 C   0  0  0  0  0  0  0  0  0  0  0  0
    5.2720   -6.0920   23.3780 C   0  0  0  0  0  0  0  0  0  0  0  0
   12.8060   -0.6750   24.8500 C   0  0  0  0  0  0  0  0  0  0  0  0
   13.3810   -2.2270   23.0540 C   0  0  0  0  0  0  0  0  0  0  0  0
   12.8630   -2.9400   25.0930 C   0  0  0  0  0  0  0  0  0  0  0  0
    6.2620   -5.3010   27.0100 O   0  0  0  0  0  0  0  0  0  0  0  0
    4.5640   -6.8400   25.9880 O   0  0  0  0  0  0  0  0  0  0  0  0
    4.0500   -4.3490   26.0920 C   0  0  0  0  0  0  0  0  0  0  0  0
    4.3800   -3.0390   26.4580 C   0  0  0  0  0  0  0  0  0  0  0  0
    2.7520   -4.6450   25.8320 C   0  0  0  0  0  0  0  0  0  0  0  0
    3.2720   -1.9870   26.5650 C   0  0  0  0  0  0  0  0  0  0  0  0
    1.7030   -3.7880   25.8980 C   0  0  0  0  0  0  0  0  0  0  0  0
    1.8220   -2.3460   26.2790 C   0  0  0  0  0  0  0  0  0  0  0  0
    0.5080   -1.2430   26.3890 Cl  0  0  0  0  0  0  0  0  0  0  0  0
  1  2  1  0
  2  3  1  6
  1  4  1  0
  1  5  1  0
  2  6  1  0
  5  7  2  0
  5  8  1  0
  9  4  1  6
  3 10  1  0
  3 11  2  0
  6 12  2  0
  6 13  1  0
  7 14  1  0
  8 15  2  0
  9 16  1  0
  9 17  1  0
 10 18  1  0
 16 19  1  0
 13 20  2  0
 12 21  1  0
 14 22  2  0
 15 22  1  0
 17 23  1  0
 16 24  1  0
 22 25  1  0
 19 26  1  0
 19 27  2  0
 23 28  1  0
 20 29  1  0
 21 29  2  0
 23 30  1  0
 24 30  1  0
 25 31  1  0
 25 32  1  0
 25 33  1  0
 28 34  2  0
 28 35  2  0
 28 36  1  0
 36 37  2  0
 36 38  1  0
 37 39  1  0
 38 40  2  0
 39 41  2  0
 40 41  1  0
 41 42  1  0
M  END
