x1308-x0540-x0354
     RDKit          3D

 59 64  0  0  0  0  0  0  0  0999 V2000
    7.4210   -3.4790   19.9190 C   0  0  0  0  0  0  0  0  0  0  0  0
    6.4310   -4.4650   20.5450 C   0  0  0  0  0  0  0  0  0  0  0  0
    5.3800   -4.6980   19.9680 O   0  0  0  0  0  0  0  0  0  0  0  0
    6.7310   -5.2010   21.8200 N   0  0  0  0  0  0  0  0  0  0  0  0
    7.5150   -4.7250   22.8800 C   0  0  0  0  0  0  0  0  0  0  0  0
    5.8940   -6.3590   22.1830 C   0  0  0  0  0  0  0  0  0  0  0  0
    6.7390   -4.3310   23.9480 C   0  0  0  0  0  0  0  0  0  0  0  0
    5.1940   -6.1020   23.3550 C   0  0  0  0  0  0  0  0  0  0  0  0
    5.9910   -5.4900   24.4460 N   0  0  0  0  0  0  0  0  0  0  0  0
    5.1970   -5.4820   25.9630 S   0  0  2  0  0  0  0  0  0  0  0  0
    6.3040   -5.3850   27.2460 N   0  0  0  0  0  0  0  0  0  0  0  0
    4.5530   -6.7730   26.0370 O   0  0  0  0  0  0  0  0  0  0  0  0
    3.9980   -4.2710   26.1100 C   0  0  0  0  0  0  0  0  0  0  0  0
    7.5850   -4.6530   27.1930 C   0  0  0  0  0  0  0  0  0  0  0  0
    4.3390   -2.9170   26.1090 C   0  0  0  0  0  0  0  0  0  0  0  0
    2.6530   -4.6140   26.2330 C   0  0  0  0  0  0  0  0  0  0  0  0
    7.5500   -3.1040   27.2420 C   0  0  0  0  0  0  0  0  0  0  0  0
    3.3420   -1.9520   26.2310 C   0  0  0  0  0  0  0  0  0  0  0  0
    1.6630   -3.6220   26.3540 C   0  0  0  0  0  0  0  0  0  0  0  0
    8.2960   -2.6680   26.0570 N   0  0  0  0  0  0  0  0  0  0  0  0
    2.0210   -2.2880   26.3510 C   0  0  0  0  0  0  0  0  0  0  0  0
    0.9490   -1.2190   26.4800 C   0  0  0  0  0  0  0  0  0  0  0  0
    8.9290   -1.5040   25.8220 C   0  0  0  0  0  0  0  0  0  0  0  0
    1.3110    0.2320   26.0980 C   0  0  0  0  0  0  0  0  0  0  0  0
    8.7290   -0.7010   26.9490 C   0  0  0  0  0  0  0  0  0  0  0  0
    9.6780   -1.2250   24.6830 N   0  0  0  0  0  0  0  0  0  0  0  0
    1.5400    0.3950   24.5980 C   0  0  0  0  0  0  0  0  0  0  0  0
    7.3430   -0.5790   27.3300 O   0  0  0  0  0  0  0  0  0  0  0  0
   10.0030   -2.4150   23.8440 C   0  0  0  0  0  0  0  0  0  0  0  0
   10.7270   -0.2080   24.8650 C   0  0  0  0  0  0  0  0  0  0  0  0
    2.8160    0.9830   24.1250 N   0  0  0  0  0  0  0  0  0  0  0  0
   11.0070   -2.1040   22.7340 C   0  0  0  0  0  0  0  0  0  0  0  0
   11.5440    0.0480   23.7490 C   0  0  0  0  0  0  0  0  0  0  0  0
    7.0100    0.4740   28.1510 C   0  0  0  0  0  0  0  0  0  0  0  0
    2.8680    2.1100   23.4410 C   0  0  0  0  0  0  0  0  0  0  0  0
   12.0530   -1.1620   23.1490 N   0  0  0  0  0  0  0  0  0  0  0  0
    7.6810    1.7080   28.1980 C   0  0  0  0  0  0  0  0  0  0  0  0
    5.8160    0.2500   29.0620 C   0  0  0  0  0  0  0  0  0  0  0  0
    4.1800    2.5630   22.9710 N   0  0  0  0  0  0  0  0  0  0  0  0
    1.7900    2.9300   23.0850 N   0  0  0  0  0  0  0  0  0  0  0  0
   13.1790   -1.0760   22.2460 C   0  0  0  0  0  0  0  0  0  0  0  0
    7.2890    2.7400   29.0590 C   0  0  0  0  0  0  0  0  0  0  0  0
    5.4160    1.2750   29.9240 C   0  0  0  0  0  0  0  0  0  0  0  0
    5.1350    1.5710   22.7320 C   0  0  0  0  0  0  0  0  0  0  0  0
    0.5970    3.1760   23.8950 C   0  0  0  0  0  0  0  0  0  0  0  0
    6.0590    2.5100   29.9970 C   0  0  0  0  0  0  0  0  0  0  0  0
    4.6070    0.4510   21.8110 C   0  0  0  0  0  0  0  0  0  0  0  0
    5.6080    3.6070   30.9360 C   0  0  0  0  0  0  0  0  0  0  0  0
    0.5140    4.6640   24.2800 C   0  0  0  0  0  0  0  0  0  0  0  0
   -0.5060    2.7910   23.2090 C   0  0  0  0  0  0  0  0  0  0  0  0
    5.1950    0.4470   20.4050 C   0  0  0  0  0  0  0  0  0  0  0  0
   -0.5100    4.8740   25.1290 C   0  0  0  0  0  0  0  0  0  0  0  0
   -1.6640    3.2470   23.8500 C   0  0  0  0  0  0  0  0  0  0  0  0
    6.2810   -0.3310   20.0110 C   0  0  0  0  0  0  0  0  0  0  0  0
    4.7000    1.2170   19.4080 C   0  0  0  0  0  0  0  0  0  0  0  0
   -1.6670    4.6730   24.3490 C   0  0  0  0  0  0  0  0  0  0  0  0
    6.8150   -0.3390   18.7660 C   0  0  0  0  0  0  0  0  0  0  0  0
    5.2050    1.2470   18.1300 C   0  0  0  0  0  0  0  0  0  0  0  0
    6.2470    0.5210   17.7030 N   0  0  0  0  0  0  0  0  0  0  0  0
  1  2  1  0
  2  3  2  0
  2  4  1  0
  4  5  1  0
  4  6  1  0
  5  7  1  0
  6  8  1  0
  7  9  1  0
  8  9  1  0
  9 10  1  0
 10 11  2  0
 10 12  2  0
 10 13  1  6
 11 14  1  0
 13 15  2  0
 13 16  1  0
 14 17  1  0
 15 18  1  0
 16 19  2  0
 17 20  1  0
 18 21  2  0
 19 21  1  0
 21 22  1  0
 20 23  2  3
 22 24  1  0
 23 25  1  0
 23 26  1  0
 24 27  1  0
 25 28  1  0
 26 29  1  0
 26 30  1  0
 27 31  1  0
 29 32  1  0
 30 33  1  0
 28 34  1  0
 31 35  2  3
 32 36  1  0
 33 36  1  0
 34 37  2  0
 34 38  1  0
 35 39  1  0
 35 40  1  0
 36 41  1  0
 37 42  1  0
 38 43  2  0
 39 44  1  0
 40 45  1  0
 42 46  2  0
 43 46  1  0
 44 47  1  0
 46 48  1  0
 45 49  1  0
 45 50  1  0
 47 51  1  0
 49 52  1  0
 50 53  1  0
 51 54  2  0
 51 55  1  0
 52 56  1  0
 53 56  1  0
 54 57  1  0
 55 58  2  0
 57 59  2  0
 58 59  1  0
M  END
