x1308-x3117
     RDKit          3D

 48 52  0  0  0  0  0  0  0  0999 V2000
    7.2390   -1.0670   21.8720 N   0  0  0  0  0  0  0  0  0  0  0  0
    6.8700    0.2440   21.6440 C   0  0  1  0  0  0  0  0  0  0  0  0
    8.0160    1.2760   21.8460 C   0  0  0  0  0  0  0  0  0  0  0  0
    6.0530   -1.8610   22.0180 C   0  0  0  0  0  0  0  0  0  0  0  0
    8.3760   -1.2910   22.6090 C   0  0  0  0  0  0  0  0  0  0  0  0
    5.9900   -3.0870   22.7120 C   0  0  0  0  0  0  0  0  0  0  0  0
    6.2230    0.5320   20.3570 C   0  0  0  0  0  0  0  0  0  0  0  0
    9.4700   -1.4250   21.7990 C   0  0  0  0  0  0  0  0  0  0  0  0
    8.5210   -1.3760   23.9920 C   0  0  0  0  0  0  0  0  0  0  0  0
    7.9470    2.2280   22.9040 N   0  0  0  0  0  0  0  0  0  0  0  0
    8.8930    1.2090   21.0110 O   0  0  0  0  0  0  0  0  0  0  0  0
    5.0690    1.2910   20.2670 C   0  0  0  0  0  0  0  0  0  0  0  0
    6.7810    0.0450   19.1660 C   0  0  0  0  0  0  0  0  0  0  0  0
   10.7350   -1.6430   22.3610 C   0  0  0  0  0  0  0  0  0  0  0  0
    9.7860   -1.5910   24.5430 C   0  0  0  0  0  0  0  0  0  0  0  0
    6.4770   -4.4300   22.0210 C   0  0  0  0  0  0  0  0  0  0  0  0
    6.4470   -4.1880   20.4930 C   0  0  0  0  0  0  0  0  0  0  0  0
    6.2820    0.2710   17.9260 N   0  0  0  0  0  0  0  0  0  0  0  0
    4.4760    1.5830   19.0790 C   0  0  0  0  0  0  0  0  0  0  0  0
    8.8040    3.4130   22.7840 C   0  0  0  0  0  0  0  0  0  0  0  0
   10.9070   -1.7240   23.7470 C   0  0  0  0  0  0  0  0  0  0  0  0
    7.6370   -4.8780   22.6340 C   0  0  0  0  0  0  0  0  0  0  0  0
    5.3980   -5.5610   22.1850 C   0  0  0  0  0  0  0  0  0  0  0  0
   12.2600   -1.9470   24.4170 C   0  0  0  0  0  0  0  0  0  0  0  0
    7.4320   -3.2980   19.6920 C   0  0  0  0  0  0  0  0  0  0  0  0
    5.5060   -4.7350   19.9490 O   0  0  0  0  0  0  0  0  0  0  0  0
    5.1160    1.0500   17.8280 C   0  0  0  0  0  0  0  0  0  0  0  0
    9.8530    3.2680   23.7020 C   0  0  0  0  0  0  0  0  0  0  0  0
    7.9890    4.6490   23.1740 C   0  0  0  0  0  0  0  0  0  0  0  0
    7.4150   -5.0060   24.1780 C   0  0  0  0  0  0  0  0  0  0  0  0
    5.3420   -6.1330   23.4470 C   0  0  0  0  0  0  0  0  0  0  0  0
   12.5380   -0.5950   25.0650 C   0  0  0  0  0  0  0  0  0  0  0  0
   13.3600   -2.1840   23.3660 C   0  0  0  0  0  0  0  0  0  0  0  0
   12.0650   -3.2780   25.1310 C   0  0  0  0  0  0  0  0  0  0  0  0
   10.6430    4.4280   23.7320 C   0  0  0  0  0  0  0  0  0  0  0  0
    8.9160    5.6870   23.3040 C   0  0  0  0  0  0  0  0  0  0  0  0
    5.9790   -5.2620   24.4330 N   0  0  0  0  0  0  0  0  0  0  0  0
    5.4460   -5.4710   26.0480 S   0  0  0  0  0  0  0  0  0  0  0  0
    9.9460    5.3170   24.2170 O   0  0  0  0  0  0  0  0  0  0  0  0
    6.5100   -5.0090   26.9200 O   0  0  0  0  0  0  0  0  0  0  0  0
    4.8360   -6.7710   26.1820 O   0  0  0  0  0  0  0  0  0  0  0  0
    4.1160   -4.2870   26.1390 C   0  0  0  0  0  0  0  0  0  0  0  0
    4.3880   -2.9650   26.5060 C   0  0  0  0  0  0  0  0  0  0  0  0
    2.8060   -4.6940   25.8480 C   0  0  0  0  0  0  0  0  0  0  0  0
    3.3270   -2.0600   26.5860 C   0  0  0  0  0  0  0  0  0  0  0  0
    1.7540   -3.7660   25.9350 C   0  0  0  0  0  0  0  0  0  0  0  0
    2.0170   -2.4420   26.3130 C   0  0  0  0  0  0  0  0  0  0  0  0
    0.7390   -1.3020   26.4450 Cl  0  0  0  0  0  0  0  0  0  0  0  0
  1  2  1  0
  2  3  1  6
  1  4  1  0
  1  5  1  0
  4  6  1  0
  2  7  1  0
  5  8  2  0
  5  9  1  0
  3 10  1  0
  3 11  2  0
  7 12  2  0
  7 13  1  0
  8 14  1  0
  9 15  2  0
  6 16  1  0
 16 17  1  0
 13 18  2  0
 12 19  1  0
 10 20  1  0
 14 21  2  0
 15 21  1  0
 16 22  1  0
 16 23  1  0
 21 24  1  0
 17 25  1  0
 17 26  2  0
 18 27  1  0
 19 27  2  0
 20 28  1  0
 20 29  1  0
 22 30  1  0
 23 31  1  0
 24 32  1  0
 24 33  1  0
 24 34  1  0
 28 35  1  0
 29 36  1  0
 30 37  1  0
 31 37  1  0
 37 38  1  0
 35 39  1  0
 36 39  1  0
 38 40  2  0
 38 41  2  0
 38 42  1  0
 42 43  2  0
 42 44  1  0
 43 45  1  0
 44 46  2  0
 45 47  2  0
 46 47  1  0
 47 48  1  0
M  END
