x1308-x0540
     RDKit          3D

 39 42  0  0  0  0  0  0  0  0999 V2000
    7.1420   -3.4830   19.9140 C   0  0  0  0  0  0  0  0  0  0  0  0
    6.3230   -4.5610   20.6120 C   0  0  0  0  0  0  0  0  0  0  0  0
    5.3560   -5.0110   20.0130 O   0  0  0  0  0  0  0  0  0  0  0  0
    6.6580   -5.0640   21.8690 N   0  0  0  0  0  0  0  0  0  0  0  0
    7.2590   -4.3990   22.8760 C   0  0  0  0  0  0  0  0  0  0  0  0
    5.9430   -6.2770   22.2900 C   0  0  0  0  0  0  0  0  0  0  0  0
    6.5010   -4.1160   24.0090 C   0  0  0  0  0  0  0  0  0  0  0  0
    5.1110   -6.0290   23.3830 C   0  0  0  0  0  0  0  0  0  0  0  0
    5.8610   -5.3580   24.4620 N   0  0  0  0  0  0  0  0  0  0  0  0
    5.3470   -5.4780   26.0640 S   0  0  0  0  0  0  0  0  0  0  0  0
    6.4650   -5.1630   26.9210 O   0  0  0  0  0  0  0  0  0  0  0  0
    4.7700   -6.7830   26.3000 O   0  0  0  0  0  0  0  0  0  0  0  0
    4.0390   -4.2890   26.1740 C   0  0  0  0  0  0  0  0  0  0  0  0
    4.4500   -2.9460   26.2230 C   0  0  0  0  0  0  0  0  0  0  0  0
    2.7420   -4.6500   26.2080 C   0  0  0  0  0  0  0  0  0  0  0  0
    3.5180   -1.9140   26.3070 C   0  0  0  0  0  0  0  0  0  0  0  0
    1.5690   -3.6850   26.3010 C   0  0  0  0  0  0  0  0  0  0  0  0
    2.0240   -2.2310   26.3480 C   0  0  0  0  0  0  0  0  0  0  0  0
    1.0000   -1.1140   26.4340 C   0  0  0  0  0  0  0  0  0  0  0  0
    1.5480    0.2780   26.0150 C   0  0  0  0  0  0  0  0  0  0  0  0
    1.5890    0.3510   24.6740 C   0  0  0  0  0  0  0  0  0  0  0  0
    2.8440    0.9020   24.1820 N   0  0  0  0  0  0  0  0  0  0  0  0
    2.9810    2.1860   23.3920 C   0  0  0  0  0  0  0  0  0  0  0  0
    4.0500    2.4940   23.0310 N   0  0  0  0  0  0  0  0  0  0  0  0
    1.8560    3.0670   23.0290 N   0  0  0  0  0  0  0  0  0  0  0  0
    4.9890    1.4220   22.8770 C   0  0  0  0  0  0  0  0  0  0  0  0
    0.7220    3.2290   23.8650 C   0  0  0  0  0  0  0  0  0  0  0  0
    4.5390    0.3200   21.9000 C   0  0  0  0  0  0  0  0  0  0  0  0
    0.6410    4.5630   24.3090 C   0  0  0  0  0  0  0  0  0  0  0  0
   -0.5700    2.7890   23.2230 C   0  0  0  0  0  0  0  0  0  0  0  0
    5.1130    0.4140   20.5000 C   0  0  0  0  0  0  0  0  0  0  0  0
   -0.5230    4.8950   25.0200 C   0  0  0  0  0  0  0  0  0  0  0  0
   -1.7270    3.2280   23.8820 C   0  0  0  0  0  0  0  0  0  0  0  0
    6.2170   -0.3500   20.1360 C   0  0  0  0  0  0  0  0  0  0  0  0
    4.5820    1.3250   19.3560 C   0  0  0  0  0  0  0  0  0  0  0  0
   -1.6990    4.5270   24.3800 C   0  0  0  0  0  0  0  0  0  0  0  0
    6.7900   -0.2520   18.7610 C   0  0  0  0  0  0  0  0  0  0  0  0
    5.1850    1.3910   17.9970 C   0  0  0  0  0  0  0  0  0  0  0  0
    6.3610    0.5290   17.7410 N   0  0  0  0  0  0  0  0  0  0  0  0
  1  2  1  0
  2  3  2  0
  2  4  1  0
  4  5  1  0
  4  6  1  0
  5  7  1  0
  6  8  1  0
  7  9  1  0
  8  9  1  0
  9 10  1  0
 10 11  2  0
 10 12  2  0
 10 13  1  0
 13 14  2  0
 13 15  1  0
 14 16  1  0
 15 17  2  0
 16 18  2  0
 17 18  1  0
 18 19  1  0
 19 20  1  0
 20 21  1  0
 21 22  1  0
 22 23  2  3
 23 24  1  0
 23 25  1  0
 24 26  1  0
 25 27  1  0
 26 28  1  0
 27 29  1  0
 27 30  1  0
 28 31  1  0
 29 32  1  0
 30 33  1  0
 31 34  2  0
 31 35  1  0
 32 36  1  0
 33 36  1  0
 34 37  1  0
 35 38  2  0
 37 39  2  0
 38 39  1  0
M  END
