x1308-x0978-x3115
     RDKit          3D

 55 58  0  0  0  0  0  0  0  0999 V2000
    6.9900   -0.9830   22.0490 N   0  0  0  0  0  0  0  0  0  0  0  0
    6.7820    0.3390   21.7720 C   0  0  1  0  0  0  0  0  0  0  0  0
    7.9570    1.2450   22.0540 C   0  0  0  0  0  0  0  0  0  0  0  0
    6.0880   -2.0110   21.6500 C   0  0  0  0  0  0  0  0  0  0  0  0
    8.2950   -1.2510   22.5440 C   0  0  0  0  0  0  0  0  0  0  0  0
    5.7250   -3.1170   22.3950 C   0  0  0  0  0  0  0  0  0  0  0  0
    6.3010    0.5740   20.3410 C   0  0  0  0  0  0  0  0  0  0  0  0
    9.3750   -1.5630   21.6850 C   0  0  0  0  0  0  0  0  0  0  0  0
    8.5530   -1.1850   23.8910 C   0  0  0  0  0  0  0  0  0  0  0  0
    8.0110    1.6860   23.3580 N   0  0  0  0  0  0  0  0  0  0  0  0
    8.7780    1.6040   21.2010 O   0  0  0  0  0  0  0  0  0  0  0  0
    5.2210    1.4170   20.1560 C   0  0  0  0  0  0  0  0  0  0  0  0
    6.7860    0.0810   19.1350 C   0  0  0  0  0  0  0  0  0  0  0  0
   10.6900   -1.7990   22.1300 C   0  0  0  0  0  0  0  0  0  0  0  0
    9.9350   -1.4110   24.4490 C   0  0  0  0  0  0  0  0  0  0  0  0
    6.2770   -4.5130   22.0910 C   0  0  1  0  0  0  0  0  0  0  0  0
    8.7470    2.8710   23.4000 C   0  0  0  0  0  0  0  0  0  0  0  0
    6.6950   -4.2970   20.6490 C   0  0  0  0  0  0  0  0  0  0  0  0
    6.2740    0.3870   17.7880 N   0  0  0  0  0  0  0  0  0  0  0  0
    4.7090    1.7310   18.9190 C   0  0  0  0  0  0  0  0  0  0  0  0
   11.0040   -1.7070   23.6440 C   0  0  0  0  0  0  0  0  0  0  0  0
    7.3920   -4.7280   22.9530 C   0  0  0  0  0  0  0  0  0  0  0  0
    5.3920   -5.6290   22.0710 C   0  0  0  0  0  0  0  0  0  0  0  0
    8.0750    4.0290   22.6400 C   0  0  0  0  0  0  0  0  0  0  0  0
   12.3800   -1.8970   24.1860 C   0  0  0  0  0  0  0  0  0  0  0  0
    8.1290   -3.7840   20.3760 C   0  0  0  0  0  0  0  0  0  0  0  0
    5.8220   -4.4770   19.8290 O   0  0  0  0  0  0  0  0  0  0  0  0
    5.2050    1.2490   17.7340 C   0  0  0  0  0  0  0  0  0  0  0  0
    6.8770   -4.9890   24.2180 C   0  0  0  0  0  0  0  0  0  0  0  0
    5.0010   -6.0310   23.3450 C   0  0  2  0  0  0  0  0  0  0  0  0
    8.5990    5.0900   23.0310 O   0  0  0  0  0  0  0  0  0  0  0  0
   13.3470   -1.9280   23.1790 C   0  0  0  0  0  0  0  0  0  0  0  0
   12.5930   -3.0190   24.9140 C   0  0  0  0  0  0  0  0  0  0  0  0
   12.7390   -0.7250   25.0080 C   0  0  0  0  0  0  0  0  0  0  0  0
    3.4640   -6.5080   23.3480 C   0  0  2  0  0  0  0  0  0  0  0  0
    5.5100   -5.2550   24.3910 C   0  0  2  0  0  0  0  0  0  0  0  0
    8.2120    6.2130   22.2350 C   0  0  0  0  0  0  0  0  0  0  0  0
    2.4490   -5.4220   23.0670 N   0  0  0  0  0  0  0  0  0  0  0  0
    3.0710   -7.4580   24.4830 C   0  0  1  0  0  0  0  0  0  0  0  0
    4.7630   -4.0580   24.1720 O   0  0  0  0  0  0  0  0  0  0  0  0
    5.0960   -5.6140   26.0750 S   0  0  0  0  0  0  0  0  0  0  0  0
    2.0770   -8.4200   24.3340 C   0  0  0  0  0  0  0  0  0  0  0  0
    4.2630   -8.1330   24.8240 O   0  0  0  0  0  0  0  0  0  0  0  0
    1.1090   -6.0050   22.6910 C   0  0  0  0  0  0  0  0  0  0  0  0
    6.1280   -5.1400   26.9620 O   0  0  0  0  0  0  0  0  0  0  0  0
    4.4740   -7.1130   26.3260 O   0  0  0  0  0  0  0  0  0  0  0  0
    3.8460   -4.3650   26.2210 C   0  0  0  0  0  0  0  0  0  0  0  0
    1.0520   -7.2580   22.0180 O   0  0  0  0  0  0  0  0  0  0  0  0
   -0.2340   -5.3200   22.9930 C   0  0  0  0  0  0  0  0  0  0  0  0
    4.3130   -2.9340   26.5620 C   0  0  0  0  0  0  0  0  0  0  0  0
    2.3750   -4.6920   26.0040 C   0  0  0  0  0  0  0  0  0  0  0  0
    3.2010   -1.8770   26.6640 C   0  0  0  0  0  0  0  0  0  0  0  0
    1.3560   -3.6040   26.1220 C   0  0  0  0  0  0  0  0  0  0  0  0
    1.6960   -2.1730   26.4500 C   0  0  0  0  0  0  0  0  0  0  0  0
    0.4190   -1.0340   26.5590 Cl  0  0  0  0  0  0  0  0  0  0  0  0
  1  2  1  0
  2  3  1  6
  1  4  1  0
  1  5  1  0
  4  6  1  0
  2  7  1  0
  5  8  2  0
  5  9  1  0
  3 10  1  0
  3 11  2  0
  7 12  2  0
  7 13  1  0
  8 14  1  0
  9 15  2  0
 16  6  1  1
 10 17  1  0
 16 18  1  0
 13 19  2  0
 12 20  1  0
 14 21  2  0
 15 21  1  0
 16 22  1  0
 16 23  1  0
 17 24  1  0
 21 25  1  0
 18 26  1  0
 18 27  2  0
 19 28  1  0
 20 28  2  0
 22 29  1  0
 30 23  1  6
 24 31  1  0
 25 32  1  0
 25 33  1  0
 25 34  1  0
 30 35  1  0
 29 36  1  0
 30 36  1  0
 31 37  1  0
 35 38  1  1
 35 39  1  0
 36 40  1  6
 36 41  1  0
 39 42  1  6
 39 43  1  0
 38 44  1  0
 41 45  2  0
 41 46  2  0
 41 47  1  0
 44 48  2  0
 44 49  1  0
 47 50  2  0
 47 51  1  0
 50 52  1  0
 51 53  2  0
 52 54  2  0
 53 54  1  0
 54 55  1  0
M  END
