x1308-x1093
     RDKit          3D

 40 44  0  0  0  0  0  0  0  0999 V2000
    8.2980   -3.9490   20.4680 C   0  0  0  0  0  0  0  0  0  0  0  0
    6.8060   -4.2060   20.7030 C   0  0  0  0  0  0  0  0  0  0  0  0
    5.9400   -4.3870   19.8460 O   0  0  0  0  0  0  0  0  0  0  0  0
    6.3820   -4.2100   22.1780 C   0  0  0  0  0  0  0  0  0  0  0  0
    5.9370   -2.7070   22.2500 C   0  0  0  0  0  0  0  0  0  0  0  0
    7.5290   -4.4640   22.9550 C   0  0  0  0  0  0  0  0  0  0  0  0
    5.2870   -5.1140   22.2520 C   0  0  0  0  0  0  0  0  0  0  0  0
    6.9690   -1.5870   22.4910 C   0  0  0  0  0  0  0  0  0  0  0  0
    7.1910   -4.5530   24.3010 C   0  0  0  0  0  0  0  0  0  0  0  0
    5.4210   -5.9970   23.3190 C   0  0  0  0  0  0  0  0  0  0  0  0
    7.7900   -0.9740   21.2710 C   0  0  2  0  0  0  0  0  0  0  0  0
    5.8780   -5.1650   24.4380 N   0  0  0  0  0  0  0  0  0  0  0  0
    5.3080   -5.4450   25.9800 S   0  0  0  0  0  0  0  0  0  0  0  0
    8.7460   -0.0730   21.5840 C   0  0  0  0  0  0  0  0  0  0  0  0
    6.9280   -0.3460   20.1740 C   0  0  0  0  0  0  0  0  0  0  0  0
    6.3890   -5.1360   26.8890 O   0  0  0  0  0  0  0  0  0  0  0  0
    4.7730   -6.7830   26.0960 O   0  0  0  0  0  0  0  0  0  0  0  0
    8.5910    1.1170   21.2870 O   0  0  0  0  0  0  0  0  0  0  0  0
    3.9570   -4.3080   26.0690 C   0  0  0  0  0  0  0  0  0  0  0  0
    9.9790   -0.4240   22.2520 N   0  0  0  0  0  0  0  0  0  0  0  0
    7.1640   -0.5400   18.7500 C   0  0  0  0  0  0  0  0  0  0  0  0
    5.8430    0.4680   20.2930 C   0  0  0  0  0  0  0  0  0  0  0  0
    4.3080   -2.9910   26.4310 C   0  0  0  0  0  0  0  0  0  0  0  0
    2.6930   -4.6950   25.8020 C   0  0  0  0  0  0  0  0  0  0  0  0
   10.7140    0.4650   22.9430 C   0  0  0  0  0  0  0  0  0  0  0  0
   10.1290   -1.8370   22.6430 C   0  0  0  0  0  0  0  0  0  0  0  0
    6.2660    0.1330   18.0220 N   0  0  0  0  0  0  0  0  0  0  0  0
    5.3710    0.8160   19.0140 C   0  0  0  0  0  0  0  0  0  0  0  0
    5.1320    1.0070   21.3680 C   0  0  0  0  0  0  0  0  0  0  0  0
    3.3510   -1.9800   26.5470 C   0  0  0  0  0  0  0  0  0  0  0  0
    1.5420   -3.7150   25.8840 C   0  0  0  0  0  0  0  0  0  0  0  0
   12.1420    0.0570   23.1960 C   0  0  0  0  0  0  0  0  0  0  0  0
   11.4930   -2.1370   23.1060 C   0  0  0  0  0  0  0  0  0  0  0  0
    4.2220    1.6840   18.6550 N   0  0  0  0  0  0  0  0  0  0  0  0
    3.9580    1.8860   21.0650 C   0  0  0  0  0  0  0  0  0  0  0  0
    1.8860   -2.2920   26.2780 C   0  0  0  0  0  0  0  0  0  0  0  0
   12.1280   -1.2460   23.8580 N   0  0  0  0  0  0  0  0  0  0  0  0
    3.5950    2.1560   19.7420 C   0  0  0  0  0  0  0  0  0  0  0  0
    0.6020   -1.1560   26.3920 Cl  0  0  0  0  0  0  0  0  0  0  0  0
   13.3860   -1.6920   24.1370 C   0  0  0  0  0  0  0  0  0  0  0  0
  1  2  1  0
  2  3  2  0
  4  2  1  0
  4  5  1  0
  4  6  1  0
  4  7  1  0
  5  8  1  0
  6  9  1  0
  7 10  1  0
 11  8  1  1
  9 12  1  0
 10 12  1  0
 12 13  1  0
 11 14  1  0
 11 15  1  0
 13 16  2  0
 13 17  2  0
 14 18  2  0
 13 19  1  0
 14 20  1  0
 15 21  2  0
 15 22  1  0
 19 23  2  0
 19 24  1  0
 20 25  1  0
 20 26  1  0
 21 27  1  0
 22 28  2  0
 27 28  1  0
 22 29  1  0
 23 30  1  0
 24 31  2  0
 25 32  1  0
 26 33  1  0
 28 34  1  0
 29 35  2  0
 30 36  2  0
 31 36  1  0
 32 37  1  0
 33 37  1  0
 34 38  2  0
 35 38  1  0
 36 39  1  0
 37 40  1  0
M  END
