x1308-x3115-x0946
     RDKit          3D

 54 58  0  0  0  0  0  0  0  0999 V2000
    7.2570   -1.3830   22.0310 N   0  0  0  0  0  0  0  0  0  0  0  0
    6.7760   -0.0840   21.7730 C   0  0  1  0  0  0  0  0  0  0  0  0
    7.8200    1.0140   21.9800 C   0  0  0  0  0  0  0  0  0  0  0  0
    6.3450   -2.5030   22.4090 C   0  0  0  0  0  0  0  0  0  0  0  0
    8.5300   -1.5120   22.6040 C   0  0  0  0  0  0  0  0  0  0  0  0
    6.2190    0.2510   20.4330 C   0  0  0  0  0  0  0  0  0  0  0  0
    9.5400   -1.9400   21.7960 C   0  0  0  0  0  0  0  0  0  0  0  0
    8.7680   -1.2290   23.9320 C   0  0  0  0  0  0  0  0  0  0  0  0
    7.0580   -3.8390   22.6160 C   0  0  2  0  0  0  0  0  0  0  0  0
    7.7290    1.6410   23.2160 N   0  0  0  0  0  0  0  0  0  0  0  0
    8.6240    1.3170   21.0880 O   0  0  0  0  0  0  0  0  0  0  0  0
    4.9710    1.0770   20.2700 C   0  0  0  0  0  0  0  0  0  0  0  0
    6.8260   -0.1530   19.2490 C   0  0  0  0  0  0  0  0  0  0  0  0
   10.9120   -2.0930   22.3490 C   0  0  0  0  0  0  0  0  0  0  0  0
   10.0420   -1.3660   24.4600 C   0  0  0  0  0  0  0  0  0  0  0  0
    6.6180   -4.7570   21.7140 N   0  0  0  0  0  0  0  0  0  0  0  0
    6.9500   -4.4300   23.8960 C   0  0  0  0  0  0  0  0  0  0  0  0
    7.6400    3.0350   23.4090 C   0  0  0  0  0  0  0  0  0  0  0  0
    6.3320   -4.3020   20.4250 C   0  0  0  0  0  0  0  0  0  0  0  0
    6.3560    0.1700   18.0150 N   0  0  0  0  0  0  0  0  0  0  0  0
    4.4800    1.4140   19.0390 C   0  0  0  0  0  0  0  0  0  0  0  0
   11.1270   -1.7930   23.6870 C   0  0  0  0  0  0  0  0  0  0  0  0
    5.6320   -5.0820   24.1800 N   0  0  0  0  0  0  0  0  0  0  0  0
    6.1600   -6.0780   22.1920 C   0  0  0  0  0  0  0  0  0  0  0  0
    8.4270    3.8540   22.3750 C   0  0  0  0  0  0  0  0  0  0  0  0
   12.5430   -1.9320   24.2250 C   0  0  0  0  0  0  0  0  0  0  0  0
    7.2970   -3.3680   19.6560 C   0  0  0  0  0  0  0  0  0  0  0  0
    5.2840   -4.6580   19.9150 O   0  0  0  0  0  0  0  0  0  0  0  0
    5.1830   -5.3760   25.7930 S   0  0  0  0  0  0  0  0  0  0  0  0
    5.1420    0.9870   17.9000 C   0  0  0  0  0  0  0  0  0  0  0  0
    5.1730   -6.0260   23.1510 C   0  0  0  0  0  0  0  0  0  0  0  0
    8.8090    5.1840   22.8550 N   0  0  0  0  0  0  0  0  0  0  0  0
   13.4750   -1.9290   23.1190 C   0  0  0  0  0  0  0  0  0  0  0  0
   12.8700   -3.1070   25.1150 C   0  0  0  0  0  0  0  0  0  0  0  0
   12.7570   -0.7070   25.0830 C   0  0  0  0  0  0  0  0  0  0  0  0
    6.2460   -5.0130   26.7000 O   0  0  0  0  0  0  0  0  0  0  0  0
    4.5760   -6.6830   25.8850 O   0  0  0  0  0  0  0  0  0  0  0  0
    3.9780   -4.2260   25.9880 C   0  0  0  0  0  0  0  0  0  0  0  0
    8.2940    6.3270   22.2590 C   0  0  0  0  0  0  0  0  0  0  0  0
   10.2710    5.3690   23.7010 S   0  0  0  0  0  0  0  0  0  0  0  0
    4.2270   -2.9050   26.3860 C   0  0  0  0  0  0  0  0  0  0  0  0
    2.6600   -4.5910   25.7390 C   0  0  0  0  0  0  0  0  0  0  0  0
   10.1090    5.5560   25.1150 O   0  0  0  0  0  0  0  0  0  0  0  0
   10.8720    6.5060   23.0430 O   0  0  0  0  0  0  0  0  0  0  0  0
   11.1050    3.8850   23.4720 C   0  0  0  0  0  0  0  0  0  0  0  0
    3.1590   -2.0130   26.5220 C   0  0  0  0  0  0  0  0  0  0  0  0
    1.6450   -3.6710   25.8880 C   0  0  0  0  0  0  0  0  0  0  0  0
   12.3660    3.8950   22.9060 C   0  0  0  0  0  0  0  0  0  0  0  0
   10.4950    2.6860   23.8610 C   0  0  0  0  0  0  0  0  0  0  0  0
    1.8810   -2.3990   26.2750 C   0  0  0  0  0  0  0  0  0  0  0  0
    0.5880   -1.2850   26.4580 Cl  0  0  0  0  0  0  0  0  0  0  0  0
   13.0210    2.7070   22.7220 C   0  0  0  0  0  0  0  0  0  0  0  0
   11.1710    1.4910   23.6550 C   0  0  0  0  0  0  0  0  0  0  0  0
   12.4410    1.5010   23.0800 C   0  0  0  0  0  0  0  0  0  0  0  0
  1  2  1  0
  2  3  1  6
  1  4  1  0
  1  5  1  0
  2  6  1  0
  5  7  2  0
  5  8  1  0
  9  4  1  1
  3 10  1  0
  3 11  2  0
  6 12  2  0
  6 13  1  0
  7 14  1  0
  8 15  2  0
  9 16  1  0
  9 17  1  0
 10 18  1  0
 16 19  1  0
 13 20  2  0
 12 21  1  0
 14 22  2  0
 15 22  1  0
 17 23  1  0
 16 24  1  0
 18 25  1  0
 22 26  1  0
 19 27  1  0
 19 28  2  0
 23 29  1  0
 20 30  1  0
 21 30  2  0
 23 31  1  0
 24 31  1  0
 25 32  1  0
 26 33  1  0
 26 34  1  0
 26 35  1  0
 29 36  2  0
 29 37  2  0
 29 38  1  0
 32 39  1  0
 40 32  1  0
 38 41  2  0
 38 42  1  0
 40 43  2  0
 40 44  2  0
 40 45  1  0
 41 46  1  0
 42 47  2  0
 45 48  2  0
 45 49  1  0
 46 50  2  0
 47 50  1  0
 50 51  1  0
 48 52  1  0
 49 53  2  0
 52 54  2  0
 53 54  1  0
M  END
