x1308-x2193
     RDKit          3D

 35 38  0  0  0  0  0  0  0  0999 V2000
    7.3920   -3.4100   19.8040 C   0  0  0  0  0  0  0  0  0  0  0  0
    6.3910   -4.3920   20.4530 C   0  0  0  0  0  0  0  0  0  0  0  0
    5.3100   -4.5640   19.9110 O   0  0  0  0  0  0  0  0  0  0  0  0
    6.6800   -5.1010   21.6100 N   0  0  0  0  0  0  0  0  0  0  0  0
    7.1770   -4.4830   22.7210 C   0  0  0  0  0  0  0  0  0  0  0  0
    5.8930   -6.2240   22.0020 C   0  0  0  0  0  0  0  0  0  0  0  0
    6.2000   -4.1720   23.6500 C   0  0  0  0  0  0  0  0  0  0  0  0
    5.0290   -6.1300   23.1260 C   0  0  0  0  0  0  0  0  0  0  0  0
    5.7810   -5.3720   24.1320 N   0  0  0  0  0  0  0  0  0  0  0  0
    5.2750   -5.4800   25.7350 S   0  0  2  0  0  0  0  0  0  0  0  0
    6.5290   -5.2540   26.6150 N   0  0  0  0  0  0  0  0  0  0  0  0
    4.7360   -6.7950   26.0000 O   0  0  0  0  0  0  0  0  0  0  0  0
    4.0320   -4.2750   25.9820 C   0  0  0  0  0  0  0  0  0  0  0  0
    4.3140   -2.9790   26.4020 C   0  0  0  0  0  0  0  0  0  0  0  0
    2.6920   -4.5670   25.7640 C   0  0  0  0  0  0  0  0  0  0  0  0
    7.7820   -5.1260   25.9610 C   0  0  2  0  0  0  0  0  0  0  0  0
    3.2700   -2.0690   26.5820 C   0  0  0  0  0  0  0  0  0  0  0  0
    1.6320   -3.6830   25.9340 C   0  0  0  0  0  0  0  0  0  0  0  0
    8.7510   -5.9530   26.2160 N   0  0  0  0  0  0  0  0  0  0  0  0
    8.1700   -3.8550   25.8910 C   0  0  0  0  0  0  0  0  0  0  0  0
    1.9180   -2.3850   26.3610 C   0  0  0  0  0  0  0  0  0  0  0  0
    9.1520   -3.5340   25.0210 N   0  0  0  0  0  0  0  0  0  0  0  0
    9.7020   -5.8710   25.2540 C   0  0  0  0  0  0  0  0  0  0  0  0
    0.6070   -1.2940   26.5770 Cl  0  0  0  0  0  0  0  0  0  0  0  0
    9.2240   -2.3640   24.4780 C   0  0  0  0  0  0  0  0  0  0  0  0
    9.8060   -4.6180   24.3470 C   0  0  0  0  0  0  0  0  0  0  0  0
    9.0520   -1.1070   25.2880 C   0  0  0  0  0  0  0  0  0  0  0  0
    9.5040   -2.1710   22.9820 C   0  0  0  0  0  0  0  0  0  0  0  0
    9.1500    0.2390   24.6150 C   0  0  0  0  0  0  0  0  0  0  0  0
    9.5730   -0.7160   22.4410 C   0  0  0  0  0  0  0  0  0  0  0  0
    9.3950    0.4070   23.2530 C   0  0  0  0  0  0  0  0  0  0  0  0
    9.4640    1.9830   22.5830 S   0  0  0  0  0  0  0  0  0  0  0  0
   11.0650    2.6350   22.9900 C   0  0  0  0  0  0  0  0  0  0  0  0
    9.2530    1.8340   21.1570 O   0  0  0  0  0  0  0  0  0  0  0  0
    8.4320    2.7720   23.2260 O   0  0  0  0  0  0  0  0  0  0  0  0
  1  2  1  0
  2  3  2  0
  2  4  1  0
  4  5  1  0
  4  6  1  0
  5  7  1  0
  6  8  1  0
  7  9  1  0
  8  9  1  0
  9 10  1  0
 10 11  2  0
 10 12  2  0
 10 13  1  1
 13 14  2  0
 13 15  1  0
 16 11  1  1
 14 17  1  0
 15 18  2  0
 16 19  1  0
 16 20  1  0
 17 21  2  0
 18 21  1  0
 20 22  1  0
 19 23  1  0
 21 24  1  0
 22 25  1  0
 22 26  1  0
 23 26  1  0
 25 27  2  0
 25 28  1  0
 27 29  1  0
 28 30  2  0
 29 31  2  0
 30 31  1  0
 31 32  1  0
 32 33  1  0
 32 34  2  0
 32 35  2  0
M  END
