x1308-x2646
     RDKit          3D

 39 42  0  0  0  0  0  0  0  0999 V2000
    7.1420   -3.3970   19.8400 C   0  0  0  0  0  0  0  0  0  0  0  0
    6.3380   -4.4560   20.6110 C   0  0  0  0  0  0  0  0  0  0  0  0
    5.3860   -4.9570   20.0130 O   0  0  0  0  0  0  0  0  0  0  0  0
    6.6480   -4.8970   21.9140 N   0  0  0  0  0  0  0  0  0  0  0  0
    7.0140   -4.0780   23.0980 C   0  0  1  0  0  0  0  0  0  0  0  0
    6.0470   -6.1940   22.3140 C   0  0  0  0  0  0  0  0  0  0  0  0
    6.8210   -2.5640   22.9800 C   0  0  0  0  0  0  0  0  0  0  0  0
    6.2380   -4.3850   24.1990 C   0  0  0  0  0  0  0  0  0  0  0  0
    5.2950   -6.1260   23.4830 C   0  0  0  0  0  0  0  0  0  0  0  0
    7.8520   -1.6310   23.5470 C   0  0  0  0  0  0  0  0  0  0  0  0
    5.9170   -5.6190   24.5370 N   0  0  0  0  0  0  0  0  0  0  0  0
    5.2100   -5.7190   26.0530 S   0  0  0  0  0  0  0  0  0  0  0  0
    8.6920   -1.1390   22.3710 C   0  0  1  0  0  0  0  0  0  0  0  0
    6.2000   -5.3690   27.0430 O   0  0  0  0  0  0  0  0  0  0  0  0
    4.5940   -7.0100   26.2340 O   0  0  0  0  0  0  0  0  0  0  0  0
    8.1390   -0.1770   21.6510 C   0  0  0  0  0  0  0  0  0  0  0  0
    3.9710   -4.4740   26.0810 C   0  0  0  0  0  0  0  0  0  0  0  0
   10.0730   -0.7610   22.7240 C   0  0  0  0  0  0  0  0  0  0  0  0
    8.7670    0.8630   21.4520 O   0  0  0  0  0  0  0  0  0  0  0  0
    6.8550   -0.3970   21.1570 N   0  0  0  0  0  0  0  0  0  0  0  0
    4.2710   -3.1250   26.4540 C   0  0  0  0  0  0  0  0  0  0  0  0
    2.5380   -4.8010   25.7120 C   0  0  0  0  0  0  0  0  0  0  0  0
   10.5740    0.2780   23.7060 C   0  0  0  0  0  0  0  0  0  0  0  0
   11.0250   -1.4590   22.0470 C   0  0  0  0  0  0  0  0  0  0  0  0
    3.2870   -2.1830   26.4760 C   0  0  0  0  0  0  0  0  0  0  0  0
    1.5490   -3.6600   25.7800 C   0  0  0  0  0  0  0  0  0  0  0  0
    6.2630    0.2530   20.0890 C   0  0  0  0  0  0  0  0  0  0  0  0
   11.8850    0.4760   23.8670 C   0  0  0  0  0  0  0  0  0  0  0  0
   12.3550   -1.3250   22.1470 C   0  0  0  0  0  0  0  0  0  0  0  0
   13.2710   -2.3300   21.1640 Cl  0  0  0  0  0  0  0  0  0  0  0  0
    1.9420   -2.3880   26.1600 C   0  0  0  0  0  0  0  0  0  0  0  0
    6.8610    0.1650   18.7140 C   0  0  0  0  0  0  0  0  0  0  0  0
    5.0330    1.0850   20.1360 C   0  0  0  0  0  0  0  0  0  0  0  0
   12.8540   -0.2320   23.1740 C   0  0  0  0  0  0  0  0  0  0  0  0
    0.7980   -1.1040   26.2430 Cl  0  0  0  0  0  0  0  0  0  0  0  0
    4.5360    1.0780   21.5610 C   0  0  0  0  0  0  0  0  0  0  0  0
    6.4240    0.7440   17.5830 N   0  0  0  0  0  0  0  0  0  0  0  0
    4.5680    1.6700   19.0490 C   0  0  0  0  0  0  0  0  0  0  0  0
    5.2100    1.5560   17.7200 C   0  0  0  0  0  0  0  0  0  0  0  0
  1  2  1  0
  2  3  2  0
  2  4  1  0
  4  5  1  0
  4  6  1  0
  5  7  1  6
  5  8  1  0
  6  9  1  0
  7 10  1  0
  8 11  1  0
  9 11  1  0
 11 12  1  0
 13 10  1  1
 12 14  2  0
 12 15  2  0
 13 16  1  0
 12 17  1  0
 13 18  1  0
 16 19  2  0
 16 20  1  0
 17 21  2  0
 17 22  1  0
 18 23  2  0
 18 24  1  0
 21 25  1  0
 22 26  2  0
 20 27  1  0
 23 28  1  0
 24 29  2  0
 29 30  1  0
 25 31  2  0
 26 31  1  0
 27 32  2  0
 27 33  1  0
 28 34  2  0
 29 34  1  0
 31 35  1  0
 33 36  1  0
 32 37  1  0
 33 38  2  0
 37 39  2  0
 38 39  1  0
M  END
