x1308-x0978-x2705-x2703
     RDKit          3D

 60 64  0  0  0  0  0  0  0  0999 V2000
    7.1790   -1.1870   22.0420 N   0  0  0  0  0  0  0  0  0  0  0  0
    6.8350    0.2130   21.6900 C   0  0  1  0  0  0  0  0  0  0  0  0
    7.8840    1.2650   21.8620 C   0  0  0  0  0  0  0  0  0  0  0  0
    6.0790   -1.8450   22.7960 C   0  0  0  0  0  0  0  0  0  0  0  0
    8.4630   -1.2870   22.7290 C   0  0  0  0  0  0  0  0  0  0  0  0
    5.3860   -3.0970   22.0770 C   0  0  0  0  0  0  0  0  0  0  0  0
    6.2500    0.4740   20.3120 C   0  0  0  0  0  0  0  0  0  0  0  0
    8.6160   -1.3820   24.0570 N   0  0  0  0  0  0  0  0  0  0  0  0
    9.8630   -1.3090   22.1210 C   0  0  0  0  0  0  0  0  0  0  0  0
    7.6080    2.2270   22.8060 N   0  0  0  0  0  0  0  0  0  0  0  0
    8.9110    1.3430   21.1890 O   0  0  0  0  0  0  0  0  0  0  0  0
    5.1100    1.2530   20.1920 C   0  0  0  0  0  0  0  0  0  0  0  0
    6.8690   -0.0490   19.1770 C   0  0  0  0  0  0  0  0  0  0  0  0
   10.0040   -1.4550   24.2720 N   0  0  0  0  0  0  0  0  0  0  0  0
   10.7670   -1.4160   23.1420 C   0  0  0  0  0  0  0  0  0  0  0  0
    6.2220   -4.4510   21.9730 C   0  0  1  0  0  0  0  0  0  0  0  0
   12.2410   -1.4870   23.2130 C   0  0  0  0  0  0  0  0  0  0  0  0
    6.6820   -4.1850   20.5710 C   0  0  0  0  0  0  0  0  0  0  0  0
    6.3600    0.2130   17.8470 N   0  0  0  0  0  0  0  0  0  0  0  0
    4.5590    1.5500   18.9590 C   0  0  0  0  0  0  0  0  0  0  0  0
    8.2980    3.4840   22.9370 C   0  0  0  0  0  0  0  0  0  0  0  0
    7.4240   -4.5140   22.9220 C   0  0  0  0  0  0  0  0  0  0  0  0
    5.3720   -5.5630   21.9920 C   0  0  0  0  0  0  0  0  0  0  0  0
   12.7070   -0.3220   23.9630 C   0  0  0  0  0  0  0  0  0  0  0  0
   12.5580   -2.7280   23.9630 C   0  0  0  0  0  0  0  0  0  0  0  0
   12.8410   -1.6660   21.7640 C   0  0  0  0  0  0  0  0  0  0  0  0
    8.1090   -3.7050   20.2810 C   0  0  0  0  0  0  0  0  0  0  0  0
    5.8190   -4.3010   19.7400 O   0  0  0  0  0  0  0  0  0  0  0  0
    5.1750    1.0420   17.7710 C   0  0  0  0  0  0  0  0  0  0  0  0
    9.6910    3.3950   23.5220 C   0  0  0  0  0  0  0  0  0  0  0  0
    7.5660    4.7310   22.4820 C   0  0  0  0  0  0  0  0  0  0  0  0
    6.8780   -4.9540   24.2810 C   0  0  0  0  0  0  0  0  0  0  0  0
    4.4840   -5.5500   23.2220 C   0  0  1  0  0  0  0  0  0  0  0  0
   10.4010    2.1100   23.9620 C   0  0  0  0  0  0  0  0  0  0  0  0
    6.1770    4.7380   21.8980 C   0  0  0  0  0  0  0  0  0  0  0  0
   13.4310   -2.5350   25.2430 C   0  0  0  0  0  0  0  0  0  0  0  0
    3.2660   -6.4660   23.3590 C   0  0  2  0  0  0  0  0  0  0  0  0
   10.3440    4.7680   23.6330 C   0  0  0  0  0  0  0  0  0  0  0  0
    8.2710    5.9430   22.6300 C   0  0  0  0  0  0  0  0  0  0  0  0
    5.3480   -5.0030   24.3750 C   0  0  2  0  0  0  0  0  0  0  0  0
    9.4260    1.3300   24.8350 C   0  0  0  0  0  0  0  0  0  0  0  0
    2.0630   -5.6020   23.1950 N   0  0  0  0  0  0  0  0  0  0  0  0
    3.1830   -7.4250   24.3470 C   0  0  1  0  0  0  0  0  0  0  0  0
    5.0280   -3.6110   24.3420 O   0  0  0  0  0  0  0  0  0  0  0  0
    5.0360   -5.4540   26.0500 S   0  0  0  0  0  0  0  0  0  0  0  0
    9.5720    5.9970   23.1670 C   0  0  0  0  0  0  0  0  0  0  0  0
    2.0690   -8.2500   24.3310 C   0  0  0  0  0  0  0  0  0  0  0  0
    4.3670   -8.0430   24.4750 O   0  0  0  0  0  0  0  0  0  0  0  0
    0.9930   -6.2090   22.6190 C   0  0  0  0  0  0  0  0  0  0  0  0
    6.0540   -4.9880   26.9480 O   0  0  0  0  0  0  0  0  0  0  0  0
    4.6330   -6.8240   26.2720 O   0  0  0  0  0  0  0  0  0  0  0  0
    3.7230   -4.2880   26.2260 C   0  0  0  0  0  0  0  0  0  0  0  0
    1.0280   -7.2640   21.9970 O   0  0  0  0  0  0  0  0  0  0  0  0
   -0.1870   -5.4760   22.8090 C   0  0  0  0  0  0  0  0  0  0  0  0
    4.0710   -2.9830   26.5930 C   0  0  0  0  0  0  0  0  0  0  0  0
    2.2740   -4.6860   25.9690 C   0  0  0  0  0  0  0  0  0  0  0  0
    3.0680   -2.0370   26.7190 C   0  0  0  0  0  0  0  0  0  0  0  0
    1.2940   -3.7080   26.1060 C   0  0  0  0  0  0  0  0  0  0  0  0
    1.7130   -2.2760   26.5100 C   0  0  0  0  0  0  0  0  0  0  0  0
    0.4220   -1.0890   26.6690 Cl  0  0  0  0  0  0  0  0  0  0  0  0
  1  2  1  0
  2  3  1  6
  1  4  1  0
  1  5  1  0
  4  6  1  0
  2  7  1  0
  5  8  2  0
  5  9  1  0
  3 10  1  0
  3 11  2  0
  7 12  2  0
  7 13  1  0
  8 14  1  0
  9 15  2  0
 14 15  1  0
 16  6  1  1
 15 17  1  0
 16 18  1  0
 13 19  2  0
 12 20  1  0
 10 21  1  0
 16 22  1  0
 16 23  1  0
 17 24  1  0
 17 25  1  0
 17 26  1  0
 18 27  1  0
 18 28  2  0
 19 29  1  0
 20 29  2  0
 21 30  2  0
 21 31  1  0
 22 32  1  0
 33 23  1  6
 30 34  1  0
 31 35  1  0
 25 36  1  0
 33 37  1  0
 30 38  1  0
 31 39  2  0
 32 40  1  0
 33 40  1  0
 34 41  1  0
 37 42  1  1
 37 43  1  0
 40 44  1  1
 40 45  1  0
 38 46  2  0
 39 46  1  0
 43 47  1  6
 43 48  1  0
 42 49  1  0
 45 50  2  0
 45 51  2  0
 45 52  1  0
 49 53  2  0
 49 54  1  0
 52 55  2  0
 52 56  1  0
 55 57  1  0
 56 58  2  0
 57 59  2  0
 58 59  1  0
 59 60  1  0
M  END
