x1308-x2569
     RDKit          3D

 39 42  0  0  0  0  0  0  0  0999 V2000
    7.0650   -3.3990   19.8740 C   0  0  0  0  0  0  0  0  0  0  0  0
    6.2820   -4.4900   20.6050 C   0  0  0  0  0  0  0  0  0  0  0  0
    5.3490   -5.0020   20.0050 O   0  0  0  0  0  0  0  0  0  0  0  0
    6.6120   -4.9320   21.9140 N   0  0  0  0  0  0  0  0  0  0  0  0
    7.2700   -4.0710   22.9300 C   0  0  1  0  0  0  0  0  0  0  0  0
    6.2320   -6.1920   22.2640 C   0  0  0  0  0  0  0  0  0  0  0  0
    6.5890   -2.6980   23.1490 C   0  0  0  0  0  0  0  0  0  0  0  0
    7.2180   -4.7360   24.1590 C   0  0  0  0  0  0  0  0  0  0  0  0
    5.3790   -5.9940   23.3390 C   0  0  0  0  0  0  0  0  0  0  0  0
    7.4530   -1.6030   23.7590 C   0  0  0  0  0  0  0  0  0  0  0  0
    5.8260   -5.1970   24.3210 N   0  0  0  0  0  0  0  0  0  0  0  0
    5.3530   -5.4550   25.9250 S   0  0  0  0  0  0  0  0  0  0  0  0
    8.4670   -1.1560   22.6780 C   0  0  1  0  0  0  0  0  0  0  0  0
    6.4480   -5.0680   26.7850 O   0  0  0  0  0  0  0  0  0  0  0  0
    4.8340   -6.7900   26.1210 O   0  0  0  0  0  0  0  0  0  0  0  0
    8.0200   -0.0310   21.7800 C   0  0  0  0  0  0  0  0  0  0  0  0
    4.0440   -4.3110   26.0840 C   0  0  0  0  0  0  0  0  0  0  0  0
    9.9120   -0.8700   23.1350 C   0  0  0  0  0  0  0  0  0  0  0  0
    8.7760    0.8860   21.4530 O   0  0  0  0  0  0  0  0  0  0  0  0
    6.6970   -0.1820   21.3940 N   0  0  0  0  0  0  0  0  0  0  0  0
    4.2670   -2.9650   26.4940 C   0  0  0  0  0  0  0  0  0  0  0  0
    2.6200   -4.7070   25.7870 C   0  0  0  0  0  0  0  0  0  0  0  0
   10.9050   -1.2330   22.1750 C   0  0  0  0  0  0  0  0  0  0  0  0
   10.3460   -0.2610   24.4290 C   0  0  0  0  0  0  0  0  0  0  0  0
    3.2370   -2.0810   26.6170 C   0  0  0  0  0  0  0  0  0  0  0  0
    1.5510   -3.6600   25.9520 C   0  0  0  0  0  0  0  0  0  0  0  0
   11.6640   -0.0700   24.6560 N   0  0  0  0  0  0  0  0  0  0  0  0
   12.2760   -0.9790   22.5130 C   0  0  0  0  0  0  0  0  0  0  0  0
    6.1760    0.3520   20.1940 C   0  0  0  0  0  0  0  0  0  0  0  0
   13.2150   -1.2970   21.5830 C   0  0  0  0  0  0  0  0  0  0  0  0
    1.8920   -2.3790   26.3650 C   0  0  0  0  0  0  0  0  0  0  0  0
   12.6630   -0.3710   23.8180 C   0  0  0  0  0  0  0  0  0  0  0  0
    6.8770    0.1090   18.9090 C   0  0  0  0  0  0  0  0  0  0  0  0
    5.0060    1.1050   20.2750 C   0  0  0  0  0  0  0  0  0  0  0  0
    0.6760   -1.1850   26.5720 Cl  0  0  0  0  0  0  0  0  0  0  0  0
   14.0290   -1.4760   20.4000 N   0  0  0  0  0  0  0  0  0  0  0  0
    6.4140    0.6450   17.6620 N   0  0  0  0  0  0  0  0  0  0  0  0
    4.4760    1.6590   19.1160 C   0  0  0  0  0  0  0  0  0  0  0  0
    5.1970    1.4290   17.7860 C   0  0  0  0  0  0  0  0  0  0  0  0
  1  2  1  0
  2  3  2  0
  2  4  1  0
  4  5  1  0
  4  6  1  0
  5  7  1  1
  5  8  1  0
  6  9  1  0
  7 10  1  0
  8 11  1  0
  9 11  1  0
 11 12  1  0
 13 10  1  1
 12 14  2  0
 12 15  2  0
 13 16  1  0
 12 17  1  0
 13 18  1  0
 16 19  2  0
 16 20  1  0
 17 21  2  0
 17 22  1  0
 18 23  2  0
 18 24  1  0
 21 25  1  0
 22 26  2  0
 24 27  2  0
 23 28  1  0
 20 29  1  0
 28 30  1  0
 25 31  2  0
 26 31  1  0
 27 32  1  0
 28 32  2  0
 29 33  2  0
 29 34  1  0
 31 35  1  0
 30 36  3  0
 33 37  1  0
 34 38  2  0
 37 39  2  0
 38 39  1  0
M  END
