x1308-x0978-x2649-x2694
     RDKit          3D

 60 64  0  0  0  0  0  0  0  0999 V2000
    7.3030   -1.1430   21.9720 N   0  0  0  0  0  0  0  0  0  0  0  0
    6.9780    0.3090   21.6830 C   0  0  1  0  0  0  0  0  0  0  0  0
    8.0890    1.3730   21.8430 C   0  0  0  0  0  0  0  0  0  0  0  0
    6.2410   -1.8240   22.6160 C   0  0  0  0  0  0  0  0  0  0  0  0
    8.5750   -1.2580   22.7500 C   0  0  0  0  0  0  0  0  0  0  0  0
    5.6100   -2.9130   22.0180 C   0  0  0  0  0  0  0  0  0  0  0  0
    6.3130    0.5370   20.3550 C   0  0  0  0  0  0  0  0  0  0  0  0
    8.6100   -1.3390   24.0860 N   0  0  0  0  0  0  0  0  0  0  0  0
    9.8620   -1.2920   22.2450 C   0  0  0  0  0  0  0  0  0  0  0  0
    7.8020    2.3500   22.7870 N   0  0  0  0  0  0  0  0  0  0  0  0
    9.1160    1.4140   21.1860 O   0  0  0  0  0  0  0  0  0  0  0  0
    5.1450    1.2150   20.2490 C   0  0  0  0  0  0  0  0  0  0  0  0
    6.8870    0.0730   19.1730 C   0  0  0  0  0  0  0  0  0  0  0  0
   10.0610   -1.4290   24.4190 O   0  0  0  0  0  0  0  0  0  0  0  0
   10.7810   -1.3930   23.2600 C   0  0  0  0  0  0  0  0  0  0  0  0
    6.2150   -4.3070   22.0610 C   0  0  1  0  0  0  0  0  0  0  0  0
   12.2920   -1.4470   23.2260 C   0  0  0  0  0  0  0  0  0  0  0  0
    4.4060    1.7670   21.4790 C   0  0  0  0  0  0  0  0  0  0  0  0
    6.7060   -4.1960   20.6410 C   0  0  0  0  0  0  0  0  0  0  0  0
    6.3420    0.2830   17.9480 N   0  0  0  0  0  0  0  0  0  0  0  0
    4.5940    1.4250   19.0050 C   0  0  0  0  0  0  0  0  0  0  0  0
    8.5800    3.5030   23.0500 C   0  0  0  0  0  0  0  0  0  0  0  0
    7.2140   -4.5160   22.9130 C   0  0  0  0  0  0  0  0  0  0  0  0
    5.3550   -5.4070   21.9440 C   0  0  0  0  0  0  0  0  0  0  0  0
   12.8950   -0.0810   23.5420 C   0  0  0  0  0  0  0  0  0  0  0  0
   12.8330   -1.9020   21.8640 C   0  0  0  0  0  0  0  0  0  0  0  0
   12.7820   -2.2240   24.2060 C   0  0  0  0  0  0  0  0  0  0  0  0
    8.0850   -3.6320   20.3270 C   0  0  0  0  0  0  0  0  0  0  0  0
    5.8640   -4.5140   19.8380 O   0  0  0  0  0  0  0  0  0  0  0  0
    5.1880    0.9680   17.8450 C   0  0  0  0  0  0  0  0  0  0  0  0
    9.8190    3.2870   23.6770 C   0  0  0  0  0  0  0  0  0  0  0  0
    8.1520    4.8130   22.7090 C   0  0  0  0  0  0  0  0  0  0  0  0
    6.7610   -4.7700   24.1570 C   0  0  0  0  0  0  0  0  0  0  0  0
    4.8920   -6.0400   23.2540 C   0  0  2  0  0  0  0  0  0  0  0  0
   10.3420    1.9360   24.0680 C   0  0  0  0  0  0  0  0  0  0  0  0
    3.3550   -6.5180   23.2930 C   0  0  2  0  0  0  0  0  0  0  0  0
   10.5710    4.4230   23.9320 C   0  0  0  0  0  0  0  0  0  0  0  0
    9.0120    5.8950   23.0290 C   0  0  0  0  0  0  0  0  0  0  0  0
    5.4310   -5.1060   24.3440 C   0  0  2  0  0  0  0  0  0  0  0  0
    2.4070   -5.5420   23.1500 N   0  0  0  0  0  0  0  0  0  0  0  0
    3.1210   -7.3530   24.3860 C   0  0  1  0  0  0  0  0  0  0  0  0
    4.7640   -3.8780   24.0880 O   0  0  0  0  0  0  0  0  0  0  0  0
    5.1460   -5.3840   26.0040 S   0  0  0  0  0  0  0  0  0  0  0  0
   10.2470    5.7200   23.6550 C   0  0  0  0  0  0  0  0  0  0  0  0
   10.9890    6.8360   23.9220 O   0  0  0  0  0  0  0  0  0  0  0  0
    2.0790   -8.2740   24.3410 C   0  0  0  0  0  0  0  0  0  0  0  0
    4.3160   -8.0920   24.5520 O   0  0  0  0  0  0  0  0  0  0  0  0
    1.2370   -6.1340   22.7130 C   0  0  0  0  0  0  0  0  0  0  0  0
    6.2510   -4.8690   26.7720 O   0  0  0  0  0  0  0  0  0  0  0  0
    4.6570   -6.7140   26.2860 O   0  0  0  0  0  0  0  0  0  0  0  0
    3.8450   -4.1980   26.2000 C   0  0  0  0  0  0  0  0  0  0  0  0
   11.8750    6.7500   25.0370 C   0  0  0  0  0  0  0  0  0  0  0  0
    1.2140   -7.1900   22.0810 O   0  0  0  0  0  0  0  0  0  0  0  0
   -0.0810   -5.4000   23.0540 C   0  0  0  0  0  0  0  0  0  0  0  0
    4.1650   -2.8790   26.5270 C   0  0  0  0  0  0  0  0  0  0  0  0
    2.5110   -4.5300   26.0190 C   0  0  0  0  0  0  0  0  0  0  0  0
    3.1190   -1.9440   26.6550 C   0  0  0  0  0  0  0  0  0  0  0  0
    1.4970   -3.6060   26.1470 C   0  0  0  0  0  0  0  0  0  0  0  0
    1.7700   -2.2810   26.4690 C   0  0  0  0  0  0  0  0  0  0  0  0
    0.5220   -1.1210   26.6300 Cl  0  0  0  0  0  0  0  0  0  0  0  0
  1  2  1  0
  2  3  1  6
  1  4  1  0
  1  5  1  0
  4  6  1  0
  2  7  1  0
  5  8  2  0
  5  9  1  0
  3 10  1  0
  3 11  2  0
  7 12  2  0
  7 13  1  0
  8 14  1  0
  9 15  2  0
 14 15  1  0
 16  6  1  1
 15 17  1  0
 12 18  1  0
 16 19  1  0
 13 20  2  0
 12 21  1  0
 10 22  1  0
 16 23  1  0
 16 24  1  0
 17 25  1  0
 17 26  1  0
 17 27  1  0
 19 28  1  0
 19 29  2  0
 20 30  1  0
 21 30  2  0
 22 31  2  0
 22 32  1  0
 23 33  1  0
 34 24  1  6
 31 35  1  0
 34 36  1  0
 31 37  1  0
 32 38  2  0
 33 39  1  0
 34 39  1  0
 36 40  1  1
 36 41  1  0
 39 42  1  6
 39 43  1  0
 37 44  2  0
 38 44  1  0
 44 45  1  0
 41 46  1  6
 41 47  1  0
 40 48  1  0
 43 49  2  0
 43 50  2  0
 43 51  1  0
 45 52  1  0
 48 53  2  0
 48 54  1  0
 51 55  2  0
 51 56  1  0
 55 57  1  0
 56 58  2  0
 57 59  2  0
 58 59  1  0
 59 60  1  0
M  END
