x1308-x2705-x0771-x3115
     RDKit          3D

 58 62  0  0  0  0  0  0  0  0999 V2000
    7.3120   -1.2640   22.1300 N   0  0  0  0  0  0  0  0  0  0  0  0
    6.8730    0.1440   21.7490 C   0  0  1  0  0  0  0  0  0  0  0  0
    7.8760    1.2620   21.9000 C   0  0  0  0  0  0  0  0  0  0  0  0
    6.3220   -1.9620   22.8790 C   0  0  0  0  0  0  0  0  0  0  0  0
    8.5490   -1.2830   22.8300 C   0  0  0  0  0  0  0  0  0  0  0  0
    6.3470    0.3670   20.3540 C   0  0  0  0  0  0  0  0  0  0  0  0
    8.7110   -1.2020   24.1670 N   0  0  0  0  0  0  0  0  0  0  0  0
    9.7330   -1.4010   22.1870 C   0  0  0  0  0  0  0  0  0  0  0  0
    6.6200   -3.4910   23.1460 C   0  0  2  0  0  0  0  0  0  0  0  0
    7.6250    2.1740   22.7920 N   0  0  0  0  0  0  0  0  0  0  0  0
    8.8640    1.3330   21.1660 O   0  0  0  0  0  0  0  0  0  0  0  0
    5.2050    1.1620   20.2540 C   0  0  0  0  0  0  0  0  0  0  0  0
    7.0190   -0.2140   19.1240 C   0  0  0  0  0  0  0  0  0  0  0  0
   10.0790   -1.2740   24.3050 N   0  0  0  0  0  0  0  0  0  0  0  0
   10.7710   -1.4060   23.0730 C   0  0  0  0  0  0  0  0  0  0  0  0
    6.2840   -4.4850   21.9710 C   0  0  2  0  0  0  0  0  0  0  0  0
    6.1240   -3.8310   24.4240 C   0  0  0  0  0  0  0  0  0  0  0  0
   12.2710   -1.5070   23.0020 C   0  0  0  0  0  0  0  0  0  0  0  0
    6.8640   -4.4910   20.5920 C   0  0  0  0  0  0  0  0  0  0  0  0
    5.0900   -4.0160   21.2770 N   0  0  0  0  0  0  0  0  0  0  0  0
    6.3680    0.1510   17.8400 N   0  0  0  0  0  0  0  0  0  0  0  0
    4.6280    1.4730   19.0400 C   0  0  0  0  0  0  0  0  0  0  0  0
    8.2960    3.4060   22.9320 C   0  0  0  0  0  0  0  0  0  0  0  0
    6.0020   -5.9070   22.3810 C   0  0  0  0  0  0  0  0  0  0  0  0
    5.7470   -5.1550   24.7530 C   0  0  2  0  0  0  0  0  0  0  0  0
   12.8680   -0.1680   23.5120 C   0  0  0  0  0  0  0  0  0  0  0  0
   12.7070   -2.6770   23.9040 C   0  0  0  0  0  0  0  0  0  0  0  0
   12.8090   -1.8440   21.6040 C   0  0  0  0  0  0  0  0  0  0  0  0
    6.1270   -5.1640   19.9250 O   0  0  0  0  0  0  0  0  0  0  0  0
    8.0700   -3.6410   20.1250 C   0  0  0  0  0  0  0  0  0  0  0  0
    4.5540   -5.3810   26.0450 S   0  0  0  0  0  0  0  0  0  0  0  0
    5.7050   -3.0120   20.4000 C   0  0  0  0  0  0  0  0  0  0  0  0
    6.8690   -5.8020   25.9730 S   0  0  0  0  0  0  0  0  0  0  0  0
    5.1710    1.0050   17.8730 C   0  0  0  0  0  0  0  0  0  0  0  0
    9.5700    3.5140   23.4840 C   0  0  0  0  0  0  0  0  0  0  0  0
    7.6640    4.5700   22.5060 C   0  0  0  0  0  0  0  0  0  0  0  0
    5.3390   -6.0630   23.5760 C   0  0  0  0  0  0  0  0  0  0  0  0
   10.2300    2.2470   23.9310 C   0  0  0  0  0  0  0  0  0  0  0  0
    6.2790    4.5620   21.8890 C   0  0  0  0  0  0  0  0  0  0  0  0
   13.3730   -2.3580   25.2390 C   0  0  0  0  0  0  0  0  0  0  0  0
    3.9770   -6.7930   25.8800 O   0  0  0  0  0  0  0  0  0  0  0  0
    5.2020   -5.0080   27.2800 O   0  0  0  0  0  0  0  0  0  0  0  0
    5.0220   -2.3410   19.4460 C   0  0  0  0  0  0  0  0  0  0  0  0
    7.3370   -4.7180   26.7570 O   0  0  0  0  0  0  0  0  0  0  0  0
    6.1370   -6.8490   26.6630 O   0  0  0  0  0  0  0  0  0  0  0  0
   10.2430    4.7390   23.6330 C   0  0  0  0  0  0  0  0  0  0  0  0
    8.3000    5.8090   22.6360 C   0  0  0  0  0  0  0  0  0  0  0  0
    3.2470   -4.2400   25.9670 C   0  0  0  0  0  0  0  0  0  0  0  0
    9.3550    1.4120   24.8560 C   0  0  0  0  0  0  0  0  0  0  0  0
    9.5860    5.9140   23.1970 C   0  0  0  0  0  0  0  0  0  0  0  0
    1.9710   -4.5980   25.5010 C   0  0  0  0  0  0  0  0  0  0  0  0
    3.6180   -2.8570   26.4640 C   0  0  0  0  0  0  0  0  0  0  0  0
    1.6180   -5.9740   25.0020 C   0  0  0  0  0  0  0  0  0  0  0  0
    0.9400   -3.6570   25.4920 C   0  0  0  0  0  0  0  0  0  0  0  0
    2.4640   -1.8500   26.4370 C   0  0  0  0  0  0  0  0  0  0  0  0
    1.1130   -2.3490   25.9280 C   0  0  0  0  0  0  0  0  0  0  0  0
   -0.0530   -1.4320   25.9010 C   0  0  0  0  0  0  0  0  0  0  0  0
    0.4220    0.0630   26.5660 Cl  0  0  0  0  0  0  0  0  0  0  0  0
  1  2  1  0
  2  3  1  6
  1  4  1  0
  1  5  1  0
  2  6  1  0
  5  7  2  0
  5  8  1  0
  9  4  1  6
  3 10  1  0
  3 11  2  0
  6 12  2  0
  6 13  1  0
  7 14  1  0
  8 15  2  0
 14 15  1  0
  9 16  1  0
  9 17  1  0
 15 18  1  0
 16 19  1  0
 16 20  1  6
 13 21  2  0
 12 22  1  0
 10 23  1  0
 16 24  1  0
 25 17  1  0
 18 26  1  0
 18 27  1  0
 18 28  1  0
 19 29  2  0
 19 30  1  0
 25 31  1  0
 20 32  2  3
 25 33  1  1
 21 34  1  0
 22 34  2  0
 23 35  2  0
 23 36  1  0
 24 37  1  0
 25 37  1  0
 35 38  1  0
 36 39  1  0
 27 40  1  0
 31 41  2  0
 31 42  2  0
 32 43  1  0
 33 44  2  0
 33 45  2  0
 35 46  1  0
 36 47  2  0
 31 48  1  0
 38 49  1  0
 46 50  2  0
 47 50  1  0
 48 51  2  0
 48 52  1  0
 51 53  1  0
 51 54  1  0
 52 55  2  0
 54 56  2  0
 55 56  1  0
 56 57  1  0
 57 58  1  0
M  END
