x1308-x2563
     RDKit          3D

 41 45  0  0  0  0  0  0  0  0999 V2000
    8.0500   -3.7170   20.2160 C   0  0  0  0  0  0  0  0  0  0  0  0
    6.6930   -4.3130   20.6830 C   0  0  0  0  0  0  0  0  0  0  0  0
    5.8110   -4.7380   19.9420 O   0  0  0  0  0  0  0  0  0  0  0  0
    6.3200   -4.3280   22.1650 C   0  0  0  0  0  0  0  0  0  0  0  0
    5.9980   -2.8130   22.3560 C   0  0  0  0  0  0  0  0  0  0  0  0
    7.4160   -4.6580   22.8800 C   0  0  0  0  0  0  0  0  0  0  0  0
    5.1190   -5.2610   22.4680 C   0  0  0  0  0  0  0  0  0  0  0  0
    6.5810   -2.0290   21.1700 C   0  0  0  0  0  0  0  0  0  0  0  0
    7.1770   -4.8130   24.2450 C   0  0  0  0  0  0  0  0  0  0  0  0
    5.4650   -6.1320   23.4700 C   0  0  0  0  0  0  0  0  0  0  0  0
    6.7020   -0.7250   21.3110 C   0  0  1  0  0  0  0  0  0  0  0  0
    6.0210   -5.4100   24.4480 N   0  0  0  0  0  0  0  0  0  0  0  0
    5.3560   -5.4560   26.0550 S   0  0  0  0  0  0  0  0  0  0  0  0
    8.1360   -0.2990   21.4160 C   0  0  0  0  0  0  0  0  0  0  0  0
    6.1730    0.0190   20.0820 C   0  0  0  0  0  0  0  0  0  0  0  0
    6.3610   -5.0330   27.0050 O   0  0  0  0  0  0  0  0  0  0  0  0
    4.8270   -6.7840   26.2760 O   0  0  0  0  0  0  0  0  0  0  0  0
    8.4700    0.8050   20.9790 O   0  0  0  0  0  0  0  0  0  0  0  0
    8.9720   -1.1630   22.0510 N   0  0  0  0  0  0  0  0  0  0  0  0
    4.0300   -4.3160   26.0900 C   0  0  0  0  0  0  0  0  0  0  0  0
    5.0110    0.8330   20.3210 C   0  0  0  0  0  0  0  0  0  0  0  0
    6.7720   -0.0430   18.7210 C   0  0  0  0  0  0  0  0  0  0  0  0
    4.2150   -2.9500   26.4440 C   0  0  0  0  0  0  0  0  0  0  0  0
    2.6180   -4.7180   25.7490 C   0  0  0  0  0  0  0  0  0  0  0  0
    6.2980    0.6310   17.6560 N   0  0  0  0  0  0  0  0  0  0  0  0
    4.4670    1.5800   19.1760 C   0  0  0  0  0  0  0  0  0  0  0  0
    4.3770    0.9580   21.5560 C   0  0  0  0  0  0  0  0  0  0  0  0
   10.0470   -0.5950   22.6620 C   0  0  0  0  0  0  0  0  0  0  0  0
    3.2190   -2.0210   26.4930 C   0  0  0  0  0  0  0  0  0  0  0  0
    1.5600   -3.6500   25.8200 C   0  0  0  0  0  0  0  0  0  0  0  0
    5.2070    1.3970   17.8760 C   0  0  0  0  0  0  0  0  0  0  0  0
    3.3380    2.4050   19.2870 C   0  0  0  0  0  0  0  0  0  0  0  0
    3.1250    1.8710   21.7050 C   0  0  0  0  0  0  0  0  0  0  0  0
   11.3650   -0.8860   22.3800 C   0  0  0  0  0  0  0  0  0  0  0  0
    9.6840    0.3480   23.6090 C   0  0  0  0  0  0  0  0  0  0  0  0
    1.8860   -2.3480   26.1880 C   0  0  0  0  0  0  0  0  0  0  0  0
    2.6920    2.5590   20.4540 C   0  0  0  0  0  0  0  0  0  0  0  0
   12.4370   -0.1350   23.1210 C   0  0  0  0  0  0  0  0  0  0  0  0
   10.5860    1.0280   24.2820 C   0  0  0  0  0  0  0  0  0  0  0  0
    0.6590   -1.1460   26.2730 Cl  0  0  0  0  0  0  0  0  0  0  0  0
   11.9090    0.8670   24.1100 C   0  0  0  0  0  0  0  0  0  0  0  0
  1  2  1  0
  2  3  2  0
  4  2  1  0
  4  5  1  0
  4  6  1  0
  4  7  1  0
  5  8  1  0
  6  9  1  0
  7 10  1  0
 11  8  1  6
  9 12  1  0
 10 12  1  0
 12 13  1  0
 11 14  1  0
 11 15  1  0
 13 16  2  0
 13 17  2  0
 14 18  2  0
 14 19  1  0
 13 20  1  0
 15 21  1  0
 15 22  2  0
 20 23  2  0
 20 24  1  0
 22 25  1  0
 21 26  2  0
 21 27  1  0
 19 28  1  0
 23 29  1  0
 24 30  2  0
 25 31  2  0
 26 31  1  0
 26 32  1  0
 27 33  2  0
 28 34  2  0
 28 35  1  0
 29 36  2  0
 30 36  1  0
 32 37  2  0
 33 37  1  0
 34 38  1  0
 35 39  2  0
 36 40  1  0
 38 41  2  0
 39 41  1  0
M  END
