x1308-x0978-x3115-x0946
     RDKit          3D

 64 68  0  0  0  0  0  0  0  0999 V2000
    6.9600   -1.0870   21.9100 N   0  0  0  0  0  0  0  0  0  0  0  0
    6.7370    0.2600   21.7570 C   0  0  1  0  0  0  0  0  0  0  0  0
    7.9070    1.1880   21.9580 C   0  0  0  0  0  0  0  0  0  0  0  0
    6.0300   -2.0230   21.4790 C   0  0  0  0  0  0  0  0  0  0  0  0
    8.2690   -1.3570   22.5090 C   0  0  0  0  0  0  0  0  0  0  0  0
    5.7910   -3.0560   22.3920 C   0  0  0  0  0  0  0  0  0  0  0  0
    6.1400    0.6010   20.3050 C   0  0  0  0  0  0  0  0  0  0  0  0
    9.4360   -1.2640   21.7470 C   0  0  0  0  0  0  0  0  0  0  0  0
    8.4640   -1.6960   23.8380 C   0  0  0  0  0  0  0  0  0  0  0  0
    7.8670    1.7590   23.2160 N   0  0  0  0  0  0  0  0  0  0  0  0
    8.7400    1.4080   21.0790 O   0  0  0  0  0  0  0  0  0  0  0  0
    5.0220    1.4020   20.1800 C   0  0  0  0  0  0  0  0  0  0  0  0
    6.7410    0.1050   19.1460 C   0  0  0  0  0  0  0  0  0  0  0  0
   10.6900   -1.4910   22.2980 C   0  0  0  0  0  0  0  0  0  0  0  0
    9.7220   -1.9230   24.4010 C   0  0  0  0  0  0  0  0  0  0  0  0
    6.4250   -4.4530   22.0740 C   0  0  1  0  0  0  0  0  0  0  0  0
    7.7270    3.1340   23.4360 C   0  0  0  0  0  0  0  0  0  0  0  0
    6.7820   -4.2570   20.6260 C   0  0  0  0  0  0  0  0  0  0  0  0
    6.2910    0.3740   17.9080 N   0  0  0  0  0  0  0  0  0  0  0  0
    4.5390    1.6940   18.9230 C   0  0  0  0  0  0  0  0  0  0  0  0
   10.8800   -1.8190   23.6300 C   0  0  0  0  0  0  0  0  0  0  0  0
    7.5250   -4.6020   22.9010 C   0  0  0  0  0  0  0  0  0  0  0  0
    5.4710   -5.4900   22.0550 C   0  0  0  0  0  0  0  0  0  0  0  0
    8.4350    3.9610   22.3650 C   0  0  0  0  0  0  0  0  0  0  0  0
   12.2680   -2.0470   24.2460 C   0  0  0  0  0  0  0  0  0  0  0  0
    8.1560   -3.6650   20.2710 C   0  0  0  0  0  0  0  0  0  0  0  0
    5.8880   -4.5200   19.8450 O   0  0  0  0  0  0  0  0  0  0  0  0
    5.2030    1.1660   17.8380 C   0  0  0  0  0  0  0  0  0  0  0  0
    6.9980   -4.7150   24.3460 C   0  0  0  0  0  0  0  0  0  0  0  0
    4.9860   -6.1020   23.3720 C   0  0  2  0  0  0  0  0  0  0  0  0
    8.8740    5.2610   22.8550 N   0  0  0  0  0  0  0  0  0  0  0  0
   13.2730   -2.2530   23.2090 C   0  0  0  0  0  0  0  0  0  0  0  0
   12.0840   -3.2650   25.1330 C   0  0  0  0  0  0  0  0  0  0  0  0
   12.7090   -0.8770   25.1110 C   0  0  0  0  0  0  0  0  0  0  0  0
    3.4440   -6.5820   23.3350 C   0  0  2  0  0  0  0  0  0  0  0  0
    5.5090   -5.1330   24.4570 C   0  0  2  0  0  0  0  0  0  0  0  0
    8.4430    6.4330   22.2560 C   0  0  0  0  0  0  0  0  0  0  0  0
   10.2820    5.3610   23.7910 S   0  0  0  0  0  0  0  0  0  0  0  0
    2.3130   -5.5750   23.2610 N   0  0  0  0  0  0  0  0  0  0  0  0
    3.1550   -7.5120   24.5160 C   0  0  1  0  0  0  0  0  0  0  0  0
    4.8060   -3.9090   24.2210 O   0  0  0  0  0  0  0  0  0  0  0  0
    5.1910   -5.5670   26.2430 S   0  0  0  0  0  0  0  0  0  0  0  0
   10.1090    5.5800   25.2010 O   0  0  0  0  0  0  0  0  0  0  0  0
   11.1430    6.2780   23.0780 O   0  0  0  0  0  0  0  0  0  0  0  0
    1.8720   -8.2290   24.2160 C   0  0  0  0  0  0  0  0  0  0  0  0
    4.3250   -8.1460   24.6700 O   0  0  0  0  0  0  0  0  0  0  0  0
    1.0450   -6.1000   22.6950 C   0  0  0  0  0  0  0  0  0  0  0  0
    6.2860   -5.0990   27.0740 O   0  0  0  0  0  0  0  0  0  0  0  0
    4.6700   -6.9070   26.4030 O   0  0  0  0  0  0  0  0  0  0  0  0
   11.0650    3.7770   23.5540 C   0  0  0  0  0  0  0  0  0  0  0  0
    3.9090   -4.3490   26.3720 C   0  0  0  0  0  0  0  0  0  0  0  0
    0.9740   -7.0930   21.9780 O   0  0  0  0  0  0  0  0  0  0  0  0
   -0.1870   -5.2910   23.1090 C   0  0  0  0  0  0  0  0  0  0  0  0
   12.3100    3.7880   22.9610 C   0  0  0  0  0  0  0  0  0  0  0  0
   10.4870    2.5530   23.9380 C   0  0  0  0  0  0  0  0  0  0  0  0
    4.2390   -3.0090   26.6700 C   0  0  0  0  0  0  0  0  0  0  0  0
    2.4730   -4.6860   26.1470 C   0  0  0  0  0  0  0  0  0  0  0  0
   13.0340    2.6340   22.7170 C   0  0  0  0  0  0  0  0  0  0  0  0
   11.1820    1.3800   23.7000 C   0  0  0  0  0  0  0  0  0  0  0  0
    3.2550   -2.0220   26.7540 C   0  0  0  0  0  0  0  0  0  0  0  0
    1.3990   -3.6190   26.2350 C   0  0  0  0  0  0  0  0  0  0  0  0
   12.5320    1.3800   23.0540 C   0  0  0  0  0  0  0  0  0  0  0  0
    1.7720   -2.3200   26.5310 C   0  0  0  0  0  0  0  0  0  0  0  0
    0.5900   -1.0830   26.6490 Cl  0  0  0  0  0  0  0  0  0  0  0  0
  1  2  1  0
  2  3  1  6
  1  4  1  0
  1  5  1  0
  4  6  1  0
  2  7  1  0
  5  8  2  0
  5  9  1  0
  3 10  1  0
  3 11  2  0
  7 12  2  0
  7 13  1  0
  8 14  1  0
  9 15  2  0
 16  6  1  1
 10 17  1  0
 16 18  1  0
 13 19  2  0
 12 20  1  0
 14 21  2  0
 15 21  1  0
 16 22  1  0
 16 23  1  0
 17 24  1  0
 21 25  1  0
 18 26  1  0
 18 27  2  0
 19 28  1  0
 20 28  2  0
 22 29  1  0
 30 23  1  6
 24 31  1  0
 25 32  1  0
 25 33  1  0
 25 34  1  0
 30 35  1  0
 29 36  1  0
 30 36  1  0
 31 37  1  0
 38 31  1  0
 35 39  1  1
 35 40  1  0
 36 41  1  6
 36 42  1  0
 38 43  2  0
 38 44  2  0
 40 45  1  6
 40 46  1  0
 39 47  1  0
 42 48  2  0
 42 49  2  0
 38 50  1  0
 42 51  1  0
 47 52  2  0
 47 53  1  0
 50 54  2  0
 50 55  1  0
 51 56  2  0
 51 57  1  0
 54 58  1  0
 55 59  2  0
 56 60  1  0
 57 61  2  0
 58 62  2  0
 59 62  1  0
 60 63  2  0
 61 63  1  0
 63 64  1  0
M  END
