x1308-x2572
     RDKit          3D

 40 43  0  0  0  0  0  0  0  0999 V2000
    7.3930   -3.3560   19.8010 C   0  0  0  0  0  0  0  0  0  0  0  0
    6.4510   -4.3270   20.5410 C   0  0  0  0  0  0  0  0  0  0  0  0
    5.4200   -4.6790   19.9650 O   0  0  0  0  0  0  0  0  0  0  0  0
    6.7610   -4.8280   21.8320 N   0  0  0  0  0  0  0  0  0  0  0  0
    7.3770   -4.1920   22.9210 C   0  0  1  0  0  0  0  0  0  0  0  0
    6.2550   -6.0730   22.1360 C   0  0  0  0  0  0  0  0  0  0  0  0
    6.8740   -2.7080   23.0030 C   0  0  0  0  0  0  0  0  0  0  0  0
    7.0300   -4.7910   24.1470 C   0  0  0  0  0  0  0  0  0  0  0  0
    5.2820   -6.0660   23.1150 C   0  0  0  0  0  0  0  0  0  0  0  0
    7.7800   -1.8520   23.5640 C   0  0  0  0  0  0  0  0  0  0  0  0
    5.7460   -5.2420   24.2670 N   0  0  0  0  0  0  0  0  0  0  0  0
    5.0960   -5.5230   25.8210 S   0  0  0  0  0  0  0  0  0  0  0  0
    8.6450   -1.1960   22.4850 C   0  0  1  0  0  0  0  0  0  0  0  0
    6.0910   -5.2860   26.8220 O   0  0  0  0  0  0  0  0  0  0  0  0
    4.5200   -6.8460   25.8840 O   0  0  0  0  0  0  0  0  0  0  0  0
    8.0410   -0.1960   21.8430 C   0  0  0  0  0  0  0  0  0  0  0  0
    3.7880   -4.3530   25.9650 C   0  0  0  0  0  0  0  0  0  0  0  0
   10.0480   -0.6840   22.8330 C   0  0  0  0  0  0  0  0  0  0  0  0
    8.6700    0.8500   21.6760 O   0  0  0  0  0  0  0  0  0  0  0  0
    6.7450   -0.3350   21.3560 N   0  0  0  0  0  0  0  0  0  0  0  0
    4.1920   -3.0600   26.3680 C   0  0  0  0  0  0  0  0  0  0  0  0
    2.5100   -4.6890   25.7140 C   0  0  0  0  0  0  0  0  0  0  0  0
   10.3680    0.3350   23.7400 C   0  0  0  0  0  0  0  0  0  0  0  0
   11.1380   -1.3050   22.1290 C   0  0  0  0  0  0  0  0  0  0  0  0
    3.2730   -2.0240   26.5420 C   0  0  0  0  0  0  0  0  0  0  0  0
    1.3960   -3.6790   25.8570 C   0  0  0  0  0  0  0  0  0  0  0  0
    6.2860    0.2160   20.1710 C   0  0  0  0  0  0  0  0  0  0  0  0
   11.7160    0.7170   23.9170 C   0  0  0  0  0  0  0  0  0  0  0  0
   12.4000   -0.8920   22.3480 C   0  0  0  0  0  0  0  0  0  0  0  0
   13.1910   -1.5370   21.6250 C   0  0  0  0  0  0  0  0  0  0  0  0
    1.7940   -2.2820   26.2950 C   0  0  0  0  0  0  0  0  0  0  0  0
    6.9140   -0.0530   18.8500 C   0  0  0  0  0  0  0  0  0  0  0  0
    5.2340    1.0200   20.2600 C   0  0  0  0  0  0  0  0  0  0  0  0
   12.7350    0.1020   23.2210 C   0  0  0  0  0  0  0  0  0  0  0  0
    0.5460   -1.1180   26.4780 Cl  0  0  0  0  0  0  0  0  0  0  0  0
    4.5740    1.3100   21.5800 C   0  0  0  0  0  0  0  0  0  0  0  0
   13.8050   -2.2880   20.6180 N   0  0  0  0  0  0  0  0  0  0  0  0
    6.3650    0.5910   17.6410 N   0  0  0  0  0  0  0  0  0  0  0  0
    4.6680    1.6680   19.0520 C   0  0  0  0  0  0  0  0  0  0  0  0
    5.1980    1.4660   17.8480 C   0  0  0  0  0  0  0  0  0  0  0  0
  1  2  1  0
  2  3  2  0
  2  4  1  0
  4  5  1  0
  4  6  1  0
  5  7  1  1
  5  8  1  0
  6  9  1  0
  7 10  1  0
  8 11  1  0
  9 11  1  0
 11 12  1  0
 13 10  1  1
 12 14  2  0
 12 15  2  0
 13 16  1  0
 12 17  1  0
 13 18  1  0
 16 19  2  0
 16 20  1  0
 17 21  2  0
 17 22  1  0
 18 23  2  0
 18 24  1  0
 21 25  1  0
 22 26  2  0
 20 27  1  0
 23 28  1  0
 24 29  2  0
 29 30  1  0
 25 31  2  0
 26 31  1  0
 27 32  2  0
 27 33  1  0
 28 34  2  0
 29 34  1  0
 31 35  1  0
 33 36  1  0
 30 37  3  0
 32 38  1  0
 33 39  2  0
 38 40  2  0
 39 40  1  0
M  END
