x1308-x2964
     RDKit          3D

 39 42  0  0  0  0  0  0  0  0999 V2000
    7.1670   -3.3720   19.4380 C   0  0  0  0  0  0  0  0  0  0  0  0
    6.3180   -4.2790   20.3670 C   0  0  0  0  0  0  0  0  0  0  0  0
    5.2700   -4.7220   19.9410 O   0  0  0  0  0  0  0  0  0  0  0  0
    6.7830   -4.6840   21.7500 N   0  0  0  0  0  0  0  0  0  0  0  0
    7.3620   -3.8080   22.7830 C   0  0  1  0  0  0  0  0  0  0  0  0
    6.3390   -5.8910   22.1690 C   0  0  0  0  0  0  0  0  0  0  0  0
    6.7710   -2.3600   22.7650 C   0  0  0  0  0  0  0  0  0  0  0  0
    7.0840   -4.4280   24.1640 C   0  0  0  0  0  0  0  0  0  0  0  0
    5.4480   -5.9490   23.2520 C   0  0  0  0  0  0  0  0  0  0  0  0
    6.9130   -1.7760   21.5010 C   0  0  0  0  0  0  0  0  0  0  0  0
    5.8250   -4.9500   24.2970 N   0  0  0  0  0  0  0  0  0  0  0  0
    5.3280   -5.3410   25.8700 S   0  0  0  0  0  0  0  0  0  0  0  0
    6.9980   -0.2760   21.4990 N   0  0  0  0  0  0  0  0  0  0  0  0
    6.4300   -4.9580   26.7340 O   0  0  0  0  0  0  0  0  0  0  0  0
    4.7530   -6.6770   25.8540 O   0  0  0  0  0  0  0  0  0  0  0  0
    8.2330    0.3040   21.7270 C   0  0  0  0  0  0  0  0  0  0  0  0
    4.0030   -4.1970   26.0490 C   0  0  0  0  0  0  0  0  0  0  0  0
    6.3140    0.2270   20.2970 C   0  0  0  0  0  0  0  0  0  0  0  0
    8.6490    1.3290   21.1470 O   0  0  0  0  0  0  0  0  0  0  0  0
    8.8580   -0.2600   22.5060 N   0  0  0  0  0  0  0  0  0  0  0  0
    4.2590   -2.8820   26.4460 C   0  0  0  0  0  0  0  0  0  0  0  0
    2.6830   -4.5670   25.7980 C   0  0  0  0  0  0  0  0  0  0  0  0
    5.1070    0.9230   20.3810 C   0  0  0  0  0  0  0  0  0  0  0  0
    6.9490   -0.0220   18.9350 C   0  0  0  0  0  0  0  0  0  0  0  0
    3.1930   -1.9850   26.5810 C   0  0  0  0  0  0  0  0  0  0  0  0
    1.6000   -3.7000   25.9220 C   0  0  0  0  0  0  0  0  0  0  0  0
    4.4690    1.4040   19.2410 C   0  0  0  0  0  0  0  0  0  0  0  0
    6.3740    0.4390   17.7710 N   0  0  0  0  0  0  0  0  0  0  0  0
   10.2920   -0.1620   22.5770 C   0  0  0  0  0  0  0  0  0  0  0  0
    3.2040    2.1390   19.2220 N   0  0  0  0  0  0  0  0  0  0  0  0
    1.8770   -2.3900   26.3240 C   0  0  0  0  0  0  0  0  0  0  0  0
    5.2440    1.0840   17.9600 C   0  0  0  0  0  0  0  0  0  0  0  0
   10.8820    0.9590   23.0600 C   0  0  0  0  0  0  0  0  0  0  0  0
   11.0340   -1.2280   22.1300 C   0  0  0  0  0  0  0  0  0  0  0  0
    0.5910   -1.2630   26.5110 Cl  0  0  0  0  0  0  0  0  0  0  0  0
   12.2690    1.0330   23.1140 C   0  0  0  0  0  0  0  0  0  0  0  0
   12.4060   -1.1370   22.1830 C   0  0  0  0  0  0  0  0  0  0  0  0
   13.2050   -2.4910   21.5860 Cl  0  0  0  0  0  0  0  0  0  0  0  0
   13.0640   -0.0150   22.6770 C   0  0  0  0  0  0  0  0  0  0  0  0
  1  2  1  0
  2  3  2  0
  2  4  1  0
  4  5  1  0
  4  6  1  0
  5  7  1  1
  5  8  1  0
  6  9  1  0
  7 10  1  0
  8 11  1  0
  9 11  1  0
 11 12  1  0
 10 13  1  0
 12 14  2  0
 12 15  2  0
 13 16  1  0
 12 17  1  0
 13 18  1  0
 16 19  2  0
 16 20  1  0
 17 21  2  0
 17 22  1  0
 18 23  2  0
 18 24  1  0
 21 25  1  0
 22 26  2  0
 23 27  1  0
 24 28  2  0
 20 29  1  0
 27 30  1  0
 25 31  2  0
 26 31  1  0
 27 32  2  0
 28 32  1  0
 29 33  2  0
 29 34  1  0
 31 35  1  0
 33 36  1  0
 34 37  2  0
 37 38  1  0
 36 39  2  0
 37 39  1  0
M  END
