x1308-x0978-x2540
     RDKit          3D

 54 57  0  0  0  0  0  0  0  0999 V2000
    7.2360   -1.0680   22.2080 N   0  0  0  0  0  0  0  0  0  0  0  0
    6.9480    0.3550   21.7830 C   0  0  1  0  0  0  0  0  0  0  0  0
    8.0860    1.3970   21.9200 C   0  0  0  0  0  0  0  0  0  0  0  0
    6.2780   -1.8150   22.9930 C   0  0  0  0  0  0  0  0  0  0  0  0
    8.5210   -1.2020   22.7410 C   0  0  0  0  0  0  0  0  0  0  0  0
    5.6730   -2.8060   22.1870 C   0  0  0  0  0  0  0  0  0  0  0  0
    6.3380    0.6190   20.3610 C   0  0  0  0  0  0  0  0  0  0  0  0
    8.7640   -1.5590   24.1850 N   0  0  0  0  0  0  0  0  0  0  0  0
    9.7490   -1.0750   22.2480 C   0  0  0  0  0  0  0  0  0  0  0  0
    8.2380    1.9120   23.1990 N   0  0  0  0  0  0  0  0  0  0  0  0
    8.7970    1.7900   20.9990 O   0  0  0  0  0  0  0  0  0  0  0  0
    5.2630    1.4840   20.1610 C   0  0  0  0  0  0  0  0  0  0  0  0
    6.9340   -0.0520   19.2930 C   0  0  0  0  0  0  0  0  0  0  0  0
   10.1350   -1.5950   24.3930 O   0  0  0  0  0  0  0  0  0  0  0  0
   10.8140   -1.3100   23.2490 C   0  0  0  0  0  0  0  0  0  0  0  0
    6.2310   -4.3100   22.0720 C   0  0  1  0  0  0  0  0  0  0  0  0
    9.0320    3.1100   23.4410 C   0  0  0  0  0  0  0  0  0  0  0  0
   12.3230   -1.3080   23.3100 C   0  0  0  0  0  0  0  0  0  0  0  0
    6.7130   -4.2060   20.6470 C   0  0  0  0  0  0  0  0  0  0  0  0
    6.3680    0.2210   17.9940 N   0  0  0  0  0  0  0  0  0  0  0  0
    4.7240    1.7420   18.9500 C   0  0  0  0  0  0  0  0  0  0  0  0
    7.1970   -4.5870   23.0290 C   0  0  0  0  0  0  0  0  0  0  0  0
    5.2160   -5.2690   22.1140 C   0  0  0  0  0  0  0  0  0  0  0  0
    9.0340    3.4980   24.9230 C   0  0  0  0  0  0  0  0  0  0  0  0
    8.4960    4.3390   22.6720 C   0  0  0  0  0  0  0  0  0  0  0  0
   10.4730    2.8560   22.9350 C   0  0  0  0  0  0  0  0  0  0  0  0
   12.9700   -1.6380   21.9700 C   0  0  0  0  0  0  0  0  0  0  0  0
   12.7960   -0.0740   23.6510 C   0  0  0  0  0  0  0  0  0  0  0  0
   12.8160   -2.3520   24.3480 C   0  0  0  0  0  0  0  0  0  0  0  0
    8.1260   -3.7260   20.3320 C   0  0  0  0  0  0  0  0  0  0  0  0
    5.8550   -4.4720   19.8390 O   0  0  0  0  0  0  0  0  0  0  0  0
    5.2330    1.1450   17.8300 C   0  0  0  0  0  0  0  0  0  0  0  0
    6.6660   -5.4860   23.9600 C   0  0  0  0  0  0  0  0  0  0  0  0
    4.4010   -5.2130   23.3850 C   0  0  1  0  0  0  0  0  0  0  0  0
    3.2140   -6.2720   23.3340 C   0  0  2  0  0  0  0  0  0  0  0  0
    5.4320   -5.1000   24.3690 C   0  0  2  0  0  0  0  0  0  0  0  0
    2.0960   -5.5210   23.1610 N   0  0  0  0  0  0  0  0  0  0  0  0
    3.1460   -7.3550   24.3960 C   0  0  1  0  0  0  0  0  0  0  0  0
    5.5500   -3.6830   24.3960 O   0  0  0  0  0  0  0  0  0  0  0  0
    5.0920   -5.4900   26.0530 S   0  0  0  0  0  0  0  0  0  0  0  0
    2.1940   -8.3640   24.3000 C   0  0  0  0  0  0  0  0  0  0  0  0
    4.3980   -8.0180   24.4100 O   0  0  0  0  0  0  0  0  0  0  0  0
    0.9100   -6.2050   22.5790 C   0  0  0  0  0  0  0  0  0  0  0  0
    6.1420   -5.0470   26.9160 O   0  0  0  0  0  0  0  0  0  0  0  0
    4.5850   -6.8220   26.2110 O   0  0  0  0  0  0  0  0  0  0  0  0
    3.8440   -4.3220   26.2250 C   0  0  0  0  0  0  0  0  0  0  0  0
    0.9550   -7.4050   21.9400 O   0  0  0  0  0  0  0  0  0  0  0  0
   -0.2800   -5.4840   22.7410 C   0  0  0  0  0  0  0  0  0  0  0  0
    4.1420   -2.8540   26.5440 C   0  0  0  0  0  0  0  0  0  0  0  0
    2.4200   -4.7780   26.0370 C   0  0  0  0  0  0  0  0  0  0  0  0
    3.0610   -2.0370   26.6360 C   0  0  0  0  0  0  0  0  0  0  0  0
    1.3350   -3.7300   26.1740 C   0  0  0  0  0  0  0  0  0  0  0  0
    1.7030   -2.2780   26.4950 C   0  0  0  0  0  0  0  0  0  0  0  0
    0.4460   -1.1240   26.6440 Cl  0  0  0  0  0  0  0  0  0  0  0  0
  1  2  1  0
  2  3  1  6
  1  4  1  0
  1  5  1  0
  4  6  1  0
  2  7  1  0
  5  8  2  0
  5  9  1  0
  3 10  1  0
  3 11  2  0
  7 12  2  0
  7 13  1  0
  8 14  1  0
  9 15  2  0
 14 15  1  0
 16  6  1  1
 17 10  1  0
 15 18  1  0
 16 19  1  0
 13 20  2  0
 12 21  1  0
 16 22  1  0
 16 23  1  0
 17 24  1  0
 17 25  1  0
 17 26  1  0
 18 27  1  0
 18 28  1  0
 18 29  1  0
 19 30  1  0
 19 31  2  0
 20 32  1  0
 21 32  2  0
 22 33  1  0
 34 23  1  6
 34 35  1  0
 33 36  1  0
 34 36  1  0
 35 37  1  1
 35 38  1  0
 36 39  1  1
 36 40  1  0
 38 41  1  6
 38 42  1  0
 37 43  1  0
 40 44  2  0
 40 45  2  0
 40 46  1  0
 43 47  2  0
 43 48  1  0
 46 49  2  0
 46 50  1  0
 49 51  1  0
 50 52  2  0
 51 53  2  0
 52 53  1  0
 53 54  1  0
M  END
