x1308-x3110-x0995-x3113
     RDKit          3D

 50 53  0  0  0  0  0  0  0  0999 V2000
    8.1460    1.4160   23.3900 N   0  0  0  0  0  0  0  0  0  0  0  0
    9.0480    2.4920   23.8370 C   0  0  0  0  0  0  0  0  0  0  0  0
   10.4100    2.1580   23.5790 C   0  0  0  0  0  0  0  0  0  0  0  0
    7.9020    1.0860   21.9830 C   0  0  0  0  0  0  0  0  0  0  0  0
    8.6640    1.5060   21.0890 O   0  0  0  0  0  0  0  0  0  0  0  0
    6.7220    0.3120   21.7740 C   0  0  2  0  0  0  0  0  0  0  0  0
    7.0500   -1.0930   22.0040 N   0  0  0  0  0  0  0  0  0  0  0  0
   11.2410    3.4280   23.3760 C   0  0  0  0  0  0  0  0  0  0  0  0
    6.2170    0.5960   20.4090 C   0  0  0  0  0  0  0  0  0  0  0  0
   12.0290    3.3100   22.4510 O   0  0  0  0  0  0  0  0  0  0  0  0
   11.1010    4.5980   24.1650 O   0  0  0  0  0  0  0  0  0  0  0  0
    6.1130   -2.1250   21.9210 C   0  0  0  0  0  0  0  0  0  0  0  0
    5.0760    1.3590   20.2280 C   0  0  0  0  0  0  0  0  0  0  0  0
    6.8880    0.0970   19.2010 C   0  0  0  0  0  0  0  0  0  0  0  0
    8.3140   -1.3110   22.6190 C   0  0  0  0  0  0  0  0  0  0  0  0
   12.3800    4.5000   21.9210 C   0  0  0  0  0  0  0  0  0  0  0  0
    6.3340   -3.1760   22.8020 C   0  0  0  0  0  0  0  0  0  0  0  0
    6.4130    0.3890   17.9420 N   0  0  0  0  0  0  0  0  0  0  0  0
    4.5920    1.6520   19.0060 C   0  0  0  0  0  0  0  0  0  0  0  0
    9.4030   -1.5540   21.7900 C   0  0  0  0  0  0  0  0  0  0  0  0
    8.5350   -1.2670   23.9750 C   0  0  0  0  0  0  0  0  0  0  0  0
   13.4120    5.1900   22.8090 C   0  0  0  0  0  0  0  0  0  0  0  0
    3.3780    2.4620   18.9120 N   0  0  0  0  0  0  0  0  0  0  0  0
    5.2380    1.1880   17.7540 C   0  0  0  0  0  0  0  0  0  0  0  0
   10.7630   -1.7570   22.1800 C   0  0  0  0  0  0  0  0  0  0  0  0
    9.8200   -1.4440   24.4060 C   0  0  0  0  0  0  0  0  0  0  0  0
    6.4640   -4.5950   22.1520 C   0  0  0  0  0  0  0  0  0  0  0  0
    6.6280   -4.3380   20.6320 C   0  0  0  0  0  0  0  0  0  0  0  0
   11.0330   -1.6960   23.5520 C   0  0  0  0  0  0  0  0  0  0  0  0
    7.6760   -5.2750   22.7040 C   0  0  0  0  0  0  0  0  0  0  0  0
    5.2690   -5.3380   22.2130 C   0  0  0  0  0  0  0  0  0  0  0  0
   12.4330   -1.8410   24.1170 C   0  0  0  0  0  0  0  0  0  0  0  0
    7.8210   -3.4910   20.1140 C   0  0  0  0  0  0  0  0  0  0  0  0
    5.7170   -4.7670   19.9470 O   0  0  0  0  0  0  0  0  0  0  0  0
    7.3670   -5.1880   24.0660 C   0  0  0  0  0  0  0  0  0  0  0  0
    5.1490   -6.1240   23.3270 C   0  0  0  0  0  0  0  0  0  0  0  0
   12.6980   -0.6210   24.9670 C   0  0  0  0  0  0  0  0  0  0  0  0
   13.4220   -1.9100   22.9690 C   0  0  0  0  0  0  0  0  0  0  0  0
   12.6960   -3.0440   25.0040 C   0  0  0  0  0  0  0  0  0  0  0  0
    5.9150   -5.4440   24.3610 N   0  0  0  0  0  0  0  0  0  0  0  0
    5.3390   -5.5820   25.9560 S   0  0  0  0  0  0  0  0  0  0  0  0
    6.1160   -5.2770   27.1230 O   0  0  0  0  0  0  0  0  0  0  0  0
    4.6320   -6.8370   25.9200 O   0  0  0  0  0  0  0  0  0  0  0  0
    4.0500   -4.3830   26.0680 C   0  0  0  0  0  0  0  0  0  0  0  0
    4.3630   -2.9480   26.4800 C   0  0  0  0  0  0  0  0  0  0  0  0
    2.5820   -4.7770   25.7620 C   0  0  0  0  0  0  0  0  0  0  0  0
    3.2620   -2.0830   26.5620 C   0  0  0  0  0  0  0  0  0  0  0  0
    1.6650   -3.7300   25.9170 C   0  0  0  0  0  0  0  0  0  0  0  0
    1.9110   -2.4000   26.3050 C   0  0  0  0  0  0  0  0  0  0  0  0
    0.6540   -1.2420   26.4630 Cl  0  0  0  0  0  0  0  0  0  0  0  0
  1  2  1  0
  2  3  1  0
  1  4  1  0
  4  5  2  0
  6  4  1  6
  6  7  1  0
  3  8  1  0
  6  9  1  0
  8 10  1  0
  8 11  2  0
  7 12  1  0
  9 13  2  0
  9 14  1  0
  7 15  1  0
 10 16  1  0
 12 17  1  0
 14 18  2  0
 13 19  1  0
 15 20  2  0
 15 21  1  0
 16 22  1  0
 19 23  1  0
 18 24  1  0
 19 24  2  0
 20 25  1  0
 21 26  2  0
 17 27  1  0
 27 28  1  0
 25 29  2  0
 26 29  1  0
 27 30  1  0
 27 31  1  0
 29 32  1  0
 28 33  1  0
 28 34  2  0
 30 35  1  0
 31 36  1  0
 32 37  1  0
 32 38  1  0
 32 39  1  0
 35 40  1  0
 36 40  1  0
 40 41  1  0
 41 42  2  0
 41 43  2  0
 41 44  1  0
 44 45  2  0
 44 46  1  0
 45 47  1  0
 46 48  2  0
 47 49  2  0
 48 49  1  0
 49 50  1  0
M  END
