x1308-x2562
     RDKit          3D

 43 47  0  0  0  0  0  0  0  0999 V2000
    8.0580   -3.5500   20.0220 C   0  0  0  0  0  0  0  0  0  0  0  0
    6.7330   -4.1980   20.5750 C   0  0  0  0  0  0  0  0  0  0  0  0
    5.8330   -4.6660   19.9020 O   0  0  0  0  0  0  0  0  0  0  0  0
    6.4400   -4.1750   22.1130 C   0  0  0  0  0  0  0  0  0  0  0  0
    6.0830   -2.6830   22.2820 C   0  0  0  0  0  0  0  0  0  0  0  0
    7.5330   -4.6370   22.8350 C   0  0  0  0  0  0  0  0  0  0  0  0
    5.2770   -4.8810   22.2370 C   0  0  0  0  0  0  0  0  0  0  0  0
    6.8780   -1.9170   21.4160 C   0  0  0  0  0  0  0  0  0  0  0  0
    7.3690   -4.7690   24.1990 C   0  0  0  0  0  0  0  0  0  0  0  0
    5.2620   -5.7790   23.3160 C   0  0  0  0  0  0  0  0  0  0  0  0
    6.9810   -0.3890   21.5620 C   0  0  1  0  0  0  0  0  0  0  0  0
    5.9490   -5.1180   24.4400 N   0  0  0  0  0  0  0  0  0  0  0  0
    5.3520   -5.4460   25.9950 S   0  0  0  0  0  0  0  0  0  0  0  0
    8.3080    0.1360   21.5890 C   0  0  0  0  0  0  0  0  0  0  0  0
    6.3280    0.2090   20.3350 C   0  0  0  0  0  0  0  0  0  0  0  0
    6.3850   -5.0410   26.9290 O   0  0  0  0  0  0  0  0  0  0  0  0
    4.7570   -6.7700   26.0130 O   0  0  0  0  0  0  0  0  0  0  0  0
    8.5700    1.2610   21.1110 O   0  0  0  0  0  0  0  0  0  0  0  0
    9.1110   -0.5620   22.0900 N   0  0  0  0  0  0  0  0  0  0  0  0
    4.0130   -4.2780   26.1030 C   0  0  0  0  0  0  0  0  0  0  0  0
    6.8920   -0.0610   18.9080 C   0  0  0  0  0  0  0  0  0  0  0  0
    5.0650    1.1330   20.3810 C   0  0  0  0  0  0  0  0  0  0  0  0
    4.2510   -2.9530   26.4650 C   0  0  0  0  0  0  0  0  0  0  0  0
    2.6970   -4.6750   25.8300 C   0  0  0  0  0  0  0  0  0  0  0  0
    4.4420    1.7110   19.3500 N   0  0  0  0  0  0  0  0  0  0  0  0
    6.2330    0.5630   17.7250 N   0  0  0  0  0  0  0  0  0  0  0  0
   10.4590   -0.2390   22.3550 C   0  0  0  0  0  0  0  0  0  0  0  0
    3.2450   -2.0040   26.5750 C   0  0  0  0  0  0  0  0  0  0  0  0
    1.6580   -3.7410   25.9330 C   0  0  0  0  0  0  0  0  0  0  0  0
    5.0410    1.4180   18.0690 C   0  0  0  0  0  0  0  0  0  0  0  0
   11.5560   -1.1190   22.3410 C   0  0  0  0  0  0  0  0  0  0  0  0
   10.7240    1.0980   22.6580 C   0  0  0  0  0  0  0  0  0  0  0  0
    1.9370   -2.4140   26.3080 C   0  0  0  0  0  0  0  0  0  0  0  0
   12.8390   -0.6510   22.6110 C   0  0  0  0  0  0  0  0  0  0  0  0
   11.9990    1.5880   22.9280 C   0  0  0  0  0  0  0  0  0  0  0  0
    0.6500   -1.2830   26.4430 Cl  0  0  0  0  0  0  0  0  0  0  0  0
   12.0080    2.9360   23.1920 O   0  0  0  0  0  0  0  0  0  0  0  0
   13.0690    0.6920   22.8990 C   0  0  0  0  0  0  0  0  0  0  0  0
   13.0240    3.8160   22.6710 C   0  0  1  0  0  0  0  0  0  0  0  0
   12.5260    4.6170   21.7000 N   0  0  0  0  0  0  0  0  0  0  0  0
   13.2880    4.8370   23.4980 C   0  0  0  0  0  0  0  0  0  0  0  0
   12.6950    5.7400   22.6460 C   0  0  1  0  0  0  0  0  0  0  0  0
   13.5030    6.8100   22.2380 O   0  0  0  0  0  0  0  0  0  0  0  0
  1  2  1  0
  2  3  2  0
  4  2  1  0
  4  5  1  0
  4  6  1  0
  4  7  1  0
  5  8  1  0
  6  9  1  0
  7 10  1  0
 11  8  1  6
  9 12  1  0
 10 12  1  0
 12 13  1  0
 11 14  1  0
 11 15  1  0
 13 16  2  0
 13 17  2  0
 14 18  2  0
 14 19  1  0
 13 20  1  0
 15 21  2  0
 15 22  1  0
 20 23  2  0
 20 24  1  0
 22 25  2  0
 21 26  1  0
 19 27  1  0
 23 28  1  0
 24 29  2  0
 25 30  1  0
 26 30  2  0
 27 31  2  0
 27 32  1  0
 28 33  2  0
 29 33  1  0
 31 34  1  0
 32 35  2  0
 33 36  1  0
 35 37  1  0
 34 38  2  0
 35 38  1  0
 39 37  1  1
 39 40  1  0
 39 41  1  0
 40 42  1  0
 41 42  1  0
 42 43  1  6
M  END
