x1308-x2705-x2776-x3124
     RDKit          3D

 53 57  0  0  0  0  0  0  0  0999 V2000
    7.2970   -0.9880   21.8440 N   0  0  0  0  0  0  0  0  0  0  0  0
    6.8790    0.3160   21.6630 C   0  0  1  0  0  0  0  0  0  0  0  0
    7.7670    1.3580   21.8490 C   0  0  0  0  0  0  0  0  0  0  0  0
    6.1360   -1.8520   21.7970 C   0  0  0  0  0  0  0  0  0  0  0  0
    8.4770   -1.1780   22.6080 C   0  0  0  0  0  0  0  0  0  0  0  0
    5.9070   -3.1380   22.6860 C   0  0  0  0  0  0  0  0  0  0  0  0
    6.2990    0.5840   20.3170 C   0  0  0  0  0  0  0  0  0  0  0  0
    8.5730   -1.2960   23.9840 N   0  0  0  0  0  0  0  0  0  0  0  0
    9.7590   -1.2380   22.1240 C   0  0  0  0  0  0  0  0  0  0  0  0
    7.5270    2.3730   22.8500 N   0  0  0  0  0  0  0  0  0  0  0  0
    8.8870    1.3570   20.9820 O   0  0  0  0  0  0  0  0  0  0  0  0
    5.0460    1.4530   20.2080 C   0  0  0  0  0  0  0  0  0  0  0  0
    6.8600    0.0830   19.1390 C   0  0  0  0  0  0  0  0  0  0  0  0
    9.9100   -1.4160   24.3410 N   0  0  0  0  0  0  0  0  0  0  0  0
   10.7700   -1.3900   23.1950 C   0  0  0  0  0  0  0  0  0  0  0  0
    6.3430   -4.4770   22.1790 C   0  0  0  0  0  0  0  0  0  0  0  0
   12.2780   -1.4900   23.2240 C   0  0  0  0  0  0  0  0  0  0  0  0
    6.5160   -4.2060   20.6540 C   0  0  0  0  0  0  0  0  0  0  0  0
    6.3820    0.3220   17.8840 N   0  0  0  0  0  0  0  0  0  0  0  0
    4.5060    1.7340   18.9620 C   0  0  0  0  0  0  0  0  0  0  0  0
    8.1890    3.5990   22.9560 C   0  0  0  0  0  0  0  0  0  0  0  0
    7.5110   -4.9670   22.9980 C   0  0  0  0  0  0  0  0  0  0  0  0
    5.2770   -5.3830   22.2630 C   0  0  0  0  0  0  0  0  0  0  0  0
   12.7980   -0.3020   23.7690 C   0  0  0  0  0  0  0  0  0  0  0  0
   12.7060   -2.7530   24.0040 C   0  0  0  0  0  0  0  0  0  0  0  0
   12.8380   -1.6750   21.8020 C   0  0  0  0  0  0  0  0  0  0  0  0
    7.8660   -3.6180   20.3180 C   0  0  0  0  0  0  0  0  0  0  0  0
    5.5930   -4.4340   19.8690 O   0  0  0  0  0  0  0  0  0  0  0  0
    5.1860    1.1650   17.7640 C   0  0  0  0  0  0  0  0  0  0  0  0
    9.5080    3.7220   23.5020 C   0  0  0  0  0  0  0  0  0  0  0  0
    7.3870    4.8080   22.4350 C   0  0  0  0  0  0  0  0  0  0  0  0
    7.1910   -5.1060   24.4620 C   0  0  0  0  0  0  0  0  0  0  0  0
    5.3460   -6.2240   23.5150 C   0  0  0  0  0  0  0  0  0  0  0  0
   10.2670    2.4910   23.9720 C   0  0  0  0  0  0  0  0  0  0  0  0
    6.0080    4.7080   21.8430 C   0  0  0  0  0  0  0  0  0  0  0  0
   13.5240   -2.6380   25.3250 C   0  0  0  0  0  0  0  0  0  0  0  0
   10.1400    5.0000   23.6100 C   0  0  0  0  0  0  0  0  0  0  0  0
    8.0510    6.1550   22.5360 C   0  0  0  0  0  0  0  0  0  0  0  0
    5.8850   -5.3730   24.6040 N   0  0  0  0  0  0  0  0  0  0  0  0
    9.3800    1.5090   24.7810 C   0  0  0  0  0  0  0  0  0  0  0  0
   11.3900    5.0830   24.1510 O   0  0  0  0  0  0  0  0  0  0  0  0
    5.2950   -5.5610   26.1720 S   0  0  0  0  0  0  0  0  0  0  0  0
    9.4010    6.2610   23.1150 C   0  0  0  0  0  0  0  0  0  0  0  0
   11.7800    6.2990   24.7860 C   0  0  0  0  0  0  0  0  0  0  0  0
    6.3420   -5.1220   27.0650 O   0  0  0  0  0  0  0  0  0  0  0  0
    4.6890   -6.8660   26.2800 O   0  0  0  0  0  0  0  0  0  0  0  0
    3.9930   -4.3530   26.2210 C   0  0  0  0  0  0  0  0  0  0  0  0
    4.3350   -2.9040   26.6020 C   0  0  0  0  0  0  0  0  0  0  0  0
    2.6890   -4.7590   25.9140 C   0  0  0  0  0  0  0  0  0  0  0  0
    3.2520   -2.0270   26.6310 C   0  0  0  0  0  0  0  0  0  0  0  0
    1.6510   -3.8420   25.9570 C   0  0  0  0  0  0  0  0  0  0  0  0
    1.9520   -2.3850   26.3450 C   0  0  0  0  0  0  0  0  0  0  0  0
    0.6890   -1.2260   26.4310 Cl  0  0  0  0  0  0  0  0  0  0  0  0
  1  2  1  0
  2  3  1  6
  1  4  1  0
  1  5  1  0
  4  6  1  0
  2  7  1  0
  5  8  2  0
  5  9  1  0
  3 10  1  0
  3 11  2  0
  7 12  2  0
  7 13  1  0
  8 14  1  0
  9 15  2  0
 14 15  1  0
  6 16  1  0
 15 17  1  0
 16 18  1  0
 13 19  2  0
 12 20  1  0
 10 21  1  0
 16 22  1  0
 16 23  1  0
 17 24  1  0
 17 25  1  0
 17 26  1  0
 18 27  1  0
 18 28  2  0
 19 29  1  0
 20 29  2  0
 21 30  2  0
 21 31  1  0
 22 32  1  0
 23 33  1  0
 30 34  1  0
 31 35  1  0
 25 36  1  0
 30 37  1  0
 31 38  2  0
 32 39  1  0
 33 39  1  0
 34 40  1  0
 37 41  1  0
 39 42  1  0
 37 43  2  0
 38 43  1  0
 41 44  1  0
 42 45  2  0
 42 46  2  0
 42 47  1  0
 47 48  2  0
 47 49  1  0
 48 50  1  0
 49 51  2  0
 50 52  2  0
 51 52  1  0
 52 53  1  0
M  END
