x1308-x3113
     RDKit          3D

 46 49  0  0  0  0  0  0  0  0999 V2000
    7.2680   -1.2410   22.1470 N   0  0  0  0  0  0  0  0  0  0  0  0
    6.9090    0.0510   21.8120 C   0  0  1  0  0  0  0  0  0  0  0  0
    8.0530    1.0450   22.0030 C   0  0  0  0  0  0  0  0  0  0  0  0
    6.3640   -2.3230   22.3990 C   0  0  0  0  0  0  0  0  0  0  0  0
    8.5000   -1.4390   22.7350 C   0  0  0  0  0  0  0  0  0  0  0  0
    6.4010    0.3110   20.4110 C   0  0  0  0  0  0  0  0  0  0  0  0
    9.5400   -1.7700   21.8720 C   0  0  0  0  0  0  0  0  0  0  0  0
    8.7380   -1.3020   24.2000 C   0  0  0  0  0  0  0  0  0  0  0  0
    6.9770   -3.7410   22.7990 C   0  0  2  0  0  0  0  0  0  0  0  0
    8.2980    1.5380   23.2750 N   0  0  0  0  0  0  0  0  0  0  0  0
    8.7290    1.4280   21.0440 O   0  0  0  0  0  0  0  0  0  0  0  0
    5.1920    1.1960   20.4370 C   0  0  0  0  0  0  0  0  0  0  0  0
    6.9340   -0.1580   19.0880 C   0  0  0  0  0  0  0  0  0  0  0  0
   10.9180   -1.9780   22.3800 C   0  0  0  0  0  0  0  0  0  0  0  0
   10.1940   -1.5320   24.6230 C   0  0  0  0  0  0  0  0  0  0  0  0
    6.7260   -4.7580   21.7420 N   0  0  0  0  0  0  0  0  0  0  0  0
    6.6160   -4.0890   24.1030 C   0  0  0  0  0  0  0  0  0  0  0  0
    9.2550    2.5190   23.5340 C   0  0  0  0  0  0  0  0  0  0  0  0
    6.4000   -4.3000   20.4530 C   0  0  0  0  0  0  0  0  0  0  0  0
    6.4080    0.1690   17.9330 N   0  0  0  0  0  0  0  0  0  0  0  0
    4.6300    1.5360   19.0600 C   0  0  0  0  0  0  0  0  0  0  0  0
   11.2530   -1.8650   23.6580 C   0  0  0  0  0  0  0  0  0  0  0  0
    5.9630   -5.4090   24.4250 N   0  0  0  0  0  0  0  0  0  0  0  0
    6.0910   -6.0690   22.1340 C   0  0  0  0  0  0  0  0  0  0  0  0
   10.6930    2.0140   23.5710 C   0  0  0  0  0  0  0  0  0  0  0  0
   12.6740   -2.0350   24.1620 C   0  0  0  0  0  0  0  0  0  0  0  0
    7.3510   -3.3590   19.6840 C   0  0  0  0  0  0  0  0  0  0  0  0
    5.3480   -4.6490   19.9350 O   0  0  0  0  0  0  0  0  0  0  0  0
    5.1370   -5.6300   25.8920 S   0  0  0  0  0  0  0  0  0  0  0  0
    5.2210    1.0440   17.8820 C   0  0  0  0  0  0  0  0  0  0  0  0
    5.3920   -5.9690   23.3380 C   0  0  0  0  0  0  0  0  0  0  0  0
   11.6940    2.8640   23.1010 C   0  0  0  0  0  0  0  0  0  0  0  0
   13.5170   -2.0770   23.1400 C   0  0  0  0  0  0  0  0  0  0  0  0
   12.8240   -3.1180   25.1690 C   0  0  0  0  0  0  0  0  0  0  0  0
   12.9550   -0.8910   24.7750 C   0  0  0  0  0  0  0  0  0  0  0  0
    5.9960   -5.4400   27.0200 O   0  0  0  0  0  0  0  0  0  0  0  0
    4.4000   -6.8690   25.7990 O   0  0  0  0  0  0  0  0  0  0  0  0
    3.8820   -4.3810   26.0120 C   0  0  0  0  0  0  0  0  0  0  0  0
   11.7420    4.0530   23.4030 O   0  0  0  0  0  0  0  0  0  0  0  0
    4.2130   -3.0870   26.4320 C   0  0  0  0  0  0  0  0  0  0  0  0
    2.4730   -4.6950   25.6870 C   0  0  0  0  0  0  0  0  0  0  0  0
   12.9020    4.7210   22.9110 C   0  0  0  0  0  0  0  0  0  0  0  0
    3.2000   -2.1330   26.5410 C   0  0  0  0  0  0  0  0  0  0  0  0
    1.5660   -3.6590   25.8380 C   0  0  0  0  0  0  0  0  0  0  0  0
    1.9010   -2.3710   26.2680 C   0  0  0  0  0  0  0  0  0  0  0  0
    0.7060   -1.1520   26.4470 Cl  0  0  0  0  0  0  0  0  0  0  0  0
  1  2  1  0
  2  3  1  6
  1  4  1  0
  1  5  1  0
  2  6  1  0
  5  7  2  0
  5  8  1  0
  9  4  1  6
  3 10  1  0
  3 11  2  0
  6 12  2  0
  6 13  1  0
  7 14  1  0
  8 15  2  0
  9 16  1  0
  9 17  1  0
 10 18  1  0
 16 19  1  0
 13 20  2  0
 12 21  1  0
 14 22  2  0
 15 22  1  0
 17 23  1  0
 16 24  1  0
 18 25  1  0
 22 26  1  0
 19 27  1  0
 19 28  2  0
 23 29  1  0
 20 30  1  0
 21 30  2  0
 23 31  1  0
 24 31  1  0
 25 32  1  0
 26 33  1  0
 26 34  1  0
 26 35  1  0
 29 36  2  0
 29 37  2  0
 29 38  1  0
 32 39  1  0
 38 40  2  0
 38 41  1  0
 39 42  1  0
 40 43  1  0
 41 44  2  0
 43 45  2  0
 44 45  1  0
 45 46  1  0
M  END
