x1308-x3115-x3113-x2119
     RDKit          3D

 53 57  0  0  0  0  0  0  0  0999 V2000
    7.1630   -0.6400   22.3460 N   0  0  0  0  0  0  0  0  0  0  0  0
    7.0200    0.6000   21.8450 C   0  0  1  0  0  0  0  0  0  0  0  0
    8.2130    1.4520   22.0410 C   0  0  0  0  0  0  0  0  0  0  0  0
    8.4580   -1.0390   22.7890 C   0  0  0  0  0  0  0  0  0  0  0  0
    6.0540   -1.3640   22.3020 C   0  0  0  0  0  0  0  0  0  0  0  0
    6.4460    0.7380   20.4110 C   0  0  0  0  0  0  0  0  0  0  0  0
    9.4810   -1.2020   21.8740 C   0  0  0  0  0  0  0  0  0  0  0  0
    8.6790   -1.2480   24.1500 C   0  0  0  0  0  0  0  0  0  0  0  0
    5.0630   -2.3830   22.1010 C   0  0  0  0  0  0  0  0  0  0  0  0
    7.0710   -2.0700   21.7610 N   0  0  0  0  0  0  0  0  0  0  0  0
    8.3360    1.7880   23.3740 N   0  0  0  0  0  0  0  0  0  0  0  0
    8.9710    1.8230   21.1540 O   0  0  0  0  0  0  0  0  0  0  0  0
    5.3370    1.5870   20.2470 C   0  0  0  0  0  0  0  0  0  0  0  0
    6.9190    0.1010   19.2560 C   0  0  0  0  0  0  0  0  0  0  0  0
   10.9060   -1.5890   22.2990 C   0  0  0  0  0  0  0  0  0  0  0  0
   10.0530   -1.6330   24.6960 C   0  0  0  0  0  0  0  0  0  0  0  0
    6.7760   -3.3370   21.2950 C   0  0  0  0  0  0  0  0  0  0  0  0
    5.4000   -3.5420   21.5180 N   0  0  0  0  0  0  0  0  0  0  0  0
    9.1690    2.8760   23.5080 C   0  0  1  0  0  0  0  0  0  0  0  0
    7.7190   -4.2880   20.7350 C   0  0  0  0  0  0  0  0  0  0  0  0
    6.4110    0.2370   18.0100 N   0  0  0  0  0  0  0  0  0  0  0  0
    4.7540    1.7760   18.9930 C   0  0  0  0  0  0  0  0  0  0  0  0
   11.2060   -1.7960   23.7690 C   0  0  0  0  0  0  0  0  0  0  0  0
   10.5970    2.3820   23.2520 C   0  0  0  0  0  0  0  0  0  0  0  0
   12.5670   -2.1040   24.2810 C   0  0  0  0  0  0  0  0  0  0  0  0
    8.5890    3.9530   22.7200 C   0  0  0  0  0  0  0  0  0  0  0  0
    6.8420   -5.2470   20.8370 C   0  0  0  0  0  0  0  0  0  0  0  0
    5.2540    1.1330   17.8650 C   0  0  0  0  0  0  0  0  0  0  0  0
   11.6720    3.2420   23.2970 C   0  0  0  0  0  0  0  0  0  0  0  0
   13.4680   -2.2060   23.2330 C   0  0  0  0  0  0  0  0  0  0  0  0
   12.8700   -3.2080   25.3130 C   0  0  0  0  0  0  0  0  0  0  0  0
   12.8640   -0.7910   25.0030 C   0  0  0  0  0  0  0  0  0  0  0  0
    8.7930    5.3230   23.1120 O   0  0  0  0  0  0  0  0  0  0  0  0
    5.9240   -5.4630   20.0200 O   0  0  0  0  0  0  0  0  0  0  0  0
    6.8950   -5.9680   22.0350 N   0  0  0  0  0  0  0  0  0  0  0  0
   11.8490    4.0200   22.3760 O   0  0  0  0  0  0  0  0  0  0  0  0
    8.1930    6.2380   22.1930 C   0  0  0  0  0  0  0  0  0  0  0  0
    7.7460   -5.5670   23.0570 C   0  0  0  0  0  0  0  0  0  0  0  0
    5.7030   -6.6680   22.4800 C   0  0  0  0  0  0  0  0  0  0  0  0
   13.0400    4.6980   22.5070 C   0  0  0  0  0  0  0  0  0  0  0  0
    7.0830   -4.7540   23.9930 C   0  0  0  0  0  0  0  0  0  0  0  0
    4.9880   -5.9390   23.4190 C   0  0  0  0  0  0  0  0  0  0  0  0
    5.8750   -5.4840   24.3870 N   0  0  0  0  0  0  0  0  0  0  0  0
    5.3640   -5.5250   26.0140 S   0  0  0  0  0  0  0  0  0  0  0  0
    6.4810   -5.0680   26.8030 O   0  0  0  0  0  0  0  0  0  0  0  0
    4.7530   -6.8130   26.2340 O   0  0  0  0  0  0  0  0  0  0  0  0
    4.0850   -4.3180   26.1520 C   0  0  0  0  0  0  0  0  0  0  0  0
    4.3910   -2.8530   26.5490 C   0  0  0  0  0  0  0  0  0  0  0  0
    2.7620   -4.6570   25.9130 C   0  0  0  0  0  0  0  0  0  0  0  0
    3.2240   -1.9840   26.6380 C   0  0  0  0  0  0  0  0  0  0  0  0
    1.6790   -3.8130   26.0030 C   0  0  0  0  0  0  0  0  0  0  0  0
    1.9000   -2.3840   26.3940 C   0  0  0  0  0  0  0  0  0  0  0  0
    0.5570   -1.2520   26.5490 Cl  0  0  0  0  0  0  0  0  0  0  0  0
  1  2  1  0
  2  3  1  6
  1  4  1  0
  1  5  1  0
  2  6  1  0
  4  7  2  0
  4  8  1  0
  5  9  2  0
  5 10  1  0
  3 11  1  0
  3 12  2  0
  6 13  2  0
  6 14  1  0
  7 15  1  0
  8 16  2  0
 10 17  2  0
  9 18  1  0
 17 18  1  0
 11 19  1  0
 17 20  1  0
 14 21  2  0
 13 22  1  0
 15 23  2  0
 16 23  1  0
 19 24  1  6
 23 25  1  0
 19 26  1  0
 20 27  1  0
 21 28  1  0
 22 28  2  0
 24 29  1  0
 25 30  1  0
 25 31  1  0
 25 32  1  0
 26 33  1  0
 27 34  2  0
 27 35  1  0
 29 36  1  0
 33 37  1  0
 35 38  1  0
 35 39  1  0
 36 40  1  0
 38 41  1  0
 39 42  1  0
 41 43  1  0
 42 43  1  0
 43 44  1  0
 44 45  2  0
 44 46  2  0
 44 47  1  0
 47 48  2  0
 47 49  1  0
 48 50  1  0
 49 51  2  0
 50 52  2  0
 51 52  1  0
 52 53  1  0
M  END
