x1311-x0104
     RDKit          3D

 37 40  0  0  0  0  0  0  0  0999 V2000
    5.8480   -4.0980   19.7300 O   0  0  0  0  0  0  0  0  0  0  0  0
    6.7060   -3.9380   20.6070 C   0  0  0  0  0  0  0  0  0  0  0  0
    8.2660   -3.7820   20.4070 C   0  0  0  0  0  0  0  0  0  0  0  0
    6.2200   -3.8640   21.9460 N   0  0  0  0  0  0  0  0  0  0  0  0
    7.1180   -3.0650   22.7980 C   0  0  1  0  0  0  0  0  0  0  0  0
    5.2700   -4.7690   22.5070 C   0  0  1  0  0  0  0  0  0  0  0  0
    6.8010   -1.7780   23.3130 C   0  0  0  0  0  0  0  0  0  0  0  0
    7.7620   -3.9180   23.5830 C   0  0  0  0  0  0  0  0  0  0  0  0
    5.6420   -6.2540   22.4320 C   0  0  0  0  0  0  0  0  0  0  0  0
    4.8460   -4.5790   23.8510 C   0  0  0  0  0  0  0  0  0  0  0  0
    7.8940   -0.8820   23.1130 C   0  0  0  0  0  0  0  0  0  0  0  0
    8.0890   -3.7310   24.9310 C   0  0  0  0  0  0  0  0  0  0  0  0
    8.2360   -5.2680   22.9950 C   0  0  0  0  0  0  0  0  0  0  0  0
    4.0200   -6.0360   24.3620 S   0  0  0  0  0  0  0  0  0  0  0  0
    4.9980   -6.9870   23.4330 C   0  0  0  0  0  0  0  0  0  0  0  0
    4.3230   -6.2460   25.7590 O   0  0  0  0  0  0  0  0  0  0  0  0
    2.6460   -5.9350   23.9090 O   0  0  0  0  0  0  0  0  0  0  0  0
    9.0860   -1.2670   23.7560 C   0  0  0  0  0  0  0  0  0  0  0  0
    8.9400   -6.2310   23.6890 C   0  0  0  0  0  0  0  0  0  0  0  0
    8.8430   -4.7340   25.7470 C   0  0  0  0  0  0  0  0  0  0  0  0
    9.3150   -6.0240   25.1640 C   0  0  0  0  0  0  0  0  0  0  0  0
   10.4650   -0.7340   23.3980 C   0  0  0  0  0  0  0  0  0  0  0  0
   10.9880    0.4970   24.0690 C   0  0  2  0  0  0  0  0  0  0  0  0
   11.3090   -1.4070   22.5080 C   0  0  0  0  0  0  0  0  0  0  0  0
   10.0380    1.4220   24.4050 N   0  0  0  0  0  0  0  0  0  0  0  0
   12.0870    1.1170   23.2100 C   0  0  0  0  0  0  0  0  0  0  0  0
   12.6160   -0.9610   22.2760 C   0  0  0  0  0  0  0  0  0  0  0  0
   13.4530   -1.8110   21.6910 F   0  0  0  0  0  0  0  0  0  0  0  0
   11.9300    2.4390   23.1340 C   0  0  0  0  0  0  0  0  0  0  0  0
   10.6220    2.4700   23.9050 C   0  0  0  0  0  0  0  0  0  0  0  0
   13.0570    0.3100   22.6450 C   0  0  0  0  0  0  0  0  0  0  0  0
   12.6620    3.5770   22.4990 C   0  0  0  0  0  0  0  0  0  0  0  0
   12.4610    4.9660   23.1330 C   0  0  0  0  0  0  0  0  0  0  0  0
   11.3270    5.7170   22.5420 N   0  0  0  0  0  0  0  0  0  0  0  0
   10.2210    6.1630   23.3760 C   0  0  0  0  0  0  0  0  0  0  0  0
    8.9260    6.5190   22.6350 C   0  0  0  0  0  0  0  0  0  0  0  0
   10.2730    6.2730   24.6150 O   0  0  0  0  0  0  0  0  0  0  0  0
  1  2  2  0
  2  3  1  0
  2  4  1  0
  4  5  1  0
  6  4  1  1
  5  7  1  1
  5  8  1  0
  6  9  1  0
  6 10  1  0
  7 11  1  0
  8 12  2  0
  8 13  1  0
 10 14  1  0
  9 15  2  0
 14 15  1  0
 14 16  1  0
 14 17  1  0
 11 18  1  0
 13 19  2  0
 12 20  1  0
 19 21  1  0
 20 21  2  0
 18 22  1  0
 22 23  1  0
 22 24  2  0
 23 25  1  6
 23 26  1  0
 24 27  1  0
 27 28  1  0
 26 29  2  0
 25 30  2  0
 29 30  1  0
 26 31  1  0
 27 31  2  0
 29 32  1  0
 32 33  1  0
 33 34  1  0
 34 35  1  0
 35 36  1  0
 35 37  2  0
M  END
