x1311-x3117
     RDKit          3D

 46 50  0  0  0  0  0  0  0  0999 V2000
    7.0920   -1.0700   21.9450 N   0  0  0  0  0  0  0  0  0  0  0  0
    6.8500    0.4070   21.8220 C   0  0  1  0  0  0  0  0  0  0  0  0
    8.0740    1.3420   22.0390 C   0  0  0  0  0  0  0  0  0  0  0  0
    5.8630   -1.9390   21.9560 C   0  0  0  0  0  0  0  0  0  0  0  0
    8.3520   -1.2880   22.5920 C   0  0  0  0  0  0  0  0  0  0  0  0
    5.6400   -3.0670   22.7540 C   0  0  0  0  0  0  0  0  0  0  0  0
    6.2220    0.6650   20.4710 C   0  0  0  0  0  0  0  0  0  0  0  0
    9.4710   -1.8990   21.7960 C   0  0  0  0  0  0  0  0  0  0  0  0
    8.6560   -0.9650   23.8970 C   0  0  0  0  0  0  0  0  0  0  0  0
    8.0860    1.9010   23.3010 N   0  0  0  0  0  0  0  0  0  0  0  0
    8.9250    1.6140   21.1850 O   0  0  0  0  0  0  0  0  0  0  0  0
    6.3270   -4.4450   22.3120 C   0  0  1  0  0  0  0  0  0  0  0  0
    5.1030    1.4770   20.3450 C   0  0  0  0  0  0  0  0  0  0  0  0
    6.8250    0.0430   19.1880 C   0  0  0  0  0  0  0  0  0  0  0  0
   10.7310   -2.1070   22.3350 C   0  0  0  0  0  0  0  0  0  0  0  0
    9.9040   -1.1560   24.4780 C   0  0  0  0  0  0  0  0  0  0  0  0
    6.3940   -4.3740   20.7230 C   0  0  0  0  0  0  0  0  0  0  0  0
    6.2560    0.3020   17.8510 N   0  0  0  0  0  0  0  0  0  0  0  0
    4.4830    1.7690   19.0070 C   0  0  0  0  0  0  0  0  0  0  0  0
    8.7420    3.1210   23.5910 C   0  0  0  0  0  0  0  0  0  0  0  0
   11.0100   -1.7070   23.7870 C   0  0  0  0  0  0  0  0  0  0  0  0
    7.5740   -4.6370   23.1600 C   0  0  0  0  0  0  0  0  0  0  0  0
    5.4790   -5.6180   22.9940 C   0  0  2  0  0  0  0  0  0  0  0  0
   12.3740   -1.8740   24.3940 C   0  0  0  0  0  0  0  0  0  0  0  0
    5.5750   -5.0140   20.0600 O   0  0  0  0  0  0  0  0  0  0  0  0
    7.3390   -3.4670   19.8990 C   0  0  0  0  0  0  0  0  0  0  0  0
    5.0900    1.1680   17.7660 C   0  0  0  0  0  0  0  0  0  0  0  0
   10.2580    3.0740   23.6390 C   0  0  0  0  0  0  0  0  0  0  0  0
    8.2490    4.2340   22.9040 C   0  0  0  0  0  0  0  0  0  0  0  0
    8.2770   -5.8560   23.1500 C   0  0  0  0  0  0  0  0  0  0  0  0
    8.0160   -3.6300   23.9830 C   0  0  0  0  0  0  0  0  0  0  0  0
    4.6540   -6.3290   22.1800 C   0  0  0  0  0  0  0  0  0  0  0  0
    4.6960   -5.2060   24.2760 C   0  0  0  0  0  0  0  0  0  0  0  0
   12.6330   -0.6310   25.2100 C   0  0  0  0  0  0  0  0  0  0  0  0
   13.4040   -1.9000   23.2650 C   0  0  0  0  0  0  0  0  0  0  0  0
   12.6980   -3.0800   25.2860 C   0  0  0  0  0  0  0  0  0  0  0  0
   10.8530    4.4970   23.7430 C   0  0  0  0  0  0  0  0  0  0  0  0
    8.8730    5.5630   23.2420 C   0  0  0  0  0  0  0  0  0  0  0  0
    9.3680   -6.0260   23.9570 C   0  0  0  0  0  0  0  0  0  0  0  0
    9.2200   -3.8650   24.8320 C   0  0  0  0  0  0  0  0  0  0  0  0
    3.5510   -6.5310   24.4260 S   0  0  0  0  0  0  0  0  0  0  0  0
    3.5470   -6.8940   22.7200 C   0  0  0  0  0  0  0  0  0  0  0  0
    4.1930   -7.6570   25.0780 O   0  0  0  0  0  0  0  0  0  0  0  0
    2.2100   -6.1210   24.7720 O   0  0  0  0  0  0  0  0  0  0  0  0
    9.8250    5.3730   24.1990 O   0  0  0  0  0  0  0  0  0  0  0  0
    9.8770   -5.0690   24.8110 C   0  0  0  0  0  0  0  0  0  0  0  0
  1  2  1  0
  2  3  1  6
  1  4  1  0
  1  5  1  0
  4  6  1  0
  2  7  1  0
  5  8  2  0
  5  9  1  0
  3 10  1  0
  3 11  2  0
 12  6  1  1
  7 13  2  0
  7 14  1  0
  8 15  1  0
  9 16  2  0
 12 17  1  0
 14 18  2  0
 13 19  1  0
 10 20  1  0
 15 21  2  0
 16 21  1  0
 12 22  1  0
 12 23  1  0
 21 24  1  0
 17 25  2  0
 17 26  1  0
 18 27  1  0
 19 27  2  0
 20 28  1  0
 20 29  1  0
 22 30  2  0
 22 31  1  0
 23 32  1  6
 23 33  1  0
 24 34  1  0
 24 35  1  0
 24 36  1  0
 28 37  1  0
 29 38  1  0
 30 39  1  0
 31 40  2  0
 33 41  1  0
 32 42  2  0
 41 42  1  0
 41 43  1  0
 41 44  1  0
 37 45  1  0
 38 45  1  0
 39 46  2  0
 40 46  1  0
M  END
