x1311-x3115-x0426
     RDKit          3D

 56 60  0  0  0  0  0  0  0  0999 V2000
    6.9250   -1.4040   22.1610 N   0  0  0  0  0  0  0  0  0  0  0  0
    6.6010   -0.1160   21.7970 C   0  0  1  0  0  0  0  0  0  0  0  0
    7.7540    0.8570   21.9540 C   0  0  0  0  0  0  0  0  0  0  0  0
    5.8330   -1.9620   23.0080 C   0  0  0  0  0  0  0  0  0  0  0  0
    8.3220   -1.5410   22.6590 C   0  0  0  0  0  0  0  0  0  0  0  0
    5.3130   -3.3210   22.4920 C   0  0  0  0  0  0  0  0  0  0  0  0
    6.1230    0.2620   20.3600 C   0  0  0  0  0  0  0  0  0  0  0  0
    9.3900   -1.7410   21.7990 C   0  0  0  0  0  0  0  0  0  0  0  0
    8.6360   -1.4720   23.9980 C   0  0  0  0  0  0  0  0  0  0  0  0
    7.4700    1.9360   22.8830 N   0  0  0  0  0  0  0  0  0  0  0  0
    8.8140    0.7760   21.3400 O   0  0  0  0  0  0  0  0  0  0  0  0
    6.2430   -4.5070   22.4380 C   0  0  1  0  0  0  0  0  0  0  0  0
    4.8810    0.8820   20.2550 C   0  0  0  0  0  0  0  0  0  0  0  0
    6.8960    0.0270   19.1800 C   0  0  0  0  0  0  0  0  0  0  0  0
   10.7570   -1.8720   22.2370 C   0  0  0  0  0  0  0  0  0  0  0  0
    9.9020   -1.5890   24.4290 C   0  0  0  0  0  0  0  0  0  0  0  0
    8.1270    3.1870   23.1570 C   0  0  0  0  0  0  0  0  0  0  0  0
    3.9050    1.1820   21.3690 C   0  0  0  0  0  0  0  0  0  0  0  0
    6.7130   -4.5180   20.9310 C   0  0  0  0  0  0  0  0  0  0  0  0
    6.4160    0.4680   17.8600 N   0  0  0  0  0  0  0  0  0  0  0  0
    4.4400    1.3140   18.9050 C   0  0  0  0  0  0  0  0  0  0  0  0
   11.0260   -1.7880   23.6110 C   0  0  0  0  0  0  0  0  0  0  0  0
    7.3820   -4.5620   23.4610 C   0  0  0  0  0  0  0  0  0  0  0  0
    5.5110   -5.7980   22.9590 C   0  0  2  0  0  0  0  0  0  0  0  0
    7.7360    4.4520   22.4290 C   0  0  0  0  0  0  0  0  0  0  0  0
   12.3510   -1.8680   24.2890 C   0  0  0  0  0  0  0  0  0  0  0  0
    4.3330    2.1020   22.3300 C   0  0  0  0  0  0  0  0  0  0  0  0
    5.8600   -4.6240   20.0110 O   0  0  0  0  0  0  0  0  0  0  0  0
    8.2450   -4.3610   20.7570 C   0  0  0  0  0  0  0  0  0  0  0  0
    5.1410    1.1460   17.7600 C   0  0  0  0  0  0  0  0  0  0  0  0
    8.3330   -5.5670   23.2780 C   0  0  0  0  0  0  0  0  0  0  0  0
    7.5190   -3.7310   24.5550 C   0  0  0  0  0  0  0  0  0  0  0  0
    4.6110   -6.3730   22.1770 C   0  0  0  0  0  0  0  0  0  0  0  0
    4.9430   -5.6160   24.3420 C   0  0  0  0  0  0  0  0  0  0  0  0
    8.4200    5.3680   22.9230 O   0  0  0  0  0  0  0  0  0  0  0  0
   13.4060   -1.9000   23.3550 C   0  0  0  0  0  0  0  0  0  0  0  0
   12.5680   -2.9460   25.1170 C   0  0  0  0  0  0  0  0  0  0  0  0
   12.5710   -0.6060   25.0370 C   0  0  0  0  0  0  0  0  0  0  0  0
    3.3110    2.7220   23.2260 N   0  0  0  0  0  0  0  0  0  0  0  0
    9.5160   -5.8010   24.2060 C   0  0  0  0  0  0  0  0  0  0  0  0
    8.6660   -3.8800   25.5420 C   0  0  0  0  0  0  0  0  0  0  0  0
    3.6000   -6.7070   24.4740 S   0  0  0  0  0  0  0  0  0  0  0  0
    3.5120   -6.9130   22.7490 C   0  0  0  0  0  0  0  0  0  0  0  0
    8.3500    6.5600   22.1440 C   0  0  0  0  0  0  0  0  0  0  0  0
    2.2480    1.9150   23.8450 C   0  0  0  0  0  0  0  0  0  0  0  0
    4.0370   -7.9010   25.1540 O   0  0  0  0  0  0  0  0  0  0  0  0
    2.4280   -5.9720   24.8620 O   0  0  0  0  0  0  0  0  0  0  0  0
    9.6840   -4.9800   25.3090 C   0  0  0  0  0  0  0  0  0  0  0  0
    2.1990    0.4820   23.7710 O   0  0  0  0  0  0  0  0  0  0  0  0
    1.1930    2.6580   24.5770 C   0  0  0  0  0  0  0  0  0  0  0  0
    1.4510    3.8510   25.2670 C   0  0  0  0  0  0  0  0  0  0  0  0
   -0.1160    2.1370   24.5720 C   0  0  0  0  0  0  0  0  0  0  0  0
    2.6990    4.3550   25.2780 F   0  0  0  0  0  0  0  0  0  0  0  0
   -1.1410    2.8100   25.2510 C   0  0  0  0  0  0  0  0  0  0  0  0
    0.4490    4.5180   25.9360 C   0  0  0  0  0  0  0  0  0  0  0  0
   -0.8490    3.9990   25.9290 C   0  0  0  0  0  0  0  0  0  0  0  0
  1  2  1  0
  2  3  1  6
  1  4  1  0
  1  5  1  0
  4  6  1  0
  2  7  1  0
  5  8  2  0
  5  9  1  0
  3 10  1  0
  3 11  2  0
 12  6  1  1
  7 13  1  0
  7 14  2  0
  8 15  1  0
  9 16  2  0
 10 17  1  0
 13 18  1  0
 12 19  1  0
 14 20  1  0
 13 21  2  0
 15 22  2  0
 16 22  1  0
 12 23  1  0
 12 24  1  0
 17 25  1  0
 22 26  1  0
 18 27  1  0
 19 28  2  0
 19 29  1  0
 20 30  2  0
 21 30  1  0
 23 31  2  0
 23 32  1  0
 24 33  1  6
 24 34  1  0
 25 35  1  0
 26 36  1  0
 26 37  1  0
 26 38  1  0
 27 39  1  0
 31 40  1  0
 32 41  2  0
 34 42  1  0
 33 43  2  0
 42 43  1  0
 35 44  1  0
 39 45  1  0
 42 46  1  0
 42 47  1  0
 40 48  2  0
 41 48  1  0
 45 49  2  0
 45 50  1  0
 50 51  2  0
 50 52  1  0
 51 53  1  0
 52 54  2  0
 51 55  1  0
 54 56  1  0
 55 56  2  0
M  END
