x1311-x2572
     RDKit          3D

 39 42  0  0  0  0  0  0  0  0999 V2000
    5.8460   -4.5990   20.0190 O   0  0  0  0  0  0  0  0  0  0  0  0
    6.6830   -4.3540   20.9440 C   0  0  0  0  0  0  0  0  0  0  0  0
    8.1920   -4.0650   20.7040 C   0  0  0  0  0  0  0  0  0  0  0  0
    6.2920   -4.2730   22.4870 C   0  0  2  0  0  0  0  0  0  0  0  0
    6.1160   -2.7770   22.7660 C   0  0  0  0  0  0  0  0  0  0  0  0
    7.3940   -4.7150   23.3820 C   0  0  0  0  0  0  0  0  0  0  0  0
    5.0300   -4.9710   22.9420 C   0  0  1  0  0  0  0  0  0  0  0  0
    5.7620   -2.0210   21.6850 C   0  0  0  0  0  0  0  0  0  0  0  0
    8.1680   -5.8230   23.0780 C   0  0  0  0  0  0  0  0  0  0  0  0
    7.6200   -3.9810   24.5460 C   0  0  0  0  0  0  0  0  0  0  0  0
    4.5730   -6.1510   22.1510 C   0  0  0  0  0  0  0  0  0  0  0  0
    4.9910   -5.3560   24.2910 C   0  0  0  0  0  0  0  0  0  0  0  0
    5.7560   -0.7180   22.1140 C   0  0  0  0  0  0  0  0  0  0  0  0
    9.2940   -6.2430   24.0420 C   0  0  0  0  0  0  0  0  0  0  0  0
    8.5780   -4.2350   25.4840 C   0  0  0  0  0  0  0  0  0  0  0  0
    3.5800   -6.3750   24.4230 S   0  0  0  0  0  0  0  0  0  0  0  0
    3.6500   -6.9420   22.8810 C   0  0  0  0  0  0  0  0  0  0  0  0
    3.9780   -7.4740   25.2970 O   0  0  0  0  0  0  0  0  0  0  0  0
    2.4280   -5.5490   24.6950 O   0  0  0  0  0  0  0  0  0  0  0  0
    6.7890   -0.0190   21.3050 N   0  0  0  0  0  0  0  0  0  0  0  0
    9.4980   -5.4090   25.2870 C   0  0  0  0  0  0  0  0  0  0  0  0
    8.1300    0.3130   21.7930 C   0  0  0  0  0  0  0  0  0  0  0  0
    6.2980    0.4840   20.0370 C   0  0  0  0  0  0  0  0  0  0  0  0
    8.8600    1.2390   21.3560 O   0  0  0  0  0  0  0  0  0  0  0  0
    8.5620   -0.5300   22.8210 C   0  0  0  0  0  0  0  0  0  0  0  0
    6.7440    0.0680   18.8060 C   0  0  0  0  0  0  0  0  0  0  0  0
    5.2980    1.4570   20.2400 C   0  0  0  0  0  0  0  0  0  0  0  0
    4.8250    1.9100   21.5940 C   0  0  0  0  0  0  0  0  0  0  0  0
    6.2450    0.5790   17.5600 N   0  0  0  0  0  0  0  0  0  0  0  0
    4.6670    2.0900   19.0140 C   0  0  0  0  0  0  0  0  0  0  0  0
   10.0100   -0.2980   23.0050 C   0  0  0  0  0  0  0  0  0  0  0  0
    5.2200    1.5770   17.6720 C   0  0  0  0  0  0  0  0  0  0  0  0
   10.4830    0.6290   23.9490 C   0  0  0  0  0  0  0  0  0  0  0  0
   10.8970   -0.9980   22.2140 C   0  0  0  0  0  0  0  0  0  0  0  0
   11.8390    0.8150   24.0400 C   0  0  0  0  0  0  0  0  0  0  0  0
   12.2390   -0.7650   22.3550 C   0  0  0  0  0  0  0  0  0  0  0  0
   13.1010   -1.4200   21.5580 C   0  0  0  0  0  0  0  0  0  0  0  0
   12.6780    0.1270   23.2560 C   0  0  0  0  0  0  0  0  0  0  0  0
   13.8950   -1.9120   20.5540 N   0  0  0  0  0  0  0  0  0  0  0  0
  1  2  2  0
  2  3  1  0
  4  2  1  0
  4  5  1  1
  4  6  1  0
  4  7  1  0
  5  8  1  0
  6  9  2  0
  6 10  1  0
  7 11  1  6
  7 12  1  0
  8 13  1  0
  9 14  1  0
 10 15  2  0
 12 16  1  0
 11 17  2  0
 16 17  1  0
 16 18  1  0
 16 19  1  0
 13 20  1  0
 14 21  2  0
 15 21  1  0
 20 22  1  0
 20 23  1  0
 22 24  2  0
 22 25  1  0
 23 26  2  0
 23 27  1  0
 27 28  1  0
 26 29  1  0
 27 30  2  0
 25 31  1  0
 29 32  2  0
 30 32  1  0
 31 33  2  0
 31 34  1  0
 33 35  1  0
 34 36  2  0
 36 37  1  0
 35 38  2  0
 36 38  1  0
 37 39  3  0
M  END
