x1311-x2964
     RDKit          3D

 38 41  0  0  0  0  0  0  0  0999 V2000
    5.7860   -4.5390   19.9730 O   0  0  0  0  0  0  0  0  0  0  0  0
    6.6210   -4.2950   20.8720 C   0  0  0  0  0  0  0  0  0  0  0  0
    8.1230   -3.9500   20.6030 C   0  0  0  0  0  0  0  0  0  0  0  0
    6.1980   -4.2840   22.3980 C   0  0  2  0  0  0  0  0  0  0  0  0
    5.5880   -2.8750   22.6000 C   0  0  0  0  0  0  0  0  0  0  0  0
    7.2780   -4.6370   23.4000 C   0  0  0  0  0  0  0  0  0  0  0  0
    5.0880   -5.0700   22.8430 C   0  0  1  0  0  0  0  0  0  0  0  0
    6.5190   -1.8680   22.7330 C   0  0  0  0  0  0  0  0  0  0  0  0
    8.1790   -5.7020   23.1250 C   0  0  0  0  0  0  0  0  0  0  0  0
    7.3730   -3.8350   24.7160 C   0  0  0  0  0  0  0  0  0  0  0  0
    4.5650   -6.1690   22.2160 C   0  0  0  0  0  0  0  0  0  0  0  0
    4.9080   -5.4100   24.3440 C   0  0  0  0  0  0  0  0  0  0  0  0
    6.1250   -0.6220   22.2880 C   0  0  0  0  0  0  0  0  0  0  0  0
    9.1570   -6.0040   24.0800 C   0  0  0  0  0  0  0  0  0  0  0  0
    8.4460   -4.2010   25.7080 C   0  0  0  0  0  0  0  0  0  0  0  0
    3.6080   -6.4780   24.4760 S   0  0  0  0  0  0  0  0  0  0  0  0
    3.7080   -6.9520   22.9150 C   0  0  0  0  0  0  0  0  0  0  0  0
    3.9890   -7.6340   25.2720 O   0  0  0  0  0  0  0  0  0  0  0  0
    2.3670   -5.7640   24.6660 O   0  0  0  0  0  0  0  0  0  0  0  0
    6.9890   -0.1440   21.2330 N   0  0  0  0  0  0  0  0  0  0  0  0
    9.3370   -5.3580   25.2830 C   0  0  0  0  0  0  0  0  0  0  0  0
    8.2200    0.5280   21.5570 C   0  0  0  0  0  0  0  0  0  0  0  0
    6.3610    0.3120   20.0940 C   0  0  0  0  0  0  0  0  0  0  0  0
    8.6740    1.5820   21.0570 O   0  0  0  0  0  0  0  0  0  0  0  0
    8.9040   -0.1890   22.5510 N   0  0  0  0  0  0  0  0  0  0  0  0
    5.2040    0.9820   20.2540 C   0  0  0  0  0  0  0  0  0  0  0  0
    6.9520    0.0770   18.7520 C   0  0  0  0  0  0  0  0  0  0  0  0
    4.3880    1.5700   19.1280 C   0  0  0  0  0  0  0  0  0  0  0  0
    6.3560    0.5520   17.6580 N   0  0  0  0  0  0  0  0  0  0  0  0
   10.2920    0.0400   22.6310 C   0  0  0  0  0  0  0  0  0  0  0  0
    3.1860    2.2610   19.2190 N   0  0  0  0  0  0  0  0  0  0  0  0
    5.1120    1.2830   17.8240 C   0  0  0  0  0  0  0  0  0  0  0  0
   10.7320    1.2460   23.0840 C   0  0  0  0  0  0  0  0  0  0  0  0
   11.1500   -0.9110   22.2380 C   0  0  0  0  0  0  0  0  0  0  0  0
   12.1830    1.6270   23.1970 C   0  0  0  0  0  0  0  0  0  0  0  0
   12.4940   -0.6780   22.2840 C   0  0  0  0  0  0  0  0  0  0  0  0
   13.3850   -1.9260   21.7210 Cl  0  0  0  0  0  0  0  0  0  0  0  0
   13.1150    0.4930   22.7310 C   0  0  0  0  0  0  0  0  0  0  0  0
  1  2  2  0
  2  3  1  0
  4  2  1  0
  4  5  1  1
  4  6  1  0
  4  7  1  0
  5  8  1  0
  6  9  2  0
  6 10  1  0
  7 11  1  6
  7 12  1  0
  8 13  1  0
  9 14  1  0
 10 15  2  0
 12 16  1  0
 11 17  2  0
 16 17  1  0
 16 18  1  0
 16 19  1  0
 13 20  1  0
 14 21  2  0
 15 21  1  0
 20 22  1  0
 20 23  1  0
 22 24  2  0
 22 25  1  0
 23 26  2  0
 23 27  1  0
 26 28  1  0
 27 29  2  0
 25 30  1  0
 28 31  1  0
 28 32  2  0
 29 32  1  0
 30 33  2  0
 30 34  1  0
 33 35  1  0
 34 36  2  0
 36 37  1  0
 35 38  2  0
 36 38  1  0
M  END
