x1311-x0354
     RDKit          3D

 36 39  0  0  0  0  0  0  0  0999 V2000
    5.4980   -4.7160   20.0270 O   0  0  0  0  0  0  0  0  0  0  0  0
    6.5250   -4.6340   20.7350 C   0  0  0  0  0  0  0  0  0  0  0  0
    7.6420   -3.6700   20.2760 C   0  0  0  0  0  0  0  0  0  0  0  0
    6.7030   -5.4510   21.9310 N   0  0  0  0  0  0  0  0  0  0  0  0
    7.5320   -5.1210   22.9220 C   0  0  0  0  0  0  0  0  0  0  0  0
    5.6440   -6.0860   22.7220 C   0  0  2  0  0  0  0  0  0  0  0  0
    8.5670   -5.9660   23.2650 C   0  0  0  0  0  0  0  0  0  0  0  0
    7.3030   -3.8740   23.6720 C   0  0  0  0  0  0  0  0  0  0  0  0
    4.6260   -6.5160   22.0450 C   0  0  0  0  0  0  0  0  0  0  0  0
    5.0330   -5.4600   23.9690 C   0  0  0  0  0  0  0  0  0  0  0  0
    9.4240   -5.7010   24.3060 C   0  0  0  0  0  0  0  0  0  0  0  0
    8.2150   -3.5900   24.7910 C   0  0  0  0  0  0  0  0  0  0  0  0
    3.7360   -6.5410   24.4030 S   0  0  0  0  0  0  0  0  0  0  0  0
    3.4950   -6.8170   22.6980 C   0  0  0  0  0  0  0  0  0  0  0  0
    4.2790   -7.7440   24.9970 O   0  0  0  0  0  0  0  0  0  0  0  0
    2.5980   -5.8560   24.9910 O   0  0  0  0  0  0  0  0  0  0  0  0
    7.7720   -2.2690   25.4130 C   0  0  0  0  0  0  0  0  0  0  0  0
    9.3490   -4.5900   25.1120 C   0  0  0  0  0  0  0  0  0  0  0  0
    8.5560   -1.1230   25.3730 C   0  0  0  0  0  0  0  0  0  0  0  0
    6.3840   -2.2270   26.0670 C   0  0  0  0  0  0  0  0  0  0  0  0
    8.0930    0.0860   25.9590 C   0  0  0  0  0  0  0  0  0  0  0  0
    9.8800   -1.2500   24.6970 N   0  0  0  0  0  0  0  0  0  0  0  0
    7.1370   -0.0990   26.7560 O   0  0  0  0  0  0  0  0  0  0  0  0
   10.6870   -2.4810   24.4480 C   0  0  0  0  0  0  0  0  0  0  0  0
   10.7960   -0.2300   25.1300 C   0  0  0  0  0  0  0  0  0  0  0  0
   11.8190   -2.3520   23.7260 C   0  0  0  0  0  0  0  0  0  0  0  0
   12.1170   -0.1850   24.3860 C   0  0  0  0  0  0  0  0  0  0  0  0
    6.8720    0.7770   27.7870 C   0  0  0  0  0  0  0  0  0  0  0  0
   12.0900   -1.1280   23.2860 N   0  0  0  0  0  0  0  0  0  0  0  0
    7.5930    1.9590   27.9790 C   0  0  0  0  0  0  0  0  0  0  0  0
    5.8500    0.5310   28.7120 C   0  0  0  0  0  0  0  0  0  0  0  0
   13.1700   -1.1800   22.3010 C   0  0  0  0  0  0  0  0  0  0  0  0
    7.3460    2.9810   29.0990 C   0  0  0  0  0  0  0  0  0  0  0  0
    5.5220    1.3720   29.7660 C   0  0  0  0  0  0  0  0  0  0  0  0
    6.1700    2.5700   30.0420 C   0  0  0  0  0  0  0  0  0  0  0  0
    5.7690    3.4640   31.2070 C   0  0  0  0  0  0  0  0  0  0  0  0
  1  2  2  0
  2  3  1  0
  2  4  1  0
  4  5  1  0
  6  4  1  6
  5  7  2  0
  5  8  1  0
  6  9  1  0
  6 10  1  0
  7 11  1  0
  8 12  2  0
 10 13  1  0
  9 14  2  0
 13 14  1  0
 13 15  1  0
 13 16  1  0
 12 17  1  0
 11 18  2  0
 12 18  1  0
 17 19  2  3
 17 20  1  0
 19 21  1  0
 19 22  1  0
 21 23  1  0
 22 24  1  0
 22 25  1  0
 24 26  1  0
 25 27  1  0
 23 28  1  0
 26 29  1  0
 27 29  1  0
 28 30  2  0
 28 31  1  0
 29 32  1  0
 30 33  1  0
 31 34  2  0
 33 35  2  0
 34 35  1  0
 35 36  1  0
M  END
