x1311-x2703
     RDKit          3D

 48 52  0  0  0  0  0  0  0  0999 V2000
    7.2730   -1.2570   21.8500 N   0  0  0  0  0  0  0  0  0  0  0  0
    6.7440    0.1300   21.6110 C   0  0  1  0  0  0  0  0  0  0  0  0
    7.8090    1.2440   21.7960 C   0  0  0  0  0  0  0  0  0  0  0  0
    6.3750   -2.4110   21.6590 C   0  0  0  0  0  0  0  0  0  0  0  0
    8.5470   -1.4310   22.5930 C   0  0  0  0  0  0  0  0  0  0  0  0
    5.4100   -2.8210   22.7450 C   0  0  0  0  0  0  0  0  0  0  0  0
    6.2000    0.4260   20.2560 C   0  0  0  0  0  0  0  0  0  0  0  0
    8.8180   -1.5230   23.9340 C   0  0  0  0  0  0  0  0  0  0  0  0
    9.6260   -1.5080   21.7780 C   0  0  0  0  0  0  0  0  0  0  0  0
    7.4590    2.1790   22.7350 N   0  0  0  0  0  0  0  0  0  0  0  0
    8.8570    1.3460   21.1520 O   0  0  0  0  0  0  0  0  0  0  0  0
    6.0650   -4.2260   22.2690 C   0  0  1  0  0  0  0  0  0  0  0  0
    5.0420    1.1850   20.1670 C   0  0  0  0  0  0  0  0  0  0  0  0
    6.8300   -0.0110   19.1090 C   0  0  0  0  0  0  0  0  0  0  0  0
   11.0160   -1.6750   22.2190 N   0  0  0  0  0  0  0  0  0  0  0  0
   10.0960   -1.6830   24.4460 C   0  0  0  0  0  0  0  0  0  0  0  0
    6.5800   -4.3000   20.8610 C   0  0  0  0  0  0  0  0  0  0  0  0
    6.2830    0.3480   17.8130 N   0  0  0  0  0  0  0  0  0  0  0  0
    4.5360    1.5140   18.9350 C   0  0  0  0  0  0  0  0  0  0  0  0
   11.2070   -1.7620   23.6610 C   0  0  0  0  0  0  0  0  0  0  0  0
    8.1740    3.3660   22.8730 C   0  0  0  0  0  0  0  0  0  0  0  0
    7.2730   -4.6410   23.1410 C   0  0  0  0  0  0  0  0  0  0  0  0
    4.9600   -5.1870   22.4380 C   0  0  1  0  0  0  0  0  0  0  0  0
   12.6250   -1.9030   24.2270 C   0  0  0  0  0  0  0  0  0  0  0  0
    5.7750   -4.3240   19.9010 O   0  0  0  0  0  0  0  0  0  0  0  0
    8.1450   -4.3460   20.7280 C   0  0  0  0  0  0  0  0  0  0  0  0
    5.1420    1.1150   17.7630 C   0  0  0  0  0  0  0  0  0  0  0  0
    9.4610    3.3570   23.4030 C   0  0  0  0  0  0  0  0  0  0  0  0
    7.5860    4.5700   22.4700 C   0  0  0  0  0  0  0  0  0  0  0  0
    7.9580   -5.8600   22.9960 C   0  0  0  0  0  0  0  0  0  0  0  0
    7.7310   -3.7920   24.1090 C   0  0  0  0  0  0  0  0  0  0  0  0
    5.3690   -6.4820   22.5590 C   0  0  0  0  0  0  0  0  0  0  0  0
    4.2280   -4.7710   23.5780 C   0  0  0  0  0  0  0  0  0  0  0  0
   10.2440    2.1480   23.8730 C   0  0  0  0  0  0  0  0  0  0  0  0
    6.1940    4.6120   21.8810 C   0  0  0  0  0  0  0  0  0  0  0  0
   12.8060   -3.0020   25.0560 C   0  0  0  0  0  0  0  0  0  0  0  0
   12.7760   -0.5980   24.9190 C   0  0  0  0  0  0  0  0  0  0  0  0
   10.2940    4.6530   23.5810 C   0  0  0  0  0  0  0  0  0  0  0  0
    8.3170    5.7630   22.6180 C   0  0  0  0  0  0  0  0  0  0  0  0
    9.1590   -6.1880   23.8890 C   0  0  0  0  0  0  0  0  0  0  0  0
    8.9070   -4.0490   25.0110 C   0  0  0  0  0  0  0  0  0  0  0  0
    3.7460   -6.2740   24.3560 S   0  0  0  0  0  0  0  0  0  0  0  0
    4.8240   -7.1900   23.5340 C   0  0  0  0  0  0  0  0  0  0  0  0
    9.3340    1.2670   24.7510 C   0  0  0  0  0  0  0  0  0  0  0  0
    4.1020   -6.3330   25.7530 O   0  0  0  0  0  0  0  0  0  0  0  0
    2.3780   -6.5790   23.9920 O   0  0  0  0  0  0  0  0  0  0  0  0
    9.6130    5.7800   23.1550 C   0  0  0  0  0  0  0  0  0  0  0  0
    9.6230   -5.2100   24.9320 C   0  0  0  0  0  0  0  0  0  0  0  0
  1  2  1  0
  2  3  1  6
  1  4  1  0
  1  5  1  0
  4  6  1  0
  2  7  1  0
  5  8  2  0
  5  9  1  0
  3 10  1  0
  3 11  2  0
 12  6  1  1
  7 13  2  0
  7 14  1  0
  9 15  2  0
  8 16  1  0
 12 17  1  0
 14 18  2  0
 13 19  1  0
 15 20  1  0
 16 20  2  0
 10 21  1  0
 12 22  1  0
 12 23  1  0
 20 24  1  0
 17 25  2  0
 17 26  1  0
 18 27  1  0
 19 27  2  0
 21 28  2  0
 21 29  1  0
 22 30  2  0
 22 31  1  0
 23 32  1  1
 23 33  1  0
 28 34  1  0
 29 35  1  0
 24 36  1  0
 24 37  1  0
 28 38  1  0
 29 39  2  0
 30 40  1  0
 31 41  2  0
 33 42  1  0
 32 43  2  0
 42 43  1  0
 34 44  1  0
 42 45  1  0
 42 46  1  0
 38 47  2  0
 39 47  1  0
 40 48  2  0
 41 48  1  0
M  END
