x1311-x1249
     RDKit          3D

 39 42  0  0  0  0  0  0  0  0999 V2000
    5.8390   -4.6040   20.0020 O   0  0  0  0  0  0  0  0  0  0  0  0
    6.6880   -4.3920   20.9040 C   0  0  0  0  0  0  0  0  0  0  0  0
    8.1830   -4.0900   20.6340 C   0  0  0  0  0  0  0  0  0  0  0  0
    6.3040   -4.3670   22.4270 C   0  0  2  0  0  0  0  0  0  0  0  0
    6.1980   -2.8570   22.6400 C   0  0  0  0  0  0  0  0  0  0  0  0
    7.4140   -4.7450   23.3410 C   0  0  0  0  0  0  0  0  0  0  0  0
    5.0360   -4.9770   22.9350 C   0  0  1  0  0  0  0  0  0  0  0  0
    5.7780   -2.1110   21.5460 C   0  0  0  0  0  0  0  0  0  0  0  0
    8.3810   -5.8160   23.1560 C   0  0  0  0  0  0  0  0  0  0  0  0
    7.4830   -3.9050   24.6040 C   0  0  0  0  0  0  0  0  0  0  0  0
    4.5520   -6.2000   22.2490 C   0  0  0  0  0  0  0  0  0  0  0  0
    4.6880   -5.2470   24.4290 C   0  0  0  0  0  0  0  0  0  0  0  0
    5.4790   -0.7930   21.8350 C   0  0  0  0  0  0  0  0  0  0  0  0
    9.3680   -6.1080   24.0830 C   0  0  0  0  0  0  0  0  0  0  0  0
    8.5630   -4.2050   25.6430 C   0  0  0  0  0  0  0  0  0  0  0  0
    3.5400   -6.5130   24.6470 S   0  0  0  0  0  0  0  0  0  0  0  0
    3.7260   -6.9540   23.0470 C   0  0  0  0  0  0  0  0  0  0  0  0
    4.0830   -7.6260   25.4010 O   0  0  0  0  0  0  0  0  0  0  0  0
    2.2170   -5.9920   24.8580 O   0  0  0  0  0  0  0  0  0  0  0  0
    9.4800   -5.3690   25.2600 C   0  0  0  0  0  0  0  0  0  0  0  0
    6.4360   -0.2420   22.8820 C   0  0  0  0  0  0  0  0  0  0  0  0
    6.1330    1.1160   23.5920 C   0  0  0  0  0  0  0  0  0  0  0  0
    7.4340    1.5140   23.9130 C   0  0  0  0  0  0  0  0  0  0  0  0
    5.4240    1.9240   22.7030 C   0  0  0  0  0  0  0  0  0  0  0  0
    5.5200    0.8530   24.8270 C   0  0  0  0  0  0  0  0  0  0  0  0
    8.0830    0.6780   24.7860 N   0  0  0  0  0  0  0  0  0  0  0  0
    7.9640    2.5290   23.4590 O   0  0  0  0  0  0  0  0  0  0  0  0
    4.0710    1.5970   22.5090 C   0  0  0  0  0  0  0  0  0  0  0  0
    4.1060    0.3560   24.5880 C   0  0  0  0  0  0  0  0  0  0  0  0
    9.3760    0.9520   25.1760 C   0  0  0  0  0  0  0  0  0  0  0  0
    3.4000    1.2560   23.7320 O   0  0  0  0  0  0  0  0  0  0  0  0
   10.3340    0.3380   24.2220 C   0  0  0  0  0  0  0  0  0  0  0  0
   11.5540    0.9760   23.9610 C   0  0  0  0  0  0  0  0  0  0  0  0
   10.0050   -0.8680   23.5950 C   0  0  0  0  0  0  0  0  0  0  0  0
   12.4120    0.3900   23.0950 C   0  0  0  0  0  0  0  0  0  0  0  0
   10.9200   -1.4140   22.7140 C   0  0  0  0  0  0  0  0  0  0  0  0
   12.1210   -0.7850   22.4710 C   0  0  0  0  0  0  0  0  0  0  0  0
   13.0940   -1.3670   21.5220 C   0  0  0  0  0  0  0  0  0  0  0  0
   13.8590   -1.7350   20.5720 N   0  0  0  0  0  0  0  0  0  0  0  0
  1  2  2  0
  2  3  1  0
  4  2  1  0
  4  5  1  1
  4  6  1  0
  4  7  1  0
  5  8  1  0
  6  9  2  0
  6 10  1  0
  7 11  1  6
  7 12  1  0
  8 13  1  0
  9 14  1  0
 10 15  2  0
 12 16  1  0
 11 17  2  0
 16 17  1  0
 16 18  1  0
 16 19  1  0
 14 20  2  0
 15 20  1  0
 13 21  1  0
 21 22  1  0
 22 23  1  0
 22 24  1  0
 22 25  1  0
 23 26  1  0
 23 27  2  0
 24 28  1  0
 25 29  1  0
 26 30  1  0
 28 31  1  0
 29 31  1  0
 30 32  1  0
 32 33  2  0
 32 34  1  0
 33 35  1  0
 34 36  2  0
 35 37  2  0
 36 37  1  0
 37 38  1  0
 38 39  3  0
M  END
