x1311
     RDKit          3D

 18 19  0  0  0  0  0  0  0  0999 V2000
    5.7400   -3.9940   20.0330 O   0  0  0  0  0  0  0  0  0  0  0  0
    6.6740   -4.2500   20.7840 C   0  0  0  0  0  0  0  0  0  0  0  0
    8.0940   -3.9500   20.3670 C   0  0  0  0  0  0  0  0  0  0  0  0
    6.4740   -4.8250   22.0160 N   0  0  0  0  0  0  0  0  0  0  0  0
    7.5190   -4.9040   23.0040 C   0  0  0  0  0  0  0  0  0  0  0  0
    8.5160   -5.8730   22.9190 C   0  0  0  0  0  0  0  0  0  0  0  0
    9.4900   -5.9530   23.9010 C   0  0  0  0  0  0  0  0  0  0  0  0
    9.4690   -5.0980   24.9810 C   0  0  0  0  0  0  0  0  0  0  0  0
    8.4720   -4.1550   25.0860 C   0  0  0  0  0  0  0  0  0  0  0  0
    7.4980   -4.0520   24.1060 C   0  0  0  0  0  0  0  0  0  0  0  0
    5.1610   -5.3670   22.3500 C   0  0  1  0  0  0  0  0  0  0  0  0
    5.0830   -6.8510   22.0450 C   0  0  0  0  0  0  0  0  0  0  0  0
    4.0620   -7.4280   22.6530 C   0  0  0  0  0  0  0  0  0  0  0  0
    3.7810   -6.6630   24.1980 S   0  0  2  0  0  0  0  0  0  0  0  0
    4.3520   -7.4540   25.2550 O   0  0  0  0  0  0  0  0  0  0  0  0
    2.4000   -6.2830   24.3270 O   0  0  0  0  0  0  0  0  0  0  0  0
    4.8010   -5.2470   23.8430 C   0  0  0  0  0  0  0  0  0  0  0  0
    8.2220   -3.5400   18.6050 R   0  0  0  0  0  0  0  0  0  0  0  0
  1  2  2  0
  2  3  1  0
  2  4  1  0
  4  5  1  0
  5  6  2  0
  6  7  1  0
  7  8  2  0
  8  9  1  0
  5 10  1  0
  9 10  2  0
 11  4  1  1
 11 12  1  0
 12 13  2  0
 14 13  1  6
 14 15  2  0
 14 16  2  0
 11 17  1  0
 14 17  1  0
  3 18  1  0
M  END
