x1311-x2912
     RDKit          3D

 40 43  0  0  0  0  0  0  0  0999 V2000
    6.9270   -0.2730   21.1600 N   0  0  0  0  0  0  0  0  0  0  0  0
    8.1420    0.2830   21.7190 C   0  0  0  0  0  0  0  0  0  0  0  0
    8.7180    1.2980   21.2670 O   0  0  0  0  0  0  0  0  0  0  0  0
    6.3750   -1.4670   21.4160 C   0  0  0  0  0  0  0  0  0  0  0  0
    6.3400    0.3580   20.0590 C   0  0  0  0  0  0  0  0  0  0  0  0
    8.6890   -0.5220   22.9270 C   0  0  2  0  0  0  0  0  0  0  0  0
    6.2600   -1.8880   22.7120 C   0  0  0  0  0  0  0  0  0  0  0  0
    5.2820    1.2110   20.3220 C   0  0  0  0  0  0  0  0  0  0  0  0
    6.8460    0.1070   18.6560 C   0  0  0  0  0  0  0  0  0  0  0  0
    7.9420   -0.3410   24.2680 C   0  0  0  0  0  0  0  0  0  0  0  0
    4.8360    1.4050   21.7360 C   0  0  0  0  0  0  0  0  0  0  0  0
    5.4080   -2.9360   22.7450 C   0  0  0  0  0  0  0  0  0  0  0  0
    6.2470    0.7600   17.4860 N   0  0  0  0  0  0  0  0  0  0  0  0
    4.6220    1.9140   19.1420 C   0  0  0  0  0  0  0  0  0  0  0  0
   10.1150   -0.2980   23.0890 C   0  0  0  0  0  0  0  0  0  0  0  0
    6.0680   -4.3130   22.3580 C   0  0  1  0  0  0  0  0  0  0  0  0
    5.1260    1.6760   17.7180 C   0  0  0  0  0  0  0  0  0  0  0  0
   10.6100    0.5990   24.0100 C   0  0  0  0  0  0  0  0  0  0  0  0
   10.9540   -0.9900   22.2750 C   0  0  0  0  0  0  0  0  0  0  0  0
    6.6040   -4.2520   20.8590 C   0  0  0  0  0  0  0  0  0  0  0  0
   11.9580    0.7700   24.0600 C   0  0  0  0  0  0  0  0  0  0  0  0
   12.2830   -0.7560   22.3890 C   0  0  0  0  0  0  0  0  0  0  0  0
    7.2430   -4.6730   23.3220 C   0  0  0  0  0  0  0  0  0  0  0  0
    4.9260   -5.3360   22.3430 C   0  0  1  0  0  0  0  0  0  0  0  0
   13.1510   -1.4220   21.5270 C   0  0  0  0  0  0  0  0  0  0  0  0
    5.7950   -4.3350   19.9070 O   0  0  0  0  0  0  0  0  0  0  0  0
    8.1410   -4.0760   20.6790 C   0  0  0  0  0  0  0  0  0  0  0  0
   12.7900    0.0840   23.2410 C   0  0  0  0  0  0  0  0  0  0  0  0
    8.0900   -5.7480   23.1050 C   0  0  0  0  0  0  0  0  0  0  0  0
    7.4710   -3.9170   24.4550 C   0  0  0  0  0  0  0  0  0  0  0  0
    5.3890   -6.5780   22.5950 C   0  0  0  0  0  0  0  0  0  0  0  0
    3.9200   -4.8600   23.4370 C   0  0  0  0  0  0  0  0  0  0  0  0
   13.9410   -1.8580   20.4830 N   0  0  0  0  0  0  0  0  0  0  0  0
    9.2210   -6.0940   24.0550 C   0  0  0  0  0  0  0  0  0  0  0  0
    8.4570   -4.0990   25.4150 C   0  0  0  0  0  0  0  0  0  0  0  0
    3.6080   -6.3660   24.2730 S   0  0  0  0  0  0  0  0  0  0  0  0
    4.8050   -7.2440   23.5760 C   0  0  0  0  0  0  0  0  0  0  0  0
    3.9630   -6.2560   25.6690 O   0  0  0  0  0  0  0  0  0  0  0  0
    2.3210   -6.8620   23.8470 O   0  0  0  0  0  0  0  0  0  0  0  0
    9.3610   -5.1600   25.2860 C   0  0  0  0  0  0  0  0  0  0  0  0
  1  2  1  0
  2  3  2  0
  1  4  1  0
  1  5  1  0
  2  6  1  0
  4  7  1  0
  5  8  2  0
  5  9  1  0
  6 10  1  1
  8 11  1  0
  7 12  1  0
  9 13  2  0
  8 14  1  0
  6 15  1  0
 16 12  1  1
 13 17  1  0
 14 17  2  0
 15 18  2  0
 15 19  1  0
 16 20  1  0
 18 21  1  0
 19 22  2  0
 16 23  1  0
 16 24  1  0
 22 25  1  0
 20 26  2  0
 20 27  1  0
 21 28  2  0
 22 28  1  0
 23 29  2  0
 23 30  1  0
 24 31  1  1
 24 32  1  0
 25 33  3  0
 29 34  1  0
 30 35  2  0
 32 36  1  0
 31 37  2  0
 36 37  1  0
 36 38  1  0
 36 39  1  0
 34 40  2  0
 35 40  1  0
M  END
