x1336-x0426
     RDKit          3D

 41 44  0  0  0  0  0  0  0  0999 V2000
    5.9170   -5.1120   29.0340 C   0  0  0  0  0  0  0  0  0  0  0  0
    7.0190   -4.7980   28.0400 C   0  0  0  0  0  0  0  0  0  0  0  0
    8.2560   -5.6330   27.8900 C   0  0  0  0  0  0  0  0  0  0  0  0
    6.7670   -3.6590   27.2750 C   0  0  0  0  0  0  0  0  0  0  0  0
    7.7230   -3.2830   26.3290 C   0  0  0  0  0  0  0  0  0  0  0  0
    9.2200   -5.2660   26.9480 C   0  0  0  0  0  0  0  0  0  0  0  0
    7.6630   -1.8890   25.2370 S   0  0  2  0  0  0  0  0  0  0  0  0
    8.9910   -4.1260   26.1750 C   0  0  0  0  0  0  0  0  0  0  0  0
    8.9070   -1.1600   25.1920 O   0  0  0  0  0  0  0  0  0  0  0  0
    6.3900   -0.8880   25.6580 N   0  0  0  0  0  0  0  0  0  0  0  0
   10.1250   -3.8600   25.2170 C   0  0  0  0  0  0  0  0  0  0  0  0
    7.3800   -2.4120   23.6740 N   0  0  0  0  0  0  0  0  0  0  0  0
    6.4990    0.4350   25.1300 C   0  0  0  0  0  0  0  0  0  0  0  0
    6.2110   -3.3010   23.4120 C   0  0  0  0  0  0  0  0  0  0  0  0
    7.7900   -1.6360   22.6400 C   0  0  0  0  0  0  0  0  0  0  0  0
    5.4030    1.0730   24.5230 C   0  0  0  0  0  0  0  0  0  0  0  0
    6.4810   -4.0700   22.3000 C   0  0  0  0  0  0  0  0  0  0  0  0
    7.9420   -2.4390   21.5410 C   0  0  0  0  0  0  0  0  0  0  0  0
    5.5240    1.4990   23.1800 C   0  0  0  0  0  0  0  0  0  0  0  0
    6.8220   -3.1330   21.2540 N   0  0  0  0  0  0  0  0  0  0  0  0
    6.4280   -3.5080   19.9530 C   0  0  0  0  0  0  0  0  0  0  0  0
    4.2140    1.2920   22.6680 C   0  0  1  0  0  0  0  0  0  0  0  0
    5.4010   -4.1630   19.7390 O   0  0  0  0  0  0  0  0  0  0  0  0
    7.3840   -3.1070   18.8270 C   0  0  0  0  0  0  0  0  0  0  0  0
    3.2920    2.2040   23.3950 N   0  0  0  0  0  0  0  0  0  0  0  0
    3.9080    1.6800   21.2030 C   0  0  0  0  0  0  0  0  0  0  0  0
    2.2150    1.6360   23.9440 C   0  0  0  0  0  0  0  0  0  0  0  0
    4.8110    1.2360   20.0780 C   0  0  0  0  0  0  0  0  0  0  0  0
    1.9950    0.4270   23.9510 O   0  0  0  0  0  0  0  0  0  0  0  0
    1.1830    2.5700   24.6430 C   0  0  0  0  0  0  0  0  0  0  0  0
    5.8220    0.2830   20.2750 C   0  0  0  0  0  0  0  0  0  0  0  0
    4.6170    1.8040   18.8210 C   0  0  0  0  0  0  0  0  0  0  0  0
    1.5140    3.8000   25.2350 C   0  0  0  0  0  0  0  0  0  0  0  0
   -0.1350    2.1090   24.6550 C   0  0  0  0  0  0  0  0  0  0  0  0
    6.6680   -0.1280   19.2520 C   0  0  0  0  0  0  0  0  0  0  0  0
    5.4100    1.4400   17.7730 C   0  0  0  0  0  0  0  0  0  0  0  0
    2.7710    4.2710   25.2370 F   0  0  0  0  0  0  0  0  0  0  0  0
   -1.1800    2.8320   25.2480 C   0  0  0  0  0  0  0  0  0  0  0  0
    0.4070    4.6240   25.8940 C   0  0  0  0  0  0  0  0  0  0  0  0
    6.4860    0.4550   17.9140 N   0  0  0  0  0  0  0  0  0  0  0  0
   -0.9750    4.0590   25.8640 C   0  0  0  0  0  0  0  0  0  0  0  0
  1  2  1  0
  2  3  2  0
  2  4  1  0
  4  5  2  0
  3  6  1  0
  7  5  1  1
  5  8  1  0
  6  8  2  0
  7  9  2  0
  7 10  2  0
  8 11  1  0
  7 12  1  0
 10 13  1  0
 12 14  1  0
 12 15  1  0
 13 16  1  0
 14 17  1  0
 15 18  1  0
 16 19  1  0
 17 20  1  0
 18 20  1  0
 20 21  1  0
 22 19  1  1
 21 23  2  0
 21 24  1  0
 22 25  1  0
 22 26  1  0
 25 27  1  0
 26 28  1  0
 27 29  2  0
 27 30  1  0
 28 31  2  0
 28 32  1  0
 30 33  2  0
 30 34  1  0
 31 35  1  0
 32 36  2  0
 33 37  1  0
 34 38  2  0
 33 39  1  0
 35 40  2  0
 36 40  1  0
 38 41  1  0
 39 41  2  0
M  END
