x1334-x2562
     RDKit          3D

 39 43  0  0  0  0  0  0  0  0999 V2000
    7.9590   -0.8210   21.2450 C   0  0  1  0  0  0  0  0  0  0  0  0
    7.9550    0.5520   21.6810 O   0  0  0  0  0  0  0  0  0  0  0  0
    9.3330   -1.2500   21.4080 N   0  0  0  0  0  0  0  0  0  0  0  0
    7.0620   -1.7640   21.9850 C   0  0  1  0  0  0  0  0  0  0  0  0
    7.4520   -0.9050   19.8090 C   0  0  0  0  0  0  0  0  0  0  0  0
   10.4770   -0.5190   21.9770 C   0  0  0  0  0  0  0  0  0  0  0  0
    6.6150   -3.0420   21.3160 N   0  0  0  0  0  0  0  0  0  0  0  0
    7.6160   -2.0450   23.1440 C   0  0  0  0  0  0  0  0  0  0  0  0
    7.3710    0.3420   19.1360 C   0  0  0  0  0  0  0  0  0  0  0  0
    6.4290   -3.3610   19.9450 C   0  0  0  0  0  0  0  0  0  0  0  0
   11.6750   -1.2780   22.0560 C   0  0  0  0  0  0  0  0  0  0  0  0
   10.6170    0.8340   22.4510 C   0  0  0  0  0  0  0  0  0  0  0  0
    8.2920   -3.1950   23.1320 N   0  0  0  0  0  0  0  0  0  0  0  0
    6.4090   -4.0670   22.2480 C   0  0  0  0  0  0  0  0  0  0  0  0
    6.1880    0.7970   19.0490 C   0  0  0  0  0  0  0  0  0  0  0  0
    7.4390   -3.0880   18.8050 C   0  0  0  0  0  0  0  0  0  0  0  0
    5.4020   -3.9850   19.6450 O   0  0  0  0  0  0  0  0  0  0  0  0
    9.3680   -3.2820   24.0530 C   0  0  0  0  0  0  0  0  0  0  0  0
   13.0090   -0.8040   22.5430 C   0  0  0  0  0  0  0  0  0  0  0  0
   11.7830    1.4600   22.9370 C   0  0  0  0  0  0  0  0  0  0  0  0
    7.5360   -4.3670   23.0050 C   0  0  0  0  0  0  0  0  0  0  0  0
    5.9570    1.3630   17.9050 N   0  0  0  0  0  0  0  0  0  0  0  0
    5.3080    0.6350   20.2450 C   0  0  0  0  0  0  0  0  0  0  0  0
   11.9370    2.7740   23.3810 O   0  0  0  0  0  0  0  0  0  0  0  0
   13.0140    0.6010   22.9720 C   0  0  0  0  0  0  0  0  0  0  0  0
    9.0900   -4.2120   25.1390 C   0  0  0  0  0  0  0  0  0  0  0  0
    4.6760    1.9430   17.8640 C   0  0  0  0  0  0  0  0  0  0  0  0
    4.0390    1.2330   20.0590 C   0  0  0  0  0  0  0  0  0  0  0  0
   12.9170    3.6400   22.7570 C   0  0  1  0  0  0  0  0  0  0  0  0
    9.7160   -5.4230   25.2970 C   0  0  0  0  0  0  0  0  0  0  0  0
    7.9250   -3.8980   26.3650 S   0  0  0  0  0  0  0  0  0  0  0  0
    3.6660    1.8850   18.9550 N   0  0  0  0  0  0  0  0  0  0  0  0
   12.2870    4.5000   21.6700 N   0  0  0  0  0  0  0  0  0  0  0  0
   13.3710    4.8030   23.3910 C   0  0  0  0  0  0  0  0  0  0  0  0
    8.2790   -5.3900   27.0840 C   0  0  0  0  0  0  0  0  0  0  0  0
    9.2540   -6.1130   26.4290 C   0  0  0  0  0  0  0  0  0  0  0  0
    7.4230   -5.8380   28.4900 Cl  0  0  0  0  0  0  0  0  0  0  0  0
   12.6740    5.7080   22.4290 C   0  0  1  0  0  0  0  0  0  0  0  0
   13.4340    6.7600   21.8740 O   0  0  0  0  0  0  0  0  0  0  0  0
  1  2  1  1
  1  3  1  0
  1  4  1  0
  1  5  1  0
  3  6  1  0
  4  7  1  0
  4  8  1  1
  5  9  1  0
  7 10  1  0
  6 11  2  0
  6 12  1  0
  8 13  1  0
  7 14  1  0
  9 15  1  0
 10 16  1  0
 10 17  2  0
 13 18  1  0
 11 19  1  0
 12 20  2  0
 13 21  1  0
 14 21  1  0
 15 22  2  0
 15 23  1  0
 20 24  1  0
 19 25  2  0
 20 25  1  0
 18 26  1  0
 22 27  1  0
 23 28  2  0
 29 24  1  1
 26 30  2  0
 26 31  1  0
 27 32  2  0
 28 32  1  0
 29 33  1  0
 29 34  1  0
 31 35  1  0
 30 36  1  0
 35 36  2  0
 35 37  1  0
 33 38  1  0
 34 38  1  0
 38 39  1  6
M  END
