x1336-x0107
     RDKit          3D

 31 33  0  0  0  0  0  0  0  0999 V2000
    6.0110   -5.1950   28.6970 C   0  0  0  0  0  0  0  0  0  0  0  0
    7.0870   -4.7160   27.7680 C   0  0  0  0  0  0  0  0  0  0  0  0
    8.3170   -5.3840   27.7370 C   0  0  0  0  0  0  0  0  0  0  0  0
    6.8680   -3.6040   26.9330 C   0  0  0  0  0  0  0  0  0  0  0  0
    7.8680   -3.1430   26.0680 C   0  0  0  0  0  0  0  0  0  0  0  0
    9.3240   -4.9410   26.8860 C   0  0  0  0  0  0  0  0  0  0  0  0
    7.4130   -1.7370   25.1210 S   0  0  0  0  0  0  0  0  0  0  0  0
    9.0880   -3.8260   26.0690 C   0  0  0  0  0  0  0  0  0  0  0  0
    8.6100   -0.9530   24.9380 O   0  0  0  0  0  0  0  0  0  0  0  0
    6.2580   -1.1730   25.7850 O   0  0  0  0  0  0  0  0  0  0  0  0
   10.1680   -3.3200   25.1690 C   0  0  0  0  0  0  0  0  0  0  0  0
    6.8610   -2.2490   23.5730 N   0  0  0  0  0  0  0  0  0  0  0  0
    6.0320   -3.3240   23.4930 C   0  0  0  0  0  0  0  0  0  0  0  0
    7.1920   -1.8070   22.1800 C   0  0  1  0  0  0  0  0  0  0  0  0
    7.5670   -0.4530   21.6620 N   0  0  0  0  0  0  0  0  0  0  0  0
    6.3910   -4.3920   22.6180 C   0  0  0  0  0  0  0  0  0  0  0  0
    8.0750   -2.9250   21.7930 C   0  0  0  0  0  0  0  0  0  0  0  0
    9.0080   -0.1040   21.8420 C   0  0  0  0  0  0  0  0  0  0  0  0
    7.1080   -3.8640   21.4130 N   0  0  0  0  0  0  0  0  0  0  0  0
    6.7930    0.0420   20.5280 C   0  0  0  0  0  0  0  0  0  0  0  0
    6.5310   -3.8480   20.1300 C   0  0  0  0  0  0  0  0  0  0  0  0
    9.9610   -1.0620   22.1800 C   0  0  0  0  0  0  0  0  0  0  0  0
    9.3820    1.0610   21.6940 O   0  0  0  0  0  0  0  0  0  0  0  0
    5.6380    0.7950   20.7170 C   0  0  0  0  0  0  0  0  0  0  0  0
    7.1650   -0.2160   19.1940 C   0  0  0  0  0  0  0  0  0  0  0  0
    5.4380   -4.3670   19.8710 O   0  0  0  0  0  0  0  0  0  0  0  0
    7.3990   -3.2030   19.0570 C   0  0  0  0  0  0  0  0  0  0  0  0
    5.1490    1.1200   22.0940 C   0  0  0  0  0  0  0  0  0  0  0  0
    4.9400    1.2430   19.5980 C   0  0  0  0  0  0  0  0  0  0  0  0
    6.5060    0.2110   18.0870 N   0  0  0  0  0  0  0  0  0  0  0  0
    5.4020    0.9340   18.3240 C   0  0  0  0  0  0  0  0  0  0  0  0
  1  2  1  0
  2  3  2  0
  2  4  1  0
  4  5  2  0
  3  6  1  0
  7  5  1  0
  5  8  1  0
  6  8  2  0
  7  9  2  0
  7 10  2  0
  8 11  1  0
  7 12  1  0
 12 13  1  0
 12 14  1  0
 14 15  1  1
 13 16  1  0
 14 17  1  0
 15 18  1  0
 16 19  1  0
 17 19  1  0
 15 20  1  0
 19 21  1  0
 18 22  1  0
 18 23  2  0
 20 24  2  0
 20 25  1  0
 21 26  2  0
 21 27  1  0
 24 28  1  0
 24 29  1  0
 25 30  2  0
 29 31  2  0
 30 31  1  0
M  END
