x1334-x0426
     RDKit          3D

 37 41  0  0  0  0  0  0  0  0999 V2000
    7.3760   -3.0160   18.9620 C   0  0  0  0  0  0  0  0  0  0  0  0
    6.3200   -3.4400   19.9920 C   0  0  0  0  0  0  0  0  0  0  0  0
    5.2680   -3.9420   19.6050 O   0  0  0  0  0  0  0  0  0  0  0  0
    6.5690   -3.3330   21.3520 N   0  0  0  0  0  0  0  0  0  0  0  0
    6.7910   -2.1470   22.2290 C   0  0  1  0  0  0  0  0  0  0  0  0
    6.9210   -4.5410   22.0650 C   0  0  0  0  0  0  0  0  0  0  0  0
    8.1580   -1.9110   22.3070 C   0  0  0  0  0  0  0  0  0  0  0  0
    7.8940   -4.3030   23.0500 C   0  0  0  0  0  0  0  0  0  0  0  0
    5.8010   -1.0240   22.1430 C   0  0  0  0  0  0  0  0  0  0  0  0
    8.6780   -3.0250   22.9560 N   0  0  0  0  0  0  0  0  0  0  0  0
    6.2840    0.3730   21.8200 C   0  0  2  0  0  0  0  0  0  0  0  0
    9.5090   -2.8790   24.0570 C   0  0  0  0  0  0  0  0  0  0  0  0
    5.5340    1.4500   22.6550 C   0  0  0  0  0  0  0  0  0  0  0  0
    6.0090    0.6980   20.3600 C   0  0  0  0  0  0  0  0  0  0  0  0
    9.2370   -3.9450   25.1130 C   0  0  0  0  0  0  0  0  0  0  0  0
    4.0270    1.5370   22.3270 C   0  0  1  0  0  0  0  0  0  0  0  0
    6.8160    0.2400   19.3610 C   0  0  0  0  0  0  0  0  0  0  0  0
    4.7660    1.5820   20.0250 C   0  0  0  0  0  0  0  0  0  0  0  0
    9.8750   -5.3180   25.2940 C   0  0  0  0  0  0  0  0  0  0  0  0
    7.9970   -3.6830   26.3700 S   0  0  0  0  0  0  0  0  0  0  0  0
    3.4040    2.2020   23.2860 N   0  0  0  0  0  0  0  0  0  0  0  0
    3.8110    2.1270   21.0840 C   0  0  0  0  0  0  0  0  0  0  0  0
    6.6070    0.5180   18.0510 N   0  0  0  0  0  0  0  0  0  0  0  0
    4.5820    1.8480   18.6980 C   0  0  0  0  0  0  0  0  0  0  0  0
    8.3330   -5.2270   27.0300 C   0  0  0  0  0  0  0  0  0  0  0  0
    9.2840   -6.0570   26.4870 C   0  0  0  0  0  0  0  0  0  0  0  0
    2.3010    1.6540   23.9160 C   0  0  0  0  0  0  0  0  0  0  0  0
    5.5900    1.2620   17.7050 C   0  0  0  0  0  0  0  0  0  0  0  0
    7.4480   -5.7400   28.4040 Cl  0  0  0  0  0  0  0  0  0  0  0  0
    2.1300    0.4390   23.9520 O   0  0  0  0  0  0  0  0  0  0  0  0
    1.3370    2.5000   24.5480 C   0  0  0  0  0  0  0  0  0  0  0  0
    1.6210    3.6960   25.1380 C   0  0  0  0  0  0  0  0  0  0  0  0
   -0.1410    2.0320   24.5770 C   0  0  0  0  0  0  0  0  0  0  0  0
    2.8750    4.1780   25.1630 F   0  0  0  0  0  0  0  0  0  0  0  0
   -1.1650    2.8910   25.2350 C   0  0  0  0  0  0  0  0  0  0  0  0
    0.6200    4.4890   25.7560 C   0  0  0  0  0  0  0  0  0  0  0  0
   -0.8180    4.0450   25.7920 C   0  0  0  0  0  0  0  0  0  0  0  0
  1  2  1  0
  2  3  2  0
  2  4  1  0
  4  5  1  0
  4  6  1  0
  5  7  1  0
  6  8  1  0
  5  9  1  6
  7 10  1  0
  8 10  1  0
 11  9  1  1
 10 12  1  0
 11 13  1  0
 11 14  1  0
 12 15  1  0
 13 16  1  0
 14 17  1  0
 14 18  2  0
 15 19  2  0
 15 20  1  0
 16 21  1  1
 16 22  1  0
 18 22  1  0
 17 23  2  0
 18 24  1  0
 20 25  1  0
 19 26  1  0
 25 26  2  0
 21 27  1  0
 23 28  1  0
 24 28  2  0
 25 29  1  0
 27 30  2  0
 27 31  1  0
 31 32  2  0
 31 33  1  0
 32 34  1  0
 33 35  2  0
 32 36  1  0
 35 37  1  0
 36 37  2  0
M  END
