x1336-x2562
     RDKit          3D

 42 46  0  0  0  0  0  0  0  0999 V2000
    6.0800   -4.9530   28.7620 C   0  0  0  0  0  0  0  0  0  0  0  0
    7.0860   -4.6080   27.7200 C   0  0  0  0  0  0  0  0  0  0  0  0
    8.2450   -5.3550   27.5920 C   0  0  0  0  0  0  0  0  0  0  0  0
    6.8610   -3.5110   26.8540 C   0  0  0  0  0  0  0  0  0  0  0  0
    7.8300   -3.2030   25.8790 C   0  0  0  0  0  0  0  0  0  0  0  0
    9.2190   -5.0810   26.6420 C   0  0  0  0  0  0  0  0  0  0  0  0
    7.4310   -1.7890   24.8730 S   0  0  0  0  0  0  0  0  0  0  0  0
    9.0020   -3.9870   25.7800 C   0  0  0  0  0  0  0  0  0  0  0  0
    8.6710   -1.1070   24.6210 O   0  0  0  0  0  0  0  0  0  0  0  0
    6.3810   -1.1130   25.6080 O   0  0  0  0  0  0  0  0  0  0  0  0
   10.0300   -3.6880   24.7850 C   0  0  0  0  0  0  0  0  0  0  0  0
    6.6830   -2.2200   23.3510 N   0  0  0  0  0  0  0  0  0  0  0  0
    5.8030   -3.3440   23.3860 C   0  0  0  0  0  0  0  0  0  0  0  0
    7.0850   -2.0280   22.0320 C   0  0  1  0  0  0  0  0  0  0  0  0
    7.6040   -0.7890   21.1710 C   0  0  2  0  0  0  0  0  0  0  0  0
    6.1720   -4.4500   22.5400 C   0  0  0  0  0  0  0  0  0  0  0  0
    8.0300   -3.1470   21.8530 C   0  0  0  0  0  0  0  0  0  0  0  0
    8.3490    0.0590   21.8420 C   0  0  0  0  0  0  0  0  0  0  0  0
    7.0620   -4.0930   21.4220 N   0  0  0  0  0  0  0  0  0  0  0  0
    6.6580   -0.0960   20.1770 C   0  0  0  0  0  0  0  0  0  0  0  0
    6.4920   -3.9740   20.1450 C   0  0  0  0  0  0  0  0  0  0  0  0
    8.1930    1.2890   21.8750 O   0  0  0  0  0  0  0  0  0  0  0  0
    9.4430   -0.6000   22.5040 N   0  0  0  0  0  0  0  0  0  0  0  0
    6.8790   -0.1220   18.7770 C   0  0  0  0  0  0  0  0  0  0  0  0
    5.5380    0.6120   20.5740 C   0  0  0  0  0  0  0  0  0  0  0  0
    5.3900   -4.4510   19.8790 O   0  0  0  0  0  0  0  0  0  0  0  0
    7.3650   -3.2670   19.0900 C   0  0  0  0  0  0  0  0  0  0  0  0
    4.7010    1.2530   19.6970 N   0  0  0  0  0  0  0  0  0  0  0  0
    6.0490    0.5240   17.8030 N   0  0  0  0  0  0  0  0  0  0  0  0
   10.7320   -0.1060   22.6230 C   0  0  0  0  0  0  0  0  0  0  0  0
    5.0220    1.1640   18.3810 C   0  0  0  0  0  0  0  0  0  0  0  0
   11.8290   -0.9170   22.4840 C   0  0  0  0  0  0  0  0  0  0  0  0
   10.9040    1.2190   22.8760 C   0  0  0  0  0  0  0  0  0  0  0  0
   13.0900   -0.4020   22.5920 C   0  0  0  0  0  0  0  0  0  0  0  0
   12.1290    1.7610   22.9860 C   0  0  0  0  0  0  0  0  0  0  0  0
   12.1250    3.1050   23.2420 O   0  0  0  0  0  0  0  0  0  0  0  0
   13.2520    0.9570   22.8410 C   0  0  0  0  0  0  0  0  0  0  0  0
   13.0750    3.9820   22.6360 C   0  0  1  0  0  0  0  0  0  0  0  0
   12.5550    4.8840   21.5400 N   0  0  0  0  0  0  0  0  0  0  0  0
   13.3260    5.0060   23.4440 C   0  0  0  0  0  0  0  0  0  0  0  0
   12.7200    5.8840   22.6360 C   0  0  1  0  0  0  0  0  0  0  0  0
   13.5080    7.0090   22.3350 O   0  0  0  0  0  0  0  0  0  0  0  0
  1  2  1  0
  2  3  2  0
  2  4  1  0
  4  5  2  0
  3  6  1  0
  7  5  1  0
  5  8  1  0
  6  8  2  0
  7  9  2  0
  7 10  2  0
  8 11  1  0
  7 12  1  0
 12 13  1  0
 12 14  1  0
 14 15  1  0
 13 16  1  0
 14 17  1  1
 15 18  1  1
 16 19  1  0
 17 19  1  0
 15 20  1  0
 19 21  1  0
 18 22  2  0
 18 23  1  0
 20 24  2  0
 20 25  1  0
 21 26  2  0
 21 27  1  0
 25 28  2  0
 24 29  1  0
 23 30  1  0
 28 31  1  0
 29 31  2  0
 30 32  2  0
 30 33  1  0
 32 34  1  0
 33 35  2  0
 35 36  1  0
 34 37  2  0
 35 37  1  0
 38 36  1  1
 38 39  1  0
 38 40  1  0
 39 41  1  0
 40 41  1  0
 41 42  1  6
M  END
