x1334-x0678
     RDKit          3D

 32 36  0  0  0  0  0  0  0  0999 V2000
    7.2920   -3.0550   18.7640 C   0  0  0  0  0  0  0  0  0  0  0  0
    6.3380   -3.2990   19.9200 C   0  0  0  0  0  0  0  0  0  0  0  0
    5.4060   -4.1040   19.7370 O   0  0  0  0  0  0  0  0  0  0  0  0
    6.5820   -2.6370   21.1330 N   0  0  0  0  0  0  0  0  0  0  0  0
    7.7610   -1.7360   21.1730 C   0  0  1  0  0  0  0  0  0  0  0  0
    6.1380   -3.1730   22.4220 C   0  0  0  0  0  0  0  0  0  0  0  0
    7.5170   -0.3520   21.2080 N   0  0  0  0  0  0  0  0  0  0  0  0
    8.7540   -2.0300   22.2640 C   0  0  1  0  0  0  0  0  0  0  0  0
    7.3520   -3.7790   23.1420 C   0  0  0  0  0  0  0  0  0  0  0  0
    8.7380    0.2880   21.8280 C   0  0  0  0  0  0  0  0  0  0  0  0
    9.1500   -0.6360   22.8040 C   0  0  2  0  0  0  0  0  0  0  0  0
    8.2710   -2.6930   23.4510 N   0  0  0  0  0  0  0  0  0  0  0  0
    6.7440    0.2430   20.2020 C   0  0  0  0  0  0  0  0  0  0  0  0
    9.2730   -2.9830   24.3730 C   0  0  0  0  0  0  0  0  0  0  0  0
    9.2670    1.3660   21.5260 O   0  0  0  0  0  0  0  0  0  0  0  0
   10.6020   -0.8560   23.1870 C   0  0  0  0  0  0  0  0  0  0  0  0
    5.4910    1.0980   20.5190 C   0  0  0  0  0  0  0  0  0  0  0  0
    7.0820    0.0780   18.7530 C   0  0  0  0  0  0  0  0  0  0  0  0
    8.9040   -3.9460   25.5340 C   0  0  0  0  0  0  0  0  0  0  0  0
   11.3980   -0.8210   22.1360 C   0  0  0  0  0  0  0  0  0  0  0  0
   11.1810   -0.1980   24.3960 C   0  0  0  0  0  0  0  0  0  0  0  0
    4.8360    1.6070   19.4750 C   0  0  0  0  0  0  0  0  0  0  0  0
    6.4180    0.5970   17.7180 N   0  0  0  0  0  0  0  0  0  0  0  0
    9.7990   -4.9110   25.9830 C   0  0  0  0  0  0  0  0  0  0  0  0
    7.4360   -4.0330   26.4640 S   0  0  0  0  0  0  0  0  0  0  0  0
   12.7020   -1.5040   22.4400 C   0  0  0  0  0  0  0  0  0  0  0  0
   12.3080   -0.7800   24.8110 C   0  0  0  0  0  0  0  0  0  0  0  0
    5.2560    1.3890   18.0710 C   0  0  0  0  0  0  0  0  0  0  0  0
    8.0560   -5.3500   27.4010 C   0  0  0  0  0  0  0  0  0  0  0  0
    9.2900   -5.7060   27.0500 C   0  0  0  0  0  0  0  0  0  0  0  0
   13.3580   -1.0410   23.7410 C   0  0  0  0  0  0  0  0  0  0  0  0
    7.1330   -6.0770   28.6410 Cl  0  0  0  0  0  0  0  0  0  0  0  0
  1  2  1  0
  2  3  2  0
  2  4  1  0
  5  4  1  1
  4  6  1  0
  5  7  1  0
  5  8  1  0
  6  9  1  0
  7 10  1  0
  8 11  1  0
 10 11  1  0
  8 12  1  1
  9 12  1  0
  7 13  1  0
 12 14  1  0
 10 15  2  0
 11 16  1  6
 13 17  2  0
 13 18  1  0
 14 19  1  0
 16 20  1  0
 16 21  1  0
 17 22  1  0
 18 23  2  0
 19 24  2  0
 19 25  1  0
 20 26  1  0
 21 27  1  0
 22 28  2  0
 23 28  1  0
 25 29  1  0
 24 30  1  0
 29 30  2  0
 26 31  1  0
 27 31  1  0
 29 32  1  0
M  END
