x1334-x0161
     RDKit          3D

 32 34  0  0  0  0  0  0  0  0999 V2000
   13.2760   -2.2310   24.4460 C   0  0  0  0  0  0  0  0  0  0  0  0
   12.2830   -1.3740   23.8280 N   0  0  0  0  0  0  0  0  0  0  0  0
   12.8540   -0.2600   23.2850 C   0  0  0  0  0  0  0  0  0  0  0  0
   11.4410   -2.0030   22.8220 C   0  0  0  0  0  0  0  0  0  0  0  0
   13.8610   -0.2520   22.6270 O   0  0  0  0  0  0  0  0  0  0  0  0
   10.6630   -3.2240   23.3380 C   0  0  0  0  0  0  0  0  0  0  0  0
   12.1940    1.0460   23.3970 C   0  0  0  0  0  0  0  0  0  0  0  0
    9.3910   -2.8760   24.0790 C   0  0  1  0  0  0  0  0  0  0  0  0
   12.8790    2.3140   22.9420 C   0  0  0  0  0  0  0  0  0  0  0  0
   10.8070    1.2150   23.9570 C   0  0  0  0  0  0  0  0  0  0  0  0
   12.2190    3.6430   23.0430 C   0  0  0  0  0  0  0  0  0  0  0  0
   10.3310    2.5350   23.9880 C   0  0  0  0  0  0  0  0  0  0  0  0
    8.1880   -2.6780   23.2660 N   0  0  0  0  0  0  0  0  0  0  0  0
    9.1310   -3.9750   25.1420 C   0  0  0  0  0  0  0  0  0  0  0  0
   10.9520    3.7080   23.5750 C   0  0  0  0  0  0  0  0  0  0  0  0
    8.4160   -1.9500   22.1500 C   0  0  0  0  0  0  0  0  0  0  0  0
    7.4630   -3.8560   23.0630 C   0  0  0  0  0  0  0  0  0  0  0  0
    9.7780   -5.2040   25.2680 C   0  0  0  0  0  0  0  0  0  0  0  0
    7.9410   -3.8010   26.3660 S   0  0  0  0  0  0  0  0  0  0  0  0
   10.1620    5.2970   23.7220 S   0  0  0  0  0  0  0  0  0  0  0  0
    7.3440   -1.5830   21.3530 C   0  0  0  0  0  0  0  0  0  0  0  0
    6.3660   -3.5660   22.2540 C   0  0  0  0  0  0  0  0  0  0  0  0
    8.3080   -5.3120   27.0200 C   0  0  0  0  0  0  0  0  0  0  0  0
    9.3070   -5.9800   26.3580 C   0  0  0  0  0  0  0  0  0  0  0  0
   11.0450    6.3040   23.1610 O   0  0  0  0  0  0  0  0  0  0  0  0
    9.6350    5.4640   25.0580 O   0  0  0  0  0  0  0  0  0  0  0  0
    8.8730    5.1460   22.6530 N   0  0  0  0  0  0  0  0  0  0  0  0
    7.4360   -5.8480   28.3880 Cl  0  0  0  0  0  0  0  0  0  0  0  0
    6.5400   -2.7930   21.1650 N   0  0  0  0  0  0  0  0  0  0  0  0
    6.3860   -3.2900   19.8850 C   0  0  0  0  0  0  0  0  0  0  0  0
    7.4300   -3.0020   18.8010 C   0  0  0  0  0  0  0  0  0  0  0  0
    5.4080   -4.0080   19.6430 O   0  0  0  0  0  0  0  0  0  0  0  0
  1  2  1  0
  2  3  1  0
  2  4  1  0
  3  5  2  0
  4  6  1  0
  3  7  1  0
  8  6  1  6
  7  9  2  0
  7 10  1  0
  9 11  1  0
 10 12  2  0
  8 13  1  0
  8 14  1  0
 11 15  2  0
 12 15  1  0
 13 16  1  0
 13 17  1  0
 14 18  2  0
 14 19  1  0
 15 20  1  0
 16 21  1  0
 17 22  1  0
 19 23  1  0
 18 24  1  0
 23 24  2  0
 20 25  2  0
 20 26  2  0
 20 27  1  0
 23 28  1  0
 21 29  1  0
 22 29  1  0
 29 30  1  0
 30 31  1  0
 30 32  2  0
M  END
