x1336-x3110
     RDKit          3D

 47 51  0  0  0  0  0  0  0  0999 V2000
    7.7760    1.6800   23.0260 N   0  0  0  0  0  0  0  0  0  0  0  0
    8.6400    2.6380   23.2510 C   0  0  0  0  0  0  0  0  0  0  0  0
    9.9750    2.2250   23.4040 C   0  0  0  0  0  0  0  0  0  0  0  0
    7.6390    1.0410   21.6990 C   0  0  0  0  0  0  0  0  0  0  0  0
    8.5230    1.2070   20.8570 O   0  0  0  0  0  0  0  0  0  0  0  0
    6.3370    0.2960   21.4990 C   0  0  2  0  0  0  0  0  0  0  0  0
    6.0860   -1.1970   21.5180 N   0  0  0  0  0  0  0  0  0  0  0  0
   10.9450    3.3910   23.4050 C   0  0  0  0  0  0  0  0  0  0  0  0
    5.9720    0.7250   20.1020 C   0  0  0  0  0  0  0  0  0  0  0  0
   11.8150    3.2530   22.5470 O   0  0  0  0  0  0  0  0  0  0  0  0
   10.8720    4.3530   24.1600 O   0  0  0  0  0  0  0  0  0  0  0  0
    4.8830    1.5800   19.9600 C   0  0  0  0  0  0  0  0  0  0  0  0
    6.6990    0.2800   18.9960 C   0  0  0  0  0  0  0  0  0  0  0  0
    6.7850   -2.3900   21.2460 C   0  0  2  0  0  0  0  0  0  0  0  0
   12.2140    4.4310   21.9920 C   0  0  0  0  0  0  0  0  0  0  0  0
    6.5820   -3.1040   19.8640 C   0  0  0  0  0  0  0  0  0  0  0  0
    6.4000    0.6480   17.7430 N   0  0  0  0  0  0  0  0  0  0  0  0
    4.5170    2.0010   18.7070 C   0  0  0  0  0  0  0  0  0  0  0  0
    6.3950   -3.4670   22.0430 C   0  0  0  0  0  0  0  0  0  0  0  0
    8.2390   -1.9370   21.4320 C   0  0  0  0  0  0  0  0  0  0  0  0
   13.3540    5.0470   22.8200 C   0  0  0  0  0  0  0  0  0  0  0  0
    5.6150   -3.8920   19.6800 O   0  0  0  0  0  0  0  0  0  0  0  0
    7.5690   -2.9410   18.7210 C   0  0  0  0  0  0  0  0  0  0  0  0
    5.2520    1.5530   17.6380 C   0  0  0  0  0  0  0  0  0  0  0  0
    8.7660   -2.1480   22.8500 C   0  0  1  0  0  0  0  0  0  0  0  0
    7.3610   -3.9980   22.8100 C   0  0  0  0  0  0  0  0  0  0  0  0
    9.8640   -2.8760   22.4100 C   0  0  0  0  0  0  0  0  0  0  0  0
    9.1350   -1.0020   23.5580 C   0  0  1  0  0  0  0  0  0  0  0  0
    7.7960   -2.8820   23.4590 N   0  0  0  0  0  0  0  0  0  0  0  0
    8.6900   -1.4000   24.9220 N   0  0  0  0  0  0  0  0  0  0  0  0
    7.4380   -2.4860   25.0510 S   0  0  0  0  0  0  0  0  0  0  0  0
   11.0920   -2.7440   23.0240 C   0  0  0  0  0  0  0  0  0  0  0  0
   10.4520   -0.7490   23.8320 C   0  0  0  0  0  0  0  0  0  0  0  0
    6.2620   -1.6610   25.2510 O   0  0  0  0  0  0  0  0  0  0  0  0
   11.1730   -1.9010   24.0680 C   0  0  2  0  0  0  0  0  0  0  0  0
    7.7460   -3.6800   26.2850 C   0  0  0  0  0  0  0  0  0  0  0  0
   12.5720   -1.6410   24.3490 C   0  0  0  0  0  0  0  0  0  0  0  0
    6.7920   -3.8290   27.2760 C   0  0  0  0  0  0  0  0  0  0  0  0
    8.9000   -4.5010   26.2740 C   0  0  0  0  0  0  0  0  0  0  0  0
   12.6140   -0.4560   25.2490 C   0  0  0  0  0  0  0  0  0  0  0  0
   13.2730   -1.3440   23.0240 C   0  0  0  0  0  0  0  0  0  0  0  0
   13.2590   -2.8090   25.0770 C   0  0  0  0  0  0  0  0  0  0  0  0
    9.9680   -4.4170   25.2400 C   0  0  0  0  0  0  0  0  0  0  0  0
    6.9460   -4.7870   28.2620 C   0  0  0  0  0  0  0  0  0  0  0  0
    9.0230   -5.4390   27.2750 C   0  0  0  0  0  0  0  0  0  0  0  0
    5.8660   -4.9300   29.3190 C   0  0  0  0  0  0  0  0  0  0  0  0
    8.0680   -5.5790   28.2400 C   0  0  0  0  0  0  0  0  0  0  0  0
  1  2  1  0
  2  3  1  0
  1  4  1  0
  4  5  2  0
  4  6  1  0
  6  7  1  6
  3  8  1  0
  6  9  1  0
  8 10  1  0
  8 11  2  0
  9 12  2  0
  9 13  1  0
 14  7  1  6
 10 15  1  0
 14 16  1  0
 13 17  2  0
 12 18  1  0
 14 19  1  0
 14 20  1  0
 15 21  1  0
 16 22  2  0
 16 23  1  0
 17 24  1  0
 18 24  2  0
 25 20  1  6
 19 26  1  0
 25 27  1  0
 25 28  1  0
 25 29  1  0
 26 29  1  0
 28 30  1  0
 29 31  1  0
 30 31  1  0
 27 32  2  0
 28 33  1  1
 31 34  2  0
 32 35  1  0
 33 35  1  0
 31 36  1  0
 35 37  1  6
 36 38  2  0
 36 39  1  0
 37 40  1  0
 37 41  1  0
 37 42  1  0
 39 43  1  0
 38 44  1  0
 39 45  2  0
 44 46  1  0
 44 47  2  0
 45 47  1  0
M  END
