x1336-x2581
     RDKit          3D

 41 45  0  0  0  0  0  0  0  0999 V2000
    6.7780   -5.2680   28.6860 C   0  0  0  0  0  0  0  0  0  0  0  0
    7.6220   -4.7040   27.5880 C   0  0  0  0  0  0  0  0  0  0  0  0
    8.9160   -5.1640   27.3320 C   0  0  0  0  0  0  0  0  0  0  0  0
    7.0930   -3.6920   26.7980 C   0  0  0  0  0  0  0  0  0  0  0  0
    7.8490   -3.1490   25.7610 C   0  0  0  0  0  0  0  0  0  0  0  0
    9.7030   -4.6160   26.2750 C   0  0  0  0  0  0  0  0  0  0  0  0
    6.9800   -1.9180   24.9300 S   0  0  0  0  0  0  0  0  0  0  0  0
    9.1620   -3.5730   25.4560 C   0  0  0  0  0  0  0  0  0  0  0  0
    7.9560   -1.0490   24.3470 O   0  0  0  0  0  0  0  0  0  0  0  0
    5.9360   -1.4160   25.7930 O   0  0  0  0  0  0  0  0  0  0  0  0
    9.9970   -2.9800   24.2960 C   0  0  0  0  0  0  0  0  0  0  0  0
    6.2660   -2.6130   23.5960 N   0  0  0  0  0  0  0  0  0  0  0  0
   10.4230   -1.5450   24.2010 O   0  0  0  0  0  0  0  0  0  0  0  0
    6.3670   -4.0160   23.4440 C   0  0  0  0  0  0  0  0  0  0  0  0
    6.4450   -1.8870   22.4850 C   0  0  0  0  0  0  0  0  0  0  0  0
    6.0350   -4.4990   22.1690 C   0  0  0  0  0  0  0  0  0  0  0  0
    7.4420   -2.6160   21.6380 C   0  0  0  0  0  0  0  0  0  0  0  0
   10.0120   -0.5370   23.2660 C   0  0  0  0  0  0  0  0  0  0  0  0
    6.7250   -3.7260   21.1430 N   0  0  0  0  0  0  0  0  0  0  0  0
   10.3420    0.8930   23.2670 C   0  0  0  0  0  0  0  0  0  0  0  0
    9.2120   -0.9290   22.2420 C   0  0  0  0  0  0  0  0  0  0  0  0
    6.2280   -3.7120   19.8790 C   0  0  0  0  0  0  0  0  0  0  0  0
    9.8220    1.7570   22.2570 C   0  0  0  0  0  0  0  0  0  0  0  0
    8.7470    0.0070   21.3110 C   0  0  0  0  0  0  0  0  0  0  0  0
    5.1220   -4.1620   19.6470 O   0  0  0  0  0  0  0  0  0  0  0  0
    7.2040   -3.1410   18.8450 C   0  0  0  0  0  0  0  0  0  0  0  0
   10.1640    3.2010   22.2410 N   0  0  0  0  0  0  0  0  0  0  0  0
    9.0170    1.3340   21.2830 N   0  0  0  0  0  0  0  0  0  0  0  0
   11.1390    3.8400   23.1240 C   0  0  0  0  0  0  0  0  0  0  0  0
   11.4120    3.4130   24.1700 O   0  0  0  0  0  0  0  0  0  0  0  0
   11.7220    5.0040   22.6290 C   0  0  0  0  0  0  0  0  0  0  0  0
   10.9890    6.2400   23.2860 C   0  0  0  0  0  0  0  0  0  0  0  0
    9.7610    6.6610   22.7890 C   0  0  0  0  0  0  0  0  0  0  0  0
   11.6300    6.8590   24.3590 C   0  0  0  0  0  0  0  0  0  0  0  0
    9.0500    7.7290   23.2930 C   0  0  0  0  0  0  0  0  0  0  0  0
   10.8900    8.0390   24.9420 C   0  0  0  0  0  0  0  0  0  0  0  0
    9.5430    8.4700   24.3630 C   0  0  0  0  0  0  0  0  0  0  0  0
   11.4570    8.7470   26.0270 C   0  0  0  0  0  0  0  0  0  0  0  0
    8.9770    9.5880   24.9980 C   0  0  0  0  0  0  0  0  0  0  0  0
   10.8040    9.8520   26.5840 C   0  0  0  0  0  0  0  0  0  0  0  0
    9.5890   10.2370   26.0530 C   0  0  0  0  0  0  0  0  0  0  0  0
  1  2  1  0
  2  3  2  0
  2  4  1  0
  4  5  2  0
  3  6  1  0
  7  5  1  0
  5  8  1  0
  6  8  2  0
  7  9  2  0
  7 10  2  0
  8 11  1  0
  7 12  1  0
 11 13  1  0
 12 14  1  0
 12 15  1  0
 14 16  1  0
 15 17  1  0
 13 18  1  0
 16 19  1  0
 17 19  1  0
 18 20  2  0
 18 21  1  0
 19 22  1  0
 20 23  1  0
 21 24  2  0
 22 25  2  0
 22 26  1  0
 23 27  1  0
 23 28  2  0
 24 28  1  0
 27 29  1  0
 29 30  2  0
 29 31  1  0
 31 32  1  0
 32 33  2  0
 32 34  1  0
 33 35  1  0
 34 36  2  0
 35 37  2  0
 36 37  1  0
 36 38  1  0
 37 39  1  0
 38 40  2  0
 39 41  2  0
 40 41  1  0
M  END
