x1336-x3113
     RDKit          3D

 44 48  0  0  0  0  0  0  0  0999 V2000
    8.1450    1.9080   23.3060 N   0  0  0  0  0  0  0  0  0  0  0  0
    8.0080    1.1730   22.0720 C   0  0  0  0  0  0  0  0  0  0  0  0
    8.6660    1.5090   21.0840 O   0  0  0  0  0  0  0  0  0  0  0  0
    9.2040    2.7880   23.4620 C   0  0  0  0  0  0  0  0  0  0  0  0
    7.0390   -0.0240   21.9620 C   0  0  1  0  0  0  0  0  0  0  0  0
   10.5330    2.0560   23.3490 C   0  0  0  0  0  0  0  0  0  0  0  0
   11.6360    3.1570   23.3060 C   0  0  0  0  0  0  0  0  0  0  0  0
    6.3510    0.2530   20.6020 C   0  0  0  0  0  0  0  0  0  0  0  0
    7.7080   -1.4470   22.5040 C   0  0  1  0  0  0  0  0  0  0  0  0
   11.8130    3.8830   22.3440 O   0  0  0  0  0  0  0  0  0  0  0  0
    5.1080    0.8430   20.4990 C   0  0  0  0  0  0  0  0  0  0  0  0
    6.9730   -0.0560   19.4010 C   0  0  0  0  0  0  0  0  0  0  0  0
    9.2430   -1.1250   22.8810 C   0  0  2  0  0  0  0  0  0  0  0  0
    7.0910   -2.1840   23.7090 N   0  0  0  0  0  0  0  0  0  0  0  0
    7.8680   -2.3630   21.4830 C   0  0  0  0  0  0  0  0  0  0  0  0
   13.0080    4.6450   22.4780 C   0  0  0  0  0  0  0  0  0  0  0  0
    7.6270   -1.9880   25.2980 S   0  0  1  0  0  0  0  0  0  0  0  0
    6.4940    0.1660   18.1550 N   0  0  0  0  0  0  0  0  0  0  0  0
    4.5870    1.0850   19.2150 C   0  0  0  0  0  0  0  0  0  0  0  0
   10.0320   -1.1060   21.7740 C   0  0  0  0  0  0  0  0  0  0  0  0
    9.8820   -1.8570   23.8150 C   0  0  2  0  0  0  0  0  0  0  0  0
    6.6890   -3.1550   21.2120 N   0  0  0  0  0  0  0  0  0  0  0  0
    6.1720   -3.3160   23.4660 C   0  0  0  0  0  0  0  0  0  0  0  0
    9.2270   -1.3800   25.0720 N   0  0  0  0  0  0  0  0  0  0  0  0
    6.7260   -0.9610   25.7830 O   0  0  0  0  0  0  0  0  0  0  0  0
    6.3430   -3.5430   19.9410 C   0  0  0  0  0  0  0  0  0  0  0  0
    5.2830    0.7490   18.0390 C   0  0  0  0  0  0  0  0  0  0  0  0
   11.2830   -1.4170   22.1360 C   0  0  0  0  0  0  0  0  0  0  0  0
   11.2570   -1.5890   23.4920 C   0  0  2  0  0  0  0  0  0  0  0  0
    7.6160   -3.3630   26.3680 C   0  0  0  0  0  0  0  0  0  0  0  0
    6.4080   -4.0610   22.3060 C   0  0  0  0  0  0  0  0  0  0  0  0
   12.4410   -2.0840   24.2730 C   0  0  0  0  0  0  0  0  0  0  0  0
    5.3410   -4.2290   19.7470 O   0  0  0  0  0  0  0  0  0  0  0  0
    7.2890   -3.1200   18.8140 C   0  0  0  0  0  0  0  0  0  0  0  0
    6.6350   -3.5480   27.3250 C   0  0  0  0  0  0  0  0  0  0  0  0
    8.6370   -4.2970   26.2640 C   0  0  0  0  0  0  0  0  0  0  0  0
   13.4720   -2.3150   23.3710 C   0  0  0  0  0  0  0  0  0  0  0  0
   12.1170   -3.1380   25.2450 C   0  0  0  0  0  0  0  0  0  0  0  0
   12.8200   -0.8780   25.1230 C   0  0  0  0  0  0  0  0  0  0  0  0
    9.7120   -4.2090   25.3030 C   0  0  0  0  0  0  0  0  0  0  0  0
    6.7270   -4.7610   28.2140 C   0  0  0  0  0  0  0  0  0  0  0  0
    8.7350   -5.4170   27.0760 C   0  0  0  0  0  0  0  0  0  0  0  0
    5.7120   -5.0340   29.2720 C   0  0  0  0  0  0  0  0  0  0  0  0
    7.7840   -5.6280   28.0330 C   0  0  0  0  0  0  0  0  0  0  0  0
  1  2  1  0
  2  3  2  0
  1  4  1  0
  5  2  1  6
  4  6  1  0
  6  7  1  0
  5  8  1  0
  5  9  1  0
  7 10  1  0
  8 11  2  0
  8 12  1  0
  9 13  1  0
  9 14  1  0
  9 15  1  6
 10 16  1  0
 14 17  1  0
 12 18  2  0
 11 19  1  0
 13 20  1  6
 13 21  1  0
 15 22  1  0
 14 23  1  0
 17 24  2  0
 21 24  1  1
 17 25  2  0
 22 26  1  0
 18 27  1  0
 19 27  2  0
 20 28  2  0
 21 29  1  0
 28 29  1  0
 17 30  1  1
 22 31  1  0
 23 31  1  0
 29 32  1  6
 26 33  2  0
 26 34  1  0
 30 35  2  0
 30 36  1  0
 32 37  1  0
 32 38  1  0
 32 39  1  0
 36 40  1  0
 35 41  1  0
 36 42  2  0
 41 43  1  0
 41 44  2  0
 42 44  1  0
M  END
