x1334-x0978
     RDKit          3D

 28 29  0  0  0  0  0  0  0  0999 V2000
    1.9800   -5.6860   23.2180 N   0  0  0  0  0  0  0  0  0  0  0  0
    3.1630   -6.4420   23.2810 C   0  0  2  0  0  0  0  0  0  0  0  0
    3.3380   -7.2530   24.5890 C   0  0  1  0  0  0  0  0  0  0  0  0
    0.7920   -6.2190   22.5450 C   0  0  0  0  0  0  0  0  0  0  0  0
    0.6540   -7.2500   21.8950 O   0  0  0  0  0  0  0  0  0  0  0  0
   -0.4830   -5.3740   22.6540 C   0  0  0  0  0  0  0  0  0  0  0  0
    4.4130   -5.5260   23.1350 C   0  0  0  0  0  0  0  0  0  0  0  0
    2.1220   -8.1700   24.7300 C   0  0  0  0  0  0  0  0  0  0  0  0
    4.4410   -7.7480   24.4810 O   0  0  0  0  0  0  0  0  0  0  0  0
    5.6390   -5.8820   22.3740 N   0  0  0  0  0  0  0  0  0  0  0  0
    4.2750   -4.2630   23.7980 O   0  0  0  0  0  0  0  0  0  0  0  0
    7.0540   -5.3360   22.3890 C   0  0  0  0  0  0  0  0  0  0  0  0
    7.1860   -3.8570   22.7410 C   0  0  1  0  0  0  0  0  0  0  0  0
    8.5000   -3.4210   22.6200 N   0  0  0  0  0  0  0  0  0  0  0  0
    6.1570   -3.0570   22.2640 C   0  0  0  0  0  0  0  0  0  0  0  0
    9.3070   -3.2940   23.7030 C   0  0  0  0  0  0  0  0  0  0  0  0
    6.6380   -2.4630   21.0440 N   0  0  0  0  0  0  0  0  0  0  0  0
    8.7080   -2.3240   21.8300 C   0  0  0  0  0  0  0  0  0  0  0  0
    6.4930   -3.2060   19.8660 C   0  0  0  0  0  0  0  0  0  0  0  0
    7.6630   -1.6130   21.2530 C   0  0  0  0  0  0  0  0  0  0  0  0
    9.0560   -4.1960   24.8660 C   0  0  0  0  0  0  0  0  0  0  0  0
    7.4910   -2.9980   18.7340 C   0  0  0  0  0  0  0  0  0  0  0  0
    5.5770   -4.0410   19.7180 O   0  0  0  0  0  0  0  0  0  0  0  0
    9.6350   -5.4210   25.1790 C   0  0  0  0  0  0  0  0  0  0  0  0
    7.9310   -3.8830   26.1490 S   0  0  0  0  0  0  0  0  0  0  0  0
    8.2530   -5.3360   27.0040 C   0  0  0  0  0  0  0  0  0  0  0  0
    9.2150   -5.9930   26.2800 C   0  0  0  0  0  0  0  0  0  0  0  0
    7.4880   -5.8670   28.5020 Cl  0  0  0  0  0  0  0  0  0  0  0  0
  2  1  1  1
  2  3  1  0
  1  4  1  0
  4  5  2  0
  4  6  1  0
  2  7  1  0
  3  8  1  6
  3  9  1  0
  7 10  1  0
  7 11  2  0
 10 12  1  0
 13 12  1  6
 13 14  1  0
 13 15  1  0
 14 16  1  0
 15 17  1  0
 14 18  1  0
 17 19  1  0
 17 20  1  0
 18 20  1  0
 16 21  1  0
 19 22  1  0
 19 23  2  0
 21 24  2  0
 21 25  1  0
 25 26  1  0
 24 27  1  0
 26 27  2  0
 26 28  1  0
M  END
