x1336-x0978
     RDKit          3D

 31 33  0  0  0  0  0  0  0  0999 V2000
    2.2350   -5.5150   23.1310 N   0  0  0  0  0  0  0  0  0  0  0  0
    3.3900   -6.3030   23.1190 C   0  0  2  0  0  0  0  0  0  0  0  0
    3.4740   -7.1840   24.3900 C   0  0  1  0  0  0  0  0  0  0  0  0
    1.0400   -6.1150   22.6520 C   0  0  0  0  0  0  0  0  0  0  0  0
    0.9250   -7.1580   22.0190 O   0  0  0  0  0  0  0  0  0  0  0  0
   -0.2450   -5.2940   23.0210 C   0  0  0  0  0  0  0  0  0  0  0  0
    4.7430   -5.5030   22.9500 C   0  0  0  0  0  0  0  0  0  0  0  0
    2.1440   -7.9080   24.6190 C   0  0  0  0  0  0  0  0  0  0  0  0
    4.4860   -7.8490   24.3290 O   0  0  0  0  0  0  0  0  0  0  0  0
    5.8660   -6.3700   22.4650 N   0  0  0  0  0  0  0  0  0  0  0  0
    4.8790   -4.0650   23.2720 N   0  0  0  0  0  0  0  0  0  0  0  0
    7.1130   -5.6740   22.0080 C   0  0  0  0  0  0  0  0  0  0  0  0
    6.3280   -3.7210   23.1480 C   0  0  1  0  0  0  0  0  0  0  0  0
    6.9960   -4.1460   21.9080 C   0  0  2  0  0  0  0  0  0  0  0  0
    6.7390   -2.4380   23.4660 N   0  0  0  0  0  0  0  0  0  0  0  0
    6.5320   -3.9430   20.3820 C   0  0  0  0  0  0  0  0  0  0  0  0
    7.1730   -1.9610   25.0910 S   0  0  0  0  0  0  0  0  0  0  0  0
    7.7170   -2.1950   22.5950 C   0  0  0  0  0  0  0  0  0  0  0  0
    8.2140   -3.3740   22.0690 C   0  0  0  0  0  0  0  0  0  0  0  0
    8.3460   -1.1060   25.0340 O   0  0  0  0  0  0  0  0  0  0  0  0
    5.9710   -1.4480   25.7060 O   0  0  0  0  0  0  0  0  0  0  0  0
    5.4740   -4.4370   19.9470 O   0  0  0  0  0  0  0  0  0  0  0  0
    7.4440   -3.2260   19.3240 C   0  0  0  0  0  0  0  0  0  0  0  0
    7.5980   -3.3230   26.0900 C   0  0  0  0  0  0  0  0  0  0  0  0
    6.7160   -3.7920   27.0790 C   0  0  0  0  0  0  0  0  0  0  0  0
    8.8620   -3.9310   25.8830 C   0  0  0  0  0  0  0  0  0  0  0  0
    9.9490   -3.5780   24.8870 C   0  0  0  0  0  0  0  0  0  0  0  0
    7.0330   -4.8730   27.9020 C   0  0  0  0  0  0  0  0  0  0  0  0
    9.2680   -5.1260   26.7550 C   0  0  0  0  0  0  0  0  0  0  0  0
    6.1130   -5.2910   28.8640 C   0  0  0  0  0  0  0  0  0  0  0  0
    8.2540   -5.5570   27.7900 C   0  0  0  0  0  0  0  0  0  0  0  0
  2  1  1  1
  2  3  1  0
  1  4  1  0
  4  5  2  0
  4  6  1  0
  2  7  1  0
  3  8  1  6
  3  9  1  0
  7 10  1  0
  7 11  2  0
 10 12  1  0
 13 11  1  6
 12 14  1  0
 13 14  1  0
 13 15  1  0
 14 16  1  6
 15 17  1  0
 15 18  1  0
 14 19  1  0
 18 19  1  0
 17 20  2  0
 17 21  2  0
 16 22  2  0
 16 23  1  0
 17 24  1  0
 24 25  2  0
 24 26  1  0
 26 27  1  0
 25 28  1  0
 26 29  2  0
 28 30  1  0
 28 31  2  0
 29 31  1  0
M  END
