x1336-x2964
     RDKit          3D

 38 41  0  0  0  0  0  0  0  0999 V2000
    6.0670   -5.3590   28.8570 C   0  0  0  0  0  0  0  0  0  0  0  0
    7.0840   -4.8630   27.8770 C   0  0  0  0  0  0  0  0  0  0  0  0
    8.3220   -5.4800   27.7510 C   0  0  0  0  0  0  0  0  0  0  0  0
    6.8030   -3.6590   26.9750 C   0  0  0  0  0  0  0  0  0  0  0  0
    7.7450   -3.1780   26.0540 C   0  0  0  0  0  0  0  0  0  0  0  0
    9.2090   -4.9440   26.8130 C   0  0  0  0  0  0  0  0  0  0  0  0
    7.3110   -1.6810   25.0040 S   0  0  0  0  0  0  0  0  0  0  0  0
    8.9840   -3.8400   25.9770 C   0  0  0  0  0  0  0  0  0  0  0  0
    8.5500   -1.0300   24.6820 O   0  0  0  0  0  0  0  0  0  0  0  0
    6.2630   -1.0040   25.7310 O   0  0  0  0  0  0  0  0  0  0  0  0
   10.0990   -3.4390   25.0560 C   0  0  0  0  0  0  0  0  0  0  0  0
    6.6210   -2.1640   23.5040 N   0  0  0  0  0  0  0  0  0  0  0  0
    6.0460   -3.5080   23.4710 C   0  0  0  0  0  0  0  0  0  0  0  0
    6.9690   -1.7220   22.1370 C   0  0  1  0  0  0  0  0  0  0  0  0
    7.1240   -0.2710   21.6830 N   0  0  0  0  0  0  0  0  0  0  0  0
    6.6130   -4.2590   22.4240 C   0  0  0  0  0  0  0  0  0  0  0  0
    7.8700   -2.5860   21.6040 C   0  0  0  0  0  0  0  0  0  0  0  0
    8.2380    0.4170   21.9170 C   0  0  0  0  0  0  0  0  0  0  0  0
    7.0920   -3.6210   21.3270 N   0  0  0  0  0  0  0  0  0  0  0  0
    6.3380    0.2160   20.4950 C   0  0  0  0  0  0  0  0  0  0  0  0
    6.5470   -3.6910   20.0330 C   0  0  0  0  0  0  0  0  0  0  0  0
    8.6190    1.3320   21.1420 O   0  0  0  0  0  0  0  0  0  0  0  0
    8.9200    0.1310   22.9490 N   0  0  0  0  0  0  0  0  0  0  0  0
    5.1140    0.8610   20.5240 C   0  0  0  0  0  0  0  0  0  0  0  0
    6.9460   -0.0190   19.2660 C   0  0  0  0  0  0  0  0  0  0  0  0
    5.4490   -4.2220   19.8050 O   0  0  0  0  0  0  0  0  0  0  0  0
    7.4160   -3.1630   18.9020 C   0  0  0  0  0  0  0  0  0  0  0  0
    4.5560    1.2510   19.2820 C   0  0  0  0  0  0  0  0  0  0  0  0
    6.4530    0.3360   18.0580 N   0  0  0  0  0  0  0  0  0  0  0  0
   10.3320    0.0870   22.8620 C   0  0  0  0  0  0  0  0  0  0  0  0
    3.2610    1.9410   19.2090 N   0  0  0  0  0  0  0  0  0  0  0  0
    5.2610    0.9670   18.1110 C   0  0  0  0  0  0  0  0  0  0  0  0
   11.1130    1.1000   23.3580 C   0  0  0  0  0  0  0  0  0  0  0  0
   11.0110   -1.0520   22.2190 C   0  0  0  0  0  0  0  0  0  0  0  0
   12.4780    1.0770   23.2680 C   0  0  0  0  0  0  0  0  0  0  0  0
   12.4890   -1.0230   22.1470 C   0  0  0  0  0  0  0  0  0  0  0  0
   13.2310   -2.3260   21.3780 Cl  0  0  0  0  0  0  0  0  0  0  0  0
   13.1370    0.0300   22.6720 C   0  0  0  0  0  0  0  0  0  0  0  0
  1  2  1  0
  2  3  2  0
  2  4  1  0
  4  5  2  0
  3  6  1  0
  7  5  1  0
  5  8  1  0
  6  8  2  0
  7  9  2  0
  7 10  2  0
  8 11  1  0
  7 12  1  0
 12 13  1  0
 12 14  1  0
 14 15  1  1
 13 16  1  0
 14 17  1  0
 15 18  1  0
 16 19  1  0
 17 19  1  0
 15 20  1  0
 19 21  1  0
 18 22  2  0
 18 23  1  0
 20 24  2  0
 20 25  1  0
 21 26  2  0
 21 27  1  0
 24 28  1  0
 25 29  2  0
 23 30  1  0
 28 31  1  0
 28 32  2  0
 29 32  1  0
 30 33  2  0
 30 34  1  0
 33 35  1  0
 34 36  2  0
 36 37  1  0
 35 38  2  0
 36 38  1  0
M  END
