x1334-x0540
     RDKit          3D

 35 38  0  0  0  0  0  0  0  0999 V2000
    7.4400   -2.9630   18.9290 C   0  0  0  0  0  0  0  0  0  0  0  0
    6.3410   -3.2750   19.9650 C   0  0  0  0  0  0  0  0  0  0  0  0
    5.3640   -3.9490   19.6250 O   0  0  0  0  0  0  0  0  0  0  0  0
    6.4130   -2.8590   21.3270 N   0  0  0  0  0  0  0  0  0  0  0  0
    7.0380   -1.6330   21.8810 C   0  0  2  0  0  0  0  0  0  0  0  0
    6.3800   -3.8620   22.2360 C   0  0  0  0  0  0  0  0  0  0  0  0
    6.5450   -0.3130   21.6890 C   0  0  2  0  0  0  0  0  0  0  0  0
    8.4080   -1.8500   22.0180 C   0  0  0  0  0  0  0  0  0  0  0  0
    7.7110   -4.0450   22.6510 C   0  0  0  0  0  0  0  0  0  0  0  0
    5.5110    0.0540   22.6000 C   0  0  0  0  0  0  0  0  0  0  0  0
    8.4410   -2.9540   22.9920 N   0  0  0  0  0  0  0  0  0  0  0  0
    6.0310    0.1480   20.2860 C   0  0  0  0  0  0  0  0  0  0  0  0
    9.6370   -3.1490   23.8300 C   0  0  0  0  0  0  0  0  0  0  0  0
    5.3960    1.5410   22.9500 C   0  0  0  0  0  0  0  0  0  0  0  0
    6.8250    0.0650   18.9990 C   0  0  0  0  0  0  0  0  0  0  0  0
    4.7400    0.7010   20.2850 C   0  0  0  0  0  0  0  0  0  0  0  0
    4.0730    2.2030   22.5920 N   0  0  0  0  0  0  0  0  0  0  0  0
    9.2750   -4.0930   25.0150 C   0  0  0  0  0  0  0  0  0  0  0  0
    6.3660    0.5170   17.8400 N   0  0  0  0  0  0  0  0  0  0  0  0
    4.3270    1.1710   18.9690 C   0  0  0  0  0  0  0  0  0  0  0  0
    2.9120    2.2520   23.5590 C   0  0  0  0  0  0  0  0  0  0  0  0
    9.8210   -5.3740   25.2810 C   0  0  0  0  0  0  0  0  0  0  0  0
    8.0600   -3.7410   26.2800 S   0  0  0  0  0  0  0  0  0  0  0  0
    5.1790    1.0680   17.7680 C   0  0  0  0  0  0  0  0  0  0  0  0
    2.8290    1.4910   24.5230 O   0  0  0  0  0  0  0  0  0  0  0  0
    2.1050    3.0720   23.3060 N   0  0  0  0  0  0  0  0  0  0  0  0
    8.3230   -5.2110   27.0460 C   0  0  0  0  0  0  0  0  0  0  0  0
    9.3480   -6.0660   26.4000 C   0  0  0  0  0  0  0  0  0  0  0  0
    7.4660   -5.6740   28.4530 Cl  0  0  0  0  0  0  0  0  0  0  0  0
    0.8300    3.2940   23.9080 C   0  0  0  0  0  0  0  0  0  0  0  0
    0.7070    4.7010   24.5310 C   0  0  0  0  0  0  0  0  0  0  0  0
   -0.4540    3.0220   23.0010 C   0  0  0  0  0  0  0  0  0  0  0  0
   -0.6410    4.8740   25.1730 C   0  0  0  0  0  0  0  0  0  0  0  0
   -1.7120    3.2790   23.7800 C   0  0  0  0  0  0  0  0  0  0  0  0
   -1.7010    4.6500   24.3820 C   0  0  0  0  0  0  0  0  0  0  0  0
  1  2  1  0
  2  3  2  0
  2  4  1  0
  4  5  1  0
  4  6  1  0
  5  7  1  0
  5  8  1  6
  6  9  1  0
  7 10  1  1
  8 11  1  0
  9 11  1  0
  7 12  1  0
 11 13  1  0
 10 14  1  0
 12 15  2  0
 12 16  1  0
 14 17  1  0
 13 18  1  0
 15 19  1  0
 16 20  2  0
 17 21  1  0
 18 22  2  0
 18 23  1  0
 19 24  2  0
 20 24  1  0
 21 25  2  0
 21 26  1  0
 23 27  1  0
 22 28  1  0
 27 28  2  0
 27 29  1  0
 26 30  1  0
 30 31  1  0
 30 32  1  0
 31 33  1  0
 32 34  1  0
 33 35  1  0
 34 35  1  0
M  END
