x1334-x3108
     RDKit          3D

 31 35  0  0  0  0  0  0  0  0999 V2000
    5.6500    1.6800   22.0170 C   0  0  0  0  0  0  0  0  0  0  0  0
    5.8960    1.2460   20.6030 C   0  0  0  0  0  0  0  0  0  0  0  0
    7.0150    0.3190   20.2310 C   0  0  0  0  0  0  0  0  0  0  0  0
    5.0600    1.7090   19.5790 C   0  0  0  0  0  0  0  0  0  0  0  0
    7.9080   -0.2060   21.2150 N   0  0  0  0  0  0  0  0  0  0  0  0
    7.1170   -0.0140   18.7610 C   0  0  0  0  0  0  0  0  0  0  0  0
    5.2950    1.3070   18.3110 C   0  0  0  0  0  0  0  0  0  0  0  0
    8.9340    0.6410   21.6390 C   0  0  0  0  0  0  0  0  0  0  0  0
    6.2640    0.4860   17.8670 N   0  0  0  0  0  0  0  0  0  0  0  0
    7.9380   -1.6810   21.1500 C   0  0  2  0  0  0  0  0  0  0  0  0
    9.1630    1.7930   21.2630 O   0  0  0  0  0  0  0  0  0  0  0  0
    9.8270   -0.0250   22.6650 C   0  0  0  0  0  0  0  0  0  0  0  0
    6.7300   -2.2800   20.8490 N   0  0  0  0  0  0  0  0  0  0  0  0
    8.7060   -2.1740   22.2080 C   0  0  1  0  0  0  0  0  0  0  0  0
    9.2500   -1.1730   23.1400 N   0  0  0  0  0  0  0  0  0  0  0  0
    6.5180   -3.1280   19.7720 C   0  0  0  0  0  0  0  0  0  0  0  0
    7.9920   -3.1050   23.1010 N   0  0  0  0  0  0  0  0  0  0  0  0
    6.0240   -2.6830   21.9120 C   0  0  0  0  0  0  0  0  0  0  0  0
    8.2960   -1.1120   24.2850 C   0  0  0  0  0  0  0  0  0  0  0  0
    7.6910   -2.5020   24.4320 C   0  0  2  0  0  0  0  0  0  0  0  0
    7.4930   -2.9900   18.6190 C   0  0  0  0  0  0  0  0  0  0  0  0
    5.6160   -3.9980   19.6940 O   0  0  0  0  0  0  0  0  0  0  0  0
    6.7740   -3.6630   22.5180 C   0  0  0  0  0  0  0  0  0  0  0  0
    8.0540   -0.0920   24.9240 O   0  0  0  0  0  0  0  0  0  0  0  0
    8.2920   -3.7110   25.1830 C   0  0  0  0  0  0  0  0  0  0  0  0
    9.3750   -4.3380   24.5780 C   0  0  0  0  0  0  0  0  0  0  0  0
    7.7300   -4.0860   26.3120 C   0  0  0  0  0  0  0  0  0  0  0  0
    9.8950   -5.4210   25.1880 N   0  0  0  0  0  0  0  0  0  0  0  0
    8.2760   -5.2900   27.0190 C   0  0  0  0  0  0  0  0  0  0  0  0
    7.5450   -5.8000   28.4720 Cl  0  0  0  0  0  0  0  0  0  0  0  0
    9.3670   -5.9600   26.4480 C   0  0  0  0  0  0  0  0  0  0  0  0
  1  2  1  0
  2  3  2  0
  2  4  1  0
  3  5  1  0
  3  6  1  0
  4  7  2  0
  5  8  1  0
  6  9  2  0
  7  9  1  0
 10  5  1  1
  8 11  2  0
  8 12  1  0
 10 13  1  0
 10 14  1  0
 12 15  1  0
 14 15  1  1
 13 16  1  0
 14 17  1  0
 13 18  1  0
 15 19  1  0
 17 20  1  0
 19 20  1  0
 16 21  1  0
 16 22  2  0
 17 23  1  0
 18 23  1  0
 19 24  2  0
 20 25  1  1
 25 26  2  0
 25 27  1  0
 26 28  1  0
 27 29  2  0
 29 30  1  0
 28 31  2  0
 29 31  1  0
M  END
