x1334-x2908
     RDKit          3D

 34 38  0  0  0  0  0  0  0  0999 V2000
    7.4460   -2.9180   18.6430 C   0  0  0  0  0  0  0  0  0  0  0  0
    6.5330   -3.0090   19.8300 C   0  0  0  0  0  0  0  0  0  0  0  0
    5.6200   -3.8870   19.7260 O   0  0  0  0  0  0  0  0  0  0  0  0
    6.8160   -2.0650   21.1030 C   0  0  2  0  0  0  0  0  0  0  0  0
    6.7560   -0.6350   20.9360 N   0  0  0  0  0  0  0  0  0  0  0  0
    8.3240   -2.0360   21.5360 C   0  0  1  0  0  0  0  0  0  0  0  0
    5.8400   -2.4870   22.0610 C   0  0  0  0  0  0  0  0  0  0  0  0
    8.6320   -0.7460   22.2820 N   0  0  0  0  0  0  0  0  0  0  0  0
    7.9200    0.1390   21.4060 C   0  0  0  0  0  0  0  0  0  0  0  0
    8.6840   -3.1430   22.4300 C   0  0  0  0  0  0  0  0  0  0  0  0
    6.5900   -3.1610   23.2380 C   0  0  0  0  0  0  0  0  0  0  0  0
    6.1430    0.0860   19.8360 C   0  0  0  0  0  0  0  0  0  0  0  0
    8.4220    1.4570   21.0970 O   0  0  0  0  0  0  0  0  0  0  0  0
    7.9820   -2.7940   23.4320 N   0  0  0  0  0  0  0  0  0  0  0  0
    6.7700    0.1150   18.6230 C   0  0  0  0  0  0  0  0  0  0  0  0
    4.9510    0.7750   20.0120 C   0  0  0  0  0  0  0  0  0  0  0  0
    9.9960   -0.5420   22.5540 C   0  0  0  0  0  0  0  0  0  0  0  0
    8.5620   -2.5780   24.6610 C   0  0  0  0  0  0  0  0  0  0  0  0
    4.1830    0.8180   21.2950 C   0  0  0  0  0  0  0  0  0  0  0  0
    6.3410    0.7680   17.5450 N   0  0  0  0  0  0  0  0  0  0  0  0
    4.4470    1.4800   18.9300 C   0  0  0  0  0  0  0  0  0  0  0  0
   10.3970    0.4910   23.4560 C   0  0  0  0  0  0  0  0  0  0  0  0
   10.8570   -1.3230   21.9370 C   0  0  0  0  0  0  0  0  0  0  0  0
    8.6360   -3.8010   25.5190 C   0  0  0  0  0  0  0  0  0  0  0  0
    5.0820    1.5230   17.6950 C   0  0  0  0  0  0  0  0  0  0  0  0
   11.7220    0.7750   23.7590 C   0  0  0  0  0  0  0  0  0  0  0  0
   12.2590   -1.0170   22.2560 C   0  0  0  0  0  0  0  0  0  0  0  0
   13.3310   -2.0000   21.4400 Cl  0  0  0  0  0  0  0  0  0  0  0  0
    9.4650   -4.9010   25.6230 C   0  0  0  0  0  0  0  0  0  0  0  0
    7.4400   -4.0380   26.7580 S   0  0  0  0  0  0  0  0  0  0  0  0
   12.7010    0.0650   23.1940 C   0  0  0  0  0  0  0  0  0  0  0  0
    8.0290   -5.4700   27.3160 C   0  0  0  0  0  0  0  0  0  0  0  0
    9.1680   -5.8620   26.6060 C   0  0  0  0  0  0  0  0  0  0  0  0
    7.1960   -6.2020   28.6060 Cl  0  0  0  0  0  0  0  0  0  0  0  0
  1  2  1  0
  2  3  2  0
  4  2  1  6
  4  5  1  0
  4  6  1  0
  4  7  1  0
  6  8  1  0
  5  9  1  0
  8  9  1  0
  6 10  1  1
  7 11  1  0
  5 12  1  0
  9 13  2  0
 10 14  1  0
 11 14  1  0
 12 15  2  0
 12 16  1  0
  8 17  1  0
 14 18  1  0
 16 19  1  0
 15 20  1  0
 16 21  2  0
 17 22  2  0
 17 23  1  0
 18 24  1  0
 20 25  2  0
 21 25  1  0
 22 26  1  0
 23 27  2  0
 27 28  1  0
 24 29  2  0
 24 30  1  0
 26 31  2  0
 27 31  1  0
 30 32  1  0
 29 33  1  0
 32 33  2  0
 32 34  1  0
M  END
