x1336-x2776
     RDKit          3D

 49 54  0  0  0  0  0  0  0  0999 V2000
    7.3590   -1.1600   20.8340 N   0  0  0  0  0  0  0  0  0  0  0  0
    6.8150    0.0760   21.2630 C   0  0  1  0  0  0  0  0  0  0  0  0
    7.8110    1.2300   21.6000 C   0  0  0  0  0  0  0  0  0  0  0  0
    7.0560   -2.5650   21.0780 C   0  0  2  0  0  0  0  0  0  0  0  0
    6.6800   -3.2610   19.8240 C   0  0  0  0  0  0  0  0  0  0  0  0
    6.1650    0.6300   20.0270 C   0  0  0  0  0  0  0  0  0  0  0  0
    5.8490   -2.8740   22.0160 C   0  0  0  0  0  0  0  0  0  0  0  0
    8.3020   -2.9930   21.7200 C   0  0  0  0  0  0  0  0  0  0  0  0
    7.4830    2.0340   22.5760 N   0  0  0  0  0  0  0  0  0  0  0  0
    8.8490    1.4130   20.9850 O   0  0  0  0  0  0  0  0  0  0  0  0
    5.6840   -4.0080   19.7110 O   0  0  0  0  0  0  0  0  0  0  0  0
    7.6170   -3.0470   18.6520 C   0  0  0  0  0  0  0  0  0  0  0  0
    5.0290    1.4160   20.0520 C   0  0  0  0  0  0  0  0  0  0  0  0
    6.8390    0.2850   18.7210 C   0  0  0  0  0  0  0  0  0  0  0  0
    8.5310   -2.3630   22.9960 C   0  0  2  0  0  0  0  0  0  0  0  0
    6.3820   -3.4070   23.3570 C   0  0  0  0  0  0  0  0  0  0  0  0
    6.3080    0.7770   17.5890 N   0  0  0  0  0  0  0  0  0  0  0  0
    4.5300    1.8880   18.8530 C   0  0  0  0  0  0  0  0  0  0  0  0
    8.3670    3.1300   22.9430 C   0  0  0  0  0  0  0  0  0  0  0  0
    9.1880   -1.1740   22.5980 C   0  0  0  0  0  0  0  0  0  0  0  0
    9.3900   -3.0060   23.7970 C   0  0  2  0  0  0  0  0  0  0  0  0
    7.2920   -2.3710   23.8080 N   0  0  0  0  0  0  0  0  0  0  0  0
    9.1570   -2.0350   24.8900 N   0  0  0  0  0  0  0  0  0  0  0  0
    7.6960   -2.1390   25.3750 S   0  0  0  0  0  0  0  0  0  0  0  0
    5.1510    1.5860   17.6480 C   0  0  0  0  0  0  0  0  0  0  0  0
    9.7720    3.0500   23.5740 C   0  0  0  0  0  0  0  0  0  0  0  0
    7.8860    4.4420   22.7000 C   0  0  0  0  0  0  0  0  0  0  0  0
   10.5800   -1.0580   22.6740 C   0  0  0  0  0  0  0  0  0  0  0  0
   10.5960   -3.2980   23.2060 C   0  0  0  0  0  0  0  0  0  0  0  0
   10.4380    1.7850   23.8920 C   0  0  0  0  0  0  0  0  0  0  0  0
    7.1490   -1.1570   26.2690 O   0  0  0  0  0  0  0  0  0  0  0  0
   10.4480    4.1930   23.8610 C   0  0  0  0  0  0  0  0  0  0  0  0
    8.6980    5.5500   23.0510 C   0  0  0  0  0  0  0  0  0  0  0  0
   11.3870   -2.0590   23.1430 C   0  0  2  0  0  0  0  0  0  0  0  0
    7.7190   -3.5330   26.4030 C   0  0  0  0  0  0  0  0  0  0  0  0
   12.3040   -1.7060   24.2790 C   0  0  1  0  0  0  0  0  0  0  0  0
    9.9570    5.4610   23.6260 C   0  0  0  0  0  0  0  0  0  0  0  0
    6.6590   -3.8920   27.2590 C   0  0  0  0  0  0  0  0  0  0  0  0
    8.8810   -4.3850   26.4460 C   0  0  0  0  0  0  0  0  0  0  0  0
   10.6290    6.6260   23.9230 O   0  0  0  0  0  0  0  0  0  0  0  0
   13.0960   -2.6520   24.3080 O   0  0  0  0  0  0  0  0  0  0  0  0
   12.8240   -0.4520   24.0860 C   0  0  0  0  0  0  0  0  0  0  0  0
   10.1900   -4.3210   25.7150 C   0  0  0  0  0  0  0  0  0  0  0  0
    6.6920   -4.9980   28.1100 C   0  0  0  0  0  0  0  0  0  0  0  0
    8.8550   -5.4600   27.2930 C   0  0  0  0  0  0  0  0  0  0  0  0
   11.7840    6.6750   24.7950 C   0  0  0  0  0  0  0  0  0  0  0  0
   13.3120   -3.1920   25.6020 C   0  0  0  0  0  0  0  0  0  0  0  0
    5.5400   -5.3390   29.0200 C   0  0  0  0  0  0  0  0  0  0  0  0
    7.7950   -5.7700   28.1080 C   0  0  0  0  0  0  0  0  0  0  0  0
  2  1  1  6
  2  3  1  0
  4  1  1  6
  4  5  1  0
  2  6  1  0
  4  7  1  0
  4  8  1  0
  3  9  1  0
  3 10  2  0
  5 11  2  0
  5 12  1  0
  6 13  2  0
  6 14  1  0
 15  8  1  6
  7 16  1  0
 14 17  2  0
 13 18  1  0
  9 19  1  0
 15 20  1  0
 15 21  1  0
 15 22  1  0
 16 22  1  0
 21 23  1  0
 22 24  1  0
 23 24  1  0
 17 25  1  0
 18 25  2  0
 19 26  2  0
 19 27  1  0
 20 28  2  0
 21 29  1  6
 26 30  1  0
 24 31  2  0
 26 32  1  0
 27 33  2  0
 34 28  1  1
 29 34  1  0
 24 35  1  0
 34 36  1  0
 32 37  2  0
 33 37  1  0
 35 38  2  0
 35 39  1  0
 37 40  1  0
 36 41  1  0
 36 42  1  6
 39 43  1  0
 38 44  1  0
 39 45  2  0
 40 46  1  0
 41 47  1  0
 44 48  1  0
 44 49  2  0
 45 49  1  0
M  END
