x1336-x0354
     RDKit          3D

 36 40  0  0  0  0  0  0  0  0999 V2000
    6.3430   -5.1780   29.0770 C   0  0  0  0  0  0  0  0  0  0  0  0
    7.2510   -4.8930   27.8660 C   0  0  0  0  0  0  0  0  0  0  0  0
    8.3340   -5.7020   27.5180 C   0  0  0  0  0  0  0  0  0  0  0  0
    6.9700   -3.7890   27.0940 C   0  0  0  0  0  0  0  0  0  0  0  0
    7.7120   -3.4480   25.9790 C   0  0  0  0  0  0  0  0  0  0  0  0
    9.1020   -5.3620   26.3720 C   0  0  0  0  0  0  0  0  0  0  0  0
    7.1990   -2.0610   25.1850 S   0  0  2  0  0  0  0  0  0  0  0  0
    8.7820   -4.2230   25.5940 C   0  0  0  0  0  0  0  0  0  0  0  0
    8.4080   -0.8910   25.4650 C   0  0  0  0  0  0  0  0  0  0  0  0
    6.0130   -1.6660   25.9000 O   0  0  0  0  0  0  0  0  0  0  0  0
    9.5030   -3.8830   24.4650 C   0  0  0  0  0  0  0  0  0  0  0  0
    7.1330   -2.5850   23.5900 N   0  0  0  0  0  0  0  0  0  0  0  0
    8.5650   -0.2480   26.8310 C   0  0  0  0  0  0  0  0  0  0  0  0
    6.0750   -3.5330   23.2950 C   0  0  0  0  0  0  0  0  0  0  0  0
    7.4700   -1.6360   22.6110 C   0  0  0  0  0  0  0  0  0  0  0  0
   10.2910   -2.5130   24.4420 C   0  0  2  0  0  0  0  0  0  0  0  0
    9.6460   -1.1850   24.7170 N   0  0  0  0  0  0  0  0  0  0  0  0
    7.6890   -0.4940   27.6780 O   0  0  0  0  0  0  0  0  0  0  0  0
    6.5250   -4.2280   22.1720 C   0  0  0  0  0  0  0  0  0  0  0  0
    7.9280   -2.2630   21.5000 C   0  0  0  0  0  0  0  0  0  0  0  0
   11.1770   -2.5360   23.2390 C   0  0  0  0  0  0  0  0  0  0  0  0
   10.6240   -0.2500   24.8150 C   0  0  0  0  0  0  0  0  0  0  0  0
    6.8620   -3.2120   21.1760 N   0  0  0  0  0  0  0  0  0  0  0  0
    7.1390    0.5780   28.4620 C   0  0  0  0  0  0  0  0  0  0  0  0
   11.9840   -1.2930   23.2840 N   0  0  0  0  0  0  0  0  0  0  0  0
   11.3830   -0.1270   23.6360 C   0  0  0  0  0  0  0  0  0  0  0  0
    6.4740   -3.4820   19.8860 C   0  0  0  0  0  0  0  0  0  0  0  0
   12.9780   -1.2030   22.3780 C   0  0  0  0  0  0  0  0  0  0  0  0
    7.6620    1.8670   28.4530 C   0  0  0  0  0  0  0  0  0  0  0  0
    6.0690    0.2680   29.2280 C   0  0  0  0  0  0  0  0  0  0  0  0
    5.4000   -4.0330   19.6480 O   0  0  0  0  0  0  0  0  0  0  0  0
    7.4830   -3.1050   18.7970 C   0  0  0  0  0  0  0  0  0  0  0  0
    7.1450    2.8850   29.2060 C   0  0  0  0  0  0  0  0  0  0  0  0
    5.5310    1.3050   30.0010 C   0  0  0  0  0  0  0  0  0  0  0  0
    6.0530    2.5990   30.0010 C   0  0  0  0  0  0  0  0  0  0  0  0
    5.4070    3.6800   30.8810 C   0  0  0  0  0  0  0  0  0  0  0  0
  1  2  1  0
  2  3  2  0
  2  4  1  0
  4  5  2  0
  3  6  1  0
  5  7  1  0
  5  8  1  0
  6  8  2  0
  7  9  2  0
  7 10  2  0
  8 11  1  0
  7 12  1  6
  9 13  1  0
 12 14  1  0
 12 15  1  0
 16 11  1  6
  9 17  1  0
 16 17  1  0
 13 18  1  0
 14 19  1  0
 15 20  1  0
 16 21  1  0
 17 22  1  0
 19 23  1  0
 20 23  1  0
 18 24  1  0
 21 25  1  0
 22 26  1  0
 25 26  1  0
 23 27  1  0
 25 28  1  0
 24 29  2  0
 24 30  1  0
 27 31  2  0
 27 32  1  0
 29 33  1  0
 30 34  2  0
 33 35  2  0
 34 35  1  0
 35 36  1  0
M  END
