x1336-x0540
     RDKit          3D

 40 43  0  0  0  0  0  0  0  0999 V2000
    6.0480   -5.5820   28.9740 C   0  0  0  0  0  0  0  0  0  0  0  0
    7.0260   -4.9670   27.9820 C   0  0  0  0  0  0  0  0  0  0  0  0
    8.2630   -5.6080   27.7830 C   0  0  0  0  0  0  0  0  0  0  0  0
    6.7270   -3.8180   27.2850 C   0  0  0  0  0  0  0  0  0  0  0  0
    7.7810   -3.3040   26.3180 C   0  0  0  0  0  0  0  0  0  0  0  0
    9.2300   -5.1310   26.8920 C   0  0  0  0  0  0  0  0  0  0  0  0
    7.4210   -1.8610   25.4490 S   0  0  0  0  0  0  0  0  0  0  0  0
    9.0050   -3.9480   26.1300 C   0  0  0  0  0  0  0  0  0  0  0  0
    8.5590   -0.9740   25.4550 O   0  0  0  0  0  0  0  0  0  0  0  0
    6.0980   -1.4160   25.8250 O   0  0  0  0  0  0  0  0  0  0  0  0
   10.1530   -3.5980   25.2510 C   0  0  0  0  0  0  0  0  0  0  0  0
    7.3040   -2.4300   23.8610 N   0  0  0  0  0  0  0  0  0  0  0  0
    6.4330   -3.4900   23.5450 C   0  0  0  0  0  0  0  0  0  0  0  0
    7.8210   -1.6560   22.8880 C   0  0  1  0  0  0  0  0  0  0  0  0
    6.5070   -4.1530   22.3450 C   0  0  0  0  0  0  0  0  0  0  0  0
    8.0520   -2.4350   21.5890 C   0  0  0  0  0  0  0  0  0  0  0  0
    6.8290   -0.4710   22.7510 C   0  0  0  0  0  0  0  0  0  0  0  0
    6.8210   -3.2160   21.2800 N   0  0  0  0  0  0  0  0  0  0  0  0
    5.3590   -0.7560   22.3650 C   0  0  0  0  0  0  0  0  0  0  0  0
    6.4010   -3.5250   19.9890 C   0  0  0  0  0  0  0  0  0  0  0  0
    4.7840    0.3190   21.6830 C   0  0  1  0  0  0  0  0  0  0  0  0
    5.3650   -4.1530   19.7440 O   0  0  0  0  0  0  0  0  0  0  0  0
    7.3440   -3.0990   18.8700 C   0  0  0  0  0  0  0  0  0  0  0  0
    4.9550    1.4490   22.5120 C   0  0  0  0  0  0  0  0  0  0  0  0
    5.2370    0.4470   20.3660 C   0  0  0  0  0  0  0  0  0  0  0  0
    3.9210    2.3220   22.5670 N   0  0  0  0  0  0  0  0  0  0  0  0
    6.3490   -0.2520   19.8970 C   0  0  0  0  0  0  0  0  0  0  0  0
    4.5890    1.2820   19.4670 C   0  0  0  0  0  0  0  0  0  0  0  0
    2.8890    2.3460   23.4480 C   0  0  0  0  0  0  0  0  0  0  0  0
    6.7410   -0.0800   18.5980 C   0  0  0  0  0  0  0  0  0  0  0  0
    5.0660    1.3880   18.1640 C   0  0  0  0  0  0  0  0  0  0  0  0
    2.8570    1.5400   24.3850 O   0  0  0  0  0  0  0  0  0  0  0  0
    1.9570    3.2680   23.2230 N   0  0  0  0  0  0  0  0  0  0  0  0
    6.1450    0.7220   17.6800 N   0  0  0  0  0  0  0  0  0  0  0  0
    0.7530    3.3280   23.9560 C   0  0  0  0  0  0  0  0  0  0  0  0
    0.5930    4.6270   24.4390 C   0  0  0  0  0  0  0  0  0  0  0  0
   -0.4090    2.8250   23.3520 C   0  0  0  0  0  0  0  0  0  0  0  0
   -0.6240    4.8440   25.0840 C   0  0  0  0  0  0  0  0  0  0  0  0
   -1.6550    3.3190   23.7380 C   0  0  0  0  0  0  0  0  0  0  0  0
   -1.7200    4.6010   24.2670 C   0  0  0  0  0  0  0  0  0  0  0  0
  1  2  1  0
  2  3  2  0
  2  4  1  0
  4  5  2  0
  3  6  1  0
  7  5  1  0
  5  8  1  0
  6  8  2  0
  7  9  2  0
  7 10  2  0
  8 11  1  0
  7 12  1  0
 12 13  1  0
 12 14  1  0
 13 15  1  0
 14 16  1  0
 14 17  1  6
 15 18  1  0
 16 18  1  0
 17 19  1  0
 18 20  1  0
 21 19  1  1
 20 22  2  0
 20 23  1  0
 21 24  1  0
 21 25  1  0
 24 26  1  0
 25 27  2  0
 25 28  1  0
 26 29  1  0
 27 30  1  0
 28 31  2  0
 29 32  2  0
 29 33  1  0
 30 34  2  0
 31 34  1  0
 33 35  1  0
 35 36  1  0
 35 37  1  0
 36 38  1  0
 37 39  1  0
 38 40  1  0
 39 40  1  0
M  END
