x1334-x0434
     RDKit          3D

 32 36  0  0  0  0  0  0  0  0999 V2000
    7.5410   -2.9870   18.7240 C   0  0  0  0  0  0  0  0  0  0  0  0
    6.6510   -3.0880   19.9230 C   0  0  0  0  0  0  0  0  0  0  0  0
    5.6990   -3.9280   19.7770 O   0  0  0  0  0  0  0  0  0  0  0  0
    7.0090   -2.2080   21.2180 C   0  0  2  0  0  0  0  0  0  0  0  0
    6.7720   -0.7480   21.0740 N   0  0  0  0  0  0  0  0  0  0  0  0
    8.5250   -2.2380   21.5210 C   0  0  1  0  0  0  0  0  0  0  0  0
    6.3060   -2.7160   22.2970 C   0  0  0  0  0  0  0  0  0  0  0  0
    8.1110   -0.1180   21.4440 C   0  0  0  0  0  0  0  0  0  0  0  0
    8.9350   -1.0120   22.0180 N   0  0  0  0  0  0  0  0  0  0  0  0
    8.8750   -3.1630   22.6020 C   0  0  0  0  0  0  0  0  0  0  0  0
    6.9940   -2.9000   23.7100 C   0  0  0  0  0  0  0  0  0  0  0  0
    6.1880   -0.0500   20.0080 C   0  0  0  0  0  0  0  0  0  0  0  0
    8.3910    1.0570   21.2050 O   0  0  0  0  0  0  0  0  0  0  0  0
    8.3080   -2.6100   23.7500 N   0  0  0  0  0  0  0  0  0  0  0  0
   10.2290   -0.7310   22.3850 C   0  0  0  0  0  0  0  0  0  0  0  0
    4.9780    0.6200   20.0290 C   0  0  0  0  0  0  0  0  0  0  0  0
    6.8150    0.1050   18.6700 C   0  0  0  0  0  0  0  0  0  0  0  0
    9.1540   -2.6260   24.8660 C   0  0  0  0  0  0  0  0  0  0  0  0
   10.4200    0.4910   23.3210 C   0  0  0  0  0  0  0  0  0  0  0  0
   11.3750   -1.4550   21.9750 C   0  0  0  0  0  0  0  0  0  0  0  0
    4.4480    1.3310   18.9670 C   0  0  0  0  0  0  0  0  0  0  0  0
    6.3160    0.7790   17.6610 N   0  0  0  0  0  0  0  0  0  0  0  0
    8.9790   -3.6780   25.6620 C   0  0  0  0  0  0  0  0  0  0  0  0
   11.6720    0.8220   23.7000 C   0  0  0  0  0  0  0  0  0  0  0  0
   12.7440   -1.0360   22.4310 C   0  0  0  0  0  0  0  0  0  0  0  0
    5.1140    1.4160   17.7870 C   0  0  0  0  0  0  0  0  0  0  0  0
    9.9360   -4.8560   25.7970 C   0  0  0  0  0  0  0  0  0  0  0  0
    7.5730   -3.8450   26.7070 S   0  0  0  0  0  0  0  0  0  0  0  0
   12.8800    0.0560   23.2550 C   0  0  0  0  0  0  0  0  0  0  0  0
    8.1840   -5.2860   27.2450 C   0  0  0  0  0  0  0  0  0  0  0  0
    9.4890   -5.7640   26.6780 C   0  0  0  0  0  0  0  0  0  0  0  0
    7.2360   -6.0880   28.4150 Cl  0  0  0  0  0  0  0  0  0  0  0  0
  1  2  1  0
  2  3  2  0
  4  2  1  6
  4  5  1  0
  4  6  1  0
  4  7  1  0
  5  8  1  0
  6  9  1  0
  8  9  1  0
  6 10  1  1
  7 11  1  0
  5 12  1  0
  8 13  2  0
 10 14  1  0
 11 14  1  0
  9 15  1  0
 12 16  2  0
 12 17  1  0
 14 18  1  0
 15 19  2  0
 15 20  1  0
 16 21  1  0
 17 22  2  0
 18 23  1  0
 19 24  1  0
 20 25  2  0
 21 26  2  0
 22 26  1  0
 23 27  2  0
 23 28  1  0
 24 29  2  0
 25 29  1  0
 28 30  1  0
 27 31  1  0
 30 31  2  0
 30 32  1  0
M  END
