x1334-x2646
     RDKit          3D

 34 38  0  0  0  0  0  0  0  0999 V2000
    7.4800   -2.9240   18.7190 C   0  0  0  0  0  0  0  0  0  0  0  0
    6.5220   -2.9880   19.8780 C   0  0  0  0  0  0  0  0  0  0  0  0
    5.5890   -3.8320   19.7060 O   0  0  0  0  0  0  0  0  0  0  0  0
    6.7390   -2.1270   21.2260 C   0  0  2  0  0  0  0  0  0  0  0  0
    6.5160   -0.6350   21.0550 N   0  0  0  0  0  0  0  0  0  0  0  0
    8.0730   -2.1030   21.4460 C   0  0  1  0  0  0  0  0  0  0  0  0
    6.0200   -2.8340   22.4520 C   0  0  0  0  0  0  0  0  0  0  0  0
    7.7060    0.0800   21.5830 C   0  0  0  0  0  0  0  0  0  0  0  0
    8.3700   -0.9310   22.4080 C   0  0  2  0  0  0  0  0  0  0  0  0
    8.5320   -3.1650   22.0870 C   0  0  0  0  0  0  0  0  0  0  0  0
    6.8520   -3.3780   23.4680 C   0  0  0  0  0  0  0  0  0  0  0  0
    6.0750    0.0720   19.9490 C   0  0  0  0  0  0  0  0  0  0  0  0
    8.0810    1.2350   21.3700 O   0  0  0  0  0  0  0  0  0  0  0  0
    8.1010   -3.0150   23.2660 N   0  0  0  0  0  0  0  0  0  0  0  0
    6.7860    0.0550   18.6200 C   0  0  0  0  0  0  0  0  0  0  0  0
    4.8410    0.9020   20.1280 C   0  0  0  0  0  0  0  0  0  0  0  0
    9.8360   -0.6200   22.6880 C   0  0  0  0  0  0  0  0  0  0  0  0
    9.0990   -3.1010   24.2170 C   0  0  0  0  0  0  0  0  0  0  0  0
    4.0380    1.0340   21.3570 C   0  0  0  0  0  0  0  0  0  0  0  0
    6.3340    0.7750   17.5870 N   0  0  0  0  0  0  0  0  0  0  0  0
    4.3940    1.6880   18.9050 C   0  0  0  0  0  0  0  0  0  0  0  0
   10.3350    0.4380   23.7020 C   0  0  0  0  0  0  0  0  0  0  0  0
   10.8990   -1.4190   21.8990 C   0  0  0  0  0  0  0  0  0  0  0  0
    8.8100   -4.0760   25.3630 C   0  0  0  0  0  0  0  0  0  0  0  0
    5.2220    1.5520   17.6740 C   0  0  0  0  0  0  0  0  0  0  0  0
   11.8200    0.6290   23.8440 C   0  0  0  0  0  0  0  0  0  0  0  0
   12.3010   -1.1220   22.1410 C   0  0  0  0  0  0  0  0  0  0  0  0
   13.3550   -2.0240   21.2160 Cl  0  0  0  0  0  0  0  0  0  0  0  0
    9.6120   -5.1720   25.7410 C   0  0  0  0  0  0  0  0  0  0  0  0
    7.4120   -4.0160   26.4660 S   0  0  0  0  0  0  0  0  0  0  0  0
   12.6890   -0.0830   23.1300 C   0  0  0  0  0  0  0  0  0  0  0  0
    7.9350   -5.3750   27.2940 C   0  0  0  0  0  0  0  0  0  0  0  0
    9.2010   -5.9510   26.7910 C   0  0  0  0  0  0  0  0  0  0  0  0
    7.0570   -6.0240   28.6100 Cl  0  0  0  0  0  0  0  0  0  0  0  0
  1  2  1  0
  2  3  2  0
  4  2  1  6
  4  5  1  0
  4  6  1  0
  4  7  1  0
  5  8  1  0
  6  9  1  0
  8  9  1  0
  6 10  1  1
  7 11  1  0
  5 12  1  0
  8 13  2  0
 10 14  1  0
 11 14  1  0
 12 15  2  0
 12 16  1  0
  9 17  1  6
 14 18  1  0
 16 19  1  0
 15 20  1  0
 16 21  2  0
 17 22  2  0
 17 23  1  0
 18 24  1  0
 20 25  2  0
 21 25  1  0
 22 26  1  0
 23 27  2  0
 27 28  1  0
 24 29  2  0
 24 30  1  0
 26 31  2  0
 27 31  1  0
 30 32  1  0
 29 33  1  0
 32 33  2  0
 32 34  1  0
M  END
