x1336-x1093
     RDKit          3D

 39 43  0  0  0  0  0  0  0  0999 V2000
    6.0220   -4.9870   28.9590 C   0  0  0  0  0  0  0  0  0  0  0  0
    7.0860   -4.6740   27.9510 C   0  0  0  0  0  0  0  0  0  0  0  0
    8.2290   -5.4760   27.8530 C   0  0  0  0  0  0  0  0  0  0  0  0
    6.9580   -3.5780   27.0940 C   0  0  0  0  0  0  0  0  0  0  0  0
    7.9050   -3.2220   26.1380 C   0  0  0  0  0  0  0  0  0  0  0  0
    9.2050   -5.1570   26.9090 C   0  0  0  0  0  0  0  0  0  0  0  0
    7.4820   -1.8030   25.2080 S   0  0  0  0  0  0  0  0  0  0  0  0
    9.0420   -4.0480   26.0710 C   0  0  0  0  0  0  0  0  0  0  0  0
    8.5060   -0.8070   25.3860 O   0  0  0  0  0  0  0  0  0  0  0  0
    6.0950   -1.5050   25.4890 O   0  0  0  0  0  0  0  0  0  0  0  0
   10.1130   -3.7360   25.0810 C   0  0  0  0  0  0  0  0  0  0  0  0
    7.5540   -2.3390   23.5700 N   0  0  0  0  0  0  0  0  0  0  0  0
    6.9110   -3.6910   23.5040 C   0  0  0  0  0  0  0  0  0  0  0  0
    7.0760   -1.3760   22.5090 C   0  0  1  0  0  0  0  0  0  0  0  0
    7.9880   -0.7580   21.3590 C   0  0  2  0  0  0  0  0  0  0  0  0
    7.0620   -4.2830   22.2700 C   0  0  0  0  0  0  0  0  0  0  0  0
    5.9410   -2.1170   21.8440 C   0  0  0  0  0  0  0  0  0  0  0  0
    8.9430    0.1950   21.7520 C   0  0  0  0  0  0  0  0  0  0  0  0
    6.3330   -3.4310   21.3600 N   0  0  0  0  0  0  0  0  0  0  0  0
    7.1030   -0.1970   20.2140 C   0  0  0  0  0  0  0  0  0  0  0  0
    6.0710   -3.7020   20.0470 C   0  0  0  0  0  0  0  0  0  0  0  0
    8.9510    1.3420   21.2600 O   0  0  0  0  0  0  0  0  0  0  0  0
    9.9460   -0.2040   22.7530 N   0  0  0  0  0  0  0  0  0  0  0  0
    7.3590   -0.4170   18.8750 C   0  0  0  0  0  0  0  0  0  0  0  0
    5.9640    0.5740   20.2600 C   0  0  0  0  0  0  0  0  0  0  0  0
    5.1180   -4.3840   19.7480 O   0  0  0  0  0  0  0  0  0  0  0  0
    7.0470   -3.1320   19.0160 C   0  0  0  0  0  0  0  0  0  0  0  0
   11.0100    0.5970   23.0100 C   0  0  0  0  0  0  0  0  0  0  0  0
   10.1590   -1.4930   23.0050 C   0  0  0  0  0  0  0  0  0  0  0  0
    6.3950    0.2190   18.1500 N   0  0  0  0  0  0  0  0  0  0  0  0
    5.5240    0.8350   18.9690 C   0  0  0  0  0  0  0  0  0  0  0  0
    5.2350    1.0980   21.3540 C   0  0  0  0  0  0  0  0  0  0  0  0
   11.6820   -0.0080   24.1130 C   0  0  0  0  0  0  0  0  0  0  0  0
   11.4410   -1.9340   22.9000 C   0  0  0  0  0  0  0  0  0  0  0  0
    4.4750    1.5360   18.5650 N   0  0  0  0  0  0  0  0  0  0  0  0
    4.1190    1.8370   20.9310 C   0  0  0  0  0  0  0  0  0  0  0  0
   12.1580   -1.2490   23.8020 N   0  0  0  0  0  0  0  0  0  0  0  0
    3.7970    2.0180   19.6010 C   0  0  0  0  0  0  0  0  0  0  0  0
   13.4500   -1.2020   23.4090 C   0  0  0  0  0  0  0  0  0  0  0  0
  1  2  1  0
  2  3  2  0
  2  4  1  0
  4  5  2  0
  3  6  1  0
  7  5  1  0
  5  8  1  0
  6  8  2  0
  7  9  2  0
  7 10  2  0
  8 11  1  0
  7 12  1  0
 12 13  1  0
 12 14  1  0
 14 15  1  0
 13 16  1  0
 14 17  1  6
 15 18  1  1
 16 19  1  0
 17 19  1  0
 15 20  1  0
 19 21  1  0
 18 22  2  0
 18 23  1  0
 20 24  2  0
 20 25  1  0
 21 26  2  0
 21 27  1  0
 23 28  1  0
 23 29  1  0
 24 30  1  0
 25 31  2  0
 30 31  1  0
 25 32  1  0
 28 33  1  0
 29 34  1  0
 31 35  1  0
 32 36  2  0
 33 37  1  0
 34 37  1  0
 35 38  2  0
 36 38  1  0
 37 39  1  0
M  END
