x1348-x2705-x2703
     RDKit          3D

 46 50  0  0  0  0  0  0  0  0999 V2000
    7.5600   -1.2520   22.1360 N   0  0  0  0  0  0  0  0  0  0  0  0
    6.9210    0.1090   21.7940 C   0  0  1  0  0  0  0  0  0  0  0  0
    7.9200    1.3040   21.8620 C   0  0  0  0  0  0  0  0  0  0  0  0
    7.7740   -2.3740   21.3470 C   0  0  0  0  0  0  0  0  0  0  0  0
    8.6860   -1.2200   22.9400 C   0  0  0  0  0  0  0  0  0  0  0  0
    6.7800   -3.3030   21.2510 N   0  0  0  0  0  0  0  0  0  0  0  0
    6.2240    0.3560   20.4430 C   0  0  0  0  0  0  0  0  0  0  0  0
    8.7740   -1.1940   24.3020 N   0  0  0  0  0  0  0  0  0  0  0  0
    9.9990   -1.2330   22.3380 C   0  0  0  0  0  0  0  0  0  0  0  0
    7.5400    2.2790   22.7590 N   0  0  0  0  0  0  0  0  0  0  0  0
    8.9370    1.4250   21.1750 O   0  0  0  0  0  0  0  0  0  0  0  0
    6.3490   -3.6080   19.9780 C   0  0  0  0  0  0  0  0  0  0  0  0
    4.8260    1.0130   20.3500 C   0  0  0  0  0  0  0  0  0  0  0  0
    6.9750   -0.0290   19.3560 C   0  0  0  0  0  0  0  0  0  0  0  0
   10.1210   -1.1880   24.5910 N   0  0  0  0  0  0  0  0  0  0  0  0
   11.0140   -1.2140   23.3940 C   0  0  0  0  0  0  0  0  0  0  0  0
    6.3530   -4.1140   22.3270 C   0  0  0  0  0  0  0  0  0  0  0  0
   12.5070   -1.2130   23.3760 C   0  0  0  0  0  0  0  0  0  0  0  0
    5.3040   -4.2120   19.7330 O   0  0  0  0  0  0  0  0  0  0  0  0
    7.2970   -3.1890   18.8640 C   0  0  0  0  0  0  0  0  0  0  0  0
    6.4620    0.1910   18.0050 N   0  0  0  0  0  0  0  0  0  0  0  0
    4.4080    1.1900   19.0230 C   0  0  0  0  0  0  0  0  0  0  0  0
    8.2520    3.4730   22.9280 C   0  0  0  0  0  0  0  0  0  0  0  0
    6.9220   -4.1620   23.6920 N   0  0  0  0  0  0  0  0  0  0  0  0
    4.9780   -5.2090   22.0980 S   0  0  0  0  0  0  0  0  0  0  0  0
   12.8840    0.1240   23.3390 C   0  0  0  0  0  0  0  0  0  0  0  0
   13.0480   -1.9940   24.5650 C   0  0  0  0  0  0  0  0  0  0  0  0
   12.9800   -1.8950   22.0760 C   0  0  0  0  0  0  0  0  0  0  0  0
    5.1360    0.8280   17.8900 C   0  0  0  0  0  0  0  0  0  0  0  0
    9.5340    3.4740   23.4960 C   0  0  0  0  0  0  0  0  0  0  0  0
    7.6300    4.6640   22.5030 C   0  0  0  0  0  0  0  0  0  0  0  0
    6.1250   -5.0970   24.4900 C   0  0  0  0  0  0  0  0  0  0  0  0
    4.9800   -5.7580   23.7130 C   0  0  0  0  0  0  0  0  0  0  0  0
   10.2050    2.1690   23.9470 C   0  0  0  0  0  0  0  0  0  0  0  0
    6.3160    4.6090   21.9210 C   0  0  0  0  0  0  0  0  0  0  0  0
   12.2310   -2.9820   25.0440 C   0  0  0  0  0  0  0  0  0  0  0  0
   10.3250    4.7690   23.6900 C   0  0  0  0  0  0  0  0  0  0  0  0
    8.2910    5.8850   22.6480 C   0  0  0  0  0  0  0  0  0  0  0  0
    6.4120   -5.3310   25.8400 C   0  0  0  0  0  0  0  0  0  0  0  0
    4.1130   -6.7230   24.5040 C   0  0  0  0  0  0  0  0  0  0  0  0
    9.2600    1.5080   24.9770 C   0  0  0  0  0  0  0  0  0  0  0  0
    7.4670   -4.7160   26.4630 O   0  0  0  0  0  0  0  0  0  0  0  0
    9.5600    6.0300   23.1970 C   0  0  0  0  0  0  0  0  0  0  0  0
    4.4120   -6.9680   25.9930 C   0  0  0  0  0  0  0  0  0  0  0  0
    5.6160   -6.2130   26.6050 C   0  0  0  0  0  0  0  0  0  0  0  0
    8.0440   -5.5950   27.4400 C   0  0  0  0  0  0  0  0  0  0  0  0
  1  2  1  0
  2  3  1  6
  1  4  1  0
  1  5  1  0
  4  6  1  0
  2  7  1  0
  5  8  2  0
  5  9  1  0
  3 10  1  0
  3 11  2  0
  6 12  1  0
  7 13  2  0
  7 14  1  0
  8 15  1  0
  9 16  2  0
 15 16  1  0
  6 17  1  0
 16 18  1  0
 12 19  2  0
 12 20  1  0
 14 21  2  0
 13 22  1  0
 10 23  1  0
 17 24  2  0
 17 25  1  0
 18 26  1  0
 18 27  1  0
 18 28  1  0
 21 29  1  0
 22 29  2  0
 23 30  2  0
 23 31  1  0
 24 32  1  0
 25 33  1  0
 32 33  2  0
 30 34  1  0
 31 35  1  0
 27 36  1  0
 30 37  1  0
 31 38  2  0
 32 39  1  0
 33 40  1  0
 34 41  1  0
 39 42  1  0
 37 43  2  0
 38 43  1  0
 40 44  2  0
 39 45  2  0
 44 45  1  0
 42 46  1  0
M  END
