x1348-x0540-x3115
     RDKit          3D

 53 57  0  0  0  0  0  0  0  0999 V2000
    7.3890   -1.3000   21.7470 N   0  0  0  0  0  0  0  0  0  0  0  0
    6.8720    0.0460   21.5470 C   0  0  1  0  0  0  0  0  0  0  0  0
    7.9110    1.1570   21.8380 C   0  0  0  0  0  0  0  0  0  0  0  0
    6.4350   -2.2150   21.9690 C   0  0  0  0  0  0  0  0  0  0  0  0
    8.6080   -1.5050   22.4290 C   0  0  0  0  0  0  0  0  0  0  0  0
    6.6650   -3.5770   21.5470 N   0  0  0  0  0  0  0  0  0  0  0  0
    6.2540    0.3550   20.2280 C   0  0  0  0  0  0  0  0  0  0  0  0
    9.8010   -1.2750   21.7620 C   0  0  0  0  0  0  0  0  0  0  0  0
    8.6480   -1.9250   23.7500 C   0  0  0  0  0  0  0  0  0  0  0  0
    7.6010    1.7870   22.9710 N   0  0  0  0  0  0  0  0  0  0  0  0
    8.8770    1.4510   21.1140 O   0  0  0  0  0  0  0  0  0  0  0  0
    6.3320   -3.8570   20.2310 C   0  0  0  0  0  0  0  0  0  0  0  0
    4.9660    0.9060   20.2040 C   0  0  0  0  0  0  0  0  0  0  0  0
    6.9000    0.1410   19.0300 C   0  0  0  0  0  0  0  0  0  0  0  0
   11.0220   -1.4630   22.3990 C   0  0  0  0  0  0  0  0  0  0  0  0
    9.8560   -2.1030   24.3720 C   0  0  0  0  0  0  0  0  0  0  0  0
    6.2330   -4.4230   22.5500 C   0  0  0  0  0  0  0  0  0  0  0  0
    8.1980    2.9510   23.2030 C   0  0  0  0  0  0  0  0  0  0  0  0
    4.2340    1.1120   21.4070 C   0  0  0  0  0  0  0  0  0  0  0  0
    5.4030   -4.5930   19.9200 O   0  0  0  0  0  0  0  0  0  0  0  0
    7.1720   -3.1860   19.1690 C   0  0  0  0  0  0  0  0  0  0  0  0
    6.3460    0.4910   17.7210 N   0  0  0  0  0  0  0  0  0  0  0  0
    4.4440    1.2380   18.9830 C   0  0  0  0  0  0  0  0  0  0  0  0
   11.0750   -1.8800   23.7240 C   0  0  0  0  0  0  0  0  0  0  0  0
    6.7640   -4.3790   23.7820 N   0  0  0  0  0  0  0  0  0  0  0  0
    4.8620   -5.5940   22.2330 S   0  0  0  0  0  0  0  0  0  0  0  0
    7.8920    4.1080   22.5170 C   0  0  0  0  0  0  0  0  0  0  0  0
   12.3100   -2.0520   24.3520 C   0  0  0  0  0  0  0  0  0  0  0  0
    4.8630    1.9630   22.2890 C   0  0  0  0  0  0  0  0  0  0  0  0
    5.1080    1.0480   17.8080 C   0  0  0  0  0  0  0  0  0  0  0  0
    6.0870   -5.2190   24.5480 C   0  0  0  0  0  0  0  0  0  0  0  0
    4.9850   -5.9940   23.9250 C   0  0  0  0  0  0  0  0  0  0  0  0
    8.4200    5.1550   22.9400 O   0  0  0  0  0  0  0  0  0  0  0  0
   13.4120   -2.3570   23.3360 C   0  0  0  0  0  0  0  0  0  0  0  0
   12.1680   -3.1600   25.3280 C   0  0  0  0  0  0  0  0  0  0  0  0
   12.6210   -0.7390   25.0620 C   0  0  0  0  0  0  0  0  0  0  0  0
    4.0070    2.9880   22.8700 N   0  0  0  0  0  0  0  0  0  0  0  0
    6.4140   -5.3380   25.8850 C   0  0  0  0  0  0  0  0  0  0  0  0
    4.2160   -6.8760   24.6590 C   0  0  0  0  0  0  0  0  0  0  0  0
    8.1560    6.3040   22.1330 C   0  0  0  0  0  0  0  0  0  0  0  0
    2.7730    2.5450   23.5250 C   0  0  0  0  0  0  0  0  0  0  0  0
    7.4570   -4.5940   26.4120 O   0  0  0  0  0  0  0  0  0  0  0  0
    4.4880   -7.0260   26.0170 C   0  0  0  0  0  0  0  0  0  0  0  0
    5.6510   -6.2160   26.6620 C   0  0  0  0  0  0  0  0  0  0  0  0
    2.8450    1.5290   24.5360 O   0  0  0  0  0  0  0  0  0  0  0  0
    1.6670    3.1590   23.0890 N   0  0  0  0  0  0  0  0  0  0  0  0
    7.9400   -5.0820   27.6600 C   0  0  0  0  0  0  0  0  0  0  0  0
    0.5110    3.2750   23.9710 C   0  0  0  0  0  0  0  0  0  0  0  0
    0.5100    4.5740   24.5530 C   0  0  0  0  0  0  0  0  0  0  0  0
   -0.6820    2.8830   23.3130 C   0  0  0  0  0  0  0  0  0  0  0  0
   -0.8440    4.9740   25.1150 C   0  0  0  0  0  0  0  0  0  0  0  0
   -1.8780    3.3010   23.8920 C   0  0  0  0  0  0  0  0  0  0  0  0
   -1.8980    4.6330   24.2740 C   0  0  0  0  0  0  0  0  0  0  0  0
  1  2  1  0
  2  3  1  6
  1  4  1  0
  1  5  1  0
  4  6  1  0
  2  7  1  0
  5  8  2  0
  5  9  1  0
  3 10  1  0
  3 11  2  0
  6 12  1  0
  7 13  1  0
  7 14  2  0
  8 15  1  0
  9 16  2  0
  6 17  1  0
 10 18  1  0
 13 19  1  0
 12 20  2  0
 12 21  1  0
 14 22  1  0
 13 23  2  0
 15 24  2  0
 16 24  1  0
 17 25  2  0
 17 26  1  0
 18 27  1  0
 24 28  1  0
 19 29  1  0
 22 30  2  0
 23 30  1  0
 25 31  1  0
 26 32  1  0
 31 32  2  0
 27 33  1  0
 28 34  1  0
 28 35  1  0
 28 36  1  0
 29 37  1  0
 31 38  1  0
 32 39  1  0
 33 40  1  0
 37 41  1  0
 38 42  1  0
 39 43  2  0
 38 44  2  0
 43 44  1  0
 41 45  2  0
 41 46  1  0
 42 47  1  0
 46 48  1  0
 48 49  1  0
 48 50  1  0
 49 51  1  0
 50 52  1  0
 51 53  1  0
 52 53  1  0
M  END
