x1348-x0104
     RDKit          3D

 36 40  0  0  0  0  0  0  0  0999 V2000
    7.3500   -3.7830   21.4670 N   0  0  0  0  0  0  0  0  0  0  0  0
    6.8060   -3.7230   20.1510 C   0  0  0  0  0  0  0  0  0  0  0  0
    5.6740   -4.1290   19.8110 O   0  0  0  0  0  0  0  0  0  0  0  0
    8.6200   -3.0330   21.8460 C   0  0  0  0  0  0  0  0  0  0  0  0
    6.6820   -4.4920   22.4080 C   0  0  0  0  0  0  0  0  0  0  0  0
    7.7220   -3.1720   19.0850 C   0  0  0  0  0  0  0  0  0  0  0  0
    9.2730   -3.4460   23.2140 C   0  0  0  0  0  0  0  0  0  0  0  0
    7.0200   -4.4040   23.8390 N   0  0  0  0  0  0  0  0  0  0  0  0
    5.3270   -5.5860   21.9740 S   0  0  0  0  0  0  0  0  0  0  0  0
   10.5800   -3.1460   23.6710 C   0  0  0  0  0  0  0  0  0  0  0  0
    6.0970   -5.2740   24.5570 C   0  0  0  0  0  0  0  0  0  0  0  0
    5.1220   -5.9810   23.7290 C   0  0  0  0  0  0  0  0  0  0  0  0
   11.6180   -2.6300   22.9090 C   0  0  2  0  0  0  0  0  0  0  0  0
    6.1340   -5.4410   26.0580 C   0  0  0  0  0  0  0  0  0  0  0  0
    4.2170   -6.8140   24.3420 C   0  0  0  0  0  0  0  0  0  0  0  0
    7.0440   -4.7930   26.8600 O   0  0  0  0  0  0  0  0  0  0  0  0
   12.9620   -2.5480   23.3240 C   0  0  0  0  0  0  0  0  0  0  0  0
    4.2030   -7.0010   25.7440 C   0  0  0  0  0  0  0  0  0  0  0  0
    5.1580   -6.3160   26.5810 C   0  0  0  0  0  0  0  0  0  0  0  0
   11.4550   -1.1560   22.8820 C   0  0  0  0  0  0  0  0  0  0  0  0
    7.6010   -5.7260   27.7950 C   0  0  0  0  0  0  0  0  0  0  0  0
   13.5660   -1.6400   22.3820 O   0  0  0  0  0  0  0  0  0  0  0  0
   10.2620   -0.3020   23.1160 C   0  0  0  0  0  0  0  0  0  0  0  0
   12.6920   -0.6410   22.6010 C   0  0  0  0  0  0  0  0  0  0  0  0
   10.4340    1.1310   22.9310 C   0  0  1  0  0  0  0  0  0  0  0  0
   12.9460    0.7260   22.6030 C   0  0  0  0  0  0  0  0  0  0  0  0
    9.6390    2.1890   23.5190 N   0  0  0  0  0  0  0  0  0  0  0  0
   11.8650    1.6530   22.8690 C   0  0  0  0  0  0  0  0  0  0  0  0
   11.8920    3.0010   23.0070 C   0  0  0  0  0  0  0  0  0  0  0  0
   10.5730    3.2680   23.4350 C   0  0  0  0  0  0  0  0  0  0  0  0
   12.8950    4.1040   22.8890 C   0  0  0  0  0  0  0  0  0  0  0  0
   12.4890    5.5150   23.2210 C   0  0  0  0  0  0  0  0  0  0  0  0
   11.2750    5.9470   22.5230 N   0  0  0  0  0  0  0  0  0  0  0  0
   10.1430    6.3450   23.2490 C   0  0  0  0  0  0  0  0  0  0  0  0
    8.8300    6.6570   22.5530 C   0  0  0  0  0  0  0  0  0  0  0  0
   10.2020    6.4400   24.4800 O   0  0  0  0  0  0  0  0  0  0  0  0
  1  2  1  0
  2  3  2  0
  1  4  1  0
  1  5  1  0
  2  6  1  0
  4  7  1  0
  5  8  2  0
  5  9  1  0
  7 10  1  0
  8 11  1  0
  9 12  1  0
 11 12  2  0
 13 10  1  1
 11 14  1  0
 12 15  1  0
 14 16  1  0
 13 17  1  0
 15 18  2  0
 14 19  2  0
 18 19  1  0
 13 20  1  0
 16 21  1  0
 17 22  1  0
 20 23  2  0
 20 24  1  0
 22 24  1  0
 25 23  1  1
 24 26  2  0
 25 27  1  0
 25 28  1  0
 26 28  1  0
 28 29  2  0
 27 30  2  0
 29 30  1  0
 29 31  1  0
 31 32  1  0
 32 33  1  0
 33 34  1  0
 34 35  1  0
 34 36  2  0
M  END
