x1348-x2703-x3117
     RDKit          3D

 46 50  0  0  0  0  0  0  0  0999 V2000
    7.2550   -1.1760   21.7690 N   0  0  0  0  0  0  0  0  0  0  0  0
    6.7960    0.0960   21.5760 C   0  0  1  0  0  0  0  0  0  0  0  0
    7.8240    1.1670   21.8070 C   0  0  0  0  0  0  0  0  0  0  0  0
    6.3150   -2.2130   21.8760 C   0  0  0  0  0  0  0  0  0  0  0  0
    8.4400   -1.4260   22.4030 C   0  0  0  0  0  0  0  0  0  0  0  0
    6.7180   -3.4210   21.5600 N   0  0  0  0  0  0  0  0  0  0  0  0
    6.2490    0.4150   20.2240 C   0  0  0  0  0  0  0  0  0  0  0  0
    8.4880   -1.8640   23.8350 C   0  0  0  0  0  0  0  0  0  0  0  0
    9.5930   -1.2670   21.7450 C   0  0  0  0  0  0  0  0  0  0  0  0
    7.5870    2.0220   22.8510 N   0  0  0  0  0  0  0  0  0  0  0  0
    8.7920    1.3040   21.0640 O   0  0  0  0  0  0  0  0  0  0  0  0
    6.4000   -3.7300   20.2310 C   0  0  0  0  0  0  0  0  0  0  0  0
    4.9660    1.1880   20.3240 C   0  0  0  0  0  0  0  0  0  0  0  0
    6.8290    0.0800   18.8750 C   0  0  0  0  0  0  0  0  0  0  0  0
   10.9350   -1.4890   22.3710 N   0  0  0  0  0  0  0  0  0  0  0  0
    9.8010   -2.0860   24.4810 C   0  0  0  0  0  0  0  0  0  0  0  0
    6.2690   -4.2980   22.5560 C   0  0  0  0  0  0  0  0  0  0  0  0
    5.4390   -4.4380   19.8950 O   0  0  0  0  0  0  0  0  0  0  0  0
    7.2960   -3.1610   19.1440 C   0  0  0  0  0  0  0  0  0  0  0  0
    6.2540    0.4600   17.7270 N   0  0  0  0  0  0  0  0  0  0  0  0
    4.4260    1.5520   18.9630 C   0  0  0  0  0  0  0  0  0  0  0  0
   11.0790   -1.8920   23.7640 C   0  0  0  0  0  0  0  0  0  0  0  0
    8.1670    3.2940   22.9350 C   0  0  0  0  0  0  0  0  0  0  0  0
    6.8070   -4.3350   23.8050 N   0  0  0  0  0  0  0  0  0  0  0  0
    4.8680   -5.4170   22.2390 S   0  0  0  0  0  0  0  0  0  0  0  0
   12.4730   -2.0180   24.2620 C   0  0  0  0  0  0  0  0  0  0  0  0
    5.0990    1.1740   17.8020 C   0  0  0  0  0  0  0  0  0  0  0  0
    9.4450    3.3240   23.5030 C   0  0  0  0  0  0  0  0  0  0  0  0
    7.5070    4.5600   22.4550 C   0  0  0  0  0  0  0  0  0  0  0  0
    6.0640   -5.2270   24.5580 C   0  0  0  0  0  0  0  0  0  0  0  0
    4.9070   -5.9620   23.9190 C   0  0  0  0  0  0  0  0  0  0  0  0
   10.1400    2.0610   23.9860 C   0  0  0  0  0  0  0  0  0  0  0  0
    6.3080    4.7110   21.8880 C   0  0  0  0  0  0  0  0  0  0  0  0
   12.9070   -3.0530   25.2600 C   0  0  0  0  0  0  0  0  0  0  0  0
   12.7520   -0.6470   24.8640 C   0  0  0  0  0  0  0  0  0  0  0  0
   13.3990   -2.1610   23.0410 C   0  0  0  0  0  0  0  0  0  0  0  0
   10.1210    4.5430   23.6360 C   0  0  0  0  0  0  0  0  0  0  0  0
    8.2740    5.7200   22.6360 C   0  0  0  0  0  0  0  0  0  0  0  0
    6.3300   -5.4520   25.8420 C   0  0  0  0  0  0  0  0  0  0  0  0
    4.0970   -6.8720   24.6460 C   0  0  0  0  0  0  0  0  0  0  0  0
    9.3100    1.2520   24.9750 C   0  0  0  0  0  0  0  0  0  0  0  0
    7.3880   -4.7920   26.3940 O   0  0  0  0  0  0  0  0  0  0  0  0
    9.5390    5.7310   23.2060 C   0  0  0  0  0  0  0  0  0  0  0  0
    4.4160   -7.0480   25.9870 C   0  0  0  0  0  0  0  0  0  0  0  0
    5.5250   -6.3370   26.5530 C   0  0  0  0  0  0  0  0  0  0  0  0
    8.1060   -5.5500   27.3680 C   0  0  0  0  0  0  0  0  0  0  0  0
  1  2  1  0
  2  3  1  6
  1  4  1  0
  1  5  1  0
  4  6  1  0
  2  7  1  0
  5  8  2  0
  5  9  1  0
  3 10  1  0
  3 11  2  0
  6 12  1  0
  7 13  2  0
  7 14  1  0
  9 15  2  0
  8 16  1  0
  6 17  1  0
 12 18  2  0
 12 19  1  0
 14 20  2  0
 13 21  1  0
 15 22  1  0
 16 22  2  0
 10 23  1  0
 17 24  2  0
 17 25  1  0
 22 26  1  0
 20 27  1  0
 21 27  2  0
 23 28  2  0
 23 29  1  0
 24 30  1  0
 25 31  1  0
 30 31  2  0
 28 32  1  0
 29 33  1  0
 26 34  1  0
 26 35  1  0
 26 36  1  0
 28 37  1  0
 29 38  2  0
 30 39  1  0
 31 40  1  0
 32 41  1  0
 39 42  1  0
 37 43  2  0
 38 43  1  0
 40 44  2  0
 39 45  2  0
 44 45  1  0
 42 46  1  0
M  END
