x1348-x0540-x2694-x2705
     RDKit          3D

 60 65  0  0  0  0  0  0  0  0999 V2000
    7.6120   -1.2030   21.7680 N   0  0  0  0  0  0  0  0  0  0  0  0
    7.1250    0.2040   21.6830 C   0  0  1  0  0  0  0  0  0  0  0  0
    8.2420    1.3160   21.8710 C   0  0  0  0  0  0  0  0  0  0  0  0
    6.5830   -2.0910   21.9010 C   0  0  0  0  0  0  0  0  0  0  0  0
    8.7020   -1.2730   22.7390 C   0  0  0  0  0  0  0  0  0  0  0  0
    6.7260   -3.4870   21.5020 N   0  0  0  0  0  0  0  0  0  0  0  0
    6.3350    0.4400   20.3980 C   0  0  0  0  0  0  0  0  0  0  0  0
    8.8180   -1.3230   24.2120 N   0  0  0  0  0  0  0  0  0  0  0  0
    9.9740   -1.3120   22.2120 C   0  0  0  0  0  0  0  0  0  0  0  0
    7.8310    2.5200   22.4190 N   0  0  0  0  0  0  0  0  0  0  0  0
    9.3950    1.1370   21.5000 O   0  0  0  0  0  0  0  0  0  0  0  0
    6.4120   -3.7400   20.1790 C   0  0  0  0  0  0  0  0  0  0  0  0
    4.9750    0.8140   20.3870 C   0  0  0  0  0  0  0  0  0  0  0  0
    6.9290    0.2960   19.1580 C   0  0  0  0  0  0  0  0  0  0  0  0
   10.2100   -1.3840   24.4260 O   0  0  0  0  0  0  0  0  0  0  0  0
   10.9040   -1.3790   23.2440 C   0  0  0  0  0  0  0  0  0  0  0  0
    6.2720   -4.3320   22.5140 C   0  0  0  0  0  0  0  0  0  0  0  0
   12.4120   -1.4320   23.1880 C   0  0  0  0  0  0  0  0  0  0  0  0
    4.1950    0.9460   21.5720 C   0  0  0  0  0  0  0  0  0  0  0  0
    5.4260   -4.4050   19.8610 O   0  0  0  0  0  0  0  0  0  0  0  0
    7.3310   -3.1680   19.1370 C   0  0  0  0  0  0  0  0  0  0  0  0
    6.3240    0.5350   17.8440 N   0  0  0  0  0  0  0  0  0  0  0  0
    4.3910    1.0490   19.1550 C   0  0  0  0  0  0  0  0  0  0  0  0
    8.7160    3.5720   22.8870 C   0  0  0  0  0  0  0  0  0  0  0  0
    6.7560   -4.3250   23.7440 N   0  0  0  0  0  0  0  0  0  0  0  0
    4.9870   -5.4140   22.1900 S   0  0  0  0  0  0  0  0  0  0  0  0
    7.0730    3.2100   21.3900 C   0  0  0  0  0  0  0  0  0  0  0  0
   12.9280    0.0090   23.3020 C   0  0  0  0  0  0  0  0  0  0  0  0
   12.8780   -2.0230   21.8260 C   0  0  0  0  0  0  0  0  0  0  0  0
   12.9730   -2.2760   24.3540 C   0  0  0  0  0  0  0  0  0  0  0  0
    4.7670    1.6040   22.6280 C   0  0  0  0  0  0  0  0  0  0  0  0
    5.0370    0.9250   17.9540 C   0  0  0  0  0  0  0  0  0  0  0  0
    9.9090    3.3520   23.5720 C   0  0  0  0  0  0  0  0  0  0  0  0
    8.3820    4.9270   22.6340 C   0  0  0  0  0  0  0  0  0  0  0  0
    6.0610   -5.1950   24.5670 C   0  0  0  0  0  0  0  0  0  0  0  0
    4.9640   -5.9290   23.8240 C   0  0  0  0  0  0  0  0  0  0  0  0
    5.9430    3.9750   21.6980 C   0  0  0  0  0  0  0  0  0  0  0  0
   10.3850    1.9750   23.9340 C   0  0  0  0  0  0  0  0  0  0  0  0
    4.0070    2.7550   23.1030 N   0  0  0  0  0  0  0  0  0  0  0  0
   10.7480    4.5260   23.9630 C   0  0  0  0  0  0  0  0  0  0  0  0
    9.1880    5.9870   23.0290 C   0  0  0  0  0  0  0  0  0  0  0  0
    6.2300   -5.4610   25.9200 C   0  0  0  0  0  0  0  0  0  0  0  0
    4.1530   -6.8310   24.4870 C   0  0  0  0  0  0  0  0  0  0  0  0
    9.4020    1.2750   24.8190 C   0  0  0  0  0  0  0  0  0  0  0  0
    2.7130    2.4750   23.7120 C   0  0  0  0  0  0  0  0  0  0  0  0
    7.2280   -4.8180   26.6190 O   0  0  0  0  0  0  0  0  0  0  0  0
   10.3730    5.7670   23.6930 C   0  0  0  0  0  0  0  0  0  0  0  0
    4.3660   -7.0390   25.8520 C   0  0  0  0  0  0  0  0  0  0  0  0
    5.3740   -6.3760   26.5530 C   0  0  0  0  0  0  0  0  0  0  0  0
   11.2170    6.7500   24.1100 O   0  0  0  0  0  0  0  0  0  0  0  0
    2.6540    1.4420   24.6990 O   0  0  0  0  0  0  0  0  0  0  0  0
    1.6920    3.2290   23.2790 N   0  0  0  0  0  0  0  0  0  0  0  0
    7.6950   -5.5560   27.7520 C   0  0  0  0  0  0  0  0  0  0  0  0
   11.8610    6.5820   25.3620 C   0  0  0  0  0  0  0  0  0  0  0  0
    0.4690    3.2980   24.0600 C   0  0  0  0  0  0  0  0  0  0  0  0
    0.4600    4.5770   24.6290 C   0  0  0  0  0  0  0  0  0  0  0  0
   -0.5730    3.0500   23.1840 C   0  0  0  0  0  0  0  0  0  0  0  0
   -0.7930    5.0170   25.0810 C   0  0  0  0  0  0  0  0  0  0  0  0
   -1.7920    3.3170   23.8070 C   0  0  0  0  0  0  0  0  0  0  0  0
   -1.8740    4.6270   24.2830 C   0  0  0  0  0  0  0  0  0  0  0  0
  1  2  1  0
  2  3  1  6
  1  4  1  0
  1  5  1  0
  4  6  1  0
  2  7  1  0
  5  8  2  0
  5  9  1  0
  3 10  1  0
  3 11  2  0
  6 12  1  0
  7 13  1  0
  7 14  2  0
  8 15  1  0
  9 16  2  0
 15 16  1  0
  6 17  1  0
 16 18  1  0
 13 19  1  0
 12 20  2  0
 12 21  1  0
 14 22  1  0
 13 23  2  0
 10 24  1  0
 17 25  2  0
 17 26  1  0
 10 27  1  0
 18 28  1  0
 18 29  1  0
 18 30  1  0
 19 31  1  0
 22 32  2  0
 23 32  1  0
 24 33  2  0
 24 34  1  0
 25 35  1  0
 26 36  1  0
 35 36  2  0
 27 37  1  0
 33 38  1  0
 31 39  1  0
 33 40  1  0
 34 41  2  0
 35 42  1  0
 36 43  1  0
 38 44  1  0
 39 45  1  0
 42 46  1  0
 40 47  2  0
 41 47  1  0
 43 48  2  0
 42 49  2  0
 48 49  1  0
 47 50  1  0
 45 51  2  0
 45 52  1  0
 46 53  1  0
 50 54  1  0
 52 55  1  0
 55 56  1  0
 55 57  1  0
 56 58  1  0
 57 59  1  0
 58 60  1  0
 59 60  1  0
M  END
