x1348-x2705-x3117-x2776
     RDKit          3D

 48 52  0  0  0  0  0  0  0  0999 V2000
    7.3250   -1.0680   21.7680 N   0  0  0  0  0  0  0  0  0  0  0  0
    6.9470    0.2450   21.5770 C   0  0  1  0  0  0  0  0  0  0  0  0
    7.9880    1.3300   21.7600 C   0  0  0  0  0  0  0  0  0  0  0  0
    6.2990   -2.0580   21.7620 C   0  0  0  0  0  0  0  0  0  0  0  0
    8.5160   -1.3110   22.4700 C   0  0  0  0  0  0  0  0  0  0  0  0
    6.7010   -3.3550   21.4770 N   0  0  0  0  0  0  0  0  0  0  0  0
    6.3640    0.5420   20.2000 C   0  0  0  0  0  0  0  0  0  0  0  0
    8.5710   -1.7030   23.7490 N   0  0  0  0  0  0  0  0  0  0  0  0
    9.9430   -1.2120   22.0410 C   0  0  0  0  0  0  0  0  0  0  0  0
    7.6800    2.1720   22.8000 N   0  0  0  0  0  0  0  0  0  0  0  0
    8.9830    1.4840   21.0730 O   0  0  0  0  0  0  0  0  0  0  0  0
    6.4050   -3.6500   20.1450 C   0  0  0  0  0  0  0  0  0  0  0  0
    5.0940    1.3780   20.1450 C   0  0  0  0  0  0  0  0  0  0  0  0
    6.9360    0.0910   18.9710 C   0  0  0  0  0  0  0  0  0  0  0  0
    9.8930   -1.8350   24.0680 N   0  0  0  0  0  0  0  0  0  0  0  0
   10.7870   -1.5480   23.0750 C   0  0  0  0  0  0  0  0  0  0  0  0
    6.2840   -4.2100   22.4870 C   0  0  0  0  0  0  0  0  0  0  0  0
   12.2810   -1.6220   23.2170 C   0  0  0  0  0  0  0  0  0  0  0  0
    5.4270   -4.3380   19.8330 O   0  0  0  0  0  0  0  0  0  0  0  0
    7.3090   -3.1080   19.0550 C   0  0  0  0  0  0  0  0  0  0  0  0
    6.3320    0.4380   17.8070 N   0  0  0  0  0  0  0  0  0  0  0  0
    4.6040    1.6420   18.8980 C   0  0  0  0  0  0  0  0  0  0  0  0
    8.1870    3.5000   22.8610 C   0  0  0  0  0  0  0  0  0  0  0  0
    6.7980   -4.2040   23.7020 N   0  0  0  0  0  0  0  0  0  0  0  0
    4.9250   -5.3940   22.1870 S   0  0  0  0  0  0  0  0  0  0  0  0
   12.8120   -0.4390   23.7400 C   0  0  0  0  0  0  0  0  0  0  0  0
   12.6860   -2.6940   23.9950 C   0  0  0  0  0  0  0  0  0  0  0  0
   12.9340   -1.7240   21.8710 C   0  0  0  0  0  0  0  0  0  0  0  0
    5.2290    1.1750   17.7870 C   0  0  0  0  0  0  0  0  0  0  0  0
    9.5140    3.6990   23.3620 C   0  0  0  0  0  0  0  0  0  0  0  0
    7.4380    4.6020   22.4640 C   0  0  0  0  0  0  0  0  0  0  0  0
    6.1400   -5.0990   24.5430 C   0  0  0  0  0  0  0  0  0  0  0  0
    5.1220   -5.7870   23.8760 C   0  0  0  0  0  0  0  0  0  0  0  0
   10.4310    2.5720   23.7830 C   0  0  0  0  0  0  0  0  0  0  0  0
    6.0460    4.3260   21.9280 C   0  0  0  0  0  0  0  0  0  0  0  0
   13.3780   -2.4620   25.3470 C   0  0  0  0  0  0  0  0  0  0  0  0
   10.0780    5.0040   23.4910 C   0  0  0  0  0  0  0  0  0  0  0  0
    7.9680    6.0360   22.5540 C   0  0  0  0  0  0  0  0  0  0  0  0
    6.4520   -5.3310   26.0440 C   0  0  0  0  0  0  0  0  0  0  0  0
    4.2910   -6.7310   24.4970 C   0  0  0  0  0  0  0  0  0  0  0  0
    9.7150    1.4610   24.5390 C   0  0  0  0  0  0  0  0  0  0  0  0
   11.3500    5.1580   23.9930 O   0  0  0  0  0  0  0  0  0  0  0  0
    7.4840   -4.5980   26.5750 O   0  0  0  0  0  0  0  0  0  0  0  0
    9.2410    6.2310   23.0560 C   0  0  0  0  0  0  0  0  0  0  0  0
    4.5260   -6.9980   25.9760 C   0  0  0  0  0  0  0  0  0  0  0  0
    5.6670   -6.2480   26.7400 C   0  0  0  0  0  0  0  0  0  0  0  0
   11.6540    6.2950   24.8000 C   0  0  0  0  0  0  0  0  0  0  0  0
    8.0960   -5.0670   27.7770 C   0  0  0  0  0  0  0  0  0  0  0  0
  1  2  1  0
  2  3  1  6
  1  4  1  0
  1  5  1  0
  4  6  1  0
  2  7  1  0
  5  8  2  0
  5  9  1  0
  3 10  1  0
  3 11  2  0
  6 12  1  0
  7 13  2  0
  7 14  1  0
  8 15  1  0
  9 16  2  0
 15 16  1  0
  6 17  1  0
 16 18  1  0
 12 19  2  0
 12 20  1  0
 14 21  2  0
 13 22  1  0
 10 23  1  0
 17 24  2  0
 17 25  1  0
 18 26  1  0
 18 27  1  0
 18 28  1  0
 21 29  1  0
 22 29  2  0
 23 30  2  0
 23 31  1  0
 24 32  1  0
 25 33  1  0
 32 33  2  0
 30 34  1  0
 31 35  1  0
 27 36  1  0
 30 37  1  0
 31 38  2  0
 32 39  1  0
 33 40  1  0
 34 41  1  0
 37 42  1  0
 39 43  1  0
 37 44  2  0
 38 44  1  0
 40 45  2  0
 39 46  2  0
 45 46  1  0
 42 47  1  0
 43 48  1  0
M  END
