x1348-x0107-x1119-x2694
     RDKit          3D

 69 75  0  0  0  0  0  0  0  0999 V2000
    7.6450   -1.1020   22.1170 N   0  0  0  0  0  0  0  0  0  0  0  0
    7.0310    0.2260   21.6700 C   0  0  1  0  0  0  0  0  0  0  0  0
    8.0390    1.4030   21.8470 C   0  0  0  0  0  0  0  0  0  0  0  0
    7.8590   -2.2380   21.3220 C   0  0  0  0  0  0  0  0  0  0  0  0
    8.7770   -1.0650   22.9450 C   0  0  0  0  0  0  0  0  0  0  0  0
    6.7350   -3.2050   21.2890 N   0  0  0  0  0  0  0  0  0  0  0  0
    6.5030    0.4300   20.2460 C   0  0  0  0  0  0  0  0  0  0  0  0
    8.9520   -0.8390   24.3620 N   0  0  0  0  0  0  0  0  0  0  0  0
   10.0270   -1.2750   22.4460 C   0  0  0  0  0  0  0  0  0  0  0  0
    7.7150    2.3120   22.7810 N   0  0  0  0  0  0  0  0  0  0  0  0
    9.0530    1.5300   21.1510 O   0  0  0  0  0  0  0  0  0  0  0  0
    6.3380   -3.6040   20.0060 C   0  0  0  0  0  0  0  0  0  0  0  0
    5.3450    1.2280   20.3310 C   0  0  0  0  0  0  0  0  0  0  0  0
    6.9690    0.0020   19.0140 C   0  0  0  0  0  0  0  0  0  0  0  0
   10.3370   -0.9490   24.5710 O   0  0  0  0  0  0  0  0  0  0  0  0
   10.9940   -1.2150   23.3900 C   0  0  0  0  0  0  0  0  0  0  0  0
    6.3500   -4.0340   22.3760 C   0  0  0  0  0  0  0  0  0  0  0  0
   12.4690   -1.3610   23.3450 C   0  0  0  0  0  0  0  0  0  0  0  0
    5.3390   -4.2810   19.7800 O   0  0  0  0  0  0  0  0  0  0  0  0
    7.2550   -3.1710   18.8810 C   0  0  0  0  0  0  0  0  0  0  0  0
    6.2590    0.3910   17.7770 N   0  0  0  0  0  0  0  0  0  0  0  0
    4.6730    1.5940   19.1620 C   0  0  0  0  0  0  0  0  0  0  0  0
    8.5310    3.4380   23.0190 C   0  0  0  0  0  0  0  0  0  0  0  0
    6.8410   -4.0360   23.6170 N   0  0  0  0  0  0  0  0  0  0  0  0
    4.9990   -5.2490   22.0710 S   0  0  0  0  0  0  0  0  0  0  0  0
   12.9670    0.0790   23.3760 C   0  0  0  0  0  0  0  0  0  0  0  0
   12.9300   -2.0170   22.0100 C   0  0  0  0  0  0  0  0  0  0  0  0
   12.9960   -2.1720   24.5480 C   0  0  0  0  0  0  0  0  0  0  0  0
    5.1550    1.1680   17.9300 C   0  0  0  0  0  0  0  0  0  0  0  0
    9.7660    3.2100   23.6500 C   0  0  0  0  0  0  0  0  0  0  0  0
    8.1890    4.7700   22.6520 C   0  0  0  0  0  0  0  0  0  0  0  0
    6.1300   -4.9840   24.4190 C   0  0  0  0  0  0  0  0  0  0  0  0
    5.0300   -5.7630   23.6950 C   0  0  0  0  0  0  0  0  0  0  0  0
   10.2330    1.8550   24.0850 C   0  0  0  0  0  0  0  0  0  0  0  0
   10.6570    4.4000   23.8880 C   0  0  0  0  0  0  0  0  0  0  0  0
    9.0450    5.8620   22.8960 C   0  0  0  0  0  0  0  0  0  0  0  0
    6.3130   -5.2790   25.7840 C   0  0  0  0  0  0  0  0  0  0  0  0
    4.2520   -6.7010   24.3570 C   0  0  0  0  0  0  0  0  0  0  0  0
    7.2710   -4.6690   26.5660 O   0  0  0  0  0  0  0  0  0  0  0  0
   10.2660    5.6540   23.5080 C   0  0  0  0  0  0  0  0  0  0  0  0
    4.4110   -6.9840   25.6920 C   0  0  0  0  0  0  0  0  0  0  0  0
    5.5130   -6.2240   26.4470 C   0  0  0  0  0  0  0  0  0  0  0  0
   11.0310    6.7560   23.6960 O   0  0  0  0  0  0  0  0  0  0  0  0
    7.6130   -5.4920   27.6970 C   0  0  0  0  0  0  0  0  0  0  0  0
   12.4270    6.5000   23.8010 C   0  0  0  0  0  0  0  0  0  0  0  0
   13.1660    5.8050   22.6460 C   0  0  0  0  0  0  0  0  0  0  0  0
   14.1080    4.7700   22.9080 C   0  0  0  0  0  0  0  0  0  0  0  0
   15.2730    4.5540   22.1020 C   0  0  0  0  0  0  0  0  0  0  0  0
   16.6120    4.2860   22.5820 C   0  0  0  0  0  0  0  0  0  0  0  0
   17.3720    4.9820   23.5240 C   0  0  0  0  0  0  0  0  0  0  0  0
   18.7390    5.3820   23.3520 C   0  0  0  0  0  0  0  0  0  0  0  0
   19.1880    6.7550   23.5600 C   0  0  0  0  0  0  0  0  0  0  0  0
   20.4570    6.9800   23.1520 N   0  0  0  0  0  0  0  0  0  0  0  0
   21.3820    6.0780   23.5650 C   0  0  0  0  0  0  0  0  0  0  0  0
   22.4380    5.7220   22.7600 C   0  0  0  0  0  0  0  0  0  0  0  0
   21.1640    5.5400   24.8340 C   0  0  0  0  0  0  0  0  0  0  0  0
   23.4300    4.6890   23.2080 C   0  0  0  0  0  0  0  0  0  0  0  0
   22.1030    4.4830   25.3780 C   0  0  0  0  0  0  0  0  0  0  0  0
   23.1580    4.0800   24.6020 C   0  0  0  0  0  0  0  0  0  0  0  0
   24.1290    2.7930   25.3710 S   0  0  0  0  0  0  0  0  0  0  0  0
   23.2790    1.4840   25.1200 O   0  0  0  0  0  0  0  0  0  0  0  0
   24.1660    3.2140   26.9960 N   0  0  0  0  0  0  0  0  0  0  0  0
   25.5710    2.7380   24.7220 O   0  0  0  0  0  0  0  0  0  0  0  0
   25.0000    4.3560   27.3440 C   0  0  0  0  0  0  0  0  0  0  0  0
   25.0830    4.6720   28.6660 N   0  0  0  0  0  0  0  0  0  0  0  0
   25.7000    5.0840   26.2060 C   0  0  0  0  0  0  0  0  0  0  0  0
   25.8690    5.7390   28.9830 C   0  0  0  0  0  0  0  0  0  0  0  0
   26.5680    6.2690   26.6060 C   0  0  0  0  0  0  0  0  0  0  0  0
   26.6590    6.6010   27.9690 C   0  0  0  0  0  0  0  0  0  0  0  0
  1  2  1  0
  2  3  1  6
  1  4  1  0
  1  5  1  0
  4  6  1  0
  2  7  1  0
  5  8  2  0
  5  9  1  0
  3 10  1  0
  3 11  2  0
  6 12  1  0
  7 13  2  0
  7 14  1  0
  8 15  1  0
  9 16  2  0
 15 16  1  0
  6 17  1  0
 16 18  1  0
 12 19  2  0
 12 20  1  0
 14 21  2  0
 13 22  1  0
 10 23  1  0
 17 24  2  0
 17 25  1  0
 18 26  1  0
 18 27  1  0
 18 28  1  0
 21 29  1  0
 22 29  2  0
 23 30  2  0
 23 31  1  0
 24 32  1  0
 25 33  1  0
 32 33  2  0
 30 34  1  0
 30 35  1  0
 31 36  2  0
 32 37  1  0
 33 38  1  0
 37 39  1  0
 35 40  2  0
 36 40  1  0
 38 41  2  0
 37 42  2  0
 41 42  1  0
 40 43  1  0
 39 44  1  0
 43 45  1  0
 45 46  1  0
 46 47  1  0
 47 48  1  0
 48 49  1  0
 49 50  1  0
 50 51  1  0
 51 52  1  0
 52 53  1  0
 53 54  1  0
 54 55  2  0
 54 56  1  0
 55 57  1  0
 56 58  2  0
 57 59  2  0
 58 59  1  0
 59 60  1  0
 60 61  2  0
 60 62  1  0
 60 63  2  0
 62 64  1  0
 64 65  2  0
 64 66  1  0
 65 67  1  0
 66 68  2  0
 67 69  2  0
 68 69  1  0
M  END
