x1348-x1249
     RDKit          3D

 37 40  0  0  0  0  0  0  0  0999 V2000
    7.0210   -3.5690   21.3180 N   0  0  0  0  0  0  0  0  0  0  0  0
    6.4520   -3.6670   20.0520 C   0  0  0  0  0  0  0  0  0  0  0  0
    5.3630   -4.1680   19.7630 O   0  0  0  0  0  0  0  0  0  0  0  0
    6.5080   -4.3170   22.3710 C   0  0  0  0  0  0  0  0  0  0  0  0
    7.3760   -3.1170   18.9910 C   0  0  0  0  0  0  0  0  0  0  0  0
    7.0180   -4.2570   23.6180 N   0  0  0  0  0  0  0  0  0  0  0  0
    5.1570   -5.3640   22.1070 S   0  0  0  0  0  0  0  0  0  0  0  0
    6.2640   -5.1010   24.4870 C   0  0  0  0  0  0  0  0  0  0  0  0
    5.1200   -5.8300   23.7580 C   0  0  0  0  0  0  0  0  0  0  0  0
    6.4620   -5.3420   26.0050 C   0  0  0  0  0  0  0  0  0  0  0  0
    4.1990   -6.7680   24.5230 C   0  0  0  0  0  0  0  0  0  0  0  0
    7.5330   -4.6540   26.6320 N   0  0  0  0  0  0  0  0  0  0  0  0
    4.4700   -6.9340   26.0220 C   0  0  0  0  0  0  0  0  0  0  0  0
    5.4830   -6.3130   26.7470 C   0  0  0  0  0  0  0  0  0  0  0  0
    7.7810   -5.0240   28.0280 C   0  0  0  0  0  0  0  0  0  0  0  0
    7.6800   -3.2240   26.2370 C   0  0  0  0  0  0  0  0  0  0  0  0
    7.5760   -2.2770   27.4550 C   0  0  0  0  0  0  0  0  0  0  0  0
    7.7490   -0.8510   26.8490 C   0  0  0  0  0  0  0  0  0  0  0  0
    8.1490   -0.7470   25.5160 C   0  0  0  0  0  0  0  0  0  0  0  0
    8.3060    0.6270   24.9760 N   0  0  0  0  0  0  0  0  0  0  0  0
    7.4630    1.4170   24.0890 C   0  0  0  0  0  0  0  0  0  0  0  0
    9.5420    0.9940   25.0360 C   0  0  0  0  0  0  0  0  0  0  0  0
    7.9940    2.2590   23.3650 O   0  0  0  0  0  0  0  0  0  0  0  0
    6.0950    1.2750   24.0420 N   0  0  0  0  0  0  0  0  0  0  0  0
   10.4380    0.2550   24.0780 C   0  0  0  0  0  0  0  0  0  0  0  0
    5.5090    1.3540   22.8310 C   0  0  0  0  0  0  0  0  0  0  0  0
    5.2040    1.1940   25.0280 C   0  0  0  0  0  0  0  0  0  0  0  0
   11.7520    0.7070   23.8840 C   0  0  0  0  0  0  0  0  0  0  0  0
    9.9480   -0.8570   23.4160 C   0  0  0  0  0  0  0  0  0  0  0  0
    4.3840    0.5910   22.5140 C   0  0  0  0  0  0  0  0  0  0  0  0
    4.1640    0.2870   24.8930 C   0  0  0  0  0  0  0  0  0  0  0  0
   12.7320   -0.0010   22.9560 C   0  0  0  0  0  0  0  0  0  0  0  0
   10.8250   -1.6360   22.4740 C   0  0  0  0  0  0  0  0  0  0  0  0
    3.4810    0.5050   23.6440 O   0  0  0  0  0  0  0  0  0  0  0  0
   12.2290   -1.1260   22.3140 C   0  0  0  0  0  0  0  0  0  0  0  0
   12.9780   -1.9190   21.4510 C   0  0  0  0  0  0  0  0  0  0  0  0
   13.5470   -2.7580   20.7120 N   0  0  0  0  0  0  0  0  0  0  0  0
  1  2  1  0
  2  3  2  0
  1  4  1  0
  2  5  1  0
  4  6  2  0
  4  7  1  0
  6  8  1  0
  7  9  1  0
  8  9  2  0
  8 10  1  0
  9 11  1  0
 10 12  1  0
 11 13  2  0
 10 14  2  0
 13 14  1  0
 12 15  1  0
 12 16  1  0
 16 17  1  0
 17 18  1  0
 18 19  1  0
 19 20  1  0
 20 21  1  0
 20 22  1  0
 21 23  2  0
 21 24  1  0
 22 25  1  0
 24 26  1  0
 24 27  1  0
 25 28  2  0
 25 29  1  0
 26 30  1  0
 27 31  1  0
 28 32  1  0
 29 33  2  0
 30 34  1  0
 31 34  1  0
 32 35  2  0
 33 35  1  0
 35 36  1  0
 36 37  3  0
M  END
