x1348-x2705-x3115
     RDKit          3D

 46 50  0  0  0  0  0  0  0  0999 V2000
    7.5570   -1.1480   22.1190 N   0  0  0  0  0  0  0  0  0  0  0  0
    6.9810    0.1240   21.7920 C   0  0  1  0  0  0  0  0  0  0  0  0
    7.8830    1.3360   21.9010 C   0  0  0  0  0  0  0  0  0  0  0  0
    7.5260   -2.2120   21.2360 C   0  0  0  0  0  0  0  0  0  0  0  0
    8.7640   -1.1770   22.8310 C   0  0  0  0  0  0  0  0  0  0  0  0
    6.6790   -3.2710   21.2420 N   0  0  0  0  0  0  0  0  0  0  0  0
    6.2750    0.4110   20.4430 C   0  0  0  0  0  0  0  0  0  0  0  0
    8.9320   -1.0720   24.2030 N   0  0  0  0  0  0  0  0  0  0  0  0
    9.9940   -1.3390   22.2330 C   0  0  0  0  0  0  0  0  0  0  0  0
    7.6070    2.1440   22.6890 N   0  0  0  0  0  0  0  0  0  0  0  0
    8.8600    1.4750   21.1530 O   0  0  0  0  0  0  0  0  0  0  0  0
    6.2930   -3.6190   19.9630 C   0  0  0  0  0  0  0  0  0  0  0  0
    5.0360    1.0020   20.3300 C   0  0  0  0  0  0  0  0  0  0  0  0
    6.9450    0.0750   19.2740 C   0  0  0  0  0  0  0  0  0  0  0  0
   10.2770   -1.1660   24.4760 N   0  0  0  0  0  0  0  0  0  0  0  0
   11.0230   -1.3450   23.2520 C   0  0  0  0  0  0  0  0  0  0  0  0
    6.3120   -4.0650   22.3470 C   0  0  0  0  0  0  0  0  0  0  0  0
   12.3350   -1.4710   23.2210 C   0  0  0  0  0  0  0  0  0  0  0  0
    5.2690   -4.2490   19.7300 O   0  0  0  0  0  0  0  0  0  0  0  0
    7.2720   -3.1940   18.8680 C   0  0  0  0  0  0  0  0  0  0  0  0
    6.4770    0.2930   18.0010 N   0  0  0  0  0  0  0  0  0  0  0  0
    4.4800    1.2620   19.0900 C   0  0  0  0  0  0  0  0  0  0  0  0
    8.2470    3.4390   22.8750 C   0  0  0  0  0  0  0  0  0  0  0  0
    6.8730   -4.0280   23.7100 N   0  0  0  0  0  0  0  0  0  0  0  0
    4.9750   -5.3020   22.1430 S   0  0  0  0  0  0  0  0  0  0  0  0
   12.9250   -0.1460   23.6740 C   0  0  0  0  0  0  0  0  0  0  0  0
   12.7640   -2.6890   24.0930 C   0  0  0  0  0  0  0  0  0  0  0  0
   12.8240   -1.7210   21.7790 C   0  0  0  0  0  0  0  0  0  0  0  0
    5.1320    0.9470   17.8980 C   0  0  0  0  0  0  0  0  0  0  0  0
    9.5150    3.4950   23.4860 C   0  0  0  0  0  0  0  0  0  0  0  0
    7.6390    4.5960   22.4650 C   0  0  0  0  0  0  0  0  0  0  0  0
    6.1500   -4.9980   24.5710 C   0  0  0  0  0  0  0  0  0  0  0  0
    5.1010   -5.7050   23.7380 C   0  0  0  0  0  0  0  0  0  0  0  0
   10.2050    2.2440   23.9480 C   0  0  0  0  0  0  0  0  0  0  0  0
    6.2840    4.6030   21.8050 C   0  0  0  0  0  0  0  0  0  0  0  0
   13.5100   -2.4630   25.3660 C   0  0  0  0  0  0  0  0  0  0  0  0
   10.1060    4.6830   23.6560 C   0  0  0  0  0  0  0  0  0  0  0  0
    8.2780    5.8390   22.6520 C   0  0  0  0  0  0  0  0  0  0  0  0
    6.2880   -5.3180   25.9360 C   0  0  0  0  0  0  0  0  0  0  0  0
    4.2990   -6.6520   24.3710 C   0  0  0  0  0  0  0  0  0  0  0  0
    9.3060    1.4900   24.9470 C   0  0  0  0  0  0  0  0  0  0  0  0
    7.2310   -4.7090   26.7330 O   0  0  0  0  0  0  0  0  0  0  0  0
    9.5250    5.8780   23.2550 C   0  0  0  0  0  0  0  0  0  0  0  0
    4.4870   -6.9040   25.7250 C   0  0  0  0  0  0  0  0  0  0  0  0
    5.4480   -6.2790   26.5330 C   0  0  0  0  0  0  0  0  0  0  0  0
    7.6450   -5.5890   27.7840 C   0  0  0  0  0  0  0  0  0  0  0  0
  1  2  1  0
  2  3  1  6
  1  4  1  0
  1  5  1  0
  4  6  1  0
  2  7  1  0
  5  8  2  0
  5  9  1  0
  3 10  1  0
  3 11  2  0
  6 12  1  0
  7 13  2  0
  7 14  1  0
  8 15  1  0
  9 16  2  0
 15 16  1  0
  6 17  1  0
 16 18  1  0
 12 19  2  0
 12 20  1  0
 14 21  2  0
 13 22  1  0
 10 23  1  0
 17 24  2  0
 17 25  1  0
 18 26  1  0
 18 27  1  0
 18 28  1  0
 21 29  1  0
 22 29  2  0
 23 30  2  0
 23 31  1  0
 24 32  1  0
 25 33  1  0
 32 33  2  0
 30 34  1  0
 31 35  1  0
 27 36  1  0
 30 37  1  0
 31 38  2  0
 32 39  1  0
 33 40  1  0
 34 41  1  0
 39 42  1  0
 37 43  2  0
 38 43  1  0
 40 44  2  0
 39 45  2  0
 44 45  1  0
 42 46  1  0
M  END
