x1348-x1119-x2694
     RDKit          3D

 69 75  0  0  0  0  0  0  0  0999 V2000
    7.5310   -1.0450   22.2210 N   0  0  0  0  0  0  0  0  0  0  0  0
    7.0340    0.2090   21.8250 C   0  0  1  0  0  0  0  0  0  0  0  0
    8.0350    1.3370   21.9140 C   0  0  0  0  0  0  0  0  0  0  0  0
    7.6890   -2.2060   21.3260 C   0  0  0  0  0  0  0  0  0  0  0  0
    8.7270   -1.0700   22.9380 C   0  0  0  0  0  0  0  0  0  0  0  0
    6.7200   -3.1750   21.2980 N   0  0  0  0  0  0  0  0  0  0  0  0
    6.3270    0.5070   20.4400 C   0  0  0  0  0  0  0  0  0  0  0  0
    8.9020   -0.9000   24.2660 N   0  0  0  0  0  0  0  0  0  0  0  0
    9.9180   -1.2980   22.2790 C   0  0  0  0  0  0  0  0  0  0  0  0
    7.7910    2.3140   22.8700 N   0  0  0  0  0  0  0  0  0  0  0  0
    8.9940    1.4070   21.1490 O   0  0  0  0  0  0  0  0  0  0  0  0
    6.3670   -3.5680   20.0130 C   0  0  0  0  0  0  0  0  0  0  0  0
    4.9750    1.2670   20.3610 C   0  0  0  0  0  0  0  0  0  0  0  0
    6.9210    0.1140   19.2980 C   0  0  0  0  0  0  0  0  0  0  0  0
   10.2660   -1.0200   24.5630 O   0  0  0  0  0  0  0  0  0  0  0  0
   10.9480   -1.2590   23.4230 C   0  0  0  0  0  0  0  0  0  0  0  0
    6.3100   -4.0340   22.3490 C   0  0  0  0  0  0  0  0  0  0  0  0
   12.4270   -1.4350   23.3260 C   0  0  0  0  0  0  0  0  0  0  0  0
    5.3700   -4.2510   19.7690 O   0  0  0  0  0  0  0  0  0  0  0  0
    7.2910   -3.1470   18.8690 C   0  0  0  0  0  0  0  0  0  0  0  0
    6.4470    0.3330   18.0310 N   0  0  0  0  0  0  0  0  0  0  0  0
    4.4350    1.5220   19.0210 C   0  0  0  0  0  0  0  0  0  0  0  0
    8.5880    3.4540   23.0280 C   0  0  0  0  0  0  0  0  0  0  0  0
    6.8400   -4.1020   23.7150 N   0  0  0  0  0  0  0  0  0  0  0  0
    5.0400   -5.1410   22.1030 S   0  0  0  0  0  0  0  0  0  0  0  0
   12.9980   -0.0370   23.4590 C   0  0  0  0  0  0  0  0  0  0  0  0
   12.8790   -2.0620   21.9930 C   0  0  0  0  0  0  0  0  0  0  0  0
   12.9320   -2.1100   24.3730 C   0  0  0  0  0  0  0  0  0  0  0  0
    5.1880    1.0510   17.8500 C   0  0  0  0  0  0  0  0  0  0  0  0
    9.8220    3.2430   23.6170 C   0  0  0  0  0  0  0  0  0  0  0  0
    8.2430    4.7500   22.6400 C   0  0  0  0  0  0  0  0  0  0  0  0
    6.1130   -5.0360   24.4680 C   0  0  0  0  0  0  0  0  0  0  0  0
    5.0850   -5.6840   23.7200 C   0  0  0  0  0  0  0  0  0  0  0  0
   10.2770    1.8530   24.0800 C   0  0  0  0  0  0  0  0  0  0  0  0
   10.7720    4.4060   23.8180 C   0  0  0  0  0  0  0  0  0  0  0  0
    9.1280    5.8210   22.8350 C   0  0  0  0  0  0  0  0  0  0  0  0
    6.3350   -5.3160   25.7970 C   0  0  0  0  0  0  0  0  0  0  0  0
    4.2190   -6.6400   24.2560 C   0  0  0  0  0  0  0  0  0  0  0  0
    7.3220   -4.7190   26.5380 O   0  0  0  0  0  0  0  0  0  0  0  0
   10.3370    5.6470   23.3970 C   0  0  0  0  0  0  0  0  0  0  0  0
    4.2790   -7.0840   25.7180 C   0  0  0  0  0  0  0  0  0  0  0  0
    5.3610   -6.4110   26.5140 C   0  0  0  0  0  0  0  0  0  0  0  0
   11.1010    6.7610   23.5180 O   0  0  0  0  0  0  0  0  0  0  0  0
    7.6860   -5.5260   27.6620 C   0  0  0  0  0  0  0  0  0  0  0  0
   12.4670    6.5570   23.8810 C   0  0  0  0  0  0  0  0  0  0  0  0
   13.3620    5.8730   22.7910 C   0  0  0  0  0  0  0  0  0  0  0  0
   14.2560    4.7530   22.9620 C   0  0  0  0  0  0  0  0  0  0  0  0
   15.8380    4.5480   22.6200 C   0  0  0  0  0  0  0  0  0  0  0  0
   17.0330    4.7970   23.5700 C   0  0  0  0  0  0  0  0  0  0  0  0
   18.1900    5.8770   23.4230 C   0  0  0  0  0  0  0  0  0  0  0  0
   19.2900    6.1920   22.3500 C   0  0  0  0  0  0  0  0  0  0  0  0
   19.9340    7.6140   22.2690 C   0  0  0  0  0  0  0  0  0  0  0  0
   21.2410    7.7410   22.4780 N   0  0  0  0  0  0  0  0  0  0  0  0
   21.9400    6.6380   22.9670 C   0  0  0  0  0  0  0  0  0  0  0  0
   23.0980    6.0460   22.4430 C   0  0  0  0  0  0  0  0  0  0  0  0
   21.4120    6.0300   24.1270 C   0  0  0  0  0  0  0  0  0  0  0  0
   23.7170    4.9170   23.0050 C   0  0  0  0  0  0  0  0  0  0  0  0
   22.0780    4.9220   24.6000 C   0  0  0  0  0  0  0  0  0  0  0  0
   23.1770    4.3340   24.1280 C   0  0  0  0  0  0  0  0  0  0  0  0
   23.7100    2.8620   25.0860 S   0  0  0  0  0  0  0  0  0  0  0  0
   22.5230    2.0320   25.1850 O   0  0  0  0  0  0  0  0  0  0  0  0
   24.0820    3.3410   26.7270 N   0  0  0  0  0  0  0  0  0  0  0  0
   24.9220    2.3660   24.4910 O   0  0  0  0  0  0  0  0  0  0  0  0
   24.9600    4.3910   27.0160 C   0  0  0  0  0  0  0  0  0  0  0  0
   25.0170    4.6000   28.3480 N   0  0  0  0  0  0  0  0  0  0  0  0
   25.7280    5.1660   25.9480 C   0  0  0  0  0  0  0  0  0  0  0  0
   25.8140    5.5810   28.8200 C   0  0  0  0  0  0  0  0  0  0  0  0
   26.6440    6.2850   26.4640 C   0  0  0  0  0  0  0  0  0  0  0  0
   26.6950    6.5110   27.9760 C   0  0  0  0  0  0  0  0  0  0  0  0
  1  2  1  0
  2  3  1  6
  1  4  1  0
  1  5  1  0
  4  6  1  0
  2  7  1  0
  5  8  2  0
  5  9  1  0
  3 10  1  0
  3 11  2  0
  6 12  1  0
  7 13  2  0
  7 14  1  0
  8 15  1  0
  9 16  2  0
 15 16  1  0
  6 17  1  0
 16 18  1  0
 12 19  2  0
 12 20  1  0
 14 21  2  0
 13 22  1  0
 10 23  1  0
 17 24  2  0
 17 25  1  0
 18 26  1  0
 18 27  1  0
 18 28  1  0
 21 29  1  0
 22 29  2  0
 23 30  2  0
 23 31  1  0
 24 32  1  0
 25 33  1  0
 32 33  2  0
 30 34  1  0
 30 35  1  0
 31 36  2  0
 32 37  1  0
 33 38  1  0
 37 39  1  0
 35 40  2  0
 36 40  1  0
 38 41  2  0
 37 42  2  0
 41 42  1  0
 40 43  1  0
 39 44  1  0
 43 45  1  0
 45 46  1  0
 46 47  1  0
 47 48  1  0
 48 49  1  0
 49 50  1  0
 50 51  1  0
 51 52  1  0
 52 53  1  0
 53 54  1  0
 54 55  2  0
 54 56  1  0
 55 57  1  0
 56 58  2  0
 57 59  2  0
 58 59  1  0
 59 60  1  0
 60 61  2  0
 60 62  1  0
 60 63  2  0
 62 64  1  0
 64 65  2  0
 64 66  1  0
 65 67  1  0
 66 68  2  0
 67 69  2  0
 68 69  1  0
M  END
