x1348-x0540-x3113-x2540
     RDKit          3D

 59 65  0  0  0  0  0  0  0  0999 V2000
    7.4010   -1.2460   21.8090 N   0  0  0  0  0  0  0  0  0  0  0  0
    7.0270    0.1420   21.5920 C   0  0  1  0  0  0  0  0  0  0  0  0
    8.1470    1.1750   21.8010 C   0  0  0  0  0  0  0  0  0  0  0  0
    6.4030   -2.2060   21.7540 C   0  0  0  0  0  0  0  0  0  0  0  0
    8.4350   -1.5460   22.7970 C   0  0  0  0  0  0  0  0  0  0  0  0
    6.6140   -3.4810   21.3890 N   0  0  0  0  0  0  0  0  0  0  0  0
    6.3050    0.4420   20.2620 C   0  0  0  0  0  0  0  0  0  0  0  0
    9.7210   -1.2720   22.5290 C   0  0  0  0  0  0  0  0  0  0  0  0
    8.1520   -2.1050   24.0330 C   0  0  0  0  0  0  0  0  0  0  0  0
    8.3130    1.6030   23.0970 N   0  0  0  0  0  0  0  0  0  0  0  0
    8.8490    1.6440   20.9230 O   0  0  0  0  0  0  0  0  0  0  0  0
    6.3280   -3.7550   20.0910 C   0  0  0  0  0  0  0  0  0  0  0  0
    5.0220    0.9600   20.2670 C   0  0  0  0  0  0  0  0  0  0  0  0
    6.9040    0.2140   19.0430 C   0  0  0  0  0  0  0  0  0  0  0  0
   10.7220   -1.5850   23.5760 C   0  0  0  0  0  0  0  0  0  0  0  0
    9.0730   -2.4170   25.0300 C   0  0  0  0  0  0  0  0  0  0  0  0
    6.2090   -4.3360   22.4670 C   0  0  0  0  0  0  0  0  0  0  0  0
    9.2270    2.6970   23.3800 C   0  0  0  0  0  0  0  0  0  0  0  0
   12.1560   -1.3040   23.3640 C   0  0  2  0  0  0  0  0  0  0  0  0
    4.2650    1.1990   21.5380 C   0  0  0  0  0  0  0  0  0  0  0  0
    5.3540   -4.4400   19.8330 O   0  0  0  0  0  0  0  0  0  0  0  0
    7.2570   -3.1650   19.0440 C   0  0  0  0  0  0  0  0  0  0  0  0
    6.4530    0.4460   17.8340 N   0  0  0  0  0  0  0  0  0  0  0  0
    4.4230    1.2580   19.0350 C   0  0  0  0  0  0  0  0  0  0  0  0
   10.3760   -2.1460   24.7840 C   0  0  0  0  0  0  0  0  0  0  0  0
    6.8170   -4.3230   23.7790 N   0  0  0  0  0  0  0  0  0  0  0  0
    4.8270   -5.5150   22.3340 S   0  0  0  0  0  0  0  0  0  0  0  0
   10.6720    2.2040   23.3040 C   0  0  0  0  0  0  0  0  0  0  0  0
   13.3340   -1.9790   24.1260 C   0  0  1  0  0  0  0  0  0  0  0  0
   12.7980   -0.4720   24.0860 C   0  0  0  0  0  0  0  0  0  0  0  0
    8.5720    2.6180   24.7220 C   0  0  0  0  0  0  0  0  0  0  0  0
    8.7930    4.0030   22.7440 C   0  0  0  0  0  0  0  0  0  0  0  0
    4.9410    2.2940   22.3910 C   0  0  0  0  0  0  0  0  0  0  0  0
    5.1240    1.0150   17.8900 C   0  0  0  0  0  0  0  0  0  0  0  0
    6.0650   -5.2410   24.6080 C   0  0  0  0  0  0  0  0  0  0  0  0
    4.9720   -5.9410   23.9660 C   0  0  0  0  0  0  0  0  0  0  0  0
   12.4870   -1.3470   21.9050 C   0  0  0  0  0  0  0  0  0  0  0  0
   11.7580    3.2790   23.2790 C   0  0  0  0  0  0  0  0  0  0  0  0
   13.2850   -2.5440   21.7940 C   0  0  0  0  0  0  0  0  0  0  0  0
   13.3310   -2.6500   25.3100 C   0  0  0  0  0  0  0  0  0  0  0  0
    3.9310    3.1420   23.0430 N   0  0  0  0  0  0  0  0  0  0  0  0
    6.3810   -5.4690   26.0990 C   0  0  0  0  0  0  0  0  0  0  0  0
    4.1450   -6.8460   24.6360 C   0  0  0  0  0  0  0  0  0  0  0  0
   13.7440   -2.8150   23.0160 C   0  0  0  0  0  0  0  0  0  0  0  0
   11.8880    3.9580   22.2790 O   0  0  0  0  0  0  0  0  0  0  0  0
    2.8060    2.3970   23.6560 C   0  0  0  0  0  0  0  0  0  0  0  0
    7.4400   -4.7660   26.6220 O   0  0  0  0  0  0  0  0  0  0  0  0
    4.4300   -7.0830   26.1330 C   0  0  0  0  0  0  0  0  0  0  0  0
    5.5890   -6.3530   26.8290 C   0  0  0  0  0  0  0  0  0  0  0  0
   13.0230    4.8310   22.3680 C   0  0  0  0  0  0  0  0  0  0  0  0
    2.9750    1.4700   24.6420 O   0  0  0  0  0  0  0  0  0  0  0  0
    1.6160    2.7120   23.1180 N   0  0  0  0  0  0  0  0  0  0  0  0
    8.1990   -5.4410   27.5290 C   0  0  0  0  0  0  0  0  0  0  0  0
    0.6330    3.0950   23.9930 C   0  0  0  0  0  0  0  0  0  0  0  0
    0.7110    4.5850   24.3630 C   0  0  0  0  0  0  0  0  0  0  0  0
   -0.7000    2.6240   23.4240 C   0  0  0  0  0  0  0  0  0  0  0  0
   -0.5150    4.9880   24.9900 C   0  0  0  0  0  0  0  0  0  0  0  0
   -1.7760    3.3100   23.8700 C   0  0  0  0  0  0  0  0  0  0  0  0
   -1.5130    4.6090   24.1510 C   0  0  0  0  0  0  0  0  0  0  0  0
  1  2  1  0
  2  3  1  6
  1  4  1  0
  1  5  1  0
  4  6  1  0
  2  7  1  0
  5  8  2  0
  5  9  1  0
  3 10  1  0
  3 11  2  0
  6 12  1  0
  7 13  1  0
  7 14  2  0
  8 15  1  0
  9 16  2  0
  6 17  1  0
 18 10  1  0
 19 15  1  6
 13 20  1  0
 12 21  2  0
 12 22  1  0
 14 23  1  0
 13 24  2  0
 15 25  2  0
 16 25  1  0
 17 26  2  0
 17 27  1  0
 18 28  1  0
 19 29  1  0
 19 30  1  0
 29 30  1  0
 18 31  1  0
 18 32  1  0
 20 33  1  0
 23 34  2  0
 24 34  1  0
 26 35  1  0
 27 36  1  0
 35 36  2  0
 19 37  1  0
 28 38  1  0
 37 39  1  0
 29 40  1  1
 33 41  1  0
 35 42  1  0
 36 43  1  0
 29 44  1  0
 39 44  2  0
 38 45  1  0
 41 46  1  0
 42 47  1  0
 43 48  2  0
 42 49  2  0
 48 49  1  0
 45 50  1  0
 46 51  2  0
 46 52  1  0
 47 53  1  0
 52 54  1  0
 54 55  1  0
 54 56  1  0
 55 57  1  0
 56 58  1  0
 57 59  1  0
 58 59  1  0
M  END
