x1348-x2562
     RDKit          3D

 39 43  0  0  0  0  0  0  0  0999 V2000
    6.2100   -3.3200   21.4710 N   0  0  0  0  0  0  0  0  0  0  0  0
    6.1200   -3.8620   20.2060 C   0  0  0  0  0  0  0  0  0  0  0  0
    5.3530   -4.7620   19.9290 O   0  0  0  0  0  0  0  0  0  0  0  0
    5.5320   -2.1350   21.6710 C   0  0  0  0  0  0  0  0  0  0  0  0
    5.9990   -4.1770   22.5290 C   0  0  0  0  0  0  0  0  0  0  0  0
    7.0260   -3.2440   19.1400 C   0  0  0  0  0  0  0  0  0  0  0  0
    6.4660   -1.0240   22.1530 C   0  0  0  0  0  0  0  0  0  0  0  0
    6.7590   -4.1030   23.7970 N   0  0  0  0  0  0  0  0  0  0  0  0
    4.6860   -5.4470   22.4810 S   0  0  0  0  0  0  0  0  0  0  0  0
    7.2370   -0.4990   20.9490 C   0  0  2  0  0  0  0  0  0  0  0  0
    6.1680   -5.0150   24.6260 C   0  0  0  0  0  0  0  0  0  0  0  0
    5.1240   -5.7010   24.0000 C   0  0  0  0  0  0  0  0  0  0  0  0
    8.4380    0.2400   21.4030 C   0  0  0  0  0  0  0  0  0  0  0  0
    6.4310   -5.3400   25.9580 C   0  0  0  0  0  0  0  0  0  0  0  0
    4.3200   -6.6750   24.5950 C   0  0  0  0  0  0  0  0  0  0  0  0
    6.4540    0.2360   19.9250 C   0  0  0  0  0  0  0  0  0  0  0  0
    7.4660   -4.6750   26.6070 O   0  0  0  0  0  0  0  0  0  0  0  0
    8.5760    1.4530   21.1300 O   0  0  0  0  0  0  0  0  0  0  0  0
    9.2880   -0.5800   22.1050 N   0  0  0  0  0  0  0  0  0  0  0  0
    4.5370   -7.0120   25.9160 C   0  0  0  0  0  0  0  0  0  0  0  0
    5.6860   -6.2890   26.6540 C   0  0  0  0  0  0  0  0  0  0  0  0
    6.8330    0.0810   18.6060 C   0  0  0  0  0  0  0  0  0  0  0  0
    5.3640    1.0710   20.2060 C   0  0  0  0  0  0  0  0  0  0  0  0
    8.0160   -5.4360   27.6890 C   0  0  0  0  0  0  0  0  0  0  0  0
    4.6450    1.7590   19.2940 N   0  0  0  0  0  0  0  0  0  0  0  0
    6.1390    0.7710   17.5150 N   0  0  0  0  0  0  0  0  0  0  0  0
   10.5800   -0.2210   22.3560 C   0  0  0  0  0  0  0  0  0  0  0  0
    5.0780    1.5870   17.9170 C   0  0  0  0  0  0  0  0  0  0  0  0
   11.6710   -1.0650   22.2810 C   0  0  0  0  0  0  0  0  0  0  0  0
   10.7010    1.0970   22.6900 C   0  0  0  0  0  0  0  0  0  0  0  0
   13.0940   -0.6320   22.5370 C   0  0  0  0  0  0  0  0  0  0  0  0
   12.0520    1.6790   22.9730 C   0  0  0  0  0  0  0  0  0  0  0  0
   12.0910    3.0020   23.2990 O   0  0  0  0  0  0  0  0  0  0  0  0
   13.2350    0.7190   22.8640 C   0  0  0  0  0  0  0  0  0  0  0  0
   13.0650    3.8610   22.6920 C   0  0  1  0  0  0  0  0  0  0  0  0
   12.6070    4.8180   21.7310 N   0  0  0  0  0  0  0  0  0  0  0  0
   13.2970    4.9730   23.4560 C   0  0  0  0  0  0  0  0  0  0  0  0
   12.7020    5.8060   22.6580 C   0  0  1  0  0  0  0  0  0  0  0  0
   13.4930    6.9310   22.3150 O   0  0  0  0  0  0  0  0  0  0  0  0
  1  2  1  0
  2  3  2  0
  1  4  1  0
  1  5  1  0
  2  6  1  0
  4  7  1  0
  5  8  2  0
  5  9  1  0
 10  7  1  1
  8 11  1  0
  9 12  1  0
 11 12  2  0
 10 13  1  0
 11 14  1  0
 12 15  1  0
 10 16  1  0
 14 17  1  0
 13 18  2  0
 13 19  1  0
 15 20  2  0
 14 21  2  0
 20 21  1  0
 16 22  2  0
 16 23  1  0
 17 24  1  0
 23 25  2  0
 22 26  1  0
 19 27  1  0
 25 28  1  0
 26 28  2  0
 27 29  2  0
 27 30  1  0
 29 31  1  0
 30 32  2  0
 32 33  1  0
 31 34  2  0
 32 34  1  0
 35 33  1  1
 35 36  1  0
 35 37  1  0
 36 38  1  0
 37 38  1  0
 38 39  1  6
M  END
