x1348-x2649-x2581
     RDKit          3D

 56 62  0  0  0  0  0  0  0  0999 V2000
    6.9610   -3.9140   21.2670 N   0  0  0  0  0  0  0  0  0  0  0  0
    6.3950   -3.9130   20.0210 C   0  0  0  0  0  0  0  0  0  0  0  0
    5.2920   -4.4010   19.8060 O   0  0  0  0  0  0  0  0  0  0  0  0
    7.3750   -2.5820   21.5910 C   0  0  0  0  0  0  0  0  0  0  0  0
    6.3940   -4.6450   22.3830 C   0  0  0  0  0  0  0  0  0  0  0  0
    7.2740   -3.2620   18.9840 C   0  0  0  0  0  0  0  0  0  0  0  0
    6.1500   -1.7580   21.1590 C   0  0  0  0  0  0  0  0  0  0  0  0
    7.0030   -4.4570   23.7490 N   0  0  0  0  0  0  0  0  0  0  0  0
    5.0270   -5.7080   22.1790 S   0  0  0  0  0  0  0  0  0  0  0  0
    6.4990   -0.4760   21.2500 N   0  0  0  0  0  0  0  0  0  0  0  0
    6.1850   -5.2790   24.5980 C   0  0  0  0  0  0  0  0  0  0  0  0
    5.0920   -5.9830   23.8200 C   0  0  0  0  0  0  0  0  0  0  0  0
    6.2340   -0.0840   22.4350 C   0  0  0  0  0  0  0  0  0  0  0  0
    6.3820   -5.4070   26.0080 C   0  0  0  0  0  0  0  0  0  0  0  0
    4.2670   -6.7770   24.5730 C   0  0  0  0  0  0  0  0  0  0  0  0
    6.0640    0.2460   20.0780 C   0  0  0  0  0  0  0  0  0  0  0  0
    7.4330   -4.6970   26.5560 O   0  0  0  0  0  0  0  0  0  0  0  0
    7.4440   -0.3910   23.2720 C   0  0  2  0  0  0  0  0  0  0  0  0
    4.4570   -6.9330   26.1460 C   0  0  0  0  0  0  0  0  0  0  0  0
    5.5050   -6.2370   26.7590 C   0  0  0  0  0  0  0  0  0  0  0  0
    5.0310    1.1610   20.1100 C   0  0  0  0  0  0  0  0  0  0  0  0
    6.6830    0.0390   18.8610 C   0  0  0  0  0  0  0  0  0  0  0  0
    8.0700   -5.2400   27.4710 C   0  0  0  0  0  0  0  0  0  0  0  0
    7.3970    0.1390   24.6850 C   0  0  0  0  0  0  0  0  0  0  0  0
    4.3080    1.4890   21.2950 C   0  0  0  0  0  0  0  0  0  0  0  0
    6.3000    0.7230   17.6310 N   0  0  0  0  0  0  0  0  0  0  0  0
    4.6290    1.8770   18.8010 C   0  0  0  0  0  0  0  0  0  0  0  0
    8.7110   -0.0100   22.4100 C   0  0  2  0  0  0  0  0  0  0  0  0
    5.2870    1.6180   17.6250 C   0  0  0  0  0  0  0  0  0  0  0  0
   10.0380   -0.0000   23.1070 C   0  0  1  0  0  0  0  0  0  0  0  0
    8.3820    1.1940   21.7440 C   0  0  0  0  0  0  0  0  0  0  0  0
   10.1300   -0.5920   24.2970 C   0  0  1  0  0  0  0  0  0  0  0  0
   10.9800   -0.7090   22.1370 C   0  0  0  0  0  0  0  0  0  0  0  0
    9.3260    2.1190   21.4910 N   0  0  0  0  0  0  0  0  0  0  0  0
   10.3440    1.3890   23.5770 C   0  0  0  0  0  0  0  0  0  0  0  0
   10.0370   -1.7980   24.0890 O   0  0  0  0  0  0  0  0  0  0  0  0
   11.5580   -0.3740   24.7580 C   0  0  0  0  0  0  0  0  0  0  0  0
   12.4860   -0.5930   22.3430 C   0  0  2  0  0  0  0  0  0  0  0  0
   10.3310    2.3720   22.4870 C   0  0  2  0  0  0  0  0  0  0  0  0
   13.1900   -1.9890   21.6610 Cl  0  0  0  0  0  0  0  0  0  0  0  0
    9.2140   -2.4960   24.9030 C   0  0  0  0  0  0  0  0  0  0  0  0
   10.4240    3.7930   22.6510 N   0  0  0  0  0  0  0  0  0  0  0  0
   12.7550   -0.3690   23.7860 C   0  0  0  0  0  0  0  0  0  0  0  0
   11.6700    4.1310   22.8950 C   0  0  0  0  0  0  0  0  0  0  0  0
   12.5430    3.1230   23.3260 O   0  0  0  0  0  0  0  0  0  0  0  0
   12.2160    5.5560   22.6900 C   0  0  0  0  0  0  0  0  0  0  0  0
   11.2910    6.5740   23.2920 C   0  0  0  0  0  0  0  0  0  0  0  0
    9.8960    6.8610   22.7110 C   0  0  0  0  0  0  0  0  0  0  0  0
   11.6960    7.2930   24.4070 C   0  0  0  0  0  0  0  0  0  0  0  0
    9.1290    7.8360   23.3340 C   0  0  0  0  0  0  0  0  0  0  0  0
   10.9460    8.2600   25.0260 C   0  0  0  0  0  0  0  0  0  0  0  0
    9.5310    8.5670   24.4360 C   0  0  0  0  0  0  0  0  0  0  0  0
   11.4290    8.9590   26.1430 C   0  0  0  0  0  0  0  0  0  0  0  0
    8.7300    9.5580   25.0210 C   0  0  0  0  0  0  0  0  0  0  0  0
   10.6910    9.9570   26.7760 C   0  0  0  0  0  0  0  0  0  0  0  0
    9.3160   10.3040   26.2480 C   0  0  0  0  0  0  0  0  0  0  0  0
  1  2  1  0
  2  3  2  0
  1  4  1  0
  1  5  1  0
  2  6  1  0
  4  7  1  0
  5  8  2  0
  5  9  1  0
  7 10  1  0
  8 11  1  0
  9 12  1  0
 11 12  2  0
 10 13  1  0
 11 14  1  0
 12 15  1  0
 10 16  1  0
 14 17  1  0
 13 18  1  0
 15 19  2  0
 14 20  2  0
 19 20  1  0
 16 21  2  0
 16 22  1  0
 17 23  1  0
 18 24  1  1
 21 25  1  0
 22 26  2  0
 21 27  1  0
 18 28  1  0
 26 29  1  0
 27 29  2  0
 28 30  1  0
 28 31  1  1
 30 32  1  0
 30 33  1  6
 31 34  1  0
 30 35  1  0
 32 36  1  6
 32 37  1  0
 33 38  1  0
 34 39  1  0
 35 39  1  0
 38 40  1  1
 36 41  1  0
 39 42  1  1
 37 43  2  0
 38 43  1  0
 42 44  1  0
 44 45  2  0
 44 46  1  0
 46 47  1  0
 47 48  2  0
 47 49  1  0
 48 50  1  0
 49 51  2  0
 50 52  2  0
 51 52  1  0
 51 53  1  0
 52 54  1  0
 53 55  2  0
 54 56  2  0
 55 56  1  0
M  END
