x1348-x0540-x0387-x2694
     RDKit          3D

 65 72  0  0  0  0  0  0  0  0999 V2000
    7.5260   -1.0850   21.5560 N   0  0  0  0  0  0  0  0  0  0  0  0
    7.0480    0.2990   21.4510 C   0  0  1  0  0  0  0  0  0  0  0  0
    8.0390    1.4800   21.7400 C   0  0  0  0  0  0  0  0  0  0  0  0
    6.3980   -1.9810   21.8560 C   0  0  0  0  0  0  0  0  0  0  0  0
    8.7840   -1.4820   22.1920 C   0  0  2  0  0  0  0  0  0  0  0  0
    6.6310   -3.4220   21.5440 N   0  0  0  0  0  0  0  0  0  0  0  0
    6.2960    0.5430   20.1810 C   0  0  0  0  0  0  0  0  0  0  0  0
    8.7480   -1.4390   23.6420 N   0  0  0  0  0  0  0  0  0  0  0  0
   10.0620   -0.6940   22.1100 C   0  0  0  0  0  0  0  0  0  0  0  0
    7.8020    2.4440   22.6760 N   0  0  0  0  0  0  0  0  0  0  0  0
    9.0660    1.6530   21.1040 O   0  0  0  0  0  0  0  0  0  0  0  0
    6.4210   -3.6770   20.1720 C   0  0  0  0  0  0  0  0  0  0  0  0
    4.9090    1.0350   20.3050 C   0  0  0  0  0  0  0  0  0  0  0  0
    6.8660    0.3330   18.9380 C   0  0  0  0  0  0  0  0  0  0  0  0
    9.9960   -1.8330   24.0830 C   0  0  2  0  0  0  0  0  0  0  0  0
   10.9070   -1.1660   23.0520 C   0  0  2  0  0  0  0  0  0  0  0  0
    6.0940   -4.3500   22.4580 C   0  0  0  0  0  0  0  0  0  0  0  0
    4.1790    1.2620   21.5940 C   0  0  0  0  0  0  0  0  0  0  0  0
    5.4360   -4.3280   19.8330 O   0  0  0  0  0  0  0  0  0  0  0  0
    7.4220   -3.1290   19.1510 C   0  0  0  0  0  0  0  0  0  0  0  0
    6.3050    0.5610   17.7650 N   0  0  0  0  0  0  0  0  0  0  0  0
    4.2880    1.2880   19.1090 C   0  0  0  0  0  0  0  0  0  0  0  0
    8.5740    3.6080   22.9640 C   0  0  0  0  0  0  0  0  0  0  0  0
    6.2510   -4.2490   23.7470 N   0  0  0  0  0  0  0  0  0  0  0  0
    5.1440   -5.6950   21.9840 S   0  0  0  0  0  0  0  0  0  0  0  0
    9.9090   -3.2380   24.3990 N   0  0  0  0  0  0  0  0  0  0  0  0
   12.0600   -0.3090   23.5960 C   0  0  1  0  0  0  0  0  0  0  0  0
   11.5890   -2.1670   22.1660 C   0  0  0  0  0  0  0  0  0  0  0  0
   12.5580   -0.9360   24.8750 C   0  0  0  0  0  0  0  0  0  0  0  0
    4.7890    2.1770   22.4440 C   0  0  0  0  0  0  0  0  0  0  0  0
    5.0640    1.0320   17.8220 C   0  0  0  0  0  0  0  0  0  0  0  0
    9.8130    3.4190   23.6060 C   0  0  0  0  0  0  0  0  0  0  0  0
    8.1600    4.9270   22.6380 C   0  0  0  0  0  0  0  0  0  0  0  0
    5.6020   -5.2230   24.4490 C   0  0  0  0  0  0  0  0  0  0  0  0
    4.9070   -6.1310   23.6320 C   0  0  0  0  0  0  0  0  0  0  0  0
    8.6090   -3.8200   24.5750 C   0  0  0  0  0  0  0  0  0  0  0  0
   10.7840   -3.6190   25.4880 C   0  0  0  0  0  0  0  0  0  0  0  0
   13.1640   -1.7120   21.6220 S   0  0  0  0  0  0  0  0  0  0  0  0
   13.1980   -0.3450   22.6550 C   0  0  0  0  0  0  0  0  0  0  0  0
   10.2640    2.0220   23.9490 C   0  0  0  0  0  0  0  0  0  0  0  0
   13.1770   -2.1830   24.6710 C   0  0  0  0  0  0  0  0  0  0  0  0
    3.7740    3.0730   22.9810 N   0  0  0  0  0  0  0  0  0  0  0  0
   10.5800    4.5520   23.8960 C   0  0  0  0  0  0  0  0  0  0  0  0
    9.0180    5.9930   22.9860 C   0  0  0  0  0  0  0  0  0  0  0  0
    5.5700   -5.3740   25.8380 C   0  0  0  0  0  0  0  0  0  0  0  0
    4.1830   -7.1640   24.2390 C   0  0  0  0  0  0  0  0  0  0  0  0
    8.1570   -3.6630   26.0040 C   0  0  0  0  0  0  0  0  0  0  0  0
   10.2680   -4.8020   26.2350 C   0  0  0  0  0  0  0  0  0  0  0  0
    2.7090    2.3880   23.6840 C   0  0  0  0  0  0  0  0  0  0  0  0
   10.2370    5.8470   23.6210 C   0  0  0  0  0  0  0  0  0  0  0  0
    4.1750   -7.2660   25.6040 C   0  0  0  0  0  0  0  0  0  0  0  0
    4.8620   -6.3910   26.4280 C   0  0  0  0  0  0  0  0  0  0  0  0
    8.8920   -4.5790   26.8450 C   0  0  0  0  0  0  0  0  0  0  0  0
   10.9620    6.9690   23.9060 O   0  0  0  0  0  0  0  0  0  0  0  0
    2.8640    1.4540   24.7580 O   0  0  0  0  0  0  0  0  0  0  0  0
    1.6970    2.7040   23.2110 N   0  0  0  0  0  0  0  0  0  0  0  0
    8.1310   -5.8640   27.0560 C   0  0  0  0  0  0  0  0  0  0  0  0
    9.0480   -4.0390   28.1530 O   0  0  0  0  0  0  0  0  0  0  0  0
   11.8760    6.8550   24.9930 C   0  0  0  0  0  0  0  0  0  0  0  0
    0.5770    3.1230   24.0750 C   0  0  0  0  0  0  0  0  0  0  0  0
    0.5890    4.4930   24.3530 C   0  0  0  0  0  0  0  0  0  0  0  0
   -0.5890    2.7070   23.4370 C   0  0  0  0  0  0  0  0  0  0  0  0
   -0.6340    5.1050   25.0550 C   0  0  0  0  0  0  0  0  0  0  0  0
   -1.7870    3.3090   23.7970 C   0  0  0  0  0  0  0  0  0  0  0  0
   -1.7200    4.7720   24.2260 C   0  0  0  0  0  0  0  0  0  0  0  0
  1  2  1  0
  2  3  1  6
  1  4  1  0
  5  1  1  6
  4  6  1  0
  2  7  1  0
  5  8  1  0
  5  9  1  0
  3 10  1  0
  3 11  2  0
  6 12  1  0
  7 13  1  0
  7 14  2  0
  8 15  1  0
 16  9  1  6
 15 16  1  0
  6 17  1  0
 13 18  1  0
 12 19  2  0
 12 20  1  0
 14 21  1  0
 13 22  2  0
 10 23  1  0
 17 24  2  0
 17 25  1  0
 15 26  1  6
 16 27  1  0
 16 28  1  0
 27 29  1  1
 18 30  1  0
 21 31  2  0
 22 31  1  0
 23 32  2  0
 23 33  1  0
 24 34  1  0
 25 35  1  0
 34 35  2  0
 26 36  1  0
 26 37  1  0
 28 38  2  0
 27 39  1  0
 38 39  2  0
 32 40  1  0
 29 41  1  0
 30 42  1  0
 32 43  1  0
 33 44  2  0
 34 45  1  0
 35 46  1  0
 36 47  1  0
 37 48  1  0
 42 49  1  0
 43 50  2  0
 44 50  1  0
 46 51  2  0
 45 52  2  0
 51 52  1  0
 47 53  1  0
 48 53  1  0
 50 54  1  0
 49 55  2  0
 49 56  1  0
 53 57  1  0
 53 58  1  0
 54 59  1  0
 56 60  1  0
 60 61  1  0
 60 62  1  0
 61 63  1  0
 62 64  1  0
 63 65  1  0
 64 65  1  0
M  END
