x1348-x2705-x0995
     RDKit          3D

 46 50  0  0  0  0  0  0  0  0999 V2000
    7.5880   -1.0770   22.1630 N   0  0  0  0  0  0  0  0  0  0  0  0
    6.9950    0.1690   21.8080 C   0  0  1  0  0  0  0  0  0  0  0  0
    7.9560    1.3530   21.8970 C   0  0  0  0  0  0  0  0  0  0  0  0
    7.5980   -2.1900   21.2350 C   0  0  0  0  0  0  0  0  0  0  0  0
    8.8010   -1.1930   22.8610 C   0  0  0  0  0  0  0  0  0  0  0  0
    6.6370   -3.1460   21.2710 N   0  0  0  0  0  0  0  0  0  0  0  0
    6.3600    0.3900   20.4480 C   0  0  0  0  0  0  0  0  0  0  0  0
    8.8530   -1.2260   24.2040 N   0  0  0  0  0  0  0  0  0  0  0  0
   10.0500   -1.2980   22.1800 C   0  0  0  0  0  0  0  0  0  0  0  0
    7.6420    2.4050   22.8890 N   0  0  0  0  0  0  0  0  0  0  0  0
    8.9050    1.4400   21.1250 O   0  0  0  0  0  0  0  0  0  0  0  0
    6.3280   -3.5440   19.9750 C   0  0  0  0  0  0  0  0  0  0  0  0
    5.0290    1.1070   20.2470 C   0  0  0  0  0  0  0  0  0  0  0  0
    6.9970   -0.0410   19.1230 C   0  0  0  0  0  0  0  0  0  0  0  0
   10.1880   -1.3570   24.4950 N   0  0  0  0  0  0  0  0  0  0  0  0
   10.8920   -1.4050   23.3750 C   0  0  0  0  0  0  0  0  0  0  0  0
    6.2310   -3.9970   22.4100 C   0  0  0  0  0  0  0  0  0  0  0  0
   12.3850   -1.5510   23.3150 C   0  0  0  0  0  0  0  0  0  0  0  0
    5.3300   -4.2200   19.7400 O   0  0  0  0  0  0  0  0  0  0  0  0
    7.2970   -3.1500   18.8510 C   0  0  0  0  0  0  0  0  0  0  0  0
    6.4080    0.2220   17.9380 N   0  0  0  0  0  0  0  0  0  0  0  0
    4.4810    1.3480   19.0560 C   0  0  0  0  0  0  0  0  0  0  0  0
    8.1010    3.7650   22.8730 C   0  0  0  0  0  0  0  0  0  0  0  0
    6.4770   -3.8660   23.7030 N   0  0  0  0  0  0  0  0  0  0  0  0
    5.2070   -5.4560   22.0310 S   0  0  0  0  0  0  0  0  0  0  0  0
   13.0130   -0.2960   23.4280 C   0  0  0  0  0  0  0  0  0  0  0  0
   12.8910   -2.3440   24.3420 C   0  0  0  0  0  0  0  0  0  0  0  0
   12.8400   -2.0530   21.9710 C   0  0  0  0  0  0  0  0  0  0  0  0
    3.2920    2.0080   19.0270 N   0  0  0  0  0  0  0  0  0  0  0  0
    5.1300    0.9330   17.8830 C   0  0  0  0  0  0  0  0  0  0  0  0
    9.3040    4.1570   23.4240 C   0  0  0  0  0  0  0  0  0  0  0  0
    7.3300    4.6880   22.2990 C   0  0  0  0  0  0  0  0  0  0  0  0
    5.8410   -4.8790   24.4530 C   0  0  0  0  0  0  0  0  0  0  0  0
    5.1110   -5.8110   23.6970 C   0  0  0  0  0  0  0  0  0  0  0  0
   10.1670    3.1840   24.0610 C   0  0  0  0  0  0  0  0  0  0  0  0
    5.9880    4.3450   21.6750 C   0  0  0  0  0  0  0  0  0  0  0  0
    9.8160    5.4450   23.4450 C   0  0  0  0  0  0  0  0  0  0  0  0
    7.7650    6.0170   22.2700 C   0  0  0  0  0  0  0  0  0  0  0  0
    5.8480   -5.0510   25.8590 C   0  0  0  0  0  0  0  0  0  0  0  0
    4.4330   -6.8420   24.3480 C   0  0  0  0  0  0  0  0  0  0  0  0
   10.4260    1.9760   23.1950 C   0  0  0  0  0  0  0  0  0  0  0  0
    6.5490   -4.1450   26.6070 O   0  0  0  0  0  0  0  0  0  0  0  0
    8.9750    6.4440   22.8160 C   0  0  0  0  0  0  0  0  0  0  0  0
    4.4430   -6.9980   25.7300 C   0  0  0  0  0  0  0  0  0  0  0  0
    5.1610   -6.1010   26.5110 C   0  0  0  0  0  0  0  0  0  0  0  0
    6.5950   -4.5490   28.0050 C   0  0  0  0  0  0  0  0  0  0  0  0
  1  2  1  0
  2  3  1  6
  1  4  1  0
  1  5  1  0
  4  6  1  0
  2  7  1  0
  5  8  2  0
  5  9  1  0
  3 10  1  0
  3 11  2  0
  6 12  1  0
  7 13  2  0
  7 14  1  0
  8 15  1  0
  9 16  2  0
 15 16  1  0
  6 17  1  0
 16 18  1  0
 12 19  2  0
 12 20  1  0
 14 21  2  0
 13 22  1  0
 10 23  1  0
 17 24  2  0
 17 25  1  0
 18 26  1  0
 18 27  1  0
 18 28  1  0
 22 29  1  0
 21 30  1  0
 22 30  2  0
 23 31  2  0
 23 32  1  0
 24 33  1  0
 25 34  1  0
 33 34  2  0
 31 35  1  0
 32 36  1  0
 31 37  1  0
 32 38  2  0
 33 39  1  0
 34 40  1  0
 35 41  1  0
 39 42  1  0
 37 43  2  0
 38 43  1  0
 40 44  2  0
 39 45  2  0
 44 45  1  0
 42 46  1  0
M  END
