x1348-x2705
     RDKit          3D

 45 49  0  0  0  0  0  0  0  0999 V2000
    7.6260   -1.1860   22.2000 N   0  0  0  0  0  0  0  0  0  0  0  0
    6.9920    0.1380   21.7520 C   0  0  1  0  0  0  0  0  0  0  0  0
    7.9110    1.3190   21.8930 C   0  0  0  0  0  0  0  0  0  0  0  0
    7.7530   -2.2870   21.2980 C   0  0  0  0  0  0  0  0  0  0  0  0
    8.7570   -1.2230   22.9030 C   0  0  0  0  0  0  0  0  0  0  0  0
    6.6650   -3.2560   21.2490 N   0  0  0  0  0  0  0  0  0  0  0  0
    6.2750    0.3560   20.4170 C   0  0  0  0  0  0  0  0  0  0  0  0
    8.8790   -1.2040   24.3470 N   0  0  0  0  0  0  0  0  0  0  0  0
   10.0050   -1.3120   22.3710 C   0  0  0  0  0  0  0  0  0  0  0  0
    7.5900    2.2280   22.7590 N   0  0  0  0  0  0  0  0  0  0  0  0
    8.9050    1.4380   21.1730 O   0  0  0  0  0  0  0  0  0  0  0  0
    6.2870   -3.5970   19.9630 C   0  0  0  0  0  0  0  0  0  0  0  0
    4.9790    0.9360   20.3930 C   0  0  0  0  0  0  0  0  0  0  0  0
    6.8850    0.0260   19.1920 C   0  0  0  0  0  0  0  0  0  0  0  0
   10.2090   -1.2800   24.5400 N   0  0  0  0  0  0  0  0  0  0  0  0
   10.9610   -1.3550   23.3450 C   0  0  0  0  0  0  0  0  0  0  0  0
    6.2330   -4.0890   22.3300 C   0  0  0  0  0  0  0  0  0  0  0  0
   12.4470   -1.4540   23.2800 C   0  0  0  0  0  0  0  0  0  0  0  0
    5.2710   -4.2330   19.7170 O   0  0  0  0  0  0  0  0  0  0  0  0
    7.2460   -3.1520   18.8550 C   0  0  0  0  0  0  0  0  0  0  0  0
    6.4240    0.1870   17.9400 N   0  0  0  0  0  0  0  0  0  0  0  0
    4.4260    1.1380   19.1260 C   0  0  0  0  0  0  0  0  0  0  0  0
    8.2560    3.4580   22.8950 C   0  0  0  0  0  0  0  0  0  0  0  0
    6.4940   -3.9200   23.6260 N   0  0  0  0  0  0  0  0  0  0  0  0
    5.2510   -5.4470   22.0070 S   0  0  0  0  0  0  0  0  0  0  0  0
   12.9490   -0.0100   23.5300 C   0  0  0  0  0  0  0  0  0  0  0  0
   12.9750   -2.4060   24.3790 C   0  0  0  0  0  0  0  0  0  0  0  0
   12.9280   -1.9500   21.9040 C   0  0  0  0  0  0  0  0  0  0  0  0
    5.2260    0.7320   17.8890 C   0  0  0  0  0  0  0  0  0  0  0  0
    9.5330    3.4900   23.4440 C   0  0  0  0  0  0  0  0  0  0  0  0
    7.5980    4.6100   22.4670 C   0  0  0  0  0  0  0  0  0  0  0  0
    5.8540   -4.8960   24.4180 C   0  0  0  0  0  0  0  0  0  0  0  0
    5.1130   -5.8200   23.6680 C   0  0  0  0  0  0  0  0  0  0  0  0
   10.2050    2.2140   23.8850 C   0  0  0  0  0  0  0  0  0  0  0  0
    6.2190    4.5790   21.8620 C   0  0  0  0  0  0  0  0  0  0  0  0
   10.2970    4.8020   23.6210 C   0  0  0  0  0  0  0  0  0  0  0  0
    8.2840    5.9800   22.6020 C   0  0  0  0  0  0  0  0  0  0  0  0
    5.8660   -5.0350   25.8300 C   0  0  0  0  0  0  0  0  0  0  0  0
    4.3990   -6.8530   24.2930 C   0  0  0  0  0  0  0  0  0  0  0  0
    9.3080    1.4250   24.8270 C   0  0  0  0  0  0  0  0  0  0  0  0
    6.5710   -4.1430   26.5970 O   0  0  0  0  0  0  0  0  0  0  0  0
    9.6870    5.9900   23.2140 C   0  0  0  0  0  0  0  0  0  0  0  0
    4.4170   -6.9750   25.6700 C   0  0  0  0  0  0  0  0  0  0  0  0
    5.1490   -6.0770   26.4450 C   0  0  0  0  0  0  0  0  0  0  0  0
    6.6130   -4.4600   27.9970 C   0  0  0  0  0  0  0  0  0  0  0  0
  1  2  1  0
  2  3  1  6
  1  4  1  0
  1  5  1  0
  4  6  1  0
  2  7  1  0
  5  8  2  0
  5  9  1  0
  3 10  1  0
  3 11  2  0
  6 12  1  0
  7 13  2  0
  7 14  1  0
  8 15  1  0
  9 16  2  0
 15 16  1  0
  6 17  1  0
 16 18  1  0
 12 19  2  0
 12 20  1  0
 14 21  2  0
 13 22  1  0
 10 23  1  0
 17 24  2  0
 17 25  1  0
 18 26  1  0
 18 27  1  0
 18 28  1  0
 21 29  1  0
 22 29  2  0
 23 30  2  0
 23 31  1  0
 24 32  1  0
 25 33  1  0
 32 33  2  0
 30 34  1  0
 31 35  1  0
 30 36  1  0
 31 37  2  0
 32 38  1  0
 33 39  1  0
 34 40  1  0
 38 41  1  0
 36 42  2  0
 37 42  1  0
 39 43  2  0
 38 44  2  0
 43 44  1  0
 41 45  1  0
M  END
