x1348-x3117-x2705-x2703
     RDKit          3D

 46 50  0  0  0  0  0  0  0  0999 V2000
    7.5100   -1.1170   22.1310 N   0  0  0  0  0  0  0  0  0  0  0  0
    6.9730    0.1540   21.7400 C   0  0  1  0  0  0  0  0  0  0  0  0
    7.9610    1.2900   21.8710 C   0  0  0  0  0  0  0  0  0  0  0  0
    7.5830   -2.1820   21.2570 C   0  0  0  0  0  0  0  0  0  0  0  0
    8.6990   -1.1110   22.8470 C   0  0  0  0  0  0  0  0  0  0  0  0
    6.7640   -3.2550   21.2600 N   0  0  0  0  0  0  0  0  0  0  0  0
    6.2930    0.3800   20.3810 C   0  0  0  0  0  0  0  0  0  0  0  0
    8.8140   -1.0990   24.2240 N   0  0  0  0  0  0  0  0  0  0  0  0
    9.9750   -1.1350   22.3170 C   0  0  0  0  0  0  0  0  0  0  0  0
    7.6550    2.1410   22.7880 N   0  0  0  0  0  0  0  0  0  0  0  0
    8.9440    1.4290   21.1510 O   0  0  0  0  0  0  0  0  0  0  0  0
    6.3220   -3.6470   19.9930 C   0  0  0  0  0  0  0  0  0  0  0  0
    5.0420    0.9690   20.3250 C   0  0  0  0  0  0  0  0  0  0  0  0
    6.9150    0.0340   19.1830 C   0  0  0  0  0  0  0  0  0  0  0  0
   10.1370   -1.1100   24.4610 N   0  0  0  0  0  0  0  0  0  0  0  0
   10.8310   -1.1350   23.3520 C   0  0  0  0  0  0  0  0  0  0  0  0
    6.3530   -4.0840   22.3570 C   0  0  0  0  0  0  0  0  0  0  0  0
   12.3430   -1.1550   23.2620 C   0  0  0  0  0  0  0  0  0  0  0  0
    5.3120   -4.3080   19.7770 O   0  0  0  0  0  0  0  0  0  0  0  0
    7.2710   -3.1740   18.8740 C   0  0  0  0  0  0  0  0  0  0  0  0
    6.3420    0.2650   17.9830 N   0  0  0  0  0  0  0  0  0  0  0  0
    4.4720    1.1960   19.0750 C   0  0  0  0  0  0  0  0  0  0  0  0
    8.2370    3.4240   22.9120 C   0  0  0  0  0  0  0  0  0  0  0  0
    6.9060   -4.0880   23.7160 N   0  0  0  0  0  0  0  0  0  0  0  0
    5.0020   -5.2430   22.0730 S   0  0  0  0  0  0  0  0  0  0  0  0
   12.7840    0.3050   23.1410 C   0  0  0  0  0  0  0  0  0  0  0  0
   12.9030   -1.5080   24.4540 C   0  0  0  0  0  0  0  0  0  0  0  0
   12.9100   -1.9350   22.0640 C   0  0  0  0  0  0  0  0  0  0  0  0
    5.1370    0.8420   17.9090 C   0  0  0  0  0  0  0  0  0  0  0  0
    9.5040    3.4590   23.5220 C   0  0  0  0  0  0  0  0  0  0  0  0
    7.6040    4.6050   22.4590 C   0  0  0  0  0  0  0  0  0  0  0  0
    6.2120   -4.9880   24.5320 C   0  0  0  0  0  0  0  0  0  0  0  0
    5.1590   -5.6440   23.6940 C   0  0  0  0  0  0  0  0  0  0  0  0
   10.1460    2.1390   23.9980 C   0  0  0  0  0  0  0  0  0  0  0  0
    6.2770    4.5270   21.8250 C   0  0  0  0  0  0  0  0  0  0  0  0
   12.9930   -2.9760   24.8170 C   0  0  0  0  0  0  0  0  0  0  0  0
   10.1400    4.6750   23.6790 C   0  0  0  0  0  0  0  0  0  0  0  0
    8.2030    5.8730   22.5910 C   0  0  0  0  0  0  0  0  0  0  0  0
    6.3130   -5.3480   25.8760 C   0  0  0  0  0  0  0  0  0  0  0  0
    4.3080   -6.5800   24.2690 C   0  0  0  0  0  0  0  0  0  0  0  0
    9.1630    1.5100   24.9790 C   0  0  0  0  0  0  0  0  0  0  0  0
    7.2740   -4.7730   26.6430 O   0  0  0  0  0  0  0  0  0  0  0  0
    9.5510    5.8370   23.2500 C   0  0  0  0  0  0  0  0  0  0  0  0
    4.4420   -6.8910   25.6200 C   0  0  0  0  0  0  0  0  0  0  0  0
    5.4420   -6.2760   26.4150 C   0  0  0  0  0  0  0  0  0  0  0  0
    7.6530   -5.5040   27.8200 C   0  0  0  0  0  0  0  0  0  0  0  0
  1  2  1  0
  2  3  1  6
  1  4  1  0
  1  5  1  0
  4  6  1  0
  2  7  1  0
  5  8  2  0
  5  9  1  0
  3 10  1  0
  3 11  2  0
  6 12  1  0
  7 13  2  0
  7 14  1  0
  8 15  1  0
  9 16  2  0
 15 16  1  0
  6 17  1  0
 16 18  1  0
 12 19  2  0
 12 20  1  0
 14 21  2  0
 13 22  1  0
 10 23  1  0
 17 24  2  0
 17 25  1  0
 18 26  1  0
 18 27  1  0
 18 28  1  0
 21 29  1  0
 22 29  2  0
 23 30  2  0
 23 31  1  0
 24 32  1  0
 25 33  1  0
 32 33  2  0
 30 34  1  0
 31 35  1  0
 27 36  1  0
 30 37  1  0
 31 38  2  0
 32 39  1  0
 33 40  1  0
 34 41  1  0
 39 42  1  0
 37 43  2  0
 38 43  1  0
 40 44  2  0
 39 45  2  0
 44 45  1  0
 42 46  1  0
M  END
