x1348-x3110-x1119-x3124
     RDKit          3D

 66 71  0  0  0  0  0  0  0  0999 V2000
    8.2590    1.5230   23.2630 N   0  0  0  0  0  0  0  0  0  0  0  0
    9.0380    2.4800   23.6420 C   0  0  0  0  0  0  0  0  0  0  0  0
   10.4030    2.2180   23.4900 C   0  0  0  0  0  0  0  0  0  0  0  0
    8.0790    1.2260   21.8470 C   0  0  0  0  0  0  0  0  0  0  0  0
    8.8000    1.7350   20.9910 O   0  0  0  0  0  0  0  0  0  0  0  0
    6.9660    0.2940   21.6400 C   0  0  2  0  0  0  0  0  0  0  0  0
    7.4180   -1.0890   21.6970 N   0  0  0  0  0  0  0  0  0  0  0  0
   11.2230    3.4800   23.3000 C   0  0  0  0  0  0  0  0  0  0  0  0
    6.3530    0.6530   20.3390 C   0  0  0  0  0  0  0  0  0  0  0  0
   11.8350    3.4340   22.2270 O   0  0  0  0  0  0  0  0  0  0  0  0
   11.2620    4.4070   24.1060 O   0  0  0  0  0  0  0  0  0  0  0  0
    6.3950   -2.0820   21.9340 C   0  0  0  0  0  0  0  0  0  0  0  0
    5.2470    1.4410   20.2350 C   0  0  0  0  0  0  0  0  0  0  0  0
    6.8770    0.2030   19.1570 C   0  0  0  0  0  0  0  0  0  0  0  0
    8.5910   -1.3480   22.4060 C   0  0  0  0  0  0  0  0  0  0  0  0
   12.6620    4.4870   21.9450 C   0  0  0  0  0  0  0  0  0  0  0  0
    6.6110   -3.4520   21.5070 N   0  0  0  0  0  0  0  0  0  0  0  0
    6.3610    0.5130   17.9560 N   0  0  0  0  0  0  0  0  0  0  0  0
    4.7380    1.7430   18.9890 C   0  0  0  0  0  0  0  0  0  0  0  0
    9.8100   -1.1580   21.7390 C   0  0  0  0  0  0  0  0  0  0  0  0
    8.6390   -1.7740   23.7170 C   0  0  0  0  0  0  0  0  0  0  0  0
   14.0120    4.2230   22.6340 C   0  0  0  0  0  0  0  0  0  0  0  0
    6.3060   -3.7900   20.1880 C   0  0  0  0  0  0  0  0  0  0  0  0
    5.2640    1.3030   17.7630 C   0  0  0  0  0  0  0  0  0  0  0  0
   11.0150   -1.3920   22.3840 C   0  0  0  0  0  0  0  0  0  0  0  0
    9.8330   -1.9990   24.3500 C   0  0  0  0  0  0  0  0  0  0  0  0
    6.2010   -4.3080   22.5240 C   0  0  0  0  0  0  0  0  0  0  0  0
    5.3750   -4.5380   19.8970 O   0  0  0  0  0  0  0  0  0  0  0  0
    7.2020   -3.1520   19.1340 C   0  0  0  0  0  0  0  0  0  0  0  0
   15.2480    4.9340   22.1900 C   0  0  0  0  0  0  0  0  0  0  0  0
   11.0310   -1.8140   23.7030 C   0  0  0  0  0  0  0  0  0  0  0  0
    6.7550   -4.2970   23.7250 N   0  0  0  0  0  0  0  0  0  0  0  0
    4.8980   -5.4010   22.2770 S   0  0  0  0  0  0  0  0  0  0  0  0
   12.3250   -2.0410   24.3570 C   0  0  0  0  0  0  0  0  0  0  0  0
   16.5360    4.3610   22.4190 C   0  0  0  0  0  0  0  0  0  0  0  0
    6.0890   -5.1760   24.5590 C   0  0  0  0  0  0  0  0  0  0  0  0
    5.0650   -5.8310   23.9180 C   0  0  0  0  0  0  0  0  0  0  0  0
   12.6660   -0.7330   25.0710 C   0  0  0  0  0  0  0  0  0  0  0  0
   13.4060   -2.3550   23.3230 C   0  0  0  0  0  0  0  0  0  0  0  0
   12.1850   -3.1880   25.3360 C   0  0  0  0  0  0  0  0  0  0  0  0
   17.2650    4.9090   23.6550 C   0  0  0  0  0  0  0  0  0  0  0  0
    6.3170   -5.4510   25.9010 C   0  0  0  0  0  0  0  0  0  0  0  0
    4.2420   -6.7440   24.5360 C   0  0  0  0  0  0  0  0  0  0  0  0
    7.3480   -4.8100   26.5500 O   0  0  0  0  0  0  0  0  0  0  0  0
   18.4780    5.9930   23.7520 C   0  0  0  0  0  0  0  0  0  0  0  0
    4.4350   -7.0120   25.8390 C   0  0  0  0  0  0  0  0  0  0  0  0
    5.4660   -6.3840   26.5530 C   0  0  0  0  0  0  0  0  0  0  0  0
    7.8880   -5.5500   27.6500 C   0  0  0  0  0  0  0  0  0  0  0  0
   19.4200    6.5500   22.8450 C   0  0  0  0  0  0  0  0  0  0  0  0
   20.5680    7.1660   23.1880 N   0  0  0  0  0  0  0  0  0  0  0  0
   21.4590    6.1610   23.7120 C   0  0  0  0  0  0  0  0  0  0  0  0
   22.4430    5.5870   22.8900 C   0  0  0  0  0  0  0  0  0  0  0  0
   21.2880    5.7780   25.0290 C   0  0  0  0  0  0  0  0  0  0  0  0
   23.2470    4.5980   23.4170 C   0  0  0  0  0  0  0  0  0  0  0  0
   22.0920    4.8000   25.5220 C   0  0  0  0  0  0  0  0  0  0  0  0
   23.0390    4.2240   24.7250 C   0  0  0  0  0  0  0  0  0  0  0  0
   24.1140    2.9390   25.2030 S   0  0  0  0  0  0  0  0  0  0  0  0
   23.4010    1.7330   24.9760 O   0  0  0  0  0  0  0  0  0  0  0  0
   24.3510    3.2460   26.8380 N   0  0  0  0  0  0  0  0  0  0  0  0
   25.3830    3.0750   24.5430 O   0  0  0  0  0  0  0  0  0  0  0  0
   25.0800    4.3550   27.2700 C   0  0  0  0  0  0  0  0  0  0  0  0
   25.1140    4.5830   28.6130 N   0  0  0  0  0  0  0  0  0  0  0  0
   25.7140    5.1320   26.2860 C   0  0  0  0  0  0  0  0  0  0  0  0
   25.8100    5.6410   29.0980 C   0  0  0  0  0  0  0  0  0  0  0  0
   26.5230    6.3460   26.7430 C   0  0  0  0  0  0  0  0  0  0  0  0
   26.5710    6.6040   28.1820 C   0  0  0  0  0  0  0  0  0  0  0  0
  1  2  1  0
  2  3  1  0
  1  4  1  0
  4  5  2  0
  6  4  1  6
  6  7  1  0
  3  8  1  0
  6  9  1  0
  8 10  1  0
  8 11  2  0
  7 12  1  0
  9 13  2  0
  9 14  1  0
  7 15  1  0
 10 16  1  0
 12 17  1  0
 14 18  2  0
 13 19  1  0
 15 20  2  0
 15 21  1  0
 16 22  1  0
 17 23  1  0
 18 24  1  0
 19 24  2  0
 20 25  1  0
 21 26  2  0
 17 27  1  0
 23 28  2  0
 23 29  1  0
 22 30  1  0
 25 31  2  0
 26 31  1  0
 27 32  2  0
 27 33  1  0
 31 34  1  0
 30 35  1  0
 32 36  1  0
 33 37  1  0
 36 37  2  0
 34 38  1  0
 34 39  1  0
 34 40  1  0
 35 41  1  0
 36 42  1  0
 37 43  1  0
 42 44  1  0
 41 45  1  0
 43 46  2  0
 42 47  2  0
 46 47  1  0
 44 48  1  0
 45 49  1  0
 49 50  1  0
 50 51  1  0
 51 52  2  0
 51 53  1  0
 52 54  1  0
 53 55  2  0
 54 56  2  0
 55 56  1  0
 56 57  1  0
 57 58  2  0
 57 59  1  0
 57 60  2  0
 59 61  1  0
 61 62  2  0
 61 63  1  0
 62 64  1  0
 63 65  2  0
 64 66  2  0
 65 66  1  0
M  END
