x1348-x2608
     RDKit          3D

 33 36  0  0  0  0  0  0  0  0999 V2000
    6.1970   -3.2930   21.4800 N   0  0  0  0  0  0  0  0  0  0  0  0
    6.1690   -3.8600   20.2320 C   0  0  0  0  0  0  0  0  0  0  0  0
    5.4310   -4.7850   19.9470 O   0  0  0  0  0  0  0  0  0  0  0  0
    5.4550   -2.1370   21.5860 C   0  0  0  0  0  0  0  0  0  0  0  0
    6.0030   -4.1460   22.5530 C   0  0  0  0  0  0  0  0  0  0  0  0
    7.0990   -3.2210   19.2050 C   0  0  0  0  0  0  0  0  0  0  0  0
    6.2590   -0.9200   22.0500 C   0  0  0  0  0  0  0  0  0  0  0  0
    6.7380   -4.0940   23.7660 N   0  0  0  0  0  0  0  0  0  0  0  0
    4.6620   -5.4130   22.4810 S   0  0  0  0  0  0  0  0  0  0  0  0
    6.8680   -0.5130   21.1580 N   0  0  0  0  0  0  0  0  0  0  0  0
    6.1090   -5.0590   24.6100 C   0  0  0  0  0  0  0  0  0  0  0  0
    5.0720   -5.7210   23.9900 C   0  0  0  0  0  0  0  0  0  0  0  0
    8.0700   -0.1250   21.4100 C   0  0  0  0  0  0  0  0  0  0  0  0
    6.4460   -5.3470   25.9490 C   0  0  0  0  0  0  0  0  0  0  0  0
    4.2980   -6.6870   24.6210 C   0  0  0  0  0  0  0  0  0  0  0  0
    6.1250    0.1880   20.1400 C   0  0  0  0  0  0  0  0  0  0  0  0
    7.4970   -4.6760   26.5600 O   0  0  0  0  0  0  0  0  0  0  0  0
    8.7930   -1.0310   22.1320 N   0  0  0  0  0  0  0  0  0  0  0  0
    8.4920    0.9770   21.0410 O   0  0  0  0  0  0  0  0  0  0  0  0
    4.5570   -7.0060   25.9280 C   0  0  0  0  0  0  0  0  0  0  0  0
    5.7100   -6.3010   26.6630 C   0  0  0  0  0  0  0  0  0  0  0  0
    6.4740    0.3080   18.8180 C   0  0  0  0  0  0  0  0  0  0  0  0
    4.9320    0.8540   20.3760 C   0  0  0  0  0  0  0  0  0  0  0  0
    7.9880   -5.3720   27.7130 C   0  0  0  0  0  0  0  0  0  0  0  0
   10.1420   -0.6920   22.3700 C   0  0  0  0  0  0  0  0  0  0  0  0
    6.2570    0.7050   17.7750 N   0  0  0  0  0  0  0  0  0  0  0  0
    4.3000    1.5550   19.1660 C   0  0  0  0  0  0  0  0  0  0  0  0
   11.2540   -1.5060   22.4290 C   0  0  0  0  0  0  0  0  0  0  0  0
   10.4970    0.9660   22.6160 S   0  0  0  0  0  0  0  0  0  0  0  0
    5.0900    1.4120   17.8510 C   0  0  0  0  0  0  0  0  0  0  0  0
   12.1250    0.5850   22.7550 C   0  0  0  0  0  0  0  0  0  0  0  0
   12.3890   -0.7630   22.6520 C   0  0  0  0  0  0  0  0  0  0  0  0
   13.0200    1.6820   22.9520 C   0  0  0  0  0  0  0  0  0  0  0  0
  1  2  1  0
  2  3  2  0
  1  4  1  0
  1  5  1  0
  2  6  1  0
  4  7  1  0
  5  8  2  0
  5  9  1  0
  7 10  1  0
  8 11  1  0
  9 12  1  0
 11 12  2  0
 10 13  1  0
 11 14  1  0
 12 15  1  0
 10 16  1  0
 14 17  1  0
 13 18  1  0
 13 19  2  0
 15 20  2  0
 14 21  2  0
 20 21  1  0
 16 22  2  0
 16 23  1  0
 17 24  1  0
 18 25  1  0
 22 26  1  0
 23 27  2  0
 25 28  2  0
 25 29  1  0
 26 30  2  0
 27 30  1  0
 29 31  1  0
 28 32  1  0
 31 32  2  0
 31 33  1  0
M  END
