x1348-x2705-x3115-x2776-x2703
     RDKit          3D

 48 52  0  0  0  0  0  0  0  0999 V2000
    7.5360   -1.0410   21.6940 N   0  0  0  0  0  0  0  0  0  0  0  0
    7.0900    0.2550   21.5450 C   0  0  1  0  0  0  0  0  0  0  0  0
    8.0660    1.3630   21.7780 C   0  0  0  0  0  0  0  0  0  0  0  0
    6.5390   -2.0120   21.9540 C   0  0  0  0  0  0  0  0  0  0  0  0
    8.7000   -1.1910   22.5070 C   0  0  0  0  0  0  0  0  0  0  0  0
    6.7530   -3.3860   21.5330 N   0  0  0  0  0  0  0  0  0  0  0  0
    6.4130    0.5390   20.1930 C   0  0  0  0  0  0  0  0  0  0  0  0
    8.5510   -1.2910   23.8710 N   0  0  0  0  0  0  0  0  0  0  0  0
    9.9120   -1.2320   22.0820 C   0  0  0  0  0  0  0  0  0  0  0  0
    7.6850    2.2570   22.7540 N   0  0  0  0  0  0  0  0  0  0  0  0
    9.0920    1.5110   21.1370 O   0  0  0  0  0  0  0  0  0  0  0  0
    6.4540   -3.6560   20.1840 C   0  0  0  0  0  0  0  0  0  0  0  0
    5.3220    1.2940   20.1240 C   0  0  0  0  0  0  0  0  0  0  0  0
    6.9990   -0.0070   19.0460 C   0  0  0  0  0  0  0  0  0  0  0  0
    9.8510   -1.4010   24.2800 N   0  0  0  0  0  0  0  0  0  0  0  0
   10.7170   -1.3620   23.1130 C   0  0  0  0  0  0  0  0  0  0  0  0
    6.2310   -4.3310   22.5190 C   0  0  0  0  0  0  0  0  0  0  0  0
   12.1430   -1.4540   23.2150 C   0  0  0  0  0  0  0  0  0  0  0  0
    5.4550   -4.3120   19.8490 O   0  0  0  0  0  0  0  0  0  0  0  0
    7.4060   -3.1220   19.1280 C   0  0  0  0  0  0  0  0  0  0  0  0
    6.3470    0.3230   17.7710 N   0  0  0  0  0  0  0  0  0  0  0  0
    4.6710    1.6270   18.9510 C   0  0  0  0  0  0  0  0  0  0  0  0
    8.2080    3.5690   22.8970 C   0  0  0  0  0  0  0  0  0  0  0  0
    6.4880   -4.1930   23.8320 N   0  0  0  0  0  0  0  0  0  0  0  0
    5.1800   -5.6750   21.9950 S   0  0  0  0  0  0  0  0  0  0  0  0
   12.6580   -0.2920   23.7470 C   0  0  0  0  0  0  0  0  0  0  0  0
   12.4810   -2.6510   24.1250 C   0  0  0  0  0  0  0  0  0  0  0  0
   12.8330   -1.7370   21.8640 C   0  0  0  0  0  0  0  0  0  0  0  0
    5.1730    1.1590   17.7700 C   0  0  0  0  0  0  0  0  0  0  0  0
    9.4980    3.6830   23.4890 C   0  0  0  0  0  0  0  0  0  0  0  0
    7.4600    4.6910   22.4590 C   0  0  0  0  0  0  0  0  0  0  0  0
    5.8340   -5.1280   24.6160 C   0  0  0  0  0  0  0  0  0  0  0  0
    5.0550   -6.0150   23.7070 C   0  0  0  0  0  0  0  0  0  0  0  0
   10.2150    2.4070   23.9030 C   0  0  0  0  0  0  0  0  0  0  0  0
    6.1000    4.4620   21.8320 C   0  0  0  0  0  0  0  0  0  0  0  0
   13.4510   -2.4530   25.2900 C   0  0  0  0  0  0  0  0  0  0  0  0
   10.1460    5.0980   23.6950 C   0  0  0  0  0  0  0  0  0  0  0  0
    8.0620    5.9430   22.6460 C   0  0  0  0  0  0  0  0  0  0  0  0
    5.8340   -5.2960   26.1450 C   0  0  0  0  0  0  0  0  0  0  0  0
    4.2280   -7.1170   24.3840 C   0  0  0  0  0  0  0  0  0  0  0  0
    9.3350    1.5290   24.8010 C   0  0  0  0  0  0  0  0  0  0  0  0
   11.3810    5.2470   24.2680 O   0  0  0  0  0  0  0  0  0  0  0  0
    6.5790   -4.4270   26.8910 O   0  0  0  0  0  0  0  0  0  0  0  0
    9.4110    6.1530   23.2690 C   0  0  0  0  0  0  0  0  0  0  0  0
    4.3350   -7.1390   25.9070 C   0  0  0  0  0  0  0  0  0  0  0  0
    5.0810   -6.3000   26.7180 C   0  0  0  0  0  0  0  0  0  0  0  0
   11.6110    6.4220   24.9150 C   0  0  0  0  0  0  0  0  0  0  0  0
    6.7340   -4.7470   28.2080 C   0  0  0  0  0  0  0  0  0  0  0  0
  1  2  1  0
  2  3  1  6
  1  4  1  0
  1  5  1  0
  4  6  1  0
  2  7  1  0
  5  8  2  0
  5  9  1  0
  3 10  1  0
  3 11  2  0
  6 12  1  0
  7 13  2  0
  7 14  1  0
  8 15  1  0
  9 16  2  0
 15 16  1  0
  6 17  1  0
 16 18  1  0
 12 19  2  0
 12 20  1  0
 14 21  2  0
 13 22  1  0
 10 23  1  0
 17 24  2  0
 17 25  1  0
 18 26  1  0
 18 27  1  0
 18 28  1  0
 21 29  1  0
 22 29  2  0
 23 30  2  0
 23 31  1  0
 24 32  1  0
 25 33  1  0
 32 33  2  0
 30 34  1  0
 31 35  1  0
 27 36  1  0
 30 37  1  0
 31 38  2  0
 32 39  1  0
 33 40  1  0
 34 41  1  0
 37 42  1  0
 39 43  1  0
 37 44  2  0
 38 44  1  0
 40 45  2  0
 39 46  2  0
 45 46  1  0
 42 47  1  0
 43 48  1  0
M  END
