x1348-x3108
     RDKit          3D

 36 39  0  0  0  0  0  0  0  0999 V2000
    5.9970    1.6060   22.0630 C   0  0  0  0  0  0  0  0  0  0  0  0
    6.1200    1.1350   20.6300 C   0  0  0  0  0  0  0  0  0  0  0  0
    7.1310    0.2820   20.2140 C   0  0  0  0  0  0  0  0  0  0  0  0
    5.2040    1.5600   19.6880 C   0  0  0  0  0  0  0  0  0  0  0  0
    8.0820   -0.1570   21.1650 N   0  0  0  0  0  0  0  0  0  0  0  0
    7.1560   -0.1160   18.7930 C   0  0  0  0  0  0  0  0  0  0  0  0
    5.2850    1.1520   18.3710 C   0  0  0  0  0  0  0  0  0  0  0  0
    9.0550    0.6060   21.7890 C   0  0  0  0  0  0  0  0  0  0  0  0
    6.3760    0.2470   17.9960 N   0  0  0  0  0  0  0  0  0  0  0  0
    9.3380    1.7550   21.4400 O   0  0  0  0  0  0  0  0  0  0  0  0
    9.7750   -0.1050   22.9570 C   0  0  0  0  0  0  0  0  0  0  0  0
    9.0190   -1.2710   23.4220 N   0  0  0  0  0  0  0  0  0  0  0  0
    8.1070   -1.1490   24.5000 C   0  0  0  0  0  0  0  0  0  0  0  0
    7.9290   -0.0380   24.9960 O   0  0  0  0  0  0  0  0  0  0  0  0
    7.3250   -2.3730   25.0210 C   0  0  0  0  0  0  0  0  0  0  0  0
    8.0920   -3.6350   25.4960 C   0  0  0  0  0  0  0  0  0  0  0  0
    8.6400   -4.5130   24.5480 C   0  0  0  0  0  0  0  0  0  0  0  0
    8.2330   -3.9930   26.9820 C   0  0  0  0  0  0  0  0  0  0  0  0
    7.6970   -3.2370   28.1480 C   0  0  0  0  0  0  0  0  0  0  0  0
    9.2540   -5.4880   24.7560 N   0  0  0  0  0  0  0  0  0  0  0  0
    9.0140   -5.2820   27.1820 C   0  0  0  0  0  0  0  0  0  0  0  0
    8.3450   -4.2420   23.1420 C   0  0  0  0  0  0  0  0  0  0  0  0
    9.4900   -5.9460   26.1070 C   0  0  0  0  0  0  0  0  0  0  0  0
    6.9290   -4.6260   23.1790 N   0  0  0  0  0  0  0  0  0  0  0  0
    6.5470   -5.7430   23.8790 C   0  0  1  0  0  0  0  0  0  0  0  0
    6.0610   -4.1830   22.2900 C   0  0  1  0  0  0  0  0  0  0  0  0
    6.7770   -3.5490   21.2720 N   0  0  0  0  0  0  0  0  0  0  0  0
    6.2660   -5.5640   25.2740 C   0  0  0  0  0  0  0  0  0  0  0  0
    5.5810   -6.4420   23.1750 C   0  0  2  0  0  0  0  0  0  0  0  0
    5.2240   -5.6350   21.6610 S   0  0  0  0  0  0  0  0  0  0  0  0
    6.4110   -3.5850   19.9810 C   0  0  0  0  0  0  0  0  0  0  0  0
    4.2660   -6.8710   23.8300 C   0  0  0  0  0  0  0  0  0  0  0  0
    5.1780   -5.9360   25.9760 C   0  0  0  0  0  0  0  0  0  0  0  0
    5.3150   -3.9970   19.6220 O   0  0  0  0  0  0  0  0  0  0  0  0
    7.4790   -3.0960   19.0140 C   0  0  0  0  0  0  0  0  0  0  0  0
    4.0310   -6.6280   25.3000 C   0  0  0  0  0  0  0  0  0  0  0  0
  1  2  1  0
  2  3  2  0
  2  4  1  0
  3  5  1  0
  3  6  1  0
  4  7  2  0
  5  8  1  0
  6  9  2  0
  7  9  1  0
  8 10  2  0
  8 11  1  0
 11 12  1  0
 12 13  1  0
 13 14  2  0
 13 15  1  0
 15 16  1  0
 16 17  1  0
 16 18  2  0
 18 19  1  0
 17 20  2  0
 18 21  1  0
 17 22  1  0
 20 23  1  0
 21 23  2  0
 22 24  1  0
 24 25  1  0
 24 26  1  0
 26 27  1  6
 25 28  1  1
 25 29  1  0
 26 30  1  0
 29 30  1  0
 27 31  1  0
 29 32  1  1
 28 33  2  0
 31 34  2  0
 31 35  1  0
 32 36  2  0
 33 36  1  0
M  END
