x1348-x2705-x2776-x3115
     RDKit          3D

 48 52  0  0  0  0  0  0  0  0999 V2000
    7.5290   -1.1440   21.6760 N   0  0  0  0  0  0  0  0  0  0  0  0
    6.9340    0.2260   21.5920 C   0  0  1  0  0  0  0  0  0  0  0  0
    7.9020    1.3700   21.7760 C   0  0  0  0  0  0  0  0  0  0  0  0
    6.5750   -2.1640   21.7840 C   0  0  0  0  0  0  0  0  0  0  0  0
    8.6580   -1.2200   22.5350 C   0  0  0  0  0  0  0  0  0  0  0  0
    6.8030   -3.4180   21.4630 N   0  0  0  0  0  0  0  0  0  0  0  0
    6.2500    0.5920   20.2970 C   0  0  0  0  0  0  0  0  0  0  0  0
    8.6520   -1.2360   23.8840 N   0  0  0  0  0  0  0  0  0  0  0  0
   10.0290   -1.2920   22.0000 C   0  0  0  0  0  0  0  0  0  0  0  0
    7.6290    2.2680   22.6730 N   0  0  0  0  0  0  0  0  0  0  0  0
    8.9030    1.4650   21.0750 O   0  0  0  0  0  0  0  0  0  0  0  0
    6.4150   -3.6850   20.1430 C   0  0  0  0  0  0  0  0  0  0  0  0
    5.0820    1.3260   20.2050 C   0  0  0  0  0  0  0  0  0  0  0  0
    6.9150    0.1280   19.1980 C   0  0  0  0  0  0  0  0  0  0  0  0
    9.9890   -1.3120   24.2390 N   0  0  0  0  0  0  0  0  0  0  0  0
   10.9060   -1.3570   23.1990 C   0  0  0  0  0  0  0  0  0  0  0  0
    6.2930   -4.3150   22.5040 C   0  0  0  0  0  0  0  0  0  0  0  0
   12.2260   -1.4350   23.3500 C   0  0  0  0  0  0  0  0  0  0  0  0
    5.4170   -4.3430   19.8380 O   0  0  0  0  0  0  0  0  0  0  0  0
    7.3170   -3.1170   19.0680 C   0  0  0  0  0  0  0  0  0  0  0  0
    6.4280    0.3960   17.8450 N   0  0  0  0  0  0  0  0  0  0  0  0
    4.5650    1.6160   18.9480 C   0  0  0  0  0  0  0  0  0  0  0  0
    8.2370    3.5250   22.8670 C   0  0  0  0  0  0  0  0  0  0  0  0
    6.8030   -4.2890   23.7880 N   0  0  0  0  0  0  0  0  0  0  0  0
    4.9980   -5.4230   22.1930 S   0  0  0  0  0  0  0  0  0  0  0  0
   12.7370   -0.1430   24.0320 C   0  0  0  0  0  0  0  0  0  0  0  0
   12.6220   -2.7130   24.1170 C   0  0  0  0  0  0  0  0  0  0  0  0
   12.8860   -1.5710   21.9630 C   0  0  0  0  0  0  0  0  0  0  0  0
    5.2050    1.1790   17.7950 C   0  0  0  0  0  0  0  0  0  0  0  0
    9.5090    3.6770   23.4430 C   0  0  0  0  0  0  0  0  0  0  0  0
    7.5130    4.6490   22.4550 C   0  0  0  0  0  0  0  0  0  0  0  0
    6.0130   -5.2480   24.6180 C   0  0  0  0  0  0  0  0  0  0  0  0
    5.0650   -5.8700   23.8970 C   0  0  0  0  0  0  0  0  0  0  0  0
   10.3100    2.4640   23.8810 C   0  0  0  0  0  0  0  0  0  0  0  0
    6.1430    4.6150   21.8190 C   0  0  0  0  0  0  0  0  0  0  0  0
   13.5250   -2.6140   25.3550 C   0  0  0  0  0  0  0  0  0  0  0  0
   10.0810    4.9680   23.6270 C   0  0  0  0  0  0  0  0  0  0  0  0
    8.0630    5.9130   22.6240 C   0  0  0  0  0  0  0  0  0  0  0  0
    6.2230   -5.4650   25.9750 C   0  0  0  0  0  0  0  0  0  0  0  0
    4.2190   -6.7860   24.4940 C   0  0  0  0  0  0  0  0  0  0  0  0
    9.4700    1.4950   24.7130 C   0  0  0  0  0  0  0  0  0  0  0  0
   11.3140    5.2110   24.1850 O   0  0  0  0  0  0  0  0  0  0  0  0
    7.2200   -4.7850   26.6160 O   0  0  0  0  0  0  0  0  0  0  0  0
    9.3180    6.0340   23.2000 C   0  0  0  0  0  0  0  0  0  0  0  0
    4.3880   -7.0240   25.8600 C   0  0  0  0  0  0  0  0  0  0  0  0
    5.3790   -6.3780   26.6180 C   0  0  0  0  0  0  0  0  0  0  0  0
   11.5660    6.4450   24.8690 C   0  0  0  0  0  0  0  0  0  0  0  0
    7.8000   -5.5730   27.6800 C   0  0  0  0  0  0  0  0  0  0  0  0
  1  2  1  0
  2  3  1  6
  1  4  1  0
  1  5  1  0
  4  6  1  0
  2  7  1  0
  5  8  2  0
  5  9  1  0
  3 10  1  0
  3 11  2  0
  6 12  1  0
  7 13  2  0
  7 14  1  0
  8 15  1  0
  9 16  2  0
 15 16  1  0
  6 17  1  0
 16 18  1  0
 12 19  2  0
 12 20  1  0
 14 21  2  0
 13 22  1  0
 10 23  1  0
 17 24  2  0
 17 25  1  0
 18 26  1  0
 18 27  1  0
 18 28  1  0
 21 29  1  0
 22 29  2  0
 23 30  2  0
 23 31  1  0
 24 32  1  0
 25 33  1  0
 32 33  2  0
 30 34  1  0
 31 35  1  0
 27 36  1  0
 30 37  1  0
 31 38  2  0
 32 39  1  0
 33 40  1  0
 34 41  1  0
 37 42  1  0
 39 43  1  0
 37 44  2  0
 38 44  1  0
 40 45  2  0
 39 46  2  0
 45 46  1  0
 42 47  1  0
 43 48  1  0
M  END
