x1348-x0540-x1119-x2694
     RDKit          3D

 81 88  0  0  0  0  0  0  0  0999 V2000
    7.5990   -1.2240   22.1030 N   0  0  0  0  0  0  0  0  0  0  0  0
    7.1160    0.0360   21.6940 C   0  0  1  0  0  0  0  0  0  0  0  0
    8.0680    1.2100   21.8490 C   0  0  0  0  0  0  0  0  0  0  0  0
    7.8290   -2.3790   21.3380 C   0  0  0  0  0  0  0  0  0  0  0  0
    8.7610   -1.2180   22.9380 C   0  0  0  0  0  0  0  0  0  0  0  0
    6.7180   -3.1950   21.2870 N   0  0  0  0  0  0  0  0  0  0  0  0
    6.3200    0.2670   20.3380 C   0  0  0  0  0  0  0  0  0  0  0  0
    8.8960   -1.1160   24.2690 N   0  0  0  0  0  0  0  0  0  0  0  0
   10.0200   -1.3440   22.4130 C   0  0  0  0  0  0  0  0  0  0  0  0
    7.7580    2.1050   22.8680 N   0  0  0  0  0  0  0  0  0  0  0  0
    9.0290    1.4130   21.1150 O   0  0  0  0  0  0  0  0  0  0  0  0
    6.3780   -3.5440   19.9870 C   0  0  0  0  0  0  0  0  0  0  0  0
    5.0190    0.7310   20.3390 C   0  0  0  0  0  0  0  0  0  0  0  0
    6.9360    0.0330   19.1120 C   0  0  0  0  0  0  0  0  0  0  0  0
   10.2670   -1.1810   24.5540 O   0  0  0  0  0  0  0  0  0  0  0  0
   10.9520   -1.3230   23.3910 C   0  0  0  0  0  0  0  0  0  0  0  0
    6.2830   -4.0300   22.3660 C   0  0  0  0  0  0  0  0  0  0  0  0
   12.4410   -1.4200   23.2940 C   0  0  0  0  0  0  0  0  0  0  0  0
    4.3170    0.9640   21.6640 C   0  0  0  0  0  0  0  0  0  0  0  0
    5.3640   -4.2010   19.7460 O   0  0  0  0  0  0  0  0  0  0  0  0
    7.3120   -3.1310   18.8360 C   0  0  0  0  0  0  0  0  0  0  0  0
    6.3830    0.2490   17.9000 N   0  0  0  0  0  0  0  0  0  0  0  0
    4.4540    0.9540   19.1040 C   0  0  0  0  0  0  0  0  0  0  0  0
    8.4780    3.2900   23.0490 C   0  0  0  0  0  0  0  0  0  0  0  0
    6.5530   -3.8840   23.6710 N   0  0  0  0  0  0  0  0  0  0  0  0
    5.2680   -5.3850   22.0120 S   0  0  0  0  0  0  0  0  0  0  0  0
   12.9670    0.0010   23.3840 C   0  0  0  0  0  0  0  0  0  0  0  0
   12.8820   -2.0210   21.9550 C   0  0  0  0  0  0  0  0  0  0  0  0
   13.0170   -2.2720   24.4840 C   0  0  0  0  0  0  0  0  0  0  0  0
    4.8090    1.9490   22.5000 C   0  0  0  0  0  0  0  0  0  0  0  0
    5.1460    0.7150   17.9540 C   0  0  0  0  0  0  0  0  0  0  0  0
    9.7290    3.1910   23.6410 C   0  0  0  0  0  0  0  0  0  0  0  0
    7.9650    4.6600   22.6300 C   0  0  0  0  0  0  0  0  0  0  0  0
    5.9020   -4.8670   24.4540 C   0  0  0  0  0  0  0  0  0  0  0  0
    5.1780   -5.7280   23.6790 C   0  0  0  0  0  0  0  0  0  0  0  0
   10.2870    1.8710   24.0760 C   0  0  0  0  0  0  0  0  0  0  0  0
    4.0130    2.9060   22.9930 N   0  0  0  0  0  0  0  0  0  0  0  0
   10.6310    4.3940   23.8960 C   0  0  0  0  0  0  0  0  0  0  0  0
    8.7410    5.9030   22.8280 C   0  0  0  0  0  0  0  0  0  0  0  0
    5.8860   -5.0670   25.8440 C   0  0  0  0  0  0  0  0  0  0  0  0
    4.4240   -6.7880   24.1790 C   0  0  0  0  0  0  0  0  0  0  0  0
    2.9060    2.4950   23.6270 C   0  0  0  0  0  0  0  0  0  0  0  0
    6.5890   -4.2280   26.6870 O   0  0  0  0  0  0  0  0  0  0  0  0
   10.1150    5.7820   23.4790 C   0  0  0  0  0  0  0  0  0  0  0  0
    4.4030   -6.9860   25.5610 C   0  0  0  0  0  0  0  0  0  0  0  0
    5.1340   -6.1310   26.3930 C   0  0  0  0  0  0  0  0  0  0  0  0
   10.9960    6.7690   23.7530 O   0  0  0  0  0  0  0  0  0  0  0  0
    2.8870    1.4770   24.5530 O   0  0  0  0  0  0  0  0  0  0  0  0
    1.7560    3.2820   23.1880 N   0  0  0  0  0  0  0  0  0  0  0  0
    6.6340   -4.6770   27.9810 C   0  0  0  0  0  0  0  0  0  0  0  0
   12.3770    6.4300   23.7390 C   0  0  0  0  0  0  0  0  0  0  0  0
    0.5610    3.3490   24.0200 C   0  0  0  0  0  0  0  0  0  0  0  0
   12.8110    5.7430   22.6340 C   0  0  0  0  0  0  0  0  0  0  0  0
    0.4610    4.6370   24.5960 C   0  0  0  0  0  0  0  0  0  0  0  0
   -0.5940    2.8640   23.3080 C   0  0  0  0  0  0  0  0  0  0  0  0
   13.7800    4.6250   22.8850 C   0  0  0  0  0  0  0  0  0  0  0  0
   -0.7410    5.0410   25.1440 C   0  0  0  0  0  0  0  0  0  0  0  0
   -1.8370    3.3110   23.7220 C   0  0  0  0  0  0  0  0  0  0  0  0
   15.0020    5.0070   22.3400 C   0  0  0  0  0  0  0  0  0  0  0  0
   -1.9070    4.5990   24.2530 C   0  0  0  0  0  0  0  0  0  0  0  0
   16.2560    4.3560   22.5240 C   0  0  0  0  0  0  0  0  0  0  0  0
   17.1900    4.8110   23.4940 C   0  0  0  0  0  0  0  0  0  0  0  0
   18.5800    5.1130   23.2620 C   0  0  0  0  0  0  0  0  0  0  0  0
   19.1180    6.3320   23.5210 C   0  0  0  0  0  0  0  0  0  0  0  0
   20.3400    6.8010   23.1190 N   0  0  0  0  0  0  0  0  0  0  0  0
   21.2970    5.9390   23.5630 C   0  0  0  0  0  0  0  0  0  0  0  0
   22.3920    5.5490   22.7900 C   0  0  0  0  0  0  0  0  0  0  0  0
   21.1180    5.4340   24.8460 C   0  0  0  0  0  0  0  0  0  0  0  0
   23.2710    4.6250   23.3350 C   0  0  0  0  0  0  0  0  0  0  0  0
   21.9580    4.5370   25.3820 C   0  0  0  0  0  0  0  0  0  0  0  0
   23.0140    4.1270   24.6250 C   0  0  0  0  0  0  0  0  0  0  0  0
   24.0390    2.9060   25.3410 S   0  0  0  0  0  0  0  0  0  0  0  0
   23.3350    1.6720   25.1890 O   0  0  0  0  0  0  0  0  0  0  0  0
   24.2000    3.3310   26.9880 N   0  0  0  0  0  0  0  0  0  0  0  0
   25.2650    2.8090   24.5900 O   0  0  0  0  0  0  0  0  0  0  0  0
   25.0300    4.4220   27.2550 C   0  0  0  0  0  0  0  0  0  0  0  0
   25.0760    4.6850   28.5770 N   0  0  0  0  0  0  0  0  0  0  0  0
   25.7180    5.1260   26.2430 C   0  0  0  0  0  0  0  0  0  0  0  0
   25.8560    5.7220   28.9710 C   0  0  0  0  0  0  0  0  0  0  0  0
   26.5630    6.2510   26.6830 C   0  0  0  0  0  0  0  0  0  0  0  0
   26.6020    6.5210   28.1180 C   0  0  0  0  0  0  0  0  0  0  0  0
  1  2  1  0
  2  3  1  6
  1  4  1  0
  1  5  1  0
  4  6  1  0
  2  7  1  0
  5  8  2  0
  5  9  1  0
  3 10  1  0
  3 11  2  0
  6 12  1  0
  7 13  1  0
  7 14  2  0
  8 15  1  0
  9 16  2  0
 15 16  1  0
  6 17  1  0
 16 18  1  0
 13 19  1  0
 12 20  2  0
 12 21  1  0
 14 22  1  0
 13 23  2  0
 10 24  1  0
 17 25  2  0
 17 26  1  0
 18 27  1  0
 18 28  1  0
 18 29  1  0
 19 30  1  0
 22 31  2  0
 23 31  1  0
 24 32  2  0
 24 33  1  0
 25 34  1  0
 26 35  1  0
 34 35  2  0
 32 36  1  0
 30 37  1  0
 32 38  1  0
 33 39  2  0
 34 40  1  0
 35 41  1  0
 37 42  1  0
 40 43  1  0
 38 44  2  0
 39 44  1  0
 41 45  2  0
 40 46  2  0
 45 46  1  0
 44 47  1  0
 42 48  2  0
 42 49  1  0
 43 50  1  0
 47 51  1  0
 49 52  1  0
 51 53  1  0
 52 54  1  0
 52 55  1  0
 53 56  1  0
 54 57  1  0
 55 58  1  0
 56 59  1  0
 57 60  1  0
 58 60  1  0
 59 61  1  0
 61 62  1  0
 62 63  1  0
 63 64  1  0
 64 65  1  0
 65 66  1  0
 66 67  2  0
 66 68  1  0
 67 69  1  0
 68 70  2  0
 69 71  2  0
 70 71  1  0
 71 72  1  0
 72 73  2  0
 72 74  1  0
 72 75  2  0
 74 76  1  0
 76 77  2  0
 76 78  1  0
 77 79  1  0
 78 80  2  0
 79 81  2  0
 80 81  1  0
M  END
