x1348-x0434
     RDKit          3D

 33 36  0  0  0  0  0  0  0  0999 V2000
    6.9060   -3.7970   21.3530 N   0  0  0  0  0  0  0  0  0  0  0  0
    6.3650   -3.7860   20.0720 C   0  0  0  0  0  0  0  0  0  0  0  0
    5.2750   -4.2600   19.7730 O   0  0  0  0  0  0  0  0  0  0  0  0
    7.5540   -2.6050   21.8210 C   0  0  0  0  0  0  0  0  0  0  0  0
    6.3260   -4.5740   22.4070 C   0  0  0  0  0  0  0  0  0  0  0  0
    7.2720   -3.1640   19.0270 C   0  0  0  0  0  0  0  0  0  0  0  0
    6.5990   -1.4280   21.8770 C   0  0  0  0  0  0  0  0  0  0  0  0
    6.9040   -4.4070   23.7530 N   0  0  0  0  0  0  0  0  0  0  0  0
    5.0240   -5.6520   22.2500 S   0  0  0  0  0  0  0  0  0  0  0  0
    7.1240   -0.3550   21.2170 N   0  0  0  0  0  0  0  0  0  0  0  0
    6.2090   -5.1780   24.6220 C   0  0  0  0  0  0  0  0  0  0  0  0
    5.1040   -5.9440   23.9190 C   0  0  0  0  0  0  0  0  0  0  0  0
    8.4180    0.1720   21.5860 C   0  0  0  0  0  0  0  0  0  0  0  0
    6.4220   -5.3060   26.0430 C   0  0  0  0  0  0  0  0  0  0  0  0
    4.2540   -6.7930   24.6130 C   0  0  0  0  0  0  0  0  0  0  0  0
    6.4040    0.2240   20.1490 C   0  0  0  0  0  0  0  0  0  0  0  0
    7.4240   -4.6180   26.7030 O   0  0  0  0  0  0  0  0  0  0  0  0
    8.8160    1.2710   21.1460 O   0  0  0  0  0  0  0  0  0  0  0  0
    9.1570   -0.6260   22.4280 N   0  0  0  0  0  0  0  0  0  0  0  0
    4.4130   -6.9510   26.0000 C   0  0  0  0  0  0  0  0  0  0  0  0
    5.4140   -6.2800   26.7310 C   0  0  0  0  0  0  0  0  0  0  0  0
    5.2160    0.9320   20.3570 C   0  0  0  0  0  0  0  0  0  0  0  0
    6.9000    0.1090   18.7290 C   0  0  0  0  0  0  0  0  0  0  0  0
    8.0050   -5.4100   27.7420 C   0  0  0  0  0  0  0  0  0  0  0  0
   10.5390   -0.4030   22.5670 C   0  0  0  0  0  0  0  0  0  0  0  0
    4.5630    1.4970   19.2710 C   0  0  0  0  0  0  0  0  0  0  0  0
    6.2940    0.6470   17.6590 N   0  0  0  0  0  0  0  0  0  0  0  0
   10.8110    0.8490   23.0550 C   0  0  0  0  0  0  0  0  0  0  0  0
   11.5530   -1.2960   22.2500 C   0  0  0  0  0  0  0  0  0  0  0  0
    5.1680    1.3260   17.8920 C   0  0  0  0  0  0  0  0  0  0  0  0
   12.2410    1.2630   23.2410 C   0  0  0  0  0  0  0  0  0  0  0  0
   12.8840   -0.9070   22.4270 C   0  0  0  0  0  0  0  0  0  0  0  0
   13.1970    0.3590   22.9110 C   0  0  0  0  0  0  0  0  0  0  0  0
  1  2  1  0
  2  3  2  0
  1  4  1  0
  1  5  1  0
  2  6  1  0
  4  7  1  0
  5  8  2  0
  5  9  1  0
  7 10  1  0
  8 11  1  0
  9 12  1  0
 11 12  2  0
 10 13  1  0
 11 14  1  0
 12 15  1  0
 10 16  1  0
 14 17  1  0
 13 18  2  0
 13 19  1  0
 15 20  2  0
 14 21  2  0
 20 21  1  0
 16 22  2  0
 16 23  1  0
 17 24  1  0
 19 25  1  0
 22 26  1  0
 23 27  2  0
 25 28  2  0
 25 29  1  0
 26 30  2  0
 27 30  1  0
 28 31  1  0
 29 32  2  0
 31 33  2  0
 32 33  1  0
M  END
