x1348-x3124
     RDKit          3D

 38 41  0  0  0  0  0  0  0  0999 V2000
    7.2860   -1.0910   21.7610 N   0  0  0  0  0  0  0  0  0  0  0  0
    6.8720    0.3240   21.6740 C   0  0  1  0  0  0  0  0  0  0  0  0
    7.9750    1.2770   22.0350 C   0  0  0  0  0  0  0  0  0  0  0  0
    6.1770   -2.0460   21.7990 C   0  0  0  0  0  0  0  0  0  0  0  0
    8.4630   -1.3540   22.4210 C   0  0  0  0  0  0  0  0  0  0  0  0
    6.5760   -3.4290   21.4900 N   0  0  0  0  0  0  0  0  0  0  0  0
    6.2720    0.6500   20.3420 C   0  0  0  0  0  0  0  0  0  0  0  0
    9.6690   -1.2520   21.7380 C   0  0  0  0  0  0  0  0  0  0  0  0
    8.5370   -1.7480   23.9120 C   0  0  0  0  0  0  0  0  0  0  0  0
    8.0690    1.6670   23.2720 N   0  0  0  0  0  0  0  0  0  0  0  0
    8.7520    1.7000   21.1700 O   0  0  0  0  0  0  0  0  0  0  0  0
    6.2990   -3.7540   20.1670 C   0  0  0  0  0  0  0  0  0  0  0  0
    5.0140    1.5070   20.1990 C   0  0  0  0  0  0  0  0  0  0  0  0
    6.8550    0.1870   19.1750 C   0  0  0  0  0  0  0  0  0  0  0  0
   10.9060   -1.4870   22.3490 C   0  0  0  0  0  0  0  0  0  0  0  0
    9.7970   -1.9570   24.4410 C   0  0  0  0  0  0  0  0  0  0  0  0
    6.2090   -4.2650   22.5170 C   0  0  0  0  0  0  0  0  0  0  0  0
    8.9370    2.6490   23.7270 C   0  0  0  0  0  0  0  0  0  0  0  0
    5.3650   -4.4830   19.8570 O   0  0  0  0  0  0  0  0  0  0  0  0
    7.1990   -3.1430   19.1040 C   0  0  0  0  0  0  0  0  0  0  0  0
    6.3630    0.4750   17.9280 N   0  0  0  0  0  0  0  0  0  0  0  0
    4.4700    1.8260   18.8290 C   0  0  0  0  0  0  0  0  0  0  0  0
   10.9760   -1.8340   23.6990 C   0  0  0  0  0  0  0  0  0  0  0  0
    6.7510   -4.2460   23.7010 N   0  0  0  0  0  0  0  0  0  0  0  0
    4.9300   -5.3850   22.3070 S   0  0  0  0  0  0  0  0  0  0  0  0
   12.2870   -2.0600   24.3430 C   0  0  0  0  0  0  0  0  0  0  0  0
    5.1550    1.3130   17.7570 C   0  0  0  0  0  0  0  0  0  0  0  0
    6.0610   -5.1580   24.5380 C   0  0  0  0  0  0  0  0  0  0  0  0
    5.0220   -5.8660   23.9450 C   0  0  0  0  0  0  0  0  0  0  0  0
   12.7290   -0.8440   25.0730 C   0  0  0  0  0  0  0  0  0  0  0  0
   13.3510   -2.3830   23.2830 C   0  0  0  0  0  0  0  0  0  0  0  0
   12.1360   -3.2160   25.3300 C   0  0  0  0  0  0  0  0  0  0  0  0
    6.3370   -5.4190   25.9970 C   0  0  0  0  0  0  0  0  0  0  0  0
    4.2470   -6.7750   24.6380 C   0  0  0  0  0  0  0  0  0  0  0  0
    7.3560   -4.7610   26.6540 O   0  0  0  0  0  0  0  0  0  0  0  0
    4.5090   -6.9910   26.0000 C   0  0  0  0  0  0  0  0  0  0  0  0
    5.5430   -6.3290   26.6930 C   0  0  0  0  0  0  0  0  0  0  0  0
    7.9930   -5.5130   27.6900 C   0  0  0  0  0  0  0  0  0  0  0  0
  1  2  1  0
  2  3  1  6
  1  4  1  0
  1  5  1  0
  4  6  1  0
  2  7  1  0
  5  8  2  0
  5  9  1  0
  3 10  1  0
  3 11  2  0
  6 12  1  0
  7 13  2  0
  7 14  1  0
  8 15  1  0
  9 16  2  0
  6 17  1  0
 10 18  1  0
 12 19  2  0
 12 20  1  0
 14 21  2  0
 13 22  1  0
 15 23  2  0
 16 23  1  0
 17 24  2  0
 17 25  1  0
 23 26  1  0
 21 27  1  0
 22 27  2  0
 24 28  1  0
 25 29  1  0
 28 29  2  0
 26 30  1  0
 26 31  1  0
 26 32  1  0
 28 33  1  0
 29 34  1  0
 33 35  1  0
 34 36  2  0
 33 37  2  0
 36 37  1  0
 35 38  1  0
M  END
