x1348-x2705-x3117
     RDKit          3D

 46 50  0  0  0  0  0  0  0  0999 V2000
    7.5410   -1.1480   21.5970 N   0  0  0  0  0  0  0  0  0  0  0  0
    7.0420    0.2370   21.4760 C   0  0  1  0  0  0  0  0  0  0  0  0
    8.0380    1.3610   21.7880 C   0  0  0  0  0  0  0  0  0  0  0  0
    6.4460   -2.1070   21.8520 C   0  0  0  0  0  0  0  0  0  0  0  0
    8.6590   -1.2240   22.4630 C   0  0  0  0  0  0  0  0  0  0  0  0
    6.7310   -3.4670   21.4480 N   0  0  0  0  0  0  0  0  0  0  0  0
    6.3530    0.5040   20.1800 C   0  0  0  0  0  0  0  0  0  0  0  0
    8.5360   -1.2390   23.8170 N   0  0  0  0  0  0  0  0  0  0  0  0
    9.9630   -1.2900   22.0250 C   0  0  0  0  0  0  0  0  0  0  0  0
    7.5830    2.2240   22.7540 N   0  0  0  0  0  0  0  0  0  0  0  0
    9.1030    1.5150   21.2080 O   0  0  0  0  0  0  0  0  0  0  0  0
    6.3880   -3.6940   20.1260 C   0  0  0  0  0  0  0  0  0  0  0  0
    5.0690    1.2560   20.1700 C   0  0  0  0  0  0  0  0  0  0  0  0
    6.8680    0.0970   18.9680 C   0  0  0  0  0  0  0  0  0  0  0  0
    9.8010   -1.3150   24.2370 N   0  0  0  0  0  0  0  0  0  0  0  0
   10.7190   -1.3520   23.1050 C   0  0  0  0  0  0  0  0  0  0  0  0
    6.2620   -4.3490   22.5140 C   0  0  0  0  0  0  0  0  0  0  0  0
   12.2110   -1.4450   23.2760 C   0  0  0  0  0  0  0  0  0  0  0  0
    5.3840   -4.3500   19.8330 O   0  0  0  0  0  0  0  0  0  0  0  0
    7.2980   -3.1180   19.0570 C   0  0  0  0  0  0  0  0  0  0  0  0
    6.2810    0.3540   17.7930 N   0  0  0  0  0  0  0  0  0  0  0  0
    4.4810    1.5060   18.9460 C   0  0  0  0  0  0  0  0  0  0  0  0
    8.2410    3.4420   22.9290 C   0  0  0  0  0  0  0  0  0  0  0  0
    6.8110   -4.3280   23.8890 N   0  0  0  0  0  0  0  0  0  0  0  0
    4.9390   -5.4870   22.2150 S   0  0  0  0  0  0  0  0  0  0  0  0
   12.7190   -0.1260   23.9100 C   0  0  0  0  0  0  0  0  0  0  0  0
   12.4810   -2.6670   24.1450 C   0  0  0  0  0  0  0  0  0  0  0  0
   12.8630   -1.7940   21.8670 C   0  0  0  0  0  0  0  0  0  0  0  0
    5.1270    1.0420   17.8160 C   0  0  0  0  0  0  0  0  0  0  0  0
    9.5220    3.5470   23.4900 C   0  0  0  0  0  0  0  0  0  0  0  0
    7.6900    4.6060   22.5590 C   0  0  0  0  0  0  0  0  0  0  0  0
    6.0990   -5.2020   24.6680 C   0  0  0  0  0  0  0  0  0  0  0  0
    5.0680   -5.8850   23.9150 C   0  0  0  0  0  0  0  0  0  0  0  0
   10.2300    2.2790   23.9280 C   0  0  0  0  0  0  0  0  0  0  0  0
    6.3180    4.6230   21.9330 C   0  0  0  0  0  0  0  0  0  0  0  0
   13.4690   -2.4500   25.2870 C   0  0  0  0  0  0  0  0  0  0  0  0
   10.2800    4.8400   23.6990 C   0  0  0  0  0  0  0  0  0  0  0  0
    8.3480    5.9450   22.7170 C   0  0  0  0  0  0  0  0  0  0  0  0
    6.2350   -5.4770   25.9800 C   0  0  0  0  0  0  0  0  0  0  0  0
    4.2800   -6.7630   24.5640 C   0  0  0  0  0  0  0  0  0  0  0  0
    9.3360    1.4240   24.8450 C   0  0  0  0  0  0  0  0  0  0  0  0
    7.2230   -4.8210   26.6540 O   0  0  0  0  0  0  0  0  0  0  0  0
    9.5830    6.0400   23.2640 C   0  0  0  0  0  0  0  0  0  0  0  0
    4.3460   -7.0780   25.8640 C   0  0  0  0  0  0  0  0  0  0  0  0
    5.2910   -6.5000   26.6940 C   0  0  0  0  0  0  0  0  0  0  0  0
    7.7580   -5.6330   27.7350 C   0  0  0  0  0  0  0  0  0  0  0  0
  1  2  1  0
  2  3  1  6
  1  4  1  0
  1  5  1  0
  4  6  1  0
  2  7  1  0
  5  8  2  0
  5  9  1  0
  3 10  1  0
  3 11  2  0
  6 12  1  0
  7 13  2  0
  7 14  1  0
  8 15  1  0
  9 16  2  0
 15 16  1  0
  6 17  1  0
 16 18  1  0
 12 19  2  0
 12 20  1  0
 14 21  2  0
 13 22  1  0
 10 23  1  0
 17 24  2  0
 17 25  1  0
 18 26  1  0
 18 27  1  0
 18 28  1  0
 21 29  1  0
 22 29  2  0
 23 30  2  0
 23 31  1  0
 24 32  1  0
 25 33  1  0
 32 33  2  0
 30 34  1  0
 31 35  1  0
 27 36  1  0
 30 37  1  0
 31 38  2  0
 32 39  1  0
 33 40  1  0
 34 41  1  0
 39 42  1  0
 37 43  2  0
 38 43  1  0
 40 44  2  0
 39 45  2  0
 44 45  1  0
 42 46  1  0
M  END
