x1348-x2776-x3124
     RDKit          3D

 46 50  0  0  0  0  0  0  0  0999 V2000
    7.2750   -1.0160   21.8020 N   0  0  0  0  0  0  0  0  0  0  0  0
    6.8850    0.2960   21.5760 C   0  0  1  0  0  0  0  0  0  0  0  0
    7.9430    1.3610   21.7890 C   0  0  0  0  0  0  0  0  0  0  0  0
    6.1810   -2.0170   21.8200 C   0  0  0  0  0  0  0  0  0  0  0  0
    8.5060   -1.3000   22.5610 C   0  0  0  0  0  0  0  0  0  0  0  0
    6.6130   -3.4040   21.4760 N   0  0  0  0  0  0  0  0  0  0  0  0
    6.2890    0.6840   20.2040 C   0  0  0  0  0  0  0  0  0  0  0  0
    9.5850   -1.3630   21.7130 C   0  0  0  0  0  0  0  0  0  0  0  0
    8.6550   -1.4740   23.8970 C   0  0  0  0  0  0  0  0  0  0  0  0
    7.8730    2.0290   22.7360 N   0  0  0  0  0  0  0  0  0  0  0  0
    8.8510    1.5150   20.9760 O   0  0  0  0  0  0  0  0  0  0  0  0
    6.3360   -3.6970   20.1410 C   0  0  0  0  0  0  0  0  0  0  0  0
    5.1880    1.4920   20.1540 C   0  0  0  0  0  0  0  0  0  0  0  0
    6.8860    0.2090   19.0620 C   0  0  0  0  0  0  0  0  0  0  0  0
   10.7850   -1.5860   22.1890 C   0  0  0  0  0  0  0  0  0  0  0  0
    9.9420   -1.7110   24.4130 C   0  0  0  0  0  0  0  0  0  0  0  0
    6.2230   -4.2430   22.4930 C   0  0  0  0  0  0  0  0  0  0  0  0
    5.3760   -4.4010   19.8410 O   0  0  0  0  0  0  0  0  0  0  0  0
    7.2560   -3.1180   19.0750 C   0  0  0  0  0  0  0  0  0  0  0  0
    6.3990    0.5430   17.8130 N   0  0  0  0  0  0  0  0  0  0  0  0
    4.6460    1.8650   18.9390 C   0  0  0  0  0  0  0  0  0  0  0  0
    8.5970    3.2340   23.0120 C   0  0  0  0  0  0  0  0  0  0  0  0
   11.0260   -1.7610   23.5300 C   0  0  0  0  0  0  0  0  0  0  0  0
    6.8600   -4.2310   23.8190 N   0  0  0  0  0  0  0  0  0  0  0  0
    4.8320   -5.4220   22.3000 S   0  0  0  0  0  0  0  0  0  0  0  0
   12.3480   -1.9890   24.1330 C   0  0  2  0  0  0  0  0  0  0  0  0
    5.2060    1.4300   17.7290 C   0  0  0  0  0  0  0  0  0  0  0  0
    9.8840    3.1300   23.5390 C   0  0  0  0  0  0  0  0  0  0  0  0
    8.0680    4.5040   22.7770 C   0  0  0  0  0  0  0  0  0  0  0  0
    6.1200   -5.1720   24.6420 C   0  0  0  0  0  0  0  0  0  0  0  0
    5.0170   -5.8350   23.8890 C   0  0  0  0  0  0  0  0  0  0  0  0
   12.2090   -2.8330   25.2660 O   0  0  0  0  0  0  0  0  0  0  0  0
   10.4860    1.9580   23.8010 C   0  0  0  0  0  0  0  0  0  0  0  0
   12.8810   -0.5990   24.4000 C   0  0  0  0  0  0  0  0  0  0  0  0
   10.6050    4.2910   23.8210 C   0  0  0  0  0  0  0  0  0  0  0  0
    8.8050    5.6620   23.0690 C   0  0  0  0  0  0  0  0  0  0  0  0
    6.3930   -5.4190   25.9720 C   0  0  0  0  0  0  0  0  0  0  0  0
    4.2330   -6.7390   24.5910 C   0  0  0  0  0  0  0  0  0  0  0  0
   13.4740   -3.2470   25.7020 C   0  0  0  0  0  0  0  0  0  0  0  0
    7.4230   -4.8040   26.6490 O   0  0  0  0  0  0  0  0  0  0  0  0
   10.0900    5.5790   23.6010 C   0  0  0  0  0  0  0  0  0  0  0  0
    4.5150   -6.9690   25.9510 C   0  0  0  0  0  0  0  0  0  0  0  0
    5.5740   -6.3350   26.6610 C   0  0  0  0  0  0  0  0  0  0  0  0
   10.8220    6.7000   23.9000 O   0  0  0  0  0  0  0  0  0  0  0  0
    8.0580   -5.7120   27.5510 C   0  0  0  0  0  0  0  0  0  0  0  0
   11.8310    6.5700   24.9260 C   0  0  0  0  0  0  0  0  0  0  0  0
  1  2  1  0
  2  3  1  6
  1  4  1  0
  1  5  1  0
  4  6  1  0
  2  7  1  0
  5  8  2  0
  5  9  1  0
  3 10  1  0
  3 11  2  0
  6 12  1  0
  7 13  2  0
  7 14  1  0
  8 15  1  0
  9 16  2  0
  6 17  1  0
 12 18  2  0
 12 19  1  0
 14 20  2  0
 13 21  1  0
 10 22  1  0
 15 23  2  0
 16 23  1  0
 17 24  2  0
 17 25  1  0
 23 26  1  0
 20 27  1  0
 21 27  2  0
 22 28  2  0
 22 29  1  0
 24 30  1  0
 25 31  1  0
 30 31  2  0
 26 32  1  0
 28 33  1  0
 26 34  1  1
 28 35  1  0
 29 36  2  0
 30 37  1  0
 31 38  1  0
 32 39  1  0
 37 40  1  0
 35 41  2  0
 36 41  1  0
 38 42  2  0
 37 43  2  0
 42 43  1  0
 41 44  1  0
 40 45  1  0
 44 46  1  0
M  END
