x1348-x0387-x2694
     RDKit          3D

 53 59  0  0  0  0  0  0  0  0999 V2000
    7.5310   -0.9830   21.8260 N   0  0  0  0  0  0  0  0  0  0  0  0
    6.8650    0.3640   21.6340 C   0  0  1  0  0  0  0  0  0  0  0  0
    7.8890    1.5620   21.6960 C   0  0  0  0  0  0  0  0  0  0  0  0
    7.8320   -2.3370   21.7200 C   0  0  0  0  0  0  0  0  0  0  0  0
    8.6570   -0.5640   22.6370 C   0  0  1  0  0  0  0  0  0  0  0  0
    6.7630   -3.2140   21.4020 N   0  0  0  0  0  0  0  0  0  0  0  0
    6.1850    0.6970   20.3170 C   0  0  0  0  0  0  0  0  0  0  0  0
    8.6220   -1.3090   23.9140 N   0  0  0  0  0  0  0  0  0  0  0  0
    9.9510   -0.7030   22.1630 C   0  0  0  0  0  0  0  0  0  0  0  0
    7.5870    2.5410   22.5800 N   0  0  0  0  0  0  0  0  0  0  0  0
    8.9030    1.6290   20.9950 O   0  0  0  0  0  0  0  0  0  0  0  0
    6.4560   -3.4820   20.0420 C   0  0  0  0  0  0  0  0  0  0  0  0
    5.0160    1.4230   20.1320 C   0  0  0  0  0  0  0  0  0  0  0  0
    6.8170    0.2330   19.1530 C   0  0  0  0  0  0  0  0  0  0  0  0
    9.8960   -1.6400   24.2620 C   0  0  2  0  0  0  0  0  0  0  0  0
   10.7160   -1.2110   23.1740 C   0  0  2  0  0  0  0  0  0  0  0  0
    6.2190   -4.1260   22.3600 C   0  0  0  0  0  0  0  0  0  0  0  0
    5.4430   -4.1340   19.7550 O   0  0  0  0  0  0  0  0  0  0  0  0
    7.3670   -3.0190   18.9350 C   0  0  0  0  0  0  0  0  0  0  0  0
    6.3560    0.4620   17.8880 N   0  0  0  0  0  0  0  0  0  0  0  0
    4.5330    1.6650   18.8880 C   0  0  0  0  0  0  0  0  0  0  0  0
    8.4140    3.6450   22.9110 C   0  0  0  0  0  0  0  0  0  0  0  0
    6.3800   -3.9660   23.6930 N   0  0  0  0  0  0  0  0  0  0  0  0
    5.2290   -5.5970   21.8640 S   0  0  0  0  0  0  0  0  0  0  0  0
    9.8420   -3.1040   24.5500 N   0  0  0  0  0  0  0  0  0  0  0  0
   11.9060   -0.3290   23.6220 C   0  0  1  0  0  0  0  0  0  0  0  0
   11.3780   -2.3200   22.4370 C   0  0  0  0  0  0  0  0  0  0  0  0
   12.4940   -0.8580   24.9080 C   0  0  0  0  0  0  0  0  0  0  0  0
    5.2190    1.1830   17.8210 C   0  0  0  0  0  0  0  0  0  0  0  0
    9.6250    3.4720   23.5870 C   0  0  0  0  0  0  0  0  0  0  0  0
    8.0450    4.9450   22.5650 C   0  0  0  0  0  0  0  0  0  0  0  0
    5.6970   -5.0080   24.4710 C   0  0  0  0  0  0  0  0  0  0  0  0
    5.0310   -5.9360   23.5800 C   0  0  0  0  0  0  0  0  0  0  0  0
    8.6110   -3.5950   24.8080 C   0  0  0  0  0  0  0  0  0  0  0  0
   10.8540   -3.6770   25.3760 C   0  0  0  0  0  0  0  0  0  0  0  0
   12.9640   -1.9610   21.8050 S   0  0  0  0  0  0  0  0  0  0  0  0
   13.0370   -0.4720   22.6670 C   0  0  0  0  0  0  0  0  0  0  0  0
   10.0760    2.0760   23.9860 C   0  0  0  0  0  0  0  0  0  0  0  0
   13.2060   -2.2210   24.7560 C   0  0  0  0  0  0  0  0  0  0  0  0
   10.4740    4.5200   23.9280 C   0  0  0  0  0  0  0  0  0  0  0  0
    8.8740    6.0380   22.8960 C   0  0  0  0  0  0  0  0  0  0  0  0
    5.8140   -4.9000   25.8940 C   0  0  0  0  0  0  0  0  0  0  0  0
    4.2690   -7.0400   24.1660 C   0  0  0  0  0  0  0  0  0  0  0  0
    8.3170   -3.7370   26.1510 C   0  0  0  0  0  0  0  0  0  0  0  0
   10.4840   -4.7390   26.1920 C   0  0  0  0  0  0  0  0  0  0  0  0
   10.0900    5.8230   23.5820 C   0  0  0  0  0  0  0  0  0  0  0  0
    4.3090   -7.0280   25.5190 C   0  0  0  0  0  0  0  0  0  0  0  0
    5.0130   -6.0570   26.2530 C   0  0  0  0  0  0  0  0  0  0  0  0
    9.1150   -4.6160   26.8600 C   0  0  0  0  0  0  0  0  0  0  0  0
   11.0140    6.8500   23.9760 O   0  0  0  0  0  0  0  0  0  0  0  0
    8.4200   -5.9520   27.0410 C   0  0  0  0  0  0  0  0  0  0  0  0
    9.2860   -4.1350   28.1910 O   0  0  0  0  0  0  0  0  0  0  0  0
   11.8490    6.6160   25.1070 C   0  0  0  0  0  0  0  0  0  0  0  0
  1  2  1  0
  2  3  1  6
  1  4  1  0
  5  1  1  6
  4  6  1  0
  2  7  1  0
  5  8  1  0
  5  9  1  0
  3 10  1  0
  3 11  2  0
  6 12  1  0
  7 13  2  0
  7 14  1  0
  8 15  1  0
 16  9  1  6
 15 16  1  0
  6 17  1  0
 12 18  2  0
 12 19  1  0
 14 20  2  0
 13 21  1  0
 10 22  1  0
 17 23  2  0
 17 24  1  0
 15 25  1  6
 16 26  1  0
 16 27  1  0
 26 28  1  1
 20 29  1  0
 21 29  2  0
 22 30  2  0
 22 31  1  0
 23 32  1  0
 24 33  1  0
 32 33  2  0
 25 34  1  0
 25 35  1  0
 27 36  2  0
 26 37  1  0
 36 37  2  0
 30 38  1  0
 28 39  1  0
 30 40  1  0
 31 41  2  0
 32 42  1  0
 33 43  1  0
 34 44  1  0
 35 45  1  0
 40 46  2  0
 41 46  1  0
 43 47  2  0
 42 48  2  0
 47 48  1  0
 44 49  1  0
 45 49  1  0
 46 50  1  0
 49 51  1  0
 49 52  1  0
 50 53  1  0
M  END
