x1348-x2705-x3117-x3115-x3124
     RDKit          3D

 46 50  0  0  0  0  0  0  0  0999 V2000
    7.6610   -1.1960   22.1490 N   0  0  0  0  0  0  0  0  0  0  0  0
    6.9260    0.0870   21.7410 C   0  0  1  0  0  0  0  0  0  0  0  0
    7.8690    1.3400   21.8080 C   0  0  0  0  0  0  0  0  0  0  0  0
    7.7260   -2.3690   21.3790 C   0  0  0  0  0  0  0  0  0  0  0  0
    8.8720   -1.2470   22.8460 C   0  0  0  0  0  0  0  0  0  0  0  0
    6.6280   -3.1580   21.2780 N   0  0  0  0  0  0  0  0  0  0  0  0
    6.2770    0.3730   20.3640 C   0  0  0  0  0  0  0  0  0  0  0  0
    8.9890   -1.2470   24.1970 N   0  0  0  0  0  0  0  0  0  0  0  0
   10.0910   -1.3230   22.2310 C   0  0  0  0  0  0  0  0  0  0  0  0
    7.4050    2.3180   22.6210 N   0  0  0  0  0  0  0  0  0  0  0  0
    8.9220    1.4530   21.1580 O   0  0  0  0  0  0  0  0  0  0  0  0
    6.3300   -3.5250   19.9640 C   0  0  0  0  0  0  0  0  0  0  0  0
    5.0680    1.0310   20.2390 C   0  0  0  0  0  0  0  0  0  0  0  0
    6.9480   -0.0290   19.1930 C   0  0  0  0  0  0  0  0  0  0  0  0
   10.3390   -1.3260   24.3560 N   0  0  0  0  0  0  0  0  0  0  0  0
   11.0520   -1.3770   23.1780 C   0  0  0  0  0  0  0  0  0  0  0  0
    6.2120   -4.0080   22.3300 C   0  0  0  0  0  0  0  0  0  0  0  0
   12.4650   -1.4610   22.9730 C   0  0  0  0  0  0  0  0  0  0  0  0
    5.3190   -4.1770   19.7170 O   0  0  0  0  0  0  0  0  0  0  0  0
    7.3000   -3.1420   18.8590 C   0  0  0  0  0  0  0  0  0  0  0  0
    6.4040    0.2440   17.9620 N   0  0  0  0  0  0  0  0  0  0  0  0
    4.5310    1.2980   19.0180 C   0  0  0  0  0  0  0  0  0  0  0  0
    7.9400    3.6800   22.7190 C   0  0  0  0  0  0  0  0  0  0  0  0
    6.4950   -3.8200   23.7900 N   0  0  0  0  0  0  0  0  0  0  0  0
    5.1980   -5.5020   21.9820 S   0  0  0  0  0  0  0  0  0  0  0  0
   12.9730   -0.0490   23.2640 C   0  0  0  0  0  0  0  0  0  0  0  0
   13.2260   -2.3860   23.8730 C   0  0  0  0  0  0  0  0  0  0  0  0
   12.9200   -1.8580   21.5560 C   0  0  0  0  0  0  0  0  0  0  0  0
    5.2240    0.8960   17.9030 C   0  0  0  0  0  0  0  0  0  0  0  0
    9.1510    3.9420   23.3250 C   0  0  0  0  0  0  0  0  0  0  0  0
    7.2540    4.7870   22.2050 C   0  0  0  0  0  0  0  0  0  0  0  0
    5.8110   -4.9030   24.5280 C   0  0  0  0  0  0  0  0  0  0  0  0
    5.1360   -5.7850   23.7190 C   0  0  0  0  0  0  0  0  0  0  0  0
   10.0130    2.9130   23.9400 C   0  0  0  0  0  0  0  0  0  0  0  0
    5.9200    4.6430   21.5310 C   0  0  0  0  0  0  0  0  0  0  0  0
   12.4920   -2.9020   25.0800 C   0  0  0  0  0  0  0  0  0  0  0  0
    9.7000    5.2080   23.4370 C   0  0  0  0  0  0  0  0  0  0  0  0
    7.8000    6.0900   22.3050 C   0  0  0  0  0  0  0  0  0  0  0  0
    5.8180   -5.0460   25.9260 C   0  0  0  0  0  0  0  0  0  0  0  0
    4.4410   -6.8370   24.3200 C   0  0  0  0  0  0  0  0  0  0  0  0
   10.8830    2.5070   22.9870 C   0  0  0  0  0  0  0  0  0  0  0  0
    6.5010   -4.1340   26.6980 O   0  0  0  0  0  0  0  0  0  0  0  0
    9.0320    6.2920   22.9260 C   0  0  0  0  0  0  0  0  0  0  0  0
    4.4350   -6.9860   25.6930 C   0  0  0  0  0  0  0  0  0  0  0  0
    5.1210   -6.1050   26.5180 C   0  0  0  0  0  0  0  0  0  0  0  0
    6.5520   -4.5640   28.0690 C   0  0  0  0  0  0  0  0  0  0  0  0
  1  2  1  0
  2  3  1  6
  1  4  1  0
  1  5  1  0
  4  6  1  0
  2  7  1  0
  5  8  2  0
  5  9  1  0
  3 10  1  0
  3 11  2  0
  6 12  1  0
  7 13  2  0
  7 14  1  0
  8 15  1  0
  9 16  2  0
 15 16  1  0
  6 17  1  0
 16 18  1  0
 12 19  2  0
 12 20  1  0
 14 21  2  0
 13 22  1  0
 10 23  1  0
 17 24  2  0
 17 25  1  0
 18 26  1  0
 18 27  1  0
 18 28  1  0
 21 29  1  0
 22 29  2  0
 23 30  2  0
 23 31  1  0
 24 32  1  0
 25 33  1  0
 32 33  2  0
 30 34  1  0
 31 35  1  0
 27 36  1  0
 30 37  1  0
 31 38  2  0
 32 39  1  0
 33 40  1  0
 34 41  1  0
 39 42  1  0
 37 43  2  0
 38 43  1  0
 40 44  2  0
 39 45  2  0
 44 45  1  0
 42 46  1  0
M  END
