x1348-x2600
     RDKit          3D

 35 38  0  0  0  0  0  0  0  0999 V2000
    7.0110   -3.7860   21.3330 N   0  0  0  0  0  0  0  0  0  0  0  0
    6.4110   -3.7900   20.0760 C   0  0  0  0  0  0  0  0  0  0  0  0
    5.3110   -4.2590   19.7910 O   0  0  0  0  0  0  0  0  0  0  0  0
    7.5990   -2.5310   21.7470 C   0  0  0  0  0  0  0  0  0  0  0  0
    6.4720   -4.5030   22.3690 C   0  0  0  0  0  0  0  0  0  0  0  0
    7.3030   -3.1760   19.0170 C   0  0  0  0  0  0  0  0  0  0  0  0
    6.5740   -1.3980   21.8240 C   0  0  0  0  0  0  0  0  0  0  0  0
    6.9700   -4.3930   23.7420 N   0  0  0  0  0  0  0  0  0  0  0  0
    5.1650   -5.5800   22.1710 S   0  0  0  0  0  0  0  0  0  0  0  0
    7.1130   -0.2300   21.1420 N   0  0  0  0  0  0  0  0  0  0  0  0
    6.1630   -5.2410   24.5680 C   0  0  0  0  0  0  0  0  0  0  0  0
    5.1420   -5.9490   23.8670 C   0  0  0  0  0  0  0  0  0  0  0  0
    8.2040    0.4690   21.7700 C   0  0  0  0  0  0  0  0  0  0  0  0
    6.3380   -5.3910   26.0220 C   0  0  0  0  0  0  0  0  0  0  0  0
    4.2730   -6.8060   24.5380 C   0  0  0  0  0  0  0  0  0  0  0  0
    6.4070    0.3690   20.0290 C   0  0  0  0  0  0  0  0  0  0  0  0
    7.3530   -4.6690   26.6330 O   0  0  0  0  0  0  0  0  0  0  0  0
    8.7580    1.4600   21.2350 O   0  0  0  0  0  0  0  0  0  0  0  0
    8.6680   -0.0450   23.0970 C   0  0  0  0  0  0  0  0  0  0  0  0
    4.4210   -6.9840   26.0540 C   0  0  0  0  0  0  0  0  0  0  0  0
    5.5100   -6.2300   26.7840 C   0  0  0  0  0  0  0  0  0  0  0  0
    6.9360    0.0700   18.7840 C   0  0  0  0  0  0  0  0  0  0  0  0
    5.2930    1.1930   20.1450 C   0  0  0  0  0  0  0  0  0  0  0  0
    7.9580   -5.3850   27.7170 C   0  0  0  0  0  0  0  0  0  0  0  0
    6.2790    0.6720   17.6180 N   0  0  0  0  0  0  0  0  0  0  0  0
    4.6380    1.7810   19.0710 C   0  0  0  0  0  0  0  0  0  0  0  0
   10.1350   -0.0950   23.0310 C   0  0  0  0  0  0  0  0  0  0  0  0
    5.1160    1.5400   17.8140 C   0  0  0  0  0  0  0  0  0  0  0  0
   10.9320    0.9800   23.7050 C   0  0  0  0  0  0  0  0  0  0  0  0
   10.8190   -1.2260   22.2580 C   0  0  0  0  0  0  0  0  0  0  0  0
   12.4180    0.9350   23.5960 C   0  0  0  0  0  0  0  0  0  0  0  0
   12.3230   -1.2490   22.1700 C   0  0  0  0  0  0  0  0  0  0  0  0
   12.9570   -2.2790   21.4490 C   0  0  0  0  0  0  0  0  0  0  0  0
   13.1150   -0.1660   22.8390 C   0  0  0  0  0  0  0  0  0  0  0  0
   13.5430   -3.3490   20.6650 N   0  0  0  0  0  0  0  0  0  0  0  0
  1  2  1  0
  2  3  2  0
  1  4  1  0
  1  5  1  0
  2  6  1  0
  4  7  1  0
  5  8  2  0
  5  9  1  0
  7 10  1  0
  8 11  1  0
  9 12  1  0
 11 12  2  0
 10 13  1  0
 11 14  1  0
 12 15  1  0
 10 16  1  0
 14 17  1  0
 13 18  2  0
 13 19  1  0
 15 20  2  0
 14 21  2  0
 20 21  1  0
 16 22  2  0
 16 23  1  0
 17 24  1  0
 22 25  1  0
 23 26  2  0
 19 27  1  0
 25 28  2  0
 26 28  1  0
 27 29  2  0
 27 30  1  0
 29 31  1  0
 30 32  2  0
 32 33  1  0
 31 34  2  0
 32 34  1  0
 33 35  3  0
M  END
