x1348-x3117-x2649-x2694
     RDKit          3D

 47 51  0  0  0  0  0  0  0  0999 V2000
    7.5070   -1.0290   21.7430 N   0  0  0  0  0  0  0  0  0  0  0  0
    7.1350    0.4030   21.5940 C   0  0  1  0  0  0  0  0  0  0  0  0
    8.1710    1.4620   21.7970 C   0  0  0  0  0  0  0  0  0  0  0  0
    6.3850   -1.9140   21.7510 C   0  0  0  0  0  0  0  0  0  0  0  0
    8.7100   -1.3070   22.5430 C   0  0  0  0  0  0  0  0  0  0  0  0
    6.6520   -3.3120   21.4350 N   0  0  0  0  0  0  0  0  0  0  0  0
    6.4290    0.6680   20.2950 C   0  0  0  0  0  0  0  0  0  0  0  0
    8.6800   -1.9200   23.8810 N   0  0  0  0  0  0  0  0  0  0  0  0
    9.9700   -1.0280   22.1500 C   0  0  0  0  0  0  0  0  0  0  0  0
    7.7960    2.4190   22.8560 N   0  0  0  0  0  0  0  0  0  0  0  0
    9.1900    1.5680   21.1510 O   0  0  0  0  0  0  0  0  0  0  0  0
    6.3610   -3.6550   20.1270 C   0  0  0  0  0  0  0  0  0  0  0  0
    5.1330    1.4520   20.3050 C   0  0  0  0  0  0  0  0  0  0  0  0
    6.9290    0.2160   19.0230 C   0  0  0  0  0  0  0  0  0  0  0  0
   10.0870   -1.9900   24.2820 O   0  0  0  0  0  0  0  0  0  0  0  0
   10.9370   -1.4360   23.2380 C   0  0  0  0  0  0  0  0  0  0  0  0
    6.2290   -4.2120   22.4640 C   0  0  0  0  0  0  0  0  0  0  0  0
   12.4250   -1.3100   23.2760 C   0  0  0  0  0  0  0  0  0  0  0  0
    4.5090    1.9580   21.6000 C   0  0  0  0  0  0  0  0  0  0  0  0
    5.3940   -4.3530   19.8290 O   0  0  0  0  0  0  0  0  0  0  0  0
    7.2910   -3.1430   19.0560 C   0  0  0  0  0  0  0  0  0  0  0  0
    6.2590    0.5060   17.7800 N   0  0  0  0  0  0  0  0  0  0  0  0
    4.5510    1.6770   18.9510 C   0  0  0  0  0  0  0  0  0  0  0  0
    8.5600    3.5790   23.0810 C   0  0  0  0  0  0  0  0  0  0  0  0
    6.8040   -4.1760   23.8180 N   0  0  0  0  0  0  0  0  0  0  0  0
    4.8990   -5.4500   22.2220 S   0  0  0  0  0  0  0  0  0  0  0  0
   12.8510    0.1790   23.2000 C   0  0  0  0  0  0  0  0  0  0  0  0
   13.0020   -1.9920   22.0040 C   0  0  0  0  0  0  0  0  0  0  0  0
   13.0410   -1.8760   24.5960 C   0  0  0  0  0  0  0  0  0  0  0  0
    5.1400    1.2080   17.8100 C   0  0  0  0  0  0  0  0  0  0  0  0
    9.8370    3.4020   23.6560 C   0  0  0  0  0  0  0  0  0  0  0  0
    8.0880    4.8640   22.7530 C   0  0  0  0  0  0  0  0  0  0  0  0
    6.0820   -5.1300   24.6290 C   0  0  0  0  0  0  0  0  0  0  0  0
    5.1260   -5.7900   23.9280 C   0  0  0  0  0  0  0  0  0  0  0  0
   10.3280    2.0120   24.0030 C   0  0  0  0  0  0  0  0  0  0  0  0
   12.2750   -3.0770   25.1460 C   0  0  0  0  0  0  0  0  0  0  0  0
   10.6310    4.4850   23.9010 C   0  0  0  0  0  0  0  0  0  0  0  0
    8.8650    5.9780   22.9970 C   0  0  0  0  0  0  0  0  0  0  0  0
    6.3820   -5.3290   26.1070 C   0  0  0  0  0  0  0  0  0  0  0  0
    4.2780   -6.7960   24.6570 C   0  0  0  0  0  0  0  0  0  0  0  0
    7.3910   -4.5930   26.6970 O   0  0  0  0  0  0  0  0  0  0  0  0
   10.2430    5.7850   23.6230 C   0  0  0  0  0  0  0  0  0  0  0  0
    4.5430   -7.0110   26.1630 C   0  0  0  0  0  0  0  0  0  0  0  0
    5.5850   -6.2670   26.8060 C   0  0  0  0  0  0  0  0  0  0  0  0
   11.0620    6.8420   23.9030 O   0  0  0  0  0  0  0  0  0  0  0  0
    7.9730   -5.2510   27.8170 C   0  0  0  0  0  0  0  0  0  0  0  0
   11.8800    6.6970   25.0570 C   0  0  0  0  0  0  0  0  0  0  0  0
  1  2  1  0
  2  3  1  6
  1  4  1  0
  1  5  1  0
  4  6  1  0
  2  7  1  0
  5  8  2  0
  5  9  1  0
  3 10  1  0
  3 11  2  0
  6 12  1  0
  7 13  2  0
  7 14  1  0
  8 15  1  0
  9 16  2  0
 15 16  1  0
  6 17  1  0
 16 18  1  0
 13 19  1  0
 12 20  2  0
 12 21  1  0
 14 22  2  0
 13 23  1  0
 10 24  1  0
 17 25  2  0
 17 26  1  0
 18 27  1  0
 18 28  1  0
 18 29  1  0
 22 30  1  0
 23 30  2  0
 24 31  2  0
 24 32  1  0
 25 33  1  0
 26 34  1  0
 33 34  2  0
 31 35  1  0
 29 36  1  0
 31 37  1  0
 32 38  2  0
 33 39  1  0
 34 40  1  0
 39 41  1  0
 37 42  2  0
 38 42  1  0
 40 43  2  0
 39 44  2  0
 43 44  1  0
 42 45  1  0
 41 46  1  0
 45 47  1  0
M  END
