x1348-x0426
     RDKit          3D

 37 41  0  0  0  0  0  0  0  0999 V2000
    6.7880   -3.1590   21.3870 N   0  0  0  0  0  0  0  0  0  0  0  0
    6.4240   -3.5310   20.0730 C   0  0  0  0  0  0  0  0  0  0  0  0
    5.4210   -4.1920   19.7770 O   0  0  0  0  0  0  0  0  0  0  0  0
    7.8300   -2.1220   21.6260 C   0  0  0  0  0  0  0  0  0  0  0  0
    6.3590   -4.0200   22.4050 C   0  0  0  0  0  0  0  0  0  0  0  0
    7.3770   -3.1160   18.9700 C   0  0  0  0  0  0  0  0  0  0  0  0
    7.4620   -0.6400   21.9620 C   0  0  0  0  0  0  0  0  0  0  0  0
    6.9420   -4.0300   23.7530 N   0  0  0  0  0  0  0  0  0  0  0  0
    5.0630   -5.1400   22.1340 S   0  0  0  0  0  0  0  0  0  0  0  0
    5.9560   -0.3000   21.7040 C   0  0  1  0  0  0  0  0  0  0  0  0
    6.1880   -4.9970   24.5160 C   0  0  0  0  0  0  0  0  0  0  0  0
    5.0780   -5.7160   23.7520 C   0  0  0  0  0  0  0  0  0  0  0  0
    5.3680    0.5910   22.6380 C   0  0  0  0  0  0  0  0  0  0  0  0
    6.4840   -5.2690   26.0020 C   0  0  0  0  0  0  0  0  0  0  0  0
    4.2310   -6.7390   24.4930 C   0  0  0  0  0  0  0  0  0  0  0  0
    5.7880    0.2800   20.3090 C   0  0  0  0  0  0  0  0  0  0  0  0
    7.5100   -4.5760   26.6060 O   0  0  0  0  0  0  0  0  0  0  0  0
    3.9120    1.0680   22.3720 C   0  0  1  0  0  0  0  0  0  0  0  0
    4.5620   -6.9580   25.9800 C   0  0  0  0  0  0  0  0  0  0  0  0
    5.5720   -6.3240   26.7180 C   0  0  0  0  0  0  0  0  0  0  0  0
    6.6700   -0.0350   19.2780 C   0  0  0  0  0  0  0  0  0  0  0  0
    4.7510    1.1630   19.9830 C   0  0  0  0  0  0  0  0  0  0  0  0
    7.9680   -5.1200   27.8480 C   0  0  0  0  0  0  0  0  0  0  0  0
    3.4030    1.8980   23.3410 N   0  0  0  0  0  0  0  0  0  0  0  0
    3.7240    1.6020   20.9690 C   0  0  0  0  0  0  0  0  0  0  0  0
    6.5850    0.4400   18.0190 N   0  0  0  0  0  0  0  0  0  0  0  0
    4.6530    1.6640   18.6980 C   0  0  0  0  0  0  0  0  0  0  0  0
    2.2250    1.5160   24.0120 C   0  0  0  0  0  0  0  0  0  0  0  0
    5.5820    1.2810   17.7580 C   0  0  0  0  0  0  0  0  0  0  0  0
    1.9700    0.3190   24.1160 O   0  0  0  0  0  0  0  0  0  0  0  0
    1.2660    2.4930   24.6160 C   0  0  0  0  0  0  0  0  0  0  0  0
    1.6120    3.7310   25.1580 C   0  0  0  0  0  0  0  0  0  0  0  0
   -0.0560    2.0790   24.6170 C   0  0  0  0  0  0  0  0  0  0  0  0
    2.8870    4.1550   25.1700 F   0  0  0  0  0  0  0  0  0  0  0  0
   -1.0600    2.8780   25.1540 C   0  0  0  0  0  0  0  0  0  0  0  0
    0.6410    4.5850   25.7180 C   0  0  0  0  0  0  0  0  0  0  0  0
   -0.7090    4.2330   25.7550 C   0  0  0  0  0  0  0  0  0  0  0  0
  1  2  1  0
  2  3  2  0
  1  4  1  0
  1  5  1  0
  2  6  1  0
  4  7  1  0
  5  8  2  0
  5  9  1  0
 10  7  1  1
  8 11  1  0
  9 12  1  0
 11 12  2  0
 10 13  1  0
 11 14  1  0
 12 15  1  0
 10 16  1  0
 14 17  1  0
 13 18  1  0
 15 19  2  0
 14 20  2  0
 19 20  1  0
 16 21  1  0
 16 22  2  0
 17 23  1  0
 18 24  1  1
 18 25  1  0
 22 25  1  0
 21 26  2  0
 22 27  1  0
 24 28  1  0
 26 29  1  0
 27 29  2  0
 28 30  2  0
 28 31  1  0
 31 32  2  0
 31 33  1  0
 32 34  1  0
 33 35  2  0
 32 36  1  0
 35 37  1  0
 36 37  2  0
M  END
