x1348-x2964
     RDKit          3D

 35 38  0  0  0  0  0  0  0  0999 V2000
    6.8860   -3.6360   21.3530 N   0  0  0  0  0  0  0  0  0  0  0  0
    6.3900   -3.6920   20.0420 C   0  0  0  0  0  0  0  0  0  0  0  0
    5.2930   -4.1620   19.7380 O   0  0  0  0  0  0  0  0  0  0  0  0
    7.5870   -2.4850   21.8900 C   0  0  0  0  0  0  0  0  0  0  0  0
    6.3320   -4.4540   22.3970 C   0  0  0  0  0  0  0  0  0  0  0  0
    7.3320   -3.2100   18.9530 C   0  0  0  0  0  0  0  0  0  0  0  0
    7.9950   -1.4400   20.8900 C   0  0  0  0  0  0  0  0  0  0  0  0
    6.9120   -4.3270   23.7350 N   0  0  0  0  0  0  0  0  0  0  0  0
    5.0420   -5.5480   22.2240 S   0  0  0  0  0  0  0  0  0  0  0  0
    7.4430   -0.2320   21.1190 N   0  0  0  0  0  0  0  0  0  0  0  0
    6.2430   -5.1290   24.6140 C   0  0  0  0  0  0  0  0  0  0  0  0
    5.1350   -5.8890   23.8840 C   0  0  0  0  0  0  0  0  0  0  0  0
    8.3830    0.6440   21.7530 C   0  0  0  0  0  0  0  0  0  0  0  0
    6.4740   -5.2930   26.0420 C   0  0  0  0  0  0  0  0  0  0  0  0
    4.3030   -6.7630   24.5710 C   0  0  0  0  0  0  0  0  0  0  0  0
    6.6540    0.2830   20.0520 C   0  0  0  0  0  0  0  0  0  0  0  0
    7.4740   -4.6130   26.7140 O   0  0  0  0  0  0  0  0  0  0  0  0
    8.7560    1.7400   21.2910 O   0  0  0  0  0  0  0  0  0  0  0  0
    8.9290    0.1670   22.9150 N   0  0  0  0  0  0  0  0  0  0  0  0
    4.4830   -6.9440   25.9400 C   0  0  0  0  0  0  0  0  0  0  0  0
    5.4720   -6.2970   26.6890 C   0  0  0  0  0  0  0  0  0  0  0  0
    5.4980    0.9830   20.3730 C   0  0  0  0  0  0  0  0  0  0  0  0
    6.9630    0.1380   18.7230 C   0  0  0  0  0  0  0  0  0  0  0  0
    7.9540   -5.3500   27.8420 C   0  0  0  0  0  0  0  0  0  0  0  0
    4.6240    1.5700   19.2430 C   0  0  0  0  0  0  0  0  0  0  0  0
    6.2390    0.6330   17.6970 N   0  0  0  0  0  0  0  0  0  0  0  0
   10.3170    0.0690   22.8560 C   0  0  0  0  0  0  0  0  0  0  0  0
    3.4480    2.2870   19.4700 N   0  0  0  0  0  0  0  0  0  0  0  0
    5.1140    1.3260   17.9710 C   0  0  0  0  0  0  0  0  0  0  0  0
   11.0320    1.1350   23.3830 C   0  0  0  0  0  0  0  0  0  0  0  0
   11.0100   -1.1170   22.2410 C   0  0  0  0  0  0  0  0  0  0  0  0
   12.4000    1.1570   23.3520 C   0  0  0  0  0  0  0  0  0  0  0  0
   12.3690   -1.1070   22.2040 C   0  0  0  0  0  0  0  0  0  0  0  0
   13.1550   -2.4230   21.4910 Cl  0  0  0  0  0  0  0  0  0  0  0  0
   13.1140    0.1150   22.7990 C   0  0  0  0  0  0  0  0  0  0  0  0
  1  2  1  0
  2  3  2  0
  1  4  1  0
  1  5  1  0
  2  6  1  0
  4  7  1  0
  5  8  2  0
  5  9  1  0
  7 10  1  0
  8 11  1  0
  9 12  1  0
 11 12  2  0
 10 13  1  0
 11 14  1  0
 12 15  1  0
 10 16  1  0
 14 17  1  0
 13 18  2  0
 13 19  1  0
 15 20  2  0
 14 21  2  0
 20 21  1  0
 16 22  2  0
 16 23  1  0
 17 24  1  0
 22 25  1  0
 23 26  2  0
 19 27  1  0
 25 28  1  0
 25 29  2  0
 26 29  1  0
 27 30  2  0
 27 31  1  0
 30 32  1  0
 31 33  2  0
 33 34  1  0
 32 35  2  0
 33 35  1  0
M  END
