x1348-x2705-x0995-x2776
     RDKit          3D

 49 53  0  0  0  0  0  0  0  0999 V2000
    7.3580   -0.8190   21.6910 N   0  0  0  0  0  0  0  0  0  0  0  0
    7.0720    0.6930   21.4290 C   0  0  1  0  0  0  0  0  0  0  0  0
    8.2140    1.7430   21.7240 C   0  0  0  0  0  0  0  0  0  0  0  0
    6.2180   -1.6760   21.8250 C   0  0  0  0  0  0  0  0  0  0  0  0
    8.5890   -1.1660   22.4090 C   0  0  0  0  0  0  0  0  0  0  0  0
    6.3800   -3.0630   21.6080 N   0  0  0  0  0  0  0  0  0  0  0  0
    6.2920    0.9650   20.0940 C   0  0  0  0  0  0  0  0  0  0  0  0
    8.7340   -1.3900   23.8810 N   0  0  0  0  0  0  0  0  0  0  0  0
    9.7890   -1.3330   21.7520 C   0  0  0  0  0  0  0  0  0  0  0  0
    8.1500    2.3550   22.9800 N   0  0  0  0  0  0  0  0  0  0  0  0
    9.0980    2.0490   20.9490 O   0  0  0  0  0  0  0  0  0  0  0  0
    6.3850   -3.5770   20.2340 C   0  0  0  0  0  0  0  0  0  0  0  0
    4.9330    1.4430   20.0450 C   0  0  0  0  0  0  0  0  0  0  0  0
    7.0040    0.7070   18.8720 C   0  0  0  0  0  0  0  0  0  0  0  0
   10.0750   -1.6730   23.9990 N   0  0  0  0  0  0  0  0  0  0  0  0
   10.6920   -1.6480   22.7870 C   0  0  0  0  0  0  0  0  0  0  0  0
    5.9790   -3.9960   22.7140 C   0  0  0  0  0  0  0  0  0  0  0  0
   12.2190   -1.9140   22.5560 C   0  0  0  0  0  0  0  0  0  0  0  0
    5.6270   -4.4850   19.9210 O   0  0  0  0  0  0  0  0  0  0  0  0
    7.3110   -3.0060   19.1160 C   0  0  0  0  0  0  0  0  0  0  0  0
    6.3320    0.9310   17.6640 N   0  0  0  0  0  0  0  0  0  0  0  0
    4.2550    1.6750   18.8480 C   0  0  0  0  0  0  0  0  0  0  0  0
    8.4420    3.7790   23.3980 C   0  0  0  0  0  0  0  0  0  0  0  0
    6.7430   -4.2840   23.7620 N   0  0  0  0  0  0  0  0  0  0  0  0
    4.4550   -4.8040   22.7270 S   0  0  0  0  0  0  0  0  0  0  0  0
   13.0470   -0.5820   22.6340 C   0  0  0  0  0  0  0  0  0  0  0  0
   12.8090   -2.9360   23.6230 C   0  0  0  0  0  0  0  0  0  0  0  0
   12.4790   -2.5530   21.1250 C   0  0  0  0  0  0  0  0  0  0  0  0
    3.0000    2.1240   18.9150 N   0  0  0  0  0  0  0  0  0  0  0  0
    4.9410    1.4280   17.6600 C   0  0  0  0  0  0  0  0  0  0  0  0
    9.7900    4.1890   23.7390 C   0  0  0  0  0  0  0  0  0  0  0  0
    7.4310    4.7380   23.5110 C   0  0  0  0  0  0  0  0  0  0  0  0
    6.1470   -5.1840   24.6640 C   0  0  0  0  0  0  0  0  0  0  0  0
    4.8430   -5.6070   24.2690 C   0  0  0  0  0  0  0  0  0  0  0  0
   11.0070    3.1680   23.6270 C   0  0  0  0  0  0  0  0  0  0  0  0
    6.0530    4.4290   23.2080 C   0  0  0  0  0  0  0  0  0  0  0  0
   13.2830   -2.4730   25.0340 C   0  0  0  0  0  0  0  0  0  0  0  0
   10.3930    5.4870   24.2380 C   0  0  0  0  0  0  0  0  0  0  0  0
    7.8060    5.9920   23.9320 C   0  0  0  0  0  0  0  0  0  0  0  0
    6.6870   -5.7040   25.9150 C   0  0  0  0  0  0  0  0  0  0  0  0
    4.0860   -6.5350   25.1090 C   0  0  0  0  0  0  0  0  0  0  0  0
   10.8640    1.9120   24.5140 C   0  0  0  0  0  0  0  0  0  0  0  0
   10.9450    6.6720   24.6940 O   0  0  0  0  0  0  0  0  0  0  0  0
    7.9600   -5.2630   26.2580 O   0  0  0  0  0  0  0  0  0  0  0  0
    9.1580    6.2930   24.2530 C   0  0  0  0  0  0  0  0  0  0  0  0
    4.6660   -6.9680   26.2620 C   0  0  0  0  0  0  0  0  0  0  0  0
    5.9040   -6.6150   26.7220 C   0  0  0  0  0  0  0  0  0  0  0  0
   12.2670    6.6820   25.0310 C   0  0  0  0  0  0  0  0  0  0  0  0
    8.8940   -6.1570   26.9290 C   0  0  0  0  0  0  0  0  0  0  0  0
  1  2  1  0
  2  3  1  6
  1  4  1  0
  1  5  1  0
  4  6  1  0
  2  7  1  0
  5  8  2  0
  5  9  1  0
  3 10  1  0
  3 11  2  0
  6 12  1  0
  7 13  2  0
  7 14  1  0
  8 15  1  0
  9 16  2  0
 15 16  1  0
  6 17  1  0
 16 18  1  0
 12 19  2  0
 12 20  1  0
 14 21  2  0
 13 22  1  0
 10 23  1  0
 17 24  2  0
 17 25  1  0
 18 26  1  0
 18 27  1  0
 18 28  1  0
 22 29  1  0
 21 30  1  0
 22 30  2  0
 23 31  2  0
 23 32  1  0
 24 33  1  0
 25 34  1  0
 33 34  2  0
 31 35  1  0
 32 36  1  0
 27 37  1  0
 31 38  1  0
 32 39  2  0
 33 40  1  0
 34 41  1  0
 35 42  1  0
 38 43  1  0
 40 44  1  0
 38 45  2  0
 39 45  1  0
 41 46  2  0
 40 47  2  0
 46 47  1  0
 43 48  1  0
 44 49  1  0
M  END
