x1348-x2776-x2694-x3124
     RDKit          3D

 47 51  0  0  0  0  0  0  0  0999 V2000
    7.3520   -0.9960   21.4350 N   0  0  0  0  0  0  0  0  0  0  0  0
    6.9390    0.3790   21.4590 C   0  0  1  0  0  0  0  0  0  0  0  0
    8.0460    1.4280   21.6860 C   0  0  0  0  0  0  0  0  0  0  0  0
    6.2640   -1.9520   21.5390 C   0  0  0  0  0  0  0  0  0  0  0  0
    8.5290   -1.2730   22.2400 C   0  0  0  0  0  0  0  0  0  0  0  0
    6.5620   -3.3490   21.3930 N   0  0  0  0  0  0  0  0  0  0  0  0
    6.3240    0.7280   20.1300 C   0  0  0  0  0  0  0  0  0  0  0  0
    9.8610   -1.4300   21.9130 C   0  0  0  0  0  0  0  0  0  0  0  0
    8.0390   -1.3640   23.5050 C   0  0  0  0  0  0  0  0  0  0  0  0
    7.8290    2.2620   22.7630 N   0  0  0  0  0  0  0  0  0  0  0  0
    9.0460    1.5680   21.0200 O   0  0  0  0  0  0  0  0  0  0  0  0
    6.3080   -3.7290   20.1040 C   0  0  0  0  0  0  0  0  0  0  0  0
    5.2320    1.5710   20.0930 C   0  0  0  0  0  0  0  0  0  0  0  0
    6.8740    0.1810   18.9090 C   0  0  0  0  0  0  0  0  0  0  0  0
   10.8470   -1.7160   22.8860 C   0  0  0  0  0  0  0  0  0  0  0  0
    8.9590   -1.6570   24.6590 C   0  0  0  0  0  0  0  0  0  0  0  0
    6.1790   -4.2280   22.5010 C   0  0  0  0  0  0  0  0  0  0  0  0
   12.3040   -1.9100   22.6370 C   0  0  0  0  0  0  0  0  0  0  0  0
    5.3550   -4.4450   19.8360 O   0  0  0  0  0  0  0  0  0  0  0  0
    7.2820   -3.1810   19.0700 C   0  0  0  0  0  0  0  0  0  0  0  0
    6.2420    0.5740   17.7760 N   0  0  0  0  0  0  0  0  0  0  0  0
    4.6510    1.9170   18.9090 C   0  0  0  0  0  0  0  0  0  0  0  0
    8.6070    3.4060   23.0410 C   0  0  0  0  0  0  0  0  0  0  0  0
   10.3540   -1.8130   24.2050 C   0  0  0  0  0  0  0  0  0  0  0  0
    6.8070   -4.2280   23.8490 N   0  0  0  0  0  0  0  0  0  0  0  0
    4.8300   -5.3660   22.2640 S   0  0  0  0  0  0  0  0  0  0  0  0
   12.8370   -2.0240   24.0420 C   0  0  1  0  0  0  0  0  0  0  0  0
    5.1830    1.4070   17.7980 C   0  0  0  0  0  0  0  0  0  0  0  0
    9.9230    3.2530   23.5010 C   0  0  0  0  0  0  0  0  0  0  0  0
    8.0710    4.6810   22.8570 C   0  0  0  0  0  0  0  0  0  0  0  0
    6.0380   -5.1860   24.6460 C   0  0  0  0  0  0  0  0  0  0  0  0
    4.9000   -5.8950   23.9080 C   0  0  0  0  0  0  0  0  0  0  0  0
   13.9390   -2.7800   24.4800 O   0  0  0  0  0  0  0  0  0  0  0  0
   10.5490    1.8940   23.7180 C   0  0  0  0  0  0  0  0  0  0  0  0
   12.9410   -0.7360   24.5460 C   0  0  0  0  0  0  0  0  0  0  0  0
   10.7400    4.3600   23.7880 C   0  0  0  0  0  0  0  0  0  0  0  0
    8.8680    5.7740   23.1480 C   0  0  0  0  0  0  0  0  0  0  0  0
    6.3980   -5.3570   25.9840 C   0  0  0  0  0  0  0  0  0  0  0  0
    4.0690   -6.8820   24.7170 C   0  0  0  0  0  0  0  0  0  0  0  0
   13.6690   -3.2590   25.7900 C   0  0  0  0  0  0  0  0  0  0  0  0
    7.4380   -4.7020   26.5760 O   0  0  0  0  0  0  0  0  0  0  0  0
   10.1740    5.6420   23.6070 C   0  0  0  0  0  0  0  0  0  0  0  0
    4.4710   -7.0330   26.1780 C   0  0  0  0  0  0  0  0  0  0  0  0
    5.6460   -6.2460   26.7530 C   0  0  0  0  0  0  0  0  0  0  0  0
   10.8290    6.8160   23.8590 O   0  0  0  0  0  0  0  0  0  0  0  0
    8.1040   -5.5230   27.5410 C   0  0  0  0  0  0  0  0  0  0  0  0
   11.8190    6.7560   24.8830 C   0  0  0  0  0  0  0  0  0  0  0  0
  1  2  1  0
  2  3  1  6
  1  4  1  0
  1  5  1  0
  4  6  1  0
  2  7  1  0
  5  8  2  0
  5  9  1  0
  3 10  1  0
  3 11  2  0
  6 12  1  0
  7 13  2  0
  7 14  1  0
  8 15  1  0
  9 16  2  0
  6 17  1  0
 15 18  1  0
 12 19  2  0
 12 20  1  0
 14 21  2  0
 13 22  1  0
 10 23  1  0
 15 24  2  0
 16 24  1  0
 17 25  2  0
 17 26  1  0
 18 27  1  0
 21 28  1  0
 22 28  2  0
 23 29  2  0
 23 30  1  0
 25 31  1  0
 26 32  1  0
 31 32  2  0
 27 33  1  0
 29 34  1  0
 27 35  1  6
 29 36  1  0
 30 37  2  0
 31 38  1  0
 32 39  1  0
 33 40  1  0
 38 41  1  0
 36 42  2  0
 37 42  1  0
 39 43  2  0
 38 44  2  0
 43 44  1  0
 42 45  1  0
 41 46  1  0
 45 47  1  0
M  END
