x1348-x2569
     RDKit          3D

 35 38  0  0  0  0  0  0  0  0999 V2000
    6.9460   -3.6590   21.3480 N   0  0  0  0  0  0  0  0  0  0  0  0
    6.3970   -3.7200   20.0560 C   0  0  0  0  0  0  0  0  0  0  0  0
    5.2980   -4.1930   19.7600 O   0  0  0  0  0  0  0  0  0  0  0  0
    7.6690   -2.4710   21.8080 C   0  0  0  0  0  0  0  0  0  0  0  0
    6.4290   -4.4110   22.3740 C   0  0  0  0  0  0  0  0  0  0  0  0
    7.3170   -3.2270   18.9630 C   0  0  0  0  0  0  0  0  0  0  0  0
    7.9450   -1.3730   20.7960 C   0  0  0  0  0  0  0  0  0  0  0  0
    6.9360   -4.3280   23.7470 N   0  0  0  0  0  0  0  0  0  0  0  0
    5.1330   -5.5030   22.1690 S   0  0  0  0  0  0  0  0  0  0  0  0
    7.3150   -0.1240   21.1540 N   0  0  0  0  0  0  0  0  0  0  0  0
    6.1470   -5.2010   24.5630 C   0  0  0  0  0  0  0  0  0  0  0  0
    5.1250   -5.9080   23.8570 C   0  0  0  0  0  0  0  0  0  0  0  0
    8.3130    0.6530   21.8260 C   0  0  0  0  0  0  0  0  0  0  0  0
    6.3320   -5.3840   26.0120 C   0  0  0  0  0  0  0  0  0  0  0  0
    4.2720   -6.7860   24.5190 C   0  0  0  0  0  0  0  0  0  0  0  0
    6.5280    0.4130   20.1180 C   0  0  0  0  0  0  0  0  0  0  0  0
    7.3470   -4.6620   26.6300 O   0  0  0  0  0  0  0  0  0  0  0  0
    8.8070    1.6850   21.3260 O   0  0  0  0  0  0  0  0  0  0  0  0
    8.7570    0.1060   23.1440 C   0  0  0  0  0  0  0  0  0  0  0  0
    4.4300   -6.9940   26.0270 C   0  0  0  0  0  0  0  0  0  0  0  0
    5.5220   -6.2430   26.7660 C   0  0  0  0  0  0  0  0  0  0  0  0
    6.9370    0.2440   18.6440 C   0  0  0  0  0  0  0  0  0  0  0  0
    5.2380    1.1930   20.3200 C   0  0  0  0  0  0  0  0  0  0  0  0
    7.9300   -5.3710   27.7310 C   0  0  0  0  0  0  0  0  0  0  0  0
   10.2390   -0.0020   23.1230 C   0  0  0  0  0  0  0  0  0  0  0  0
    6.2670    0.7280   17.6110 N   0  0  0  0  0  0  0  0  0  0  0  0
    4.6220    1.6530   19.1540 C   0  0  0  0  0  0  0  0  0  0  0  0
   10.8960   -0.9670   22.3850 C   0  0  0  0  0  0  0  0  0  0  0  0
   10.9310    0.9020   23.8650 C   0  0  0  0  0  0  0  0  0  0  0  0
    5.1510    1.4130   17.8820 C   0  0  0  0  0  0  0  0  0  0  0  0
   12.3860    0.8210   23.8510 N   0  0  0  0  0  0  0  0  0  0  0  0
   12.2660   -1.0730   22.3460 C   0  0  0  0  0  0  0  0  0  0  0  0
   12.8740   -2.0770   21.5630 C   0  0  0  0  0  0  0  0  0  0  0  0
   13.0500   -0.1970   23.0640 C   0  0  0  0  0  0  0  0  0  0  0  0
   13.4420   -3.1330   20.7470 N   0  0  0  0  0  0  0  0  0  0  0  0
  1  2  1  0
  2  3  2  0
  1  4  1  0
  1  5  1  0
  2  6  1  0
  4  7  1  0
  5  8  2  0
  5  9  1  0
  7 10  1  0
  8 11  1  0
  9 12  1  0
 11 12  2  0
 10 13  1  0
 11 14  1  0
 12 15  1  0
 10 16  1  0
 14 17  1  0
 13 18  2  0
 13 19  1  0
 15 20  2  0
 14 21  2  0
 20 21  1  0
 16 22  2  0
 16 23  1  0
 17 24  1  0
 19 25  1  0
 22 26  1  0
 23 27  2  0
 25 28  2  0
 25 29  1  0
 26 30  2  0
 27 30  1  0
 29 31  2  0
 28 32  1  0
 32 33  1  0
 31 34  1  0
 32 34  2  0
 33 35  3  0
M  END
