x1351-x0967
     RDKit          3D

 39 41  0  0  0  0  0  0  0  0999 V2000
    7.7450    5.0000   22.4490 C   0  0  0  0  0  0  0  0  0  0  0  0
    7.1710    3.6500   22.9900 C   0  0  0  0  0  0  0  0  0  0  0  0
    7.9790    2.5920   22.6660 N   0  0  0  0  0  0  0  0  0  0  0  0
    6.1240    3.5840   23.6290 O   0  0  0  0  0  0  0  0  0  0  0  0
    7.6630    1.2410   23.1320 C   0  0  1  0  0  0  0  0  0  0  0  0
    6.2700    0.8240   22.6040 C   0  0  0  0  0  0  0  0  0  0  0  0
    8.7670    0.3040   22.6150 C   0  0  0  0  0  0  0  0  0  0  0  0
    8.6090   -1.1700   22.5610 N   0  0  0  0  0  0  0  0  0  0  0  0
   10.0100    0.8520   22.1570 O   0  0  0  0  0  0  0  0  0  0  0  0
    6.1400    0.8150   21.0500 C   0  0  0  0  0  0  0  0  0  0  0  0
    9.5730   -1.6300   21.5910 C   0  0  0  0  0  0  0  0  0  0  0  0
    7.2860   -1.8820   22.5590 C   0  0  0  0  0  0  0  0  0  0  0  0
    7.2640   -0.0970   20.4990 C   0  0  0  0  0  0  0  0  0  0  0  0
    5.1280    1.5600   20.5210 C   0  0  0  0  0  0  0  0  0  0  0  0
   10.6500   -2.2630   22.1730 C   0  0  0  0  0  0  0  0  0  0  0  0
    6.8930    0.0760   18.9850 C   0  0  0  0  0  0  0  0  0  0  0  0
    4.8560    1.6650   19.0480 C   0  0  0  0  0  0  0  0  0  0  0  0
    7.4910   -3.3990   22.4230 C   0  0  2  0  0  0  0  0  0  0  0  0
   11.7690   -1.5010   22.4580 C   0  0  0  0  0  0  0  0  0  0  0  0
    5.7590    0.9130   18.3510 C   0  0  0  0  0  0  0  0  0  0  0  0
    6.3780   -4.1210   21.7040 N   0  0  0  0  0  0  0  0  0  0  0  0
    7.6440   -3.9050   23.7160 C   0  0  0  0  0  0  0  0  0  0  0  0
    5.7020    0.8690   17.0300 O   0  0  0  0  0  0  0  0  0  0  0  0
   13.2250   -0.4210   22.9220 Br  0  0  0  0  0  0  0  0  0  0  0  0
    6.1610   -4.0370   20.3140 C   0  0  0  0  0  0  0  0  0  0  0  0
    6.4170   -4.0350   24.5660 C   0  0  1  0  0  0  0  0  0  0  0  0
    5.6490   -4.9670   22.4860 C   0  0  0  0  0  0  0  0  0  0  0  0
    7.0560   -3.2340   19.3700 C   0  0  0  0  0  0  0  0  0  0  0  0
    5.2060   -4.6620   19.8860 O   0  0  0  0  0  0  0  0  0  0  0  0
    6.1320   -2.7500   25.2150 N   0  0  0  0  0  0  0  0  0  0  0  0
    5.2570   -4.5410   23.7320 C   0  0  0  0  0  0  0  0  0  0  0  0
    6.9270   -2.3020   26.2090 C   0  0  0  0  0  0  0  0  0  0  0  0
    7.9280   -2.9120   26.5680 O   0  0  0  0  0  0  0  0  0  0  0  0
    6.5570   -1.0280   26.8820 C   0  0  0  0  0  0  0  0  0  0  0  0
    7.1870   -0.6230   28.0710 C   0  0  0  0  0  0  0  0  0  0  0  0
    5.5690   -0.2130   26.3270 C   0  0  0  0  0  0  0  0  0  0  0  0
    6.7810    0.7190   28.7540 C   0  0  0  0  0  0  0  0  0  0  0  0
    5.1740    0.9970   26.9070 C   0  0  0  0  0  0  0  0  0  0  0  0
    5.7860    1.4220   28.0900 C   0  0  0  0  0  0  0  0  0  0  0  0
  1  2  1  0
  2  3  1  0
  2  4  2  0
  3  5  1  0
  5  6  1  6
  5  7  1  0
  7  8  1  0
  7  9  2  0
  6 10  1  0
  8 11  1  0
  8 12  1  0
 10 13  2  0
 10 14  1  0
 11 15  1  0
 13 16  1  0
 14 17  2  0
 18 12  1  1
 15 19  3  0
 16 20  2  0
 17 20  1  0
 18 21  1  0
 18 22  1  0
 20 23  1  0
 19 24  1  0
 21 25  1  0
 22 26  1  0
 21 27  1  0
 25 28  1  0
 25 29  2  0
 26 30  1  6
 26 31  1  0
 27 31  1  0
 30 32  1  0
 32 33  2  0
 32 34  1  0
 34 35  2  0
 34 36  1  0
 35 37  1  0
 36 38  2  0
 37 39  2  0
 38 39  1  0
M  END
