x1358-x2581
     RDKit          3D

 43 47  0  0  0  0  0  0  0  0999 V2000
    6.8820   -2.0730   25.6710 N   0  0  0  0  0  0  0  0  0  0  0  0
    5.9830   -3.1450   25.1550 C   0  0  0  0  0  0  0  0  0  0  0  0
    5.2530   -3.8790   25.8130 O   0  0  0  0  0  0  0  0  0  0  0  0
    7.9620   -1.4580   24.8430 C   0  0  0  0  0  0  0  0  0  0  0  0
    6.6350   -1.2650   26.8090 C   0  0  0  0  0  0  0  0  0  0  0  0
    8.9720   -2.3900   24.1400 C   0  0  0  0  0  0  0  0  0  0  0  0
    6.0100   -0.0620   26.5330 C   0  0  0  0  0  0  0  0  0  0  0  0
    6.9770   -1.5670   28.1760 C   0  0  0  0  0  0  0  0  0  0  0  0
    5.7860   -3.4950   23.6490 C   0  0  0  0  0  0  0  0  0  0  0  0
    5.6680    0.2200   25.2340 O   0  0  0  0  0  0  0  0  0  0  0  0
   10.4350   -1.9520   24.2830 C   0  0  0  0  0  0  0  0  0  0  0  0
    6.6870   -0.5840   29.3050 C   0  0  0  0  0  0  0  0  0  0  0  0
    5.7380    0.8370   27.5490 C   0  0  0  0  0  0  0  0  0  0  0  0
    6.4490   -2.6790   22.7300 C   0  0  0  0  0  0  0  0  0  0  0  0
    5.9100   -4.8850   23.4470 C   0  0  0  0  0  0  0  0  0  0  0  0
   10.8610   -1.4150   23.2680 O   0  0  0  0  0  0  0  0  0  0  0  0
    6.0640    0.5770   28.8340 C   0  0  0  0  0  0  0  0  0  0  0  0
    7.4130   -3.4000   22.0500 C   0  0  0  0  0  0  0  0  0  0  0  0
    5.9940   -5.3780   22.1290 C   0  0  0  0  0  0  0  0  0  0  0  0
    6.7120   -4.4060   21.2900 N   0  0  0  0  0  0  0  0  0  0  0  0
   10.2560   -0.3230   22.6930 C   0  0  0  0  0  0  0  0  0  0  0  0
    6.2160   -3.9670   20.0620 C   0  0  0  0  0  0  0  0  0  0  0  0
   10.6040    1.0150   22.8590 C   0  0  0  0  0  0  0  0  0  0  0  0
    9.1950   -0.6130   21.8530 C   0  0  0  0  0  0  0  0  0  0  0  0
    5.0850   -4.2460   19.7200 O   0  0  0  0  0  0  0  0  0  0  0  0
    7.1740   -3.1920   19.1590 C   0  0  0  0  0  0  0  0  0  0  0  0
    9.8830    2.0120   22.1760 C   0  0  0  0  0  0  0  0  0  0  0  0
    8.5350    0.4370   21.2340 C   0  0  0  0  0  0  0  0  0  0  0  0
   10.1700    3.3660   22.2560 N   0  0  0  0  0  0  0  0  0  0  0  0
    8.8420    1.7500   21.3590 N   0  0  0  0  0  0  0  0  0  0  0  0
   11.1180    3.9020   23.0610 C   0  0  0  0  0  0  0  0  0  0  0  0
   11.3940    3.3530   24.0790 O   0  0  0  0  0  0  0  0  0  0  0  0
   11.7460    5.0960   22.7010 C   0  0  0  0  0  0  0  0  0  0  0  0
   11.0180    6.2730   23.2980 C   0  0  0  0  0  0  0  0  0  0  0  0
    9.7800    6.7040   22.7970 C   0  0  0  0  0  0  0  0  0  0  0  0
   11.5930    7.0430   24.4820 C   0  0  0  0  0  0  0  0  0  0  0  0
    9.0910    7.7870   23.3440 C   0  0  0  0  0  0  0  0  0  0  0  0
   10.9560    8.1190   25.0530 C   0  0  0  0  0  0  0  0  0  0  0  0
    9.6000    8.5160   24.4320 C   0  0  0  0  0  0  0  0  0  0  0  0
   11.4670    8.8410   26.1280 C   0  0  0  0  0  0  0  0  0  0  0  0
    8.9000    9.6050   24.9560 C   0  0  0  0  0  0  0  0  0  0  0  0
   10.6910   10.0240   26.6810 C   0  0  0  0  0  0  0  0  0  0  0  0
    9.4570   10.4200   26.1440 C   0  0  0  0  0  0  0  0  0  0  0  0
  1  2  1  0
  2  3  2  0
  1  4  1  0
  1  5  1  0
  4  6  1  0
  5  7  2  0
  5  8  1  0
  2  9  1  0
  7 10  1  0
  6 11  1  0
  8 12  2  0
  7 13  1  0
  9 14  1  0
  9 15  1  0
 11 16  1  0
 12 17  1  0
 13 17  2  0
 14 18  1  0
 15 19  1  0
 18 20  1  0
 19 20  1  0
 16 21  1  0
 20 22  1  0
 21 23  2  0
 21 24  1  0
 22 25  2  0
 22 26  1  0
 23 27  1  0
 24 28  2  0
 27 29  1  0
 27 30  2  0
 28 30  1  0
 29 31  1  0
 31 32  2  0
 31 33  1  0
 33 34  1  0
 34 35  2  0
 34 36  1  0
 35 37  1  0
 36 38  2  0
 37 39  2  0
 38 39  1  0
 38 40  1  0
 39 41  1  0
 40 42  2  0
 41 43  2  0
 42 43  1  0
M  END
