x1358-x2705-x3117
     RDKit          3D

 49 53  0  0  0  0  0  0  0  0999 V2000
    7.6420   -1.4660   21.7670 N   0  0  0  0  0  0  0  0  0  0  0  0
    6.9900   -0.1960   21.6140 C   0  0  1  0  0  0  0  0  0  0  0  0
    8.0060    0.9430   21.8740 C   0  0  0  0  0  0  0  0  0  0  0  0
    8.8760   -1.4470   22.5410 C   0  0  0  0  0  0  0  0  0  0  0  0
    7.0350   -2.6540   22.2460 C   0  0  2  0  0  0  0  0  0  0  0  0
    6.3160    0.1890   20.2920 C   0  0  0  0  0  0  0  0  0  0  0  0
    8.8550   -1.5790   23.9070 N   0  0  0  0  0  0  0  0  0  0  0  0
   10.2570   -1.2960   21.8430 C   0  0  0  0  0  0  0  0  0  0  0  0
    6.7020   -3.7850   21.3260 N   0  0  0  0  0  0  0  0  0  0  0  0
    5.9510   -2.3850   23.0390 C   0  0  0  0  0  0  0  0  0  0  0  0
    7.4560    1.9910   22.6340 N   0  0  0  0  0  0  0  0  0  0  0  0
    9.1500    0.9810   21.4460 O   0  0  0  0  0  0  0  0  0  0  0  0
    6.2830   -3.6510   20.0030 C   0  0  0  0  0  0  0  0  0  0  0  0
    5.0880    0.8280   20.3680 C   0  0  0  0  0  0  0  0  0  0  0  0
    6.9420   -0.0730   19.0910 C   0  0  0  0  0  0  0  0  0  0  0  0
   10.2380   -1.5530   24.2900 N   0  0  0  0  0  0  0  0  0  0  0  0
   11.0190   -1.4040   23.1020 C   0  0  0  0  0  0  0  0  0  0  0  0
    5.4700   -3.5350   23.8830 C   0  0  2  0  0  0  0  0  0  0  0  0
    6.4390   -5.0640   22.0150 C   0  0  0  0  0  0  0  0  0  0  0  0
   12.5180   -1.3630   23.1750 C   0  0  0  0  0  0  0  0  0  0  0  0
    5.1860   -4.0580   19.6460 O   0  0  0  0  0  0  0  0  0  0  0  0
    5.5770   -3.2960   25.3990 C   0  0  0  0  0  0  0  0  0  0  0  0
    7.2970   -3.0620   19.0430 C   0  0  0  0  0  0  0  0  0  0  0  0
    6.4490    0.2640   17.8830 N   0  0  0  0  0  0  0  0  0  0  0  0
    4.4470    1.2490   19.0710 C   0  0  0  0  0  0  0  0  0  0  0  0
    8.1210    3.3110   22.8400 C   0  0  0  0  0  0  0  0  0  0  0  0
    6.0850   -4.8780   23.4910 C   0  0  0  0  0  0  0  0  0  0  0  0
   12.8930    0.0070   23.6950 C   0  0  0  0  0  0  0  0  0  0  0  0
   13.0120   -2.6030   23.8230 C   0  0  0  0  0  0  0  0  0  0  0  0
   13.0370   -1.6110   21.7090 C   0  0  0  0  0  0  0  0  0  0  0  0
    6.6010   -2.4830   25.8480 N   0  0  0  0  0  0  0  0  0  0  0  0
    4.6080   -3.9080   26.2600 O   0  0  0  0  0  0  0  0  0  0  0  0
    5.1270    0.9700   17.9060 C   0  0  0  0  0  0  0  0  0  0  0  0
    9.4640    3.3600   23.4700 C   0  0  0  0  0  0  0  0  0  0  0  0
    7.5730    4.5170   22.4780 C   0  0  0  0  0  0  0  0  0  0  0  0
   10.2230    2.1140   23.9320 C   0  0  0  0  0  0  0  0  0  0  0  0
    6.2120    4.5790   21.8250 C   0  0  0  0  0  0  0  0  0  0  0  0
   13.0690   -2.5650   25.3020 C   0  0  0  0  0  0  0  0  0  0  0  0
   10.0790    4.7140   23.6460 C   0  0  0  0  0  0  0  0  0  0  0  0
    8.2310    5.7440   22.6840 C   0  0  0  0  0  0  0  0  0  0  0  0
    6.5920   -1.4880   26.9160 C   0  0  0  0  0  0  0  0  0  0  0  0
    9.4120    1.2780   24.8000 C   0  0  0  0  0  0  0  0  0  0  0  0
    9.5990    6.1300   23.2980 C   0  0  0  0  0  0  0  0  0  0  0  0
    5.9960   -0.2560   26.5800 C   0  0  0  0  0  0  0  0  0  0  0  0
    7.1490   -1.6670   28.2960 C   0  0  0  0  0  0  0  0  0  0  0  0
    5.4910   -0.1380   25.3100 O   0  0  0  0  0  0  0  0  0  0  0  0
    7.0900   -0.5550   29.3140 C   0  0  0  0  0  0  0  0  0  0  0  0
    5.8950    0.8280   27.4580 C   0  0  0  0  0  0  0  0  0  0  0  0
    6.4320    0.7300   28.8480 C   0  0  0  0  0  0  0  0  0  0  0  0
  1  2  1  0
  2  3  1  6
  1  4  1  0
  5  1  1  6
  2  6  1  0
  4  7  2  0
  4  8  1  0
  5  9  1  0
  5 10  1  0
  3 11  1  0
  3 12  2  0
  9 13  1  0
  6 14  2  0
  6 15  1  0
  7 16  1  0
  8 17  2  0
 16 17  1  0
 10 18  1  0
  9 19  1  0
 17 20  1  0
 13 21  2  0
 18 22  1  1
 13 23  1  0
 15 24  2  0
 14 25  1  0
 11 26  1  0
 18 27  1  0
 19 27  1  0
 20 28  1  0
 20 29  1  0
 20 30  1  0
 22 31  1  0
 22 32  2  0
 24 33  1  0
 25 33  2  0
 26 34  2  0
 26 35  1  0
 34 36  1  0
 35 37  1  0
 29 38  1  0
 34 39  1  0
 35 40  2  0
 31 41  1  0
 36 42  1  0
 39 43  2  0
 40 43  1  0
 41 44  2  0
 41 45  1  0
 44 46  1  0
 45 47  2  0
 44 48  1  0
 47 49  1  0
 48 49  2  0
M  END
