x1351-x2703
     RDKit          3D

 47 51  0  0  0  0  0  0  0  0999 V2000
    7.5220   -1.6830   21.6380 N   0  0  0  0  0  0  0  0  0  0  0  0
    6.8500   -0.2890   21.6820 C   0  0  1  0  0  0  0  0  0  0  0  0
    7.8850    0.8580   21.9830 C   0  0  0  0  0  0  0  0  0  0  0  0
    8.6890   -1.6560   22.3920 C   0  0  0  0  0  0  0  0  0  0  0  0
    6.9170   -2.8840   22.2270 C   0  0  2  0  0  0  0  0  0  0  0  0
    6.1960    0.1830   20.3800 C   0  0  0  0  0  0  0  0  0  0  0  0
    8.6610   -1.2010   23.6450 C   0  0  0  0  0  0  0  0  0  0  0  0
   10.0180   -2.1280   21.9070 C   0  0  0  0  0  0  0  0  0  0  0  0
    6.3390   -3.8900   21.5280 N   0  0  0  0  0  0  0  0  0  0  0  0
    6.1200   -2.5230   23.2710 C   0  0  0  0  0  0  0  0  0  0  0  0
    7.4070    1.9690   22.6850 N   0  0  0  0  0  0  0  0  0  0  0  0
    9.0480    0.8280   21.5890 O   0  0  0  0  0  0  0  0  0  0  0  0
    6.0820   -3.8310   20.1780 C   0  0  0  0  0  0  0  0  0  0  0  0
    4.9810    0.8520   20.3440 C   0  0  0  0  0  0  0  0  0  0  0  0
    6.8530   -0.0060   18.9930 C   0  0  0  0  0  0  0  0  0  0  0  0
   11.1890   -2.1170   22.5960 N   0  0  0  0  0  0  0  0  0  0  0  0
    9.8860   -1.1600   24.4680 C   0  0  0  0  0  0  0  0  0  0  0  0
    6.1480   -3.4890   24.2400 C   0  0  1  0  0  0  0  0  0  0  0  0
    6.0070   -5.0910   22.3360 C   0  0  0  0  0  0  0  0  0  0  0  0
    7.0220   -3.1470   19.1930 C   0  0  0  0  0  0  0  0  0  0  0  0
    5.0850   -4.4060   19.7800 O   0  0  0  0  0  0  0  0  0  0  0  0
    5.4210   -2.9090   25.3590 N   0  0  0  0  0  0  0  0  0  0  0  0
    6.3520    0.4380   17.8170 N   0  0  0  0  0  0  0  0  0  0  0  0
    4.3680    1.3680   19.0750 C   0  0  0  0  0  0  0  0  0  0  0  0
   11.1670   -1.6470   23.8460 C   0  0  0  0  0  0  0  0  0  0  0  0
    8.0580    3.1520   22.8490 C   0  0  0  0  0  0  0  0  0  0  0  0
    5.4570   -4.7770   23.7330 C   0  0  0  0  0  0  0  0  0  0  0  0
   12.4490   -1.5920   24.5710 C   0  0  0  0  0  0  0  0  0  0  0  0
    6.0830   -2.6150   26.4930 C   0  0  0  0  0  0  0  0  0  0  0  0
    5.0860    1.1610   17.7610 C   0  0  0  0  0  0  0  0  0  0  0  0
    9.4170    3.2420   23.5400 C   0  0  0  0  0  0  0  0  0  0  0  0
    7.4520    4.3250   22.3610 C   0  0  0  0  0  0  0  0  0  0  0  0
   10.1050    1.9990   24.0970 C   0  0  0  0  0  0  0  0  0  0  0  0
    6.1080    4.2850   21.6790 C   0  0  0  0  0  0  0  0  0  0  0  0
   12.9690   -2.8440   24.8710 C   0  0  0  0  0  0  0  0  0  0  0  0
   13.2180   -0.7930   23.5800 C   0  0  0  0  0  0  0  0  0  0  0  0
    6.7320   -3.6210   27.2620 O   0  0  0  0  0  0  0  0  0  0  0  0
   10.0460    4.4800   23.6770 C   0  0  0  0  0  0  0  0  0  0  0  0
    8.1000    5.5660   22.5090 C   0  0  0  0  0  0  0  0  0  0  0  0
    6.0900   -1.2210   27.0030 C   0  0  0  0  0  0  0  0  0  0  0  0
    9.1050    1.4100   25.1210 C   0  0  0  0  0  0  0  0  0  0  0  0
    9.3520    5.7170   23.1300 C   0  0  0  0  0  0  0  0  0  0  0  0
    6.8660   -0.8750   28.1290 C   0  0  0  0  0  0  0  0  0  0  0  0
    5.2210   -0.1650   26.2830 C   0  0  0  0  0  0  0  0  0  0  0  0
    6.8520    0.5580   28.6610 C   0  0  0  0  0  0  0  0  0  0  0  0
    5.1800    1.1640   26.7390 C   0  0  0  0  0  0  0  0  0  0  0  0
    5.9860    1.6080   27.9520 C   0  0  0  0  0  0  0  0  0  0  0  0
  1  2  1  0
  2  3  1  6
  1  4  1  0
  5  1  1  6
  2  6  1  0
  4  7  2  0
  4  8  1  0
  5  9  1  0
  5 10  1  0
  3 11  1  0
  3 12  2  0
  9 13  1  0
  6 14  2  0
  6 15  1  0
  8 16  2  0
  7 17  1  0
 10 18  1  0
  9 19  1  0
 13 20  1  0
 13 21  2  0
 18 22  1  1
 15 23  2  0
 14 24  1  0
 16 25  1  0
 17 25  2  0
 11 26  1  0
 18 27  1  0
 19 27  1  0
 25 28  1  0
 22 29  1  0
 23 30  1  0
 24 30  2  0
 26 31  2  0
 26 32  1  0
 31 33  1  0
 32 34  1  0
 28 35  1  0
 28 36  1  0
 29 37  2  0
 31 38  1  0
 32 39  2  0
 29 40  1  0
 33 41  1  0
 38 42  2  0
 39 42  1  0
 40 43  2  0
 40 44  1  0
 43 45  1  0
 44 46  2  0
 45 47  2  0
 46 47  1  0
M  END
