x1358-x0107
     RDKit          3D

 32 34  0  0  0  0  0  0  0  0999 V2000
    6.8480   -2.4910   25.9910 N   0  0  0  0  0  0  0  0  0  0  0  0
    5.9000   -3.2760   25.2120 C   0  0  0  0  0  0  0  0  0  0  0  0
    4.7100   -3.5370   25.3910 O   0  0  0  0  0  0  0  0  0  0  0  0
    6.6700   -1.5030   26.9720 C   0  0  0  0  0  0  0  0  0  0  0  0
    5.9530   -0.3530   26.6490 C   0  0  0  0  0  0  0  0  0  0  0  0
    7.1880   -1.5920   28.2940 C   0  0  0  0  0  0  0  0  0  0  0  0
    6.4850   -3.8920   23.9370 C   0  0  0  0  0  0  0  0  0  0  0  0
    5.4270   -0.2310   25.3820 O   0  0  0  0  0  0  0  0  0  0  0  0
    6.9980   -0.5100   29.3270 C   0  0  0  0  0  0  0  0  0  0  0  0
    5.7580    0.6710   27.5850 C   0  0  0  0  0  0  0  0  0  0  0  0
    6.9710   -2.8670   23.1320 C   0  0  0  0  0  0  0  0  0  0  0  0
    5.5930   -4.7770   23.3240 C   0  0  0  0  0  0  0  0  0  0  0  0
    6.2510    0.3620   24.3720 C   0  0  0  0  0  0  0  0  0  0  0  0
    6.2610    0.5900   28.8600 C   0  0  0  0  0  0  0  0  0  0  0  0
    7.6020   -3.3710   22.0210 C   0  0  0  0  0  0  0  0  0  0  0  0
    6.0250   -5.3360   22.1180 C   0  0  0  0  0  0  0  0  0  0  0  0
    5.7150   -0.0580   22.9830 C   0  0  0  0  0  0  0  0  0  0  0  0
    6.6770   -4.2770   21.3280 N   0  0  0  0  0  0  0  0  0  0  0  0
    6.2170   -3.9120   20.0680 C   0  0  0  0  0  0  0  0  0  0  0  0
    5.4890    1.1270   22.0300 C   0  0  0  0  0  0  0  0  0  0  0  0
    5.0970   -4.2250   19.7140 O   0  0  0  0  0  0  0  0  0  0  0  0
    7.1900   -3.1970   19.1500 C   0  0  0  0  0  0  0  0  0  0  0  0
    5.8480    0.7670   20.5940 C   0  0  0  0  0  0  0  0  0  0  0  0
    6.9920    0.0630   20.1930 C   0  0  0  0  0  0  0  0  0  0  0  0
    4.9470    1.1930   19.6310 C   0  0  0  0  0  0  0  0  0  0  0  0
    7.9710   -0.4060   21.0710 N   0  0  0  0  0  0  0  0  0  0  0  0
    5.1770    0.9270   18.2980 C   0  0  0  0  0  0  0  0  0  0  0  0
    7.1110   -0.1530   18.8210 C   0  0  0  0  0  0  0  0  0  0  0  0
    9.0470    0.2520   21.6240 C   0  0  0  0  0  0  0  0  0  0  0  0
    6.2450    0.2590   17.8720 N   0  0  0  0  0  0  0  0  0  0  0  0
    9.8470   -0.5350   22.4540 C   0  0  0  0  0  0  0  0  0  0  0  0
    9.2370    1.4470   21.3360 O   0  0  0  0  0  0  0  0  0  0  0  0
  1  2  1  0
  2  3  2  0
  1  4  1  0
  4  5  1  0
  4  6  2  0
  2  7  1  0
  5  8  1  0
  6  9  1  0
  5 10  2  0
  7 11  1  0
  7 12  1  0
  8 13  1  0
  9 14  2  0
 10 14  1  0
 11 15  1  0
 12 16  1  0
 13 17  1  0
 15 18  1  0
 16 18  1  0
 18 19  1  0
 17 20  1  0
 19 21  2  0
 19 22  1  0
 20 23  1  0
 23 24  2  0
 23 25  1  0
 24 26  1  0
 25 27  2  0
 24 28  1  0
 26 29  1  0
 27 30  1  0
 28 30  2  0
 29 31  1  0
 29 32  2  0
M  END
