x1358-x2600
     RDKit          3D

 38 41  0  0  0  0  0  0  0  0999 V2000
    6.9320   -2.8170   26.1560 N   0  0  0  0  0  0  0  0  0  0  0  0
    5.9760   -3.3040   25.1710 C   0  0  0  0  0  0  0  0  0  0  0  0
    4.7600   -3.1400   25.2070 O   0  0  0  0  0  0  0  0  0  0  0  0
    6.8500   -1.7000   27.0070 C   0  0  0  0  0  0  0  0  0  0  0  0
    6.0380   -0.4390   26.6220 C   0  0  0  0  0  0  0  0  0  0  0  0
    7.5180   -1.5900   28.3590 C   0  0  0  0  0  0  0  0  0  0  0  0
    6.6060   -4.1040   24.0310 C   0  0  2  0  0  0  0  0  0  0  0  0
    5.3950   -0.4280   25.4110 O   0  0  0  0  0  0  0  0  0  0  0  0
    7.3820   -0.4290   29.1660 C   0  0  0  0  0  0  0  0  0  0  0  0
    5.9420    0.6760   27.4620 C   0  0  0  0  0  0  0  0  0  0  0  0
    7.4800   -3.2820   23.3020 C   0  0  0  0  0  0  0  0  0  0  0  0
    5.6210   -4.7260   23.1790 C   0  0  0  0  0  0  0  0  0  0  0  0
    6.5770    0.7970   28.7750 C   0  0  0  0  0  0  0  0  0  0  0  0
    7.2420   -2.8390   22.0040 C   0  0  2  0  0  0  0  0  0  0  0  0
    6.1770   -5.0440   21.9580 C   0  0  0  0  0  0  0  0  0  0  0  0
    6.4260   -1.5190   21.8830 C   0  0  0  0  0  0  0  0  0  0  0  0
    6.6140   -3.9560   21.2970 N   0  0  0  0  0  0  0  0  0  0  0  0
    6.1830   -3.7930   20.0210 C   0  0  0  0  0  0  0  0  0  0  0  0
    7.0730   -0.4150   21.1200 N   0  0  0  0  0  0  0  0  0  0  0  0
    5.0900   -4.1970   19.6760 O   0  0  0  0  0  0  0  0  0  0  0  0
    7.1610   -3.1330   19.0610 C   0  0  0  0  0  0  0  0  0  0  0  0
    8.1890    0.3250   21.6850 C   0  0  0  0  0  0  0  0  0  0  0  0
    6.4370    0.1810   20.0020 C   0  0  0  0  0  0  0  0  0  0  0  0
    8.7190    1.3400   21.1850 O   0  0  0  0  0  0  0  0  0  0  0  0
    8.7370   -0.2340   23.0330 C   0  0  0  0  0  0  0  0  0  0  0  0
    6.8950    0.0270   18.7210 C   0  0  0  0  0  0  0  0  0  0  0  0
    5.2980    0.9700   20.1980 C   0  0  0  0  0  0  0  0  0  0  0  0
    6.2390    0.6610   17.6020 N   0  0  0  0  0  0  0  0  0  0  0  0
    4.6530    1.5860   19.1490 C   0  0  0  0  0  0  0  0  0  0  0  0
   10.2140   -0.2590   22.9900 C   0  0  0  0  0  0  0  0  0  0  0  0
    5.1600    1.4080   17.8740 C   0  0  0  0  0  0  0  0  0  0  0  0
   10.9320    0.7080   23.6810 C   0  0  0  0  0  0  0  0  0  0  0  0
   10.8380   -1.2380   22.2540 C   0  0  0  0  0  0  0  0  0  0  0  0
   12.3440    0.7670   23.6800 C   0  0  0  0  0  0  0  0  0  0  0  0
   12.3570   -1.2940   22.1680 C   0  0  0  0  0  0  0  0  0  0  0  0
   13.0150   -2.2820   21.4110 C   0  0  0  0  0  0  0  0  0  0  0  0
   12.9900   -0.2070   22.9460 C   0  0  0  0  0  0  0  0  0  0  0  0
   13.5700   -3.2770   20.6590 N   0  0  0  0  0  0  0  0  0  0  0  0
  1  2  1  0
  2  3  2  0
  1  4  1  0
  4  5  2  0
  4  6  1  0
  7  2  1  1
  5  8  1  0
  6  9  2  0
  5 10  1  0
  7 11  1  0
  7 12  1  0
  9 13  1  0
 10 13  2  0
 11 14  1  0
 12 15  1  0
 14 16  1  1
 14 17  1  0
 15 17  1  0
 17 18  1  0
 16 19  1  0
 18 20  2  0
 18 21  1  0
 19 22  1  0
 19 23  1  0
 22 24  2  0
 22 25  1  0
 23 26  2  0
 23 27  1  0
 26 28  1  0
 27 29  2  0
 25 30  1  0
 28 31  2  0
 29 31  1  0
 30 32  2  0
 30 33  1  0
 32 34  1  0
 33 35  2  0
 35 36  1  0
 34 37  2  0
 35 37  1  0
 36 38  3  0
M  END
