x1351-x0434
     RDKit          3D

 35 38  0  0  0  0  0  0  0  0999 V2000
    6.9760   -3.2760   19.2600 C   0  0  0  0  0  0  0  0  0  0  0  0
    6.1050   -4.0910   20.2760 C   0  0  0  0  0  0  0  0  0  0  0  0
    5.1530   -4.7460   19.9050 O   0  0  0  0  0  0  0  0  0  0  0  0
    6.4630   -4.1020   21.5990 N   0  0  0  0  0  0  0  0  0  0  0  0
    7.2330   -2.9880   22.1650 C   0  0  1  0  0  0  0  0  0  0  0  0
    6.2710   -5.1970   22.3860 C   0  0  0  0  0  0  0  0  0  0  0  0
    6.3970   -1.7250   21.8810 C   0  0  0  0  0  0  0  0  0  0  0  0
    7.2920   -3.2100   23.5170 C   0  0  0  0  0  0  0  0  0  0  0  0
    5.4840   -4.6670   23.5940 C   0  0  0  0  0  0  0  0  0  0  0  0
    7.1410   -0.7430   21.0990 N   0  0  0  0  0  0  0  0  0  0  0  0
    6.0110   -3.4500   24.0240 C   0  0  1  0  0  0  0  0  0  0  0  0
    6.1270   -3.5780   25.5080 N   0  0  0  0  0  0  0  0  0  0  0  0
    8.4220   -0.2930   21.5990 C   0  0  0  0  0  0  0  0  0  0  0  0
    6.4660   -0.0060   20.0700 C   0  0  0  0  0  0  0  0  0  0  0  0
    6.4970   -2.4170   26.3140 C   0  0  0  0  0  0  0  0  0  0  0  0
    8.8550    0.8130   21.2980 O   0  0  0  0  0  0  0  0  0  0  0  0
    9.0910   -0.9390   22.2900 N   0  0  0  0  0  0  0  0  0  0  0  0
    5.3070    0.7320   20.3260 C   0  0  0  0  0  0  0  0  0  0  0  0
    6.9680   -0.0200   18.7930 C   0  0  0  0  0  0  0  0  0  0  0  0
    7.8200   -2.7220   26.7490 O   0  0  0  0  0  0  0  0  0  0  0  0
    6.3520   -1.0740   26.9760 C   0  0  0  0  0  0  0  0  0  0  0  0
   10.4720   -0.5980   22.5730 C   0  0  0  0  0  0  0  0  0  0  0  0
    4.5490    1.5440   19.2710 C   0  0  0  0  0  0  0  0  0  0  0  0
    6.3930    0.6950   17.6430 N   0  0  0  0  0  0  0  0  0  0  0  0
    7.1120   -0.7350   28.1160 C   0  0  0  0  0  0  0  0  0  0  0  0
    5.4380   -0.1590   26.4350 C   0  0  0  0  0  0  0  0  0  0  0  0
   10.6370    0.5260   23.3660 C   0  0  0  0  0  0  0  0  0  0  0  0
   11.5660   -1.3130   22.0900 C   0  0  0  0  0  0  0  0  0  0  0  0
    5.1740    1.4950   17.8460 C   0  0  0  0  0  0  0  0  0  0  0  0
    6.9690    0.6490   28.8140 C   0  0  0  0  0  0  0  0  0  0  0  0
    5.1910    1.1120   26.9360 C   0  0  0  0  0  0  0  0  0  0  0  0
   11.9060    0.9400   23.6630 C   0  0  0  0  0  0  0  0  0  0  0  0
   12.8470   -0.8800   22.4000 C   0  0  0  0  0  0  0  0  0  0  0  0
    5.9560    1.5800   28.1650 C   0  0  0  0  0  0  0  0  0  0  0  0
   12.9780    0.2160   23.1590 C   0  0  0  0  0  0  0  0  0  0  0  0
  1  2  1  0
  2  3  2  0
  2  4  1  0
  4  5  1  0
  4  6  1  0
  5  7  1  1
  5  8  1  0
  6  9  1  0
  7 10  1  0
  8 11  1  0
  9 11  1  0
 11 12  1  1
 10 13  1  0
 10 14  1  0
 12 15  1  0
 13 16  2  0
 13 17  1  0
 14 18  2  0
 14 19  1  0
 15 20  2  0
 15 21  1  0
 17 22  1  0
 18 23  1  0
 19 24  2  0
 21 25  2  0
 21 26  1  0
 22 27  2  0
 22 28  1  0
 23 29  2  0
 24 29  1  0
 25 30  1  0
 26 31  2  0
 27 32  1  0
 28 33  2  0
 30 34  2  0
 31 34  1  0
 32 35  2  0
 33 35  1  0
M  END
