x1358-x2563
     RDKit          3D

 40 44  0  0  0  0  0  0  0  0999 V2000
    6.9390   -2.7110   26.0200 N   0  0  0  0  0  0  0  0  0  0  0  0
    5.8840   -3.3240   25.2210 C   0  0  0  0  0  0  0  0  0  0  0  0
    4.6740   -3.2240   25.4370 O   0  0  0  0  0  0  0  0  0  0  0  0
    6.8600   -1.6590   26.9530 C   0  0  0  0  0  0  0  0  0  0  0  0
    6.0080   -0.4320   26.6110 C   0  0  0  0  0  0  0  0  0  0  0  0
    7.5830   -1.6910   28.2760 C   0  0  0  0  0  0  0  0  0  0  0  0
    6.4600   -4.1520   24.0590 C   0  0  2  0  0  0  0  0  0  0  0  0
    5.3370   -0.3680   25.4170 O   0  0  0  0  0  0  0  0  0  0  0  0
    7.3560   -0.4560   29.1180 C   0  0  0  0  0  0  0  0  0  0  0  0
    5.8800    0.6490   27.4820 C   0  0  0  0  0  0  0  0  0  0  0  0
    7.4330   -3.4740   23.3050 C   0  0  0  0  0  0  0  0  0  0  0  0
    5.5060   -4.6290   23.2220 C   0  0  0  0  0  0  0  0  0  0  0  0
    6.5250    0.6180   28.6630 C   0  0  0  0  0  0  0  0  0  0  0  0
    7.2140   -3.0830   22.0350 C   0  0  2  0  0  0  0  0  0  0  0  0
    6.1700   -5.1960   22.0800 C   0  0  0  0  0  0  0  0  0  0  0  0
    6.5660   -1.7280   21.7920 C   0  0  0  0  0  0  0  0  0  0  0  0
    6.6900   -4.0830   21.3170 N   0  0  0  0  0  0  0  0  0  0  0  0
    6.1890   -3.9260   20.0310 C   0  0  0  0  0  0  0  0  0  0  0  0
    7.2250   -0.8970   20.7150 C   0  0  2  0  0  0  0  0  0  0  0  0
    5.0940   -4.3520   19.7400 O   0  0  0  0  0  0  0  0  0  0  0  0
    7.0990   -3.2510   19.0080 C   0  0  0  0  0  0  0  0  0  0  0  0
    8.2390   -0.2020   21.2690 C   0  0  0  0  0  0  0  0  0  0  0  0
    6.4140   -0.0210   19.8130 C   0  0  0  0  0  0  0  0  0  0  0  0
    8.3610    1.0090   21.0640 O   0  0  0  0  0  0  0  0  0  0  0  0
    9.0510   -0.9760   22.0280 N   0  0  0  0  0  0  0  0  0  0  0  0
    5.2760    0.6570   20.1590 C   0  0  0  0  0  0  0  0  0  0  0  0
    6.8950    0.0720   18.5670 C   0  0  0  0  0  0  0  0  0  0  0  0
    6.3490    0.7980   17.5890 N   0  0  0  0  0  0  0  0  0  0  0  0
    4.6200    1.4450   19.2200 C   0  0  0  0  0  0  0  0  0  0  0  0
    4.7110    0.6070   21.4440 C   0  0  0  0  0  0  0  0  0  0  0  0
   10.0610   -0.3860   22.6880 C   0  0  0  0  0  0  0  0  0  0  0  0
    5.0860    1.5780   17.9070 C   0  0  0  0  0  0  0  0  0  0  0  0
    3.4540    2.1480   19.5550 C   0  0  0  0  0  0  0  0  0  0  0  0
    3.5390    1.3160   21.7720 C   0  0  0  0  0  0  0  0  0  0  0  0
   11.4010   -0.6900   22.4890 C   0  0  0  0  0  0  0  0  0  0  0  0
    9.6100    0.5750   23.5760 C   0  0  0  0  0  0  0  0  0  0  0  0
    2.8660    2.1180   20.8270 C   0  0  0  0  0  0  0  0  0  0  0  0
   12.3700   -0.0170   23.1760 C   0  0  0  0  0  0  0  0  0  0  0  0
   10.5090    1.2800   24.2890 C   0  0  0  0  0  0  0  0  0  0  0  0
   11.9750    0.9470   24.0510 C   0  0  0  0  0  0  0  0  0  0  0  0
  1  2  1  0
  2  3  2  0
  1  4  1  0
  4  5  2  0
  4  6  1  0
  7  2  1  1
  5  8  1  0
  6  9  2  0
  5 10  1  0
  7 11  1  0
  7 12  1  0
  9 13  1  0
 10 13  2  0
 11 14  1  0
 12 15  1  0
 14 16  1  1
 14 17  1  0
 15 17  1  0
 17 18  1  0
 19 16  1  1
 18 20  2  0
 18 21  1  0
 19 22  1  0
 19 23  1  0
 22 24  2  0
 22 25  1  0
 23 26  1  0
 23 27  2  0
 27 28  1  0
 26 29  2  0
 26 30  1  0
 25 31  1  0
 28 32  2  0
 29 32  1  0
 29 33  1  0
 30 34  2  0
 31 35  2  0
 31 36  1  0
 33 37  2  0
 34 37  1  0
 35 38  1  0
 36 39  2  0
 38 40  2  0
 39 40  1  0
M  END
