x1358-x2608
     RDKit          3D

 36 39  0  0  0  0  0  0  0  0999 V2000
    6.9070   -2.7120   25.9630 N   0  0  0  0  0  0  0  0  0  0  0  0
    5.8220   -3.3920   25.2590 C   0  0  0  0  0  0  0  0  0  0  0  0
    4.7500   -3.7170   25.7560 O   0  0  0  0  0  0  0  0  0  0  0  0
    6.7890   -1.7190   26.9560 C   0  0  0  0  0  0  0  0  0  0  0  0
    5.9260   -0.4910   26.6620 C   0  0  0  0  0  0  0  0  0  0  0  0
    7.4660   -1.7930   28.2970 C   0  0  0  0  0  0  0  0  0  0  0  0
    6.1220   -3.6660   23.7830 C   0  0  1  0  0  0  0  0  0  0  0  0
    5.2930   -0.3730   25.4540 O   0  0  0  0  0  0  0  0  0  0  0  0
    7.1940   -0.6030   29.2050 C   0  0  0  0  0  0  0  0  0  0  0  0
    5.7550    0.5360   27.5800 C   0  0  0  0  0  0  0  0  0  0  0  0
    7.2830   -3.0840   23.3320 C   0  0  0  0  0  0  0  0  0  0  0  0
    6.3150   -4.9720   23.4920 C   0  0  0  0  0  0  0  0  0  0  0  0
    6.3510    0.4990   28.7950 C   0  0  0  0  0  0  0  0  0  0  0  0
    7.1410   -2.8310   22.0450 C   0  0  2  0  0  0  0  0  0  0  0  0
    6.2540   -5.1510   22.0380 C   0  0  0  0  0  0  0  0  0  0  0  0
    6.3790   -1.5490   21.6740 C   0  0  0  0  0  0  0  0  0  0  0  0
    6.5740   -3.9970   21.3750 N   0  0  0  0  0  0  0  0  0  0  0  0
    6.1490   -3.9110   20.0900 C   0  0  0  0  0  0  0  0  0  0  0  0
    7.0020   -0.6380   20.8880 N   0  0  0  0  0  0  0  0  0  0  0  0
    5.0910   -4.3950   19.7570 O   0  0  0  0  0  0  0  0  0  0  0  0
    7.0840   -3.2040   19.1060 C   0  0  0  0  0  0  0  0  0  0  0  0
    8.1400    0.0100   21.4180 C   0  0  0  0  0  0  0  0  0  0  0  0
    6.3020    0.0500   19.9440 C   0  0  0  0  0  0  0  0  0  0  0  0
    8.8290   -0.7380   22.4770 N   0  0  0  0  0  0  0  0  0  0  0  0
    8.5760    1.1280   21.0530 O   0  0  0  0  0  0  0  0  0  0  0  0
    6.7200    0.0910   18.6370 C   0  0  0  0  0  0  0  0  0  0  0  0
    5.1410    0.7280   20.3440 C   0  0  0  0  0  0  0  0  0  0  0  0
   10.1470   -0.2850   22.6290 C   0  0  0  0  0  0  0  0  0  0  0  0
    6.1090    0.7480   17.6610 N   0  0  0  0  0  0  0  0  0  0  0  0
    4.4400    1.4640   19.3140 C   0  0  0  0  0  0  0  0  0  0  0  0
   11.3080   -1.0400   22.7400 C   0  0  0  0  0  0  0  0  0  0  0  0
   10.4880    1.4060   22.6810 S   0  0  0  0  0  0  0  0  0  0  0  0
    4.9930    1.4210   18.0320 C   0  0  0  0  0  0  0  0  0  0  0  0
   12.1260    1.1110   22.8060 C   0  0  0  0  0  0  0  0  0  0  0  0
   12.4090   -0.2380   22.8420 C   0  0  0  0  0  0  0  0  0  0  0  0
   12.9360    2.1180   22.8370 C   0  0  0  0  0  0  0  0  0  0  0  0
  1  2  1  0
  2  3  2  0
  1  4  1  0
  4  5  2  0
  4  6  1  0
  7  2  1  1
  5  8  1  0
  6  9  2  0
  5 10  1  0
  7 11  1  0
  7 12  1  0
  9 13  1  0
 10 13  2  0
 11 14  1  0
 12 15  1  0
 14 16  1  1
 14 17  1  0
 15 17  1  0
 17 18  1  0
 16 19  1  0
 18 20  2  0
 18 21  1  0
 19 22  1  0
 19 23  1  0
 22 24  1  0
 22 25  2  0
 23 26  2  0
 23 27  1  0
 24 28  1  0
 26 29  1  0
 27 30  2  0
 28 31  2  0
 28 32  1  0
 29 33  2  0
 30 33  1  0
 32 34  1  0
 31 35  1  0
 34 35  2  0
 34 36  1  0
M  END
