x1351-x2694-x0540
     RDKit          3D

 60 65  0  0  0  0  0  0  0  0999 V2000
    7.6580   -0.8240   21.7360 N   0  0  0  0  0  0  0  0  0  0  0  0
    7.1280    0.4120   21.6410 C   0  0  1  0  0  0  0  0  0  0  0  0
    8.1760    1.5170   21.7620 C   0  0  0  0  0  0  0  0  0  0  0  0
    6.6530   -1.8090   21.8360 C   0  0  0  0  0  0  0  0  0  0  0  0
    8.8120   -1.0250   22.5860 C   0  0  0  0  0  0  0  0  0  0  0  0
    6.3260    0.5930   20.3940 C   0  0  0  0  0  0  0  0  0  0  0  0
    8.9090   -1.1110   23.9880 N   0  0  0  0  0  0  0  0  0  0  0  0
   10.1790   -1.1800   22.1330 C   0  0  0  0  0  0  0  0  0  0  0  0
    7.2140   -3.1500   22.3080 C   0  0  2  0  0  0  0  0  0  0  0  0
    7.8830    2.4220   22.7800 N   0  0  0  0  0  0  0  0  0  0  0  0
    9.1460    1.6270   21.0570 O   0  0  0  0  0  0  0  0  0  0  0  0
    4.9030    1.0280   20.3250 C   0  0  0  0  0  0  0  0  0  0  0  0
    6.8760    0.3530   19.0020 C   0  0  0  0  0  0  0  0  0  0  0  0
   10.2670   -1.3020   24.3160 O   0  0  0  0  0  0  0  0  0  0  0  0
   11.0220   -1.3370   23.1780 C   0  0  0  0  0  0  0  0  0  0  0  0
    6.6190   -4.3040   21.6110 N   0  0  0  0  0  0  0  0  0  0  0  0
    6.9830   -3.2270   23.7840 C   0  0  0  0  0  0  0  0  0  0  0  0
   12.4920   -1.5100   23.2860 C   0  0  0  0  0  0  0  0  0  0  0  0
    4.1430    1.2780   21.5960 C   0  0  0  0  0  0  0  0  0  0  0  0
    6.1820   -4.1600   20.2920 C   0  0  0  0  0  0  0  0  0  0  0  0
    6.2850    0.5150   17.8440 N   0  0  0  0  0  0  0  0  0  0  0  0
    4.2440    1.2120   18.9810 C   0  0  0  0  0  0  0  0  0  0  0  0
    8.5660    3.6260   23.0210 C   0  0  0  0  0  0  0  0  0  0  0  0
    5.6790   -3.5400   24.0330 C   0  0  2  0  0  0  0  0  0  0  0  0
    6.0430   -5.3580   22.4710 C   0  0  0  0  0  0  0  0  0  0  0  0
   13.0110   -0.2000   23.4780 C   0  0  0  0  0  0  0  0  0  0  0  0
   12.9960   -1.9920   22.0980 C   0  0  0  0  0  0  0  0  0  0  0  0
   12.9340   -2.4440   24.4400 C   0  0  0  0  0  0  0  0  0  0  0  0
    4.9160    2.1880   22.5480 C   0  0  0  0  0  0  0  0  0  0  0  0
    7.0410   -3.3310   19.3290 C   0  0  0  0  0  0  0  0  0  0  0  0
    5.1710   -4.7080   19.9090 O   0  0  0  0  0  0  0  0  0  0  0  0
    5.2680   -3.1630   25.4030 N   0  0  0  0  0  0  0  0  0  0  0  0
    5.0210    0.9390   17.8650 C   0  0  0  0  0  0  0  0  0  0  0  0
    9.8700    3.5190   23.5940 C   0  0  0  0  0  0  0  0  0  0  0  0
    8.0560    4.8460   22.7370 C   0  0  0  0  0  0  0  0  0  0  0  0
    5.2990   -4.7720   23.5460 C   0  0  0  0  0  0  0  0  0  0  0  0
   10.3720    2.1280   23.8910 C   0  0  0  0  0  0  0  0  0  0  0  0
    3.9180    3.0290   22.9260 N   0  0  0  0  0  0  0  0  0  0  0  0
    6.1700   -2.6650   26.4490 C   0  0  0  0  0  0  0  0  0  0  0  0
   10.8920    4.6270   23.9780 C   0  0  0  0  0  0  0  0  0  0  0  0
    8.8950    6.0160   23.0520 C   0  0  0  0  0  0  0  0  0  0  0  0
    2.8300    2.5540   23.5780 C   0  0  0  0  0  0  0  0  0  0  0  0
    6.9710   -3.3920   26.9780 O   0  0  0  0  0  0  0  0  0  0  0  0
   10.1580    5.9190   23.6100 C   0  0  0  0  0  0  0  0  0  0  0  0
    6.0690   -1.2500   26.9400 C   0  0  0  0  0  0  0  0  0  0  0  0
   10.9410    7.0020   23.9160 O   0  0  0  0  0  0  0  0  0  0  0  0
    2.8410    1.4840   24.5320 O   0  0  0  0  0  0  0  0  0  0  0  0
    1.7420    3.2320   23.2020 N   0  0  0  0  0  0  0  0  0  0  0  0
    6.9390   -0.9260   28.2180 C   0  0  0  0  0  0  0  0  0  0  0  0
    5.2630   -0.3010   26.3220 C   0  0  0  0  0  0  0  0  0  0  0  0
   11.8440    6.8350   25.0070 C   0  0  0  0  0  0  0  0  0  0  0  0
    0.6040    3.3400   24.0960 C   0  0  0  0  0  0  0  0  0  0  0  0
    6.8410    0.5280   28.7610 C   0  0  0  0  0  0  0  0  0  0  0  0
    5.1660    1.0110   26.8000 C   0  0  0  0  0  0  0  0  0  0  0  0
    0.5400    4.6770   24.4880 C   0  0  0  0  0  0  0  0  0  0  0  0
   -0.5740    2.8350   23.3590 C   0  0  0  0  0  0  0  0  0  0  0  0
    5.9200    1.5220   28.0210 C   0  0  0  0  0  0  0  0  0  0  0  0
   -0.7860    4.9330   25.1940 C   0  0  0  0  0  0  0  0  0  0  0  0
   -1.8160    3.2550   23.5950 C   0  0  0  0  0  0  0  0  0  0  0  0
   -1.9560    4.6040   24.2440 C   0  0  0  0  0  0  0  0  0  0  0  0
  1  2  1  0
  2  3  1  6
  1  4  1  0
  1  5  1  0
  2  6  1  0
  5  7  2  0
  5  8  1  0
  9  4  1  6
  3 10  1  0
  3 11  2  0
  6 12  1  0
  6 13  2  0
  7 14  1  0
  8 15  2  0
 14 15  1  0
  9 16  1  0
  9 17  1  0
 15 18  1  0
 12 19  1  0
 16 20  1  0
 13 21  1  0
 12 22  2  0
 10 23  1  0
 17 24  1  0
 16 25  1  0
 18 26  1  0
 18 27  1  0
 18 28  1  0
 19 29  1  0
 20 30  1  0
 20 31  2  0
 24 32  1  1
 21 33  2  0
 22 33  1  0
 23 34  2  0
 23 35  1  0
 24 36  1  0
 25 36  1  0
 34 37  1  0
 29 38  1  0
 32 39  1  0
 34 40  1  0
 35 41  2  0
 38 42  1  0
 39 43  2  0
 40 44  2  0
 41 44  1  0
 39 45  1  0
 44 46  1  0
 42 47  2  0
 42 48  1  0
 45 49  2  0
 45 50  1  0
 46 51  1  0
 48 52  1  0
 49 53  1  0
 50 54  2  0
 52 55  1  0
 52 56  1  0
 53 57  2  0
 54 57  1  0
 55 58  1  0
 56 59  1  0
 58 60  1  0
 59 60  1  0
M  END
