x1351-x3298
     RDKit          3D

 48 53  0  0  0  0  0  0  0  0999 V2000
    6.9840    1.9620   22.2800 N   0  0  0  0  0  0  0  0  0  0  0  0
    7.8480    0.9840   21.6130 C   0  0  0  0  0  0  0  0  0  0  0  0
    7.2940   -0.4300   21.4270 C   0  0  1  0  0  0  0  0  0  0  0  0
    7.6990    3.0200   22.7540 C   0  0  0  0  0  0  0  0  0  0  0  0
    9.1270    1.3800   21.1090 O   0  0  0  0  0  0  0  0  0  0  0  0
    7.4120    4.4250   22.3910 C   0  0  0  0  0  0  0  0  0  0  0  0
    8.8280    2.6070   23.6460 C   0  0  0  0  0  0  0  0  0  0  0  0
    6.7010   -0.8970   22.4670 O   0  0  0  0  0  0  0  0  0  0  0  0
    9.0030    1.1650   23.9580 N   0  0  0  0  0  0  0  0  0  0  0  0
    6.4300   -0.0170   20.2830 C   0  0  0  0  0  0  0  0  0  0  0  0
    8.3090    5.5080   22.9330 C   0  0  0  0  0  0  0  0  0  0  0  0
    9.6150    3.6970   24.0760 C   0  0  0  0  0  0  0  0  0  0  0  0
   10.4950    0.6120   24.4420 S   0  0  1  0  0  0  0  0  0  0  0  0
    6.9460   -0.1720   19.0090 C   0  0  0  0  0  0  0  0  0  0  0  0
    5.1710    0.5380   20.4680 C   0  0  0  0  0  0  0  0  0  0  0  0
    9.4910    5.0910   23.8310 C   0  0  0  0  0  0  0  0  0  0  0  0
    6.3840   -2.3390   22.5520 C   0  0  1  0  0  0  0  0  0  0  0  0
   11.2740    1.7950   24.5260 O   0  0  0  0  0  0  0  0  0  0  0  0
   10.4180   -0.3820   25.7160 N   0  0  0  0  0  0  0  0  0  0  0  0
    6.3390    0.1910   17.8860 N   0  0  0  0  0  0  0  0  0  0  0  0
    4.3810    0.9740   19.4030 C   0  0  0  0  0  0  0  0  0  0  0  0
   11.3560   -0.2210   23.3410 C   0  0  0  0  0  0  0  0  0  0  0  0
    7.4130   -3.0150   21.9560 C   0  0  0  0  0  0  0  0  0  0  0  0
    6.3440   -2.9730   23.8230 C   0  0  1  0  0  0  0  0  0  0  0  0
    5.5990   -2.2940   24.8950 N   0  0  0  0  0  0  0  0  0  0  0  0
    9.4550    0.0160   26.6930 C   0  0  0  0  0  0  0  0  0  0  0  0
    5.0060    0.8020   17.9920 C   0  0  0  0  0  0  0  0  0  0  0  0
   12.5630    0.3430   23.1210 C   0  0  0  0  0  0  0  0  0  0  0  0
   10.8800   -1.4610   22.6610 C   0  0  0  0  0  0  0  0  0  0  0  0
    6.7520   -4.2190   21.5040 N   0  0  0  0  0  0  0  0  0  0  0  0
    5.6860   -4.2250   23.7030 C   0  0  0  0  0  0  0  0  0  0  0  0
    6.2320   -4.1210   20.2140 C   0  0  0  0  0  0  0  0  0  0  0  0
    6.3490   -1.5110   25.7280 C   0  0  0  0  0  0  0  0  0  0  0  0
    8.2160   -0.4960   26.6320 C   0  0  0  0  0  0  0  0  0  0  0  0
   13.3610   -0.2440   22.2450 C   0  0  0  0  0  0  0  0  0  0  0  0
   11.7160   -2.0530   21.7600 C   0  0  0  0  0  0  0  0  0  0  0  0
    6.1270   -5.0220   22.6160 C   0  0  0  0  0  0  0  0  0  0  0  0
    7.0600   -3.3360   19.2090 C   0  0  0  0  0  0  0  0  0  0  0  0
    5.1930   -4.6780   19.9030 O   0  0  0  0  0  0  0  0  0  0  0  0
    7.7710   -1.4590   25.7000 N   0  0  0  0  0  0  0  0  0  0  0  0
   12.9510   -1.4770   21.5280 C   0  0  0  0  0  0  0  0  0  0  0  0
    5.8080   -0.5810   26.7140 C   0  0  0  0  0  0  0  0  0  0  0  0
   13.7530   -2.0210   20.6630 F   0  0  0  0  0  0  0  0  0  0  0  0
    6.0920   -0.7810   28.0800 C   0  0  0  0  0  0  0  0  0  0  0  0
    5.0680    0.4970   26.2760 C   0  0  0  0  0  0  0  0  0  0  0  0
    5.5950    0.2270   29.1410 C   0  0  0  0  0  0  0  0  0  0  0  0
    4.5460    1.5230   27.2620 C   0  0  0  0  0  0  0  0  0  0  0  0
    4.7860    1.4200   28.6210 C   0  0  0  0  0  0  0  0  0  0  0  0
  1  2  1  0
  2  3  1  0
  1  4  1  0
  2  5  2  0
  4  6  2  0
  4  7  1  0
  3  8  1  0
  7  9  1  0
  3 10  1  6
  6 11  1  0
  7 12  2  0
  9 13  1  0
 10 14  2  0
 10 15  1  0
 11 16  2  0
 12 16  1  0
  8 17  1  0
 13 18  2  0
 13 19  2  0
 14 20  1  0
 15 21  2  0
 13 22  1  6
 17 23  1  6
 17 24  1  0
 24 25  1  0
 19 26  1  0
 20 27  2  0
 21 27  1  0
 22 28  2  0
 22 29  1  0
 23 30  1  0
 24 31  1  6
 30 32  1  0
 25 33  1  0
 26 34  1  0
 28 35  1  0
 29 36  2  0
 30 37  1  0
 31 37  1  0
 32 38  1  0
 32 39  2  0
 33 40  2  0
 34 40  1  0
 35 41  2  0
 36 41  1  0
 33 42  1  0
 41 43  1  0
 42 44  2  0
 42 45  1  0
 44 46  1  0
 45 47  2  0
 46 48  2  0
 47 48  1  0
M  END
