x1351-x0981
     RDKit          3D

 29 30  0  0  0  0  0  0  0  0999 V2000
    1.1300   -8.7740   21.1750 C   0  0  0  0  0  0  0  0  0  0  0  0
    1.1940   -7.4880   22.0560 C   0  0  0  0  0  0  0  0  0  0  0  0
    2.3440   -7.4450   22.7850 N   0  0  0  0  0  0  0  0  0  0  0  0
    0.3130   -6.6300   22.0600 O   0  0  0  0  0  0  0  0  0  0  0  0
    2.7400   -6.2220   23.4740 C   0  0  1  0  0  0  0  0  0  0  0  0
    2.6220   -6.4370   24.9910 C   0  0  0  0  0  0  0  0  0  0  0  0
    4.2170   -6.0460   23.1010 C   0  0  0  0  0  0  0  0  0  0  0  0
    4.9870   -5.3600   23.9870 N   0  0  0  0  0  0  0  0  0  0  0  0
    3.0880   -7.6980   25.3260 C   0  0  0  0  0  0  0  0  0  0  0  0
    2.4530   -8.2730   26.5340 N   0  0  0  0  0  0  0  0  0  0  0  0
    3.9350   -8.2630   24.6690 O   0  0  0  0  0  0  0  0  0  0  0  0
    5.6840   -4.2850   23.3160 C   0  0  1  0  0  0  0  0  0  0  0  0
    6.6120   -3.5230   24.2680 C   0  0  2  0  0  0  0  0  0  0  0  0
    6.4750   -4.9660   22.2220 C   0  0  0  0  0  0  0  0  0  0  0  0
    6.0700   -2.8000   25.2800 N   0  0  0  0  0  0  0  0  0  0  0  0
    6.7720   -3.8570   21.3180 N   0  0  0  0  0  0  0  0  0  0  0  0
    7.3890   -2.4800   23.4430 C   0  0  0  0  0  0  0  0  0  0  0  0
    6.2800   -3.7950   20.0260 C   0  0  0  0  0  0  0  0  0  0  0  0
    6.8640   -2.3160   26.2370 C   0  0  0  0  0  0  0  0  0  0  0  0
    7.6730   -2.8690   21.9590 C   0  0  0  0  0  0  0  0  0  0  0  0
    7.1930   -3.1520   19.0040 C   0  0  0  0  0  0  0  0  0  0  0  0
    5.1910   -4.2850   19.7500 O   0  0  0  0  0  0  0  0  0  0  0  0
    7.9900   -2.9670   26.6360 O   0  0  0  0  0  0  0  0  0  0  0  0
    6.5040   -1.0250   26.8850 C   0  0  0  0  0  0  0  0  0  0  0  0
    7.1620   -0.6040   28.0850 C   0  0  0  0  0  0  0  0  0  0  0  0
    5.5410   -0.2480   26.3220 C   0  0  0  0  0  0  0  0  0  0  0  0
    6.8530    0.7350   28.8380 C   0  0  0  0  0  0  0  0  0  0  0  0
    5.1260    1.0730   26.9260 C   0  0  0  0  0  0  0  0  0  0  0  0
    5.7900    1.5720   28.2010 C   0  0  0  0  0  0  0  0  0  0  0  0
  1  2  1  0
  2  3  1  0
  2  4  2  0
  3  5  1  0
  5  6  1  1
  5  7  1  0
  7  8  1  0
  6  9  1  0
  9 10  1  0
  9 11  2  0
 12  8  1  1
 12 13  1  0
 12 14  1  0
 13 15  1  1
 14 16  1  0
 13 17  1  0
 16 18  1  0
 15 19  1  0
 16 20  1  0
 17 20  1  0
 18 21  1  0
 18 22  2  0
 19 23  2  0
 19 24  1  0
 24 25  2  0
 24 26  1  0
 25 27  1  0
 26 28  2  0
 27 29  2  0
 28 29  1  0
M  END
