x1358-x0831
     RDKit          3D

 32 35  0  0  0  0  0  0  0  0999 V2000
    7.0830   -2.3460   25.9120 N   0  0  0  0  0  0  0  0  0  0  0  0
    6.0880   -3.1310   25.2300 C   0  0  0  0  0  0  0  0  0  0  0  0
    5.0270   -3.5550   25.6860 O   0  0  0  0  0  0  0  0  0  0  0  0
    6.7920   -1.3570   26.9590 C   0  0  0  0  0  0  0  0  0  0  0  0
    5.9490   -0.1440   26.5720 C   0  0  0  0  0  0  0  0  0  0  0  0
    7.2730   -1.4320   28.4170 C   0  0  0  0  0  0  0  0  0  0  0  0
    6.4840   -3.4090   23.7860 C   0  0  1  0  0  0  0  0  0  0  0  0
    5.4760   -0.0080   25.2940 O   0  0  0  0  0  0  0  0  0  0  0  0
    6.9850   -0.4040   29.4650 C   0  0  0  0  0  0  0  0  0  0  0  0
    5.6400    0.8520   27.4950 C   0  0  0  0  0  0  0  0  0  0  0  0
    7.0620   -2.4400   23.0260 C   0  0  2  0  0  0  0  0  0  0  0  0
    6.9240   -4.8290   23.4620 C   0  0  0  0  0  0  0  0  0  0  0  0
    6.1440    0.7690   28.9770 C   0  0  0  0  0  0  0  0  0  0  0  0
    7.2000   -2.7280   21.6590 C   0  0  1  0  0  0  0  0  0  0  0  0
    6.3780   -5.0510   22.2400 C   0  0  0  0  0  0  0  0  0  0  0  0
    8.2750   -1.6350   23.3850 N   0  0  0  0  0  0  0  0  0  0  0  0
    9.6380   -2.2550   23.4380 C   0  0  0  0  0  0  0  0  0  0  0  0
    6.6980   -4.0250   21.2820 N   0  0  0  0  0  0  0  0  0  0  0  0
    6.2460   -1.8760   20.9660 N   0  0  0  0  0  0  0  0  0  0  0  0
    8.4310   -0.5930   22.3320 C   0  0  0  0  0  0  0  0  0  0  0  0
    6.2100   -3.9560   19.9950 C   0  0  0  0  0  0  0  0  0  0  0  0
   10.6600   -1.1050   23.4540 C   0  0  0  0  0  0  0  0  0  0  0  0
    6.6810   -0.5950   20.7380 C   0  0  0  0  0  0  0  0  0  0  0  0
    7.2710    0.0200   21.8300 C   0  0  0  0  0  0  0  0  0  0  0  0
    5.1180   -4.4120   19.7380 O   0  0  0  0  0  0  0  0  0  0  0  0
    7.1440   -3.2790   18.9710 C   0  0  0  0  0  0  0  0  0  0  0  0
   11.9320   -1.1210   22.8020 C   0  0  0  0  0  0  0  0  0  0  0  0
   10.2610    0.0430   24.1570 C   0  0  0  0  0  0  0  0  0  0  0  0
   12.4570   -2.2690   22.0320 C   0  0  0  0  0  0  0  0  0  0  0  0
   11.0780    1.1820   24.2110 C   0  0  0  0  0  0  0  0  0  0  0  0
   12.7520    0.0160   22.8700 C   0  0  0  0  0  0  0  0  0  0  0  0
   12.3020    1.1120   23.5560 C   0  0  0  0  0  0  0  0  0  0  0  0
  1  2  1  0
  2  3  2  0
  1  4  1  0
  4  5  2  0
  4  6  1  0
  7  2  1  1
  5  8  1  0
  6  9  2  0
  5 10  1  0
  7 11  1  0
  7 12  1  0
  9 13  1  0
 10 13  2  0
 11 14  1  0
 12 15  1  0
 11 16  1  1
 16 17  1  0
 14 18  1  0
 15 18  1  0
 14 19  1  6
 16 20  1  0
 18 21  1  0
 17 22  1  0
 19 23  1  0
 20 24  1  0
 23 24  1  0
 21 25  2  0
 21 26  1  0
 22 27  2  0
 22 28  1  0
 27 29  1  0
 28 30  2  0
 27 31  1  0
 30 32  1  0
 31 32  2  0
M  END
