x1358-x3124
     RDKit          3D

 41 44  0  0  0  0  0  0  0  0999 V2000
    7.4390   -1.6080   21.8080 N   0  0  0  0  0  0  0  0  0  0  0  0
    6.9130   -0.2050   21.7190 C   0  0  1  0  0  0  0  0  0  0  0  0
    7.9280    0.9730   21.9280 C   0  0  0  0  0  0  0  0  0  0  0  0
    8.6680   -1.6190   22.4060 C   0  0  0  0  0  0  0  0  0  0  0  0
    6.8720   -2.8530   22.3480 C   0  0  2  0  0  0  0  0  0  0  0  0
    6.2590    0.2240   20.4080 C   0  0  0  0  0  0  0  0  0  0  0  0
    9.7460   -2.1600   21.7660 C   0  0  0  0  0  0  0  0  0  0  0  0
    8.8340   -1.1090   23.6790 C   0  0  0  0  0  0  0  0  0  0  0  0
    6.6300   -3.9690   21.4330 N   0  0  0  0  0  0  0  0  0  0  0  0
    5.7940   -2.5550   23.1260 C   0  0  0  0  0  0  0  0  0  0  0  0
    7.9190    1.5030   23.2160 N   0  0  0  0  0  0  0  0  0  0  0  0
    8.6630    1.4720   21.0700 O   0  0  0  0  0  0  0  0  0  0  0  0
    6.2440   -3.8050   20.1040 C   0  0  0  0  0  0  0  0  0  0  0  0
    5.0910    0.9000   20.3250 C   0  0  0  0  0  0  0  0  0  0  0  0
    6.9180   -0.0690   19.0860 C   0  0  0  0  0  0  0  0  0  0  0  0
   11.0190   -2.1900   22.3730 C   0  0  0  0  0  0  0  0  0  0  0  0
   10.0660   -1.1270   24.3020 C   0  0  0  0  0  0  0  0  0  0  0  0
    5.3770   -3.7080   23.7970 C   0  0  2  0  0  0  0  0  0  0  0  0
    6.2280   -5.1750   22.1280 C   0  0  0  0  0  0  0  0  0  0  0  0
    8.8030    2.5720   23.6940 C   0  0  0  0  0  0  0  0  0  0  0  0
    5.1650   -4.2530   19.7420 O   0  0  0  0  0  0  0  0  0  0  0  0
    5.5330   -3.3740   25.2990 C   0  0  0  0  0  0  0  0  0  0  0  0
    7.2010   -3.1480   19.1220 C   0  0  0  0  0  0  0  0  0  0  0  0
    6.3290    0.3690   17.8180 N   0  0  0  0  0  0  0  0  0  0  0  0
    4.5240    1.3230   19.0540 C   0  0  0  0  0  0  0  0  0  0  0  0
   11.1780   -1.6700   23.6390 C   0  0  0  0  0  0  0  0  0  0  0  0
    6.1140   -4.8780   23.5000 C   0  0  0  0  0  0  0  0  0  0  0  0
   12.3710   -1.6870   24.1810 C   0  0  0  0  0  0  0  0  0  0  0  0
    6.6090   -2.5080   25.8410 N   0  0  0  0  0  0  0  0  0  0  0  0
    4.7180   -3.8190   26.1000 O   0  0  0  0  0  0  0  0  0  0  0  0
    5.1620    1.0450   17.9050 C   0  0  0  0  0  0  0  0  0  0  0  0
   12.5610   -0.5160   25.1560 C   0  0  0  0  0  0  0  0  0  0  0  0
   13.3800   -1.3770   23.1330 C   0  0  0  0  0  0  0  0  0  0  0  0
   12.8110   -2.9490   24.9290 C   0  0  0  0  0  0  0  0  0  0  0  0
    6.5290   -1.4820   26.7810 C   0  0  0  0  0  0  0  0  0  0  0  0
    5.9700   -0.2410   26.4600 C   0  0  0  0  0  0  0  0  0  0  0  0
    7.0390   -1.7470   28.0750 C   0  0  0  0  0  0  0  0  0  0  0  0
    5.4760   -0.0290   25.2050 O   0  0  0  0  0  0  0  0  0  0  0  0
    6.9990   -0.7110   29.0870 C   0  0  0  0  0  0  0  0  0  0  0  0
    5.9030    0.7780   27.3840 C   0  0  0  0  0  0  0  0  0  0  0  0
    6.4430    0.5190   28.7400 C   0  0  0  0  0  0  0  0  0  0  0  0
  1  2  1  0
  2  3  1  6
  1  4  1  0
  5  1  1  6
  2  6  1  0
  4  7  2  0
  4  8  1  0
  5  9  1  0
  5 10  1  0
  3 11  1  0
  3 12  2  0
  9 13  1  0
  6 14  2  0
  6 15  1  0
  7 16  1  0
  8 17  2  0
 10 18  1  0
  9 19  1  0
 11 20  1  0
 13 21  2  0
 18 22  1  1
 13 23  1  0
 15 24  2  0
 14 25  1  0
 16 26  2  0
 17 26  1  0
 18 27  1  0
 19 27  1  0
 26 28  1  0
 22 29  1  0
 22 30  2  0
 24 31  1  0
 25 31  2  0
 28 32  1  0
 28 33  1  0
 28 34  1  0
 29 35  1  0
 35 36  2  0
 35 37  1  0
 36 38  1  0
 37 39  2  0
 36 40  1  0
 39 41  1  0
 40 41  2  0
M  END
