x1358-x3113
     RDKit          3D

 45 48  0  0  0  0  0  0  0  0999 V2000
    7.5360   -1.5180   21.6950 N   0  0  0  0  0  0  0  0  0  0  0  0
    7.0180   -0.1220   21.6300 C   0  0  1  0  0  0  0  0  0  0  0  0
    8.0820    1.0200   21.8500 C   0  0  0  0  0  0  0  0  0  0  0  0
    8.7080   -1.5980   22.3890 C   0  0  0  0  0  0  0  0  0  0  0  0
    6.8260   -2.7170   22.1890 C   0  0  2  0  0  0  0  0  0  0  0  0
    6.3350    0.2780   20.3140 C   0  0  0  0  0  0  0  0  0  0  0  0
    9.9220   -2.1830   21.8080 C   0  0  0  0  0  0  0  0  0  0  0  0
    8.9240   -1.1260   23.8310 C   0  0  0  0  0  0  0  0  0  0  0  0
    6.6140   -3.8900   21.3530 N   0  0  0  0  0  0  0  0  0  0  0  0
    5.7380   -2.3870   23.1740 C   0  0  0  0  0  0  0  0  0  0  0  0
    8.2340    1.4790   23.1560 N   0  0  0  0  0  0  0  0  0  0  0  0
    8.7600    1.5560   20.9780 O   0  0  0  0  0  0  0  0  0  0  0  0
    6.2250   -3.7600   20.0320 C   0  0  0  0  0  0  0  0  0  0  0  0
    5.1280    0.9710   20.3500 C   0  0  0  0  0  0  0  0  0  0  0  0
    6.9330   -0.0370   19.1080 C   0  0  0  0  0  0  0  0  0  0  0  0
   11.1240   -2.3090   22.3830 C   0  0  0  0  0  0  0  0  0  0  0  0
   10.1960   -1.2860   24.3830 C   0  0  0  0  0  0  0  0  0  0  0  0
    5.3720   -3.6240   24.0080 C   0  0  2  0  0  0  0  0  0  0  0  0
    6.2970   -5.1150   22.0730 C   0  0  0  0  0  0  0  0  0  0  0  0
    9.1820    2.5430   23.5240 C   0  0  0  0  0  0  0  0  0  0  0  0
    5.1390   -4.2050   19.6970 O   0  0  0  0  0  0  0  0  0  0  0  0
    5.5250   -3.3550   25.5050 C   0  0  0  0  0  0  0  0  0  0  0  0
    7.1890   -3.1370   19.0390 C   0  0  0  0  0  0  0  0  0  0  0  0
    6.3960    0.3130   17.9160 N   0  0  0  0  0  0  0  0  0  0  0  0
    4.5700    1.3320   19.1280 C   0  0  0  0  0  0  0  0  0  0  0  0
   11.2640   -1.8520   23.6820 C   0  0  0  0  0  0  0  0  0  0  0  0
    6.1240   -4.9090   23.5800 C   0  0  0  0  0  0  0  0  0  0  0  0
   10.6610    1.9650   23.5400 C   0  0  0  0  0  0  0  0  0  0  0  0
   12.6150   -1.9740   24.2790 C   0  0  0  0  0  0  0  0  0  0  0  0
    6.5380   -2.5090   25.8450 N   0  0  0  0  0  0  0  0  0  0  0  0
    4.7540   -3.8790   26.2860 O   0  0  0  0  0  0  0  0  0  0  0  0
    5.2310    0.9900   17.9540 C   0  0  0  0  0  0  0  0  0  0  0  0
   11.7040    3.0070   22.9820 C   0  0  0  0  0  0  0  0  0  0  0  0
   13.5720   -2.1160   23.1170 C   0  0  0  0  0  0  0  0  0  0  0  0
   12.9590   -3.0840   25.2360 C   0  0  0  0  0  0  0  0  0  0  0  0
   12.8500   -0.6360   24.9060 C   0  0  0  0  0  0  0  0  0  0  0  0
    6.5470   -1.4780   26.9110 C   0  0  0  0  0  0  0  0  0  0  0  0
   11.8100    4.1380   23.4080 O   0  0  0  0  0  0  0  0  0  0  0  0
    5.9600   -0.2380   26.5400 C   0  0  0  0  0  0  0  0  0  0  0  0
    7.0740   -1.6550   28.2010 C   0  0  0  0  0  0  0  0  0  0  0  0
   12.9850    4.7930   22.9250 C   0  0  0  0  0  0  0  0  0  0  0  0
    5.4440   -0.1030   25.2780 O   0  0  0  0  0  0  0  0  0  0  0  0
    7.0570   -0.6310   29.1560 C   0  0  0  0  0  0  0  0  0  0  0  0
    5.9070    0.8170   27.4380 C   0  0  0  0  0  0  0  0  0  0  0  0
    6.4970    0.6010   28.8330 C   0  0  0  0  0  0  0  0  0  0  0  0
  1  2  1  0
  2  3  1  6
  1  4  1  0
  5  1  1  6
  2  6  1  0
  4  7  2  0
  4  8  1  0
  5  9  1  0
  5 10  1  0
  3 11  1  0
  3 12  2  0
  9 13  1  0
  6 14  2  0
  6 15  1  0
  7 16  1  0
  8 17  2  0
 10 18  1  0
  9 19  1  0
 11 20  1  0
 13 21  2  0
 18 22  1  1
 13 23  1  0
 15 24  2  0
 14 25  1  0
 16 26  2  0
 17 26  1  0
 18 27  1  0
 19 27  1  0
 20 28  1  0
 26 29  1  0
 22 30  1  0
 22 31  2  0
 24 32  1  0
 25 32  2  0
 28 33  1  0
 29 34  1  0
 29 35  1  0
 29 36  1  0
 30 37  1  0
 33 38  1  0
 37 39  2  0
 37 40  1  0
 38 41  1  0
 39 42  1  0
 40 43  2  0
 39 44  1  0
 43 45  1  0
 44 45  2  0
M  END
