x1358-x0874
     RDKit          3D

 32 35  0  0  0  0  0  0  0  0999 V2000
    7.0530   -2.4590   25.7540 N   0  0  0  0  0  0  0  0  0  0  0  0
    5.9580   -3.2370   25.1810 C   0  0  0  0  0  0  0  0  0  0  0  0
    4.7830   -3.2630   25.5360 O   0  0  0  0  0  0  0  0  0  0  0  0
    6.8170   -1.5650   26.8250 C   0  0  0  0  0  0  0  0  0  0  0  0
    6.7120   -0.1000   26.5170 C   0  0  0  0  0  0  0  0  0  0  0  0
    6.7000   -2.0500   28.1320 C   0  0  0  0  0  0  0  0  0  0  0  0
    6.4780   -4.0910   24.0000 C   0  0  0  0  0  0  0  0  0  0  0  0
    6.8720    0.2400   25.3480 O   0  0  0  0  0  0  0  0  0  0  0  0
    6.4470   -0.9380   29.1790 C   0  0  0  0  0  0  0  0  0  0  0  0
    6.4710    0.8630   27.4770 C   0  0  0  0  0  0  0  0  0  0  0  0
    7.3630   -3.2890   23.1700 C   0  0  0  0  0  0  0  0  0  0  0  0
    5.4280   -4.6790   23.3040 C   0  0  0  0  0  0  0  0  0  0  0  0
    8.3270    0.3140   25.2510 C   0  0  0  0  0  0  0  0  0  0  0  0
    6.3280    0.5320   28.8230 C   0  0  0  0  0  0  0  0  0  0  0  0
    7.8710   -3.9410   22.1140 C   0  0  0  0  0  0  0  0  0  0  0  0
    5.8310   -5.3020   21.9750 C   0  0  0  0  0  0  0  0  0  0  0  0
    6.7780   -4.4380   21.2850 N   0  0  0  0  0  0  0  0  0  0  0  0
    8.8390    0.6220   23.8180 C   0  0  1  0  0  0  0  0  0  0  0  0
    6.3640   -3.9110   20.0430 C   0  0  0  0  0  0  0  0  0  0  0  0
   10.1060    0.2590   23.2640 C   0  0  2  0  0  0  0  0  0  0  0  0
    7.9220   -0.0380   22.9850 C   0  0  0  0  0  0  0  0  0  0  0  0
    8.6610    2.1120   23.5550 C   0  0  0  0  0  0  0  0  0  0  0  0
    5.2100   -4.0920   19.6780 O   0  0  0  0  0  0  0  0  0  0  0  0
    7.4010   -3.1970   19.1660 C   0  0  0  0  0  0  0  0  0  0  0  0
    8.6950   -0.8690   22.1510 C   0  0  0  0  0  0  0  0  0  0  0  0
    9.8880   -1.0820   22.8810 C   0  0  1  0  0  0  0  0  0  0  0  0
   11.4640    0.3720   23.6430 C   0  0  0  0  0  0  0  0  0  0  0  0
    9.1450    2.4760   22.1420 C   0  0  0  0  0  0  0  0  0  0  0  0
   11.0700   -1.5710   22.2240 C   0  0  0  0  0  0  0  0  0  0  0  0
   12.5190   -0.7770   22.8080 S   0  0  0  0  0  0  0  0  0  0  0  0
   10.2360    3.4790   22.1350 N   0  0  0  0  0  0  0  0  0  0  0  0
    8.7130    1.9980   21.0980 O   0  0  0  0  0  0  0  0  0  0  0  0
  1  2  1  0
  2  3  2  0
  1  4  1  0
  4  5  1  0
  4  6  2  0
  2  7  1  0
  5  8  1  0
  6  9  1  0
  5 10  2  0
  7 11  1  0
  7 12  1  0
  8 13  1  0
  9 14  2  0
 10 14  1  0
 11 15  1  0
 12 16  1  0
 15 17  1  0
 16 17  1  0
 18 13  1  1
 17 19  1  0
 18 20  1  0
 18 21  1  0
 18 22  1  0
 19 23  2  0
 19 24  1  0
 21 25  1  0
 20 26  1  0
 26 25  1  6
 20 27  1  1
 22 28  1  0
 26 29  1  0
 27 30  2  0
 29 30  2  0
 28 31  1  0
 28 32  2  0
M  END
