x1358-x3298
     RDKit          3D

 48 52  0  0  0  0  0  0  0  0999 V2000
    7.2010    2.1980   21.9020 N   0  0  0  0  0  0  0  0  0  0  0  0
    8.1290    1.2200   21.3730 C   0  0  0  0  0  0  0  0  0  0  0  0
    7.4940   -0.1050   21.1050 C   0  0  1  0  0  0  0  0  0  0  0  0
    7.7710    3.2170   22.6060 C   0  0  0  0  0  0  0  0  0  0  0  0
    9.2680    1.4760   21.1360 O   0  0  0  0  0  0  0  0  0  0  0  0
    7.6990    4.6000   22.3210 C   0  0  0  0  0  0  0  0  0  0  0  0
    8.4850    2.7500   23.6790 C   0  0  0  0  0  0  0  0  0  0  0  0
    6.7270   -0.5610   22.2110 O   0  0  0  0  0  0  0  0  0  0  0  0
    8.6020    1.3490   24.0170 N   0  0  0  0  0  0  0  0  0  0  0  0
    6.5810    0.3040   20.0390 C   0  0  0  0  0  0  0  0  0  0  0  0
    8.3820    5.4800   23.1640 C   0  0  0  0  0  0  0  0  0  0  0  0
    9.1330    3.6240   24.4780 C   0  0  0  0  0  0  0  0  0  0  0  0
   10.0510    0.8230   24.6240 S   0  0  0  0  0  0  0  0  0  0  0  0
    6.1190   -1.7740   21.8230 C   0  0  0  0  0  0  0  0  0  0  0  0
    6.9530    0.0760   18.6230 C   0  0  0  0  0  0  0  0  0  0  0  0
    5.2770    0.9790   20.3380 C   0  0  0  0  0  0  0  0  0  0  0  0
    9.0930    4.9820   24.2350 C   0  0  0  0  0  0  0  0  0  0  0  0
   10.8260    2.0250   24.6370 O   0  0  0  0  0  0  0  0  0  0  0  0
    9.8170   -0.0410   25.7720 O   0  0  0  0  0  0  0  0  0  0  0  0
    6.2390    0.4390   17.5790 N   0  0  0  0  0  0  0  0  0  0  0  0
    4.5210    1.3590   19.0880 C   0  0  0  0  0  0  0  0  0  0  0  0
   11.0210   -0.0820   23.4950 C   0  0  0  0  0  0  0  0  0  0  0  0
    7.0550   -2.9310   22.0590 C   0  0  2  0  0  0  0  0  0  0  0  0
    5.0840    1.0570   17.8160 C   0  0  0  0  0  0  0  0  0  0  0  0
   12.3120    0.4080   23.3370 C   0  0  0  0  0  0  0  0  0  0  0  0
   10.5760   -1.2090   22.7990 C   0  0  0  0  0  0  0  0  0  0  0  0
    6.5850   -4.1560   21.3980 N   0  0  0  0  0  0  0  0  0  0  0  0
    7.1430   -3.0770   23.4040 C   0  0  0  0  0  0  0  0  0  0  0  0
    6.1720   -3.9460   20.1020 C   0  0  0  0  0  0  0  0  0  0  0  0
   13.1900   -0.1990   22.4850 C   0  0  0  0  0  0  0  0  0  0  0  0
   11.4640   -1.8300   21.9330 C   0  0  0  0  0  0  0  0  0  0  0  0
    5.8890   -3.7070   23.9750 C   0  0  2  0  0  0  0  0  0  0  0  0
    6.3710   -5.4120   22.1590 C   0  0  0  0  0  0  0  0  0  0  0  0
    5.0890   -4.3540   19.7500 O   0  0  0  0  0  0  0  0  0  0  0  0
    5.8070   -3.4420   25.4720 C   0  0  0  0  0  0  0  0  0  0  0  0
    7.1430   -3.2420   19.1690 C   0  0  0  0  0  0  0  0  0  0  0  0
   12.7530   -1.3340   21.7750 C   0  0  0  0  0  0  0  0  0  0  0  0
    5.8010   -5.1770   23.5650 C   0  0  0  0  0  0  0  0  0  0  0  0
   13.5760   -1.9340   20.9330 F   0  0  0  0  0  0  0  0  0  0  0  0
    6.9160   -2.6110   25.9850 N   0  0  0  0  0  0  0  0  0  0  0  0
    4.8760   -3.8870   26.1240 O   0  0  0  0  0  0  0  0  0  0  0  0
    6.8470   -1.5800   26.9470 C   0  0  0  0  0  0  0  0  0  0  0  0
    6.0460   -0.4370   26.6820 C   0  0  0  0  0  0  0  0  0  0  0  0
    7.5050   -1.5650   28.1770 C   0  0  0  0  0  0  0  0  0  0  0  0
    5.3720   -0.3940   25.4870 O   0  0  0  0  0  0  0  0  0  0  0  0
    7.3810   -0.5060   29.0780 C   0  0  0  0  0  0  0  0  0  0  0  0
    5.9090    0.6320   27.5650 C   0  0  0  0  0  0  0  0  0  0  0  0
    6.5850    0.5930   28.7750 C   0  0  0  0  0  0  0  0  0  0  0  0
  1  2  1  0
  2  3  1  0
  1  4  1  0
  2  5  2  0
  4  6  2  0
  4  7  1  0
  3  8  1  1
  7  9  1  0
  3 10  1  0
  6 11  1  0
  7 12  2  0
 13  9  1  0
  8 14  1  0
 10 15  2  0
 10 16  1  0
 11 17  2  0
 12 17  1  0
 13 18  2  0
 13 19  2  0
 15 20  1  0
 16 21  2  0
 13 22  1  0
 23 14  1  1
 20 24  2  0
 21 24  1  0
 22 25  2  0
 22 26  1  0
 23 27  1  0
 23 28  1  0
 27 29  1  0
 25 30  1  0
 26 31  2  0
 28 32  1  0
 27 33  1  0
 29 34  2  0
 32 35  1  1
 29 36  1  0
 30 37  2  0
 31 37  1  0
 32 38  1  0
 33 38  1  0
 37 39  1  0
 35 40  1  0
 35 41  2  0
 40 42  1  0
 42 43  2  0
 42 44  1  0
 43 45  1  0
 44 46  2  0
 43 47  1  0
 46 48  1  0
 47 48  2  0
M  END
