x1358-x0072
     RDKit          3D

 33 36  0  0  0  0  0  0  0  0999 V2000
    6.5130   -2.3390   25.6780 N   0  0  0  0  0  0  0  0  0  0  0  0
    5.6190   -3.3540   25.0880 C   0  0  0  0  0  0  0  0  0  0  0  0
    4.4520   -3.6330   25.3490 O   0  0  0  0  0  0  0  0  0  0  0  0
    7.8340   -2.1710   25.2500 C   0  0  0  0  0  0  0  0  0  0  0  0
    6.2030   -1.5540   26.8020 C   0  0  0  0  0  0  0  0  0  0  0  0
    8.3550   -3.3800   24.5220 C   0  0  2  0  0  0  0  0  0  0  0  0
    5.6210   -0.3250   26.5400 C   0  0  0  0  0  0  0  0  0  0  0  0
    6.4490   -1.9490   28.1610 C   0  0  0  0  0  0  0  0  0  0  0  0
    6.2170   -4.2330   23.9600 C   0  0  2  0  0  0  0  0  0  0  0  0
    5.3970    0.0310   25.2360 O   0  0  0  0  0  0  0  0  0  0  0  0
    8.4450   -4.6200   25.9990 S   0  0  0  0  0  0  0  0  0  0  0  0
    9.5830   -3.1100   23.9540 C   0  0  0  0  0  0  0  0  0  0  0  0
    6.0680   -1.0260   29.3210 C   0  0  0  0  0  0  0  0  0  0  0  0
    5.2740    0.5200   27.5800 C   0  0  0  0  0  0  0  0  0  0  0  0
    7.2570   -3.5310   23.4090 C   0  0  2  0  0  0  0  0  0  0  0  0
    5.2670   -4.7350   23.0840 C   0  0  0  0  0  0  0  0  0  0  0  0
    6.8700   -5.1540   26.6680 C   0  0  0  0  0  0  0  0  0  0  0  0
    9.1080   -5.8170   25.5500 O   0  0  0  0  0  0  0  0  0  0  0  0
    9.0400   -3.9150   27.1140 O   0  0  0  0  0  0  0  0  0  0  0  0
    9.6240   -2.1460   22.9570 C   0  0  0  0  0  0  0  0  0  0  0  0
    5.4880    0.1750   28.8730 C   0  0  0  0  0  0  0  0  0  0  0  0
    7.7210   -3.8460   22.1180 C   0  0  0  0  0  0  0  0  0  0  0  0
    5.8230   -5.4320   22.0190 C   0  0  0  0  0  0  0  0  0  0  0  0
    6.6750   -4.4840   21.3140 N   0  0  0  0  0  0  0  0  0  0  0  0
   10.8350   -1.2880   23.0320 C   0  0  0  0  0  0  0  0  0  0  0  0
    6.3290   -3.9170   20.0650 C   0  0  0  0  0  0  0  0  0  0  0  0
   11.8940   -1.7040   22.2190 C   0  0  0  0  0  0  0  0  0  0  0  0
   10.8910   -0.1650   23.8460 C   0  0  0  0  0  0  0  0  0  0  0  0
    5.1850   -4.0850   19.6720 O   0  0  0  0  0  0  0  0  0  0  0  0
    7.3780   -3.1680   19.2160 C   0  0  0  0  0  0  0  0  0  0  0  0
   13.0680   -1.0000   22.1780 C   0  0  0  0  0  0  0  0  0  0  0  0
   12.0600    0.5820   23.8340 C   0  0  0  0  0  0  0  0  0  0  0  0
   13.2130    0.1350   22.9420 C   0  0  0  0  0  0  0  0  0  0  0  0
  1  2  1  0
  2  3  2  0
  1  4  1  0
  1  5  1  0
  4  6  1  0
  5  7  2  0
  5  8  1  0
  2  9  1  0
  7 10  1  0
  6 11  1  0
  6 12  1  6
  8 13  2  0
  7 14  1  0
  6 15  1  0
  9 15  1  0
  9 16  1  6
 11 17  1  0
 11 18  2  0
 11 19  2  0
 12 20  1  0
 13 21  1  0
 14 21  2  0
 15 22  1  6
 16 23  1  0
 22 24  1  0
 23 24  1  0
 20 25  1  0
 24 26  1  0
 25 27  2  0
 25 28  1  0
 26 29  2  0
 26 30  1  0
 27 31  1  0
 28 32  2  0
 31 33  2  0
 32 33  1  0
M  END
