x1351-x2912
     RDKit          3D

 39 42  0  0  0  0  0  0  0  0999 V2000
    6.9870   -0.4780   21.2560 N   0  0  0  0  0  0  0  0  0  0  0  0
    8.2000   -0.0590   21.8870 C   0  0  0  0  0  0  0  0  0  0  0  0
    8.8040    0.9460   21.4990 O   0  0  0  0  0  0  0  0  0  0  0  0
    6.3270    0.1690   20.1140 C   0  0  0  0  0  0  0  0  0  0  0  0
    8.6960   -0.9100   23.0610 C   0  0  2  0  0  0  0  0  0  0  0  0
    5.1890    1.1270   20.4000 C   0  0  0  0  0  0  0  0  0  0  0  0
    6.7400   -0.0600   18.6740 C   0  0  0  0  0  0  0  0  0  0  0  0
    7.9760   -0.6980   24.3900 C   0  0  0  0  0  0  0  0  0  0  0  0
    4.7850    1.3540   21.8670 C   0  0  0  0  0  0  0  0  0  0  0  0
    6.1540    0.5450   17.6530 N   0  0  0  0  0  0  0  0  0  0  0  0
    4.5480    1.7910   19.2070 C   0  0  0  0  0  0  0  0  0  0  0  0
   10.1240   -0.5280   23.1860 C   0  0  0  0  0  0  0  0  0  0  0  0
    8.0510   -1.9570   25.1890 C   0  0  0  0  0  0  0  0  0  0  0  0
    5.1340    1.4160   17.8350 C   0  0  0  0  0  0  0  0  0  0  0  0
   10.6070    0.4180   24.0740 C   0  0  0  0  0  0  0  0  0  0  0  0
   10.8280   -1.2120   22.2980 C   0  0  0  0  0  0  0  0  0  0  0  0
    6.9180   -2.2850   25.9020 C   0  0  1  0  0  0  0  0  0  0  0  0
   12.0640    0.7940   24.1130 C   0  0  0  0  0  0  0  0  0  0  0  0
   12.2700   -0.9000   22.2660 C   0  0  0  0  0  0  0  0  0  0  0  0
   13.2370   -1.4700   21.3410 C   0  0  0  0  0  0  0  0  0  0  0  0
    5.8420   -2.9510   25.3720 N   0  0  0  0  0  0  0  0  0  0  0  0
    7.4250   -3.2280   26.8340 O   0  0  0  0  0  0  0  0  0  0  0  0
   12.8880    0.0980   23.1700 C   0  0  0  0  0  0  0  0  0  0  0  0
    6.4820   -1.0600   26.7360 C   0  0  0  0  0  0  0  0  0  0  0  0
   14.1380   -1.5510   20.2890 N   0  0  0  0  0  0  0  0  0  0  0  0
    5.6670   -3.5620   24.0150 C   0  0  0  0  0  0  0  0  0  0  0  0
    7.0790   -0.7450   27.9750 C   0  0  0  0  0  0  0  0  0  0  0  0
    5.4680   -0.2100   26.2650 C   0  0  0  0  0  0  0  0  0  0  0  0
    6.1900   -2.7550   23.0130 C   0  0  0  0  0  0  0  0  0  0  0  0
    6.1450   -5.0090   23.8770 C   0  0  0  0  0  0  0  0  0  0  0  0
    6.7050    0.3600   28.7290 C   0  0  0  0  0  0  0  0  0  0  0  0
    5.0760    0.9110   27.0100 C   0  0  0  0  0  0  0  0  0  0  0  0
    7.1920   -3.4030   22.2940 C   0  0  0  0  0  0  0  0  0  0  0  0
    5.9170   -5.3090   22.3470 C   0  0  0  0  0  0  0  0  0  0  0  0
    5.6980    1.1830   28.2310 C   0  0  0  0  0  0  0  0  0  0  0  0
    6.6330   -4.4170   21.6150 N   0  0  0  0  0  0  0  0  0  0  0  0
    6.1750   -4.1750   20.3050 C   0  0  0  0  0  0  0  0  0  0  0  0
    6.9970   -3.2900   19.3770 C   0  0  0  0  0  0  0  0  0  0  0  0
    5.1590   -4.7120   19.9120 O   0  0  0  0  0  0  0  0  0  0  0  0
  1  2  1  0
  2  3  2  0
  1  4  1  0
  2  5  1  0
  4  6  2  0
  4  7  1  0
  5  8  1  1
  6  9  1  0
  7 10  2  0
  6 11  1  0
  5 12  1  0
  8 13  1  0
 10 14  1  0
 11 14  2  0
 12 15  2  0
 12 16  1  0
 13 17  1  0
 15 18  1  0
 16 19  2  0
 19 20  1  0
 17 21  1  0
 17 22  1  1
 18 23  2  0
 19 23  1  0
 17 24  1  0
 20 25  3  0
 21 26  1  0
 24 27  2  0
 24 28  1  0
 26 29  1  0
 26 30  1  0
 27 31  1  0
 28 32  2  0
 29 33  1  0
 30 34  1  0
 31 35  2  0
 32 35  1  0
 33 36  1  0
 34 36  1  0
 36 37  1  0
 37 38  1  0
 37 39  2  0
M  END
