x1351-x0678
     RDKit          3D

 35 38  0  0  0  0  0  0  0  0999 V2000
    7.1120   -3.1580   19.1970 C   0  0  0  0  0  0  0  0  0  0  0  0
    6.1550   -3.8920   20.1910 C   0  0  0  0  0  0  0  0  0  0  0  0
    5.1320   -4.4380   19.8120 O   0  0  0  0  0  0  0  0  0  0  0  0
    6.5010   -3.9930   21.5440 N   0  0  0  0  0  0  0  0  0  0  0  0
    7.3510   -2.9740   22.1690 C   0  0  1  0  0  0  0  0  0  0  0  0
    6.3660   -5.1310   22.2270 C   0  0  0  0  0  0  0  0  0  0  0  0
    6.6410   -1.5870   22.0470 C   0  0  0  0  0  0  0  0  0  0  0  0
    7.6170   -3.3350   23.5270 C   0  0  0  0  0  0  0  0  0  0  0  0
    5.7150   -4.9630   23.6040 C   0  0  0  0  0  0  0  0  0  0  0  0
    7.4230   -0.5720   21.2540 N   0  0  0  0  0  0  0  0  0  0  0  0
    6.5940   -3.9270   24.3090 C   0  0  2  0  0  0  0  0  0  0  0  0
    5.9190   -2.8720   24.8450 N   0  0  0  0  0  0  0  0  0  0  0  0
    8.5850    0.1920   21.7570 C   0  0  0  0  0  0  0  0  0  0  0  0
    6.6970    0.0520   20.2280 C   0  0  0  0  0  0  0  0  0  0  0  0
    6.4020   -2.0440   25.9450 C   0  0  0  0  0  0  0  0  0  0  0  0
    9.0050    1.2760   21.3060 O   0  0  0  0  0  0  0  0  0  0  0  0
    9.1910   -0.4610   22.8360 C   0  0  0  0  0  0  0  0  0  0  0  0
    5.5370    0.8730   20.4290 C   0  0  0  0  0  0  0  0  0  0  0  0
    7.0980   -0.1100   18.9100 C   0  0  0  0  0  0  0  0  0  0  0  0
    7.5360   -2.7350   26.4760 O   0  0  0  0  0  0  0  0  0  0  0  0
    6.3480   -0.8480   26.8290 C   0  0  0  0  0  0  0  0  0  0  0  0
   10.6860   -0.4530   22.7060 C   0  0  0  0  0  0  0  0  0  0  0  0
    4.7880    1.5400   19.2400 C   0  0  0  0  0  0  0  0  0  0  0  0
    6.4540    0.4860   17.7470 N   0  0  0  0  0  0  0  0  0  0  0  0
    7.1660   -0.6930   27.9710 C   0  0  0  0  0  0  0  0  0  0  0  0
    5.4480    0.1900   26.5370 C   0  0  0  0  0  0  0  0  0  0  0  0
   11.2200   -1.6460   22.2160 C   0  0  0  0  0  0  0  0  0  0  0  0
   11.3180    0.0610   23.8020 C   0  0  0  0  0  0  0  0  0  0  0  0
    5.3270    1.2800   18.0030 C   0  0  0  0  0  0  0  0  0  0  0  0
    7.0320    0.5710   28.8130 C   0  0  0  0  0  0  0  0  0  0  0  0
    5.2810    1.3580   27.2620 C   0  0  0  0  0  0  0  0  0  0  0  0
   12.6130   -1.6900   22.1570 C   0  0  0  0  0  0  0  0  0  0  0  0
   12.6920    0.1010   23.8320 C   0  0  0  0  0  0  0  0  0  0  0  0
    6.0160    1.6400   28.4020 C   0  0  0  0  0  0  0  0  0  0  0  0
   13.3150   -0.8110   22.9770 C   0  0  0  0  0  0  0  0  0  0  0  0
  1  2  1  0
  2  3  2  0
  2  4  1  0
  4  5  1  0
  4  6  1  0
  5  7  1  1
  5  8  1  0
  6  9  1  0
  7 10  1  0
  8 11  1  0
  9 11  1  0
 11 12  1  6
 10 13  1  0
 10 14  1  0
 12 15  1  0
 13 16  2  0
 13 17  1  0
 14 18  2  0
 14 19  1  0
 15 20  2  0
 15 21  1  0
 17 22  1  0
 18 23  1  0
 19 24  2  0
 21 25  2  0
 21 26  1  0
 22 27  1  0
 22 28  1  0
 23 29  2  0
 24 29  1  0
 25 30  1  0
 26 31  2  0
 27 32  1  0
 28 33  1  0
 30 34  2  0
 31 34  1  0
 32 35  1  0
 33 35  1  0
M  END
