x1351-x0426-x2608-x2776
     RDKit          3D

 63 68  0  0  0  0  0  0  0  0999 V2000
    7.7730   -1.5270   21.4160 N   0  0  0  0  0  0  0  0  0  0  0  0
    7.1980   -0.1930   21.3700 C   0  0  1  0  0  0  0  0  0  0  0  0
    8.0660    0.9280   21.5000 C   0  0  0  0  0  0  0  0  0  0  0  0
    8.7520   -1.4270   22.4550 C   0  0  2  0  0  0  0  0  0  0  0  0
    7.2250   -2.6380   22.1040 C   0  0  2  0  0  0  0  0  0  0  0  0
    6.3710    0.1900   20.1090 C   0  0  0  0  0  0  0  0  0  0  0  0
   10.1880   -2.0220   22.7270 C   0  0  2  0  0  0  0  0  0  0  0  0
    8.3650   -0.6360   23.6740 C   0  0  0  0  0  0  0  0  0  0  0  0
    6.3310   -3.6560   21.3640 N   0  0  0  0  0  0  0  0  0  0  0  0
    6.1670   -2.4150   23.1450 C   0  0  0  0  0  0  0  0  0  0  0  0
    7.6000    2.1660   22.1790 N   0  0  0  0  0  0  0  0  0  0  0  0
    6.0650   -3.6710   20.0260 C   0  0  0  0  0  0  0  0  0  0  0  0
    4.9130    0.6440   20.2690 C   0  0  0  0  0  0  0  0  0  0  0  0
    6.9250    0.1570   18.8320 C   0  0  0  0  0  0  0  0  0  0  0  0
    9.8000   -2.3480   24.2000 C   0  0  0  0  0  0  0  0  0  0  0  0
   11.5820   -1.2850   22.8560 C   0  0  2  0  0  0  0  0  0  0  0  0
    6.3930   -3.4680   24.1910 C   0  0  1  0  0  0  0  0  0  0  0  0
    6.1040   -4.9390   22.0870 C   0  0  0  0  0  0  0  0  0  0  0  0
    8.8110   -1.5860   24.6930 C   0  0  0  0  0  0  0  0  0  0  0  0
   12.6520   -1.6660   23.8380 C   0  0  0  0  0  0  0  0  0  0  0  0
    4.1530    0.6870   21.5760 C   0  0  0  0  0  0  0  0  0  0  0  0
    7.0340   -3.0990   19.0290 C   0  0  0  0  0  0  0  0  0  0  0  0
    5.0400   -4.2200   19.6620 O   0  0  0  0  0  0  0  0  0  0  0  0
    5.5030   -3.0500   25.3160 N   0  0  0  0  0  0  0  0  0  0  0  0
    6.3550    0.4920   17.8570 N   0  0  0  0  0  0  0  0  0  0  0  0
    4.3240    1.0390   18.9610 C   0  0  0  0  0  0  0  0  0  0  0  0
    8.3430    3.3930   22.2540 C   0  0  0  0  0  0  0  0  0  0  0  0
   11.6240    0.2500   22.8050 C   0  0  2  0  0  0  0  0  0  0  0  0
    5.7680   -4.7140   23.6040 C   0  0  0  0  0  0  0  0  0  0  0  0
   12.3150   -2.8380   24.5640 O   0  0  0  0  0  0  0  0  0  0  0  0
    4.5520    1.9130   22.3870 C   0  0  0  0  0  0  0  0  0  0  0  0
   13.0870    0.6630   22.8450 C   0  0  0  0  0  0  0  0  0  0  0  0
    6.1000   -2.5840   26.5460 C   0  0  0  0  0  0  0  0  0  0  0  0
    5.0880    0.9440   17.8460 C   0  0  0  0  0  0  0  0  0  0  0  0
    7.6910    4.5990   22.7480 C   0  0  0  0  0  0  0  0  0  0  0  0
   10.7080    1.2610   23.6500 S   0  0  0  0  0  0  0  0  0  0  0  0
   11.3030    1.3580   22.3730 O   0  0  0  0  0  0  0  0  0  0  0  0
    9.7680    2.0850   24.7170 C   0  0  0  0  0  0  0  0  0  0  0  0
   13.4410   -3.0200   25.3390 C   0  0  0  0  0  0  0  0  0  0  0  0
    3.4070    2.6860   22.8910 N   0  0  0  0  0  0  0  0  0  0  0  0
    6.6620   -3.3710   27.3230 O   0  0  0  0  0  0  0  0  0  0  0  0
    8.4540    5.7830   22.8520 C   0  0  0  0  0  0  0  0  0  0  0  0
   10.7410    0.0690   24.7530 C   0  0  0  0  0  0  0  0  0  0  0  0
    6.0730   -1.1800   27.0180 C   0  0  0  0  0  0  0  0  0  0  0  0
    2.3700    1.9520   23.6430 C   0  0  0  0  0  0  0  0  0  0  0  0
    9.2400    3.4560   24.5160 C   0  0  0  0  0  0  0  0  0  0  0  0
    9.6280    5.6920   23.8930 C   0  0  2  0  0  0  0  0  0  0  0  0
    6.8090   -0.8110   28.1470 C   0  0  0  0  0  0  0  0  0  0  0  0
    5.3050   -0.2340   26.3390 C   0  0  0  0  0  0  0  0  0  0  0  0
   10.5700    6.4880   23.7330 O   0  0  0  0  0  0  0  0  0  0  0  0
    2.3600    0.7080   23.6390 O   0  0  0  0  0  0  0  0  0  0  0  0
   10.1220    4.4280   24.0660 C   0  0  0  0  0  0  0  0  0  0  0  0
    1.2630    2.5880   24.4450 C   0  0  0  0  0  0  0  0  0  0  0  0
    6.7740    0.5000   28.6010 C   0  0  0  0  0  0  0  0  0  0  0  0
    5.2390    1.0620   26.7450 C   0  0  0  0  0  0  0  0  0  0  0  0
   11.6010    6.5190   24.7300 C   0  0  0  0  0  0  0  0  0  0  0  0
    1.5270    3.8770   25.2540 C   0  0  0  0  0  0  0  0  0  0  0  0
   -0.1270    1.9840   24.4700 C   0  0  0  0  0  0  0  0  0  0  0  0
    5.9300    1.5480   27.8660 C   0  0  0  0  0  0  0  0  0  0  0  0
    2.7440    4.4440   25.2590 F   0  0  0  0  0  0  0  0  0  0  0  0
   -1.2290    2.6540   25.2810 C   0  0  0  0  0  0  0  0  0  0  0  0
    0.5150    4.4950   26.0000 C   0  0  0  0  0  0  0  0  0  0  0  0
   -0.9140    3.9400   26.0680 C   0  0  0  0  0  0  0  0  0  0  0  0
  1  2  1  0
  2  3  1  0
  1  4  1  0
  5  1  1  6
  2  6  1  6
  4  7  1  0
  4  8  1  1
  5  9  1  0
  5 10  1  0
  3 11  1  0
  9 12  1  0
  6 13  1  0
  6 14  2  0
  7 15  1  1
  7 16  1  0
 10 17  1  0
  9 18  1  0
  8 19  1  0
 15 19  2  0
 16 20  1  1
 13 21  1  0
 12 22  1  0
 12 23  2  0
 17 24  1  1
 14 25  1  0
 13 26  2  0
 11 27  1  0
 16 28  1  0
 17 29  1  0
 18 29  1  0
 20 30  1  0
 21 31  1  0
 28 32  1  1
 24 33  1  0
 25 34  2  0
 26 34  1  0
 27 35  2  0
 28 36  1  0
 36 37  1  0
 36 38  2  0
 30 39  1  0
 31 40  1  0
 33 41  2  0
 35 42  1  0
 36 43  1  0
 33 44  1  0
 40 45  1  0
 38 46  1  0
 42 47  1  0
 44 48  2  0
 44 49  1  0
 47 50  1  6
 45 51  2  0
 46 52  2  0
 47 52  1  0
 45 53  1  0
 48 54  1  0
 49 55  2  0
 50 56  1  0
 53 57  2  0
 53 58  1  0
 54 59  2  0
 55 59  1  0
 57 60  1  0
 58 61  2  0
 57 62  1  0
 61 63  1  0
 62 63  2  0
M  END
