x1351-x0755-x0749-x3113
     RDKit          3D

 60 66  0  0  0  0  0  0  0  0999 V2000
    7.4830   -1.5620   22.0700 N   0  0  0  0  0  0  0  0  0  0  0  0
    7.1020   -0.1180   21.8570 C   0  0  1  0  0  0  0  0  0  0  0  0
    8.1150    0.9620   22.1980 C   0  0  0  0  0  0  0  0  0  0  0  0
    8.5830   -2.1070   22.7930 C   0  0  1  0  0  0  0  0  0  0  0  0
    6.4370   -2.6240   22.0620 C   0  0  0  0  0  0  0  0  0  0  0  0
    6.5300    0.2740   20.4510 C   0  0  0  0  0  0  0  0  0  0  0  0
    9.8350   -2.2400   22.2640 C   0  0  1  0  0  0  0  0  0  0  0  0
    8.7540   -1.8760   24.1310 C   0  0  0  0  0  0  0  0  0  0  0  0
    7.1180   -3.8770   22.0450 C   0  0  2  0  0  0  0  0  0  0  0  0
    8.2600    1.2480   23.3150 N   0  0  0  0  0  0  0  0  0  0  0  0
    8.7580    1.5490   21.0540 O   0  0  0  0  0  0  0  0  0  0  0  0
    5.4150    1.1270   20.3460 C   0  0  0  0  0  0  0  0  0  0  0  0
    7.0280   -0.1470   19.0990 C   0  0  0  0  0  0  0  0  0  0  0  0
   10.1310   -0.9470   21.9620 C   0  0  0  0  0  0  0  0  0  0  0  0
   10.6170   -2.8660   23.3670 C   0  0  2  0  0  0  0  0  0  0  0  0
    9.9480   -2.7510   24.5520 C   0  0  2  0  0  0  0  0  0  0  0  0
    6.6140   -4.7290   21.1570 N   0  0  0  0  0  0  0  0  0  0  0  0
    7.1850   -4.5340   23.4240 C   0  0  0  0  0  0  0  0  0  0  0  0
    9.3060    2.1950   23.7180 C   0  0  0  0  0  0  0  0  0  0  0  0
    6.4040    0.3100   17.8660 N   0  0  0  0  0  0  0  0  0  0  0  0
    4.8030    1.5710   19.2270 C   0  0  0  0  0  0  0  0  0  0  0  0
   11.2370   -0.4950   22.4940 C   0  0  0  0  0  0  0  0  0  0  0  0
   12.1150   -2.4350   23.5770 C   0  0  1  0  0  0  0  0  0  0  0  0
    6.2220   -4.0600   20.0020 C   0  0  0  0  0  0  0  0  0  0  0  0
    7.6040   -5.8180   23.3390 C   0  0  0  0  0  0  0  0  0  0  0  0
    5.8660   -5.8620   21.7270 C   0  0  0  0  0  0  0  0  0  0  0  0
    9.6180   -4.0960   25.3050 C   0  0  0  0  0  0  0  0  0  0  0  0
   10.4430    2.5100   22.7590 C   0  0  0  0  0  0  0  0  0  0  0  0
   12.3540   -0.8650   23.3090 C   0  0  1  0  0  0  0  0  0  0  0  0
    5.2460    1.2060   17.9680 C   0  0  0  0  0  0  0  0  0  0  0  0
   12.7160   -2.8530   24.8130 C   0  0  0  0  0  0  0  0  0  0  0  0
    7.3310   -3.2760   19.2670 C   0  0  0  0  0  0  0  0  0  0  0  0
    5.0640   -4.1310   19.6430 O   0  0  0  0  0  0  0  0  0  0  0  0
    6.5290   -6.6430   22.6540 C   0  0  0  0  0  0  0  0  0  0  0  0
    8.6690   -4.0980   26.3280 C   0  0  0  0  0  0  0  0  0  0  0  0
   11.5120    3.4210   23.3480 C   0  0  0  0  0  0  0  0  0  0  0  0
   13.6090   -0.7640   22.5200 C   0  0  0  0  0  0  0  0  0  0  0  0
   12.6560   -0.4260   24.8030 C   0  0  0  0  0  0  0  0  0  0  0  0
    7.6850   -3.0880   26.0300 N   0  0  0  0  0  0  0  0  0  0  0  0
   12.6020   -1.5510   24.2960 C   0  0  0  0  0  0  0  0  0  0  0  0
   11.8280    4.4220   22.7290 O   0  0  0  0  0  0  0  0  0  0  0  0
    6.4220   -2.9970   26.6970 C   0  0  0  0  0  0  0  0  0  0  0  0
   13.2280    4.6790   22.7700 C   0  0  0  0  0  0  0  0  0  0  0  0
    5.4140   -1.9940   26.3900 N   0  0  0  0  0  0  0  0  0  0  0  0
    4.0890   -2.4880   26.1820 C   0  0  0  0  0  0  0  0  0  0  0  0
    5.6270   -0.7580   27.1210 C   0  0  0  0  0  0  0  0  0  0  0  0
    3.7450   -3.8850   26.1330 C   0  0  0  0  0  0  0  0  0  0  0  0
    3.1140   -1.5760   26.0320 C   0  0  0  0  0  0  0  0  0  0  0  0
    5.4320    0.4820   26.5300 C   0  0  0  0  0  0  0  0  0  0  0  0
    6.0360   -1.0360   28.4020 C   0  0  0  0  0  0  0  0  0  0  0  0
    4.8130   -5.2480   26.3270 S   0  0  0  0  0  0  0  0  0  0  0  0
    2.2860   -4.2430   25.8980 C   0  0  0  0  0  0  0  0  0  0  0  0
    1.7780   -1.8110   25.8300 C   0  0  0  0  0  0  0  0  0  0  0  0
    6.3590    0.0470   29.4010 C   0  0  0  0  0  0  0  0  0  0  0  0
    5.7270    1.6760   27.4530 C   0  0  0  0  0  0  0  0  0  0  0  0
    4.0820   -6.4270   25.9470 O   0  0  0  0  0  0  0  0  0  0  0  0
    6.1220   -5.0190   25.7900 O   0  0  0  0  0  0  0  0  0  0  0  0
    1.8880   -5.5180   25.8320 F   0  0  0  0  0  0  0  0  0  0  0  0
    1.3700   -3.2750   25.7570 C   0  0  0  0  0  0  0  0  0  0  0  0
    6.1940    1.4650   28.8920 C   0  0  0  0  0  0  0  0  0  0  0  0
  1  2  1  0
  2  3  1  6
  4  1  1  6
  1  5  1  0
  2  6  1  0
  4  7  1  0
  4  8  1  0
  9  5  1  1
  3 10  1  0
  3 11  2  0
  6 12  2  0
  6 13  1  0
  7 14  1  1
  7 15  1  0
  8 16  1  0
 15 16  1  1
  9 17  1  0
  9 18  1  0
 10 19  1  0
 13 20  2  0
 12 21  1  0
 14 22  2  0
 15 23  1  0
 17 24  1  0
 18 25  1  0
 17 26  1  0
 16 27  1  6
 19 28  1  0
 22 29  1  0
 23 29  1  0
 20 30  1  0
 21 30  2  0
 23 31  1  1
 24 32  1  0
 24 33  2  0
 25 34  1  0
 26 34  1  0
 27 35  1  0
 28 36  1  0
 29 37  1  6
 29 38  1  0
 35 39  1  0
 31 40  1  0
 38 40  2  0
 36 41  1  0
 39 42  2  3
 41 43  1  0
 42 44  1  0
 44 45  1  0
 44 46  1  0
 45 47  2  0
 45 48  1  0
 46 49  2  0
 46 50  1  0
 47 51  1  0
 47 52  1  0
 48 53  2  0
 50 54  2  0
 49 55  1  0
 51 56  2  0
 51 57  2  0
 52 58  1  0
 52 59  2  0
 53 59  1  0
 54 60  1  0
 55 60  2  0
M  END
