x1358-x0540-x1458-x2540
     RDKit          3D

 65 70  0  0  0  0  0  0  0  0999 V2000
    7.8450   -0.9960   21.3380 N   0  0  0  0  0  0  0  0  0  0  0  0
    7.1400    0.2970   21.4780 C   0  0  1  0  0  0  0  0  0  0  0  0
    8.1040    1.5170   21.5930 C   0  0  0  0  0  0  0  0  0  0  0  0
    7.7520   -1.7010   22.5490 C   0  0  2  0  0  0  0  0  0  0  0  0
    6.3260    0.5440   20.2290 C   0  0  0  0  0  0  0  0  0  0  0  0
    8.6340   -1.2810   23.5240 N   0  0  0  0  0  0  0  0  0  0  0  0
    7.6920   -3.2690   22.3950 C   0  0  2  0  0  0  0  0  0  0  0  0
    7.8190    2.4380   22.5750 N   0  0  0  0  0  0  0  0  0  0  0  0
    9.0380    1.6740   20.8680 O   0  0  0  0  0  0  0  0  0  0  0  0
    4.9480    1.1000   20.2510 C   0  0  0  0  0  0  0  0  0  0  0  0
    6.9360    0.2120   18.9050 C   0  0  0  0  0  0  0  0  0  0  0  0
    9.8180   -2.1000   23.6380 O   0  0  0  0  0  0  0  0  0  0  0  0
    9.0540   -0.0150   23.4970 C   0  0  0  0  0  0  0  0  0  0  0  0
    6.4860   -3.9650   21.6920 C   0  0  0  0  0  0  0  0  0  0  0  0
    7.8000   -3.7440   23.8260 C   0  0  0  0  0  0  0  0  0  0  0  0
    8.7960    3.2930   23.2720 C   0  0  0  0  0  0  0  0  0  0  0  0
    4.0520    1.4920   21.3980 C   0  0  0  0  0  0  0  0  0  0  0  0
    6.5950   -4.4460   20.2740 C   0  0  0  0  0  0  0  0  0  0  0  0
    5.5030   -3.0800   20.9400 C   0  0  0  0  0  0  0  0  0  0  0  0
    6.3170    0.4270   17.7640 N   0  0  0  0  0  0  0  0  0  0  0  0
    4.4730    1.2520   19.0070 C   0  0  0  0  0  0  0  0  0  0  0  0
   10.3060   -0.0440   23.1240 C   0  0  0  0  0  0  0  0  0  0  0  0
   10.8410   -1.3230   22.9280 C   0  0  1  0  0  0  0  0  0  0  0  0
    6.6870   -4.3310   24.4020 C   0  0  2  0  0  0  0  0  0  0  0  0
    5.7900   -5.2400   22.3770 C   0  0  0  0  0  0  0  0  0  0  0  0
    8.5990    3.0530   24.7530 C   0  0  0  0  0  0  0  0  0  0  0  0
    8.5520    4.7720   22.9410 C   0  0  0  0  0  0  0  0  0  0  0  0
   10.2710    2.9860   22.9160 C   0  0  0  0  0  0  0  0  0  0  0  0
   12.2290   -1.3960   23.5720 C   0  0  0  0  0  0  0  0  0  0  0  0
    4.7370    2.2080   22.3670 C   0  0  0  0  0  0  0  0  0  0  0  0
    6.0510   -5.5050   19.9870 O   0  0  0  0  0  0  0  0  0  0  0  0
    6.0090   -3.5050   25.5660 C   0  0  0  0  0  0  0  0  0  0  0  0
    7.2380   -3.4850   19.2820 C   0  0  0  0  0  0  0  0  0  0  0  0
    4.6990   -3.7230   20.0400 O   0  0  0  0  0  0  0  0  0  0  0  0
    5.5130   -3.5580   24.4710 C   0  0  0  0  0  0  0  0  0  0  0  0
    5.4540   -1.7640   20.9860 C   0  0  0  0  0  0  0  0  0  0  0  0
    5.1130    0.9460   17.8810 C   0  0  0  0  0  0  0  0  0  0  0  0
    6.1520   -5.5240   23.6370 C   0  0  0  0  0  0  0  0  0  0  0  0
   13.2230   -1.2750   22.4280 C   0  0  0  0  0  0  0  0  0  0  0  0
   12.4560   -0.1980   24.5000 C   0  0  0  0  0  0  0  0  0  0  0  0
   12.5320   -2.6850   24.3500 C   0  0  0  0  0  0  0  0  0  0  0  0
    3.9100    3.0160   23.0610 N   0  0  0  0  0  0  0  0  0  0  0  0
    6.6240   -3.4010   26.7970 N   0  0  0  0  0  0  0  0  0  0  0  0
    4.7560   -2.8990   25.0960 N   0  0  0  0  0  0  0  0  0  0  0  0
    5.1340   -2.9040   25.7260 N   0  0  0  0  0  0  0  0  0  0  0  0
    4.6640   -3.3090   23.7390 N   0  0  0  0  0  0  0  0  0  0  0  0
    2.8660    2.4080   23.6530 C   0  0  0  0  0  0  0  0  0  0  0  0
    7.3550   -4.4850   27.2670 C   0  0  0  0  0  0  0  0  0  0  0  0
    6.3930   -2.1390   27.5940 C   0  0  0  0  0  0  0  0  0  0  0  0
    2.8550    1.5080   24.7040 O   0  0  0  0  0  0  0  0  0  0  0  0
    1.6310    2.6820   23.1490 N   0  0  0  0  0  0  0  0  0  0  0  0
    8.7240   -4.4500   27.5020 C   0  0  0  0  0  0  0  0  0  0  0  0
    6.4780   -5.2680   28.2360 C   0  0  0  0  0  0  0  0  0  0  0  0
    6.1400   -0.9110   26.8660 C   0  0  0  0  0  0  0  0  0  0  0  0
    6.4160   -2.1100   28.9740 C   0  0  0  0  0  0  0  0  0  0  0  0
    6.0860   -0.8380   25.5010 O   0  0  0  0  0  0  0  0  0  0  0  0
    0.5340    3.1170   24.0100 C   0  0  0  0  0  0  0  0  0  0  0  0
    6.2200   -0.9150   29.6980 C   0  0  0  0  0  0  0  0  0  0  0  0
    5.9470    0.2590   27.6030 C   0  0  0  0  0  0  0  0  0  0  0  0
    0.6440    4.4940   24.2890 C   0  0  0  0  0  0  0  0  0  0  0  0
   -0.6350    2.7890   23.3170 C   0  0  0  0  0  0  0  0  0  0  0  0
    5.9870    0.2710   28.9910 C   0  0  0  0  0  0  0  0  0  0  0  0
   -0.4160    5.0260   24.9390 C   0  0  0  0  0  0  0  0  0  0  0  0
   -1.7550    3.2710   23.8870 C   0  0  0  0  0  0  0  0  0  0  0  0
   -1.6480    4.7300   24.3480 C   0  0  0  0  0  0  0  0  0  0  0  0
  2  1  1  6
  2  3  1  0
  4  1  1  6
  2  5  1  0
  4  6  1  0
  4  7  1  0
  3  8  1  0
  3  9  2  0
  5 10  1  0
  5 11  2  0
  6 12  1  0
  6 13  1  0
  7 14  1  0
  7 15  1  1
 16  8  1  0
 10 17  1  0
 14 18  1  0
 14 19  1  0
 11 20  1  0
 10 21  2  0
 13 22  2  0
 12 23  1  0
 22 23  1  0
 24 15  1  6
 14 25  1  0
 16 26  1  0
 16 27  1  0
 16 28  1  0
 23 29  1  1
 17 30  1  0
 18 31  2  0
 24 32  1  0
 18 33  1  0
 19 34  2  0
 24 35  1  0
 19 36  1  0
 20 37  2  0
 21 37  1  0
 24 38  1  0
 25 38  1  0
 29 39  1  0
 29 40  1  0
 29 41  1  0
 30 42  1  0
 32 43  1  0
 32 44  2  0
 35 45  1  0
 35 46  2  0
 44 46  1  0
 42 47  1  0
 43 48  1  0
 43 49  1  0
 47 50  2  0
 47 51  1  0
 48 52  1  0
 48 53  1  0
 49 54  2  0
 49 55  1  0
 54 56  1  0
 51 57  1  0
 55 58  2  0
 54 59  1  0
 57 60  1  0
 57 61  1  0
 58 62  1  0
 59 62  2  0
 60 63  1  0
 61 64  1  0
 63 65  1  0
 64 65  1  0
M  END
