x1351-x3108
     RDKit          3D

 39 42  0  0  0  0  0  0  0  0999 V2000
    5.9550    1.6410   21.9690 C   0  0  0  0  0  0  0  0  0  0  0  0
    6.0670    1.1840   20.5450 C   0  0  0  0  0  0  0  0  0  0  0  0
    7.0080    0.2480   20.1810 C   0  0  0  0  0  0  0  0  0  0  0  0
    5.2250    1.6930   19.5590 C   0  0  0  0  0  0  0  0  0  0  0  0
    7.8480   -0.2330   21.3210 N   0  0  0  0  0  0  0  0  0  0  0  0
    7.1740   -0.2250   18.8930 C   0  0  0  0  0  0  0  0  0  0  0  0
    5.3980    1.2100   18.2550 C   0  0  0  0  0  0  0  0  0  0  0  0
    9.1780    0.2060   21.7370 C   0  0  0  0  0  0  0  0  0  0  0  0
    6.3290    0.2890   17.9110 N   0  0  0  0  0  0  0  0  0  0  0  0
    9.5830    1.3740   21.7770 O   0  0  0  0  0  0  0  0  0  0  0  0
   10.1120   -0.9500   22.1560 C   0  0  0  0  0  0  0  0  0  0  0  0
    9.7020   -1.6650   23.2910 N   0  0  0  0  0  0  0  0  0  0  0  0
    8.6180   -1.3520   24.2120 C   0  0  0  0  0  0  0  0  0  0  0  0
    8.5710    0.0010   24.6480 O   0  0  0  0  0  0  0  0  0  0  0  0
    7.2780   -2.4120   24.9180 S   0  0  0  0  0  0  0  0  0  0  0  0
    7.3450   -1.2020   25.9520 N   0  0  0  0  0  0  0  0  0  0  0  0
    6.2100   -3.0570   26.1270 N   0  0  0  0  0  0  0  0  0  0  0  0
    8.2000   -3.6990   25.4400 C   0  0  0  0  0  0  0  0  0  0  0  0
    6.2180   -2.6210   23.5200 C   0  0  1  0  0  0  0  0  0  0  0  0
    8.9470   -4.5660   24.4560 C   0  0  0  0  0  0  0  0  0  0  0  0
    8.2800   -4.0770   26.8960 C   0  0  0  0  0  0  0  0  0  0  0  0
    7.0610   -2.9630   22.2350 C   0  0  0  0  0  0  0  0  0  0  0  0
    5.4640   -3.7270   23.9700 C   0  0  0  0  0  0  0  0  0  0  0  0
    5.6620   -2.6290   27.4610 C   0  0  0  0  0  0  0  0  0  0  0  0
    9.6550   -5.6440   24.7540 N   0  0  0  0  0  0  0  0  0  0  0  0
    9.0850   -5.3080   27.2860 C   0  0  0  0  0  0  0  0  0  0  0  0
    6.5950   -4.1330   21.5020 N   0  0  0  0  0  0  0  0  0  0  0  0
    4.9040   -4.4760   22.9700 C   0  0  0  0  0  0  0  0  0  0  0  0
    5.3560   -1.1700   27.4630 C   0  0  0  0  0  0  0  0  0  0  0  0
    6.2360   -3.9540   20.1750 C   0  0  0  0  0  0  0  0  0  0  0  0
    9.7260   -6.0130   26.0680 C   0  0  0  0  0  0  0  0  0  0  0  0
    5.9490   -5.1870   22.2050 C   0  0  0  0  0  0  0  0  0  0  0  0
    5.2690   -0.4560   28.6640 C   0  0  0  0  0  0  0  0  0  0  0  0
    5.1560   -0.5310   26.2410 C   0  0  0  0  0  0  0  0  0  0  0  0
    7.1960   -3.2170   19.2450 C   0  0  0  0  0  0  0  0  0  0  0  0
    5.1700   -4.4180   19.8030 O   0  0  0  0  0  0  0  0  0  0  0  0
    4.9660    1.0390   28.6020 C   0  0  0  0  0  0  0  0  0  0  0  0
    4.8800    0.8220   26.1180 C   0  0  0  0  0  0  0  0  0  0  0  0
    4.7670    1.6810   27.2060 C   0  0  0  0  0  0  0  0  0  0  0  0
  1  2  1  0
  2  3  2  0
  2  4  1  0
  3  5  1  0
  3  6  1  0
  4  7  2  0
  5  8  1  0
  6  9  2  0
  7  9  1  0
  8 10  2  0
  8 11  1  0
 11 12  1  0
 12 13  1  0
 13 14  2  0
 13 15  1  0
 15 16  1  0
 15 17  2  3
 15 18  1  0
 19 15  1  1
 18 20  2  0
 18 21  1  0
 19 22  1  0
 19 23  1  0
 17 24  1  0
 20 25  1  0
 21 26  2  0
 22 27  1  0
 23 28  1  0
 24 29  1  0
 27 30  1  0
 25 31  2  0
 26 31  1  0
 27 32  1  0
 28 32  1  0
 29 33  2  0
 29 34  1  0
 30 35  1  0
 30 36  2  0
 33 37  1  0
 34 38  2  0
 37 39  2  0
 38 39  1  0
M  END
