x1351-x2572
     RDKit          3D

 38 41  0  0  0  0  0  0  0  0999 V2000
    7.0780   -3.1780   19.1480 C   0  0  0  0  0  0  0  0  0  0  0  0
    6.1270   -3.8680   20.1800 C   0  0  0  0  0  0  0  0  0  0  0  0
    5.1470   -4.5000   19.8250 O   0  0  0  0  0  0  0  0  0  0  0  0
    6.4180   -3.8190   21.5210 N   0  0  0  0  0  0  0  0  0  0  0  0
    7.1680   -2.8420   22.0930 C   0  0  1  0  0  0  0  0  0  0  0  0
    6.1920   -5.0970   22.2470 C   0  0  0  0  0  0  0  0  0  0  0  0
    6.4290   -1.6530   21.8400 C   0  0  0  0  0  0  0  0  0  0  0  0
    7.2560   -3.1380   23.4670 C   0  0  0  0  0  0  0  0  0  0  0  0
    5.5190   -4.7400   23.5760 C   0  0  0  0  0  0  0  0  0  0  0  0
    7.1490   -0.7120   21.1540 N   0  0  0  0  0  0  0  0  0  0  0  0
    5.9680   -3.3360   23.9820 C   0  0  1  0  0  0  0  0  0  0  0  0
    5.8570   -3.1140   25.4320 N   0  0  0  0  0  0  0  0  0  0  0  0
    8.2370    0.0630   21.7830 C   0  0  0  0  0  0  0  0  0  0  0  0
    6.4050    0.0220   20.1300 C   0  0  0  0  0  0  0  0  0  0  0  0
    6.8670   -2.4440   26.2460 C   0  0  0  0  0  0  0  0  0  0  0  0
    8.8380    1.2690   21.2280 O   0  0  0  0  0  0  0  0  0  0  0  0
    8.7700   -0.3080   23.0120 C   0  0  0  0  0  0  0  0  0  0  0  0
    6.9410   -0.0100   18.8640 C   0  0  0  0  0  0  0  0  0  0  0  0
    5.1160    0.8100   20.3240 C   0  0  0  0  0  0  0  0  0  0  0  0
    8.1580   -2.9840   26.4680 O   0  0  0  0  0  0  0  0  0  0  0  0
    4.4260    0.9400   21.5700 C   0  0  0  0  0  0  0  0  0  0  0  0
    6.4720   -1.1220   26.8820 C   0  0  0  0  0  0  0  0  0  0  0  0
    6.4060    0.6490   17.6580 N   0  0  0  0  0  0  0  0  0  0  0  0
    4.5750    1.4460   19.2050 C   0  0  0  0  0  0  0  0  0  0  0  0
   10.2610   -0.2460   22.9540 C   0  0  0  0  0  0  0  0  0  0  0  0
    7.0620   -0.7640   28.0860 C   0  0  0  0  0  0  0  0  0  0  0  0
    5.4670   -0.1270   26.3190 C   0  0  0  0  0  0  0  0  0  0  0  0
    5.2700    1.3410   17.8590 C   0  0  0  0  0  0  0  0  0  0  0  0
   10.9430    0.7840   23.6100 C   0  0  0  0  0  0  0  0  0  0  0  0
   10.9520   -1.2140   22.2430 C   0  0  0  0  0  0  0  0  0  0  0  0
    6.7310    0.5520   28.8220 C   0  0  0  0  0  0  0  0  0  0  0  0
    5.0630    1.2220   26.9750 C   0  0  0  0  0  0  0  0  0  0  0  0
   12.3190    0.8620   23.5520 C   0  0  0  0  0  0  0  0  0  0  0  0
   12.3250   -1.1530   22.1800 C   0  0  0  0  0  0  0  0  0  0  0  0
   12.9870   -2.1590   21.4410 C   0  0  0  0  0  0  0  0  0  0  0  0
    5.6960    1.5230   28.1940 C   0  0  0  0  0  0  0  0  0  0  0  0
   12.9650   -0.1190   22.8330 C   0  0  0  0  0  0  0  0  0  0  0  0
   13.5680   -3.2750   20.6620 N   0  0  0  0  0  0  0  0  0  0  0  0
  1  2  1  0
  2  3  2  0
  2  4  1  0
  4  5  1  0
  4  6  1  0
  5  7  1  1
  5  8  1  0
  6  9  1  0
  7 10  1  0
  8 11  1  0
  9 11  1  0
 11 12  1  1
 10 13  1  0
 10 14  1  0
 12 15  1  0
 13 16  2  0
 13 17  1  0
 14 18  2  0
 14 19  1  0
 15 20  2  0
 19 21  1  0
 15 22  1  0
 18 23  1  0
 19 24  2  0
 17 25  1  0
 22 26  2  0
 22 27  1  0
 23 28  2  0
 24 28  1  0
 25 29  2  0
 25 30  1  0
 26 31  1  0
 27 32  2  0
 29 33  1  0
 30 34  2  0
 34 35  1  0
 31 36  2  0
 32 36  1  0
 33 37  2  0
 34 37  1  0
 35 38  3  0
M  END
