x1358-x1249
     RDKit          3D

 37 40  0  0  0  0  0  0  0  0999 V2000
    6.7560   -2.7920   26.1250 N   0  0  0  0  0  0  0  0  0  0  0  0
    5.7530   -3.3310   25.2300 C   0  0  0  0  0  0  0  0  0  0  0  0
    4.5480   -3.4120   25.4680 O   0  0  0  0  0  0  0  0  0  0  0  0
    6.7190   -1.6720   26.9720 C   0  0  0  0  0  0  0  0  0  0  0  0
    6.2970   -0.3240   26.3830 C   0  0  0  0  0  0  0  0  0  0  0  0
    7.0880   -1.7740   28.4290 C   0  0  0  0  0  0  0  0  0  0  0  0
    6.4000   -3.8170   23.9290 C   0  0  0  0  0  0  0  0  0  0  0  0
    5.9680   -0.2510   25.0330 O   0  0  0  0  0  0  0  0  0  0  0  0
    6.9860   -0.4590   29.1610 C   0  0  0  0  0  0  0  0  0  0  0  0
    6.2510    0.8060   27.2000 C   0  0  0  0  0  0  0  0  0  0  0  0
    6.8850   -2.7520   23.1930 C   0  0  0  0  0  0  0  0  0  0  0  0
    5.5420   -4.4600   23.0920 C   0  0  0  0  0  0  0  0  0  0  0  0
    6.5740    0.7400   28.5030 C   0  0  0  0  0  0  0  0  0  0  0  0
    7.5160   -3.0340   22.0530 C   0  0  0  0  0  0  0  0  0  0  0  0
    6.2700   -5.1220   22.0240 C   0  0  0  0  0  0  0  0  0  0  0  0
    5.9220    0.9510   24.1920 C   0  0  0  0  0  0  0  0  0  0  0  0
    7.3500    1.4600   24.2120 C   0  0  0  0  0  0  0  0  0  0  0  0
    6.7630   -4.0650   21.3310 N   0  0  0  0  0  0  0  0  0  0  0  0
    5.6970    0.6980   22.8430 C   0  0  0  0  0  0  0  0  0  0  0  0
    4.9250    1.7520   24.7330 C   0  0  0  0  0  0  0  0  0  0  0  0
    6.2590   -3.8800   20.0720 C   0  0  0  0  0  0  0  0  0  0  0  0
    8.2430    0.6410   24.8540 N   0  0  0  0  0  0  0  0  0  0  0  0
    7.7140    2.5140   23.6910 O   0  0  0  0  0  0  0  0  0  0  0  0
    4.3690    0.9550   22.4640 C   0  0  0  0  0  0  0  0  0  0  0  0
    3.7600    1.0030   24.8080 C   0  0  0  0  0  0  0  0  0  0  0  0
    5.1600   -4.2910   19.7510 O   0  0  0  0  0  0  0  0  0  0  0  0
    7.1780   -3.1760   19.0830 C   0  0  0  0  0  0  0  0  0  0  0  0
    9.5320    0.9940   25.1590 C   0  0  0  0  0  0  0  0  0  0  0  0
    3.4670    0.5100   23.4840 O   0  0  0  0  0  0  0  0  0  0  0  0
   10.4740    0.2990   24.2410 C   0  0  0  0  0  0  0  0  0  0  0  0
   11.6630    0.8840   23.7780 C   0  0  0  0  0  0  0  0  0  0  0  0
   10.0380   -1.1030   23.8390 C   0  0  0  0  0  0  0  0  0  0  0  0
   12.5190    0.2060   22.9090 C   0  0  0  0  0  0  0  0  0  0  0  0
   10.9990   -1.7200   22.9260 C   0  0  0  0  0  0  0  0  0  0  0  0
   12.1880   -1.1250   22.4620 C   0  0  0  0  0  0  0  0  0  0  0  0
   12.9400   -1.9080   21.5880 C   0  0  0  0  0  0  0  0  0  0  0  0
   13.5170   -2.7660   20.7470 N   0  0  0  0  0  0  0  0  0  0  0  0
  1  2  1  0
  2  3  2  0
  1  4  1  0
  4  5  1  0
  4  6  2  0
  2  7  1  0
  5  8  1  0
  6  9  1  0
  5 10  2  0
  7 11  1  0
  7 12  1  0
  9 13  2  0
 10 13  1  0
 11 14  1  0
 12 15  1  0
 16  8  1  0
 16 17  1  0
 14 18  1  0
 15 18  1  0
 16 19  1  0
 16 20  1  0
 18 21  1  0
 17 22  1  0
 17 23  2  0
 19 24  1  0
 20 25  1  0
 21 26  2  0
 21 27  1  0
 22 28  1  0
 24 29  1  0
 25 29  1  0
 28 30  1  0
 30 31  2  0
 30 32  1  0
 31 33  1  0
 32 34  2  0
 33 35  2  0
 34 35  1  0
 35 36  1  0
 36 37  3  0
M  END
