x1351-x3115
     RDKit          3D

 43 46  0  0  0  0  0  0  0  0999 V2000
    7.5210   -1.6890   21.6700 N   0  0  0  0  0  0  0  0  0  0  0  0
    6.9010   -0.2680   21.6810 C   0  0  1  0  0  0  0  0  0  0  0  0
    7.9370    0.9130   21.9060 C   0  0  0  0  0  0  0  0  0  0  0  0
    8.7880   -1.7080   22.2570 C   0  0  0  0  0  0  0  0  0  0  0  0
    6.9090   -2.8070   22.2590 C   0  0  2  0  0  0  0  0  0  0  0  0
    6.2610    0.2170   20.3950 C   0  0  0  0  0  0  0  0  0  0  0  0
    9.8730   -1.1560   21.6560 C   0  0  0  0  0  0  0  0  0  0  0  0
    9.0120   -2.3010   23.4900 C   0  0  0  0  0  0  0  0  0  0  0  0
    6.0550   -3.5930   21.5710 N   0  0  0  0  0  0  0  0  0  0  0  0
    6.1810   -2.3210   23.5150 C   0  0  0  0  0  0  0  0  0  0  0  0
    7.9490    1.4800   23.1750 N   0  0  0  0  0  0  0  0  0  0  0  0
    8.6730    1.3710   21.0230 O   0  0  0  0  0  0  0  0  0  0  0  0
    6.0090   -3.7920   20.1990 C   0  0  0  0  0  0  0  0  0  0  0  0
    5.0560    0.9460   20.3730 C   0  0  0  0  0  0  0  0  0  0  0  0
    6.8330    0.0090   19.0130 C   0  0  0  0  0  0  0  0  0  0  0  0
   11.1110   -1.2050   22.2630 C   0  0  0  0  0  0  0  0  0  0  0  0
   10.2370   -2.3540   24.0920 C   0  0  0  0  0  0  0  0  0  0  0  0
    5.9660   -3.4450   24.2540 C   0  0  1  0  0  0  0  0  0  0  0  0
    5.7820   -4.8170   22.3620 C   0  0  0  0  0  0  0  0  0  0  0  0
    8.5730    2.7800   23.5160 C   0  0  0  0  0  0  0  0  0  0  0  0
    6.9890   -3.1300   19.2290 C   0  0  0  0  0  0  0  0  0  0  0  0
    5.1420   -4.5490   19.8210 O   0  0  0  0  0  0  0  0  0  0  0  0
    5.2890   -2.9970   25.4420 N   0  0  0  0  0  0  0  0  0  0  0  0
    6.3890    0.4060   17.8150 N   0  0  0  0  0  0  0  0  0  0  0  0
    4.4900    1.4150   19.1990 C   0  0  0  0  0  0  0  0  0  0  0  0
   11.3030   -1.7990   23.4760 C   0  0  0  0  0  0  0  0  0  0  0  0
    5.2870   -4.4990   23.6420 C   0  0  0  0  0  0  0  0  0  0  0  0
    8.0550    3.8920   22.5640 C   0  0  0  0  0  0  0  0  0  0  0  0
   12.6050   -1.8460   24.1280 C   0  0  0  0  0  0  0  0  0  0  0  0
    6.0710   -2.6140   26.6250 C   0  0  0  0  0  0  0  0  0  0  0  0
    5.1450    1.1660   17.8650 C   0  0  0  0  0  0  0  0  0  0  0  0
    8.6200    5.1210   23.0500 O   0  0  0  0  0  0  0  0  0  0  0  0
   13.4850   -1.8220   23.0760 C   0  0  0  0  0  0  0  0  0  0  0  0
   12.8820   -2.9810   25.0640 C   0  0  0  0  0  0  0  0  0  0  0  0
   12.6410   -0.5640   24.9450 C   0  0  0  0  0  0  0  0  0  0  0  0
    6.7130   -3.4050   27.2600 O   0  0  0  0  0  0  0  0  0  0  0  0
    6.0310   -1.2040   27.0820 C   0  0  0  0  0  0  0  0  0  0  0  0
    8.2310    6.2370   22.2510 C   0  0  0  0  0  0  0  0  0  0  0  0
    6.7820   -0.7880   28.1900 C   0  0  0  0  0  0  0  0  0  0  0  0
    5.1510   -0.1800   26.3500 C   0  0  0  0  0  0  0  0  0  0  0  0
    6.7700    0.5190   28.6770 C   0  0  0  0  0  0  0  0  0  0  0  0
    5.0860    1.1440   26.7750 C   0  0  0  0  0  0  0  0  0  0  0  0
    5.8940    1.5780   27.9760 C   0  0  0  0  0  0  0  0  0  0  0  0
  1  2  1  0
  2  3  1  6
  1  4  1  0
  5  1  1  6
  2  6  1  0
  4  7  2  0
  4  8  1  0
  5  9  1  0
  5 10  1  0
  3 11  1  0
  3 12  2  0
  9 13  1  0
  6 14  2  0
  6 15  1  0
  7 16  1  0
  8 17  2  0
 10 18  1  0
  9 19  1  0
 11 20  1  0
 13 21  1  0
 13 22  2  0
 18 23  1  1
 15 24  2  0
 14 25  1  0
 16 26  2  0
 17 26  1  0
 18 27  1  0
 19 27  1  0
 20 28  1  0
 26 29  1  0
 23 30  1  0
 24 31  1  0
 25 31  2  0
 28 32  1  0
 29 33  1  0
 29 34  1  0
 29 35  1  0
 30 36  2  0
 30 37  1  0
 32 38  1  0
 37 39  2  0
 37 40  1  0
 39 41  1  0
 40 42  2  0
 41 43  2  0
 42 43  1  0
M  END
