x1351-x3113
     RDKit          3D

 44 47  0  0  0  0  0  0  0  0999 V2000
    7.5300   -1.6730   21.8260 N   0  0  0  0  0  0  0  0  0  0  0  0
    6.9690   -0.2360   21.6720 C   0  0  1  0  0  0  0  0  0  0  0  0
    8.0650    0.8920   21.9200 C   0  0  0  0  0  0  0  0  0  0  0  0
    8.7440   -1.7400   22.4280 C   0  0  0  0  0  0  0  0  0  0  0  0
    6.6970   -2.6670   22.3890 C   0  0  2  0  0  0  0  0  0  0  0  0
    6.3570    0.1870   20.3460 C   0  0  0  0  0  0  0  0  0  0  0  0
    9.7830   -2.2310   21.7510 C   0  0  0  0  0  0  0  0  0  0  0  0
    8.9910   -1.2940   23.8540 C   0  0  0  0  0  0  0  0  0  0  0  0
    6.5870   -3.8230   21.6320 N   0  0  0  0  0  0  0  0  0  0  0  0
    5.4920   -2.4340   22.9870 C   0  0  0  0  0  0  0  0  0  0  0  0
    8.2290    1.3450   23.2200 N   0  0  0  0  0  0  0  0  0  0  0  0
    8.7440    1.4180   21.0290 O   0  0  0  0  0  0  0  0  0  0  0  0
    6.2340   -3.8580   20.2580 C   0  0  0  0  0  0  0  0  0  0  0  0
    5.1600    0.9000   20.3510 C   0  0  0  0  0  0  0  0  0  0  0  0
    6.9360   -0.0760   19.1190 C   0  0  0  0  0  0  0  0  0  0  0  0
   11.0110   -2.3190   22.2700 C   0  0  0  0  0  0  0  0  0  0  0  0
   10.2680   -1.4100   24.3580 C   0  0  0  0  0  0  0  0  0  0  0  0
    5.0320   -3.4160   23.8750 C   0  0  2  0  0  0  0  0  0  0  0  0
    6.1450   -4.9360   22.4610 C   0  0  0  0  0  0  0  0  0  0  0  0
    9.1740    2.4130   23.6100 C   0  0  0  0  0  0  0  0  0  0  0  0
    7.1300   -3.1670   19.2490 C   0  0  0  0  0  0  0  0  0  0  0  0
    5.2440   -4.4930   19.8810 O   0  0  0  0  0  0  0  0  0  0  0  0
    5.1580   -2.9410   25.2560 N   0  0  0  0  0  0  0  0  0  0  0  0
    6.4410    0.3090   17.9230 N   0  0  0  0  0  0  0  0  0  0  0  0
    4.5960    1.3270   19.1510 C   0  0  0  0  0  0  0  0  0  0  0  0
   11.3480   -1.9060   23.6320 C   0  0  0  0  0  0  0  0  0  0  0  0
    5.5950   -4.7020   23.7300 C   0  0  0  0  0  0  0  0  0  0  0  0
   10.6170    1.9570   23.2940 C   0  0  0  0  0  0  0  0  0  0  0  0
   12.6600   -1.9510   24.2490 C   0  0  0  0  0  0  0  0  0  0  0  0
    6.3600   -2.2590   25.7700 C   0  0  0  0  0  0  0  0  0  0  0  0
    5.1700    1.0800   17.9130 C   0  0  0  0  0  0  0  0  0  0  0  0
   11.5480    3.0030   23.3250 C   0  0  0  0  0  0  0  0  0  0  0  0
   13.5410   -2.1080   23.1870 C   0  0  0  0  0  0  0  0  0  0  0  0
   12.9260   -3.0580   25.1980 C   0  0  0  0  0  0  0  0  0  0  0  0
   12.8330   -0.6170   24.9390 C   0  0  0  0  0  0  0  0  0  0  0  0
    7.4660   -2.6560   25.5100 O   0  0  0  0  0  0  0  0  0  0  0  0
    6.1660   -1.0380   26.6080 C   0  0  0  0  0  0  0  0  0  0  0  0
   11.7590    3.7410   22.3730 O   0  0  0  0  0  0  0  0  0  0  0  0
    6.8350   -0.9500   27.8400 C   0  0  0  0  0  0  0  0  0  0  0  0
    5.3330   -0.0080   26.1570 C   0  0  0  0  0  0  0  0  0  0  0  0
   12.9470    4.5220   22.5430 C   0  0  0  0  0  0  0  0  0  0  0  0
    6.6760    0.2950   28.7470 C   0  0  0  0  0  0  0  0  0  0  0  0
    5.1280    1.2520   27.0030 C   0  0  0  0  0  0  0  0  0  0  0  0
    5.7600    1.4050   28.2290 C   0  0  0  0  0  0  0  0  0  0  0  0
  1  2  1  0
  2  3  1  6
  1  4  1  0
  5  1  1  6
  2  6  1  0
  4  7  2  0
  4  8  1  0
  5  9  1  0
  5 10  1  0
  3 11  1  0
  3 12  2  0
  9 13  1  0
  6 14  2  0
  6 15  1  0
  7 16  1  0
  8 17  2  0
 10 18  1  0
  9 19  1  0
 11 20  1  0
 13 21  1  0
 13 22  2  0
 18 23  1  1
 15 24  2  0
 14 25  1  0
 16 26  2  0
 17 26  1  0
 18 27  1  0
 19 27  1  0
 20 28  1  0
 26 29  1  0
 23 30  1  0
 24 31  1  0
 25 31  2  0
 28 32  1  0
 29 33  1  0
 29 34  1  0
 29 35  1  0
 30 36  2  0
 30 37  1  0
 32 38  1  0
 37 39  2  0
 37 40  1  0
 38 41  1  0
 39 42  1  0
 40 43  2  0
 42 44  2  0
 43 44  1  0
M  END
