x1351-x2562
     RDKit          3D

 41 45  0  0  0  0  0  0  0  0999 V2000
    7.0520   -3.2650   19.1310 C   0  0  0  0  0  0  0  0  0  0  0  0
    6.1130   -3.9630   20.1620 C   0  0  0  0  0  0  0  0  0  0  0  0
    5.0830   -4.5000   19.8130 O   0  0  0  0  0  0  0  0  0  0  0  0
    6.4990   -4.0460   21.5030 N   0  0  0  0  0  0  0  0  0  0  0  0
    7.2110   -2.9500   22.1340 C   0  0  1  0  0  0  0  0  0  0  0  0
    6.1950   -5.0670   22.3150 C   0  0  0  0  0  0  0  0  0  0  0  0
    6.4870   -1.6150   21.8110 C   0  0  0  0  0  0  0  0  0  0  0  0
    7.3500   -3.2260   23.5070 C   0  0  0  0  0  0  0  0  0  0  0  0
    5.3180   -4.6370   23.5170 C   0  0  0  0  0  0  0  0  0  0  0  0
    7.3380   -0.8070   20.8140 C   0  0  2  0  0  0  0  0  0  0  0  0
    6.0870   -3.4370   24.0950 C   0  0  1  0  0  0  0  0  0  0  0  0
    6.3360   -3.5040   25.4440 N   0  0  0  0  0  0  0  0  0  0  0  0
    8.4670   -0.0670   21.4900 C   0  0  0  0  0  0  0  0  0  0  0  0
    6.4930    0.0000   19.8820 C   0  0  0  0  0  0  0  0  0  0  0  0
    6.5630   -2.3140   26.2560 C   0  0  0  0  0  0  0  0  0  0  0  0
    8.5530    1.1580   21.4420 O   0  0  0  0  0  0  0  0  0  0  0  0
    9.2830   -0.6790   22.0440 N   0  0  0  0  0  0  0  0  0  0  0  0
    6.8240    0.0060   18.5980 C   0  0  0  0  0  0  0  0  0  0  0  0
    5.3100    0.7840   20.3700 C   0  0  0  0  0  0  0  0  0  0  0  0
    7.8890   -2.5230   26.7260 O   0  0  0  0  0  0  0  0  0  0  0  0
    6.2790   -1.0010   26.9230 C   0  0  0  0  0  0  0  0  0  0  0  0
    4.6060    1.4970   19.4550 N   0  0  0  0  0  0  0  0  0  0  0  0
    6.1750    0.6770   17.6590 N   0  0  0  0  0  0  0  0  0  0  0  0
   10.5540   -0.2110   22.3520 C   0  0  0  0  0  0  0  0  0  0  0  0
    6.8010   -0.7510   28.2180 C   0  0  0  0  0  0  0  0  0  0  0  0
    5.5160    0.0160   26.3340 C   0  0  0  0  0  0  0  0  0  0  0  0
    5.0430    1.4280   18.1840 C   0  0  0  0  0  0  0  0  0  0  0  0
   11.6390   -1.0980   22.2350 C   0  0  0  0  0  0  0  0  0  0  0  0
   10.7610    1.0980   22.7590 C   0  0  0  0  0  0  0  0  0  0  0  0
    6.5330    0.5800   28.9190 C   0  0  0  0  0  0  0  0  0  0  0  0
    5.2340    1.2460   26.9170 C   0  0  0  0  0  0  0  0  0  0  0  0
   12.9020   -0.6340   22.5180 C   0  0  0  0  0  0  0  0  0  0  0  0
   12.0250    1.5470   23.0390 C   0  0  0  0  0  0  0  0  0  0  0  0
   12.0830    2.8600   23.4260 O   0  0  0  0  0  0  0  0  0  0  0  0
    5.6880    1.6090   28.1730 C   0  0  0  0  0  0  0  0  0  0  0  0
   13.1070    0.6770   22.9120 C   0  0  0  0  0  0  0  0  0  0  0  0
   12.8870    3.7420   22.6380 C   0  0  1  0  0  0  0  0  0  0  0  0
   12.2260    4.9310   21.9880 N   0  0  0  0  0  0  0  0  0  0  0  0
   13.5560    4.8650   23.2740 C   0  0  0  0  0  0  0  0  0  0  0  0
   13.4080    5.7890   22.3260 C   0  0  2  0  0  0  0  0  0  0  0  0
   13.1690    7.1230   22.7760 O   0  0  0  0  0  0  0  0  0  0  0  0
  1  2  1  0
  2  3  2  0
  2  4  1  0
  4  5  1  0
  4  6  1  0
  5  7  1  1
  5  8  1  0
  6  9  1  0
 10  7  1  1
  8 11  1  0
  9 11  1  0
 11 12  1  1
 10 13  1  0
 10 14  1  0
 12 15  1  0
 13 16  2  0
 13 17  1  0
 14 18  2  0
 14 19  1  0
 15 20  2  0
 15 21  1  0
 19 22  2  0
 18 23  1  0
 17 24  1  0
 21 25  2  0
 21 26  1  0
 22 27  1  0
 23 27  2  0
 24 28  2  0
 24 29  1  0
 25 30  1  0
 26 31  2  0
 28 32  1  0
 29 33  2  0
 33 34  1  0
 30 35  2  0
 31 35  1  0
 32 36  2  0
 33 36  1  0
 37 34  1  1
 37 38  1  0
 37 39  1  0
 38 40  1  0
 39 40  1  0
 40 41  1  1
M  END
