x1351-x1093
     RDKit          3D

 38 42  0  0  0  0  0  0  0  0999 V2000
    7.0130   -3.2560   19.1700 C   0  0  0  0  0  0  0  0  0  0  0  0
    6.1170   -3.9860   20.2160 C   0  0  0  0  0  0  0  0  0  0  0  0
    5.1440   -4.6300   19.8690 O   0  0  0  0  0  0  0  0  0  0  0  0
    6.4530   -3.9630   21.5750 N   0  0  0  0  0  0  0  0  0  0  0  0
    7.3170   -3.0240   22.1560 C   0  0  1  0  0  0  0  0  0  0  0  0
    6.1870   -5.2440   22.2950 C   0  0  0  0  0  0  0  0  0  0  0  0
    7.0270   -1.6520   22.0070 C   0  0  0  0  0  0  0  0  0  0  0  0
    7.3070   -3.3140   23.5190 C   0  0  0  0  0  0  0  0  0  0  0  0
    5.3820   -4.7120   23.4850 C   0  0  0  0  0  0  0  0  0  0  0  0
    8.0090   -0.9380   21.0380 C   0  0  2  0  0  0  0  0  0  0  0  0
    6.0050   -3.3980   23.9870 C   0  0  1  0  0  0  0  0  0  0  0  0
    6.1660   -3.5300   25.4560 N   0  0  0  0  0  0  0  0  0  0  0  0
    8.8350    0.1690   21.7350 C   0  0  0  0  0  0  0  0  0  0  0  0
    7.1270   -0.2730   20.0540 C   0  0  0  0  0  0  0  0  0  0  0  0
    6.5270   -2.3760   26.2690 C   0  0  0  0  0  0  0  0  0  0  0  0
    8.8460    1.5260   21.2190 O   0  0  0  0  0  0  0  0  0  0  0  0
    9.5790   -0.1620   22.8070 N   0  0  0  0  0  0  0  0  0  0  0  0
    7.3040   -0.3730   18.5970 C   0  0  0  0  0  0  0  0  0  0  0  0
    5.8770    0.6180   20.2190 C   0  0  0  0  0  0  0  0  0  0  0  0
    7.8400   -2.7010   26.7120 O   0  0  0  0  0  0  0  0  0  0  0  0
    6.3480   -1.0310   26.9280 C   0  0  0  0  0  0  0  0  0  0  0  0
   10.4900    0.8320   23.4100 C   0  0  0  0  0  0  0  0  0  0  0  0
    9.9310   -1.5250   23.1550 C   0  0  0  0  0  0  0  0  0  0  0  0
    6.2850    0.3790   17.9170 N   0  0  0  0  0  0  0  0  0  0  0  0
    5.4270    0.9720   18.9320 C   0  0  0  0  0  0  0  0  0  0  0  0
    5.1620    1.0990   21.3260 C   0  0  0  0  0  0  0  0  0  0  0  0
    7.1470   -0.6910   28.1610 C   0  0  0  0  0  0  0  0  0  0  0  0
    5.3420    0.0130   26.3500 C   0  0  0  0  0  0  0  0  0  0  0  0
   11.8080    0.6590   23.1340 C   0  0  0  0  0  0  0  0  0  0  0  0
   11.2810   -1.6800   22.5240 C   0  0  0  0  0  0  0  0  0  0  0  0
    4.3770    1.7310   18.6020 N   0  0  0  0  0  0  0  0  0  0  0  0
    4.0530    1.8920   21.0750 C   0  0  0  0  0  0  0  0  0  0  0  0
    6.9390    0.6760   28.8070 C   0  0  0  0  0  0  0  0  0  0  0  0
    5.2420    1.2330   27.0360 C   0  0  0  0  0  0  0  0  0  0  0  0
   12.2110   -0.7660   23.1320 N   0  0  0  0  0  0  0  0  0  0  0  0
    3.6580    2.2090   19.7850 C   0  0  0  0  0  0  0  0  0  0  0  0
   13.4750   -0.9340   22.5140 C   0  0  0  0  0  0  0  0  0  0  0  0
    5.9260    1.6530   28.1790 C   0  0  0  0  0  0  0  0  0  0  0  0
  1  2  1  0
  2  3  2  0
  2  4  1  0
  4  5  1  0
  4  6  1  0
  5  7  1  1
  5  8  1  0
  6  9  1  0
 10  7  1  1
  8 11  1  0
  9 11  1  0
 11 12  1  1
 10 13  1  0
 10 14  1  0
 12 15  1  0
 13 16  2  0
 13 17  1  0
 14 18  2  0
 14 19  1  0
 15 20  2  0
 15 21  1  0
 17 22  1  0
 17 23  1  0
 18 24  1  0
 19 25  2  0
 24 25  1  0
 19 26  1  0
 21 27  2  0
 21 28  1  0
 22 29  1  0
 23 30  1  0
 25 31  1  0
 26 32  2  0
 27 33  1  0
 28 34  2  0
 29 35  1  0
 30 35  1  0
 31 36  2  0
 32 36  1  0
 35 37  1  0
 33 38  2  0
 34 38  1  0
M  END
