x1358-x2643
     RDKit          3D

 36 39  0  0  0  0  0  0  0  0999 V2000
    6.8940   -2.8250   26.1240 N   0  0  0  0  0  0  0  0  0  0  0  0
    5.7970   -3.5170   25.4370 C   0  0  0  0  0  0  0  0  0  0  0  0
    4.7310   -3.8550   25.9410 O   0  0  0  0  0  0  0  0  0  0  0  0
    6.8700   -1.7110   26.9970 C   0  0  0  0  0  0  0  0  0  0  0  0
    6.0470   -0.4640   26.6210 C   0  0  0  0  0  0  0  0  0  0  0  0
    7.6280   -1.6910   28.3010 C   0  0  0  0  0  0  0  0  0  0  0  0
    6.0920   -3.7790   23.9590 C   0  0  1  0  0  0  0  0  0  0  0  0
    5.3420   -0.4250   25.4480 O   0  0  0  0  0  0  0  0  0  0  0  0
    7.4670   -0.4030   29.0840 C   0  0  0  0  0  0  0  0  0  0  0  0
    5.9840    0.6660   27.4380 C   0  0  0  0  0  0  0  0  0  0  0  0
    7.3520   -3.4360   23.5780 C   0  0  0  0  0  0  0  0  0  0  0  0
    5.9620   -5.0330   23.4740 C   0  0  0  0  0  0  0  0  0  0  0  0
    6.6610    0.6760   28.5990 C   0  0  0  0  0  0  0  0  0  0  0  0
    7.3220   -2.8550   22.4220 C   0  0  1  0  0  0  0  0  0  0  0  0
    6.5400   -5.1280   22.1100 C   0  0  0  0  0  0  0  0  0  0  0  0
    7.9750   -1.3800   22.3910 C   0  0  1  0  0  0  0  0  0  0  0  0
    7.0520   -3.8600   21.4940 N   0  0  0  0  0  0  0  0  0  0  0  0
    6.5610   -3.7440   20.1600 C   0  0  0  0  0  0  0  0  0  0  0  0
    7.6210   -0.4850   21.2130 C   0  0  0  0  0  0  0  0  0  0  0  0
    7.0760   -0.6290   23.3420 C   0  0  0  0  0  0  0  0  0  0  0  0
    9.3670   -0.9070   22.8500 C   0  0  0  0  0  0  0  0  0  0  0  0
    5.4630   -4.2170   19.8220 O   0  0  0  0  0  0  0  0  0  0  0  0
    7.4590   -3.1130   19.1140 C   0  0  0  0  0  0  0  0  0  0  0  0
    6.4010   -0.8420   20.5520 N   0  0  0  0  0  0  0  0  0  0  0  0
    8.2700    0.5000   20.8620 O   0  0  0  0  0  0  0  0  0  0  0  0
    9.6370   -0.0880   23.9520 C   0  0  0  0  0  0  0  0  0  0  0  0
   10.8660   -1.2740   22.0360 S   0  0  0  0  0  0  0  0  0  0  0  0
   11.7490   -0.3290   23.1150 C   0  0  0  0  0  0  0  0  0  0  0  0
   10.9530    0.2080   24.0590 C   0  0  0  0  0  0  0  0  0  0  0  0
    5.8980    0.0290   19.6170 C   0  0  0  0  0  0  0  0  0  0  0  0
   13.4010   -0.1330   22.9530 Cl  0  0  0  0  0  0  0  0  0  0  0  0
    6.6440    0.1820   18.4810 C   0  0  0  0  0  0  0  0  0  0  0  0
    4.7000    0.7030   19.8290 C   0  0  0  0  0  0  0  0  0  0  0  0
    6.2830    0.9790   17.5000 N   0  0  0  0  0  0  0  0  0  0  0  0
    4.2880    1.5820   18.7710 C   0  0  0  0  0  0  0  0  0  0  0  0
    5.1340    1.6500   17.6680 C   0  0  0  0  0  0  0  0  0  0  0  0
  1  2  1  0
  2  3  2  0
  1  4  1  0
  4  5  2  0
  4  6  1  0
  7  2  1  1
  5  8  1  0
  6  9  2  0
  5 10  1  0
  7 11  1  0
  7 12  1  0
  9 13  1  0
 10 13  2  0
 14 11  1  1
 12 15  1  0
 14 16  1  0
 14 17  1  0
 15 17  1  0
 17 18  1  0
 16 19  1  0
 16 20  1  1
 16 21  1  0
 18 22  2  0
 18 23  1  0
 19 24  1  0
 19 25  2  0
 21 26  2  0
 21 27  1  0
 27 28  1  0
 26 29  1  0
 28 29  2  0
 24 30  1  0
 28 31  1  0
 30 32  2  0
 30 33  1  0
 32 34  1  0
 33 35  2  0
 34 36  2  0
 35 36  1  0
M  END
