x1358-x3080
     RDKit          3D

 46 52  0  0  0  0  0  0  0  0999 V2000
    9.6380   -0.2400   23.2610 N   0  0  0  0  0  0  0  0  0  0  0  0
   10.8890    0.4080   23.6800 C   0  0  0  0  0  0  0  0  0  0  0  0
    9.6300   -0.5880   21.8730 C   0  0  0  0  0  0  0  0  0  0  0  0
    8.8470   -1.3040   24.2790 S   0  0  2  0  0  0  0  0  0  0  0  0
    7.3070   -2.1870   24.0600 C   0  0  0  0  0  0  0  0  0  0  0  0
    8.5660    0.2300   21.2100 C   0  0  0  0  0  0  0  0  0  0  0  0
    9.7020   -1.2250   25.4100 O   0  0  0  0  0  0  0  0  0  0  0  0
    9.2700   -2.5730   25.4410 C   0  0  0  0  0  0  0  0  0  0  0  0
    8.7140    1.5820   20.9770 O   0  0  0  0  0  0  0  0  0  0  0  0
    7.4260   -0.4130   20.8560 N   0  0  0  0  0  0  0  0  0  0  0  0
    6.5900   -3.0350   25.0740 C   0  0  2  0  0  0  0  0  0  0  0  0
   10.6720   -2.7720   25.3900 C   0  0  0  0  0  0  0  0  0  0  0  0
    8.4250   -3.3350   26.2470 C   0  0  0  0  0  0  0  0  0  0  0  0
    6.3660   -2.2670   22.8850 C   0  0  1  0  0  0  0  0  0  0  0  0
    7.1040   -3.1610   26.3330 N   0  0  0  0  0  0  0  0  0  0  0  0
    5.7000   -3.9910   24.4800 C   0  0  0  0  0  0  0  0  0  0  0  0
    6.6360    0.2240   19.9010 C   0  0  0  0  0  0  0  0  0  0  0  0
   11.5020   -1.9780   24.6140 N   0  0  0  0  0  0  0  0  0  0  0  0
   11.1480   -3.7640   26.1430 C   0  0  0  0  0  0  0  0  0  0  0  0
    8.9820   -4.3610   26.9900 C   0  0  0  0  0  0  0  0  0  0  0  0
    7.2470   -2.8800   21.9520 C   0  0  0  0  0  0  0  0  0  0  0  0
    5.1900   -3.2080   23.3470 C   0  0  2  0  0  0  0  0  0  0  0  0
    5.3920   -5.1120   24.8210 O   0  0  0  0  0  0  0  0  0  0  0  0
    5.4940    1.0090   20.3070 C   0  0  0  0  0  0  0  0  0  0  0  0
    6.9840    0.0780   18.5820 C   0  0  0  0  0  0  0  0  0  0  0  0
   12.5890   -3.8800   26.0830 C   0  0  0  0  0  0  0  0  0  0  0  0
   12.8280   -2.1110   24.5920 C   0  0  0  0  0  0  0  0  0  0  0  0
   10.3160   -4.5790   26.9320 C   0  0  0  0  0  0  0  0  0  0  0  0
    6.4680   -2.1350   27.1500 C   0  0  0  0  0  0  0  0  0  0  0  0
    6.7120   -3.9780   21.1630 N   0  0  0  0  0  0  0  0  0  0  0  0
    4.7630   -4.1650   22.3020 C   0  0  0  0  0  0  0  0  0  0  0  0
    5.1090    1.1620   21.7400 C   0  0  0  0  0  0  0  0  0  0  0  0
    6.2740   -3.7180   19.8940 C   0  0  0  0  0  0  0  0  0  0  0  0
    6.2230    0.7200   17.5360 N   0  0  0  0  0  0  0  0  0  0  0  0
    4.7540    1.6240   19.3870 C   0  0  0  0  0  0  0  0  0  0  0  0
   13.4240   -3.0700   25.3400 C   0  0  0  0  0  0  0  0  0  0  0  0
    5.9250   -0.8650   26.6570 C   0  0  0  0  0  0  0  0  0  0  0  0
    6.3090   -2.2760   28.5330 C   0  0  0  0  0  0  0  0  0  0  0  0
    5.9610   -4.9730   21.8710 C   0  0  0  0  0  0  0  0  0  0  0  0
    5.9780   -0.5180   25.3310 O   0  0  0  0  0  0  0  0  0  0  0  0
    5.1370   -3.9980   19.5590 O   0  0  0  0  0  0  0  0  0  0  0  0
    7.3030   -3.1340   18.9600 C   0  0  0  0  0  0  0  0  0  0  0  0
    5.1710    1.4570   17.9070 C   0  0  0  0  0  0  0  0  0  0  0  0
    5.6990   -1.3160   29.3400 C   0  0  0  0  0  0  0  0  0  0  0  0
    5.3110    0.0960   27.4580 C   0  0  0  0  0  0  0  0  0  0  0  0
    5.1940   -0.1320   28.8190 C   0  0  0  0  0  0  0  0  0  0  0  0
  1  2  1  0
  1  3  1  0
  4  1  1  6
  4  5  2  0
  3  6  1  0
  4  7  2  0
  4  8  1  0
  6  9  2  0
  6 10  1  0
  5 11  1  0
  8 12  2  0
  8 13  1  0
  5 14  1  0
 11 15  1  0
 13 15  1  0
 11 16  1  6
 10 17  1  0
 12 18  1  0
 12 19  1  0
 13 20  2  0
 14 21  1  6
 14 22  1  0
 16 22  1  0
 16 23  2  0
 17 24  2  0
 17 25  1  0
 19 26  1  0
 18 27  2  0
 19 28  2  0
 20 28  1  0
 15 29  1  0
 21 30  1  0
 22 31  1  6
 24 32  1  0
 30 33  1  0
 25 34  2  0
 24 35  1  0
 26 36  2  0
 27 36  1  0
 29 37  2  0
 29 38  1  0
 30 39  1  0
 31 39  1  0
 37 40  1  0
 33 41  2  0
 33 42  1  0
 34 43  1  0
 35 43  2  0
 38 44  2  0
 37 45  1  0
 44 46  1  0
 45 46  2  0
M  END
