x1351-x2908
     RDKit          3D

 37 40  0  0  0  0  0  0  0  0999 V2000
    7.1470   -3.2170   19.2360 C   0  0  0  0  0  0  0  0  0  0  0  0
    6.2200   -3.9870   20.2270 C   0  0  0  0  0  0  0  0  0  0  0  0
    5.1850   -4.5170   19.8510 O   0  0  0  0  0  0  0  0  0  0  0  0
    6.6170   -4.1150   21.5410 N   0  0  0  0  0  0  0  0  0  0  0  0
    7.0830   -2.8430   22.1600 C   0  0  1  0  0  0  0  0  0  0  0  0
    5.8520   -5.0670   22.3180 C   0  0  0  0  0  0  0  0  0  0  0  0
    6.1390   -1.7100   21.6810 C   0  0  0  0  0  0  0  0  0  0  0  0
    7.1530   -2.9330   23.6010 C   0  0  0  0  0  0  0  0  0  0  0  0
    5.1770   -4.3960   23.5030 C   0  0  0  0  0  0  0  0  0  0  0  0
    6.8630   -0.5870   21.0480 N   0  0  0  0  0  0  0  0  0  0  0  0
    6.4390   -3.9780   24.2190 C   0  0  2  0  0  0  0  0  0  0  0  0
    6.2790   -3.6880   25.5640 N   0  0  0  0  0  0  0  0  0  0  0  0
    8.0520    0.0230   21.6290 C   0  0  0  0  0  0  0  0  0  0  0  0
    6.2660    0.1080   20.0060 C   0  0  0  0  0  0  0  0  0  0  0  0
    6.6150   -2.4300   26.2320 C   0  0  0  0  0  0  0  0  0  0  0  0
    8.5400    1.2660   21.0500 O   0  0  0  0  0  0  0  0  0  0  0  0
    8.7510   -0.5850   22.7460 N   0  0  0  0  0  0  0  0  0  0  0  0
    6.8590    0.1030   18.6440 C   0  0  0  0  0  0  0  0  0  0  0  0
    5.1070    0.8320   20.2210 C   0  0  0  0  0  0  0  0  0  0  0  0
    8.0150   -2.5610   26.4330 O   0  0  0  0  0  0  0  0  0  0  0  0
    4.4290    0.9000   21.5560 C   0  0  0  0  0  0  0  0  0  0  0  0
    6.3680   -1.0970   26.8860 C   0  0  0  0  0  0  0  0  0  0  0  0
    6.3730    0.7940   17.4650 N   0  0  0  0  0  0  0  0  0  0  0  0
    4.5050    1.5880   19.0770 C   0  0  0  0  0  0  0  0  0  0  0  0
   10.1560   -0.4280   22.8560 C   0  0  0  0  0  0  0  0  0  0  0  0
    7.0360   -0.7840   28.0940 C   0  0  0  0  0  0  0  0  0  0  0  0
    5.4900   -0.1350   26.3600 C   0  0  0  0  0  0  0  0  0  0  0  0
    5.1480    1.5700   17.6910 C   0  0  0  0  0  0  0  0  0  0  0  0
   10.6500    0.5970   23.6240 C   0  0  0  0  0  0  0  0  0  0  0  0
   10.9610   -1.2940   22.1790 C   0  0  0  0  0  0  0  0  0  0  0  0
    6.7860    0.5540   28.7740 C   0  0  0  0  0  0  0  0  0  0  0  0
    5.2130    1.1110   26.9280 C   0  0  0  0  0  0  0  0  0  0  0  0
   12.1420    0.8020   23.7320 C   0  0  0  0  0  0  0  0  0  0  0  0
   12.3240   -1.2260   22.1900 C   0  0  0  0  0  0  0  0  0  0  0  0
   13.1560   -2.3860   21.2770 Cl  0  0  0  0  0  0  0  0  0  0  0  0
    5.8080    1.5220   28.1140 C   0  0  0  0  0  0  0  0  0  0  0  0
   12.9820   -0.2320   22.9200 C   0  0  0  0  0  0  0  0  0  0  0  0
  1  2  1  0
  2  3  2  0
  2  4  1  0
  4  5  1  0
  4  6  1  0
  5  7  1  1
  5  8  1  0
  6  9  1  0
  7 10  1  0
  8 11  1  0
  9 11  1  0
 11 12  1  1
 10 13  1  0
 10 14  1  0
 12 15  1  0
 13 16  2  0
 13 17  1  0
 14 18  2  0
 14 19  1  0
 15 20  2  0
 19 21  1  0
 15 22  1  0
 18 23  1  0
 19 24  2  0
 17 25  1  0
 22 26  2  0
 22 27  1  0
 23 28  2  0
 24 28  1  0
 25 29  2  0
 25 30  1  0
 26 31  1  0
 27 32  2  0
 29 33  1  0
 30 34  2  0
 34 35  1  0
 31 36  2  0
 32 36  1  0
 33 37  2  0
 34 37  1  0
M  END
