x1351-x2608
     RDKit          3D

 35 38  0  0  0  0  0  0  0  0999 V2000
    7.1080   -3.2430   19.2250 C   0  0  0  0  0  0  0  0  0  0  0  0
    6.1990   -4.0230   20.2340 C   0  0  0  0  0  0  0  0  0  0  0  0
    5.1650   -4.5540   19.8550 O   0  0  0  0  0  0  0  0  0  0  0  0
    6.5900   -4.1660   21.5520 N   0  0  0  0  0  0  0  0  0  0  0  0
    7.0840   -2.9120   22.1780 C   0  0  1  0  0  0  0  0  0  0  0  0
    5.7710   -5.0640   22.3360 C   0  0  0  0  0  0  0  0  0  0  0  0
    6.1320   -1.7650   21.7610 C   0  0  0  0  0  0  0  0  0  0  0  0
    7.2110   -3.0370   23.6170 C   0  0  0  0  0  0  0  0  0  0  0  0
    5.1240   -4.3420   23.5090 C   0  0  0  0  0  0  0  0  0  0  0  0
    6.8380   -0.8540   21.0040 N   0  0  0  0  0  0  0  0  0  0  0  0
    6.3960   -3.9960   24.2530 C   0  0  2  0  0  0  0  0  0  0  0  0
    6.2350   -3.6850   25.5980 N   0  0  0  0  0  0  0  0  0  0  0  0
    8.0280   -0.2910   21.4900 C   0  0  0  0  0  0  0  0  0  0  0  0
    6.1090   -0.0570   20.0360 C   0  0  0  0  0  0  0  0  0  0  0  0
    6.5400   -2.4130   26.2710 C   0  0  0  0  0  0  0  0  0  0  0  0
    8.8740   -1.0140   22.4720 N   0  0  0  0  0  0  0  0  0  0  0  0
    8.4270    1.0120   21.0330 O   0  0  0  0  0  0  0  0  0  0  0  0
    6.6810    0.0130   18.8050 C   0  0  0  0  0  0  0  0  0  0  0  0
    4.8160    0.6740   20.3440 C   0  0  0  0  0  0  0  0  0  0  0  0
    7.9180   -2.5650   26.6030 O   0  0  0  0  0  0  0  0  0  0  0  0
    6.2900   -1.0630   26.8860 C   0  0  0  0  0  0  0  0  0  0  0  0
   10.1810   -0.4130   22.6140 C   0  0  0  0  0  0  0  0  0  0  0  0
    6.1960    0.7520   17.6690 N   0  0  0  0  0  0  0  0  0  0  0  0
    4.2510    1.4930   19.1290 C   0  0  0  0  0  0  0  0  0  0  0  0
    6.8340   -0.7880   28.1630 C   0  0  0  0  0  0  0  0  0  0  0  0
    5.5370   -0.0540   26.2670 C   0  0  0  0  0  0  0  0  0  0  0  0
   11.3480   -1.1200   22.7000 C   0  0  0  0  0  0  0  0  0  0  0  0
   10.2700    1.2800   22.6540 S   0  0  0  0  0  0  0  0  0  0  0  0
    4.9510    1.4860   17.9190 C   0  0  0  0  0  0  0  0  0  0  0  0
    6.5970    0.5680   28.8170 C   0  0  0  0  0  0  0  0  0  0  0  0
    5.2770    1.2110   26.8070 C   0  0  0  0  0  0  0  0  0  0  0  0
   12.0160    1.0510   22.7580 C   0  0  0  0  0  0  0  0  0  0  0  0
   12.4040   -0.3080   22.7880 C   0  0  0  0  0  0  0  0  0  0  0  0
   12.8830    2.2780   22.7820 C   0  0  0  0  0  0  0  0  0  0  0  0
    5.7630    1.5900   28.0530 C   0  0  0  0  0  0  0  0  0  0  0  0
  1  2  1  0
  2  3  2  0
  2  4  1  0
  4  5  1  0
  4  6  1  0
  5  7  1  1
  5  8  1  0
  6  9  1  0
  7 10  1  0
  8 11  1  0
  9 11  1  0
 11 12  1  1
 10 13  1  0
 10 14  1  0
 12 15  1  0
 13 16  1  0
 13 17  2  0
 14 18  2  0
 14 19  1  0
 15 20  2  0
 15 21  1  0
 16 22  1  0
 18 23  1  0
 19 24  2  0
 21 25  2  0
 21 26  1  0
 22 27  2  0
 22 28  1  0
 23 29  2  0
 24 29  1  0
 25 30  1  0
 26 31  2  0
 28 32  1  0
 27 33  1  0
 32 33  2  0
 32 34  1  0
 30 35  2  0
 31 35  1  0
M  END
