x1358-x2703
     RDKit          3D

 48 52  0  0  0  0  0  0  0  0999 V2000
    7.6640   -1.6180   21.6140 N   0  0  0  0  0  0  0  0  0  0  0  0
    7.0090   -0.2550   21.5900 C   0  0  1  0  0  0  0  0  0  0  0  0
    7.9350    1.0010   21.7700 C   0  0  0  0  0  0  0  0  0  0  0  0
    8.8130   -1.6420   22.3400 C   0  0  0  0  0  0  0  0  0  0  0  0
    6.9690   -2.7590   22.2520 C   0  0  2  0  0  0  0  0  0  0  0  0
    6.2770    0.1520   20.2980 C   0  0  0  0  0  0  0  0  0  0  0  0
    8.8760   -1.2430   23.6500 C   0  0  0  0  0  0  0  0  0  0  0  0
    9.9820   -2.0920   21.8040 C   0  0  0  0  0  0  0  0  0  0  0  0
    6.5440   -3.8550   21.3710 N   0  0  0  0  0  0  0  0  0  0  0  0
    5.8190   -2.4600   23.1650 C   0  0  0  0  0  0  0  0  0  0  0  0
    7.5290    1.9220   22.7340 N   0  0  0  0  0  0  0  0  0  0  0  0
    8.9370    1.2650   21.1170 O   0  0  0  0  0  0  0  0  0  0  0  0
    6.1820   -3.7740   20.0470 C   0  0  0  0  0  0  0  0  0  0  0  0
    5.0080    0.7580   20.3010 C   0  0  0  0  0  0  0  0  0  0  0  0
    6.8420   -0.0290   19.0820 C   0  0  0  0  0  0  0  0  0  0  0  0
   11.1820   -2.1670   22.3540 N   0  0  0  0  0  0  0  0  0  0  0  0
   10.0920   -1.2860   24.3330 C   0  0  0  0  0  0  0  0  0  0  0  0
    5.4390   -3.6820   23.9770 C   0  0  2  0  0  0  0  0  0  0  0  0
    6.2850   -5.1320   22.0310 C   0  0  0  0  0  0  0  0  0  0  0  0
    5.1150   -4.2510   19.7070 O   0  0  0  0  0  0  0  0  0  0  0  0
    5.5060   -3.3740   25.4720 C   0  0  0  0  0  0  0  0  0  0  0  0
    7.1530   -3.1380   19.0550 C   0  0  0  0  0  0  0  0  0  0  0  0
    6.3110    0.3260   17.8940 N   0  0  0  0  0  0  0  0  0  0  0  0
    4.4180    1.1350   19.1520 C   0  0  0  0  0  0  0  0  0  0  0  0
   11.2310   -1.7540   23.6170 C   0  0  0  0  0  0  0  0  0  0  0  0
    8.0990    3.2170   22.8570 C   0  0  0  0  0  0  0  0  0  0  0  0
    6.1990   -4.9690   23.5630 C   0  0  0  0  0  0  0  0  0  0  0  0
   12.5930   -1.8030   24.2310 C   0  0  0  0  0  0  0  0  0  0  0  0
    6.6000   -2.4670   25.8870 N   0  0  0  0  0  0  0  0  0  0  0  0
    4.6780   -3.8570   26.2220 O   0  0  0  0  0  0  0  0  0  0  0  0
    5.1150    0.9050   17.9200 C   0  0  0  0  0  0  0  0  0  0  0  0
    9.3580    3.3290   23.4610 C   0  0  0  0  0  0  0  0  0  0  0  0
    7.4710    4.4650   22.3910 C   0  0  0  0  0  0  0  0  0  0  0  0
   10.0630    2.0940   23.9680 C   0  0  0  0  0  0  0  0  0  0  0  0
    6.1290    4.5700   21.7190 C   0  0  0  0  0  0  0  0  0  0  0  0
   12.9060   -2.9450   24.9590 C   0  0  0  0  0  0  0  0  0  0  0  0
   12.7140   -0.6160   25.0790 C   0  0  0  0  0  0  0  0  0  0  0  0
   10.0290    4.5510   23.6340 C   0  0  0  0  0  0  0  0  0  0  0  0
    8.1940    5.6560   22.5950 C   0  0  0  0  0  0  0  0  0  0  0  0
    6.5870   -1.4760   26.9050 C   0  0  0  0  0  0  0  0  0  0  0  0
    9.1270    1.3570   25.0060 C   0  0  0  0  0  0  0  0  0  0  0  0
    9.4630    5.7780   23.2010 C   0  0  0  0  0  0  0  0  0  0  0  0
    6.0180   -0.2480   26.5590 C   0  0  0  0  0  0  0  0  0  0  0  0
    7.0970   -1.6600   28.1950 C   0  0  0  0  0  0  0  0  0  0  0  0
    5.5200   -0.1110   25.2930 O   0  0  0  0  0  0  0  0  0  0  0  0
    7.0560   -0.6350   29.1270 C   0  0  0  0  0  0  0  0  0  0  0  0
    5.9420    0.8260   27.4500 C   0  0  0  0  0  0  0  0  0  0  0  0
    6.4380    0.7180   28.7510 C   0  0  0  0  0  0  0  0  0  0  0  0
  1  2  1  0
  2  3  1  6
  1  4  1  0
  5  1  1  6
  2  6  1  0
  4  7  2  0
  4  8  1  0
  5  9  1  0
  5 10  1  0
  3 11  1  0
  3 12  2  0
  9 13  1  0
  6 14  2  0
  6 15  1  0
  8 16  2  0
  7 17  1  0
 10 18  1  0
  9 19  1  0
 13 20  2  0
 18 21  1  1
 13 22  1  0
 15 23  2  0
 14 24  1  0
 16 25  1  0
 17 25  2  0
 11 26  1  0
 18 27  1  0
 19 27  1  0
 25 28  1  0
 21 29  1  0
 21 30  2  0
 23 31  1  0
 24 31  2  0
 26 32  2  0
 26 33  1  0
 32 34  1  0
 33 35  1  0
 28 36  1  0
 28 37  1  0
 32 38  1  0
 33 39  2  0
 29 40  1  0
 34 41  1  0
 38 42  2  0
 39 42  1  0
 40 43  2  0
 40 44  1  0
 43 45  1  0
 44 46  2  0
 43 47  1  0
 46 48  1  0
 47 48  2  0
M  END
