x1358-x2569
     RDKit          3D

 38 41  0  0  0  0  0  0  0  0999 V2000
    6.8630   -2.6930   25.9950 N   0  0  0  0  0  0  0  0  0  0  0  0
    5.7440   -3.3180   25.2990 C   0  0  0  0  0  0  0  0  0  0  0  0
    4.6920   -3.6610   25.8230 O   0  0  0  0  0  0  0  0  0  0  0  0
    6.8280   -1.6500   26.9370 C   0  0  0  0  0  0  0  0  0  0  0  0
    6.0300   -0.3620   26.6350 C   0  0  0  0  0  0  0  0  0  0  0  0
    7.5120   -1.6310   28.2870 C   0  0  0  0  0  0  0  0  0  0  0  0
    5.9120   -3.5470   23.8000 C   0  0  1  0  0  0  0  0  0  0  0  0
    5.3770   -0.2810   25.4320 O   0  0  0  0  0  0  0  0  0  0  0  0
    7.3970   -0.5120   29.1610 C   0  0  0  0  0  0  0  0  0  0  0  0
    5.9540    0.7050   27.5350 C   0  0  0  0  0  0  0  0  0  0  0  0
    6.8770   -2.6780   23.3020 C   0  0  0  0  0  0  0  0  0  0  0  0
    6.2240   -4.9240   23.4650 C   0  0  0  0  0  0  0  0  0  0  0  0
    6.6020    0.7430   28.8450 C   0  0  0  0  0  0  0  0  0  0  0  0
    7.6450   -3.0530   22.2290 C   0  0  2  0  0  0  0  0  0  0  0  0
    6.3610   -5.1010   22.0900 C   0  0  0  0  0  0  0  0  0  0  0  0
    8.2160   -1.8410   21.4870 C   0  0  0  0  0  0  0  0  0  0  0  0
    6.7670   -3.9730   21.4590 N   0  0  0  0  0  0  0  0  0  0  0  0
    6.3370   -3.8120   20.1410 C   0  0  0  0  0  0  0  0  0  0  0  0
    8.6810   -0.6230   22.3520 C   0  0  2  0  0  0  0  0  0  0  0  0
    5.2470   -4.2430   19.7730 O   0  0  0  0  0  0  0  0  0  0  0  0
    7.2660   -3.1930   19.1080 C   0  0  0  0  0  0  0  0  0  0  0  0
    8.2400    0.4800   21.6660 C   0  0  0  0  0  0  0  0  0  0  0  0
   10.1450   -0.5070   22.6560 C   0  0  0  0  0  0  0  0  0  0  0  0
    9.0210    1.3640   21.2850 O   0  0  0  0  0  0  0  0  0  0  0  0
    6.8940    0.4360   21.4640 N   0  0  0  0  0  0  0  0  0  0  0  0
   11.0240   -1.3310   22.0490 C   0  0  0  0  0  0  0  0  0  0  0  0
   10.6830    0.4250   23.5370 C   0  0  0  0  0  0  0  0  0  0  0  0
   12.0340    0.5320   23.8030 N   0  0  0  0  0  0  0  0  0  0  0  0
   12.3520   -1.2730   22.2610 C   0  0  0  0  0  0  0  0  0  0  0  0
    6.2580    0.7430   20.2750 C   0  0  0  0  0  0  0  0  0  0  0  0
   13.1030   -2.2700   21.4700 C   0  0  0  0  0  0  0  0  0  0  0  0
   12.8580   -0.3310   23.1480 C   0  0  0  0  0  0  0  0  0  0  0  0
    6.8220    0.3200   19.0550 C   0  0  0  0  0  0  0  0  0  0  0  0
    5.0790    1.4570   20.1500 C   0  0  0  0  0  0  0  0  0  0  0  0
   13.6250   -3.2450   20.6700 N   0  0  0  0  0  0  0  0  0  0  0  0
    6.3290    0.5640   17.8290 N   0  0  0  0  0  0  0  0  0  0  0  0
    4.5400    1.7220   18.9110 C   0  0  0  0  0  0  0  0  0  0  0  0
    5.1960    1.2670   17.7940 C   0  0  0  0  0  0  0  0  0  0  0  0
  1  2  1  0
  2  3  2  0
  1  4  1  0
  4  5  2  0
  4  6  1  0
  7  2  1  1
  5  8  1  0
  6  9  2  0
  5 10  1  0
  7 11  1  0
  7 12  1  0
  9 13  1  0
 10 13  2  0
 11 14  1  0
 12 15  1  0
 14 16  1  6
 14 17  1  0
 15 17  1  0
 17 18  1  0
 19 16  1  6
 18 20  2  0
 18 21  1  0
 19 22  1  0
 19 23  1  0
 22 24  2  0
 22 25  1  0
 23 26  2  0
 23 27  1  0
 27 28  2  0
 26 29  1  0
 25 30  1  0
 29 31  1  0
 28 32  1  0
 29 32  2  0
 30 33  2  0
 30 34  1  0
 31 35  3  0
 33 36  1  0
 34 37  2  0
 36 38  2  0
 37 38  1  0
M  END
