x1358-x0434
     RDKit          3D

 36 39  0  0  0  0  0  0  0  0999 V2000
    6.8600   -2.7090   26.1000 N   0  0  0  0  0  0  0  0  0  0  0  0
    5.8310   -3.2600   25.2390 C   0  0  0  0  0  0  0  0  0  0  0  0
    4.6140   -3.1900   25.3740 O   0  0  0  0  0  0  0  0  0  0  0  0
    6.6940   -1.5660   27.0220 C   0  0  0  0  0  0  0  0  0  0  0  0
    5.9490   -0.3180   26.5250 C   0  0  0  0  0  0  0  0  0  0  0  0
    7.2500   -1.5750   28.4630 C   0  0  0  0  0  0  0  0  0  0  0  0
    6.4670   -4.0110   24.0700 C   0  0  2  0  0  0  0  0  0  0  0  0
    5.4370   -0.2580   25.2570 O   0  0  0  0  0  0  0  0  0  0  0  0
    7.0870   -0.3970   29.3920 C   0  0  0  0  0  0  0  0  0  0  0  0
    5.7810    0.7810   27.3580 C   0  0  0  0  0  0  0  0  0  0  0  0
    7.4470   -3.3570   23.3960 C   0  0  0  0  0  0  0  0  0  0  0  0
    5.4560   -4.7650   23.1910 C   0  0  0  0  0  0  0  0  0  0  0  0
    6.3360    0.7860   28.8060 C   0  0  0  0  0  0  0  0  0  0  0  0
    7.2020   -2.9170   22.0480 C   0  0  2  0  0  0  0  0  0  0  0  0
    6.1620   -5.0790   22.0960 C   0  0  0  0  0  0  0  0  0  0  0  0
    6.3380   -1.7210   21.7920 C   0  0  0  0  0  0  0  0  0  0  0  0
    6.6630   -4.0850   21.3430 N   0  0  0  0  0  0  0  0  0  0  0  0
    6.1950   -3.9060   20.0770 C   0  0  0  0  0  0  0  0  0  0  0  0
    7.0360   -0.6570   21.0700 N   0  0  0  0  0  0  0  0  0  0  0  0
    5.1050   -4.3310   19.7480 O   0  0  0  0  0  0  0  0  0  0  0  0
    7.1200   -3.1920   19.0990 C   0  0  0  0  0  0  0  0  0  0  0  0
    8.3060   -0.1470   21.5310 C   0  0  0  0  0  0  0  0  0  0  0  0
    6.3790    0.0240   20.0080 C   0  0  0  0  0  0  0  0  0  0  0  0
    8.6210    1.0040   21.2370 O   0  0  0  0  0  0  0  0  0  0  0  0
    9.1360   -0.9320   22.2720 N   0  0  0  0  0  0  0  0  0  0  0  0
    5.2200    0.7720   20.2440 C   0  0  0  0  0  0  0  0  0  0  0  0
    6.9740   -0.0820   18.6570 C   0  0  0  0  0  0  0  0  0  0  0  0
   10.4180   -0.5730   22.6250 C   0  0  0  0  0  0  0  0  0  0  0  0
    4.5460    1.4740   19.2440 C   0  0  0  0  0  0  0  0  0  0  0  0
    6.2300    0.6750   17.6380 N   0  0  0  0  0  0  0  0  0  0  0  0
   10.6610    0.5100   23.4340 C   0  0  0  0  0  0  0  0  0  0  0  0
   11.4720   -1.3260   22.1260 C   0  0  0  0  0  0  0  0  0  0  0  0
    5.1380    1.3670   17.9530 C   0  0  0  0  0  0  0  0  0  0  0  0
   11.9460    0.8520   23.7370 C   0  0  0  0  0  0  0  0  0  0  0  0
   12.7780   -0.9740   22.4380 C   0  0  0  0  0  0  0  0  0  0  0  0
   13.0150    0.1280   23.2460 C   0  0  0  0  0  0  0  0  0  0  0  0
  1  2  1  0
  2  3  2  0
  1  4  1  0
  4  5  2  0
  4  6  1  0
  7  2  1  6
  5  8  1  0
  6  9  2  0
  5 10  1  0
  7 11  1  0
  7 12  1  0
  9 13  1  0
 10 13  2  0
 11 14  1  0
 12 15  1  0
 14 16  1  1
 14 17  1  0
 15 17  1  0
 17 18  1  0
 16 19  1  0
 18 20  2  0
 18 21  1  0
 19 22  1  0
 19 23  1  0
 22 24  2  0
 22 25  1  0
 23 26  2  0
 23 27  1  0
 25 28  1  0
 26 29  1  0
 27 30  2  0
 28 31  2  0
 28 32  1  0
 29 33  2  0
 30 33  1  0
 31 34  1  0
 32 35  2  0
 34 36  2  0
 35 36  1  0
M  END
