x1358-x0104
     RDKit          3D

 38 41  0  0  0  0  0  0  0  0999 V2000
    5.6680   -1.5620   24.7040 N   0  0  0  0  0  0  0  0  0  0  0  0
    4.9400   -2.8150   24.3100 C   0  0  0  0  0  0  0  0  0  0  0  0
    3.7260   -2.9220   24.6010 O   0  0  0  0  0  0  0  0  0  0  0  0
    5.6830   -0.3170   23.9590 C   0  0  0  0  0  0  0  0  0  0  0  0
    5.9680   -1.4600   26.1820 C   0  0  0  0  0  0  0  0  0  0  0  0
    6.8020    0.7290   24.0280 C   0  0  0  0  0  0  0  0  0  0  0  0
    5.0520   -0.9720   27.1470 C   0  0  0  0  0  0  0  0  0  0  0  0
    7.2660   -1.8650   26.6910 C   0  0  0  0  0  0  0  0  0  0  0  0
    5.5840   -4.0070   23.6310 C   0  0  0  0  0  0  0  0  0  0  0  0
    3.8000   -0.5780   26.7340 O   0  0  0  0  0  0  0  0  0  0  0  0
    8.1790    0.1730   23.6170 C   0  0  0  0  0  0  0  0  0  0  0  0
    7.5800   -1.7780   28.0540 C   0  0  0  0  0  0  0  0  0  0  0  0
    5.3690   -0.8830   28.5420 C   0  0  0  0  0  0  0  0  0  0  0  0
    6.9730   -3.8400   23.2270 C   0  0  0  0  0  0  0  0  0  0  0  0
    4.6980   -4.5780   22.5990 C   0  0  0  0  0  0  0  0  0  0  0  0
    6.6120   -1.2700   29.0960 C   0  0  0  0  0  0  0  0  0  0  0  0
    7.1850   -3.4920   21.8580 C   0  0  0  0  0  0  0  0  0  0  0  0
    5.3410   -5.1330   21.4270 C   0  0  0  0  0  0  0  0  0  0  0  0
    9.1370    1.2990   23.3380 N   0  0  0  0  0  0  0  0  0  0  0  0
    6.3150   -4.2260   20.8660 N   0  0  0  0  0  0  0  0  0  0  0  0
   10.0020    2.3110   23.0860 C   0  0  0  0  0  0  0  0  0  0  0  0
   10.3190    0.3250   22.9850 C   0  0  0  0  0  0  0  0  0  0  0  0
    6.0870   -3.5940   19.6020 C   0  0  0  0  0  0  0  0  0  0  0  0
   11.3110    2.3880   22.7090 C   0  0  0  0  0  0  0  0  0  0  0  0
   11.5940    0.9640   22.6280 C   0  0  0  0  0  0  0  0  0  0  0  0
   10.4940   -1.1760   22.9180 C   0  0  0  0  0  0  0  0  0  0  0  0
    4.9560   -3.5080   19.1320 O   0  0  0  0  0  0  0  0  0  0  0  0
    7.3130   -3.0370   18.8410 C   0  0  0  0  0  0  0  0  0  0  0  0
   12.2200    3.6130   22.4390 C   0  0  0  0  0  0  0  0  0  0  0  0
   11.7120   -1.8110   22.5570 C   0  0  0  0  0  0  0  0  0  0  0  0
   12.8220    0.3440   22.2710 C   0  0  0  0  0  0  0  0  0  0  0  0
   11.9270    4.9410   23.2170 C   0  0  0  0  0  0  0  0  0  0  0  0
   12.8500   -1.0480   22.2420 C   0  0  0  0  0  0  0  0  0  0  0  0
   11.2880    5.9100   22.4210 N   0  0  0  0  0  0  0  0  0  0  0  0
   13.9660   -1.6890   21.9150 F   0  0  0  0  0  0  0  0  0  0  0  0
   10.4370    6.9050   22.9250 C   0  0  0  0  0  0  0  0  0  0  0  0
    9.2070    7.0450   22.2640 C   0  0  0  0  0  0  0  0  0  0  0  0
   10.8060    7.5820   23.8950 O   0  0  0  0  0  0  0  0  0  0  0  0
  1  2  1  0
  2  3  2  0
  1  4  1  0
  1  5  1  0
  4  6  1  0
  5  7  2  0
  5  8  1  0
  2  9  1  0
  7 10  1  0
  6 11  1  0
  8 12  2  0
  7 13  1  0
  9 14  1  0
  9 15  1  0
 12 16  1  0
 13 16  2  0
 14 17  1  0
 15 18  1  0
 11 19  1  0
 17 20  1  0
 18 20  1  0
 19 21  1  0
 19 22  1  0
 20 23  1  0
 21 24  2  0
 22 25  2  0
 24 25  1  0
 22 26  1  0
 23 27  2  0
 23 28  1  0
 24 29  1  0
 26 30  2  0
 25 31  1  0
 29 32  1  0
 30 33  1  0
 31 33  2  0
 32 34  1  0
 33 35  1  0
 34 36  1  0
 36 37  1  0
 36 38  2  0
M  END
