x1351-x0540-x1119-x2694
     RDKit          3D

 84 91  0  0  0  0  0  0  0  0999 V2000
    7.8550   -0.8290   21.9160 N   0  0  0  0  0  0  0  0  0  0  0  0
    7.0640    0.3640   21.7460 C   0  0  1  0  0  0  0  0  0  0  0  0
    7.9490    1.6100   21.9160 C   0  0  0  0  0  0  0  0  0  0  0  0
    7.3520   -1.9550   21.3490 C   0  0  0  0  0  0  0  0  0  0  0  0
    8.9350   -0.9360   22.7620 C   0  0  0  0  0  0  0  0  0  0  0  0
    6.2940    0.5200   20.4370 C   0  0  0  0  0  0  0  0  0  0  0  0
    9.0400   -0.8490   24.0910 N   0  0  0  0  0  0  0  0  0  0  0  0
   10.1670   -1.1890   22.2810 C   0  0  0  0  0  0  0  0  0  0  0  0
    7.4300   -3.2160   22.2110 C   0  0  2  0  0  0  0  0  0  0  0  0
    7.6510    2.5720   22.8140 N   0  0  0  0  0  0  0  0  0  0  0  0
    8.9580    1.8050   21.2330 O   0  0  0  0  0  0  0  0  0  0  0  0
    4.9950    0.9640   20.3870 C   0  0  0  0  0  0  0  0  0  0  0  0
    6.8860    0.2150   19.0830 C   0  0  0  0  0  0  0  0  0  0  0  0
   10.3860   -1.0560   24.4070 O   0  0  0  0  0  0  0  0  0  0  0  0
   11.0870   -1.2660   23.2580 C   0  0  0  0  0  0  0  0  0  0  0  0
    6.6380   -4.2870   21.5650 N   0  0  0  0  0  0  0  0  0  0  0  0
    7.0320   -3.0070   23.5250 C   0  0  0  0  0  0  0  0  0  0  0  0
   12.5370   -1.4930   23.3250 C   0  0  0  0  0  0  0  0  0  0  0  0
    4.2200    1.2810   21.6310 C   0  0  0  0  0  0  0  0  0  0  0  0
    6.1630   -4.1780   20.2320 C   0  0  0  0  0  0  0  0  0  0  0  0
    6.3080    0.3610   17.8810 N   0  0  0  0  0  0  0  0  0  0  0  0
    4.3520    1.1340   19.1710 C   0  0  0  0  0  0  0  0  0  0  0  0
    8.5670    3.5960   23.0090 C   0  0  0  0  0  0  0  0  0  0  0  0
    5.7250   -3.3220   23.7890 C   0  0  2  0  0  0  0  0  0  0  0  0
    6.0080   -5.2960   22.4370 C   0  0  0  0  0  0  0  0  0  0  0  0
   13.0270   -0.2070   23.5130 C   0  0  0  0  0  0  0  0  0  0  0  0
   13.0160   -2.0490   21.9690 C   0  0  0  0  0  0  0  0  0  0  0  0
   12.9460   -2.4030   24.4890 C   0  0  0  0  0  0  0  0  0  0  0  0
    4.8220    2.2320   22.4450 C   0  0  0  0  0  0  0  0  0  0  0  0
    6.9450   -3.3680   19.1930 C   0  0  0  0  0  0  0  0  0  0  0  0
    5.1650   -4.7770   19.9100 O   0  0  0  0  0  0  0  0  0  0  0  0
    5.3080   -2.8200   25.1110 N   0  0  0  0  0  0  0  0  0  0  0  0
    5.0710    0.8180   17.8950 C   0  0  0  0  0  0  0  0  0  0  0  0
    9.9310    3.3170   23.6350 C   0  0  0  0  0  0  0  0  0  0  0  0
    8.2390    4.8810   22.6220 C   0  0  0  0  0  0  0  0  0  0  0  0
    5.3600   -4.7560   23.5710 C   0  0  0  0  0  0  0  0  0  0  0  0
   10.3790    1.9640   24.0870 C   0  0  0  0  0  0  0  0  0  0  0  0
    3.7980    3.0540   23.0890 N   0  0  0  0  0  0  0  0  0  0  0  0
    6.1920   -2.5470   26.2600 C   0  0  0  0  0  0  0  0  0  0  0  0
   10.7190    4.4600   23.7340 C   0  0  0  0  0  0  0  0  0  0  0  0
    9.0920    5.9590   22.7630 C   0  0  0  0  0  0  0  0  0  0  0  0
    2.8090    2.3590   23.6730 C   0  0  0  0  0  0  0  0  0  0  0  0
    6.9260   -3.3850   26.7170 O   0  0  0  0  0  0  0  0  0  0  0  0
   10.3430    5.7380   23.3200 C   0  0  0  0  0  0  0  0  0  0  0  0
    6.1290   -1.2040   26.9110 C   0  0  0  0  0  0  0  0  0  0  0  0
   11.2570    6.7160   23.4910 O   0  0  0  0  0  0  0  0  0  0  0  0
    2.9680    1.5220   24.5680 O   0  0  0  0  0  0  0  0  0  0  0  0
    1.5950    2.6760   23.1370 N   0  0  0  0  0  0  0  0  0  0  0  0
    6.8920   -0.9220   28.0530 C   0  0  0  0  0  0  0  0  0  0  0  0
    5.2840   -0.2250   26.3650 C   0  0  0  0  0  0  0  0  0  0  0  0
   12.6290    6.3560   23.5880 C   0  0  0  0  0  0  0  0  0  0  0  0
    0.4990    3.0990   23.9980 C   0  0  0  0  0  0  0  0  0  0  0  0
    6.7760    0.4770   28.6920 C   0  0  0  0  0  0  0  0  0  0  0  0
    5.1730    1.0560   26.9410 C   0  0  0  0  0  0  0  0  0  0  0  0
   13.2460    5.4500   22.5350 C   0  0  0  0  0  0  0  0  0  0  0  0
    0.6210    4.5650   24.4310 C   0  0  0  0  0  0  0  0  0  0  0  0
   -0.6940    2.7490   23.3920 C   0  0  0  0  0  0  0  0  0  0  0  0
    5.9190    1.4190   28.1150 C   0  0  0  0  0  0  0  0  0  0  0  0
   14.3390    4.5950   22.9350 C   0  0  0  0  0  0  0  0  0  0  0  0
   -0.5760    5.0620   24.9620 C   0  0  0  0  0  0  0  0  0  0  0  0
   -1.8950    3.2850   23.8900 C   0  0  0  0  0  0  0  0  0  0  0  0
   15.7200    4.8890   22.5960 C   0  0  0  0  0  0  0  0  0  0  0  0
   -1.7130    4.7930   24.2360 C   0  0  0  0  0  0  0  0  0  0  0  0
   17.0040    4.2920   22.6770 C   0  0  0  0  0  0  0  0  0  0  0  0
   18.2590    5.0790   23.2200 C   0  0  0  0  0  0  0  0  0  0  0  0
   19.4230    5.3650   22.1970 C   0  0  0  0  0  0  0  0  0  0  0  0
   19.7580    6.8980   22.2360 C   0  0  0  0  0  0  0  0  0  0  0  0
   21.1850    7.2300   22.3700 N   0  0  0  0  0  0  0  0  0  0  0  0
   21.9290    6.2380   22.9610 C   0  0  0  0  0  0  0  0  0  0  0  0
   23.2430    5.8730   22.6370 C   0  0  0  0  0  0  0  0  0  0  0  0
   21.2810    5.5510   23.9600 C   0  0  0  0  0  0  0  0  0  0  0  0
   23.8680    4.8250   23.3220 C   0  0  0  0  0  0  0  0  0  0  0  0
   21.8980    4.5320   24.6000 C   0  0  0  0  0  0  0  0  0  0  0  0
   23.1670    4.1510   24.3190 C   0  0  0  0  0  0  0  0  0  0  0  0
   23.7950    2.7940   25.2660 S   0  0  0  0  0  0  0  0  0  0  0  0
   22.6760    1.8970   25.4730 O   0  0  0  0  0  0  0  0  0  0  0  0
   24.1590    3.2880   26.8250 N   0  0  0  0  0  0  0  0  0  0  0  0
   25.0280    2.1110   24.5390 O   0  0  0  0  0  0  0  0  0  0  0  0
   24.9940    4.3680   27.1420 C   0  0  0  0  0  0  0  0  0  0  0  0
   25.0920    4.6730   28.4490 N   0  0  0  0  0  0  0  0  0  0  0  0
   25.6680    5.0630   26.1530 C   0  0  0  0  0  0  0  0  0  0  0  0
   25.8860    5.7040   28.7930 C   0  0  0  0  0  0  0  0  0  0  0  0
   26.4840    6.1250   26.5250 C   0  0  0  0  0  0  0  0  0  0  0  0
   26.5970    6.4540   27.8770 C   0  0  0  0  0  0  0  0  0  0  0  0
  1  2  1  0
  2  3  1  6
  1  4  1  0
  1  5  1  0
  2  6  1  0
  5  7  2  0
  5  8  1  0
  9  4  1  6
  3 10  1  0
  3 11  2  0
  6 12  1  0
  6 13  2  0
  7 14  1  0
  8 15  2  0
 14 15  1  0
  9 16  1  0
  9 17  1  0
 15 18  1  0
 12 19  1  0
 16 20  1  0
 13 21  1  0
 12 22  2  0
 10 23  1  0
 17 24  1  0
 16 25  1  0
 18 26  1  0
 18 27  1  0
 18 28  1  0
 19 29  1  0
 20 30  1  0
 20 31  2  0
 24 32  1  1
 21 33  2  0
 22 33  1  0
 23 34  2  0
 23 35  1  0
 24 36  1  0
 25 36  1  0
 34 37  1  0
 29 38  1  0
 32 39  1  0
 34 40  1  0
 35 41  2  0
 38 42  1  0
 39 43  2  0
 40 44  2  0
 41 44  1  0
 39 45  1  0
 44 46  1  0
 42 47  2  0
 42 48  1  0
 45 49  2  0
 45 50  1  0
 46 51  1  0
 48 52  1  0
 49 53  1  0
 50 54  2  0
 51 55  1  0
 52 56  1  0
 52 57  1  0
 53 58  2  0
 54 58  1  0
 55 59  1  0
 56 60  1  0
 57 61  1  0
 59 62  1  0
 60 63  1  0
 61 63  1  0
 62 64  1  0
 64 65  1  0
 65 66  1  0
 66 67  1  0
 67 68  1  0
 68 69  1  0
 69 70  2  0
 69 71  1  0
 70 72  1  0
 71 73  2  0
 72 74  2  0
 73 74  1  0
 74 75  1  0
 75 76  2  0
 75 77  1  0
 75 78  2  0
 77 79  1  0
 79 80  2  0
 79 81  1  0
 80 82  1  0
 81 83  2  0
 82 84  2  0
 83 84  1  0
M  END
