x1351-x2776
     RDKit          3D

 48 52  0  0  0  0  0  0  0  0999 V2000
    7.5460   -1.5060   21.6060 N   0  0  0  0  0  0  0  0  0  0  0  0
    6.9760   -0.0730   21.6580 C   0  0  1  0  0  0  0  0  0  0  0  0
    8.0470    1.0800   21.8360 C   0  0  0  0  0  0  0  0  0  0  0  0
    8.7250   -1.4880   22.3240 C   0  0  0  0  0  0  0  0  0  0  0  0
    6.9590   -2.6970   22.2420 C   0  0  2  0  0  0  0  0  0  0  0  0
    6.3080    0.3690   20.3840 C   0  0  0  0  0  0  0  0  0  0  0  0
    9.8740   -2.2000   21.7190 C   0  0  0  0  0  0  0  0  0  0  0  0
    8.9060   -0.8920   23.5660 C   0  0  0  0  0  0  0  0  0  0  0  0
    6.2500   -3.7450   21.5030 N   0  0  0  0  0  0  0  0  0  0  0  0
    6.2030   -2.3170   23.3040 C   0  0  0  0  0  0  0  0  0  0  0  0
    7.8200    1.9800   22.8640 N   0  0  0  0  0  0  0  0  0  0  0  0
    9.0140    1.2600   21.1060 O   0  0  0  0  0  0  0  0  0  0  0  0
    6.0390   -3.8350   20.1410 C   0  0  0  0  0  0  0  0  0  0  0  0
    5.0350    1.2010   20.3730 C   0  0  0  0  0  0  0  0  0  0  0  0
    6.9480   -0.0050   19.0340 C   0  0  0  0  0  0  0  0  0  0  0  0
   11.0540   -2.2560   22.3360 C   0  0  0  0  0  0  0  0  0  0  0  0
   10.1490   -0.9800   24.1900 C   0  0  0  0  0  0  0  0  0  0  0  0
    6.1020   -3.3560   24.1980 C   0  0  1  0  0  0  0  0  0  0  0  0
    6.0060   -4.9830   22.2780 C   0  0  0  0  0  0  0  0  0  0  0  0
    6.9930   -3.1660   19.1550 C   0  0  0  0  0  0  0  0  0  0  0  0
    5.0850   -4.4880   19.7870 O   0  0  0  0  0  0  0  0  0  0  0  0
    5.4360   -2.8460   25.3790 N   0  0  0  0  0  0  0  0  0  0  0  0
    6.3440    0.4570   17.7780 N   0  0  0  0  0  0  0  0  0  0  0  0
    4.4270    1.6600   19.0600 C   0  0  0  0  0  0  0  0  0  0  0  0
    8.6070    3.1960   23.1320 C   0  0  0  0  0  0  0  0  0  0  0  0
   11.2840   -1.6330   23.6580 C   0  0  0  0  0  0  0  0  0  0  0  0
    5.4400   -4.6520   23.6600 C   0  0  0  0  0  0  0  0  0  0  0  0
   12.5660   -1.7160   24.3020 C   0  0  2  0  0  0  0  0  0  0  0  0
    6.1290   -2.5700   26.4980 C   0  0  0  0  0  0  0  0  0  0  0  0
    5.1270    1.2670   17.7720 C   0  0  0  0  0  0  0  0  0  0  0  0
    9.9450    3.1150   23.5760 C   0  0  0  0  0  0  0  0  0  0  0  0
    7.9850    4.4510   22.9310 C   0  0  0  0  0  0  0  0  0  0  0  0
   12.5330   -2.6290   25.3740 O   0  0  0  0  0  0  0  0  0  0  0  0
   10.6600    1.8180   23.8030 C   0  0  0  0  0  0  0  0  0  0  0  0
   12.8410   -0.4750   24.7660 C   0  0  0  0  0  0  0  0  0  0  0  0
    6.8520   -3.5610   27.2000 O   0  0  0  0  0  0  0  0  0  0  0  0
   10.6880    4.3800   23.8350 C   0  0  0  0  0  0  0  0  0  0  0  0
    8.6470    5.6110   23.1670 C   0  0  0  0  0  0  0  0  0  0  0  0
    6.0990   -1.1910   27.0480 C   0  0  0  0  0  0  0  0  0  0  0  0
   13.8280   -3.0250   25.6900 C   0  0  0  0  0  0  0  0  0  0  0  0
   10.0860    5.5900   23.6540 C   0  0  0  0  0  0  0  0  0  0  0  0
    6.8570   -0.8400   28.1730 C   0  0  0  0  0  0  0  0  0  0  0  0
    5.2030   -0.1460   26.3650 C   0  0  0  0  0  0  0  0  0  0  0  0
   10.7350    6.8390   23.8980 O   0  0  0  0  0  0  0  0  0  0  0  0
    6.7940    0.5740   28.7350 C   0  0  0  0  0  0  0  0  0  0  0  0
    5.1030    1.1750   26.8360 C   0  0  0  0  0  0  0  0  0  0  0  0
   11.8210    6.8000   24.8230 C   0  0  0  0  0  0  0  0  0  0  0  0
    5.8950    1.6350   28.0650 C   0  0  0  0  0  0  0  0  0  0  0  0
  1  2  1  0
  2  3  1  6
  1  4  1  0
  5  1  1  6
  2  6  1  0
  4  7  2  0
  4  8  1  0
  5  9  1  0
  5 10  1  0
  3 11  1  0
  3 12  2  0
  9 13  1  0
  6 14  2  0
  6 15  1  0
  7 16  1  0
  8 17  2  0
 10 18  1  0
  9 19  1  0
 13 20  1  0
 13 21  2  0
 18 22  1  1
 15 23  2  0
 14 24  1  0
 11 25  1  0
 16 26  2  0
 17 26  1  0
 18 27  1  0
 19 27  1  0
 26 28  1  0
 22 29  1  0
 23 30  1  0
 24 30  2  0
 25 31  2  0
 25 32  1  0
 28 33  1  0
 31 34  1  0
 28 35  1  1
 29 36  2  0
 31 37  1  0
 32 38  2  0
 29 39  1  0
 33 40  1  0
 37 41  2  0
 38 41  1  0
 39 42  2  0
 39 43  1  0
 41 44  1  0
 42 45  1  0
 43 46  2  0
 44 47  1  0
 45 48  2  0
 46 48  1  0
M  END
