x1358-x2694
     RDKit          3D

 49 53  0  0  0  0  0  0  0  0999 V2000
    7.6150   -0.7680   22.0590 N   0  0  0  0  0  0  0  0  0  0  0  0
    7.0760    0.5430   21.7100 C   0  0  1  0  0  0  0  0  0  0  0  0
    8.0830    1.6880   21.7250 C   0  0  0  0  0  0  0  0  0  0  0  0
    7.3520   -1.8320   21.1600 C   0  0  0  0  0  0  0  0  0  0  0  0
    8.7670   -0.9020   22.7880 C   0  0  0  0  0  0  0  0  0  0  0  0
    6.4370    0.6980   20.3190 C   0  0  0  0  0  0  0  0  0  0  0  0
    8.9350   -0.8760   24.1320 N   0  0  0  0  0  0  0  0  0  0  0  0
   10.0020   -1.1140   22.2210 C   0  0  0  0  0  0  0  0  0  0  0  0
    7.4390   -3.1970   21.8760 C   0  0  2  0  0  0  0  0  0  0  0  0
    7.7270    2.7190   22.5630 N   0  0  0  0  0  0  0  0  0  0  0  0
    9.1070    1.7430   21.0820 O   0  0  0  0  0  0  0  0  0  0  0  0
    5.2860    1.4780   20.2340 C   0  0  0  0  0  0  0  0  0  0  0  0
    6.9840    0.0850   19.1200 C   0  0  0  0  0  0  0  0  0  0  0  0
   10.2910   -1.0730   24.3810 O   0  0  0  0  0  0  0  0  0  0  0  0
   10.9570   -1.2180   23.2030 C   0  0  0  0  0  0  0  0  0  0  0  0
    6.5510   -4.1610   21.2270 N   0  0  0  0  0  0  0  0  0  0  0  0
    7.2080   -3.0640   23.3900 C   0  0  0  0  0  0  0  0  0  0  0  0
   12.4280   -1.4270   23.2490 C   0  0  0  0  0  0  0  0  0  0  0  0
    6.1430   -3.8660   19.9370 C   0  0  0  0  0  0  0  0  0  0  0  0
    6.3200    0.3300   17.9600 N   0  0  0  0  0  0  0  0  0  0  0  0
    4.6770    1.6690   19.0150 C   0  0  0  0  0  0  0  0  0  0  0  0
    8.5970    3.7380   22.9520 C   0  0  0  0  0  0  0  0  0  0  0  0
    6.3510   -4.0850   24.1210 C   0  0  1  0  0  0  0  0  0  0  0  0
    6.1210   -5.3210   21.9870 C   0  0  0  0  0  0  0  0  0  0  0  0
   12.9610   -0.1630   23.4670 C   0  0  0  0  0  0  0  0  0  0  0  0
   12.9410   -1.9920   21.9110 C   0  0  0  0  0  0  0  0  0  0  0  0
   12.8380   -2.3780   24.3980 C   0  0  0  0  0  0  0  0  0  0  0  0
    5.0170   -4.1550   19.6030 O   0  0  0  0  0  0  0  0  0  0  0  0
    5.7130   -3.3930   25.3310 C   0  0  0  0  0  0  0  0  0  0  0  0
    7.1390   -3.2430   18.9520 C   0  0  0  0  0  0  0  0  0  0  0  0
    5.2160    1.0940   17.9370 C   0  0  0  0  0  0  0  0  0  0  0  0
    9.8310    3.5040   23.5990 C   0  0  0  0  0  0  0  0  0  0  0  0
    8.2200    5.0660   22.6760 C   0  0  0  0  0  0  0  0  0  0  0  0
    5.3830   -4.8360   23.2170 C   0  0  0  0  0  0  0  0  0  0  0  0
   10.3660    2.1320   23.9600 C   0  0  0  0  0  0  0  0  0  0  0  0
    6.7290   -2.6010   26.0600 N   0  0  0  0  0  0  0  0  0  0  0  0
    4.5300   -3.5090   25.6150 O   0  0  0  0  0  0  0  0  0  0  0  0
   10.6420    4.5730   23.9470 C   0  0  0  0  0  0  0  0  0  0  0  0
    8.9880    6.1750   23.0070 C   0  0  0  0  0  0  0  0  0  0  0  0
   10.3250    5.9030   23.7130 C   0  0  0  0  0  0  0  0  0  0  0  0
    6.6300   -1.5660   27.0190 C   0  0  0  0  0  0  0  0  0  0  0  0
   11.1150    6.9520   24.0680 O   0  0  0  0  0  0  0  0  0  0  0  0
    5.9110   -0.2560   26.6160 C   0  0  0  0  0  0  0  0  0  0  0  0
    7.1430   -1.6320   28.3150 C   0  0  0  0  0  0  0  0  0  0  0  0
   11.8840    6.7810   25.2530 C   0  0  0  0  0  0  0  0  0  0  0  0
    5.3880   -0.1490   25.3530 O   0  0  0  0  0  0  0  0  0  0  0  0
    6.9980   -0.5410   29.1690 C   0  0  0  0  0  0  0  0  0  0  0  0
    5.8040    0.7920   27.5290 C   0  0  0  0  0  0  0  0  0  0  0  0
    6.3520    0.6460   28.8090 C   0  0  0  0  0  0  0  0  0  0  0  0
  1  2  1  0
  2  3  1  6
  1  4  1  0
  1  5  1  0
  2  6  1  0
  5  7  2  0
  5  8  1  0
  9  4  1  6
  3 10  1  0
  3 11  2  0
  6 12  2  0
  6 13  1  0
  7 14  1  0
  8 15  2  0
 14 15  1  0
  9 16  1  0
  9 17  1  0
 15 18  1  0
 16 19  1  0
 13 20  2  0
 12 21  1  0
 10 22  1  0
 17 23  1  0
 16 24  1  0
 18 25  1  0
 18 26  1  0
 18 27  1  0
 19 28  2  0
 23 29  1  1
 19 30  1  0
 20 31  1  0
 21 31  2  0
 22 32  2  0
 22 33  1  0
 23 34  1  0
 24 34  1  0
 32 35  1  0
 29 36  1  0
 29 37  2  0
 32 38  1  0
 33 39  2  0
 38 40  2  0
 39 40  1  0
 36 41  1  0
 40 42  1  0
 41 43  2  0
 41 44  1  0
 42 45  1  0
 43 46  1  0
 44 47  2  0
 43 48  1  0
 47 49  1  0
 48 49  2  0
M  END
