x1351-x2910
     RDKit          3D

 42 47  0  0  0  0  0  0  0  0999 V2000
    7.5140   -1.4360   21.5590 N   0  0  0  0  0  0  0  0  0  0  0  0
    6.3290   -1.0700   20.8750 C   0  0  0  0  0  0  0  0  0  0  0  0
    5.5490   -2.2600   20.9850 N   0  0  0  0  0  0  0  0  0  0  0  0
    7.3530   -2.5900   22.2250 C   0  0  2  0  0  0  0  0  0  0  0  0
    8.9070   -2.7280   22.2970 C   0  0  0  0  0  0  0  0  0  0  0  0
    5.6380   -0.1320   20.1250 C   0  0  0  0  0  0  0  0  0  0  0  0
    6.3500   -3.3610   21.5930 C   0  0  2  0  0  0  0  0  0  0  0  0
    6.7220   -2.1300   23.5260 C   0  0  0  0  0  0  0  0  0  0  0  0
    9.3230   -1.3860   22.7450 O   0  0  0  0  0  0  0  0  0  0  0  0
    6.5160   -3.9680   20.2350 C   0  0  0  0  0  0  0  0  0  0  0  0
    4.4870    0.5650   20.4770 C   0  0  0  0  0  0  0  0  0  0  0  0
    6.2800    0.1580   18.7570 C   0  0  0  0  0  0  0  0  0  0  0  0
    6.5450   -3.4780   24.2860 C   0  0  1  0  0  0  0  0  0  0  0  0
    5.6600   -4.3680   22.2980 C   0  0  0  0  0  0  0  0  0  0  0  0
    7.3190   -3.2640   19.1580 C   0  0  0  0  0  0  0  0  0  0  0  0
    5.9070   -5.0190   20.0130 O   0  0  0  0  0  0  0  0  0  0  0  0
    5.9950   -3.1020   25.5600 N   0  0  0  0  0  0  0  0  0  0  0  0
   10.6390   -0.9960   22.6250 C   0  0  0  0  0  0  0  0  0  0  0  0
    3.8570    1.6040   19.5390 C   0  0  0  0  0  0  0  0  0  0  0  0
    5.5930    1.1730   17.9570 C   0  0  0  0  0  0  0  0  0  0  0  0
    3.8030    0.3950   21.7090 C   0  0  0  0  0  0  0  0  0  0  0  0
    5.5750   -4.2500   23.6730 C   0  0  0  0  0  0  0  0  0  0  0  0
    6.1030    1.4930   16.7670 O   0  0  0  0  0  0  0  0  0  0  0  0
    6.8580   -2.4630   26.5690 C   0  0  0  0  0  0  0  0  0  0  0  0
   10.9010    0.3180   23.0500 C   0  0  0  0  0  0  0  0  0  0  0  0
   11.6690   -1.7890   22.1370 C   0  0  0  0  0  0  0  0  0  0  0  0
    4.5010    1.8480   18.2630 N   0  0  0  0  0  0  0  0  0  0  0  0
    2.7150    2.2930   19.8990 C   0  0  0  0  0  0  0  0  0  0  0  0
    2.6580    1.1290   21.9950 C   0  0  0  0  0  0  0  0  0  0  0  0
    9.9400    0.9700   23.4680 O   0  0  0  0  0  0  0  0  0  0  0  0
    7.9020   -2.9680   26.9490 O   0  0  0  0  0  0  0  0  0  0  0  0
   12.9740   -1.2990   22.0690 C   0  0  0  0  0  0  0  0  0  0  0  0
   12.1850    0.8450   23.0000 C   0  0  0  0  0  0  0  0  0  0  0  0
    2.1500    2.0220   21.1380 C   0  0  0  0  0  0  0  0  0  0  0  0
    6.4270   -1.1490   27.1230 C   0  0  0  0  0  0  0  0  0  0  0  0
    9.8580    2.3550   23.0890 C   0  0  0  0  0  0  0  0  0  0  0  0
   13.3170   -0.0070   22.4790 C   0  0  0  0  0  0  0  0  0  0  0  0
    6.9080   -0.6880   28.3850 C   0  0  0  0  0  0  0  0  0  0  0  0
    5.5460   -0.3490   26.4030 C   0  0  0  0  0  0  0  0  0  0  0  0
    6.5050    0.5620   28.9000 C   0  0  0  0  0  0  0  0  0  0  0  0
    5.1390    0.9720   26.9800 C   0  0  0  0  0  0  0  0  0  0  0  0
    5.6180    1.4040   28.2030 C   0  0  0  0  0  0  0  0  0  0  0  0
  1  2  1  0
  2  3  2  0
  1  4  1  0
  4  5  1  1
  2  6  1  0
  3  7  1  0
  4  7  1  0
  4  8  1  0
  5  9  1  0
  7 10  1  6
  6 11  1  0
  6 12  2  0
  8 13  1  0
  7 14  1  0
 10 15  1  0
 10 16  2  0
 13 17  1  1
  9 18  1  0
 11 19  2  0
 12 20  1  0
 11 21  1  0
 13 22  1  0
 14 22  1  0
 20 23  1  0
 17 24  1  0
 18 25  2  0
 18 26  1  0
 19 27  1  0
 20 27  2  0
 19 28  1  0
 21 29  2  0
 25 30  1  0
 24 31  2  0
 26 32  2  0
 25 33  1  0
 28 34  2  0
 29 34  1  0
 24 35  1  0
 30 36  1  0
 32 37  1  0
 33 37  2  0
 35 38  2  0
 35 39  1  0
 38 40  1  0
 39 41  2  0
 40 42  2  0
 41 42  1  0
M  END
