x1358-x2910
     RDKit          3D

 43 48  0  0  0  0  0  0  0  0999 V2000
    7.3840   -1.4170   21.1900 N   0  0  0  0  0  0  0  0  0  0  0  0
    6.0070   -1.4480   20.8390 C   0  0  0  0  0  0  0  0  0  0  0  0
    5.3900   -2.7060   21.1970 N   0  0  0  0  0  0  0  0  0  0  0  0
    7.4950   -2.5200   22.1360 C   0  0  2  0  0  0  0  0  0  0  0  0
    9.0620   -2.5960   22.2160 C   0  0  0  0  0  0  0  0  0  0  0  0
    5.3610   -0.2510   20.1600 C   0  0  0  0  0  0  0  0  0  0  0  0
    6.5950   -3.4650   21.5370 C   0  0  2  0  0  0  0  0  0  0  0  0
    7.0590   -2.2030   23.4180 C   0  0  0  0  0  0  0  0  0  0  0  0
    9.3540   -1.4730   22.6800 O   0  0  0  0  0  0  0  0  0  0  0  0
    6.5880   -3.8770   20.1180 C   0  0  0  0  0  0  0  0  0  0  0  0
    4.3220    0.5700   20.5270 C   0  0  0  0  0  0  0  0  0  0  0  0
    5.9610    0.0080   18.9850 C   0  0  0  0  0  0  0  0  0  0  0  0
    6.0790   -3.0640   23.9370 C   0  0  2  0  0  0  0  0  0  0  0  0
    6.2090   -4.6380   22.1890 C   0  0  0  0  0  0  0  0  0  0  0  0
    5.8140   -4.7990   19.9190 O   0  0  0  0  0  0  0  0  0  0  0  0
    5.7670   -2.9560   25.4110 C   0  0  0  0  0  0  0  0  0  0  0  0
    7.4090   -3.2120   19.0240 C   0  0  0  0  0  0  0  0  0  0  0  0
   10.6500   -1.0280   22.6270 C   0  0  0  0  0  0  0  0  0  0  0  0
    3.9120    1.6050   19.7310 C   0  0  0  0  0  0  0  0  0  0  0  0
    5.6050    1.0670   18.0930 C   0  0  0  0  0  0  0  0  0  0  0  0
    3.6350    0.3690   21.7490 C   0  0  0  0  0  0  0  0  0  0  0  0
    6.1490   -4.5400   23.5540 C   0  0  0  0  0  0  0  0  0  0  0  0
    6.2930    1.3510   16.7830 O   0  0  0  0  0  0  0  0  0  0  0  0
    6.7910   -2.5550   26.2260 N   0  0  0  0  0  0  0  0  0  0  0  0
    4.6090   -3.2200   25.7610 O   0  0  0  0  0  0  0  0  0  0  0  0
   10.9820    0.3840   23.1330 C   0  0  0  0  0  0  0  0  0  0  0  0
   11.7870   -1.8370   22.1030 C   0  0  0  0  0  0  0  0  0  0  0  0
    4.6000    1.8430   18.4740 N   0  0  0  0  0  0  0  0  0  0  0  0
    2.8280    2.4510   20.1050 C   0  0  0  0  0  0  0  0  0  0  0  0
    2.5920    1.2210   22.0650 C   0  0  0  0  0  0  0  0  0  0  0  0
   10.0030    1.1990   23.6280 O   0  0  0  0  0  0  0  0  0  0  0  0
   13.1440   -1.1940   22.1190 C   0  0  0  0  0  0  0  0  0  0  0  0
   12.2760    0.8720   23.1010 C   0  0  0  0  0  0  0  0  0  0  0  0
    2.1490    2.2660   21.2870 C   0  0  0  0  0  0  0  0  0  0  0  0
    6.7470   -1.4660   27.0560 C   0  0  0  0  0  0  0  0  0  0  0  0
   10.2780    2.5950   23.6530 C   0  0  0  0  0  0  0  0  0  0  0  0
   13.2760    0.1370   22.6290 C   0  0  0  0  0  0  0  0  0  0  0  0
    6.0420   -0.3070   26.7110 C   0  0  0  0  0  0  0  0  0  0  0  0
    7.4520   -1.6030   28.2660 C   0  0  0  0  0  0  0  0  0  0  0  0
    5.3810   -0.2470   25.5110 O   0  0  0  0  0  0  0  0  0  0  0  0
    7.4410   -0.4930   29.1970 C   0  0  0  0  0  0  0  0  0  0  0  0
    6.0010    0.7690   27.5590 C   0  0  0  0  0  0  0  0  0  0  0  0
    6.7290    0.6560   28.8430 C   0  0  0  0  0  0  0  0  0  0  0  0
  1  2  1  0
  2  3  2  0
  1  4  1  0
  4  5  1  1
  2  6  1  0
  3  7  1  0
  4  7  1  0
  4  8  1  0
  5  9  1  0
  7 10  1  6
  6 11  1  0
  6 12  2  0
  8 13  1  0
  7 14  1  0
 10 15  2  0
 13 16  1  1
 10 17  1  0
  9 18  1  0
 11 19  2  0
 12 20  1  0
 11 21  1  0
 13 22  1  0
 14 22  1  0
 20 23  1  0
 16 24  1  0
 16 25  2  0
 18 26  2  0
 18 27  1  0
 19 28  1  0
 20 28  2  0
 19 29  1  0
 21 30  2  0
 26 31  1  0
 27 32  2  0
 26 33  1  0
 29 34  2  0
 30 34  1  0
 24 35  1  0
 31 36  1  0
 32 37  1  0
 33 37  2  0
 35 38  2  0
 35 39  1  0
 38 40  1  0
 39 41  2  0
 38 42  1  0
 41 43  1  0
 42 43  2  0
M  END
