x1358-x0426
     RDKit          3D

 39 42  0  0  0  0  0  0  0  0999 V2000
    6.7750   -2.4090   25.8720 N   0  0  0  0  0  0  0  0  0  0  0  0
    5.7290   -3.0950   25.1400 C   0  0  0  0  0  0  0  0  0  0  0  0
    4.6090   -3.4710   25.4930 O   0  0  0  0  0  0  0  0  0  0  0  0
    6.6570   -1.3490   26.7890 C   0  0  0  0  0  0  0  0  0  0  0  0
    6.0680   -0.1510   26.3450 C   0  0  0  0  0  0  0  0  0  0  0  0
    7.1080   -1.4230   28.1530 C   0  0  0  0  0  0  0  0  0  0  0  0
    6.0400   -3.4120   23.6740 C   0  0  0  0  0  0  0  0  0  0  0  0
    5.6040   -0.0270   25.0340 O   0  0  0  0  0  0  0  0  0  0  0  0
    6.9810   -0.2610   29.1110 C   0  0  0  0  0  0  0  0  0  0  0  0
    5.9520    0.9140   27.2350 C   0  0  0  0  0  0  0  0  0  0  0  0
    7.3140   -2.9540   23.3210 C   0  0  0  0  0  0  0  0  0  0  0  0
    5.7560   -4.7480   23.3770 C   0  0  0  0  0  0  0  0  0  0  0  0
    6.4890    0.4980   24.0160 C   0  0  0  0  0  0  0  0  0  0  0  0
    6.3820    0.8590   28.5280 C   0  0  0  0  0  0  0  0  0  0  0  0
    7.5270   -2.9770   21.9590 C   0  0  0  0  0  0  0  0  0  0  0  0
    6.3270   -5.2210   22.1980 C   0  0  0  0  0  0  0  0  0  0  0  0
    5.8310    1.5890   23.1000 C   0  0  0  0  0  0  0  0  0  0  0  0
    6.7690   -4.0880   21.3560 N   0  0  0  0  0  0  0  0  0  0  0  0
    6.2740   -3.8960   20.0720 C   0  0  0  0  0  0  0  0  0  0  0  0
    4.3480    1.3330   22.7180 C   0  0  1  0  0  0  0  0  0  0  0  0
    5.1760   -4.3200   19.7620 O   0  0  0  0  0  0  0  0  0  0  0  0
    7.1960   -3.1850   19.0850 C   0  0  0  0  0  0  0  0  0  0  0  0
    3.5050    2.0780   23.6540 N   0  0  0  0  0  0  0  0  0  0  0  0
    3.9480    1.5610   21.3780 C   0  0  0  0  0  0  0  0  0  0  0  0
    2.2630    1.6040   23.9980 C   0  0  0  0  0  0  0  0  0  0  0  0
    4.8680    1.1410   20.2520 C   0  0  0  0  0  0  0  0  0  0  0  0
    1.9540    0.4360   23.8130 O   0  0  0  0  0  0  0  0  0  0  0  0
    1.2370    2.5620   24.6520 C   0  0  0  0  0  0  0  0  0  0  0  0
    5.9360    0.2430   20.3930 C   0  0  0  0  0  0  0  0  0  0  0  0
    4.6060    1.7400   18.8680 C   0  0  0  0  0  0  0  0  0  0  0  0
    1.4950    3.8010   25.2210 C   0  0  0  0  0  0  0  0  0  0  0  0
   -0.0690    2.1140   24.6690 C   0  0  0  0  0  0  0  0  0  0  0  0
    6.7270   -0.0720   19.2750 C   0  0  0  0  0  0  0  0  0  0  0  0
    5.4280    1.3720   17.8330 C   0  0  0  0  0  0  0  0  0  0  0  0
    2.7420    4.2910   25.2360 F   0  0  0  0  0  0  0  0  0  0  0  0
   -1.0910    2.8700   25.2330 C   0  0  0  0  0  0  0  0  0  0  0  0
    0.4830    4.5660   25.7880 C   0  0  0  0  0  0  0  0  0  0  0  0
    6.5530    0.4180   18.0270 N   0  0  0  0  0  0  0  0  0  0  0  0
   -0.8590    4.1290   25.8170 C   0  0  0  0  0  0  0  0  0  0  0  0
  1  2  1  0
  2  3  2  0
  1  4  1  0
  4  5  1  0
  4  6  2  0
  2  7  1  0
  5  8  1  0
  6  9  1  0
  5 10  2  0
  7 11  1  0
  7 12  1  0
  8 13  1  0
  9 14  2  0
 10 14  1  0
 11 15  1  0
 12 16  1  0
 13 17  1  0
 15 18  1  0
 16 18  1  0
 18 19  1  0
 20 17  1  6
 19 21  2  0
 19 22  1  0
 20 23  1  0
 20 24  1  0
 23 25  1  0
 24 26  1  0
 25 27  2  0
 25 28  1  0
 26 29  2  0
 26 30  1  0
 28 31  2  0
 28 32  1  0
 29 33  1  0
 30 34  2  0
 31 35  1  0
 32 36  2  0
 31 37  1  0
 33 38  2  0
 34 38  1  0
 36 39  1  0
 37 39  2  0
M  END
