x1374-x2776
     RDKit          3D

 49 53  0  0  0  0  0  0  0  0999 V2000
    7.3440   -1.1240   21.8560 N   0  0  0  0  0  0  0  0  0  0  0  0
    6.9280    0.2940   21.6300 C   0  0  1  0  0  0  0  0  0  0  0  0
    8.0130    1.3080   21.7730 C   0  0  0  0  0  0  0  0  0  0  0  0
    8.6540   -1.2380   22.4390 C   0  0  0  0  0  0  0  0  0  0  0  0
    6.3210    0.5490   20.2830 C   0  0  0  0  0  0  0  0  0  0  0  0
    9.6690   -1.8750   21.7610 C   0  0  0  0  0  0  0  0  0  0  0  0
    8.9100   -0.6970   23.6950 C   0  0  0  0  0  0  0  0  0  0  0  0
    7.7560    2.2100   22.8930 N   0  0  0  0  0  0  0  0  0  0  0  0
    8.9900    1.4200   21.0470 O   0  0  0  0  0  0  0  0  0  0  0  0
    5.2020    1.3820   20.1750 C   0  0  0  0  0  0  0  0  0  0  0  0
    6.8980   -0.0340   19.1540 C   0  0  0  0  0  0  0  0  0  0  0  0
   10.9300   -2.0070   22.1900 C   0  0  0  0  0  0  0  0  0  0  0  0
   10.1890   -0.7850   24.2350 C   0  0  0  0  0  0  0  0  0  0  0  0
    6.3330    0.2410   17.8650 N   0  0  0  0  0  0  0  0  0  0  0  0
    4.6270    1.6690   18.9540 C   0  0  0  0  0  0  0  0  0  0  0  0
    8.5290    3.3520   23.1270 C   0  0  0  0  0  0  0  0  0  0  0  0
   11.3070   -1.4940   23.4060 C   0  0  0  0  0  0  0  0  0  0  0  0
   12.7230   -1.5990   23.9050 C   0  0  2  0  0  0  0  0  0  0  0  0
    5.1670    1.1270   17.8160 C   0  0  0  0  0  0  0  0  0  0  0  0
    9.9720    3.3350   23.6130 C   0  0  0  0  0  0  0  0  0  0  0  0
    8.0130    4.6170   22.9210 C   0  0  0  0  0  0  0  0  0  0  0  0
   13.1380   -2.7610   24.0720 O   0  0  0  0  0  0  0  0  0  0  0  0
   10.6510    2.0160   23.8690 C   0  0  0  0  0  0  0  0  0  0  0  0
   12.7340   -0.6070   25.0670 C   0  0  0  0  0  0  0  0  0  0  0  0
   10.7330    4.4870   23.8480 C   0  0  0  0  0  0  0  0  0  0  0  0
    8.8770    5.8430   23.1930 C   0  0  0  0  0  0  0  0  0  0  0  0
   12.8930   -3.2690   25.3710 C   0  0  0  0  0  0  0  0  0  0  0  0
   10.1930    5.8240   23.6470 C   0  0  0  0  0  0  0  0  0  0  0  0
   11.0060    6.8810   23.9150 O   0  0  0  0  0  0  0  0  0  0  0  0
   11.3940   -3.3120   25.3610 C   0  0  0  0  0  0  0  0  0  0  0  0
   11.8620    6.7360   25.0400 C   0  0  0  0  0  0  0  0  0  0  0  0
   10.6480   -4.5240   25.8600 C   0  0  0  0  0  0  0  0  0  0  0  0
    9.5230   -4.5450   24.8930 C   0  0  0  0  0  0  0  0  0  0  0  0
    8.8340   -3.3630   24.6890 C   0  0  0  0  0  0  0  0  0  0  0  0
    9.1760   -5.6980   24.2040 C   0  0  0  0  0  0  0  0  0  0  0  0
    7.7890   -3.3030   23.8020 C   0  0  0  0  0  0  0  0  0  0  0  0
    8.1310   -5.6930   23.2930 C   0  0  0  0  0  0  0  0  0  0  0  0
    7.3920   -4.5350   23.0410 C   0  0  0  0  0  0  0  0  0  0  0  0
    6.3090   -4.5390   22.1660 N   0  0  0  0  0  0  0  0  0  0  0  0
    6.3090   -4.5070   20.7240 C   0  0  0  0  0  0  0  0  0  0  0  0
    5.3090   -5.1690   22.9950 C   0  0  1  0  0  0  0  0  0  0  0  0
    5.5580   -5.2380   20.0710 O   0  0  0  0  0  0  0  0  0  0  0  0
    7.1840   -3.5060   19.9080 C   0  0  0  0  0  0  0  0  0  0  0  0
    4.1840   -4.4970   23.4440 C   0  0  0  0  0  0  0  0  0  0  0  0
    5.0120   -6.5950   22.5890 C   0  0  0  0  0  0  0  0  0  0  0  0
    3.6530   -6.8790   23.6880 S   0  0  0  0  0  0  0  0  0  0  0  0
    3.1890   -5.2760   23.9010 C   0  0  0  0  0  0  0  0  0  0  0  0
    2.6760   -7.5770   22.9020 O   0  0  0  0  0  0  0  0  0  0  0  0
    4.1730   -7.5630   24.8560 O   0  0  0  0  0  0  0  0  0  0  0  0
  2  1  1  6
  2  3  1  0
  1  4  1  0
  2  5  1  0
  4  6  2  0
  4  7  1  0
  3  8  1  0
  3  9  2  0
  5 10  2  0
  5 11  1  0
  6 12  1  0
  7 13  2  0
 11 14  2  0
 10 15  1  0
  8 16  1  0
 12 17  2  0
 13 17  1  0
 17 18  1  0
 14 19  1  0
 15 19  2  0
 16 20  2  0
 16 21  1  0
 18 22  1  0
 20 23  1  0
 18 24  1  1
 20 25  1  0
 21 26  2  0
 22 27  1  0
 25 28  2  0
 26 28  1  0
 28 29  1  0
 27 30  1  0
 29 31  1  0
 30 32  1  0
 32 33  1  0
 33 34  2  0
 33 35  1  0
 34 36  1  0
 35 37  2  0
 36 38  2  0
 37 38  1  0
 38 39  1  0
 39 40  1  0
 41 39  1  6
 40 42  2  0
 40 43  1  0
 41 44  1  0
 41 45  1  0
 45 46  1  0
 44 47  2  0
 46 47  1  0
 46 48  1  0
 46 49  1  0
M  END
