x1374-x0387-x2694-x0769
     RDKit          3D

 70 78  0  0  0  0  0  0  0  0999 V2000
    7.7730   -0.6940   21.8350 N   0  0  0  0  0  0  0  0  0  0  0  0
    7.0680    0.5850   21.6310 C   0  0  1  0  0  0  0  0  0  0  0  0
    7.9870    1.7680   21.7380 C   0  0  0  0  0  0  0  0  0  0  0  0
    8.4990   -0.8840   22.9870 C   0  0  2  0  0  0  0  0  0  0  0  0
    6.4270    0.7330   20.2990 C   0  0  0  0  0  0  0  0  0  0  0  0
    9.1710    0.3290   23.1860 N   0  0  0  0  0  0  0  0  0  0  0  0
    9.7710   -1.7110   23.0470 C   0  0  0  0  0  0  0  0  0  0  0  0
    7.7250    2.7510   22.6750 N   0  0  0  0  0  0  0  0  0  0  0  0
    8.9710    1.8750   21.0300 O   0  0  0  0  0  0  0  0  0  0  0  0
    5.3220    1.5500   20.1260 C   0  0  0  0  0  0  0  0  0  0  0  0
    6.9620    0.0380   19.1940 C   0  0  0  0  0  0  0  0  0  0  0  0
   10.2600    0.1350   22.2250 O   0  0  0  0  0  0  0  0  0  0  0  0
   10.9070   -0.9900   22.7490 C   0  0  1  0  0  0  0  0  0  0  0  0
    6.2960    0.2420   17.8650 N   0  0  0  0  0  0  0  0  0  0  0  0
    4.7420    1.7090   18.9220 C   0  0  0  0  0  0  0  0  0  0  0  0
    8.5260    3.8690   23.0000 C   0  0  0  0  0  0  0  0  0  0  0  0
   11.9180   -0.3350   23.7220 C   0  0  1  0  0  0  0  0  0  0  0  0
   11.6550   -1.7390   21.7110 C   0  0  0  0  0  0  0  0  0  0  0  0
   12.2530   -1.0820   24.9950 C   0  0  0  0  0  0  0  0  0  0  0  0
    5.2170    1.0770   17.8220 C   0  0  0  0  0  0  0  0  0  0  0  0
    9.7640    3.7120   23.6300 C   0  0  0  0  0  0  0  0  0  0  0  0
    8.0810    5.1400   22.6910 C   0  0  0  0  0  0  0  0  0  0  0  0
   13.3170   -1.3320   21.6170 S   0  0  0  0  0  0  0  0  0  0  0  0
   13.1930   -0.2820   22.9790 C   0  0  0  0  0  0  0  0  0  0  0  0
   10.2920    2.3760   23.9740 C   0  0  0  0  0  0  0  0  0  0  0  0
   12.6780   -2.5800   24.7770 C   0  0  0  0  0  0  0  0  0  0  0  0
   10.5860    4.7530   23.9780 C   0  0  0  0  0  0  0  0  0  0  0  0
    8.9820    6.3110   23.0730 C   0  0  0  0  0  0  0  0  0  0  0  0
   11.4660   -3.1660   23.9870 C   0  0  0  0  0  0  0  0  0  0  0  0
   10.1990    6.0580   23.7070 C   0  0  0  0  0  0  0  0  0  0  0  0
   10.9430    7.1510   24.0260 O   0  0  0  0  0  0  0  0  0  0  0  0
   10.4860   -4.1060   24.7130 C   0  0  2  0  0  0  0  0  0  0  0  0
   11.8640    6.9630   25.0960 C   0  0  0  0  0  0  0  0  0  0  0  0
    8.9680   -4.0130   24.4880 C   0  0  2  0  0  0  0  0  0  0  0  0
   10.6530   -4.0670   26.1230 C   0  0  0  0  0  0  0  0  0  0  0  0
    8.8070   -5.1450   25.1620 C   0  0  0  0  0  0  0  0  0  0  0  0
    8.3710   -3.8940   23.2370 C   0  0  0  0  0  0  0  0  0  0  0  0
    9.4430   -4.3030   27.1560 C   0  0  2  0  0  0  0  0  0  0  0  0
    8.3740   -2.9490   25.4590 C   0  0  0  0  0  0  0  0  0  0  0  0
    9.2930   -5.6580   27.5410 O   0  0  0  0  0  0  0  0  0  0  0  0
    6.8890   -4.2840   23.3800 C   0  0  2  0  0  0  0  0  0  0  0  0
    7.7400   -5.7420   25.2280 C   0  0  0  0  0  0  0  0  0  0  0  0
    8.1010   -3.6690   26.7430 C   0  0  0  0  0  0  0  0  0  0  0  0
    6.7090   -5.2770   24.5000 C   0  0  0  0  0  0  0  0  0  0  0  0
    6.1170   -4.7390   22.1450 C   0  0  0  0  0  0  0  0  0  0  0  0
    6.0800   -3.0640   23.9320 C   0  0  0  0  0  0  0  0  0  0  0  0
    6.2420   -4.1680   20.6340 C   0  0  0  0  0  0  0  0  0  0  0  0
    6.7070   -5.9010   21.5970 C   0  0  0  0  0  0  0  0  0  0  0  0
    4.7950   -5.1650   22.5540 C   0  0  1  0  0  0  0  0  0  0  0  0
    4.6810   -3.1070   23.5970 N   0  0  0  0  0  0  0  0  0  0  0  0
    5.3100   -4.4520   19.8920 O   0  0  0  0  0  0  0  0  0  0  0  0
    7.4850   -3.3080   20.1510 C   0  0  0  0  0  0  0  0  0  0  0  0
    5.9830   -6.4120   20.7400 O   0  0  0  0  0  0  0  0  0  0  0  0
    7.9400   -6.2850   22.0110 C   0  0  0  0  0  0  0  0  0  0  0  0
    4.4140   -6.8230   23.1920 S   0  0  0  0  0  0  0  0  0  0  0  0
    4.1300   -4.4310   23.5550 C   0  0  2  0  0  0  0  0  0  0  0  0
    3.1080   -7.2530   22.7190 O   0  0  0  0  0  0  0  0  0  0  0  0
    5.5780   -7.6200   22.9640 O   0  0  0  0  0  0  0  0  0  0  0  0
    4.2310   -5.2530   24.8820 C   0  0  0  0  0  0  0  0  0  0  0  0
    4.3740   -6.6580   24.7730 C   0  0  0  0  0  0  0  0  0  0  0  0
    4.1830   -4.8930   26.6320 S   0  0  0  0  0  0  0  0  0  0  0  0
    5.5180   -4.7570   27.1530 O   0  0  0  0  0  0  0  0  0  0  0  0
    3.3760   -5.9370   27.2230 O   0  0  0  0  0  0  0  0  0  0  0  0
    3.3120   -3.4230   26.4430 C   0  0  0  0  0  0  0  0  0  0  0  0
    3.9930   -2.0630   26.4760 C   0  0  0  0  0  0  0  0  0  0  0  0
    1.8140   -3.4670   26.2200 C   0  0  0  0  0  0  0  0  0  0  0  0
    5.3140   -1.9310   26.6630 F   0  0  0  0  0  0  0  0  0  0  0  0
    1.0500   -2.1850   26.0450 C   0  0  0  0  0  0  0  0  0  0  0  0
    3.2260   -0.9120   26.3080 C   0  0  0  0  0  0  0  0  0  0  0  0
    1.7090   -0.9550   26.0870 C   0  0  0  0  0  0  0  0  0  0  0  0
  2  1  1  6
  2  3  1  0
  4  1  1  6
  2  5  1  0
  4  6  1  0
  4  7  1  0
  3  8  1  0
  3  9  2  0
  5 10  2  0
  5 11  1  0
  6 12  1  0
 13  7  1  1
 13 12  1  0
 11 14  2  0
 10 15  1  0
  8 16  1  0
 13 17  1  0
 13 18  1  0
 17 19  1  1
 14 20  1  0
 15 20  2  0
 16 21  2  0
 16 22  1  0
 18 23  2  0
 17 24  1  0
 23 24  2  0
 21 25  1  0
 19 26  1  0
 21 27  1  0
 22 28  2  0
 26 29  1  0
 27 30  2  0
 28 30  1  0
 30 31  1  0
 32 29  1  6
 31 33  1  0
 32 34  1  0
 32 35  1  0
 34 36  1  1
 34 37  1  0
 35 38  1  0
 34 39  1  0
 38 40  1  6
 41 37  1  6
 36 42  2  0
 38 43  1  0
 39 43  1  0
 41 44  1  0
 42 44  1  0
 41 45  1  0
 41 46  1  0
 45 47  1  0
 45 48  1  0
 49 45  1  1
 46 50  1  0
 47 51  2  0
 47 52  1  0
 48 53  2  0
 48 54  1  0
 49 55  1  0
 49 56  1  0
 56 50  1  1
 55 57  1  0
 55 58  1  0
 56 59  1  0
 55 60  1  0
 59 60  2  0
 61 59  1  0
 61 62  2  0
 61 63  2  0
 61 64  1  0
 64 65  2  0
 64 66  1  0
 65 67  1  0
 66 68  2  0
 65 69  1  0
 68 70  1  0
 69 70  2  0
M  END
