x1375-x0354
     RDKit          3D

 37 41  0  0  0  0  0  0  0  0999 V2000
    5.7650   -4.5440   19.9750 O   0  0  0  0  0  0  0  0  0  0  0  0
    6.6160   -4.3430   20.8710 C   0  0  0  0  0  0  0  0  0  0  0  0
    8.1460   -4.0320   20.6930 C   0  0  0  0  0  0  0  0  0  0  0  0
    6.2500   -4.3760   22.2550 N   0  0  0  0  0  0  0  0  0  0  0  0
    7.3590   -4.5470   23.1520 C   0  0  0  0  0  0  0  0  0  0  0  0
    4.9200   -4.7650   22.7380 C   0  0  2  0  0  0  0  0  0  0  0  0
    7.5740   -3.3720   24.0490 C   0  0  0  0  0  0  0  0  0  0  0  0
    8.0940   -5.7880   23.0460 C   0  0  0  0  0  0  0  0  0  0  0  0
    4.6350   -4.2500   23.9680 C   0  0  0  0  0  0  0  0  0  0  0  0
    4.8460   -6.3010   22.7360 C   0  0  0  0  0  0  0  0  0  0  0  0
    8.3810   -2.6680   25.1730 N   0  0  0  0  0  0  0  0  0  0  0  0
    9.0500   -6.3250   23.8570 C   0  0  0  0  0  0  0  0  0  0  0  0
    3.8190   -6.7560   24.0800 S   0  0  0  0  0  0  0  0  0  0  0  0
    3.9970   -5.2450   24.8910 C   0  0  0  0  0  0  0  0  0  0  0  0
    2.4530   -6.9160   23.6290 O   0  0  0  0  0  0  0  0  0  0  0  0
    4.4130   -7.7650   24.9160 O   0  0  0  0  0  0  0  0  0  0  0  0
    8.6110   -1.1910   24.8920 C   0  0  1  0  0  0  0  0  0  0  0  0
    9.7800   -3.1270   25.2760 C   0  0  1  0  0  0  0  0  0  0  0  0
    9.3550   -5.5070   24.9700 C   0  0  0  0  0  0  0  0  0  0  0  0
   10.1160   -3.6450   26.4840 F   0  0  0  0  0  0  0  0  0  0  0  0
    7.6880   -0.1250   25.6210 C   0  0  0  0  0  0  0  0  0  0  0  0
    9.6170   -4.2070   24.4070 C   0  0  0  0  0  0  0  0  0  0  0  0
   10.7590   -2.1290   24.7740 C   0  0  2  0  0  0  0  0  0  0  0  0
   10.0900   -0.9510   24.9740 N   0  0  0  0  0  0  0  0  0  0  0  0
    6.9340   -0.3550   26.6190 O   0  0  0  0  0  0  0  0  0  0  0  0
   11.2610   -2.2790   23.4600 C   0  0  0  0  0  0  0  0  0  0  0  0
   10.6820    0.1100   24.4600 C   0  0  0  0  0  0  0  0  0  0  0  0
   12.0030   -1.0710   23.0670 N   0  0  0  0  0  0  0  0  0  0  0  0
   11.9840   -0.0080   24.0570 C   0  0  0  0  0  0  0  0  0  0  0  0
    6.7420    0.6200   27.6150 C   0  0  0  0  0  0  0  0  0  0  0  0
   13.2550   -1.3330   22.5120 C   0  0  0  0  0  0  0  0  0  0  0  0
    7.4330    1.8510   27.8300 C   0  0  0  0  0  0  0  0  0  0  0  0
    5.6660    0.3870   28.6540 C   0  0  0  0  0  0  0  0  0  0  0  0
    7.1990    2.7480   28.8230 C   0  0  0  0  0  0  0  0  0  0  0  0
    5.4560    1.2990   29.6280 C   0  0  0  0  0  0  0  0  0  0  0  0
    6.1080    2.4580   29.8220 C   0  0  0  0  0  0  0  0  0  0  0  0
    5.7750    3.3970   30.9470 C   0  0  0  0  0  0  0  0  0  0  0  0
  1  2  2  0
  2  3  1  0
  2  4  1  0
  4  5  1  0
  6  4  1  1
  5  7  2  0
  5  8  1  0
  6  9  1  0
  6 10  1  0
  7 11  1  0
  8 12  2  0
 10 13  1  0
  9 14  2  0
 13 14  1  0
 13 15  1  0
 13 16  1  0
 11 17  1  0
 11 18  1  0
 12 19  1  0
 18 20  1  1
 17 21  1  1
 18 22  1  0
 19 22  2  0
 18 23  1  0
 17 24  1  0
 23 24  1  0
 21 25  1  0
 23 26  1  6
 24 27  1  0
 26 28  1  0
 27 29  1  0
 28 29  1  0
 25 30  1  0
 28 31  1  0
 30 32  2  0
 30 33  1  0
 32 34  1  0
 33 35  2  0
 34 36  2  0
 35 36  1  0
 36 37  1  0
M  END
