x1375-x2694-x3117
     RDKit          3D

 49 53  0  0  0  0  0  0  0  0999 V2000
    7.6590   -0.8370   21.7670 N   0  0  0  0  0  0  0  0  0  0  0  0
    6.9790    0.4700   21.6170 C   0  0  1  0  0  0  0  0  0  0  0  0
    8.0240    1.5810   21.7840 C   0  0  0  0  0  0  0  0  0  0  0  0
    8.7800   -0.9380   22.5940 C   0  0  0  0  0  0  0  0  0  0  0  0
    6.3660    0.6800   20.2590 C   0  0  0  0  0  0  0  0  0  0  0  0
    8.7470   -0.8530   23.9550 N   0  0  0  0  0  0  0  0  0  0  0  0
   10.0380   -1.1100   22.1630 C   0  0  0  0  0  0  0  0  0  0  0  0
    7.7510    2.5160   22.7570 N   0  0  0  0  0  0  0  0  0  0  0  0
    9.0300    1.6640   21.1020 O   0  0  0  0  0  0  0  0  0  0  0  0
    5.1690    1.6000   20.1160 C   0  0  0  0  0  0  0  0  0  0  0  0
    6.8970    0.0550   19.1600 C   0  0  0  0  0  0  0  0  0  0  0  0
   10.1060   -0.9780   24.3170 O   0  0  0  0  0  0  0  0  0  0  0  0
   10.9100   -1.1350   23.2000 C   0  0  0  0  0  0  0  0  0  0  0  0
   12.3800   -1.2610   23.3580 C   0  0  0  0  0  0  0  0  0  0  0  0
    6.3670    0.2580   17.9180 N   0  0  0  0  0  0  0  0  0  0  0  0
    4.6160    1.8220   18.8820 C   0  0  0  0  0  0  0  0  0  0  0  0
    8.5730    3.6300   23.0150 C   0  0  0  0  0  0  0  0  0  0  0  0
   12.8640    0.1620   23.5580 C   0  0  0  0  0  0  0  0  0  0  0  0
   13.0350   -1.8130   22.0970 C   0  0  0  0  0  0  0  0  0  0  0  0
   12.7890   -1.9000   24.4730 C   0  0  0  0  0  0  0  0  0  0  0  0
    5.2070    1.1650   17.7940 C   0  0  0  0  0  0  0  0  0  0  0  0
    9.7890    3.4150   23.6210 C   0  0  0  0  0  0  0  0  0  0  0  0
    8.2260    4.9430   22.6910 C   0  0  0  0  0  0  0  0  0  0  0  0
   10.2660    2.0430   24.0110 C   0  0  0  0  0  0  0  0  0  0  0  0
   11.8320   -2.7190   24.9170 C   0  0  0  0  0  0  0  0  0  0  0  0
   10.6150    4.5020   23.8870 C   0  0  0  0  0  0  0  0  0  0  0  0
    9.0310    6.0340   22.9500 C   0  0  0  0  0  0  0  0  0  0  0  0
   12.0500   -3.8360   25.7200 C   0  0  0  0  0  0  0  0  0  0  0  0
   10.2590    5.8200   23.5690 C   0  0  0  0  0  0  0  0  0  0  0  0
   11.1770    6.7760   23.9070 O   0  0  0  0  0  0  0  0  0  0  0  0
   10.8840   -4.7180   25.7780 O   0  0  0  0  0  0  0  0  0  0  0  0
   11.8750    6.5920   25.1360 C   0  0  0  0  0  0  0  0  0  0  0  0
    9.7810   -4.6750   24.9230 C   0  0  0  0  0  0  0  0  0  0  0  0
    9.0770   -3.5310   24.6990 C   0  0  0  0  0  0  0  0  0  0  0  0
    9.3300   -5.7980   24.2510 C   0  0  0  0  0  0  0  0  0  0  0  0
    7.9790   -3.4620   23.8480 C   0  0  0  0  0  0  0  0  0  0  0  0
    8.2740   -5.8230   23.4040 C   0  0  0  0  0  0  0  0  0  0  0  0
    7.5620   -4.6160   23.1800 C   0  0  0  0  0  0  0  0  0  0  0  0
    6.3980   -4.5650   22.2420 N   0  0  0  0  0  0  0  0  0  0  0  0
    6.6740   -4.4010   20.8780 C   0  0  0  0  0  0  0  0  0  0  0  0
    5.0950   -5.0200   22.8130 C   0  0  2  0  0  0  0  0  0  0  0  0
    5.7920   -4.6010   20.0060 O   0  0  0  0  0  0  0  0  0  0  0  0
    8.1440   -3.9470   20.6480 C   0  0  0  0  0  0  0  0  0  0  0  0
    4.9550   -4.4400   24.0890 C   0  0  0  0  0  0  0  0  0  0  0  0
    5.0670   -6.3820   22.7140 C   0  0  0  0  0  0  0  0  0  0  0  0
    3.9520   -6.6900   24.1430 S   0  0  0  0  0  0  0  0  0  0  0  0
    4.3360   -5.1930   24.9920 C   0  0  0  0  0  0  0  0  0  0  0  0
    2.6020   -6.6810   23.6390 O   0  0  0  0  0  0  0  0  0  0  0  0
    4.3270   -7.8030   24.9750 O   0  0  0  0  0  0  0  0  0  0  0  0
  2  1  1  6
  2  3  1  0
  1  4  1  0
  2  5  1  0
  4  6  2  0
  4  7  1  0
  3  8  1  0
  3  9  2  0
  5 10  2  0
  5 11  1  0
  6 12  1  0
  7 13  2  0
 12 13  1  0
 13 14  1  0
 11 15  2  0
 10 16  1  0
  8 17  1  0
 14 18  1  0
 14 19  1  0
 14 20  1  0
 15 21  1  0
 16 21  2  0
 17 22  2  0
 17 23  1  0
 22 24  1  0
 20 25  1  0
 22 26  1  0
 23 27  2  0
 25 28  1  0
 26 29  2  0
 27 29  1  0
 29 30  1  0
 28 31  1  0
 30 32  1  0
 31 33  1  0
 33 34  2  0
 33 35  1  0
 34 36  1  0
 35 37  2  0
 36 38  2  0
 37 38  1  0
 38 39  1  0
 39 40  1  0
 41 39  1  1
 40 42  2  0
 40 43  1  0
 41 44  1  0
 41 45  1  0
 45 46  1  0
 44 47  2  0
 46 47  1  0
 46 48  1  0
 46 49  1  0
M  END
