x1375-x2776
     RDKit          3D

 49 53  0  0  0  0  0  0  0  0999 V2000
    6.9990   -0.8930   22.0550 N   0  0  0  0  0  0  0  0  0  0  0  0
    6.6980    0.4940   21.6620 C   0  0  1  0  0  0  0  0  0  0  0  0
    7.9190    1.4300   21.8180 C   0  0  0  0  0  0  0  0  0  0  0  0
    8.4000   -1.1240   22.4260 C   0  0  0  0  0  0  0  0  0  0  0  0
    6.2020    0.6880   20.2570 C   0  0  0  0  0  0  0  0  0  0  0  0
    9.3460   -1.6380   21.5670 C   0  0  0  0  0  0  0  0  0  0  0  0
    8.9200   -0.8100   23.8060 C   0  0  0  0  0  0  0  0  0  0  0  0
    7.8030    2.2450   22.9150 N   0  0  0  0  0  0  0  0  0  0  0  0
    8.8740    1.4700   21.0500 O   0  0  0  0  0  0  0  0  0  0  0  0
    5.0830    1.5010   20.0780 C   0  0  0  0  0  0  0  0  0  0  0  0
    6.7750    0.1350   19.1470 C   0  0  0  0  0  0  0  0  0  0  0  0
   10.6180   -1.8590   21.8540 C   0  0  0  0  0  0  0  0  0  0  0  0
   10.2200   -1.0400   24.0780 C   0  0  0  0  0  0  0  0  0  0  0  0
    6.3260    0.3370   17.8790 N   0  0  0  0  0  0  0  0  0  0  0  0
    4.6240    1.7120   18.8150 C   0  0  0  0  0  0  0  0  0  0  0  0
    8.6720    3.3740   23.1610 C   0  0  0  0  0  0  0  0  0  0  0  0
   11.1150   -1.5420   23.1960 C   0  0  0  0  0  0  0  0  0  0  0  0
   12.5450   -1.7800   23.4880 C   0  0  2  0  0  0  0  0  0  0  0  0
    5.2560    1.1330   17.7760 C   0  0  0  0  0  0  0  0  0  0  0  0
    9.9930    3.2510   23.5650 C   0  0  0  0  0  0  0  0  0  0  0  0
    8.0940    4.6250   22.9680 C   0  0  0  0  0  0  0  0  0  0  0  0
   12.7890   -3.0520   24.0900 O   0  0  0  0  0  0  0  0  0  0  0  0
   10.6810    1.8900   23.7900 C   0  0  0  0  0  0  0  0  0  0  0  0
   12.9870   -0.5920   24.3220 C   0  0  0  0  0  0  0  0  0  0  0  0
   10.7860    4.3810   23.7990 C   0  0  0  0  0  0  0  0  0  0  0  0
    8.8690    5.7710   23.2000 C   0  0  0  0  0  0  0  0  0  0  0  0
   12.3940   -2.9960   25.4090 C   0  0  0  0  0  0  0  0  0  0  0  0
   10.2020    5.6310   23.6170 C   0  0  0  0  0  0  0  0  0  0  0  0
   10.8290    6.8420   23.8170 O   0  0  0  0  0  0  0  0  0  0  0  0
   12.0790   -4.3050   26.1090 C   0  0  0  0  0  0  0  0  0  0  0  0
   11.8290    6.7650   24.8530 C   0  0  0  0  0  0  0  0  0  0  0  0
   10.8130   -4.9640   25.8240 O   0  0  0  0  0  0  0  0  0  0  0  0
    9.7470   -4.6280   24.9940 C   0  0  0  0  0  0  0  0  0  0  0  0
    9.1460   -3.4360   24.8210 C   0  0  0  0  0  0  0  0  0  0  0  0
    9.3000   -5.7950   24.2880 C   0  0  0  0  0  0  0  0  0  0  0  0
    7.9650   -3.4170   23.8420 C   0  0  0  0  0  0  0  0  0  0  0  0
    8.2620   -5.6920   23.4420 C   0  0  0  0  0  0  0  0  0  0  0  0
    7.5670   -4.5840   23.1800 C   0  0  0  0  0  0  0  0  0  0  0  0
    6.4110   -4.6340   22.2730 N   0  0  0  0  0  0  0  0  0  0  0  0
    6.3900   -4.5540   20.8160 C   0  0  0  0  0  0  0  0  0  0  0  0
    5.5000   -5.4120   23.1590 C   0  0  1  0  0  0  0  0  0  0  0  0
    5.6420   -5.2840   20.1170 O   0  0  0  0  0  0  0  0  0  0  0  0
    7.2150   -3.5010   20.0420 C   0  0  0  0  0  0  0  0  0  0  0  0
    5.1510   -4.7450   24.4830 C   0  0  0  0  0  0  0  0  0  0  0  0
    4.2200   -5.9770   22.5880 C   0  0  0  0  0  0  0  0  0  0  0  0
    3.6450   -6.6180   24.1370 S   0  0  0  0  0  0  0  0  0  0  0  0
    4.1280   -5.3400   25.1220 C   0  0  0  0  0  0  0  0  0  0  0  0
    2.2270   -6.8670   24.0340 O   0  0  0  0  0  0  0  0  0  0  0  0
    4.4880   -7.9360   24.3960 O   0  0  0  0  0  0  0  0  0  0  0  0
  2  1  1  6
  2  3  1  0
  1  4  1  0
  2  5  1  0
  4  6  2  0
  4  7  1  0
  3  8  1  0
  3  9  2  0
  5 10  2  0
  5 11  1  0
  6 12  1  0
  7 13  2  0
 11 14  2  0
 10 15  1  0
  8 16  1  0
 12 17  2  0
 13 17  1  0
 17 18  1  0
 14 19  1  0
 15 19  2  0
 16 20  2  0
 16 21  1  0
 18 22  1  0
 20 23  1  0
 18 24  1  1
 20 25  1  0
 21 26  2  0
 22 27  1  0
 25 28  2  0
 26 28  1  0
 28 29  1  0
 27 30  1  0
 29 31  1  0
 30 32  1  0
 32 33  1  0
 33 34  2  0
 33 35  1  0
 34 36  1  0
 35 37  2  0
 36 38  2  0
 37 38  1  0
 38 39  1  0
 39 40  1  0
 41 39  1  6
 40 42  2  0
 40 43  1  0
 41 44  1  0
 41 45  1  0
 45 46  1  0
 44 47  2  0
 46 47  1  0
 46 48  1  0
 46 49  1  0
M  END
