x1375-x2608
     RDKit          3D

 36 39  0  0  0  0  0  0  0  0999 V2000
    5.7190   -4.7840   20.0220 O   0  0  0  0  0  0  0  0  0  0  0  0
    6.5360   -4.5130   20.9180 C   0  0  0  0  0  0  0  0  0  0  0  0
    8.0870   -4.4570   20.7920 C   0  0  0  0  0  0  0  0  0  0  0  0
    6.0210   -4.1720   22.3520 C   0  0  2  0  0  0  0  0  0  0  0  0
    5.5170   -2.7230   22.2830 C   0  0  0  0  0  0  0  0  0  0  0  0
    7.1830   -4.4090   23.2560 C   0  0  0  0  0  0  0  0  0  0  0  0
    5.1830   -5.1280   23.2330 C   0  0  1  0  0  0  0  0  0  0  0  0
    6.2710   -2.0400   21.1060 C   0  0  0  0  0  0  0  0  0  0  0  0
    7.6270   -3.4500   24.1820 C   0  0  0  0  0  0  0  0  0  0  0  0
    7.9050   -5.6170   23.2670 C   0  0  0  0  0  0  0  0  0  0  0  0
    4.9430   -4.6520   24.4880 C   0  0  0  0  0  0  0  0  0  0  0  0
    3.9500   -5.8580   22.7510 C   0  0  0  0  0  0  0  0  0  0  0  0
    6.5140   -0.5600   21.1500 N   0  0  0  0  0  0  0  0  0  0  0  0
    8.7510   -3.6440   25.1510 C   0  0  0  0  0  0  0  0  0  0  0  0
    8.9430   -5.9600   24.0650 C   0  0  0  0  0  0  0  0  0  0  0  0
    3.6080   -6.8520   24.1370 S   0  0  0  0  0  0  0  0  0  0  0  0
    4.0040   -5.5640   25.2110 C   0  0  0  0  0  0  0  0  0  0  0  0
    2.1940   -7.1470   24.1830 O   0  0  0  0  0  0  0  0  0  0  0  0
    4.5890   -7.8860   24.2490 O   0  0  0  0  0  0  0  0  0  0  0  0
    7.9090   -0.1760   21.4520 C   0  0  0  0  0  0  0  0  0  0  0  0
    9.3990   -4.9820   25.0650 C   0  0  0  0  0  0  0  0  0  0  0  0
    5.9030    0.1810   20.1580 C   0  0  0  0  0  0  0  0  0  0  0  0
   10.3590   -5.3670   25.8320 F   0  0  0  0  0  0  0  0  0  0  0  0
    8.6970   -1.0250   22.2070 N   0  0  0  0  0  0  0  0  0  0  0  0
    8.3110    0.9100   21.0130 O   0  0  0  0  0  0  0  0  0  0  0  0
    6.3150    0.3320   18.7700 C   0  0  0  0  0  0  0  0  0  0  0  0
    4.6670    1.0130   20.2800 C   0  0  0  0  0  0  0  0  0  0  0  0
   10.0250   -0.7410   22.4080 C   0  0  0  0  0  0  0  0  0  0  0  0
    6.1900    0.7410   17.7670 N   0  0  0  0  0  0  0  0  0  0  0  0
    4.2990    1.6900   19.0140 C   0  0  0  0  0  0  0  0  0  0  0  0
   11.1650   -1.5100   22.4800 C   0  0  0  0  0  0  0  0  0  0  0  0
   10.3820    0.9360   22.6040 S   0  0  0  0  0  0  0  0  0  0  0  0
    5.0080    1.5790   17.8190 C   0  0  0  0  0  0  0  0  0  0  0  0
   12.0330    0.5950   22.7470 C   0  0  0  0  0  0  0  0  0  0  0  0
   12.2830   -0.7510   22.6700 C   0  0  0  0  0  0  0  0  0  0  0  0
   13.0230    1.6820   22.9230 C   0  0  0  0  0  0  0  0  0  0  0  0
  1  2  2  0
  2  3  1  0
  4  2  1  0
  4  5  1  6
  4  6  1  0
  4  7  1  0
  5  8  1  0
  6  9  2  0
  6 10  1  0
  7 11  1  1
  7 12  1  0
  8 13  1  0
  9 14  1  0
 10 15  2  0
 12 16  1  0
 11 17  2  0
 16 17  1  0
 16 18  1  0
 16 19  1  0
 13 20  1  0
 14 21  2  0
 15 21  1  0
 13 22  1  0
 21 23  1  0
 20 24  1  0
 20 25  2  0
 22 26  2  0
 22 27  1  0
 24 28  1  0
 26 29  1  0
 27 30  2  0
 28 31  2  0
 28 32  1  0
 29 33  2  0
 30 33  1  0
 32 34  1  0
 31 35  1  0
 34 35  2  0
 34 36  1  0
M  END
