x1374-x0161
     RDKit          3D

 34 36  0  0  0  0  0  0  0  0999 V2000
   10.7280   -4.2200   25.8110 C   0  0  0  0  0  0  0  0  0  0  0  0
   11.4320   -3.0800   25.0960 C   0  0  0  0  0  0  0  0  0  0  0  0
   12.9450   -3.1490   25.3040 C   0  0  0  0  0  0  0  0  0  0  0  0
    9.6370   -4.4920   24.8500 C   0  0  0  0  0  0  0  0  0  0  0  0
    8.9760   -3.1890   24.3710 C   0  0  0  0  0  0  0  0  0  0  0  0
    9.1850   -5.7140   24.3750 C   0  0  0  0  0  0  0  0  0  0  0  0
   13.5710   -2.1670   24.4540 C   0  0  0  0  0  0  0  0  0  0  0  0
    7.8340   -3.2120   23.4070 C   0  0  0  0  0  0  0  0  0  0  0  0
    8.1220   -5.7670   23.4770 C   0  0  0  0  0  0  0  0  0  0  0  0
   12.9170   -0.8860   24.4890 O   0  0  0  0  0  0  0  0  0  0  0  0
    7.4430   -4.4660   23.0070 C   0  0  0  0  0  0  0  0  0  0  0  0
    6.2840   -4.5710   22.1160 N   0  0  0  0  0  0  0  0  0  0  0  0
   12.9280   -0.2280   23.3060 C   0  0  0  0  0  0  0  0  0  0  0  0
    6.3380   -4.4040   20.7230 C   0  0  0  0  0  0  0  0  0  0  0  0
   13.5280   -0.7070   22.1170 O   0  0  0  0  0  0  0  0  0  0  0  0
    5.3890   -5.2540   22.9020 C   0  0  1  0  0  0  0  0  0  0  0  0
   12.2280    1.0970   23.4060 C   0  0  0  0  0  0  0  0  0  0  0  0
    5.4990   -5.0050   20.0450 O   0  0  0  0  0  0  0  0  0  0  0  0
    7.3360   -3.4580   20.0030 C   0  0  0  0  0  0  0  0  0  0  0  0
    4.4020   -4.4290   23.4400 C   0  0  0  0  0  0  0  0  0  0  0  0
    5.0140   -6.5150   22.4740 C   0  0  0  0  0  0  0  0  0  0  0  0
   12.8930    2.2980   22.9130 C   0  0  0  0  0  0  0  0  0  0  0  0
   10.9570    1.1220   23.9740 C   0  0  0  0  0  0  0  0  0  0  0  0
    3.7340   -6.8200   23.6040 S   0  0  0  0  0  0  0  0  0  0  0  0
    3.3660   -5.1050   23.9450 C   0  0  0  0  0  0  0  0  0  0  0  0
   12.2520    3.4970   23.0090 C   0  0  0  0  0  0  0  0  0  0  0  0
   10.2860    2.3190   24.0890 C   0  0  0  0  0  0  0  0  0  0  0  0
    2.6970   -7.4250   22.8230 O   0  0  0  0  0  0  0  0  0  0  0  0
    4.2820   -7.5900   24.6950 O   0  0  0  0  0  0  0  0  0  0  0  0
   10.8910    3.4820   23.6340 C   0  0  0  0  0  0  0  0  0  0  0  0
   10.2390    5.1430   23.6920 S   0  0  0  0  0  0  0  0  0  0  0  0
   11.1780    6.0510   23.0690 O   0  0  0  0  0  0  0  0  0  0  0  0
    9.7400    5.4440   25.0150 O   0  0  0  0  0  0  0  0  0  0  0  0
    8.9100    5.0490   22.6710 N   0  0  0  0  0  0  0  0  0  0  0  0
  1  2  1  0
  2  3  1  0
  1  4  1  0
  4  5  2  0
  4  6  1  0
  3  7  1  0
  5  8  1  0
  6  9  2  0
  7 10  1  0
  8 11  2  0
  9 11  1  0
 11 12  1  0
 10 13  1  0
 12 14  1  0
 13 15  2  0
 16 12  1  6
 13 17  1  0
 14 18  2  0
 14 19  1  0
 16 20  1  0
 16 21  1  0
 17 22  2  0
 17 23  1  0
 21 24  1  0
 20 25  2  0
 24 25  1  0
 22 26  1  0
 23 27  2  0
 24 28  1  0
 24 29  1  0
 26 30  2  0
 27 30  1  0
 30 31  1  0
 31 32  2  0
 31 33  2  0
 31 34  1  0
M  END
