x1374-x2608
     RDKit          3D

 36 39  0  0  0  0  0  0  0  0999 V2000
   10.4480   -3.6140   26.0470 C   0  0  0  0  0  0  0  0  0  0  0  0
    9.5890   -4.2440   25.0500 C   0  0  0  0  0  0  0  0  0  0  0  0
    9.5620   -5.5850   24.7570 C   0  0  0  0  0  0  0  0  0  0  0  0
    8.6800   -3.2380   24.3270 C   0  0  0  0  0  0  0  0  0  0  0  0
    7.7290   -3.7150   23.2660 C   0  0  0  0  0  0  0  0  0  0  0  0
    8.7180   -6.0440   23.7930 C   0  0  0  0  0  0  0  0  0  0  0  0
    6.7310   -2.8970   22.4080 C   0  0  1  0  0  0  0  0  0  0  0  0
    7.8160   -5.0960   23.0710 C   0  0  0  0  0  0  0  0  0  0  0  0
    5.8530   -3.8980   21.9560 N   0  0  0  0  0  0  0  0  0  0  0  0
    6.2150   -1.4600   22.6110 C   0  0  0  0  0  0  0  0  0  0  0  0
    6.3820   -4.3290   20.7740 C   0  0  0  0  0  0  0  0  0  0  0  0
    6.7950   -0.6340   21.4820 N   0  0  0  0  0  0  0  0  0  0  0  0
    5.2880   -4.7920   22.9110 C   0  0  1  0  0  0  0  0  0  0  0  0
    5.5620   -4.6310   19.9230 O   0  0  0  0  0  0  0  0  0  0  0  0
    7.9680   -4.3830   20.6860 C   0  0  0  0  0  0  0  0  0  0  0  0
    8.0140   -0.2700   21.6500 C   0  0  0  0  0  0  0  0  0  0  0  0
    4.1740   -4.2400   23.5490 C   0  0  0  0  0  0  0  0  0  0  0  0
    5.1290   -6.1590   22.5220 C   0  0  0  0  0  0  0  0  0  0  0  0
    6.0370    0.0250   20.3700 C   0  0  0  0  0  0  0  0  0  0  0  0
    8.7680   -1.0580   22.5140 N   0  0  0  0  0  0  0  0  0  0  0  0
    8.4340    0.7330   21.0630 O   0  0  0  0  0  0  0  0  0  0  0  0
    3.8260   -6.6860   23.6250 S   0  0  0  0  0  0  0  0  0  0  0  0
    3.3070   -5.1510   24.0190 C   0  0  0  0  0  0  0  0  0  0  0  0
    6.6730   -0.0750   19.1130 C   0  0  0  0  0  0  0  0  0  0  0  0
    4.8660    0.6780   20.5060 C   0  0  0  0  0  0  0  0  0  0  0  0
    2.8060   -7.3320   22.8360 O   0  0  0  0  0  0  0  0  0  0  0  0
    4.3550   -7.4560   24.7440 O   0  0  0  0  0  0  0  0  0  0  0  0
   10.0930   -0.6680   22.7260 C   0  0  0  0  0  0  0  0  0  0  0  0
    6.2220    0.4530   17.9410 N   0  0  0  0  0  0  0  0  0  0  0  0
    4.2990    1.2640   19.3740 C   0  0  0  0  0  0  0  0  0  0  0  0
   11.4300   -1.3470   23.0760 C   0  0  0  0  0  0  0  0  0  0  0  0
   10.3230    1.0210   22.5530 S   0  0  0  0  0  0  0  0  0  0  0  0
    4.9630    1.1500   18.1610 C   0  0  0  0  0  0  0  0  0  0  0  0
   12.0070    0.9040   22.8570 C   0  0  0  0  0  0  0  0  0  0  0  0
   12.4680   -0.4310   23.1380 C   0  0  0  0  0  0  0  0  0  0  0  0
   12.8180    2.1290   22.7940 C   0  0  0  0  0  0  0  0  0  0  0  0
  1  2  1  0
  2  3  2  0
  2  4  1  0
  4  5  2  0
  3  6  1  0
  5  7  1  0
  5  8  1  0
  6  8  2  0
  7  9  1  0
  7 10  1  1
  9 11  1  0
 10 12  1  0
 13  9  1  6
 11 14  2  0
 11 15  1  0
 12 16  1  0
 13 17  1  0
 13 18  1  0
 12 19  1  0
 16 20  1  0
 16 21  2  0
 18 22  1  0
 17 23  2  0
 22 23  1  0
 19 24  2  0
 19 25  1  0
 22 26  1  0
 22 27  1  0
 20 28  1  0
 24 29  1  0
 25 30  2  0
 28 31  2  0
 28 32  1  0
 29 33  2  0
 30 33  1  0
 32 34  1  0
 31 35  1  0
 34 35  2  0
 34 36  1  0
M  END
