x1374-x2052
     RDKit          3D

 33 36  0  0  0  0  0  0  0  0999 V2000
    5.7990   -1.6590   25.3980 C   0  0  0  0  0  0  0  0  0  0  0  0
    6.7460   -1.2740   26.4290 N   0  0  0  0  0  0  0  0  0  0  0  0
    6.3500   -0.3020   27.4560 C   0  0  0  0  0  0  0  0  0  0  0  0
    4.3830   -1.6050   25.3870 O   0  0  0  0  0  0  0  0  0  0  0  0
    6.4810   -2.1510   24.1770 C   0  0  2  0  0  0  0  0  0  0  0  0
    6.7220   -1.1530   22.9680 C   0  0  0  0  0  0  0  0  0  0  0  0
    6.0720   -3.4230   23.4330 C   0  0  1  0  0  0  0  0  0  0  0  0
    7.0270   -1.6640   21.6530 C   0  0  0  0  0  0  0  0  0  0  0  0
    7.2610   -3.8420   22.6220 C   0  0  1  0  0  0  0  0  0  0  0  0
    6.9050    1.1210   27.3400 C   0  0  0  0  0  0  0  0  0  0  0  0
    5.5230   -0.6620   28.5010 C   0  0  0  0  0  0  0  0  0  0  0  0
    5.2180   -4.6210   23.8940 C   0  0  0  0  0  0  0  0  0  0  0  0
    7.0740   -3.1200   21.3640 N   0  0  0  0  0  0  0  0  0  0  0  0
    6.5320    2.0850   28.3760 N   0  0  0  0  0  0  0  0  0  0  0  0
    5.1730    0.2580   29.4860 C   0  0  0  0  0  0  0  0  0  0  0  0
    8.5270   -3.1950   23.1440 C   0  0  0  0  0  0  0  0  0  0  0  0
    7.4910   -5.3840   22.6500 C   0  0  0  0  0  0  0  0  0  0  0  0
    4.6960   -5.3490   22.6460 C   0  0  0  0  0  0  0  0  0  0  0  0
    4.8180   -5.1840   25.0570 C   0  0  0  0  0  0  0  0  0  0  0  0
    6.6300   -3.6370   20.1430 C   0  0  0  0  0  0  0  0  0  0  0  0
    5.6420    1.5870   29.4600 C   0  0  0  0  0  0  0  0  0  0  0  0
    9.5970   -3.8360   23.9540 C   0  0  0  0  0  0  0  0  0  0  0  0
    8.4680   -5.9570   23.4320 C   0  0  0  0  0  0  0  0  0  0  0  0
    4.5000   -6.6180   22.9690 C   0  0  0  0  0  0  0  0  0  0  0  0
    3.8910   -6.5780   24.5660 S   0  0  0  0  0  0  0  0  0  0  0  0
    5.6640   -4.3970   19.9290 O   0  0  0  0  0  0  0  0  0  0  0  0
    5.2260    2.2340   30.4200 O   0  0  0  0  0  0  0  0  0  0  0  0
    7.5010   -3.1760   19.0040 C   0  0  0  0  0  0  0  0  0  0  0  0
    2.4660   -6.3780   24.3840 O   0  0  0  0  0  0  0  0  0  0  0  0
    4.3110   -7.8000   25.1970 O   0  0  0  0  0  0  0  0  0  0  0  0
    9.3800   -5.2810   24.2660 C   0  0  2  0  0  0  0  0  0  0  0  0
    5.9570    3.4070   30.7730 C   0  0  0  0  0  0  0  0  0  0  0  0
    9.4120   -5.8450   25.6460 C   0  0  0  0  0  0  0  0  0  0  0  0
  1  2  1  0
  2  3  1  0
  1  4  2  0
  5  1  1  1
  5  6  1  0
  5  7  1  0
  6  8  1  0
  7  9  1  0
  3 10  2  0
  3 11  1  0
  7 12  1  1
  8 13  1  0
  9 13  1  0
 10 14  1  0
 11 15  2  0
  9 16  1  1
  9 17  1  0
 12 18  1  0
 12 19  2  0
 13 20  1  0
 14 21  2  0
 15 21  1  0
 16 22  2  0
 17 23  2  0
 18 24  1  0
 19 25  1  0
 24 25  1  0
 20 26  2  0
 21 27  1  0
 20 28  1  0
 25 29  1  0
 25 30  1  0
 22 31  1  0
 23 31  1  0
 27 32  1  0
 31 33  1  1
M  END
