x1374-x0786-x2694-x2193-x0540
     RDKit          3D

 67 73  0  0  0  0  0  0  0  0999 V2000
    7.5930   -0.8330   21.7840 N   0  0  0  0  0  0  0  0  0  0  0  0
    7.0610    0.4270   21.6930 C   0  0  1  0  0  0  0  0  0  0  0  0
    8.0730    1.5580   21.7450 C   0  0  0  0  0  0  0  0  0  0  0  0
    8.6600   -0.9100   22.7150 C   0  0  1  0  0  0  0  0  0  0  0  0
    6.5040   -1.8540   21.5330 C   0  0  0  0  0  0  0  0  0  0  0  0
    6.3160    0.5540   20.4090 C   0  0  0  0  0  0  0  0  0  0  0  0
    8.6170   -1.8660   23.8090 N   0  0  0  0  0  0  0  0  0  0  0  0
    9.9340   -1.0130   22.1640 C   0  0  0  0  0  0  0  0  0  0  0  0
    5.8660   -2.8040   22.5810 C   0  0  0  0  0  0  0  0  0  0  0  0
    7.7720    2.5500   22.6650 N   0  0  0  0  0  0  0  0  0  0  0  0
    9.0500    1.5760   21.0300 O   0  0  0  0  0  0  0  0  0  0  0  0
    5.0330    1.0420   20.3080 C   0  0  0  0  0  0  0  0  0  0  0  0
    6.9890    0.1540   19.2840 C   0  0  0  0  0  0  0  0  0  0  0  0
   10.0430   -1.7930   24.2300 O   0  0  0  0  0  0  0  0  0  0  0  0
   10.7580   -0.9530   23.2890 C   0  0  1  0  0  0  0  0  0  0  0  0
    8.6300   -3.1480   23.3740 C   0  0  0  0  0  0  0  0  0  0  0  0
    5.8400   -4.2080   22.1090 N   0  0  0  0  0  0  0  0  0  0  0  0
   12.2510   -1.2330   23.2270 C   0  0  0  0  0  0  0  0  0  0  0  0
    4.2290    1.4520   21.5390 C   0  0  0  0  0  0  0  0  0  0  0  0
    6.3740    0.2830   17.9810 N   0  0  0  0  0  0  0  0  0  0  0  0
    4.4280    1.1700   19.0560 C   0  0  0  0  0  0  0  0  0  0  0  0
    8.5950    3.5990   23.0050 C   0  0  0  0  0  0  0  0  0  0  0  0
    8.4800   -4.1150   24.4290 N   0  0  0  0  0  0  0  0  0  0  0  0
    6.4400   -4.3880   20.8530 C   0  0  0  0  0  0  0  0  0  0  0  0
    5.5940   -5.2340   23.1570 C   0  0  1  0  0  0  0  0  0  0  0  0
   12.9750    0.0530   23.5970 C   0  0  0  0  0  0  0  0  0  0  0  0
   12.8000   -1.6570   21.9040 C   0  0  0  0  0  0  0  0  0  0  0  0
   12.7230   -2.2720   24.2820 C   0  0  0  0  0  0  0  0  0  0  0  0
    5.0270    2.3170   22.4670 C   0  0  0  0  0  0  0  0  0  0  0  0
    5.1330    0.7950   17.9800 C   0  0  0  0  0  0  0  0  0  0  0  0
    9.7880    3.4230   23.6940 C   0  0  0  0  0  0  0  0  0  0  0  0
    8.1850    4.8750   22.6250 C   0  0  0  0  0  0  0  0  0  0  0  0
    9.0010   -3.8320   25.7880 C   0  0  2  0  0  0  0  0  0  0  0  0
    9.2500   -5.2150   23.9480 C   0  0  0  0  0  0  0  0  0  0  0  0
    5.6470   -4.6260   19.9440 O   0  0  0  0  0  0  0  0  0  0  0  0
    8.0000   -4.2480   20.7630 C   0  0  0  0  0  0  0  0  0  0  0  0
    4.9740   -4.6020   24.3930 C   0  0  0  0  0  0  0  0  0  0  0  0
    4.9910   -6.4250   22.7780 C   0  0  0  0  0  0  0  0  0  0  0  0
   10.2050    2.1240   24.0780 C   0  0  0  0  0  0  0  0  0  0  0  0
    3.9370    3.1210   23.0550 N   0  0  0  0  0  0  0  0  0  0  0  0
   10.5800    4.5260   24.0100 C   0  0  0  0  0  0  0  0  0  0  0  0
    8.9710    5.9870   22.9420 C   0  0  0  0  0  0  0  0  0  0  0  0
   10.5330   -3.8170   25.8630 C   0  0  0  0  0  0  0  0  0  0  0  0
    8.5000   -4.8260   26.6500 C   0  0  0  0  0  0  0  0  0  0  0  0
    9.4870   -6.0830   24.8950 C   0  0  0  0  0  0  0  0  0  0  0  0
    3.7570   -6.6950   24.0620 S   0  0  2  0  0  0  0  0  0  0  0  0
    3.9920   -5.2990   24.9570 C   0  0  0  0  0  0  0  0  0  0  0  0
    2.8570    2.5000   23.6200 C   0  0  0  0  0  0  0  0  0  0  0  0
   10.1640    5.8050   23.6350 C   0  0  0  0  0  0  0  0  0  0  0  0
    8.4120   -6.0840   25.9160 N   0  0  0  0  0  0  0  0  0  0  0  0
    4.1500   -7.8440   24.8570 O   0  0  0  0  0  0  0  0  0  0  0  0
    2.1710   -6.8980   23.5910 N   0  0  0  0  0  0  0  0  0  0  0  0
   10.9810    6.8600   23.9840 O   0  0  0  0  0  0  0  0  0  0  0  0
    2.9440    1.5710   24.4330 O   0  0  0  0  0  0  0  0  0  0  0  0
    1.6060    3.1080   23.1140 N   0  0  0  0  0  0  0  0  0  0  0  0
    1.4390   -5.7080   23.1910 C   0  0  0  0  0  0  0  0  0  0  0  0
    1.3180   -8.0310   24.0150 C   0  0  0  0  0  0  0  0  0  0  0  0
   11.8730    6.6590   25.0820 C   0  0  0  0  0  0  0  0  0  0  0  0
    0.4430    3.2540   23.9950 C   0  0  0  0  0  0  0  0  0  0  0  0
    0.4350   -5.1700   24.1550 C   0  0  0  0  0  0  0  0  0  0  0  0
    0.2230   -7.7230   24.9900 C   0  0  0  0  0  0  0  0  0  0  0  0
    0.4550    4.6080   24.4160 C   0  0  0  0  0  0  0  0  0  0  0  0
   -0.6980    2.8440   23.2860 C   0  0  0  0  0  0  0  0  0  0  0  0
   -0.8800   -6.3770   24.4540 S   0  0  0  0  0  0  0  0  0  0  0  0
   -0.7090    4.9620   25.0800 C   0  0  0  0  0  0  0  0  0  0  0  0
   -1.9000    3.3460   23.7870 C   0  0  0  0  0  0  0  0  0  0  0  0
   -1.8770    4.5800   24.4110 C   0  0  0  0  0  0  0  0  0  0  0  0
  1  2  1  0
  2  3  1  6
  4  1  1  6
  1  5  1  0
  2  6  1  0
  4  7  1  0
  4  8  1  0
  5  9  1  0
  3 10  1  0
  3 11  2  0
  6 12  1  0
  6 13  2  0
  7 14  1  0
  8 15  1  0
 14 15  1  0
  7 16  1  0
  9 17  1  0
 15 18  1  6
 12 19  1  0
 13 20  1  0
 12 21  2  0
 10 22  1  0
 16 23  1  0
 17 24  1  0
 25 17  1  6
 18 26  1  0
 18 27  1  0
 18 28  1  0
 19 29  1  0
 20 30  2  0
 21 30  1  0
 22 31  2  0
 22 32  1  0
 23 33  1  0
 23 34  1  0
 24 35  2  0
 24 36  1  0
 25 37  1  0
 25 38  1  0
 31 39  1  0
 29 40  1  0
 31 41  1  0
 32 42  2  0
 33 43  1  6
 33 44  1  0
 34 45  1  0
 38 46  1  0
 37 47  2  0
 46 47  1  0
 40 48  1  0
 41 49  2  0
 42 49  1  0
 44 50  1  0
 45 50  1  0
 46 51  1  1
 46 52  1  0
 49 53  1  0
 48 54  2  0
 48 55  1  0
 52 56  1  0
 52 57  1  0
 53 58  1  0
 55 59  1  0
 56 60  1  0
 57 61  1  0
 59 62  1  0
 59 63  1  0
 60 64  1  0
 61 64  1  0
 62 65  1  0
 63 66  1  0
 65 67  1  0
 66 67  1  0
M  END
