x1375-x0195
     RDKit          3D

 36 39  0  0  0  0  0  0  0  0999 V2000
    5.5390   -5.2360   20.0950 O   0  0  0  0  0  0  0  0  0  0  0  0
    6.2530   -4.4570   20.7450 C   0  0  0  0  0  0  0  0  0  0  0  0
    7.1890   -3.4810   19.9700 C   0  0  0  0  0  0  0  0  0  0  0  0
    6.1910   -4.3630   22.2010 N   0  0  0  0  0  0  0  0  0  0  0  0
    7.4140   -4.5890   22.9790 C   0  0  0  0  0  0  0  0  0  0  0  0
    5.2680   -5.1860   23.0750 C   0  0  1  0  0  0  0  0  0  0  0  0
    8.1130   -3.5570   23.8700 C   0  0  0  0  0  0  0  0  0  0  0  0
    7.8980   -5.8630   22.8950 C   0  0  0  0  0  0  0  0  0  0  0  0
    4.9280   -4.4820   24.2440 C   0  0  0  0  0  0  0  0  0  0  0  0
    4.2300   -5.8780   22.5910 C   0  0  0  0  0  0  0  0  0  0  0  0
    9.3440   -4.0440   24.6610 C   0  0  0  0  0  0  0  0  0  0  0  0
    9.0860   -6.3420   23.6510 C   0  0  0  0  0  0  0  0  0  0  0  0
    3.6760   -6.6840   24.0900 S   0  0  0  0  0  0  0  0  0  0  0  0
    3.9470   -5.3020   25.0330 C   0  0  0  0  0  0  0  0  0  0  0  0
    2.1300   -7.0920   23.9790 O   0  0  0  0  0  0  0  0  0  0  0  0
    4.5480   -7.8130   24.3330 O   0  0  0  0  0  0  0  0  0  0  0  0
   10.0880   -3.1890   25.5560 C   0  0  1  0  0  0  0  0  0  0  0  0
    9.8290   -5.4480   24.5590 C   0  0  0  0  0  0  0  0  0  0  0  0
   10.3560   -3.9640   26.6040 F   0  0  0  0  0  0  0  0  0  0  0  0
   11.4340   -2.7400   24.9860 C   0  0  0  0  0  0  0  0  0  0  0  0
   11.3440   -1.1960   25.0260 C   0  0  0  0  0  0  0  0  0  0  0  0
   10.0970   -0.6420   24.4060 C   0  0  0  0  0  0  0  0  0  0  0  0
   10.4690   -0.1840   23.2260 N   0  0  0  0  0  0  0  0  0  0  0  0
   11.0670    1.0610   23.1590 C   0  0  0  0  0  0  0  0  0  0  0  0
   11.0170   -1.2290   22.3140 C   0  0  0  0  0  0  0  0  0  0  0  0
   12.3700    0.9660   22.8920 C   0  0  0  0  0  0  0  0  0  0  0  0
   12.4320   -1.3420   22.3420 C   0  0  0  0  0  0  0  0  0  0  0  0
   10.4850    2.2620   23.3330 C   0  0  0  0  0  0  0  0  0  0  0  0
   13.1470   -0.1820   22.7120 C   0  0  0  0  0  0  0  0  0  0  0  0
   13.1720    2.2410   22.7600 C   0  0  0  0  0  0  0  0  0  0  0  0
   11.1180    3.4720   23.2490 C   0  0  0  0  0  0  0  0  0  0  0  0
   10.2990    4.9270   23.5000 S   0  0  0  0  0  0  0  0  0  0  0  0
   12.6140    3.4540   22.9170 C   0  0  0  0  0  0  0  0  0  0  0  0
   10.5000    5.4050   24.8460 O   0  0  0  0  0  0  0  0  0  0  0  0
    8.9820    4.8670   22.9180 O   0  0  0  0  0  0  0  0  0  0  0  0
   11.1640    5.9820   22.5230 N   0  0  0  0  0  0  0  0  0  0  0  0
  1  2  2  0
  2  3  1  0
  2  4  1  0
  4  5  1  0
  6  4  1  6
  5  7  2  0
  5  8  1  0
  6  9  1  0
  6 10  1  0
  7 11  1  0
  8 12  2  0
 10 13  1  0
  9 14  2  0
 13 14  1  0
 13 15  1  0
 13 16  1  0
 11 17  1  0
 11 18  2  0
 12 18  1  0
 17 19  1  1
 17 20  1  0
 20 21  1  0
 21 22  1  0
 22 23  1  0
 23 24  1  0
 23 25  1  0
 24 26  2  0
 25 27  1  0
 24 28  1  0
 26 29  1  0
 27 29  1  0
 26 30  1  0
 28 31  2  0
 31 32  1  0
 30 33  2  0
 31 33  1  0
 32 34  2  0
 32 35  2  0
 32 36  1  0
M  END
