x1375-x2703
     RDKit          3D

 48 53  0  0  0  0  0  0  0  0999 V2000
    7.7960   -0.9040   20.9470 N   0  0  0  0  0  0  0  0  0  0  0  0
    6.9460    0.2070   21.3400 C   0  0  1  0  0  0  0  0  0  0  0  0
    7.7950    1.4370   21.6930 C   0  0  0  0  0  0  0  0  0  0  0  0
    8.8760   -1.0090   21.8170 C   0  0  0  0  0  0  0  0  0  0  0  0
    6.2220    0.6200   20.1170 C   0  0  0  0  0  0  0  0  0  0  0  0
    8.8670   -2.0430   22.6490 C   0  0  0  0  0  0  0  0  0  0  0  0
    9.9870   -0.2510   21.9990 C   0  0  0  0  0  0  0  0  0  0  0  0
    7.4440    2.0890   22.8350 N   0  0  0  0  0  0  0  0  0  0  0  0
    8.7130    1.8470   20.9930 O   0  0  0  0  0  0  0  0  0  0  0  0
    5.0780    1.3680   20.1740 C   0  0  0  0  0  0  0  0  0  0  0  0
    6.7890    0.2120   18.7800 C   0  0  0  0  0  0  0  0  0  0  0  0
   10.9940   -0.4430   22.8970 N   0  0  0  0  0  0  0  0  0  0  0  0
    9.7830   -2.3830   23.5800 C   0  0  0  0  0  0  0  0  0  0  0  0
    6.2300    0.5670   17.6270 N   0  0  0  0  0  0  0  0  0  0  0  0
    4.5550    1.6990   18.9390 C   0  0  0  0  0  0  0  0  0  0  0  0
   10.9010   -1.4860   23.6940 C   0  0  0  0  0  0  0  0  0  0  0  0
    8.1340    3.3150   22.9470 C   0  0  0  0  0  0  0  0  0  0  0  0
    9.3430   -3.5830   24.1550 C   0  0  0  0  0  0  0  0  0  0  0  0
   11.9080   -1.7370   24.6920 C   0  0  1  0  0  0  0  0  0  0  0  0
    5.1320    1.3080   17.7510 C   0  0  0  0  0  0  0  0  0  0  0  0
    9.4600    3.3860   23.4380 C   0  0  0  0  0  0  0  0  0  0  0  0
    7.5170    4.6340   22.5360 C   0  0  0  0  0  0  0  0  0  0  0  0
    8.2590   -3.7660   23.2070 C   0  0  0  0  0  0  0  0  0  0  0  0
    9.6400   -4.4190   25.1410 C   0  0  0  0  0  0  0  0  0  0  0  0
   10.2160    2.1300   23.8560 C   0  0  0  0  0  0  0  0  0  0  0  0
    6.1280    4.7320   21.9750 C   0  0  0  0  0  0  0  0  0  0  0  0
   12.4290   -3.1650   24.6330 C   0  0  0  0  0  0  0  0  0  0  0  0
   12.9490   -0.6860   24.7430 C   0  0  0  0  0  0  0  0  0  0  0  0
   10.6620   -4.2760   26.0730 O   0  0  0  0  0  0  0  0  0  0  0  0
   10.1480    4.5400   23.5590 C   0  0  0  0  0  0  0  0  0  0  0  0
    8.2230    5.7800   22.6640 C   0  0  0  0  0  0  0  0  0  0  0  0
    8.7630   -5.5940   25.1960 C   0  0  0  0  0  0  0  0  0  0  0  0
    7.4950   -4.8010   23.2600 C   0  0  0  0  0  0  0  0  0  0  0  0
    9.3100    1.1110   24.5760 C   0  0  0  0  0  0  0  0  0  0  0  0
    6.4360   -4.9110   22.2640 N   0  0  0  0  0  0  0  0  0  0  0  0
   12.0820   -4.0260   25.8540 C   0  0  0  0  0  0  0  0  0  0  0  0
    9.4780    5.8240   23.1440 C   0  0  0  0  0  0  0  0  0  0  0  0
    7.7520   -5.6660   24.2200 C   0  0  0  0  0  0  0  0  0  0  0  0
    6.6670   -4.5690   20.8960 C   0  0  0  0  0  0  0  0  0  0  0  0
    5.1040   -5.0840   22.8590 C   0  0  2  0  0  0  0  0  0  0  0  0
    5.7640   -4.7570   20.0350 O   0  0  0  0  0  0  0  0  0  0  0  0
    8.0530   -3.9420   20.5690 C   0  0  0  0  0  0  0  0  0  0  0  0
    4.7770   -4.4100   24.1770 C   0  0  0  0  0  0  0  0  0  0  0  0
    4.7570   -6.5680   22.8330 C   0  0  0  0  0  0  0  0  0  0  0  0
    3.7840   -6.6830   24.3070 S   0  0  0  0  0  0  0  0  0  0  0  0
    4.0740   -5.1800   25.0300 C   0  0  0  0  0  0  0  0  0  0  0  0
    2.4080   -6.8470   23.8970 O   0  0  0  0  0  0  0  0  0  0  0  0
    4.3680   -7.7490   25.0780 O   0  0  0  0  0  0  0  0  0  0  0  0
  2  1  1  6
  2  3  1  0
  1  4  1  0
  2  5  1  0
  4  6  2  0
  4  7  1  0
  3  8  1  0
  3  9  2  0
  5 10  2  0
  5 11  1  0
  7 12  2  0
  6 13  1  0
 11 14  2  0
 10 15  1  0
 12 16  1  0
 13 16  2  0
  8 17  1  0
 13 18  1  0
 16 19  1  0
 14 20  1  0
 15 20  2  0
 17 21  2  0
 17 22  1  0
 18 23  2  0
 18 24  1  0
 21 25  1  0
 22 26  1  0
 19 27  1  0
 19 28  1  6
 24 29  1  0
 21 30  1  0
 22 31  2  0
 24 32  2  0
 23 33  1  0
 25 34  1  0
 33 35  1  0
 27 36  1  0
 29 36  1  0
 30 37  2  0
 31 37  1  0
 32 38  1  0
 33 38  2  0
 35 39  1  0
 40 35  1  1
 39 41  2  0
 39 42  1  0
 40 43  1  0
 40 44  1  0
 44 45  1  0
 43 46  2  0
 45 46  1  0
 45 47  1  0
 45 48  1  0
M  END
