x1375-x2912
     RDKit          3D

 40 43  0  0  0  0  0  0  0  0999 V2000
    5.7860   -4.8360   20.0040 O   0  0  0  0  0  0  0  0  0  0  0  0
    6.5750   -4.3730   20.8280 C   0  0  0  0  0  0  0  0  0  0  0  0
    8.0840   -4.0180   20.6620 C   0  0  0  0  0  0  0  0  0  0  0  0
    6.0180   -4.0400   22.2410 C   0  0  2  0  0  0  0  0  0  0  0  0
    5.3910   -2.6890   21.9070 C   0  0  0  0  0  0  0  0  0  0  0  0
    7.1130   -4.2440   23.2960 C   0  0  0  0  0  0  0  0  0  0  0  0
    4.8410   -4.8370   22.7830 C   0  0  2  0  0  0  0  0  0  0  0  0
    6.0560   -1.4420   22.4120 C   0  0  0  0  0  0  0  0  0  0  0  0
    7.4130   -3.3690   24.3530 C   0  0  0  0  0  0  0  0  0  0  0  0
    7.8350   -5.4180   23.1490 C   0  0  0  0  0  0  0  0  0  0  0  0
    4.5010   -4.3570   24.1580 C   0  0  0  0  0  0  0  0  0  0  0  0
    4.9750   -6.2340   22.8500 C   0  0  0  0  0  0  0  0  0  0  0  0
    6.9120   -0.7870   21.3920 N   0  0  0  0  0  0  0  0  0  0  0  0
    8.4030   -3.6310   25.2540 C   0  0  0  0  0  0  0  0  0  0  0  0
    8.8260   -5.7490   24.0050 C   0  0  0  0  0  0  0  0  0  0  0  0
    3.8570   -6.7660   24.1030 S   0  0  0  0  0  0  0  0  0  0  0  0
    3.9590   -5.3120   24.9660 C   0  0  0  0  0  0  0  0  0  0  0  0
    2.5400   -6.9490   23.5280 O   0  0  0  0  0  0  0  0  0  0  0  0
    4.4610   -7.8180   24.8680 O   0  0  0  0  0  0  0  0  0  0  0  0
    8.1210   -0.2140   21.9350 C   0  0  0  0  0  0  0  0  0  0  0  0
    9.1540   -4.9280   25.0540 C   0  0  0  0  0  0  0  0  0  0  0  0
    6.3420   -0.1290   20.2930 C   0  0  0  0  0  0  0  0  0  0  0  0
   10.1200   -5.2930   25.8740 F   0  0  0  0  0  0  0  0  0  0  0  0
    8.6870    0.7710   21.4610 O   0  0  0  0  0  0  0  0  0  0  0  0
    8.6720   -0.8830   23.1680 C   0  0  2  0  0  0  0  0  0  0  0  0
    5.1340    0.7970   20.3730 C   0  0  0  0  0  0  0  0  0  0  0  0
    6.8180   -0.2070   18.9530 C   0  0  0  0  0  0  0  0  0  0  0  0
    8.0850   -0.4190   24.5270 C   0  0  0  0  0  0  0  0  0  0  0  0
    4.4450    1.0580   21.6770 C   0  0  0  0  0  0  0  0  0  0  0  0
    6.3080    0.4600   17.7610 N   0  0  0  0  0  0  0  0  0  0  0  0
    4.5480    1.5210   19.1590 C   0  0  0  0  0  0  0  0  0  0  0  0
   10.1020   -0.5150   23.1460 C   0  0  0  0  0  0  0  0  0  0  0  0
    5.1490    1.3340   17.9110 C   0  0  0  0  0  0  0  0  0  0  0  0
   10.4660    0.5570   23.9070 C   0  0  0  0  0  0  0  0  0  0  0  0
   10.9900   -1.1590   22.4180 C   0  0  0  0  0  0  0  0  0  0  0  0
   11.8260    1.0650   23.9620 C   0  0  0  0  0  0  0  0  0  0  0  0
   12.2730   -0.7860   22.3880 C   0  0  0  0  0  0  0  0  0  0  0  0
   13.0970   -1.4790   21.5920 C   0  0  0  0  0  0  0  0  0  0  0  0
   12.8270    0.3630   23.1580 C   0  0  0  0  0  0  0  0  0  0  0  0
   13.8550   -2.0530   20.5680 N   0  0  0  0  0  0  0  0  0  0  0  0
  1  2  2  0
  2  3  1  0
  4  2  1  0
  4  5  1  6
  4  6  1  0
  4  7  1  0
  5  8  1  0
  6  9  2  0
  6 10  1  0
  7 11  1  1
  7 12  1  0
  8 13  1  0
  9 14  1  0
 10 15  2  0
 12 16  1  0
 11 17  2  0
 16 17  1  0
 16 18  1  0
 16 19  1  0
 13 20  1  0
 14 21  2  0
 15 21  1  0
 13 22  1  0
 21 23  1  0
 20 24  2  0
 20 25  1  0
 22 26  2  0
 22 27  1  0
 25 28  1  1
 26 29  1  0
 27 30  2  0
 26 31  1  0
 25 32  1  0
 30 33  1  0
 31 33  2  0
 32 34  2  0
 32 35  1  0
 34 36  1  0
 35 37  2  0
 37 38  1  0
 36 39  2  0
 37 39  1  0
 38 40  3  0
M  END
