x1375-x0540-x2705
     RDKit          3D

 61 66  0  0  0  0  0  0  0  0999 V2000
    7.8070   -1.0900   21.6260 N   0  0  0  0  0  0  0  0  0  0  0  0
    6.9910    0.1440   21.5240 C   0  0  1  0  0  0  0  0  0  0  0  0
    7.8630    1.3910   21.7120 C   0  0  0  0  0  0  0  0  0  0  0  0
    8.8990   -1.0850   22.4560 C   0  0  0  0  0  0  0  0  0  0  0  0
    6.3390    0.2550   20.1230 C   0  0  0  0  0  0  0  0  0  0  0  0
    8.8870   -0.8720   23.8010 N   0  0  0  0  0  0  0  0  0  0  0  0
   10.3040   -1.3040   22.0030 C   0  0  0  0  0  0  0  0  0  0  0  0
    7.4840    2.3710   22.4950 N   0  0  0  0  0  0  0  0  0  0  0  0
    8.9190    1.4820   21.0940 O   0  0  0  0  0  0  0  0  0  0  0  0
    5.0180    0.7220   20.2450 C   0  0  0  0  0  0  0  0  0  0  0  0
    6.9830   -0.0460   18.9380 C   0  0  0  0  0  0  0  0  0  0  0  0
   10.1980   -0.9380   24.1890 N   0  0  0  0  0  0  0  0  0  0  0  0
   11.0290   -1.1900   23.1250 C   0  0  0  0  0  0  0  0  0  0  0  0
   12.4760   -1.3080   23.0870 C   0  0  0  0  0  0  0  0  0  0  0  0
    4.3640    0.9730   21.4830 C   0  0  0  0  0  0  0  0  0  0  0  0
    6.3510    0.1510   17.7860 N   0  0  0  0  0  0  0  0  0  0  0  0
    4.3590    0.9300   19.0690 C   0  0  0  0  0  0  0  0  0  0  0  0
    7.9960    3.6980   22.5930 C   0  0  0  0  0  0  0  0  0  0  0  0
   12.9740    0.1090   23.4290 C   0  0  0  0  0  0  0  0  0  0  0  0
   13.2930   -2.3140   23.9510 C   0  0  0  0  0  0  0  0  0  0  0  0
   12.9580   -1.6020   21.6620 C   0  0  0  0  0  0  0  0  0  0  0  0
    4.9520    1.9760   22.4760 C   0  0  0  0  0  0  0  0  0  0  0  0
    5.0130    0.6610   17.9010 C   0  0  0  0  0  0  0  0  0  0  0  0
    9.2380    3.8060   23.1970 C   0  0  0  0  0  0  0  0  0  0  0  0
    7.3810    4.8680   22.1610 C   0  0  0  0  0  0  0  0  0  0  0  0
    9.8970    2.6230   23.6900 C   0  0  0  0  0  0  0  0  0  0  0  0
    6.0360    4.9680   21.5040 C   0  0  0  0  0  0  0  0  0  0  0  0
    4.0910    2.9180   23.1710 N   0  0  0  0  0  0  0  0  0  0  0  0
   12.7280   -3.0880   25.0770 C   0  0  0  0  0  0  0  0  0  0  0  0
    9.9210    4.9890   23.3940 C   0  0  0  0  0  0  0  0  0  0  0  0
    8.0400    6.0970   22.3390 C   0  0  0  0  0  0  0  0  0  0  0  0
    8.8720    2.1240   24.7110 C   0  0  0  0  0  0  0  0  0  0  0  0
    2.8530    2.4650   23.6940 C   0  0  0  0  0  0  0  0  0  0  0  0
   11.3930   -3.2840   24.8760 C   0  0  0  0  0  0  0  0  0  0  0  0
    9.2950    6.1560   22.9470 C   0  0  0  0  0  0  0  0  0  0  0  0
    2.7880    1.4820   24.6420 O   0  0  0  0  0  0  0  0  0  0  0  0
    1.6280    3.1520   23.1230 N   0  0  0  0  0  0  0  0  0  0  0  0
   10.8710   -4.5200   25.3840 O   0  0  0  0  0  0  0  0  0  0  0  0
    0.4340    3.3510   23.9610 C   0  0  0  0  0  0  0  0  0  0  0  0
    9.7580   -4.7380   24.6610 C   0  0  0  0  0  0  0  0  0  0  0  0
    0.3490    4.6860   24.3690 C   0  0  0  0  0  0  0  0  0  0  0  0
   -0.8100    2.8710   23.2160 C   0  0  0  0  0  0  0  0  0  0  0  0
    8.9620   -3.4640   24.4410 C   0  0  0  0  0  0  0  0  0  0  0  0
    9.2600   -5.8900   24.0990 C   0  0  0  0  0  0  0  0  0  0  0  0
   -0.7730    4.8760   25.1640 C   0  0  0  0  0  0  0  0  0  0  0  0
   -1.9840    3.3610   23.8330 C   0  0  0  0  0  0  0  0  0  0  0  0
    7.7310   -3.4840   23.6110 C   0  0  0  0  0  0  0  0  0  0  0  0
    8.1150   -5.9240   23.3250 C   0  0  0  0  0  0  0  0  0  0  0  0
   -1.9330    4.6260   24.4360 C   0  0  0  0  0  0  0  0  0  0  0  0
    7.3160   -4.6660   23.0450 C   0  0  0  0  0  0  0  0  0  0  0  0
    6.1880   -4.6950   22.2040 N   0  0  0  0  0  0  0  0  0  0  0  0
    6.5160   -4.4710   20.8760 C   0  0  0  0  0  0  0  0  0  0  0  0
    4.8630   -4.9350   22.7550 C   0  0  2  0  0  0  0  0  0  0  0  0
    5.6810   -4.5760   19.9640 O   0  0  0  0  0  0  0  0  0  0  0  0
    8.0300   -4.0680   20.7250 C   0  0  0  0  0  0  0  0  0  0  0  0
    4.7780   -4.4200   24.1780 C   0  0  0  0  0  0  0  0  0  0  0  0
    4.5650   -6.4200   22.8010 C   0  0  0  0  0  0  0  0  0  0  0  0
    3.7350   -6.7070   24.3950 S   0  0  0  0  0  0  0  0  0  0  0  0
    4.2210   -5.2430   25.0820 C   0  0  0  0  0  0  0  0  0  0  0  0
    2.1310   -6.7870   24.1260 O   0  0  0  0  0  0  0  0  0  0  0  0
    4.4220   -7.7850   25.0360 O   0  0  0  0  0  0  0  0  0  0  0  0
  2  1  1  6
  2  3  1  0
  1  4  1  0
  2  5  1  0
  4  6  2  0
  4  7  1  0
  3  8  1  0
  3  9  2  0
  5 10  1  0
  5 11  2  0
  6 12  1  0
  7 13  2  0
 12 13  1  0
 13 14  1  0
 10 15  1  0
 11 16  1  0
 10 17  2  0
  8 18  1  0
 14 19  1  0
 14 20  1  0
 14 21  1  0
 15 22  1  0
 16 23  2  0
 17 23  1  0
 18 24  2  0
 18 25  1  0
 24 26  1  0
 25 27  1  0
 22 28  1  0
 20 29  1  0
 24 30  1  0
 25 31  2  0
 26 32  1  0
 28 33  1  0
 29 34  1  0
 30 35  2  0
 31 35  1  0
 33 36  2  0
 33 37  1  0
 34 38  1  0
 37 39  1  0
 38 40  1  0
 39 41  1  0
 39 42  1  0
 40 43  2  0
 40 44  1  0
 41 45  1  0
 42 46  1  0
 43 47  1  0
 44 48  2  0
 45 49  1  0
 46 49  1  0
 47 50  2  0
 48 50  1  0
 50 51  1  0
 51 52  1  0
 53 51  1  1
 52 54  2  0
 52 55  1  0
 53 56  1  0
 53 57  1  0
 57 58  1  0
 56 59  2  0
 58 59  1  0
 58 60  1  0
 58 61  1  0
M  END
