x1374-x2694-x2193-x0426-x2776
     RDKit          3D

 63 68  0  0  0  0  0  0  0  0999 V2000
    7.4650   -0.7920   21.8960 N   0  0  0  0  0  0  0  0  0  0  0  0
    6.9980    0.5040   21.7370 C   0  0  1  0  0  0  0  0  0  0  0  0
    7.8870    1.5540   21.8900 C   0  0  0  0  0  0  0  0  0  0  0  0
    8.7220   -1.0430   22.5060 C   0  0  0  0  0  0  0  0  0  0  0  0
    6.4040   -1.7830   22.1270 C   0  0  0  0  0  0  0  0  0  0  0  0
    6.3320    0.6860   20.3940 C   0  0  0  0  0  0  0  0  0  0  0  0
    8.7790   -1.3740   23.9250 N   0  0  0  0  0  0  0  0  0  0  0  0
    9.9650   -1.0230   22.0030 C   0  0  0  0  0  0  0  0  0  0  0  0
    6.9760   -3.0760   22.5780 C   0  0  0  0  0  0  0  0  0  0  0  0
    7.6430    2.6350   22.8260 N   0  0  0  0  0  0  0  0  0  0  0  0
    9.0190    1.4800   21.0400 O   0  0  0  0  0  0  0  0  0  0  0  0
    5.0690    1.5190   20.1690 C   0  0  0  0  0  0  0  0  0  0  0  0
    6.9670   -0.0080   19.1290 C   0  0  0  0  0  0  0  0  0  0  0  0
   10.1640   -1.5260   24.1970 O   0  0  0  0  0  0  0  0  0  0  0  0
   10.9750   -1.3250   23.0860 C   0  0  0  0  0  0  0  0  0  0  0  0
    6.2960   -4.2150   21.9640 N   0  0  0  0  0  0  0  0  0  0  0  0
   12.5430   -1.4110   23.1560 C   0  0  0  0  0  0  0  0  0  0  0  0
    4.2190    2.2950   21.1420 C   0  0  0  0  0  0  0  0  0  0  0  0
    6.3610    0.1790   17.8360 N   0  0  0  0  0  0  0  0  0  0  0  0
    4.5580    1.6400   18.9000 C   0  0  0  0  0  0  0  0  0  0  0  0
    8.5260    3.6820   23.0980 C   0  0  0  0  0  0  0  0  0  0  0  0
    6.2480   -4.3360   20.5590 C   0  0  0  0  0  0  0  0  0  0  0  0
    5.8790   -5.2330   22.9810 C   0  0  1  0  0  0  0  0  0  0  0  0
   12.9730   -0.2470   23.7710 C   0  0  0  0  0  0  0  0  0  0  0  0
   13.0270   -1.4780   21.7130 C   0  0  0  0  0  0  0  0  0  0  0  0
   13.2240   -2.6500   23.7760 C   0  0  0  0  0  0  0  0  0  0  0  0
    4.3540    1.8180   22.4860 C   0  0  0  0  0  0  0  0  0  0  0  0
    5.1860    1.0020   17.8100 C   0  0  0  0  0  0  0  0  0  0  0  0
    9.7570    3.4430   23.7140 C   0  0  0  0  0  0  0  0  0  0  0  0
    8.1510    5.0920   22.7230 C   0  0  0  0  0  0  0  0  0  0  0  0
    5.4840   -5.1450   20.0400 O   0  0  0  0  0  0  0  0  0  0  0  0
    7.1370   -3.4100   19.7040 C   0  0  0  0  0  0  0  0  0  0  0  0
    4.8990   -4.5710   23.9740 C   0  0  0  0  0  0  0  0  0  0  0  0
    5.3120   -6.5680   22.4850 C   0  0  0  0  0  0  0  0  0  0  0  0
   10.2010    2.0610   24.1130 C   0  0  0  0  0  0  0  0  0  0  0  0
   12.9550   -3.0030   25.2120 C   0  0  0  0  0  0  0  0  0  0  0  0
    3.3600    2.5060   23.3230 N   0  0  0  0  0  0  0  0  0  0  0  0
   10.6090    4.5160   23.9760 C   0  0  0  0  0  0  0  0  0  0  0  0
    9.1080    6.2300   23.0290 C   0  0  0  0  0  0  0  0  0  0  0  0
    4.0270   -6.8620   23.7110 S   0  0  0  0  0  0  0  0  0  0  0  0
    3.8920   -5.3460   24.4210 C   0  0  0  0  0  0  0  0  0  0  0  0
    2.2350    1.7640   23.8960 C   0  0  0  0  0  0  0  0  0  0  0  0
   10.3580    6.0000   23.6640 C   0  0  0  0  0  0  0  0  0  0  0  0
   11.4700   -3.2910   25.2440 C   0  0  0  0  0  0  0  0  0  0  0  0
    2.8450   -7.1960   22.9720 O   0  0  0  0  0  0  0  0  0  0  0  0
    4.4710   -7.8170   24.6780 O   0  0  0  0  0  0  0  0  0  0  0  0
   11.1780    6.8660   23.9500 O   0  0  0  0  0  0  0  0  0  0  0  0
    2.1300    0.3410   23.8330 O   0  0  0  0  0  0  0  0  0  0  0  0
    1.1630    2.5610   24.5860 C   0  0  0  0  0  0  0  0  0  0  0  0
   10.9170   -4.4730   26.0480 C   0  0  0  0  0  0  0  0  0  0  0  0
   11.8810    6.6740   25.1710 C   0  0  0  0  0  0  0  0  0  0  0  0
    1.4710    3.9020   25.2920 C   0  0  0  0  0  0  0  0  0  0  0  0
   -0.1310    2.0490   24.5740 C   0  0  0  0  0  0  0  0  0  0  0  0
    9.4520   -4.1900   26.3050 C   0  0  2  0  0  0  0  0  0  0  0  0
    2.7180    4.3910   25.3010 F   0  0  0  0  0  0  0  0  0  0  0  0
   -1.2500    2.8210   25.2630 C   0  0  0  0  0  0  0  0  0  0  0  0
    0.4700    4.6510   25.9420 C   0  0  0  0  0  0  0  0  0  0  0  0
    8.7200   -5.3770   26.8030 C   0  0  0  0  0  0  0  0  0  0  0  0
    8.8610   -3.7540   25.0290 N   0  0  0  0  0  0  0  0  0  0  0  0
   -0.9660    4.1300   25.9560 C   0  0  0  0  0  0  0  0  0  0  0  0
    8.0590   -6.0350   25.8750 N   0  0  0  0  0  0  0  0  0  0  0  0
    9.0920   -4.7480   24.1490 C   0  0  0  0  0  0  0  0  0  0  0  0
    8.7740   -5.9860   24.6810 C   0  0  0  0  0  0  0  0  0  0  0  0
  1  2  1  0
  2  3  1  6
  1  4  1  0
  1  5  1  0
  2  6  1  0
  4  7  2  0
  4  8  1  0
  5  9  1  0
  3 10  1  0
  3 11  2  0
  6 12  1  0
  6 13  2  0
  7 14  1  0
  8 15  2  0
 14 15  1  0
  9 16  1  0
 15 17  1  0
 12 18  1  0
 13 19  1  0
 12 20  2  0
 10 21  1  0
 16 22  1  0
 23 16  1  6
 17 24  1  0
 17 25  1  0
 17 26  1  0
 18 27  1  0
 19 28  2  0
 20 28  1  0
 21 29  2  0
 21 30  1  0
 22 31  2  0
 22 32  1  0
 23 33  1  0
 23 34  1  0
 29 35  1  0
 26 36  1  0
 27 37  1  0
 29 38  1  0
 30 39  2  0
 34 40  1  0
 33 41  2  0
 40 41  1  0
 37 42  1  0
 38 43  2  0
 39 43  1  0
 36 44  1  0
 40 45  1  0
 40 46  1  0
 43 47  1  0
 42 48  2  0
 42 49  1  0
 44 50  1  0
 47 51  1  0
 49 52  2  0
 49 53  1  0
 54 50  1  6
 52 55  1  0
 53 56  2  0
 52 57  1  0
 54 58  1  0
 54 59  1  0
 56 60  1  0
 57 60  2  0
 58 61  1  0
 59 62  1  0
 61 63  1  0
 62 63  1  0
M  END
