x1375-x2600
     RDKit          3D

 39 42  0  0  0  0  0  0  0  0999 V2000
    5.7710   -4.7970   20.0410 O   0  0  0  0  0  0  0  0  0  0  0  0
    6.6050   -4.4610   20.9150 C   0  0  0  0  0  0  0  0  0  0  0  0
    8.1190   -4.2970   20.7160 C   0  0  0  0  0  0  0  0  0  0  0  0
    6.1550   -4.1280   22.3690 C   0  0  2  0  0  0  0  0  0  0  0  0
    5.5970   -2.6750   22.1550 C   0  0  0  0  0  0  0  0  0  0  0  0
    7.3610   -4.3030   23.3400 C   0  0  0  0  0  0  0  0  0  0  0  0
    4.9510   -4.9080   22.8830 C   0  0  2  0  0  0  0  0  0  0  0  0
    5.9360   -2.0510   20.7920 C   0  0  0  0  0  0  0  0  0  0  0  0
    7.8040   -3.2320   24.1300 C   0  0  0  0  0  0  0  0  0  0  0  0
    8.0360   -5.5040   23.4460 C   0  0  0  0  0  0  0  0  0  0  0  0
    4.5920   -4.4720   24.1700 C   0  0  0  0  0  0  0  0  0  0  0  0
    4.9530   -6.3030   22.9120 C   0  0  0  0  0  0  0  0  0  0  0  0
    7.3370   -1.4710   20.9550 C   0  0  0  0  0  0  0  0  0  0  0  0
    8.9000   -3.4060   24.9900 C   0  0  0  0  0  0  0  0  0  0  0  0
    9.1270   -5.6370   24.3170 C   0  0  0  0  0  0  0  0  0  0  0  0
    3.8010   -6.8910   24.1280 S   0  0  0  0  0  0  0  0  0  0  0  0
    3.9660   -5.3670   24.9920 C   0  0  0  0  0  0  0  0  0  0  0  0
    2.4700   -7.0010   23.5620 O   0  0  0  0  0  0  0  0  0  0  0  0
    4.3660   -7.8990   24.9660 O   0  0  0  0  0  0  0  0  0  0  0  0
    7.1130   -0.0730   21.1900 N   0  0  0  0  0  0  0  0  0  0  0  0
    9.5650   -4.5750   25.1010 C   0  0  0  0  0  0  0  0  0  0  0  0
   10.6110   -4.6900   25.9440 F   0  0  0  0  0  0  0  0  0  0  0  0
    8.3580    0.5870   21.7520 C   0  0  0  0  0  0  0  0  0  0  0  0
    6.3520    0.5680   20.1430 C   0  0  0  0  0  0  0  0  0  0  0  0
    9.0290    1.4710   21.2080 O   0  0  0  0  0  0  0  0  0  0  0  0
    8.6830    0.0270   23.1550 C   0  0  0  0  0  0  0  0  0  0  0  0
    6.8460    0.2690   18.8860 C   0  0  0  0  0  0  0  0  0  0  0  0
    5.2800    1.3580   20.2790 C   0  0  0  0  0  0  0  0  0  0  0  0
    6.3870    0.6840   17.7070 N   0  0  0  0  0  0  0  0  0  0  0  0
    4.6860    1.8660   19.1720 C   0  0  0  0  0  0  0  0  0  0  0  0
   10.1560   -0.2770   23.3560 C   0  0  0  0  0  0  0  0  0  0  0  0
    5.2240    1.5480   17.8030 C   0  0  0  0  0  0  0  0  0  0  0  0
   10.7200   -0.1160   24.6240 C   0  0  0  0  0  0  0  0  0  0  0  0
   10.9030   -0.6900   22.3450 C   0  0  0  0  0  0  0  0  0  0  0  0
   12.0110   -0.3610   24.8900 C   0  0  0  0  0  0  0  0  0  0  0  0
   12.3580   -0.9680   22.5820 C   0  0  0  0  0  0  0  0  0  0  0  0
   13.1550   -1.3720   21.5460 C   0  0  0  0  0  0  0  0  0  0  0  0
   12.8770   -0.8140   23.7860 C   0  0  0  0  0  0  0  0  0  0  0  0
   13.9120   -1.6060   20.4850 N   0  0  0  0  0  0  0  0  0  0  0  0
  1  2  2  0
  2  3  1  0
  4  2  1  0
  4  5  1  6
  4  6  1  0
  4  7  1  0
  5  8  1  0
  6  9  2  0
  6 10  1  0
  7 11  1  1
  7 12  1  0
  8 13  1  0
  9 14  1  0
 10 15  2  0
 12 16  1  0
 11 17  2  0
 16 17  1  0
 16 18  1  0
 16 19  1  0
 13 20  1  0
 14 21  2  0
 15 21  1  0
 21 22  1  0
 20 23  1  0
 20 24  1  0
 23 25  2  0
 23 26  1  0
 24 27  2  0
 24 28  1  0
 27 29  1  0
 28 30  2  0
 26 31  1  0
 29 32  2  0
 30 32  1  0
 31 33  2  0
 31 34  1  0
 33 35  1  0
 34 36  2  0
 36 37  1  0
 35 38  2  0
 36 38  1  0
 37 39  3  0
M  END
