x1374-x2694-x0387-x0769-x0540
     RDKit          3D

 82 91  0  0  0  0  0  0  0  0999 V2000
    7.8730   -0.6980   21.3570 N   0  0  0  0  0  0  0  0  0  0  0  0
    7.0460    0.4960   21.4760 C   0  0  1  0  0  0  0  0  0  0  0  0
    7.9270    1.7190   21.6240 C   0  0  0  0  0  0  0  0  0  0  0  0
    8.8980   -1.0000   22.1900 C   0  0  2  0  0  0  0  0  0  0  0  0
    6.2380    0.6770   20.1950 C   0  0  0  0  0  0  0  0  0  0  0  0
    8.6460   -1.0310   23.5050 N   0  0  0  0  0  0  0  0  0  0  0  0
   10.2050   -0.3340   21.9930 C   0  0  0  0  0  0  0  0  0  0  0  0
    7.6150    2.6670   22.4650 N   0  0  0  0  0  0  0  0  0  0  0  0
    8.9360    1.8140   20.9560 O   0  0  0  0  0  0  0  0  0  0  0  0
    4.9160    1.0810   20.2360 C   0  0  0  0  0  0  0  0  0  0  0  0
    6.8350    0.4310   18.9580 C   0  0  0  0  0  0  0  0  0  0  0  0
   10.0090   -1.4320   23.9170 O   0  0  0  0  0  0  0  0  0  0  0  0
   10.9680   -0.8990   22.9500 C   0  0  2  0  0  0  0  0  0  0  0  0
    4.2300    1.3140   21.5340 C   0  0  0  0  0  0  0  0  0  0  0  0
    6.3680    0.5430   17.9150 N   0  0  0  0  0  0  0  0  0  0  0  0
    4.2170    1.2670   19.0430 C   0  0  0  0  0  0  0  0  0  0  0  0
    8.4750    3.7160   22.8490 C   0  0  0  0  0  0  0  0  0  0  0  0
   12.0190   -0.0640   23.6320 C   0  0  1  0  0  0  0  0  0  0  0  0
   11.6430   -2.0030   22.2320 C   0  0  0  0  0  0  0  0  0  0  0  0
   12.2930   -0.7170   24.9720 C   0  0  0  0  0  0  0  0  0  0  0  0
    4.8600    2.2430   22.3410 C   0  0  0  0  0  0  0  0  0  0  0  0
    5.0530    0.9720   17.9750 C   0  0  0  0  0  0  0  0  0  0  0  0
    9.6720    3.4960   23.5360 C   0  0  0  0  0  0  0  0  0  0  0  0
    8.1420    5.0380   22.5410 C   0  0  0  0  0  0  0  0  0  0  0  0
   13.2670   -1.5540   21.8180 S   0  0  0  0  0  0  0  0  0  0  0  0
   13.2310   -0.1530   22.7870 C   0  0  0  0  0  0  0  0  0  0  0  0
   10.1230    2.1300   23.9090 C   0  0  0  0  0  0  0  0  0  0  0  0
   12.9390   -2.0700   24.8470 C   0  0  0  0  0  0  0  0  0  0  0  0
    3.9430    3.1180   23.0380 N   0  0  0  0  0  0  0  0  0  0  0  0
   10.5020    4.5460   23.9020 C   0  0  0  0  0  0  0  0  0  0  0  0
    8.9360    6.1280   22.8890 C   0  0  0  0  0  0  0  0  0  0  0  0
    2.7640    2.5480   23.6490 C   0  0  0  0  0  0  0  0  0  0  0  0
   11.9820   -3.2690   24.7160 C   0  0  0  0  0  0  0  0  0  0  0  0
   10.2410    5.8780   23.6440 C   0  0  0  0  0  0  0  0  0  0  0  0
   11.0140    6.9500   23.9880 O   0  0  0  0  0  0  0  0  0  0  0  0
    2.7920    1.6310   24.4600 O   0  0  0  0  0  0  0  0  0  0  0  0
    1.6720    3.1550   23.2120 N   0  0  0  0  0  0  0  0  0  0  0  0
   10.5410   -3.2890   25.3110 C   0  0  1  0  0  0  0  0  0  0  0  0
   11.8880    6.7370   25.0940 C   0  0  0  0  0  0  0  0  0  0  0  0
    0.5020    3.3270   24.0790 C   0  0  0  0  0  0  0  0  0  0  0  0
    9.2080   -3.8310   24.5790 C   0  0  2  0  0  0  0  0  0  0  0  0
   10.6200   -4.4460   26.3760 C   0  0  0  0  0  0  0  0  0  0  0  0
    0.4560    4.6480   24.5680 C   0  0  0  0  0  0  0  0  0  0  0  0
   -0.6450    2.8410   23.4370 C   0  0  0  0  0  0  0  0  0  0  0  0
    9.6190   -5.3020   24.6150 C   0  0  0  0  0  0  0  0  0  0  0  0
    8.5130   -3.6610   23.1600 C   0  0  0  0  0  0  0  0  0  0  0  0
    9.4440   -4.4820   27.3980 C   0  0  2  0  0  0  0  0  0  0  0  0
    8.1470   -3.3450   25.6190 C   0  0  0  0  0  0  0  0  0  0  0  0
    9.4770   -5.6620   28.1510 O   0  0  0  0  0  0  0  0  0  0  0  0
   -0.8050    4.9400   25.1250 C   0  0  0  0  0  0  0  0  0  0  0  0
   -1.8890    3.3680   23.7780 C   0  0  0  0  0  0  0  0  0  0  0  0
    7.4600   -4.7980   23.0170 C   0  0  2  0  0  0  0  0  0  0  0  0
    9.1560   -6.2810   23.7690 C   0  0  0  0  0  0  0  0  0  0  0  0
    8.0430   -4.2960   26.8090 C   0  0  0  0  0  0  0  0  0  0  0  0
   -1.8650    4.6870   24.2310 C   0  0  0  0  0  0  0  0  0  0  0  0
    8.1280   -6.0690   22.7130 C   0  0  0  0  0  0  0  0  0  0  0  0
    6.1300   -4.6810   22.0980 C   0  0  0  0  0  0  0  0  0  0  0  0
    6.7880   -5.0100   24.3360 C   0  0  0  0  0  0  0  0  0  0  0  0
    6.3670   -4.7870   20.5740 C   0  0  0  0  0  0  0  0  0  0  0  0
    5.7440   -3.2710   21.6060 C   0  0  0  0  0  0  0  0  0  0  0  0
    4.8870   -5.1690   22.6640 C   0  0  1  0  0  0  0  0  0  0  0  0
    5.7630   -4.0170   24.4780 N   0  0  0  0  0  0  0  0  0  0  0  0
    5.7600   -5.6430   19.9780 O   0  0  0  0  0  0  0  0  0  0  0  0
    7.2850   -3.7010   19.8700 C   0  0  0  0  0  0  0  0  0  0  0  0
    4.9870   -3.2110   20.6360 O   0  0  0  0  0  0  0  0  0  0  0  0
    6.2180   -2.0210   22.2510 C   0  0  0  0  0  0  0  0  0  0  0  0
    4.4170   -6.8380   23.1650 S   0  0  0  0  0  0  0  0  0  0  0  0
    4.5760   -4.4950   23.8770 C   0  0  2  0  0  0  0  0  0  0  0  0
    3.1410   -7.2350   22.6240 O   0  0  0  0  0  0  0  0  0  0  0  0
    5.5610   -7.6770   23.0420 O   0  0  0  0  0  0  0  0  0  0  0  0
    4.3340   -5.4480   24.9750 C   0  0  0  0  0  0  0  0  0  0  0  0
    4.1950   -6.8390   24.7510 C   0  0  0  0  0  0  0  0  0  0  0  0
    4.2320   -5.1150   26.6890 S   0  0  0  0  0  0  0  0  0  0  0  0
    5.5130   -4.8060   27.2660 O   0  0  0  0  0  0  0  0  0  0  0  0
    3.4270   -6.1560   27.1890 O   0  0  0  0  0  0  0  0  0  0  0  0
    3.2940   -3.6690   26.5930 C   0  0  0  0  0  0  0  0  0  0  0  0
    3.9740   -2.3090   26.6240 C   0  0  0  0  0  0  0  0  0  0  0  0
    1.7920   -3.7250   26.4730 C   0  0  0  0  0  0  0  0  0  0  0  0
    5.3040   -2.2030   26.7170 F   0  0  0  0  0  0  0  0  0  0  0  0
    1.1290   -2.5320   26.4120 C   0  0  0  0  0  0  0  0  0  0  0  0
    3.2050   -1.1410   26.5580 C   0  0  0  0  0  0  0  0  0  0  0  0
    1.8000   -1.3160   26.4580 C   0  0  0  0  0  0  0  0  0  0  0  0
  2  1  1  6
  2  3  1  0
  4  1  1  6
  2  5  1  0
  4  6  1  0
  4  7  1  0
  3  8  1  0
  3  9  2  0
  5 10  1  0
  5 11  2  0
  6 12  1  0
 13  7  1  6
 13 12  1  0
 10 14  1  0
 11 15  1  0
 10 16  2  0
  8 17  1  0
 13 18  1  0
 13 19  1  0
 18 20  1  1
 14 21  1  0
 15 22  2  0
 16 22  1  0
 17 23  2  0
 17 24  1  0
 19 25  2  0
 18 26  1  0
 25 26  2  0
 23 27  1  0
 20 28  1  0
 21 29  1  0
 23 30  1  0
 24 31  2  0
 29 32  1  0
 28 33  1  0
 30 34  2  0
 31 34  1  0
 34 35  1  0
 32 36  2  0
 32 37  1  0
 38 33  1  6
 35 39  1  0
 37 40  1  0
 38 41  1  0
 38 42  1  0
 40 43  1  0
 40 44  1  0
 41 45  1  1
 41 46  1  0
 42 47  1  0
 41 48  1  0
 47 49  1  6
 43 50  1  0
 44 51  1  0
 52 46  1  1
 45 53  2  0
 47 54  1  0
 48 54  1  0
 50 55  1  0
 51 55  1  0
 52 56  1  0
 53 56  1  0
 52 57  1  0
 52 58  1  0
 57 59  1  0
 57 60  1  0
 61 57  1  1
 58 62  1  0
 59 63  2  0
 59 64  1  0
 60 65  2  0
 60 66  1  0
 61 67  1  0
 61 68  1  0
 68 62  1  1
 67 69  1  0
 67 70  1  0
 68 71  1  0
 67 72  1  0
 71 72  2  0
 73 71  1  0
 73 74  2  0
 73 75  2  0
 73 76  1  0
 76 77  2  0
 76 78  1  0
 77 79  1  0
 78 80  2  0
 77 81  1  0
 80 82  1  0
 81 82  2  0
M  END
