x1375-x1374-x3117
     RDKit          3D

 53 57  0  0  0  0  0  0  0  0999 V2000
    7.0960    0.9090   21.9910 N   0  0  0  0  0  0  0  0  0  0  0  0
    6.6110    2.1890   21.5460 C   0  0  1  0  0  0  0  0  0  0  0  0
    7.5790    3.3750   21.5100 C   0  0  0  0  0  0  0  0  0  0  0  0
    8.5420    0.5710   22.2150 C   0  0  0  0  0  0  0  0  0  0  0  0
    5.9760    1.9130   20.1400 C   0  0  0  0  0  0  0  0  0  0  0  0
    9.0860   -0.4610   21.3920 C   0  0  0  0  0  0  0  0  0  0  0  0
    9.3500    1.1860   23.1340 C   0  0  0  0  0  0  0  0  0  0  0  0
    7.3620    4.3500   22.1610 N   0  0  0  0  0  0  0  0  0  0  0  0
    8.5840    3.2920   20.7940 O   0  0  0  0  0  0  0  0  0  0  0  0
    4.6390    2.2660   19.8410 C   0  0  0  0  0  0  0  0  0  0  0  0
    6.7740    1.2980   19.1190 C   0  0  0  0  0  0  0  0  0  0  0  0
   10.4180   -0.7670   21.5390 C   0  0  0  0  0  0  0  0  0  0  0  0
   10.6970    0.8690   23.2640 C   0  0  0  0  0  0  0  0  0  0  0  0
    6.1780    1.0420   17.7710 N   0  0  0  0  0  0  0  0  0  0  0  0
    4.0900    2.0220   18.5540 C   0  0  0  0  0  0  0  0  0  0  0  0
    8.2490    5.4570   22.5190 C   0  0  0  0  0  0  0  0  0  0  0  0
   11.3370   -0.1350   22.4640 C   0  0  0  0  0  0  0  0  0  0  0  0
   12.8470   -0.4240   22.6370 C   0  0  0  0  0  0  0  0  0  0  0  0
    4.8880    1.4200   17.5650 C   0  0  0  0  0  0  0  0  0  0  0  0
    8.8910    5.3420   23.7940 C   0  0  0  0  0  0  0  0  0  0  0  0
    7.6020    6.6970   22.2730 C   0  0  0  0  0  0  0  0  0  0  0  0
   13.6200    0.9590   22.6460 C   0  0  0  0  0  0  0  0  0  0  0  0
   13.4150   -1.3630   21.4680 C   0  0  0  0  0  0  0  0  0  0  0  0
   13.1550   -1.1180   24.0430 C   0  0  0  0  0  0  0  0  0  0  0  0
    9.7640    6.4600   24.0000 C   0  0  0  0  0  0  0  0  0  0  0  0
    8.5140    7.8640   22.6920 C   0  0  0  0  0  0  0  0  0  0  0  0
   12.7510   -2.5910   24.3180 C   0  0  0  0  0  0  0  0  0  0  0  0
    9.0660    7.7400   23.8200 O   0  0  0  0  0  0  0  0  0  0  0  0
   11.7350   -2.6790   25.0800 O   0  0  0  0  0  0  0  0  0  0  0  0
   11.1450   -4.0010   25.1980 C   0  0  0  0  0  0  0  0  0  0  0  0
   10.0090   -4.0400   24.1760 C   0  0  0  0  0  0  0  0  0  0  0  0
    8.9140   -4.0780   23.1910 C   0  0  0  0  0  0  0  0  0  0  0  0
    9.9890   -5.6970   24.4760 C   0  0  0  0  0  0  0  0  0  0  0  0
    9.1350   -6.6590   23.8940 C   0  0  0  0  0  0  0  0  0  0  0  0
    8.0200   -5.0160   22.6130 C   0  0  0  0  0  0  0  0  0  0  0  0
    6.9320   -4.7290   21.6990 N   0  0  0  0  0  0  0  0  0  0  0  0
    8.1700   -6.3370   23.0050 C   0  0  0  0  0  0  0  0  0  0  0  0
    7.0910   -4.8540   20.2540 C   0  0  0  0  0  0  0  0  0  0  0  0
    5.7980   -3.9300   22.2500 C   0  0  2  0  0  0  0  0  0  0  0  0
    6.8400   -3.9410   19.5050 O   0  0  0  0  0  0  0  0  0  0  0  0
    7.5550   -6.1440   19.6190 C   0  0  0  0  0  0  0  0  0  0  0  0
    5.9540   -2.5860   21.5500 N   0  0  0  0  0  0  0  0  0  0  0  0
    5.7640   -3.5540   23.6460 C   0  0  0  0  0  0  0  0  0  0  0  0
    4.5740   -4.6620   22.0910 C   0  0  0  0  0  0  0  0  0  0  0  0
    5.0160   -1.7190   20.9730 C   0  0  0  0  0  0  0  0  0  0  0  0
    4.0920   -5.4280   23.6670 S   0  0  0  0  0  0  0  0  0  0  0  0
    4.9790   -4.2110   24.5190 C   0  0  0  0  0  0  0  0  0  0  0  0
    2.6510   -5.2750   23.7990 O   0  0  0  0  0  0  0  0  0  0  0  0
    4.7110   -6.7380   23.7040 O   0  0  0  0  0  0  0  0  0  0  0  0
    4.4760   -0.8030   21.5890 O   0  0  0  0  0  0  0  0  0  0  0  0
    4.7400   -1.9400   19.6160 C   0  0  0  0  0  0  0  0  0  0  0  0
    1.9020   -6.1920   22.9260 O   0  0  0  0  0  0  0  0  0  0  0  0
    4.0250   -7.7000   24.5780 O   0  0  0  0  0  0  0  0  0  0  0  0
  2  1  1  6
  2  3  1  0
  1  4  1  0
  2  5  1  0
  4  6  2  0
  4  7  1  0
  3  8  1  0
  3  9  2  0
  5 10  2  0
  5 11  1  0
  6 12  1  0
  7 13  2  0
 11 14  2  0
 10 15  1  0
  8 16  1  0
 12 17  2  0
 13 17  1  0
 17 18  1  0
 14 19  1  0
 15 19  2  0
 16 20  1  0
 16 21  1  0
 18 22  1  0
 18 23  1  0
 18 24  1  0
 20 25  1  0
 21 26  1  0
 24 27  1  0
 25 28  1  0
 26 28  1  0
 27 29  1  0
 29 30  1  0
 30 31  1  0
 31 32  2  0
 31 33  1  0
 33 34  2  0
 32 35  1  0
 35 36  1  0
 34 37  1  0
 35 37  2  0
 36 38  1  0
 39 36  1  0
 38 40  2  0
 38 41  1  0
 39 42  1  6
 39 43  1  0
 39 44  1  0
 42 45  1  0
 44 46  1  0
 43 47  2  0
 46 47  1  0
 46 48  1  0
 46 49  1  0
 45 50  2  0
 45 51  1  0
 48 52  1  0
 49 53  1  0
M  END
