x1375-x0967
     RDKit          3D

 41 44  0  0  0  0  0  0  0  0999 V2000
    7.5480    4.7580   22.2280 C   0  0  0  0  0  0  0  0  0  0  0  0
    7.0360    3.6110   23.1380 C   0  0  0  0  0  0  0  0  0  0  0  0
    7.9150    2.5640   23.1890 N   0  0  0  0  0  0  0  0  0  0  0  0
    5.9670    3.6770   23.7350 O   0  0  0  0  0  0  0  0  0  0  0  0
    7.4970    1.2230   23.1710 C   0  0  1  0  0  0  0  0  0  0  0  0
    6.0530    1.0230   22.6610 C   0  0  0  0  0  0  0  0  0  0  0  0
    8.5770    0.4560   22.3950 C   0  0  0  0  0  0  0  0  0  0  0  0
    8.8730   -0.9290   22.7730 N   0  0  0  0  0  0  0  0  0  0  0  0
    9.3090    1.1150   21.3550 O   0  0  0  0  0  0  0  0  0  0  0  0
    6.0560    0.8690   21.1320 C   0  0  0  0  0  0  0  0  0  0  0  0
    9.9120   -1.4360   21.8880 C   0  0  0  0  0  0  0  0  0  0  0  0
    7.8430   -2.0250   22.8570 C   0  0  2  0  0  0  0  0  0  0  0  0
    6.8980   -0.1830   20.3920 C   0  0  0  0  0  0  0  0  0  0  0  0
    5.2780    1.7000   20.4940 C   0  0  0  0  0  0  0  0  0  0  0  0
   11.3500   -0.9370   22.1570 C   0  0  0  0  0  0  0  0  0  0  0  0
    6.4030   -1.8400   23.1540 C   0  0  0  0  0  0  0  0  0  0  0  0
    6.7800   -0.1970   18.9830 C   0  0  0  0  0  0  0  0  0  0  0  0
    5.1920    1.6520   19.1190 C   0  0  0  0  0  0  0  0  0  0  0  0
    8.3380   -3.2090   23.5690 C   0  0  0  0  0  0  0  0  0  0  0  0
   12.2190   -1.6650   23.1740 C   0  0  0  0  0  0  0  0  0  0  0  0
    5.5970   -2.9080   22.7100 C   0  0  0  0  0  0  0  0  0  0  0  0
    5.9190    0.7320   18.3780 C   0  0  0  0  0  0  0  0  0  0  0  0
    9.4310   -3.1620   24.3420 C   0  0  0  0  0  0  0  0  0  0  0  0
    7.5720   -4.3240   23.3490 C   0  0  0  0  0  0  0  0  0  0  0  0
    5.6650    0.8830   17.0580 O   0  0  0  0  0  0  0  0  0  0  0  0
   13.3240   -2.4760   24.4800 Br  0  0  0  0  0  0  0  0  0  0  0  0
    6.3140   -4.2430   22.4840 C   0  0  2  0  0  0  0  0  0  0  0  0
    9.8320   -4.3090   24.9480 C   0  0  0  0  0  0  0  0  0  0  0  0
    7.9780   -5.4600   23.9350 C   0  0  0  0  0  0  0  0  0  0  0  0
    6.6370   -4.4800   20.9430 C   0  0  0  0  0  0  0  0  0  0  0  0
   10.9110   -4.3190   25.7330 F   0  0  0  0  0  0  0  0  0  0  0  0
    9.0570   -5.5840   24.7310 C   0  0  0  0  0  0  0  0  0  0  0  0
    5.4440   -5.3590   23.2230 C   0  0  1  0  0  0  0  0  0  0  0  0
    5.7830   -4.8610   20.0800 O   0  0  0  0  0  0  0  0  0  0  0  0
    8.1170   -4.1370   20.6670 C   0  0  0  0  0  0  0  0  0  0  0  0
    5.1650   -4.8450   24.4770 C   0  0  0  0  0  0  0  0  0  0  0  0
    4.2940   -5.7770   22.6850 C   0  0  0  0  0  0  0  0  0  0  0  0
    3.6010   -6.6660   24.0420 S   0  0  0  0  0  0  0  0  0  0  0  0
    4.1010   -5.4470   25.1840 C   0  0  0  0  0  0  0  0  0  0  0  0
    2.1790   -6.8180   23.8690 O   0  0  0  0  0  0  0  0  0  0  0  0
    4.4010   -8.0130   24.2310 O   0  0  0  0  0  0  0  0  0  0  0  0
  1  2  1  0
  2  3  1  0
  2  4  2  0
  3  5  1  0
  5  6  1  6
  5  7  1  0
  7  8  1  0
  7  9  2  0
  6 10  1  0
  8 11  1  0
 12  8  1  1
 10 13  2  0
 10 14  1  0
 11 15  1  0
 12 16  1  0
 13 17  1  0
 14 18  2  0
 12 19  1  0
 15 20  3  0
 16 21  1  0
 17 22  2  0
 18 22  1  0
 19 23  1  0
 19 24  2  0
 22 25  1  0
 20 26  1  0
 21 27  1  0
 24 27  1  0
 23 28  2  0
 24 29  1  0
 27 30  1  6
 28 31  1  0
 28 32  1  0
 29 32  2  0
 27 33  1  0
 30 34  2  0
 30 35  1  0
 33 36  1  1
 33 37  1  0
 37 38  1  0
 36 39  2  0
 38 39  1  0
 38 40  1  0
 38 41  1  0
M  END
