x1375-x0426
     RDKit          3D

 39 42  0  0  0  0  0  0  0  0999 V2000
    5.7100   -4.6290   19.9920 O   0  0  0  0  0  0  0  0  0  0  0  0
    6.5820   -4.4400   20.8650 C   0  0  0  0  0  0  0  0  0  0  0  0
    8.0530   -4.0700   20.6130 C   0  0  0  0  0  0  0  0  0  0  0  0
    6.2980   -4.5690   22.2260 N   0  0  0  0  0  0  0  0  0  0  0  0
    7.4900   -4.4500   23.0430 C   0  0  0  0  0  0  0  0  0  0  0  0
    5.0330   -4.9660   22.7960 C   0  0  2  0  0  0  0  0  0  0  0  0
    8.1670   -3.1360   23.4390 C   0  0  0  0  0  0  0  0  0  0  0  0
    8.0890   -5.6210   23.5070 C   0  0  0  0  0  0  0  0  0  0  0  0
    4.7950   -4.3530   24.0330 C   0  0  0  0  0  0  0  0  0  0  0  0
    4.8950   -6.3530   22.9470 C   0  0  0  0  0  0  0  0  0  0  0  0
    5.2140   -2.9020   24.2510 C   0  0  0  0  0  0  0  0  0  0  0  0
    9.3830   -3.2790   24.2590 C   0  0  0  0  0  0  0  0  0  0  0  0
    9.2330   -5.6610   24.2790 C   0  0  0  0  0  0  0  0  0  0  0  0
    3.8650   -6.6770   24.2670 S   0  0  0  0  0  0  0  0  0  0  0  0
    4.1930   -5.1310   24.9450 C   0  0  0  0  0  0  0  0  0  0  0  0
    2.4920   -6.6640   23.8220 O   0  0  0  0  0  0  0  0  0  0  0  0
    4.3950   -7.7430   25.0710 O   0  0  0  0  0  0  0  0  0  0  0  0
    4.1120   -1.8860   24.7450 C   0  0  0  0  0  0  0  0  0  0  0  0
    9.8870   -4.5070   24.6520 C   0  0  0  0  0  0  0  0  0  0  0  0
   10.9850   -4.5590   25.3810 F   0  0  0  0  0  0  0  0  0  0  0  0
    3.7820   -0.6800   23.8090 C   0  0  0  0  0  0  0  0  0  0  0  0
    2.5260    0.0330   24.2650 N   0  0  0  0  0  0  0  0  0  0  0  0
    2.5210    1.5230   24.1800 C   0  0  0  0  0  0  0  0  0  0  0  0
    3.6510    2.1390   23.6790 N   0  0  0  0  0  0  0  0  0  0  0  0
    1.3530    2.4440   24.6710 C   0  0  0  0  0  0  0  0  0  0  0  0
    4.2640    1.9320   22.4150 C   0  0  0  0  0  0  0  0  0  0  0  0
    1.5490    3.7400   25.1900 C   0  0  0  0  0  0  0  0  0  0  0  0
    0.0340    1.9720   24.6110 C   0  0  0  0  0  0  0  0  0  0  0  0
    3.5990    1.2410   21.2190 C   0  0  0  0  0  0  0  0  0  0  0  0
    2.7860    4.2490   25.2720 F   0  0  0  0  0  0  0  0  0  0  0  0
   -1.0430    2.7050   25.0340 C   0  0  0  0  0  0  0  0  0  0  0  0
    0.5010    4.5310   25.6330 C   0  0  0  0  0  0  0  0  0  0  0  0
   -0.8750    3.9490   25.5370 C   0  0  0  0  0  0  0  0  0  0  0  0
    4.5830    0.9560   20.1080 C   0  0  0  0  0  0  0  0  0  0  0  0
    5.6700   -0.0090   20.2300 C   0  0  0  0  0  0  0  0  0  0  0  0
    4.5280    1.6540   18.7640 C   0  0  0  0  0  0  0  0  0  0  0  0
    6.5450   -0.2580   19.2360 C   0  0  0  0  0  0  0  0  0  0  0  0
    5.4140    1.3740   17.8170 C   0  0  0  0  0  0  0  0  0  0  0  0
    6.5240    0.4060   17.8960 N   0  0  0  0  0  0  0  0  0  0  0  0
  1  2  2  0
  2  3  1  0
  2  4  1  0
  4  5  1  0
  6  4  1  1
  5  7  2  0
  5  8  1  0
  6  9  1  0
  6 10  1  0
  9 11  1  0
  7 12  1  0
  8 13  2  0
 10 14  1  0
  9 15  2  0
 14 15  1  0
 14 16  1  0
 14 17  1  0
 11 18  1  0
 12 19  2  0
 13 19  1  0
 19 20  1  0
 18 21  1  0
 21 22  1  0
 22 23  2  3
 23 24  1  0
 23 25  1  0
 24 26  1  0
 25 27  2  0
 25 28  1  0
 26 29  1  0
 27 30  1  0
 28 31  2  0
 27 32  1  0
 31 33  1  0
 32 33  2  0
 29 34  1  0
 34 35  2  0
 34 36  1  0
 35 37  1  0
 36 38  2  0
 37 39  2  0
 38 39  1  0
M  END
