x1375-x3117
     RDKit          3D

 46 50  0  0  0  0  0  0  0  0999 V2000
    7.2460   -0.8430   22.0110 N   0  0  0  0  0  0  0  0  0  0  0  0
    6.7890    0.4160   21.7520 C   0  0  1  0  0  0  0  0  0  0  0  0
    7.9950    1.3570   21.8370 C   0  0  0  0  0  0  0  0  0  0  0  0
    8.5560   -1.0630   22.6120 C   0  0  0  0  0  0  0  0  0  0  0  0
    6.1450    0.6260   20.3660 C   0  0  0  0  0  0  0  0  0  0  0  0
    9.5900   -1.6540   21.7420 C   0  0  0  0  0  0  0  0  0  0  0  0
    8.7680   -0.6900   23.9870 C   0  0  0  0  0  0  0  0  0  0  0  0
    7.9250    2.2300   22.9110 N   0  0  0  0  0  0  0  0  0  0  0  0
    8.9200    1.3830   21.0420 O   0  0  0  0  0  0  0  0  0  0  0  0
    5.0470    1.3270   20.3030 C   0  0  0  0  0  0  0  0  0  0  0  0
    6.7150    0.1110   19.2260 C   0  0  0  0  0  0  0  0  0  0  0  0
   11.0170   -1.9880   22.0510 C   0  0  0  0  0  0  0  0  0  0  0  0
    9.9800   -0.9280   24.3660 C   0  0  0  0  0  0  0  0  0  0  0  0
    6.2450    0.2720   18.0150 N   0  0  0  0  0  0  0  0  0  0  0  0
    4.5000    1.5400   19.0900 C   0  0  0  0  0  0  0  0  0  0  0  0
    8.7610    3.4410   22.8390 C   0  0  0  0  0  0  0  0  0  0  0  0
   11.0130   -1.5380   23.4270 C   0  0  0  0  0  0  0  0  0  0  0  0
   12.3540   -1.7120   24.0830 C   0  0  0  0  0  0  0  0  0  0  0  0
    5.1020    1.0010   17.7900 C   0  0  0  0  0  0  0  0  0  0  0  0
    9.8720    3.2230   23.6390 C   0  0  0  0  0  0  0  0  0  0  0  0
    7.9700    4.5830   23.0000 C   0  0  0  0  0  0  0  0  0  0  0  0
   12.5690   -0.7380   25.1130 C   0  0  0  0  0  0  0  0  0  0  0  0
   13.4340   -1.5270   23.0370 C   0  0  0  0  0  0  0  0  0  0  0  0
   12.3600   -3.1430   24.4830 C   0  0  0  0  0  0  0  0  0  0  0  0
   10.7500    4.4480   23.7040 C   0  0  0  0  0  0  0  0  0  0  0  0
    8.8380    5.8010   23.3390 C   0  0  0  0  0  0  0  0  0  0  0  0
   11.6320   -3.6050   25.7700 C   0  0  0  0  0  0  0  0  0  0  0  0
    9.9070    5.4690   24.2220 O   0  0  0  0  0  0  0  0  0  0  0  0
   10.7940   -4.7540   25.7260 O   0  0  0  0  0  0  0  0  0  0  0  0
    9.7150   -4.7510   24.9140 C   0  0  0  0  0  0  0  0  0  0  0  0
    8.8890   -3.4960   24.7170 C   0  0  0  0  0  0  0  0  0  0  0  0
    9.2860   -5.9570   24.1780 C   0  0  0  0  0  0  0  0  0  0  0  0
    7.7750   -3.3890   23.8890 C   0  0  0  0  0  0  0  0  0  0  0  0
    8.1130   -5.8190   23.3100 C   0  0  0  0  0  0  0  0  0  0  0  0
    7.3730   -4.5150   23.1740 C   0  0  0  0  0  0  0  0  0  0  0  0
    6.2290   -4.4350   22.2760 N   0  0  0  0  0  0  0  0  0  0  0  0
    6.4670   -4.4570   20.8970 C   0  0  0  0  0  0  0  0  0  0  0  0
    4.9500   -4.9120   22.8350 C   0  0  2  0  0  0  0  0  0  0  0  0
    5.6370   -4.6620   19.9960 O   0  0  0  0  0  0  0  0  0  0  0  0
    8.0000   -4.1590   20.7770 C   0  0  0  0  0  0  0  0  0  0  0  0
    4.5980   -4.3970   24.1940 C   0  0  0  0  0  0  0  0  0  0  0  0
    4.8790   -6.2970   22.7690 C   0  0  0  0  0  0  0  0  0  0  0  0
    3.8220   -6.6920   24.1390 S   0  0  0  0  0  0  0  0  0  0  0  0
    3.9850   -5.2660   25.0050 C   0  0  0  0  0  0  0  0  0  0  0  0
    2.4690   -6.8490   23.6390 O   0  0  0  0  0  0  0  0  0  0  0  0
    4.4200   -7.8090   24.8130 O   0  0  0  0  0  0  0  0  0  0  0  0
  2  1  1  6
  2  3  1  0
  1  4  1  0
  2  5  1  0
  4  6  2  0
  4  7  1  0
  3  8  1  0
  3  9  2  0
  5 10  2  0
  5 11  1  0
  6 12  1  0
  7 13  2  0
 11 14  2  0
 10 15  1  0
  8 16  1  0
 12 17  2  0
 13 17  1  0
 17 18  1  0
 14 19  1  0
 15 19  2  0
 16 20  1  0
 16 21  1  0
 18 22  1  0
 18 23  1  0
 18 24  1  0
 20 25  1  0
 21 26  1  0
 24 27  1  0
 25 28  1  0
 26 28  1  0
 27 29  1  0
 29 30  1  0
 30 31  2  0
 30 32  1  0
 31 33  1  0
 32 34  2  0
 33 35  2  0
 34 35  1  0
 35 36  1  0
 36 37  1  0
 38 36  1  1
 37 39  2  0
 37 40  1  0
 38 41  1  0
 38 42  1  0
 42 43  1  0
 41 44  2  0
 43 44  1  0
 43 45  1  0
 43 46  1  0
M  END
