x1374-x0678
     RDKit          3D

 37 40  0  0  0  0  0  0  0  0999 V2000
    9.3930   -4.6500   28.3750 C   0  0  0  0  0  0  0  0  0  0  0  0
    9.1580   -4.7540   26.8780 C   0  0  0  0  0  0  0  0  0  0  0  0
    9.6710   -5.7940   26.1410 C   0  0  0  0  0  0  0  0  0  0  0  0
    8.3220   -3.6940   26.0960 C   0  0  0  0  0  0  0  0  0  0  0  0
    7.8870   -3.4450   24.7290 C   0  0  0  0  0  0  0  0  0  0  0  0
    9.3950   -5.7870   24.8070 C   0  0  0  0  0  0  0  0  0  0  0  0
    7.3870   -3.1590   23.1560 C   0  0  1  0  0  0  0  0  0  0  0  0
    8.6120   -4.7470   24.1980 C   0  0  0  0  0  0  0  0  0  0  0  0
    6.5820   -4.0820   22.2190 N   0  0  0  0  0  0  0  0  0  0  0  0
    6.8510   -1.6420   23.0320 C   0  0  0  0  0  0  0  0  0  0  0  0
    6.9760   -4.1810   20.8060 C   0  0  0  0  0  0  0  0  0  0  0  0
    7.2300   -0.8730   21.8700 C   0  0  0  0  0  0  0  0  0  0  0  0
    5.3920   -4.8430   22.7230 C   0  0  2  0  0  0  0  0  0  0  0  0
    6.1240   -4.4790   19.9280 O   0  0  0  0  0  0  0  0  0  0  0  0
    8.4840   -3.9240   20.3880 C   0  0  0  0  0  0  0  0  0  0  0  0
    7.2960    0.6240   21.9020 N   0  0  0  0  0  0  0  0  0  0  0  0
    4.6850   -4.3210   23.8360 C   0  0  0  0  0  0  0  0  0  0  0  0
    5.6210   -6.2770   22.8150 C   0  0  0  0  0  0  0  0  0  0  0  0
    8.5120    1.1660   22.0640 C   0  0  0  0  0  0  0  0  0  0  0  0
    4.2500   -6.7920   23.8170 S   0  0  0  0  0  0  0  0  0  0  0  0
    3.9980   -5.2040   24.5510 C   0  0  0  0  0  0  0  0  0  0  0  0
    6.3760    1.2460   20.9970 C   0  0  0  0  0  0  0  0  0  0  0  0
    3.1890   -7.2150   22.9160 O   0  0  0  0  0  0  0  0  0  0  0  0
    4.6390   -7.7260   24.8380 O   0  0  0  0  0  0  0  0  0  0  0  0
    9.1120    2.0380   21.0780 O   0  0  0  0  0  0  0  0  0  0  0  0
    9.4150    0.9040   23.3280 C   0  0  0  0  0  0  0  0  0  0  0  0
    5.2730    2.0110   21.4840 C   0  0  0  0  0  0  0  0  0  0  0  0
    6.4960    1.1470   19.5730 C   0  0  0  0  0  0  0  0  0  0  0  0
   10.4310   -0.3210   23.3230 C   0  0  0  0  0  0  0  0  0  0  0  0
    4.3630    2.6290   20.5800 C   0  0  0  0  0  0  0  0  0  0  0  0
    5.6250    1.7380   18.6240 N   0  0  0  0  0  0  0  0  0  0  0  0
   11.2570   -0.3940   22.1390 C   0  0  0  0  0  0  0  0  0  0  0  0
   11.2240   -0.3980   24.6950 C   0  0  0  0  0  0  0  0  0  0  0  0
    4.5050    2.5220   19.1780 C   0  0  0  0  0  0  0  0  0  0  0  0
   12.3500   -1.2270   22.1890 C   0  0  0  0  0  0  0  0  0  0  0  0
   12.6310   -0.3020   24.5790 C   0  0  0  0  0  0  0  0  0  0  0  0
   13.2230   -0.9150   23.4180 C   0  0  0  0  0  0  0  0  0  0  0  0
  1  2  1  0
  2  3  2  0
  2  4  1  0
  4  5  2  0
  3  6  1  0
  5  7  1  0
  5  8  1  0
  6  8  2  0
  7  9  1  0
  7 10  1  1
  9 11  1  0
 10 12  1  0
 13  9  1  1
 11 14  2  0
 11 15  1  0
 12 16  1  0
 13 17  1  0
 13 18  1  0
 16 19  1  0
 18 20  1  0
 17 21  2  0
 20 21  1  0
 16 22  1  0
 20 23  1  0
 20 24  1  0
 19 25  2  0
 19 26  1  0
 22 27  2  0
 22 28  1  0
 26 29  1  0
 27 30  1  0
 28 31  2  0
 29 32  1  0
 29 33  1  0
 30 34  2  0
 31 34  1  0
 32 35  1  0
 33 36  1  0
 35 37  1  0
 36 37  1  0
M  END
