x1375-x2193-x2705
     RDKit          3D

 50 54  0  0  0  0  0  0  0  0999 V2000
    7.4620   -1.0740   22.1530 N   0  0  0  0  0  0  0  0  0  0  0  0
    7.0090    0.1720   21.7310 C   0  0  1  0  0  0  0  0  0  0  0  0
    7.9730    1.3160   21.8610 C   0  0  0  0  0  0  0  0  0  0  0  0
    8.8000   -1.2280   22.6250 C   0  0  0  0  0  0  0  0  0  0  0  0
    6.4880   -1.8740   22.7610 C   0  0  0  0  0  0  0  0  0  0  0  0
    6.3460    0.3930   20.3950 C   0  0  0  0  0  0  0  0  0  0  0  0
    8.9470   -1.7550   23.9070 N   0  0  0  0  0  0  0  0  0  0  0  0
   10.0710   -0.9730   22.1200 C   0  0  0  0  0  0  0  0  0  0  0  0
    5.5880   -2.4320   21.9090 C   0  0  0  0  0  0  0  0  0  0  0  0
    7.5990    2.2590   22.8020 N   0  0  0  0  0  0  0  0  0  0  0  0
    8.9810    1.4480   21.1700 O   0  0  0  0  0  0  0  0  0  0  0  0
    5.0640    1.1700   20.2980 C   0  0  0  0  0  0  0  0  0  0  0  0
    6.9280   -0.1000   19.2330 C   0  0  0  0  0  0  0  0  0  0  0  0
   10.2570   -1.8280   24.2480 N   0  0  0  0  0  0  0  0  0  0  0  0
   10.9650   -1.3650   23.1890 C   0  0  0  0  0  0  0  0  0  0  0  0
    8.0620   -2.2590   24.9910 C   0  0  0  0  0  0  0  0  0  0  0  0
    5.8370   -3.8840   21.8160 N   0  0  0  0  0  0  0  0  0  0  0  0
   12.4460   -1.2950   23.1990 C   0  0  0  0  0  0  0  0  0  0  0  0
    6.3160    0.1430   17.9200 N   0  0  0  0  0  0  0  0  0  0  0  0
    4.5480    1.3470   18.9550 C   0  0  0  0  0  0  0  0  0  0  0  0
    8.2100    3.4830   22.9240 C   0  0  0  0  0  0  0  0  0  0  0  0
    8.2340   -3.7380   25.1530 N   0  0  0  0  0  0  0  0  0  0  0  0
    6.1660   -4.3100   20.5230 C   0  0  0  0  0  0  0  0  0  0  0  0
    4.9110   -4.7300   22.6280 C   0  0  2  0  0  0  0  0  0  0  0  0
   12.8600   -0.0260   23.5150 C   0  0  0  0  0  0  0  0  0  0  0  0
   13.0550   -2.2900   24.2260 C   0  0  0  0  0  0  0  0  0  0  0  0
   12.9800   -1.6580   21.8110 C   0  0  0  0  0  0  0  0  0  0  0  0
    5.1710    0.8490   17.8420 C   0  0  0  0  0  0  0  0  0  0  0  0
    9.4890    3.4950   23.4920 C   0  0  0  0  0  0  0  0  0  0  0  0
    7.5740    4.6610   22.4910 C   0  0  0  0  0  0  0  0  0  0  0  0
    8.7920   -4.0790   26.4520 C   0  0  2  0  0  0  0  0  0  0  0  0
    8.9640   -4.4060   24.2200 C   0  0  0  0  0  0  0  0  0  0  0  0
    5.6520   -5.3160   20.0580 O   0  0  0  0  0  0  0  0  0  0  0  0
    7.1260   -3.3980   19.6790 C   0  0  0  0  0  0  0  0  0  0  0  0
    4.8450   -4.3620   23.9890 C   0  0  0  0  0  0  0  0  0  0  0  0
    5.0490   -6.2520   22.6820 C   0  0  0  0  0  0  0  0  0  0  0  0
   10.2190    2.1990   23.9680 C   0  0  0  0  0  0  0  0  0  0  0  0
    6.2080    4.7250   21.8640 C   0  0  0  0  0  0  0  0  0  0  0  0
   10.1950    4.6970   23.6640 C   0  0  0  0  0  0  0  0  0  0  0  0
    8.2900    5.8440   22.6670 C   0  0  0  0  0  0  0  0  0  0  0  0
   10.1230   -3.8930   26.4110 F   0  0  0  0  0  0  0  0  0  0  0  0
    8.5870   -5.3980   26.6800 C   0  0  0  0  0  0  0  0  0  0  0  0
    9.3350   -5.7290   24.5320 C   0  0  0  0  0  0  0  0  0  0  0  0
    3.9820   -6.7020   24.1000 S   0  0  0  0  0  0  0  0  0  0  0  0
    4.3690   -5.2700   24.8960 C   0  0  0  0  0  0  0  0  0  0  0  0
    9.4030    1.1990   24.7820 C   0  0  0  0  0  0  0  0  0  0  0  0
    9.5470    5.8480   23.2340 C   0  0  0  0  0  0  0  0  0  0  0  0
    9.1930   -6.2650   25.7690 N   0  0  0  0  0  0  0  0  0  0  0  0
    2.6060   -6.7460   23.6510 O   0  0  0  0  0  0  0  0  0  0  0  0
    4.4950   -7.7880   24.8850 O   0  0  0  0  0  0  0  0  0  0  0  0
  1  2  1  0
  2  3  1  6
  1  4  1  0
  1  5  1  0
  2  6  1  0
  4  7  1  0
  4  8  2  0
  5  9  1  0
  3 10  1  0
  3 11  2  0
  6 12  2  0
  6 13  1  0
  7 14  1  0
  8 15  1  0
 14 15  2  0
  7 16  1  0
  9 17  1  0
 15 18  1  0
 13 19  2  0
 12 20  1  0
 10 21  1  0
 16 22  1  0
 17 23  1  0
 24 17  1  1
 18 25  1  0
 18 26  1  0
 18 27  1  0
 19 28  1  0
 20 28  2  0
 21 29  2  0
 21 30  1  0
 22 31  1  0
 22 32  1  0
 23 33  2  0
 23 34  1  0
 24 35  1  0
 24 36  1  0
 29 37  1  0
 30 38  1  0
 29 39  1  0
 30 40  2  0
 31 41  1  6
 31 42  1  0
 32 43  1  0
 36 44  1  0
 35 45  2  0
 44 45  1  0
 37 46  1  0
 39 47  2  0
 40 47  1  0
 42 48  1  0
 43 48  1  0
 44 49  1  0
 44 50  1  0
M  END
