x1374-x2649
     RDKit          3D

 39 43  0  0  0  0  0  0  0  0999 V2000
   10.6120   -4.4940   26.0930 C   0  0  0  0  0  0  0  0  0  0  0  0
    9.5160   -4.4820   25.1040 C   0  0  0  0  0  0  0  0  0  0  0  0
    9.2780   -5.5870   24.2850 C   0  0  0  0  0  0  0  0  0  0  0  0
    8.7240   -3.3700   24.9980 C   0  0  0  0  0  0  0  0  0  0  0  0
    7.7010   -3.3290   24.0960 C   0  0  0  0  0  0  0  0  0  0  0  0
    8.2350   -5.5460   23.3520 C   0  0  0  0  0  0  0  0  0  0  0  0
    6.7190   -2.2310   23.8310 C   0  0  1  0  0  0  0  0  0  0  0  0
    7.4300   -4.4150   23.2430 C   0  0  0  0  0  0  0  0  0  0  0  0
    6.2100   -4.1710   22.3200 C   0  0  1  0  0  0  0  0  0  0  0  0
    7.5200   -0.9610   23.7700 C   0  0  0  0  0  0  0  0  0  0  0  0
    5.9950   -2.6990   22.5730 C   0  0  0  0  0  0  0  0  0  0  0  0
    6.3260   -4.3550   20.7230 C   0  0  0  0  0  0  0  0  0  0  0  0
    8.5670   -0.9050   22.6380 C   0  0  1  0  0  0  0  0  0  0  0  0
    5.2780   -4.9660   23.0720 C   0  0  1  0  0  0  0  0  0  0  0  0
    5.6740   -5.1960   20.0910 O   0  0  0  0  0  0  0  0  0  0  0  0
    7.2250   -3.3930   19.8910 C   0  0  0  0  0  0  0  0  0  0  0  0
    8.1810    0.1030   21.5710 C   0  0  0  0  0  0  0  0  0  0  0  0
    4.0660   -4.4120   23.7740 C   0  0  0  0  0  0  0  0  0  0  0  0
    4.9490   -6.2820   22.5730 C   0  0  0  0  0  0  0  0  0  0  0  0
   10.0090   -0.8200   23.0080 C   0  0  0  0  0  0  0  0  0  0  0  0
    6.9370   -0.2970   20.9850 N   0  0  0  0  0  0  0  0  0  0  0  0
    8.8530    1.1120   21.2860 O   0  0  0  0  0  0  0  0  0  0  0  0
    3.6620   -6.9360   23.6670 S   0  0  0  0  0  0  0  0  0  0  0  0
    3.1040   -5.3260   24.1960 C   0  0  0  0  0  0  0  0  0  0  0  0
   10.4860   -0.3190   24.2140 C   0  0  0  0  0  0  0  0  0  0  0  0
   10.9120   -1.2520   22.1010 C   0  0  0  0  0  0  0  0  0  0  0  0
    2.6710   -7.6100   22.8710 O   0  0  0  0  0  0  0  0  0  0  0  0
    4.2470   -7.6750   24.7630 O   0  0  0  0  0  0  0  0  0  0  0  0
    6.3720    0.2940   19.8930 C   0  0  0  0  0  0  0  0  0  0  0  0
   11.8530   -0.2850   24.4240 C   0  0  0  0  0  0  0  0  0  0  0  0
   12.4190   -1.2500   22.2280 C   0  0  0  0  0  0  0  0  0  0  0  0
   13.4370   -1.7930   21.0320 Cl  0  0  0  0  0  0  0  0  0  0  0  0
    5.1710    1.2080   20.1220 C   0  0  0  0  0  0  0  0  0  0  0  0
    6.8450    0.0990   18.6210 C   0  0  0  0  0  0  0  0  0  0  0  0
   12.8850   -0.7510   23.4250 C   0  0  0  0  0  0  0  0  0  0  0  0
    4.6240    1.4360   21.4970 C   0  0  0  0  0  0  0  0  0  0  0  0
    6.2320    0.7550   17.4780 N   0  0  0  0  0  0  0  0  0  0  0  0
    4.5940    1.8300   19.0300 C   0  0  0  0  0  0  0  0  0  0  0  0
    5.1410    1.5860   17.7750 C   0  0  0  0  0  0  0  0  0  0  0  0
  1  2  1  0
  2  3  2  0
  2  4  1  0
  4  5  2  0
  3  6  1  0
  5  7  1  0
  5  8  1  0
  6  8  2  0
  8  9  1  0
  7 10  1  6
  7 11  1  0
  9 11  1  0
  9 12  1  6
 13 10  1  1
  9 14  1  0
 12 15  2  0
 12 16  1  0
 13 17  1  0
 14 18  1  6
 14 19  1  0
 13 20  1  0
 17 21  1  0
 17 22  2  0
 19 23  1  0
 18 24  2  0
 23 24  1  0
 20 25  2  0
 20 26  1  0
 23 27  1  0
 23 28  1  0
 21 29  1  0
 25 30  1  0
 26 31  2  0
 31 32  1  0
 29 33  2  0
 29 34  1  0
 30 35  2  0
 31 35  1  0
 33 36  1  0
 34 37  2  0
 33 38  1  0
 37 39  1  0
 38 39  2  0
M  END
