x1375-x2705
     RDKit          3D

 49 53  0  0  0  0  0  0  0  0999 V2000
    7.6790   -1.0940   21.6260 N   0  0  0  0  0  0  0  0  0  0  0  0
    6.9430    0.1830   21.5910 C   0  0  1  0  0  0  0  0  0  0  0  0
    7.9020    1.3800   21.8060 C   0  0  0  0  0  0  0  0  0  0  0  0
    8.7900   -1.0960   22.3980 C   0  0  0  0  0  0  0  0  0  0  0  0
    6.3110    0.4390   20.2620 C   0  0  0  0  0  0  0  0  0  0  0  0
    8.7650   -0.9040   23.8760 N   0  0  0  0  0  0  0  0  0  0  0  0
   10.1110   -1.2570   21.9770 C   0  0  0  0  0  0  0  0  0  0  0  0
    7.5040    2.2180   22.8220 N   0  0  0  0  0  0  0  0  0  0  0  0
    8.9050    1.5820   21.1270 O   0  0  0  0  0  0  0  0  0  0  0  0
    5.1340    1.1910   20.2090 C   0  0  0  0  0  0  0  0  0  0  0  0
    6.8210   -0.0050   19.0580 C   0  0  0  0  0  0  0  0  0  0  0  0
   10.0710   -0.9640   24.2030 N   0  0  0  0  0  0  0  0  0  0  0  0
   10.8090   -1.1610   23.1120 C   0  0  0  0  0  0  0  0  0  0  0  0
   12.3630   -1.2620   23.1160 C   0  0  0  0  0  0  0  0  0  0  0  0
    6.3020    0.2260   17.8510 N   0  0  0  0  0  0  0  0  0  0  0  0
    4.5760    1.4410   18.9770 C   0  0  0  0  0  0  0  0  0  0  0  0
    8.2110    3.4380   22.9300 C   0  0  0  0  0  0  0  0  0  0  0  0
   12.8770    0.0610   23.7130 C   0  0  0  0  0  0  0  0  0  0  0  0
   12.8400   -2.4210   23.9560 C   0  0  0  0  0  0  0  0  0  0  0  0
   12.9630   -1.6140   21.7010 C   0  0  0  0  0  0  0  0  0  0  0  0
    5.1750    0.9580   17.8470 C   0  0  0  0  0  0  0  0  0  0  0  0
    9.5020    3.5130   23.4760 C   0  0  0  0  0  0  0  0  0  0  0  0
    7.6470    4.7490   22.4720 C   0  0  0  0  0  0  0  0  0  0  0  0
   10.1730    2.2460   23.9660 C   0  0  0  0  0  0  0  0  0  0  0  0
    6.2850    4.8700   21.8550 C   0  0  0  0  0  0  0  0  0  0  0  0
   12.2920   -2.5300   25.1530 C   0  0  0  0  0  0  0  0  0  0  0  0
   10.2240    4.6500   23.6080 C   0  0  0  0  0  0  0  0  0  0  0  0
    8.3830    5.8730   22.6120 C   0  0  0  0  0  0  0  0  0  0  0  0
    9.2420    1.5580   24.9770 C   0  0  0  0  0  0  0  0  0  0  0  0
   11.5400   -3.8020   25.4050 C   0  0  0  0  0  0  0  0  0  0  0  0
    9.6260    5.9670   23.1390 C   0  0  0  0  0  0  0  0  0  0  0  0
   10.2890   -3.8970   26.0360 O   0  0  0  0  0  0  0  0  0  0  0  0
    9.3640   -4.2410   25.1060 C   0  0  0  0  0  0  0  0  0  0  0  0
    8.6050   -3.1960   24.8230 C   0  0  0  0  0  0  0  0  0  0  0  0
    9.2120   -5.5410   24.4810 C   0  0  0  0  0  0  0  0  0  0  0  0
    7.5320   -3.3470   23.7900 C   0  0  0  0  0  0  0  0  0  0  0  0
    8.2160   -5.5680   23.5660 C   0  0  0  0  0  0  0  0  0  0  0  0
    7.3800   -4.5830   23.1770 C   0  0  0  0  0  0  0  0  0  0  0  0
    6.3410   -4.7480   22.1830 N   0  0  0  0  0  0  0  0  0  0  0  0
    6.4920   -4.4770   20.8000 C   0  0  0  0  0  0  0  0  0  0  0  0
    5.0170   -4.9260   22.8130 C   0  0  2  0  0  0  0  0  0  0  0  0
    5.6290   -4.9430   20.0380 O   0  0  0  0  0  0  0  0  0  0  0  0
    7.6420   -3.5640   20.3030 C   0  0  0  0  0  0  0  0  0  0  0  0
    4.9100   -4.4870   24.2680 C   0  0  0  0  0  0  0  0  0  0  0  0
    4.7230   -6.4260   22.6970 C   0  0  0  0  0  0  0  0  0  0  0  0
    3.8380   -6.7050   24.2000 S   0  0  0  0  0  0  0  0  0  0  0  0
    4.3060   -5.3600   25.0990 C   0  0  0  0  0  0  0  0  0  0  0  0
    2.4270   -6.7140   23.8940 O   0  0  0  0  0  0  0  0  0  0  0  0
    4.4160   -7.9250   24.6580 O   0  0  0  0  0  0  0  0  0  0  0  0
  2  1  1  6
  2  3  1  0
  1  4  1  0
  2  5  1  0
  4  6  2  0
  4  7  1  0
  3  8  1  0
  3  9  2  0
  5 10  2  0
  5 11  1  0
  6 12  1  0
  7 13  2  0
 12 13  1  0
 13 14  1  0
 11 15  2  0
 10 16  1  0
  8 17  1  0
 14 18  1  0
 14 19  1  0
 14 20  1  0
 15 21  1  0
 16 21  2  0
 17 22  2  0
 17 23  1  0
 22 24  1  0
 23 25  1  0
 19 26  1  0
 22 27  1  0
 23 28  2  0
 24 29  1  0
 26 30  1  0
 27 31  2  0
 28 31  1  0
 30 32  1  0
 32 33  1  0
 33 34  2  0
 33 35  1  0
 34 36  1  0
 35 37  2  0
 36 38  2  0
 37 38  1  0
 38 39  1  0
 39 40  1  0
 41 39  1  1
 40 42  2  0
 40 43  1  0
 41 44  1  0
 41 45  1  0
 45 46  1  0
 44 47  2  0
 46 47  1  0
 46 48  1  0
 46 49  1  0
M  END
