x1375-x2649
     RDKit          3D

 39 42  0  0  0  0  0  0  0  0999 V2000
    5.6720   -4.5130   19.9410 O   0  0  0  0  0  0  0  0  0  0  0  0
    6.4770   -4.1150   20.7980 C   0  0  0  0  0  0  0  0  0  0  0  0
    8.0490   -3.9240   20.6450 C   0  0  0  0  0  0  0  0  0  0  0  0
    5.9800   -3.7640   22.1120 N   0  0  0  0  0  0  0  0  0  0  0  0
    6.9460   -2.9800   22.9250 C   0  0  1  0  0  0  0  0  0  0  0  0
    4.8800   -4.5150   22.8350 C   0  0  2  0  0  0  0  0  0  0  0  0
    6.5690   -1.7920   23.8420 C   0  0  0  0  0  0  0  0  0  0  0  0
    7.8460   -3.9390   23.6390 C   0  0  0  0  0  0  0  0  0  0  0  0
    4.8470   -4.3490   24.2160 C   0  0  0  0  0  0  0  0  0  0  0  0
    4.8780   -5.9280   22.6910 C   0  0  0  0  0  0  0  0  0  0  0  0
    7.6290   -0.8610   23.9180 C   0  0  0  0  0  0  0  0  0  0  0  0
    8.7200   -3.5930   24.8140 C   0  0  0  0  0  0  0  0  0  0  0  0
    7.8600   -5.2270   23.1640 C   0  0  0  0  0  0  0  0  0  0  0  0
    3.9250   -6.6190   23.9500 S   0  0  0  0  0  0  0  0  0  0  0  0
    4.3830   -5.3390   24.9800 C   0  0  0  0  0  0  0  0  0  0  0  0
    2.5040   -6.5210   23.6830 O   0  0  0  0  0  0  0  0  0  0  0  0
    4.5230   -7.8630   24.3440 O   0  0  0  0  0  0  0  0  0  0  0  0
    8.6120   -1.0080   22.7440 C   0  0  1  0  0  0  0  0  0  0  0  0
    9.5170   -4.5430   25.4140 C   0  0  0  0  0  0  0  0  0  0  0  0
    8.6850   -6.0800   23.8310 C   0  0  0  0  0  0  0  0  0  0  0  0
   10.3060   -4.2610   26.4590 F   0  0  0  0  0  0  0  0  0  0  0  0
    8.1240   -0.1760   21.5840 C   0  0  0  0  0  0  0  0  0  0  0  0
    9.4830   -5.7710   24.9190 C   0  0  0  0  0  0  0  0  0  0  0  0
   10.0500   -0.6830   22.9410 C   0  0  0  0  0  0  0  0  0  0  0  0
    6.9680   -0.6540   20.8830 N   0  0  0  0  0  0  0  0  0  0  0  0
    8.6840    0.8780   21.2630 O   0  0  0  0  0  0  0  0  0  0  0  0
   10.5930    0.2100   23.8570 C   0  0  0  0  0  0  0  0  0  0  0  0
   11.0460   -1.3530   22.0650 C   0  0  0  0  0  0  0  0  0  0  0  0
    6.3220    0.1210   19.8810 C   0  0  0  0  0  0  0  0  0  0  0  0
   11.9970    0.5130   23.9830 C   0  0  0  0  0  0  0  0  0  0  0  0
   12.3120   -1.0550   22.2020 C   0  0  0  0  0  0  0  0  0  0  0  0
   13.3600   -1.8330   21.1540 Cl  0  0  0  0  0  0  0  0  0  0  0  0
    5.2800    1.0250   20.1450 C   0  0  0  0  0  0  0  0  0  0  0  0
    6.6910    0.0260   18.6030 C   0  0  0  0  0  0  0  0  0  0  0  0
   12.8550   -0.0960   23.1780 C   0  0  0  0  0  0  0  0  0  0  0  0
    4.8070    1.1850   21.6250 C   0  0  0  0  0  0  0  0  0  0  0  0
    6.2030    0.6740   17.5470 N   0  0  0  0  0  0  0  0  0  0  0  0
    4.6720    1.7700   19.1350 C   0  0  0  0  0  0  0  0  0  0  0  0
    5.1410    1.5870   17.8490 C   0  0  0  0  0  0  0  0  0  0  0  0
  1  2  2  0
  2  3  1  0
  2  4  1  0
  4  5  1  0
  6  4  1  1
  5  7  1  1
  5  8  1  0
  6  9  1  0
  6 10  1  0
  7 11  1  0
  8 12  2  0
  8 13  1  0
 10 14  1  0
  9 15  2  0
 14 15  1  0
 14 16  1  0
 14 17  1  0
 18 11  1  1
 12 19  1  0
 13 20  2  0
 19 21  1  0
 18 22  1  0
 19 23  2  0
 20 23  1  0
 18 24  1  0
 22 25  1  0
 22 26  2  0
 24 27  2  0
 24 28  1  0
 25 29  1  0
 27 30  1  0
 28 31  2  0
 31 32  1  0
 29 33  2  0
 29 34  1  0
 30 35  2  0
 31 35  1  0
 33 36  1  0
 34 37  2  0
 33 38  1  0
 37 39  1  0
 38 39  2  0
M  END
