x1374-x0397
     RDKit          3D

 26 28  0  0  0  0  0  0  0  0999 V2000
   11.3220   -3.5980   24.8950 C   0  0  0  0  0  0  0  0  0  0  0  0
   10.0350   -3.8340   24.2200 C   0  0  0  0  0  0  0  0  0  0  0  0
    9.4860   -5.2780   24.0460 C   0  0  0  0  0  0  0  0  0  0  0  0
    9.3930   -2.7040   23.7650 C   0  0  0  0  0  0  0  0  0  0  0  0
    8.0990   -2.8790   23.0400 C   0  0  0  0  0  0  0  0  0  0  0  0
    8.1660   -5.4940   23.2970 C   0  0  0  0  0  0  0  0  0  0  0  0
    7.4970   -4.2160   22.7890 C   0  0  0  0  0  0  0  0  0  0  0  0
    6.2670   -4.3130   22.0750 N   0  0  0  0  0  0  0  0  0  0  0  0
    6.2470   -4.1730   20.6530 C   0  0  0  0  0  0  0  0  0  0  0  0
    5.3610   -5.0360   22.9420 C   0  0  1  0  0  0  0  0  0  0  0  0
    5.3960   -4.8220   20.0240 O   0  0  0  0  0  0  0  0  0  0  0  0
    7.2310   -3.2500   19.8150 C   0  0  2  0  0  0  0  0  0  0  0  0
    4.3060   -4.3170   23.4650 C   0  0  0  0  0  0  0  0  0  0  0  0
    4.9910   -6.3540   22.5840 C   0  0  0  0  0  0  0  0  0  0  0  0
    7.8510   -2.0240   20.5260 C   0  0  0  0  0  0  0  0  0  0  0  0
    6.3090   -2.5600   18.7300 C   0  0  0  0  0  0  0  0  0  0  0  0
    3.7460   -6.8880   23.6740 S   0  0  0  0  0  0  0  0  0  0  0  0
    3.2370   -5.1850   24.0030 C   0  0  0  0  0  0  0  0  0  0  0  0
    2.7170   -7.5430   22.9090 O   0  0  0  0  0  0  0  0  0  0  0  0
    4.2900   -7.5810   24.8260 O   0  0  0  0  0  0  0  0  0  0  0  0
    5.9890   -1.0620   18.7140 C   0  0  0  0  0  0  0  0  0  0  0  0
    4.9830   -0.3900   19.5720 C   0  0  0  0  0  0  0  0  0  0  0  0
    6.5460    0.0050   17.8630 N   0  0  0  0  0  0  0  0  0  0  0  0
    5.9070    1.2170   18.1900 O   0  0  0  0  0  0  0  0  0  0  0  0
    4.9710    1.0610   19.1820 C   0  0  0  0  0  0  0  0  0  0  0  0
    4.1890    2.2980   19.6250 C   0  0  0  0  0  0  0  0  0  0  0  0
  1  2  1  0
  2  3  2  0
  2  4  1  0
  4  5  2  0
  3  6  1  0
  5  7  1  0
  6  7  2  0
  7  8  1  0
  8  9  1  0
 10  8  1  6
  9 11  2  0
 12  9  1  0
 10 13  1  0
 10 14  1  0
 12 15  1  1
 12 16  1  0
 14 17  1  0
 13 18  2  0
 17 18  1  0
 17 19  1  0
 17 20  1  0
 16 21  1  0
 21 22  1  0
 21 23  2  0
 23 24  1  0
 22 25  2  0
 24 25  1  0
 25 26  1  0
M  END
