x1375-x2581
     RDKit          3D

 42 47  0  0  0  0  0  0  0  0999 V2000
    5.8870   -4.7210   20.0780 O   0  0  0  0  0  0  0  0  0  0  0  0
    6.8000   -4.3740   20.9150 C   0  0  0  0  0  0  0  0  0  0  0  0
    8.2020   -3.8230   20.5400 C   0  0  0  0  0  0  0  0  0  0  0  0
    6.6620   -4.3930   22.3870 N   0  0  0  0  0  0  0  0  0  0  0  0
    7.8740   -4.4720   23.2770 C   0  0  0  0  0  0  0  0  0  0  0  0
    5.5000   -4.9960   23.1230 C   0  0  1  0  0  0  0  0  0  0  0  0
    9.0270   -3.5860   23.3810 C   0  0  0  0  0  0  0  0  0  0  0  0
    7.9720   -5.5470   24.2100 C   0  0  0  0  0  0  0  0  0  0  0  0
    4.4830   -4.1820   23.5050 C   0  0  0  0  0  0  0  0  0  0  0  0
    5.0670   -6.3020   22.4960 C   0  0  0  0  0  0  0  0  0  0  0  0
    9.5170   -2.3730   22.7730 C   0  0  1  0  0  0  0  0  0  0  0  0
   10.1360   -3.8160   24.3330 C   0  0  0  0  0  0  0  0  0  0  0  0
    8.9570   -5.8300   25.1510 C   0  0  0  0  0  0  0  0  0  0  0  0
    3.8840   -6.7450   23.7030 S   0  0  0  0  0  0  0  0  0  0  0  0
    3.3670   -5.1050   23.9620 C   0  0  0  0  0  0  0  0  0  0  0  0
    2.8300   -7.4720   23.0500 O   0  0  0  0  0  0  0  0  0  0  0  0
    4.4810   -7.3610   24.8690 O   0  0  0  0  0  0  0  0  0  0  0  0
    9.2890   -1.3810   23.4660 O   0  0  0  0  0  0  0  0  0  0  0  0
   11.2830   -2.8980   24.3600 C   0  0  1  0  0  0  0  0  0  0  0  0
   11.1070   -2.3430   22.9320 C   0  0  0  0  0  0  0  0  0  0  0  0
   10.1100   -4.9410   25.2380 C   0  0  0  0  0  0  0  0  0  0  0  0
   11.1840   -2.2060   25.4580 F   0  0  0  0  0  0  0  0  0  0  0  0
    9.2390   -0.2160   22.7880 C   0  0  0  0  0  0  0  0  0  0  0  0
    9.9570    0.9820   22.9190 C   0  0  0  0  0  0  0  0  0  0  0  0
    8.3000   -0.2180   21.7700 C   0  0  0  0  0  0  0  0  0  0  0  0
    9.6740    2.0240   22.0520 C   0  0  0  0  0  0  0  0  0  0  0  0
    8.0820    0.8410   20.9680 C   0  0  0  0  0  0  0  0  0  0  0  0
   10.3590    3.2990   22.0860 N   0  0  0  0  0  0  0  0  0  0  0  0
    8.6540    1.8460   21.0460 N   0  0  0  0  0  0  0  0  0  0  0  0
   11.2280    3.7600   23.1880 C   0  0  0  0  0  0  0  0  0  0  0  0
   11.2920    3.1280   24.2000 O   0  0  0  0  0  0  0  0  0  0  0  0
   11.9730    5.0690   22.9080 C   0  0  0  0  0  0  0  0  0  0  0  0
   11.1800    6.2380   23.4400 C   0  0  0  0  0  0  0  0  0  0  0  0
    9.9320    6.6250   22.8990 C   0  0  0  0  0  0  0  0  0  0  0  0
   11.6000    6.9990   24.4740 C   0  0  0  0  0  0  0  0  0  0  0  0
    9.0860    7.7690   23.3740 C   0  0  0  0  0  0  0  0  0  0  0  0
   10.8370    8.1760   25.0340 C   0  0  0  0  0  0  0  0  0  0  0  0
    9.6200    8.5190   24.4740 C   0  0  0  0  0  0  0  0  0  0  0  0
   11.3810    8.8970   26.1060 C   0  0  0  0  0  0  0  0  0  0  0  0
    9.0110    9.6080   25.0470 C   0  0  0  0  0  0  0  0  0  0  0  0
   10.7040    9.9260   26.5740 C   0  0  0  0  0  0  0  0  0  0  0  0
    9.5400   10.3000   26.0750 C   0  0  0  0  0  0  0  0  0  0  0  0
  1  2  2  0
  2  3  1  0
  2  4  1  0
  4  5  1  0
  6  4  1  6
  5  7  1  0
  5  8  2  0
  6  9  1  0
  6 10  1  0
  7 11  1  0
  7 12  2  0
  8 13  1  0
 10 14  1  0
  9 15  2  0
 14 15  1  0
 14 16  1  0
 14 17  1  0
 11 18  1  1
 12 19  1  0
 11 20  1  0
 19 20  1  0
 12 21  1  0
 13 21  2  0
 19 22  1  1
 18 23  1  0
 23 24  2  0
 23 25  1  0
 24 26  1  0
 25 27  2  0
 26 28  1  0
 26 29  2  0
 27 29  1  0
 28 30  1  0
 30 31  2  0
 30 32  1  0
 32 33  1  0
 33 34  2  0
 33 35  1  0
 34 36  1  0
 35 37  2  0
 36 38  2  0
 37 38  1  0
 37 39  1  0
 38 40  1  0
 39 41  2  0
 40 42  2  0
 41 42  1  0
M  END
