x1375-x2694
     RDKit          3D

 49 53  0  0  0  0  0  0  0  0999 V2000
    7.6950   -0.9330   21.6010 N   0  0  0  0  0  0  0  0  0  0  0  0
    7.0330    0.3910   21.6360 C   0  0  1  0  0  0  0  0  0  0  0  0
    8.0690    1.5420   21.7580 C   0  0  0  0  0  0  0  0  0  0  0  0
    8.7640   -0.9200   22.5180 C   0  0  0  0  0  0  0  0  0  0  0  0
    6.3570    0.6770   20.3170 C   0  0  0  0  0  0  0  0  0  0  0  0
    8.7270   -0.7940   23.8560 N   0  0  0  0  0  0  0  0  0  0  0  0
   10.0710   -1.0380   22.1290 C   0  0  0  0  0  0  0  0  0  0  0  0
    7.8250    2.4730   22.7430 N   0  0  0  0  0  0  0  0  0  0  0  0
    9.0340    1.6360   21.0310 O   0  0  0  0  0  0  0  0  0  0  0  0
    5.2440    1.5030   20.2250 C   0  0  0  0  0  0  0  0  0  0  0  0
    6.8490    0.1100   19.1220 C   0  0  0  0  0  0  0  0  0  0  0  0
   10.0720   -0.8370   24.2980 O   0  0  0  0  0  0  0  0  0  0  0  0
   10.8940   -0.9840   23.2130 C   0  0  0  0  0  0  0  0  0  0  0  0
   12.3080   -1.0510   23.2710 C   0  0  0  0  0  0  0  0  0  0  0  0
    6.3170    0.3240   17.8980 N   0  0  0  0  0  0  0  0  0  0  0  0
    4.7070    1.7180   18.9930 C   0  0  0  0  0  0  0  0  0  0  0  0
    8.6110    3.6300   23.0040 C   0  0  0  0  0  0  0  0  0  0  0  0
   12.7940    0.3930   23.3120 C   0  0  0  0  0  0  0  0  0  0  0  0
   12.9400   -1.7330   22.0510 C   0  0  0  0  0  0  0  0  0  0  0  0
   12.7160   -1.7370   24.5620 C   0  0  0  0  0  0  0  0  0  0  0  0
    5.2480    1.1360   17.8700 C   0  0  0  0  0  0  0  0  0  0  0  0
    9.8410    3.4510   23.6250 C   0  0  0  0  0  0  0  0  0  0  0  0
    8.2190    4.8610   22.6730 C   0  0  0  0  0  0  0  0  0  0  0  0
   10.2220    2.2050   23.9500 C   0  0  0  0  0  0  0  0  0  0  0  0
   12.3390   -3.2140   24.6050 C   0  0  0  0  0  0  0  0  0  0  0  0
   10.6560    4.4910   23.9080 C   0  0  0  0  0  0  0  0  0  0  0  0
    8.9260    5.9760   22.9010 C   0  0  0  0  0  0  0  0  0  0  0  0
   11.6890   -3.6200   25.7060 C   0  0  0  0  0  0  0  0  0  0  0  0
   10.2730    5.7620   23.5890 C   0  0  0  0  0  0  0  0  0  0  0  0
   11.1570    6.7480   23.9260 O   0  0  0  0  0  0  0  0  0  0  0  0
   10.7640   -4.7080   25.5960 O   0  0  0  0  0  0  0  0  0  0  0  0
   11.8720    6.5850   25.1640 C   0  0  0  0  0  0  0  0  0  0  0  0
    9.6610   -4.5870   24.8190 C   0  0  0  0  0  0  0  0  0  0  0  0
    8.9170   -3.3150   24.6090 C   0  0  0  0  0  0  0  0  0  0  0  0
    9.3050   -5.7330   24.2460 C   0  0  0  0  0  0  0  0  0  0  0  0
    7.8720   -3.4370   23.7700 C   0  0  0  0  0  0  0  0  0  0  0  0
    8.1800   -5.7970   23.3640 C   0  0  0  0  0  0  0  0  0  0  0  0
    7.5150   -4.6460   23.1560 C   0  0  0  0  0  0  0  0  0  0  0  0
    6.4130   -4.6720   22.2650 N   0  0  0  0  0  0  0  0  0  0  0  0
    6.6580   -4.4410   20.8860 C   0  0  0  0  0  0  0  0  0  0  0  0
    5.0840   -5.0810   22.7750 C   0  0  2  0  0  0  0  0  0  0  0  0
    5.7700   -4.6410   20.0120 O   0  0  0  0  0  0  0  0  0  0  0  0
    8.1040   -3.9030   20.6280 C   0  0  0  0  0  0  0  0  0  0  0  0
    4.7680   -4.4820   23.9550 C   0  0  0  0  0  0  0  0  0  0  0  0
    4.9360   -6.4250   22.7300 C   0  0  0  0  0  0  0  0  0  0  0  0
    3.8570   -6.7140   24.1030 S   0  0  0  0  0  0  0  0  0  0  0  0
    4.0780   -5.2290   24.8360 C   0  0  0  0  0  0  0  0  0  0  0  0
    2.4900   -6.7900   23.6440 O   0  0  0  0  0  0  0  0  0  0  0  0
    4.4030   -7.7350   24.9580 O   0  0  0  0  0  0  0  0  0  0  0  0
  2  1  1  6
  2  3  1  0
  1  4  1  0
  2  5  1  0
  4  6  2  0
  4  7  1  0
  3  8  1  0
  3  9  2  0
  5 10  2  0
  5 11  1  0
  6 12  1  0
  7 13  2  0
 12 13  1  0
 13 14  1  0
 11 15  2  0
 10 16  1  0
  8 17  1  0
 14 18  1  0
 14 19  1  0
 14 20  1  0
 15 21  1  0
 16 21  2  0
 17 22  2  0
 17 23  1  0
 22 24  1  0
 20 25  1  0
 22 26  1  0
 23 27  2  0
 25 28  1  0
 26 29  2  0
 27 29  1  0
 29 30  1  0
 28 31  1  0
 30 32  1  0
 31 33  1  0
 33 34  2  0
 33 35  1  0
 34 36  1  0
 35 37  2  0
 36 38  2  0
 37 38  1  0
 38 39  1  0
 39 40  1  0
 41 39  1  1
 40 42  2  0
 40 43  1  0
 41 44  1  0
 41 45  1  0
 45 46  1  0
 44 47  2  0
 46 47  1  0
 46 48  1  0
 46 49  1  0
M  END
