x1374-x2705
     RDKit          3D

 49 53  0  0  0  0  0  0  0  0999 V2000
    7.5110   -1.0470   21.7230 N   0  0  0  0  0  0  0  0  0  0  0  0
    6.9480    0.3120   21.6150 C   0  0  1  0  0  0  0  0  0  0  0  0
    7.9530    1.4080   21.7910 C   0  0  0  0  0  0  0  0  0  0  0  0
    8.6360   -1.0040   22.5690 C   0  0  0  0  0  0  0  0  0  0  0  0
    6.3110    0.5660   20.2980 C   0  0  0  0  0  0  0  0  0  0  0  0
    8.7550   -0.7140   23.8810 N   0  0  0  0  0  0  0  0  0  0  0  0
    9.9440   -1.3000   22.0150 C   0  0  0  0  0  0  0  0  0  0  0  0
    7.5710    2.3540   22.8520 N   0  0  0  0  0  0  0  0  0  0  0  0
    8.9680    1.5410   21.1140 O   0  0  0  0  0  0  0  0  0  0  0  0
    5.0590    1.4140   20.2370 C   0  0  0  0  0  0  0  0  0  0  0  0
    6.8320    0.0630   19.0570 C   0  0  0  0  0  0  0  0  0  0  0  0
   10.1150   -0.7970   24.2050 N   0  0  0  0  0  0  0  0  0  0  0  0
   10.9230   -1.1530   23.1130 C   0  0  0  0  0  0  0  0  0  0  0  0
   12.3910   -1.3310   23.0680 C   0  0  0  0  0  0  0  0  0  0  0  0
    6.2300    0.3420   17.7770 N   0  0  0  0  0  0  0  0  0  0  0  0
    4.5290    1.6300   18.8670 C   0  0  0  0  0  0  0  0  0  0  0  0
    8.2330    3.5860   22.9440 C   0  0  0  0  0  0  0  0  0  0  0  0
   13.0080   -0.0760   23.6670 C   0  0  0  0  0  0  0  0  0  0  0  0
   12.7320   -2.5400   23.8430 C   0  0  0  0  0  0  0  0  0  0  0  0
   12.9080   -1.5880   21.6600 C   0  0  0  0  0  0  0  0  0  0  0  0
    5.1360    1.0990   17.7650 C   0  0  0  0  0  0  0  0  0  0  0  0
    9.5240    3.5670   23.5110 C   0  0  0  0  0  0  0  0  0  0  0  0
    7.6100    4.7610   22.4750 C   0  0  0  0  0  0  0  0  0  0  0  0
   10.0960    2.2500   23.9790 C   0  0  0  0  0  0  0  0  0  0  0  0
    6.2300    4.7410   21.8680 C   0  0  0  0  0  0  0  0  0  0  0  0
   12.3640   -2.4410   25.1470 C   0  0  0  0  0  0  0  0  0  0  0  0
   10.2430    4.7110   23.6400 C   0  0  0  0  0  0  0  0  0  0  0  0
    8.2770    5.9750   22.5690 C   0  0  0  0  0  0  0  0  0  0  0  0
    9.1540    1.6230   25.0610 C   0  0  0  0  0  0  0  0  0  0  0  0
   12.3170   -3.6890   25.7410 C   0  0  0  0  0  0  0  0  0  0  0  0
    9.6770    5.9020   23.1960 C   0  0  0  0  0  0  0  0  0  0  0  0
   10.9310   -4.5070   25.8820 C   0  0  0  0  0  0  0  0  0  0  0  0
    9.7500   -4.4350   24.9140 C   0  0  0  0  0  0  0  0  0  0  0  0
    9.0520   -3.2750   24.6470 C   0  0  0  0  0  0  0  0  0  0  0  0
    9.3360   -5.6170   24.2710 C   0  0  0  0  0  0  0  0  0  0  0  0
    7.9770   -3.2950   23.7540 C   0  0  0  0  0  0  0  0  0  0  0  0
    8.2650   -5.6740   23.3680 C   0  0  0  0  0  0  0  0  0  0  0  0
    7.5190   -4.5470   23.0390 C   0  0  0  0  0  0  0  0  0  0  0  0
    6.4220   -4.5980   22.1340 N   0  0  0  0  0  0  0  0  0  0  0  0
    6.4580   -4.3850   20.7250 C   0  0  0  0  0  0  0  0  0  0  0  0
    5.1610   -5.0210   22.6960 C   0  0  2  0  0  0  0  0  0  0  0  0
    5.5930   -4.9250   20.0270 O   0  0  0  0  0  0  0  0  0  0  0  0
    7.4710   -3.4170   20.0660 C   0  0  0  0  0  0  0  0  0  0  0  0
    4.7110   -4.4720   23.8950 C   0  0  0  0  0  0  0  0  0  0  0  0
    5.0240   -6.5420   22.6670 C   0  0  0  0  0  0  0  0  0  0  0  0
    3.8100   -6.7630   23.9350 S   0  0  0  0  0  0  0  0  0  0  0  0
    3.9690   -5.2690   24.6900 C   0  0  0  0  0  0  0  0  0  0  0  0
    2.5300   -6.8870   23.2680 O   0  0  0  0  0  0  0  0  0  0  0  0
    4.2740   -7.8300   24.7770 O   0  0  0  0  0  0  0  0  0  0  0  0
  2  1  1  6
  2  3  1  0
  1  4  1  0
  2  5  1  0
  4  6  2  0
  4  7  1  0
  3  8  1  0
  3  9  2  0
  5 10  2  0
  5 11  1  0
  6 12  1  0
  7 13  2  0
 12 13  1  0
 13 14  1  0
 11 15  2  0
 10 16  1  0
  8 17  1  0
 14 18  1  0
 14 19  1  0
 14 20  1  0
 15 21  1  0
 16 21  2  0
 17 22  2  0
 17 23  1  0
 22 24  1  0
 23 25  1  0
 19 26  1  0
 22 27  1  0
 23 28  2  0
 24 29  1  0
 26 30  1  0
 27 31  2  0
 28 31  1  0
 30 32  1  0
 32 33  1  0
 33 34  2  0
 33 35  1  0
 34 36  1  0
 35 37  2  0
 36 38  2  0
 37 38  1  0
 38 39  1  0
 39 40  1  0
 41 39  1  1
 40 42  2  0
 40 43  1  0
 41 44  1  0
 41 45  1  0
 45 46  1  0
 44 47  2  0
 46 47  1  0
 46 48  1  0
 46 49  1  0
M  END
