x1375-x2694-x2052
     RDKit          3D

 66 72  0  0  0  0  0  0  0  0999 V2000
    7.6350   -0.8190   21.7770 N   0  0  0  0  0  0  0  0  0  0  0  0
    7.0930    0.4320   21.5830 C   0  0  1  0  0  0  0  0  0  0  0  0
    8.0920    1.5250   21.7620 C   0  0  0  0  0  0  0  0  0  0  0  0
    8.7560   -0.9110   22.5280 C   0  0  0  0  0  0  0  0  0  0  0  0
    6.8250   -1.8980   22.2160 C   0  0  2  0  0  0  0  0  0  0  0  0
    6.3940    0.6860   20.2910 C   0  0  0  0  0  0  0  0  0  0  0  0
    8.8620   -0.8840   23.8700 N   0  0  0  0  0  0  0  0  0  0  0  0
   10.0990   -1.0630   22.0400 C   0  0  0  0  0  0  0  0  0  0  0  0
    6.8090   -3.1840   21.7160 C   0  0  0  0  0  0  0  0  0  0  0  0
    5.5730   -1.5280   22.5140 C   0  0  0  0  0  0  0  0  0  0  0  0
    7.7350    2.5290   22.6320 N   0  0  0  0  0  0  0  0  0  0  0  0
    9.1390    1.5380   21.1460 O   0  0  0  0  0  0  0  0  0  0  0  0
    6.5350   -3.5140   20.1730 C   0  0  0  0  0  0  0  0  0  0  0  0
    8.0370   -4.0400   21.6520 C   0  0  0  0  0  0  0  0  0  0  0  0
    5.2950    1.4510   20.3160 C   0  0  0  0  0  0  0  0  0  0  0  0
    6.8890    0.1350   18.9370 C   0  0  0  0  0  0  0  0  0  0  0  0
   10.2190   -1.0310   24.2380 O   0  0  0  0  0  0  0  0  0  0  0  0
   11.0140   -1.1440   23.1320 C   0  0  0  0  0  0  0  0  0  0  0  0
    5.0980   -2.2950   23.7650 C   0  0  2  0  0  0  0  0  0  0  0  0
    6.4610   -4.0730   22.9790 C   0  0  2  0  0  0  0  0  0  0  0  0
   12.3800   -1.2800   23.2750 C   0  0  0  0  0  0  0  0  0  0  0  0
    4.9780   -1.3620   25.0050 C   0  0  0  0  0  0  0  0  0  0  0  0
    5.5430   -4.1860   19.8260 O   0  0  0  0  0  0  0  0  0  0  0  0
    7.5730   -3.0820   19.0630 C   0  0  0  0  0  0  0  0  0  0  0  0
    7.8400   -5.2260   21.3430 O   0  0  0  0  0  0  0  0  0  0  0  0
    9.2790   -3.5350   21.8900 C   0  0  0  0  0  0  0  0  0  0  0  0
    6.3310    0.3590   17.7800 N   0  0  0  0  0  0  0  0  0  0  0  0
    4.5490    1.7870   19.0540 C   0  0  0  0  0  0  0  0  0  0  0  0
    8.5050    3.6600   22.9250 C   0  0  0  0  0  0  0  0  0  0  0  0
    5.6710   -3.5330   24.0870 C   0  0  2  0  0  0  0  0  0  0  0  0
    7.6860   -4.3720   23.7900 C   0  0  0  0  0  0  0  0  0  0  0  0
   13.0960   -0.0540   23.7160 C   0  0  0  0  0  0  0  0  0  0  0  0
   12.9990   -1.7520   21.9590 C   0  0  0  0  0  0  0  0  0  0  0  0
   12.6910   -2.1540   24.2420 C   0  0  0  0  0  0  0  0  0  0  0  0
    3.6920   -0.8600   25.2970 O   0  0  0  0  0  0  0  0  0  0  0  0
    6.0430   -1.0600   25.7870 N   0  0  0  0  0  0  0  0  0  0  0  0
    5.1400    1.2010   17.7980 C   0  0  0  0  0  0  0  0  0  0  0  0
    9.8240    3.4920   23.6310 C   0  0  0  0  0  0  0  0  0  0  0  0
    8.1550    4.9850   22.6110 C   0  0  0  0  0  0  0  0  0  0  0  0
    8.2150   -3.3500   24.5780 C   0  0  0  0  0  0  0  0  0  0  0  0
    8.2960   -5.5970   23.7890 C   0  0  0  0  0  0  0  0  0  0  0  0
    4.7320   -4.6650   24.1100 C   0  0  0  0  0  0  0  0  0  0  0  0
   10.3380    2.1040   24.0360 C   0  0  0  0  0  0  0  0  0  0  0  0
   10.5800    4.5610   23.9240 C   0  0  0  0  0  0  0  0  0  0  0  0
    8.9150    6.1110   22.9050 C   0  0  0  0  0  0  0  0  0  0  0  0
    5.9210   -0.2940   26.9860 C   0  0  0  0  0  0  0  0  0  0  0  0
    9.3280   -3.5390   25.3290 C   0  0  0  0  0  0  0  0  0  0  0  0
    9.4240   -5.7920   24.5630 C   0  0  0  0  0  0  0  0  0  0  0  0
    3.9420   -4.9000   22.8580 C   0  0  0  0  0  0  0  0  0  0  0  0
    4.5710   -5.5350   25.1100 C   0  0  0  0  0  0  0  0  0  0  0  0
   10.2850    5.8880   23.6490 C   0  0  0  0  0  0  0  0  0  0  0  0
    6.3650    1.0290   27.1580 C   0  0  0  0  0  0  0  0  0  0  0  0
    5.3090   -0.8960   28.0770 C   0  0  0  0  0  0  0  0  0  0  0  0
    9.9280   -4.7500   25.3260 C   0  0  0  0  0  0  0  0  0  0  0  0
    3.6460   -6.3740   22.8230 C   0  0  0  0  0  0  0  0  0  0  0  0
    3.5370   -6.7040   24.5330 S   0  0  0  0  0  0  0  0  0  0  0  0
   11.1900    6.8300   24.0430 O   0  0  0  0  0  0  0  0  0  0  0  0
    2.0170   -6.6220   24.9810 O   0  0  0  0  0  0  0  0  0  0  0  0
    4.1740   -8.1380   24.6430 O   0  0  0  0  0  0  0  0  0  0  0  0
   11.0030   -4.8840   26.0810 F   0  0  0  0  0  0  0  0  0  0  0  0
    6.2790    1.8260   28.2750 N   0  0  0  0  0  0  0  0  0  0  0  0
    5.1500   -0.1050   29.4030 C   0  0  0  0  0  0  0  0  0  0  0  0
   11.8640    6.6070   25.2740 C   0  0  0  0  0  0  0  0  0  0  0  0
    5.7030    1.3220   29.3740 C   0  0  0  0  0  0  0  0  0  0  0  0
    5.5780    2.0640   30.5330 O   0  0  0  0  0  0  0  0  0  0  0  0
    6.3320    3.2730   30.5330 C   0  0  0  0  0  0  0  0  0  0  0  0
  1  2  1  0
  2  3  1  6
  1  4  1  0
  5  1  1  6
  2  6  1  0
  4  7  2  0
  4  8  1  0
  5  9  1  0
  5 10  1  0
  3 11  1  0
  3 12  2  0
  9 13  1  0
  9 14  1  0
  6 15  2  0
  6 16  1  0
  7 17  1  0
  8 18  2  0
 17 18  1  0
 10 19  1  0
  9 20  1  0
 18 21  1  0
 19 22  1  1
 13 23  2  0
 13 24  1  0
 14 25  2  0
 14 26  1  0
 16 27  2  0
 15 28  1  0
 11 29  1  0
 19 30  1  0
 20 30  1  0
 20 31  1  1
 21 32  1  0
 21 33  1  0
 21 34  1  0
 22 35  2  0
 22 36  1  0
 27 37  1  0
 28 37  2  0
 29 38  2  0
 29 39  1  0
 31 40  2  0
 31 41  1  0
 30 42  1  6
 38 43  1  0
 38 44  1  0
 39 45  2  0
 36 46  1  0
 40 47  1  0
 41 48  2  0
 42 49  1  0
 42 50  2  0
 44 51  2  0
 45 51  1  0
 46 52  2  0
 46 53  1  0
 47 54  2  0
 48 54  1  0
 49 55  1  0
 50 56  1  0
 55 56  1  0
 51 57  1  0
 56 58  1  0
 56 59  1  0
 54 60  1  0
 52 61  1  0
 53 62  2  0
 57 63  1  0
 61 64  2  0
 62 64  1  0
 64 65  1  0
 65 66  1  0
M  END
