x1375-x2052-x2705
     RDKit          3D

 65 71  0  0  0  0  0  0  0  0999 V2000
    7.1240    2.3990   23.0680 N   0  0  0  0  0  0  0  0  0  0  0  0
    7.3450    1.3080   22.2780 C   0  0  0  0  0  0  0  0  0  0  0  0
    8.4050    1.0350   21.6960 O   0  0  0  0  0  0  0  0  0  0  0  0
    7.9220    3.5540   23.0620 C   0  0  0  0  0  0  0  0  0  0  0  0
    6.2050    0.2880   21.9560 C   0  0  1  0  0  0  0  0  0  0  0  0
    9.1520    3.4730   23.6890 C   0  0  0  0  0  0  0  0  0  0  0  0
    7.4620    4.8280   22.4110 C   0  0  0  0  0  0  0  0  0  0  0  0
    9.5330    2.1610   24.3230 C   0  0  0  0  0  0  0  0  0  0  0  0
    6.3120    5.0580   21.7740 C   0  0  0  0  0  0  0  0  0  0  0  0
    5.8690    0.5580   20.5080 C   0  0  0  0  0  0  0  0  0  0  0  0
   10.0120    4.5770   23.7370 C   0  0  0  0  0  0  0  0  0  0  0  0
    8.3600    5.8960   22.4950 C   0  0  0  0  0  0  0  0  0  0  0  0
    6.2250   -1.2470   22.3650 C   0  0  1  0  0  0  0  0  0  0  0  0
   10.8610    1.6600   23.9200 C   0  0  0  0  0  0  0  0  0  0  0  0
    4.5740    1.2390   20.1440 C   0  0  0  0  0  0  0  0  0  0  0  0
    6.7620    0.2110   19.3260 C   0  0  0  0  0  0  0  0  0  0  0  0
    9.5830    5.7510   23.1390 C   0  0  0  0  0  0  0  0  0  0  0  0
    7.3410   -1.8640   21.7200 C   0  0  1  0  0  0  0  0  0  0  0  0
    5.9210   -1.8130   23.7430 C   0  0  1  0  0  0  0  0  0  0  0  0
    5.2960   -1.1120   24.9440 C   0  0  0  0  0  0  0  0  0  0  0  0
    6.5260    0.4450   18.0230 N   0  0  0  0  0  0  0  0  0  0  0  0
    4.2840    1.5030   18.8850 C   0  0  0  0  0  0  0  0  0  0  0  0
    8.6490   -1.5060   22.5250 C   0  0  0  0  0  0  0  0  0  0  0  0
    6.9640   -3.1720   21.5850 C   0  0  0  0  0  0  0  0  0  0  0  0
    5.6760   -3.2040   23.5990 C   0  0  2  0  0  0  0  0  0  0  0  0
    4.1000   -0.9120   25.0130 O   0  0  0  0  0  0  0  0  0  0  0  0
    6.1890   -0.7820   25.9010 N   0  0  0  0  0  0  0  0  0  0  0  0
    6.6000   -3.5820   20.0740 C   0  0  0  0  0  0  0  0  0  0  0  0
    7.7280   -4.4450   21.5060 C   0  0  0  0  0  0  0  0  0  0  0  0
    5.2550    1.1150   17.8090 C   0  0  0  0  0  0  0  0  0  0  0  0
    8.6330   -1.1150   23.8560 N   0  0  0  0  0  0  0  0  0  0  0  0
   10.0960   -1.5060   22.1650 C   0  0  0  0  0  0  0  0  0  0  0  0
    6.6240   -3.6390   22.8030 C   0  0  2  0  0  0  0  0  0  0  0  0
    4.7650   -4.4110   23.8640 C   0  0  0  0  0  0  0  0  0  0  0  0
    5.5910   -4.2610   19.8270 O   0  0  0  0  0  0  0  0  0  0  0  0
    7.5990   -3.1530   18.8990 C   0  0  0  0  0  0  0  0  0  0  0  0
    8.5270   -5.2700   21.4420 O   0  0  0  0  0  0  0  0  0  0  0  0
    8.9270   -3.5200   21.4890 C   0  0  0  0  0  0  0  0  0  0  0  0
    9.9770   -0.9330   24.2390 N   0  0  0  0  0  0  0  0  0  0  0  0
   10.7790   -1.1860   23.2050 C   0  0  0  0  0  0  0  0  0  0  0  0
    5.9680   -0.1400   27.1400 C   0  0  0  0  0  0  0  0  0  0  0  0
    7.6120   -4.3670   23.6480 C   0  0  0  0  0  0  0  0  0  0  0  0
    4.6270   -5.4010   22.7060 C   0  0  0  0  0  0  0  0  0  0  0  0
    4.1070   -4.8270   24.9650 C   0  0  0  0  0  0  0  0  0  0  0  0
   12.3720   -1.1220   23.2300 C   0  0  0  0  0  0  0  0  0  0  0  0
    6.3490    1.2150   27.2730 C   0  0  0  0  0  0  0  0  0  0  0  0
    5.3390   -0.8260   28.3710 C   0  0  0  0  0  0  0  0  0  0  0  0
    8.8930   -3.8870   23.5190 C   0  0  0  0  0  0  0  0  0  0  0  0
    7.3660   -5.3900   24.5220 C   0  0  0  0  0  0  0  0  0  0  0  0
    3.2850   -6.1100   22.8830 C   0  0  0  0  0  0  0  0  0  0  0  0
    3.3960   -6.4620   24.4780 S   0  0  0  0  0  0  0  0  0  0  0  0
   12.9580    0.2490   23.2790 C   0  0  0  0  0  0  0  0  0  0  0  0
   12.9440   -1.9690   24.3970 C   0  0  0  0  0  0  0  0  0  0  0  0
   12.9700   -1.7600   21.9610 C   0  0  0  0  0  0  0  0  0  0  0  0
    2.0400   -6.6460   24.9170 O   0  0  0  0  0  0  0  0  0  0  0  0
    4.4120   -7.6920   24.6100 O   0  0  0  0  0  0  0  0  0  0  0  0
    6.2320    2.0400   28.3780 N   0  0  0  0  0  0  0  0  0  0  0  0
    5.1820    0.0210   29.6180 C   0  0  0  0  0  0  0  0  0  0  0  0
    9.9150   -4.3720   24.1910 C   0  0  0  0  0  0  0  0  0  0  0  0
    8.4210   -5.8700   25.2360 C   0  0  0  0  0  0  0  0  0  0  0  0
    5.6320    1.4670   29.6210 C   0  0  0  0  0  0  0  0  0  0  0  0
    9.6660   -5.3710   25.0600 C   0  0  0  0  0  0  0  0  0  0  0  0
    5.4730    2.2080   30.7720 O   0  0  0  0  0  0  0  0  0  0  0  0
   10.6610   -5.8110   25.7420 F   0  0  0  0  0  0  0  0  0  0  0  0
    6.2030    3.4280   30.7570 C   0  0  0  0  0  0  0  0  0  0  0  0
  1  2  1  0
  2  3  2  0
  1  4  1  0
  5  2  1  6
  4  6  2  0
  4  7  1  0
  6  8  1  0
  7  9  1  0
  5 10  1  0
  6 11  1  0
  7 12  2  0
 13  5  1  1
  8 14  1  0
 10 15  2  0
 10 16  1  0
 11 17  2  0
 12 17  1  0
 13 18  1  0
 13 19  1  0
 19 20  1  6
 16 21  2  0
 15 22  1  0
 18 23  1  1
 18 24  1  0
 19 25  1  0
 20 26  2  0
 20 27  1  0
 24 28  1  0
 24 29  1  0
 21 30  1  0
 22 30  2  0
 23 31  2  0
 23 32  1  0
 24 33  1  0
 25 33  1  0
 25 34  1  6
 28 35  2  0
 28 36  1  0
 29 37  2  0
 29 38  1  0
 31 39  1  0
 32 40  2  0
 39 40  1  0
 27 41  1  0
 33 42  1  1
 34 43  1  0
 34 44  2  0
 40 45  1  0
 41 46  2  0
 41 47  1  0
 42 48  2  0
 42 49  1  0
 43 50  1  0
 44 51  1  0
 50 51  1  0
 45 52  1  0
 45 53  1  0
 45 54  1  0
 51 55  1  0
 51 56  1  0
 46 57  1  0
 47 58  2  0
 48 59  1  0
 49 60  2  0
 57 61  2  0
 58 61  1  0
 59 62  2  0
 60 62  1  0
 61 63  1  0
 62 64  1  0
 63 65  1  0
M  END
