x1375-x0434
     RDKit          3D

 36 39  0  0  0  0  0  0  0  0999 V2000
    5.7550   -4.7710   20.0720 O   0  0  0  0  0  0  0  0  0  0  0  0
    6.6210   -4.5240   20.9660 C   0  0  0  0  0  0  0  0  0  0  0  0
    8.1360   -4.5540   20.7580 C   0  0  0  0  0  0  0  0  0  0  0  0
    6.2860   -4.1130   22.4460 C   0  0  2  0  0  0  0  0  0  0  0  0
    5.8350   -2.6540   22.2990 C   0  0  0  0  0  0  0  0  0  0  0  0
    7.5060   -4.2440   23.3340 C   0  0  0  0  0  0  0  0  0  0  0  0
    5.2580   -4.9390   23.2850 C   0  0  1  0  0  0  0  0  0  0  0  0
    6.6970   -2.0220   21.1850 C   0  0  0  0  0  0  0  0  0  0  0  0
    8.0690   -3.0110   24.0430 C   0  0  0  0  0  0  0  0  0  0  0  0
    8.1390   -5.4670   23.5470 C   0  0  0  0  0  0  0  0  0  0  0  0
    4.1610   -4.3080   23.8750 C   0  0  0  0  0  0  0  0  0  0  0  0
    4.8460   -6.1260   22.7950 C   0  0  0  0  0  0  0  0  0  0  0  0
    6.8400   -0.5770   21.2770 N   0  0  0  0  0  0  0  0  0  0  0  0
    9.2790   -3.1020   24.9660 C   0  0  0  0  0  0  0  0  0  0  0  0
    9.3510   -5.6240   24.4580 C   0  0  0  0  0  0  0  0  0  0  0  0
    3.6830   -6.9180   23.9090 S   0  0  0  0  0  0  0  0  0  0  0  0
    3.1670   -5.3470   24.3190 C   0  0  0  0  0  0  0  0  0  0  0  0
    2.7100   -7.5970   23.1050 O   0  0  0  0  0  0  0  0  0  0  0  0
    4.3830   -7.6280   24.9490 O   0  0  0  0  0  0  0  0  0  0  0  0
    8.2490   -0.1220   21.5780 C   0  0  0  0  0  0  0  0  0  0  0  0
    9.9480   -4.4410   25.1940 C   0  0  0  0  0  0  0  0  0  0  0  0
    6.2630    0.0960   20.1900 C   0  0  0  0  0  0  0  0  0  0  0  0
   11.0030   -4.5430   26.0030 F   0  0  0  0  0  0  0  0  0  0  0  0
    8.6470    0.9670   21.1700 O   0  0  0  0  0  0  0  0  0  0  0  0
    9.0280   -0.9810   22.3210 N   0  0  0  0  0  0  0  0  0  0  0  0
    5.0850    0.8780   20.2570 C   0  0  0  0  0  0  0  0  0  0  0  0
    6.8830    0.0320   18.8340 C   0  0  0  0  0  0  0  0  0  0  0  0
   10.3870   -0.6360   22.6270 C   0  0  0  0  0  0  0  0  0  0  0  0
    4.4560    1.6220   19.0870 C   0  0  0  0  0  0  0  0  0  0  0  0
    6.3910    0.6960   17.6410 N   0  0  0  0  0  0  0  0  0  0  0  0
   10.6360    0.4650   23.4450 C   0  0  0  0  0  0  0  0  0  0  0  0
   11.4360   -1.3900   22.0930 C   0  0  0  0  0  0  0  0  0  0  0  0
    5.1790    1.4670   17.8610 C   0  0  0  0  0  0  0  0  0  0  0  0
   11.9340    0.8280   23.7240 C   0  0  0  0  0  0  0  0  0  0  0  0
   12.7330   -1.0120   22.3850 C   0  0  0  0  0  0  0  0  0  0  0  0
   12.9750    0.0890   23.1880 C   0  0  0  0  0  0  0  0  0  0  0  0
  1  2  2  0
  2  3  1  0
  4  2  1  0
  4  5  1  6
  4  6  1  0
  4  7  1  0
  5  8  1  0
  6  9  2  0
  6 10  1  0
  7 11  1  6
  7 12  1  0
  8 13  1  0
  9 14  1  0
 10 15  2  0
 12 16  1  0
 11 17  2  0
 16 17  1  0
 16 18  1  0
 16 19  1  0
 13 20  1  0
 14 21  2  0
 15 21  1  0
 13 22  1  0
 21 23  1  0
 20 24  2  0
 20 25  1  0
 22 26  2  0
 22 27  1  0
 25 28  1  0
 26 29  1  0
 27 30  2  0
 28 31  2  0
 28 32  1  0
 29 33  2  0
 30 33  1  0
 31 34  1  0
 32 35  2  0
 34 36  2  0
 35 36  1  0
M  END
