x1375-x2563
     RDKit          3D

 40 44  0  0  0  0  0  0  0  0999 V2000
    5.8560   -4.7780   20.0770 O   0  0  0  0  0  0  0  0  0  0  0  0
    6.7080   -4.4090   20.9550 C   0  0  0  0  0  0  0  0  0  0  0  0
    8.2190   -4.2240   20.7390 C   0  0  0  0  0  0  0  0  0  0  0  0
    6.3340   -4.0400   22.4600 C   0  0  2  0  0  0  0  0  0  0  0  0
    6.0390   -2.5100   22.4190 C   0  0  0  0  0  0  0  0  0  0  0  0
    7.5370   -4.2920   23.3570 C   0  0  0  0  0  0  0  0  0  0  0  0
    5.3840   -4.9230   23.3190 C   0  0  1  0  0  0  0  0  0  0  0  0
    5.8410   -2.0140   20.9730 C   0  0  0  0  0  0  0  0  0  0  0  0
    8.0430   -3.2340   24.1550 C   0  0  0  0  0  0  0  0  0  0  0  0
    8.2340   -5.5080   23.5050 C   0  0  0  0  0  0  0  0  0  0  0  0
    4.3510   -4.2720   23.9480 C   0  0  0  0  0  0  0  0  0  0  0  0
    4.9480   -6.2040   22.6220 C   0  0  0  0  0  0  0  0  0  0  0  0
    6.9890   -1.1180   20.4020 C   0  0  2  0  0  0  0  0  0  0  0  0
    9.2070   -3.2570   25.1180 C   0  0  0  0  0  0  0  0  0  0  0  0
    9.3190   -5.7380   24.3320 C   0  0  0  0  0  0  0  0  0  0  0  0
    3.8400   -6.8380   23.8140 S   0  0  0  0  0  0  0  0  0  0  0  0
    3.3080   -5.2890   24.3450 C   0  0  0  0  0  0  0  0  0  0  0  0
    2.7840   -7.5120   23.1100 O   0  0  0  0  0  0  0  0  0  0  0  0
    4.4890   -7.5510   24.8860 O   0  0  0  0  0  0  0  0  0  0  0  0
    8.0390   -0.3770   21.2580 C   0  0  0  0  0  0  0  0  0  0  0  0
    9.8370   -4.5950   25.1750 C   0  0  0  0  0  0  0  0  0  0  0  0
    6.3130   -0.1090   19.5560 C   0  0  0  0  0  0  0  0  0  0  0  0
   10.8750   -4.7660   25.9900 F   0  0  0  0  0  0  0  0  0  0  0  0
    8.1400    0.8510   21.2180 O   0  0  0  0  0  0  0  0  0  0  0  0
    8.8470   -1.1950   21.9900 N   0  0  0  0  0  0  0  0  0  0  0  0
    5.2760    0.7100   19.9440 C   0  0  0  0  0  0  0  0  0  0  0  0
    6.7240    0.0040   18.3450 C   0  0  0  0  0  0  0  0  0  0  0  0
    6.1690    0.8770   17.4600 N   0  0  0  0  0  0  0  0  0  0  0  0
    4.6200    1.6250   19.1720 C   0  0  0  0  0  0  0  0  0  0  0  0
    4.7960    0.5910   21.3910 C   0  0  0  0  0  0  0  0  0  0  0  0
    9.8130   -0.7630   22.8780 C   0  0  0  0  0  0  0  0  0  0  0  0
    5.0650    1.7320   17.8690 C   0  0  0  0  0  0  0  0  0  0  0  0
    3.6140    2.3730   19.6360 C   0  0  0  0  0  0  0  0  0  0  0  0
    3.7900    1.3530   21.8340 C   0  0  0  0  0  0  0  0  0  0  0  0
   11.1250   -0.7830   22.4390 C   0  0  0  0  0  0  0  0  0  0  0  0
    9.5240   -0.3420   24.1060 C   0  0  0  0  0  0  0  0  0  0  0  0
    3.1180    2.2670   21.0780 C   0  0  0  0  0  0  0  0  0  0  0  0
   12.1980   -0.3250   23.3470 C   0  0  0  0  0  0  0  0  0  0  0  0
   10.4580    0.0700   24.9570 C   0  0  0  0  0  0  0  0  0  0  0  0
   11.7630    0.0610   24.5390 C   0  0  0  0  0  0  0  0  0  0  0  0
  1  2  2  0
  2  3  1  0
  4  2  1  0
  4  5  1  6
  4  6  1  0
  4  7  1  0
  5  8  1  0
  6  9  2  0
  6 10  1  0
  7 11  1  6
  7 12  1  0
 13  8  1  1
  9 14  1  0
 10 15  2  0
 12 16  1  0
 11 17  2  0
 16 17  1  0
 16 18  1  0
 16 19  1  0
 13 20  1  0
 14 21  2  0
 15 21  1  0
 13 22  1  0
 21 23  1  0
 20 24  2  0
 20 25  1  0
 22 26  1  0
 22 27  2  0
 27 28  1  0
 26 29  2  0
 26 30  1  0
 25 31  1  0
 28 32  2  0
 29 32  1  0
 29 33  1  0
 30 34  2  0
 31 35  2  0
 31 36  1  0
 33 37  2  0
 34 37  1  0
 35 38  1  0
 36 39  2  0
 38 40  2  0
 39 40  1  0
M  END
