x1374-x2764
     RDKit          3D

 35 39  0  0  0  0  0  0  0  0999 V2000
    9.7270   -3.7740   25.8710 C   0  0  0  0  0  0  0  0  0  0  0  0
    9.4690   -4.2420   24.4730 C   0  0  1  0  0  0  0  0  0  0  0  0
    9.0120   -5.6590   24.5170 C   0  0  0  0  0  0  0  0  0  0  0  0
    8.3970   -3.7340   23.6490 C   0  0  1  0  0  0  0  0  0  0  0  0
    8.9150   -2.6610   22.6390 C   0  0  1  0  0  0  0  0  0  0  0  0
    7.9110   -4.7970   22.8480 C   0  0  1  0  0  0  0  0  0  0  0  0
    8.0990   -5.9440   23.5490 C   0  0  0  0  0  0  0  0  0  0  0  0
    6.5980   -4.7800   22.1840 N   0  0  0  0  0  0  0  0  0  0  0  0
    7.8110   -1.9290   22.1090 N   0  0  0  0  0  0  0  0  0  0  0  0
   10.1820   -2.0130   22.9690 C   0  0  0  0  0  0  0  0  0  0  0  0
    6.5320   -4.6770   20.7900 C   0  0  0  0  0  0  0  0  0  0  0  0
    7.3670   -2.2380   20.7760 C   0  0  0  0  0  0  0  0  0  0  0  0
    5.3410   -5.0960   22.7780 C   0  0  2  0  0  0  0  0  0  0  0  0
   11.2810   -1.8620   22.1550 C   0  0  0  0  0  0  0  0  0  0  0  0
   10.4540   -1.4590   24.2160 C   0  0  0  0  0  0  0  0  0  0  0  0
    5.9010   -5.4980   20.0950 O   0  0  0  0  0  0  0  0  0  0  0  0
    7.0060   -3.4310   20.0510 C   0  0  0  0  0  0  0  0  0  0  0  0
    5.1390   -4.6340   24.0870 C   0  0  0  0  0  0  0  0  0  0  0  0
    4.9980   -6.4520   22.7730 C   0  0  0  0  0  0  0  0  0  0  0  0
   12.4020   -1.2530   22.6130 N   0  0  0  0  0  0  0  0  0  0  0  0
   12.0700   -0.8250   24.1970 S   0  0  0  0  0  0  0  0  0  0  0  0
    6.9340   -0.9520   20.0320 C   0  0  0  0  0  0  0  0  0  0  0  0
    3.9090   -6.7690   24.0720 S   0  0  0  0  0  0  0  0  0  0  0  0
    4.3830   -5.3860   24.9180 C   0  0  0  0  0  0  0  0  0  0  0  0
    6.5080   -1.0580   18.7050 C   0  0  0  0  0  0  0  0  0  0  0  0
    6.8380    0.4480   20.6990 C   0  0  0  0  0  0  0  0  0  0  0  0
    2.5440   -6.6630   23.6040 O   0  0  0  0  0  0  0  0  0  0  0  0
    4.3110   -7.8980   24.8750 O   0  0  0  0  0  0  0  0  0  0  0  0
    7.2110    0.6580   22.0030 O   0  0  0  0  0  0  0  0  0  0  0  0
    6.0170    0.0620   18.0720 C   0  0  0  0  0  0  0  0  0  0  0  0
    6.3450    1.5000   19.9820 C   0  0  0  0  0  0  0  0  0  0  0  0
    8.0650    1.8140   22.1900 C   0  0  0  0  0  0  0  0  0  0  0  0
    5.9310    1.2930   18.6700 C   0  0  0  0  0  0  0  0  0  0  0  0
    7.2500    3.0880   22.4770 C   0  0  0  0  0  0  0  0  0  0  0  0
    8.0160    4.1850   22.5280 N   0  0  0  0  0  0  0  0  0  0  0  0
  2  1  1  1
  2  3  1  0
  4  2  1  1
  4  5  1  0
  4  6  1  0
  3  7  2  0
  6  7  1  1
  6  8  1  0
  5  9  1  0
  5 10  1  1
  8 11  1  0
  9 12  1  0
 13  8  1  1
 10 14  1  0
 10 15  2  0
 11 16  2  0
 11 17  1  0
 12 17  2  0
 13 18  1  0
 13 19  1  0
 14 20  2  0
 15 21  1  0
 20 21  1  0
 12 22  1  0
 19 23  1  0
 18 24  2  0
 23 24  1  0
 22 25  2  0
 22 26  1  0
 23 27  1  0
 23 28  1  0
 26 29  1  0
 25 30  1  0
 26 31  2  0
 29 32  1  0
 30 33  2  0
 31 33  1  0
 32 34  1  0
 34 35  3  0
M  END
