x1375-x3124
     RDKit          3D

 41 44  0  0  0  0  0  0  0  0999 V2000
    7.1070   -1.1230   21.8540 N   0  0  0  0  0  0  0  0  0  0  0  0
    6.6340    0.2500   21.6560 C   0  0  1  0  0  0  0  0  0  0  0  0
    7.7930    1.2640   21.8660 C   0  0  0  0  0  0  0  0  0  0  0  0
    8.3640   -1.2290   22.4140 C   0  0  0  0  0  0  0  0  0  0  0  0
    6.1020    0.5440   20.2870 C   0  0  0  0  0  0  0  0  0  0  0  0
    9.3930   -1.7390   21.6610 C   0  0  0  0  0  0  0  0  0  0  0  0
    8.6520   -0.8380   23.7060 C   0  0  0  0  0  0  0  0  0  0  0  0
    7.7430    1.9220   23.0710 N   0  0  0  0  0  0  0  0  0  0  0  0
    8.6620    1.4950   21.0250 O   0  0  0  0  0  0  0  0  0  0  0  0
    4.9530    1.3360   20.1660 C   0  0  0  0  0  0  0  0  0  0  0  0
    6.6740    0.1000   19.1430 C   0  0  0  0  0  0  0  0  0  0  0  0
   10.6960   -1.8860   22.0950 C   0  0  0  0  0  0  0  0  0  0  0  0
    9.9420   -0.9640   24.1840 C   0  0  0  0  0  0  0  0  0  0  0  0
    7.9520    3.3700   23.1510 C   0  0  0  0  0  0  0  0  0  0  0  0
    6.2710    0.3400   17.8820 N   0  0  0  0  0  0  0  0  0  0  0  0
    4.4980    1.6140   18.9000 C   0  0  0  0  0  0  0  0  0  0  0  0
   10.9540   -1.4850   23.3770 C   0  0  0  0  0  0  0  0  0  0  0  0
   12.3180   -1.5770   23.9620 C   0  0  0  0  0  0  0  0  0  0  0  0
    5.1780    1.1080   17.8400 C   0  0  0  0  0  0  0  0  0  0  0  0
   12.7060   -0.1660   24.3120 C   0  0  0  0  0  0  0  0  0  0  0  0
   13.4140   -2.1940   23.1050 C   0  0  0  0  0  0  0  0  0  0  0  0
   12.1730   -2.2640   25.2760 C   0  0  0  0  0  0  0  0  0  0  0  0
   11.8000   -3.7080   25.3730 C   0  0  0  0  0  0  0  0  0  0  0  0
   10.6080   -4.0660   26.0690 O   0  0  0  0  0  0  0  0  0  0  0  0
    9.5510   -4.3120   25.1530 C   0  0  0  0  0  0  0  0  0  0  0  0
    8.5890   -3.2360   24.8520 C   0  0  0  0  0  0  0  0  0  0  0  0
    9.3880   -5.5670   24.4850 C   0  0  0  0  0  0  0  0  0  0  0  0
    7.4690   -3.3590   23.8800 C   0  0  0  0  0  0  0  0  0  0  0  0
    8.3890   -5.7470   23.5870 C   0  0  0  0  0  0  0  0  0  0  0  0
    7.3680   -4.6920   23.2010 C   0  0  0  0  0  0  0  0  0  0  0  0
    6.3410   -4.9330   22.2280 N   0  0  0  0  0  0  0  0  0  0  0  0
    6.5880   -4.5650   20.8800 C   0  0  0  0  0  0  0  0  0  0  0  0
    4.9480   -5.0500   22.6960 C   0  0  2  0  0  0  0  0  0  0  0  0
    5.7030   -4.7460   20.0120 O   0  0  0  0  0  0  0  0  0  0  0  0
    7.9770   -3.9020   20.6210 C   0  0  0  0  0  0  0  0  0  0  0  0
    4.8590   -4.4130   24.0540 C   0  0  0  0  0  0  0  0  0  0  0  0
    4.6600   -6.3570   22.7500 C   0  0  0  0  0  0  0  0  0  0  0  0
    3.8150   -6.6900   24.2190 S   0  0  0  0  0  0  0  0  0  0  0  0
    4.2870   -5.1450   24.9790 C   0  0  0  0  0  0  0  0  0  0  0  0
    2.4060   -6.7390   23.9060 O   0  0  0  0  0  0  0  0  0  0  0  0
    4.4230   -7.8340   24.8310 O   0  0  0  0  0  0  0  0  0  0  0  0
  2  1  1  6
  2  3  1  0
  1  4  1  0
  2  5  1  0
  4  6  2  0
  4  7  1  0
  3  8  1  0
  3  9  2  0
  5 10  2  0
  5 11  1  0
  6 12  1  0
  7 13  2  0
  8 14  1  0
 11 15  2  0
 10 16  1  0
 12 17  2  0
 13 17  1  0
 17 18  1  0
 15 19  1  0
 16 19  2  0
 18 20  1  0
 18 21  1  0
 18 22  1  0
 22 23  1  0
 23 24  1  0
 24 25  1  0
 25 26  2  0
 25 27  1  0
 26 28  1  0
 27 29  2  0
 28 30  2  0
 29 30  1  0
 30 31  1  0
 31 32  1  0
 33 31  1  1
 32 34  2  0
 32 35  1  0
 33 36  1  0
 33 37  1  0
 37 38  1  0
 36 39  2  0
 38 39  1  0
 38 40  1  0
 38 41  1  0
M  END
