x1375-x2964
     RDKit          3D

 39 42  0  0  0  0  0  0  0  0999 V2000
    5.7420   -4.7870   20.0300 O   0  0  0  0  0  0  0  0  0  0  0  0
    6.5580   -4.4210   20.8990 C   0  0  0  0  0  0  0  0  0  0  0  0
    8.0720   -4.1690   20.7020 C   0  0  0  0  0  0  0  0  0  0  0  0
    6.0790   -4.1540   22.3710 C   0  0  2  0  0  0  0  0  0  0  0  0
    5.4030   -2.7790   22.3140 C   0  0  0  0  0  0  0  0  0  0  0  0
    7.2870   -4.3290   23.3060 C   0  0  0  0  0  0  0  0  0  0  0  0
    4.9370   -4.9240   23.0080 C   0  0  2  0  0  0  0  0  0  0  0  0
    5.6740   -2.0930   20.9900 C   0  0  0  0  0  0  0  0  0  0  0  0
    7.7720   -3.2210   24.0380 C   0  0  0  0  0  0  0  0  0  0  0  0
    8.0080   -5.5410   23.5140 C   0  0  0  0  0  0  0  0  0  0  0  0
    4.6070   -4.4440   24.2400 C   0  0  0  0  0  0  0  0  0  0  0  0
    4.9610   -6.4510   22.9150 C   0  0  0  0  0  0  0  0  0  0  0  0
    7.0380   -1.4010   20.9680 C   0  0  0  0  0  0  0  0  0  0  0  0
    8.9390   -3.1850   24.9950 C   0  0  0  0  0  0  0  0  0  0  0  0
    9.1210   -5.7000   24.3640 C   0  0  0  0  0  0  0  0  0  0  0  0
    3.7950   -6.9370   24.1420 S   0  0  0  0  0  0  0  0  0  0  0  0
    3.9340   -5.4860   25.0330 C   0  0  0  0  0  0  0  0  0  0  0  0
    2.4720   -7.0420   23.5690 O   0  0  0  0  0  0  0  0  0  0  0  0
    4.2900   -7.9690   24.9910 O   0  0  0  0  0  0  0  0  0  0  0  0
    6.9470    0.0610   21.1550 N   0  0  0  0  0  0  0  0  0  0  0  0
    9.6140   -4.4920   25.1390 C   0  0  0  0  0  0  0  0  0  0  0  0
   10.6660   -4.6060   25.9580 F   0  0  0  0  0  0  0  0  0  0  0  0
    8.2570    0.5960   21.5880 C   0  0  0  0  0  0  0  0  0  0  0  0
    6.2960    0.5660   20.0150 C   0  0  0  0  0  0  0  0  0  0  0  0
    8.7880    1.6090   21.1150 O   0  0  0  0  0  0  0  0  0  0  0  0
    8.8680   -0.1240   22.5610 N   0  0  0  0  0  0  0  0  0  0  0  0
    5.0860    1.2560   20.0940 C   0  0  0  0  0  0  0  0  0  0  0  0
    6.8100    0.4010   18.7680 C   0  0  0  0  0  0  0  0  0  0  0  0
    4.3820    1.7870   19.0170 C   0  0  0  0  0  0  0  0  0  0  0  0
    6.3260    0.8220   17.6350 N   0  0  0  0  0  0  0  0  0  0  0  0
   10.2410    0.0300   22.6500 C   0  0  0  0  0  0  0  0  0  0  0  0
    3.1860    2.4710   19.0330 N   0  0  0  0  0  0  0  0  0  0  0  0
    5.1650    1.4920   17.7370 C   0  0  0  0  0  0  0  0  0  0  0  0
   10.8520    1.1680   23.1600 C   0  0  0  0  0  0  0  0  0  0  0  0
   11.1200   -0.8450   22.2430 C   0  0  0  0  0  0  0  0  0  0  0  0
   12.3070    1.4500   23.2700 C   0  0  0  0  0  0  0  0  0  0  0  0
   12.5740   -0.6720   22.2940 C   0  0  0  0  0  0  0  0  0  0  0  0
   13.4550   -1.9170   21.6690 Cl  0  0  0  0  0  0  0  0  0  0  0  0
   13.1510    0.4210   22.7860 C   0  0  0  0  0  0  0  0  0  0  0  0
  1  2  2  0
  2  3  1  0
  4  2  1  0
  4  5  1  6
  4  6  1  0
  4  7  1  0
  5  8  1  0
  6  9  2  0
  6 10  1  0
  7 11  1  1
  7 12  1  0
  8 13  1  0
  9 14  1  0
 10 15  2  0
 12 16  1  0
 11 17  2  0
 16 17  1  0
 16 18  1  0
 16 19  1  0
 13 20  1  0
 14 21  2  0
 15 21  1  0
 21 22  1  0
 20 23  1  0
 20 24  1  0
 23 25  2  0
 23 26  1  0
 24 27  2  0
 24 28  1  0
 27 29  1  0
 28 30  2  0
 26 31  1  0
 29 32  1  0
 29 33  2  0
 30 33  1  0
 31 34  2  0
 31 35  1  0
 34 36  1  0
 35 37  2  0
 37 38  1  0
 36 39  2  0
 37 39  1  0
M  END
