x1374-x2562
     RDKit          3D

 42 46  0  0  0  0  0  0  0  0999 V2000
   10.0370   -5.8390   24.8680 C   0  0  0  0  0  0  0  0  0  0  0  0
    8.7690   -5.2430   24.9390 C   0  0  0  0  0  0  0  0  0  0  0  0
    7.8570   -5.3350   25.9400 C   0  0  0  0  0  0  0  0  0  0  0  0
    8.5400   -4.4410   23.7000 C   0  0  0  0  0  0  0  0  0  0  0  0
    7.2900   -3.6910   23.5190 C   0  0  0  0  0  0  0  0  0  0  0  0
    6.6920   -4.6340   25.8280 C   0  0  0  0  0  0  0  0  0  0  0  0
    7.0710   -2.9760   22.2320 C   0  0  1  0  0  0  0  0  0  0  0  0
    6.4260   -3.7890   24.5900 C   0  0  0  0  0  0  0  0  0  0  0  0
    6.2130   -4.0070   21.6990 N   0  0  0  0  0  0  0  0  0  0  0  0
    6.3830   -1.5990   22.2810 C   0  0  0  0  0  0  0  0  0  0  0  0
    6.1520   -4.0930   20.3690 C   0  0  0  0  0  0  0  0  0  0  0  0
    6.9290   -0.2930   21.6570 C   0  0  1  0  0  0  0  0  0  0  0  0
    5.6200   -4.9470   22.6050 C   0  0  1  0  0  0  0  0  0  0  0  0
    5.2580   -4.7690   19.9250 O   0  0  0  0  0  0  0  0  0  0  0  0
    7.1670   -3.3430   19.4780 C   0  0  0  0  0  0  0  0  0  0  0  0
    8.4520    0.0200   21.5000 C   0  0  0  0  0  0  0  0  0  0  0  0
    4.4820   -4.3110   23.1600 C   0  0  0  0  0  0  0  0  0  0  0  0
    5.3090   -6.2810   22.2070 C   0  0  0  0  0  0  0  0  0  0  0  0
    6.3120    0.1860   20.3380 C   0  0  0  0  0  0  0  0  0  0  0  0
    8.7430    1.3740   21.0630 O   0  0  0  0  0  0  0  0  0  0  0  0
    9.2720   -0.7770   21.7070 N   0  0  0  0  0  0  0  0  0  0  0  0
    3.9940   -6.6950   23.3880 S   0  0  0  0  0  0  0  0  0  0  0  0
    3.5540   -5.1260   23.6540 C   0  0  0  0  0  0  0  0  0  0  0  0
    6.8710   -0.0790   19.0840 C   0  0  0  0  0  0  0  0  0  0  0  0
    5.0550    1.0100   20.3960 C   0  0  0  0  0  0  0  0  0  0  0  0
    2.8960   -7.3320   22.7010 O   0  0  0  0  0  0  0  0  0  0  0  0
    4.4920   -7.3930   24.5650 O   0  0  0  0  0  0  0  0  0  0  0  0
    4.4280    1.5430   19.1930 N   0  0  0  0  0  0  0  0  0  0  0  0
    6.2880    0.4330   17.8520 N   0  0  0  0  0  0  0  0  0  0  0  0
   10.5430   -0.3840   22.1670 C   0  0  0  0  0  0  0  0  0  0  0  0
    5.0790    1.2450   17.9070 C   0  0  0  0  0  0  0  0  0  0  0  0
   11.6490   -1.2450   22.2310 C   0  0  0  0  0  0  0  0  0  0  0  0
   10.6740    1.1110   22.5930 C   0  0  0  0  0  0  0  0  0  0  0  0
   12.8780   -0.7600   22.6600 C   0  0  0  0  0  0  0  0  0  0  0  0
   11.9380    1.5030   22.9970 C   0  0  0  0  0  0  0  0  0  0  0  0
   12.0330    2.8450   23.3540 O   0  0  0  0  0  0  0  0  0  0  0  0
   12.9740    0.5810   23.0140 C   0  0  0  0  0  0  0  0  0  0  0  0
   12.9790    3.6770   22.6560 C   0  0  1  0  0  0  0  0  0  0  0  0
   12.4310    4.6120   21.7490 N   0  0  0  0  0  0  0  0  0  0  0  0
   13.6310    4.7790   23.4030 C   0  0  0  0  0  0  0  0  0  0  0  0
   13.3950    5.5070   22.3280 C   0  0  2  0  0  0  0  0  0  0  0  0
   12.9130    6.7970   22.6360 O   0  0  0  0  0  0  0  0  0  0  0  0
  1  2  1  0
  2  3  2  0
  2  4  1  0
  4  5  2  0
  3  6  1  0
  5  7  1  0
  5  8  1  0
  6  8  2  0
  7  9  1  0
  7 10  1  1
  9 11  1  0
 12 10  1  6
 13  9  1  6
 11 14  2  0
 11 15  1  0
 12 16  1  0
 13 17  1  0
 13 18  1  0
 12 19  1  0
 16 20  2  0
 16 21  1  0
 18 22  1  0
 17 23  2  0
 22 23  1  0
 19 24  2  0
 19 25  1  0
 22 26  1  0
 22 27  1  0
 25 28  2  0
 24 29  1  0
 21 30  1  0
 28 31  1  0
 29 31  2  0
 30 32  2  0
 30 33  1  0
 32 34  1  0
 33 35  2  0
 35 36  1  0
 34 37  2  0
 35 37  1  0
 38 36  1  1
 38 39  1  0
 38 40  1  0
 39 41  1  0
 40 41  1  0
 41 42  1  1
M  END
