x1374-x2694-x0769-x2776-x2703
     RDKit          3D

 67 73  0  0  0  0  0  0  0  0999 V2000
    7.5570   -0.7410   21.8160 N   0  0  0  0  0  0  0  0  0  0  0  0
    6.9950    0.4980   21.6450 C   0  0  1  0  0  0  0  0  0  0  0  0
    7.9860    1.6390   21.7410 C   0  0  0  0  0  0  0  0  0  0  0  0
    8.7620   -0.9380   22.5690 C   0  0  0  0  0  0  0  0  0  0  0  0
    6.3940    0.7080   20.2810 C   0  0  0  0  0  0  0  0  0  0  0  0
    8.7450   -1.0670   24.0330 N   0  0  0  0  0  0  0  0  0  0  0  0
   10.0590   -1.0480   22.1880 C   0  0  0  0  0  0  0  0  0  0  0  0
    7.6540    2.7010   22.5850 N   0  0  0  0  0  0  0  0  0  0  0  0
    9.0160    1.6040   21.0880 O   0  0  0  0  0  0  0  0  0  0  0  0
    5.2880    1.5190   20.1620 C   0  0  0  0  0  0  0  0  0  0  0  0
    6.9400    0.1100   19.1410 C   0  0  0  0  0  0  0  0  0  0  0  0
   10.0900   -1.2390   24.3790 O   0  0  0  0  0  0  0  0  0  0  0  0
   10.8930   -1.2310   23.2540 C   0  0  0  0  0  0  0  0  0  0  0  0
   12.3830   -1.4090   23.4380 C   0  0  0  0  0  0  0  0  0  0  0  0
    6.2950    0.4040   17.8320 N   0  0  0  0  0  0  0  0  0  0  0  0
    4.7070    1.7740   18.9520 C   0  0  0  0  0  0  0  0  0  0  0  0
    8.5790    3.7090   22.9490 C   0  0  0  0  0  0  0  0  0  0  0  0
    6.2500    3.0310   22.9100 C   0  0  0  0  0  0  0  0  0  0  0  0
   12.7910   -0.3820   24.4710 C   0  0  0  0  0  0  0  0  0  0  0  0
   12.9720   -1.1210   22.1050 C   0  0  0  0  0  0  0  0  0  0  0  0
   12.7380   -2.8730   23.7530 C   0  0  0  0  0  0  0  0  0  0  0  0
    5.1660    1.2570   17.7810 C   0  0  0  0  0  0  0  0  0  0  0  0
    9.8080    3.4220   23.5810 C   0  0  0  0  0  0  0  0  0  0  0  0
    8.2720    5.0490   22.6730 C   0  0  0  0  0  0  0  0  0  0  0  0
    5.6300    4.0530   21.9540 C   0  0  0  0  0  0  0  0  0  0  0  0
   10.2510    2.0160   23.9280 C   0  0  0  0  0  0  0  0  0  0  0  0
   12.7760   -3.2020   25.2570 C   0  0  0  0  0  0  0  0  0  0  0  0
   10.6570    4.4840   23.9050 C   0  0  0  0  0  0  0  0  0  0  0  0
    9.0970    6.1040   22.9910 C   0  0  0  0  0  0  0  0  0  0  0  0
    9.2610    1.4030   24.8230 C   0  0  0  0  0  0  0  0  0  0  0  0
   11.5100   -3.5660   25.7720 C   0  0  0  0  0  0  0  0  0  0  0  0
   10.2940    5.7840   23.6170 C   0  0  0  0  0  0  0  0  0  0  0  0
   11.1470    6.8630   23.9610 O   0  0  0  0  0  0  0  0  0  0  0  0
   10.6440   -4.5750   25.0680 C   0  0  0  0  0  0  0  0  0  0  0  0
   11.8830    6.7130   25.1740 C   0  0  0  0  0  0  0  0  0  0  0  0
    9.2360   -4.2030   24.7900 C   0  0  1  0  0  0  0  0  0  0  0  0
    9.2990   -3.5120   23.6190 C   0  0  0  0  0  0  0  0  0  0  0  0
    8.5840   -5.4180   24.6790 C   0  0  0  0  0  0  0  0  0  0  0  0
    8.3060   -3.5750   22.7190 C   0  0  0  0  0  0  0  0  0  0  0  0
    7.5530   -5.5080   23.7480 C   0  0  0  0  0  0  0  0  0  0  0  0
    7.2540   -4.3430   23.0290 C   0  0  2  0  0  0  0  0  0  0  0  0
    6.1600   -4.6470   21.8630 C   0  0  0  0  0  0  0  0  0  0  0  0
    6.6060   -3.5310   24.2050 C   0  0  0  0  0  0  0  0  0  0  0  0
    6.1580   -3.9590   20.3810 C   0  0  0  0  0  0  0  0  0  0  0  0
    6.5440   -5.7990   21.1070 C   0  0  0  0  0  0  0  0  0  0  0  0
    4.8820   -5.0810   22.6490 C   0  0  1  0  0  0  0  0  0  0  0  0
    5.2270   -3.1470   23.9610 N   0  0  0  0  0  0  0  0  0  0  0  0
    5.1340   -4.1130   19.7370 O   0  0  0  0  0  0  0  0  0  0  0  0
    7.3170   -3.1680   19.6450 C   0  0  0  0  0  0  0  0  0  0  0  0
    7.6460   -6.2490   21.1960 O   0  0  0  0  0  0  0  0  0  0  0  0
    5.5820   -6.2630   20.3030 C   0  0  0  0  0  0  0  0  0  0  0  0
    4.4900   -6.7800   23.2570 S   0  0  0  0  0  0  0  0  0  0  0  0
    4.4540   -4.3350   23.8900 C   0  0  2  0  0  0  0  0  0  0  0  0
    2.8850   -7.3610   22.6600 O   0  0  0  0  0  0  0  0  0  0  0  0
    5.5590   -7.6770   22.9800 O   0  0  0  0  0  0  0  0  0  0  0  0
    4.4530   -5.2190   25.1220 C   0  0  0  0  0  0  0  0  0  0  0  0
    4.4430   -6.6700   24.8950 C   0  0  0  0  0  0  0  0  0  0  0  0
    4.4190   -4.8120   26.8280 S   0  0  0  0  0  0  0  0  0  0  0  0
    5.7260   -4.3750   27.2560 O   0  0  0  0  0  0  0  0  0  0  0  0
    3.6600   -5.8190   27.5330 O   0  0  0  0  0  0  0  0  0  0  0  0
    3.4270   -3.4190   26.5290 C   0  0  0  0  0  0  0  0  0  0  0  0
    4.0720   -2.0360   26.3960 C   0  0  0  0  0  0  0  0  0  0  0  0
    2.0540   -3.5550   26.3930 C   0  0  0  0  0  0  0  0  0  0  0  0
    5.3910   -1.8440   26.5050 F   0  0  0  0  0  0  0  0  0  0  0  0
    1.2800   -2.4520   26.1470 C   0  0  0  0  0  0  0  0  0  0  0  0
    3.2150   -0.9700   26.1470 C   0  0  0  0  0  0  0  0  0  0  0  0
    1.8520   -1.1900   26.0300 C   0  0  0  0  0  0  0  0  0  0  0  0
  2  1  1  6
  2  3  1  0
  1  4  1  0
  2  5  1  0
  4  6  2  0
  4  7  1  0
  3  8  1  0
  3  9  2  0
  5 10  2  0
  5 11  1  0
  6 12  1  0
  7 13  2  0
 12 13  1  0
 13 14  1  0
 11 15  2  0
 10 16  1  0
  8 17  1  0
  8 18  1  0
 14 19  1  0
 14 20  1  0
 14 21  1  0
 15 22  1  0
 16 22  2  0
 17 23  2  0
 17 24  1  0
 18 25  1  0
 23 26  1  0
 21 27  1  0
 23 28  1  0
 24 29  2  0
 26 30  1  0
 27 31  1  0
 28 32  2  0
 29 32  1  0
 32 33  1  0
 31 34  1  0
 33 35  1  0
 36 34  1  6
 36 37  1  0
 36 38  1  0
 37 39  2  0
 38 40  2  0
 41 39  1  6
 40 41  1  0
 41 42  1  0
 41 43  1  0
 42 44  1  0
 42 45  1  0
 46 42  1  1
 43 47  1  0
 44 48  2  0
 44 49  1  0
 45 50  2  0
 45 51  1  0
 46 52  1  0
 46 53  1  0
 53 47  1  1
 52 54  1  0
 52 55  1  0
 53 56  1  0
 52 57  1  0
 56 57  2  0
 58 56  1  0
 58 59  2  0
 58 60  2  0
 58 61  1  0
 61 62  2  0
 61 63  1  0
 62 64  1  0
 63 65  2  0
 62 66  1  0
 65 67  1  0
 66 67  2  0
M  END
