x1374-x0104
     RDKit          3D

 38 42  0  0  0  0  0  0  0  0999 V2000
   10.6930   -3.3610   25.3180 C   0  0  0  0  0  0  0  0  0  0  0  0
   11.7760   -2.9020   24.3360 C   0  0  0  0  0  0  0  0  0  0  0  0
   11.2290   -2.3490   22.9870 C   0  0  2  0  0  0  0  0  0  0  0  0
    9.4190   -3.8540   24.6340 C   0  0  0  0  0  0  0  0  0  0  0  0
    8.9650   -3.0200   23.6360 C   0  0  0  0  0  0  0  0  0  0  0  0
    8.7010   -5.0120   24.8750 C   0  0  0  0  0  0  0  0  0  0  0  0
   11.8830   -2.2400   21.6510 C   0  0  0  0  0  0  0  0  0  0  0  0
    7.8880   -3.2620   22.8330 C   0  0  0  0  0  0  0  0  0  0  0  0
    7.5130   -5.2950   23.9910 C   0  0  0  0  0  0  0  0  0  0  0  0
   11.3200   -0.9520   23.2190 C   0  0  0  0  0  0  0  0  0  0  0  0
   13.2260   -2.3450   21.7700 C   0  0  0  0  0  0  0  0  0  0  0  0
    7.1390   -4.3960   22.9600 C   0  0  0  0  0  0  0  0  0  0  0  0
   10.3450   -0.1330   23.6470 C   0  0  0  0  0  0  0  0  0  0  0  0
   12.7480   -0.4650   22.9370 C   0  0  0  0  0  0  0  0  0  0  0  0
    6.0450   -4.6450   22.1220 N   0  0  0  0  0  0  0  0  0  0  0  0
   13.7310   -1.3780   22.6410 O   0  0  0  0  0  0  0  0  0  0  0  0
   10.7320    1.2280   23.9000 C   0  0  2  0  0  0  0  0  0  0  0  0
   12.9790    0.8690   22.9780 C   0  0  0  0  0  0  0  0  0  0  0  0
    6.0790   -4.5730   20.7060 C   0  0  0  0  0  0  0  0  0  0  0  0
    5.2020   -5.4160   22.9350 C   0  0  1  0  0  0  0  0  0  0  0  0
    9.7340    2.2460   23.8850 N   0  0  0  0  0  0  0  0  0  0  0  0
   11.8950    1.6900   23.2530 C   0  0  0  0  0  0  0  0  0  0  0  0
    5.4860   -5.4330   20.0600 O   0  0  0  0  0  0  0  0  0  0  0  0
    6.7260   -3.4520   19.8640 C   0  0  0  0  0  0  0  0  0  0  0  0
    4.7060   -4.6930   24.1970 C   0  0  0  0  0  0  0  0  0  0  0  0
    4.1810   -6.1840   22.6720 C   0  0  0  0  0  0  0  0  0  0  0  0
   11.8030    3.0010   22.9760 C   0  0  0  0  0  0  0  0  0  0  0  0
   10.5310    3.3250   23.3460 C   0  0  0  0  0  0  0  0  0  0  0  0
   12.7340    4.0030   22.3690 C   0  0  0  0  0  0  0  0  0  0  0  0
    3.4390   -6.9120   24.0320 S   0  0  0  0  0  0  0  0  0  0  0  0
    3.7530   -5.3690   24.9090 C   0  0  0  0  0  0  0  0  0  0  0  0
    2.0420   -7.2080   23.7890 O   0  0  0  0  0  0  0  0  0  0  0  0
    4.3090   -7.9340   24.5730 O   0  0  0  0  0  0  0  0  0  0  0  0
   12.5650    5.2970   22.8840 C   0  0  0  0  0  0  0  0  0  0  0  0
   11.3450    5.9970   22.4640 N   0  0  0  0  0  0  0  0  0  0  0  0
   10.4360    6.3630   23.3100 C   0  0  0  0  0  0  0  0  0  0  0  0
    9.0480    6.6990   22.6800 C   0  0  0  0  0  0  0  0  0  0  0  0
   10.5440    6.4590   24.5360 O   0  0  0  0  0  0  0  0  0  0  0  0
  1  2  1  0
  3  2  1  1
  1  4  1  0
  4  5  2  0
  4  6  1  0
  3  7  1  0
  5  8  1  0
  6  9  2  0
  3 10  1  0
  7 11  1  0
  8 12  2  0
  9 12  1  0
 10 13  2  0
 10 14  1  0
 12 15  1  0
 11 16  1  0
 14 16  1  0
 17 13  1  6
 14 18  2  0
 15 19  1  0
 20 15  1  6
 17 21  1  0
 17 22  1  0
 18 22  1  0
 19 23  2  0
 19 24  1  0
 20 25  1  0
 20 26  1  0
 22 27  2  0
 21 28  2  0
 27 28  1  0
 27 29  1  0
 26 30  1  0
 25 31  2  0
 30 31  1  0
 30 32  1  0
 30 33  1  0
 29 34  1  0
 34 35  1  0
 35 36  1  0
 36 37  1  0
 36 38  2  0
M  END
