x1375-x2694-x0426
     RDKit          3D

 61 66  0  0  0  0  0  0  0  0999 V2000
    7.7150   -0.9190   21.6960 N   0  0  0  0  0  0  0  0  0  0  0  0
    7.0060    0.3670   21.6530 C   0  0  1  0  0  0  0  0  0  0  0  0
    7.9750    1.5600   21.8590 C   0  0  0  0  0  0  0  0  0  0  0  0
    8.8120   -0.9060   22.5330 C   0  0  0  0  0  0  0  0  0  0  0  0
    6.3160    0.6690   20.3530 C   0  0  0  0  0  0  0  0  0  0  0  0
    8.7550   -0.7410   23.8650 N   0  0  0  0  0  0  0  0  0  0  0  0
   10.0620   -1.0450   22.0520 C   0  0  0  0  0  0  0  0  0  0  0  0
    7.6850    2.5680   22.7120 N   0  0  0  0  0  0  0  0  0  0  0  0
    9.0260    1.6880   21.2320 O   0  0  0  0  0  0  0  0  0  0  0  0
    5.2200    1.5280   20.3010 C   0  0  0  0  0  0  0  0  0  0  0  0
    6.8630    0.0330   19.1000 C   0  0  0  0  0  0  0  0  0  0  0  0
   10.1010   -0.7670   24.3140 O   0  0  0  0  0  0  0  0  0  0  0  0
   10.9450   -0.9410   23.2420 C   0  0  0  0  0  0  0  0  0  0  0  0
   12.4330   -0.9740   23.3050 C   0  0  0  0  0  0  0  0  0  0  0  0
    4.6570    2.1480   21.3490 C   0  0  0  0  0  0  0  0  0  0  0  0
    6.3320    0.2530   17.7740 N   0  0  0  0  0  0  0  0  0  0  0  0
    4.6350    1.7830   18.9280 C   0  0  0  0  0  0  0  0  0  0  0  0
    8.5690    3.5920   23.0320 C   0  0  0  0  0  0  0  0  0  0  0  0
   13.0360    0.2620   23.1870 C   0  0  0  0  0  0  0  0  0  0  0  0
   12.9180   -1.7720   22.0810 C   0  0  0  0  0  0  0  0  0  0  0  0
   13.0220   -1.6160   24.5690 C   0  0  0  0  0  0  0  0  0  0  0  0
    3.8690    1.3690   22.1820 C   0  0  0  0  0  0  0  0  0  0  0  0
    5.1950    1.1570   17.7080 C   0  0  0  0  0  0  0  0  0  0  0  0
    9.8040    3.3650   23.6090 C   0  0  0  0  0  0  0  0  0  0  0  0
    8.2420    4.9200   22.7830 C   0  0  0  0  0  0  0  0  0  0  0  0
   10.4160    2.0020   23.9890 C   0  0  0  0  0  0  0  0  0  0  0  0
    3.1610    2.2140   23.1480 N   0  0  0  0  0  0  0  0  0  0  0  0
   12.7130   -2.9810   24.8890 C   0  0  0  0  0  0  0  0  0  0  0  0
   10.6300    4.4250   23.9040 C   0  0  0  0  0  0  0  0  0  0  0  0
    9.0260    6.0670   23.0590 C   0  0  0  0  0  0  0  0  0  0  0  0
    2.2120    1.6010   23.8680 C   0  0  0  0  0  0  0  0  0  0  0  0
   11.3610   -3.1760   24.7870 C   0  0  0  0  0  0  0  0  0  0  0  0
   10.2940    5.8920   23.6540 C   0  0  0  0  0  0  0  0  0  0  0  0
   11.0510    6.9850   23.9360 O   0  0  0  0  0  0  0  0  0  0  0  0
    2.1270    0.3750   23.9880 O   0  0  0  0  0  0  0  0  0  0  0  0
   10.8260   -4.4480   25.2050 O   0  0  0  0  0  0  0  0  0  0  0  0
    1.1840    2.5230   24.5920 C   0  0  0  0  0  0  0  0  0  0  0  0
   11.8890    6.8690   25.0800 C   0  0  0  0  0  0  0  0  0  0  0  0
    1.4950    3.8800   25.2790 C   0  0  0  0  0  0  0  0  0  0  0  0
   -0.1280    2.0860   24.6250 C   0  0  0  0  0  0  0  0  0  0  0  0
    9.6820   -4.5780   24.4920 C   0  0  0  0  0  0  0  0  0  0  0  0
    2.7330    4.3940   25.3060 F   0  0  0  0  0  0  0  0  0  0  0  0
   -1.1210    2.8240   25.2440 C   0  0  0  0  0  0  0  0  0  0  0  0
    0.4430    4.5760   25.8870 C   0  0  0  0  0  0  0  0  0  0  0  0
    8.9490   -3.4500   24.1880 C   0  0  0  0  0  0  0  0  0  0  0  0
    9.2700   -5.8050   24.0660 C   0  0  0  0  0  0  0  0  0  0  0  0
   -0.8630    4.0470   25.8680 C   0  0  0  0  0  0  0  0  0  0  0  0
    7.8300   -3.5560   23.4320 C   0  0  0  0  0  0  0  0  0  0  0  0
    8.1100   -5.8970   23.2820 C   0  0  0  0  0  0  0  0  0  0  0  0
    7.3880   -4.7550   22.9530 C   0  0  0  0  0  0  0  0  0  0  0  0
    6.2150   -4.7650   22.1450 N   0  0  0  0  0  0  0  0  0  0  0  0
    6.2870   -4.5690   20.7560 C   0  0  0  0  0  0  0  0  0  0  0  0
    4.9700   -4.9220   22.9300 C   0  0  2  0  0  0  0  0  0  0  0  0
    5.5160   -5.1710   20.0300 O   0  0  0  0  0  0  0  0  0  0  0  0
    7.2900   -3.5250   20.1930 C   0  0  0  0  0  0  0  0  0  0  0  0
    5.1550   -4.6370   24.3490 C   0  0  0  0  0  0  0  0  0  0  0  0
    4.3350   -6.1450   22.7160 C   0  0  0  0  0  0  0  0  0  0  0  0
    3.8520   -6.6780   24.3150 S   0  0  0  0  0  0  0  0  0  0  0  0
    4.6080   -5.5000   25.2200 C   0  0  0  0  0  0  0  0  0  0  0  0
    2.4120   -6.6200   24.3610 O   0  0  0  0  0  0  0  0  0  0  0  0
    4.4990   -7.9400   24.5040 O   0  0  0  0  0  0  0  0  0  0  0  0
  2  1  1  6
  2  3  1  0
  1  4  1  0
  2  5  1  0
  4  6  2  0
  4  7  1  0
  3  8  1  0
  3  9  2  0
  5 10  1  0
  5 11  2  0
  6 12  1  0
  7 13  2  0
 12 13  1  0
 13 14  1  0
 10 15  1  0
 11 16  1  0
 10 17  2  0
  8 18  1  0
 14 19  1  0
 14 20  1  0
 14 21  1  0
 15 22  1  0
 16 23  2  0
 17 23  1  0
 18 24  2  0
 18 25  1  0
 24 26  1  0
 22 27  1  0
 21 28  1  0
 24 29  1  0
 25 30  2  0
 27 31  1  0
 28 32  1  0
 29 33  2  0
 30 33  1  0
 33 34  1  0
 31 35  2  0
 32 36  1  0
 31 37  1  0
 34 38  1  0
 37 39  2  0
 37 40  1  0
 36 41  1  0
 39 42  1  0
 40 43  2  0
 39 44  1  0
 41 45  2  0
 41 46  1  0
 43 47  1  0
 44 47  2  0
 45 48  1  0
 46 49  2  0
 48 50  2  0
 49 50  1  0
 50 51  1  0
 51 52  1  0
 53 51  1  6
 52 54  2  0
 52 55  1  0
 53 56  1  0
 53 57  1  0
 57 58  1  0
 56 59  2  0
 58 59  1  0
 58 60  1  0
 58 61  1  0
M  END
