x1374-x0540
     RDKit          3D

 39 42  0  0  0  0  0  0  0  0999 V2000
   10.6860   -4.3480   25.8090 C   0  0  0  0  0  0  0  0  0  0  0  0
    9.5170   -4.3750   24.9000 C   0  0  0  0  0  0  0  0  0  0  0  0
    9.0800   -5.5960   24.3990 C   0  0  0  0  0  0  0  0  0  0  0  0
    8.8720   -3.1870   24.5660 C   0  0  0  0  0  0  0  0  0  0  0  0
    7.7690   -3.2380   23.7290 C   0  0  0  0  0  0  0  0  0  0  0  0
    7.9770   -5.6360   23.5610 C   0  0  0  0  0  0  0  0  0  0  0  0
    7.3010   -4.4580   23.2220 C   0  0  0  0  0  0  0  0  0  0  0  0
    6.0700   -4.2780   22.3370 C   0  0  2  0  0  0  0  0  0  0  0  0
    6.5300   -4.3140   20.8440 C   0  0  0  0  0  0  0  0  0  0  0  0
    5.3320   -2.9080   22.5830 C   0  0  0  0  0  0  0  0  0  0  0  0
    4.9580   -5.1120   22.7330 C   0  0  2  0  0  0  0  0  0  0  0  0
    5.7240   -4.5520   19.9420 O   0  0  0  0  0  0  0  0  0  0  0  0
    8.0540   -4.0070   20.6950 C   0  0  0  0  0  0  0  0  0  0  0  0
    5.6780   -1.6500   21.8440 C   0  0  0  0  0  0  0  0  0  0  0  0
    4.1510   -4.6010   23.9360 C   0  0  0  0  0  0  0  0  0  0  0  0
    5.2580   -6.4780   23.1200 C   0  0  0  0  0  0  0  0  0  0  0  0
    4.9580   -0.4300   22.3850 C   0  0  0  0  0  0  0  0  0  0  0  0
    3.7700   -7.1110   23.9090 S   0  0  0  0  0  0  0  0  0  0  0  0
    3.4580   -5.5530   24.6790 C   0  0  0  0  0  0  0  0  0  0  0  0
    2.7900   -7.4840   22.9190 O   0  0  0  0  0  0  0  0  0  0  0  0
    4.0970   -8.0340   24.9600 O   0  0  0  0  0  0  0  0  0  0  0  0
    5.7000    0.8370   21.9910 C   0  0  2  0  0  0  0  0  0  0  0  0
    5.1850    2.0100   22.5690 C   0  0  0  0  0  0  0  0  0  0  0  0
    5.7710    0.7970   20.5030 C   0  0  0  0  0  0  0  0  0  0  0  0
    3.8280    2.3440   22.3860 N   0  0  0  0  0  0  0  0  0  0  0  0
    6.7470   -0.0430   19.9800 C   0  0  0  0  0  0  0  0  0  0  0  0
    4.8970    1.5600   19.7010 C   0  0  0  0  0  0  0  0  0  0  0  0
    2.8370    2.3210   23.4610 C   0  0  0  0  0  0  0  0  0  0  0  0
    6.9570   -0.2160   18.5070 C   0  0  0  0  0  0  0  0  0  0  0  0
    5.1340    1.3750   18.1880 C   0  0  0  0  0  0  0  0  0  0  0  0
    2.8600    1.5430   24.4280 O   0  0  0  0  0  0  0  0  0  0  0  0
    1.8700    3.2920   23.2350 N   0  0  0  0  0  0  0  0  0  0  0  0
    6.1200    0.5240   17.5930 N   0  0  0  0  0  0  0  0  0  0  0  0
    0.6460    3.3850   24.0240 C   0  0  0  0  0  0  0  0  0  0  0  0
    0.5880    4.6700   24.5810 C   0  0  0  0  0  0  0  0  0  0  0  0
   -0.4160    3.0680   23.1830 C   0  0  0  0  0  0  0  0  0  0  0  0
   -0.6500    4.9190   25.1760 C   0  0  0  0  0  0  0  0  0  0  0  0
   -1.8180    3.2370   23.8170 C   0  0  0  0  0  0  0  0  0  0  0  0
   -1.8370    4.5590   24.2680 C   0  0  0  0  0  0  0  0  0  0  0  0
  1  2  1  0
  2  3  2  0
  2  4  1  0
  4  5  2  0
  3  6  1  0
  5  7  1  0
  6  7  2  0
  7  8  1  0
  8  9  1  0
  8 10  1  1
  8 11  1  0
  9 12  2  0
  9 13  1  0
 10 14  1  0
 11 15  1  1
 11 16  1  0
 14 17  1  0
 16 18  1  0
 15 19  2  0
 18 19  1  0
 18 20  1  0
 18 21  1  0
 22 17  1  6
 22 23  1  0
 22 24  1  0
 23 25  1  0
 24 26  2  0
 24 27  1  0
 25 28  1  0
 26 29  1  0
 27 30  2  0
 28 31  2  0
 28 32  1  0
 29 33  2  0
 30 33  1  0
 32 34  1  0
 34 35  1  0
 34 36  1  0
 35 37  1  0
 36 38  1  0
 37 39  1  0
 38 39  1  0
M  END
