x1375-x2910
     RDKit          3D

 44 49  0  0  0  0  0  0  0  0999 V2000
    6.8700   -1.1560   22.6120 N   0  0  0  0  0  0  0  0  0  0  0  0
    7.6890   -2.2960   22.4770 C   0  0  2  0  0  0  0  0  0  0  0  0
    8.9890   -1.8420   21.7740 C   0  0  0  0  0  0  0  0  0  0  0  0
    5.7500   -1.1340   21.5910 C   0  0  0  0  0  0  0  0  0  0  0  0
    4.7510   -2.1470   21.6160 O   0  0  0  0  0  0  0  0  0  0  0  0
    6.6590   -3.1460   22.1400 C   0  0  0  0  0  0  0  0  0  0  0  0
    5.5200   -0.1290   20.4620 C   0  0  0  0  0  0  0  0  0  0  0  0
    8.3440   -3.2530   23.4670 C   0  0  0  0  0  0  0  0  0  0  0  0
    9.4510   -1.1000   22.6400 O   0  0  0  0  0  0  0  0  0  0  0  0
    6.6550   -4.5270   22.2320 C   0  0  2  0  0  0  0  0  0  0  0  0
    4.4180    0.6910   20.6150 C   0  0  0  0  0  0  0  0  0  0  0  0
    6.2820    0.0130   19.3010 C   0  0  0  0  0  0  0  0  0  0  0  0
    9.3760   -3.1610   24.4690 C   0  0  0  0  0  0  0  0  0  0  0  0
    7.7410   -4.5710   23.2320 C   0  0  0  0  0  0  0  0  0  0  0  0
    6.8730   -4.6410   20.7350 C   0  0  0  0  0  0  0  0  0  0  0  0
   10.7650   -0.7280   22.6030 C   0  0  0  0  0  0  0  0  0  0  0  0
    3.9440    1.6550   19.7790 C   0  0  0  0  0  0  0  0  0  0  0  0
    5.9050    0.9740   18.3480 C   0  0  0  0  0  0  0  0  0  0  0  0
    3.6170    0.4960   21.8880 C   0  0  0  0  0  0  0  0  0  0  0  0
    9.7970   -4.2530   25.1560 C   0  0  0  0  0  0  0  0  0  0  0  0
    8.2310   -5.7450   23.9880 C   0  0  0  0  0  0  0  0  0  0  0  0
    5.2750   -4.9800   22.7690 C   0  0  2  0  0  0  0  0  0  0  0  0
    6.6090    1.1850   17.1480 O   0  0  0  0  0  0  0  0  0  0  0  0
    5.9760   -5.1340   20.0310 O   0  0  0  0  0  0  0  0  0  0  0  0
    8.2160   -3.9720   20.3650 C   0  0  0  0  0  0  0  0  0  0  0  0
   10.7590   -4.1520   26.0750 F   0  0  0  0  0  0  0  0  0  0  0  0
   11.1340    0.6770   23.0110 C   0  0  0  0  0  0  0  0  0  0  0  0
   11.7200   -1.6630   22.1970 C   0  0  0  0  0  0  0  0  0  0  0  0
    4.7390    1.8100   18.5700 N   0  0  0  0  0  0  0  0  0  0  0  0
    2.9090    2.4190   19.9220 C   0  0  0  0  0  0  0  0  0  0  0  0
    2.3980    1.4080   22.0440 C   0  0  0  0  0  0  0  0  0  0  0  0
    9.2020   -5.6090   24.8980 C   0  0  0  0  0  0  0  0  0  0  0  0
    4.9890   -4.4710   24.0200 C   0  0  0  0  0  0  0  0  0  0  0  0
    5.0740   -6.3420   22.7250 C   0  0  0  0  0  0  0  0  0  0  0  0
    9.9940    1.4400   23.3740 O   0  0  0  0  0  0  0  0  0  0  0  0
   12.9900   -1.2490   22.1830 C   0  0  0  0  0  0  0  0  0  0  0  0
   12.4390    1.1140   23.0040 C   0  0  0  0  0  0  0  0  0  0  0  0
    2.0890    2.3520   21.0280 C   0  0  0  0  0  0  0  0  0  0  0  0
    3.9870   -6.7080   24.0800 S   0  0  0  0  0  0  0  0  0  0  0  0
    4.3010   -5.2020   24.9030 C   0  0  0  0  0  0  0  0  0  0  0  0
   10.0180    2.8070   22.8760 C   0  0  0  0  0  0  0  0  0  0  0  0
    2.4740   -6.8420   23.5830 O   0  0  0  0  0  0  0  0  0  0  0  0
    4.4200   -7.8330   24.8590 O   0  0  0  0  0  0  0  0  0  0  0  0
   13.3430    0.1550   22.5920 C   0  0  0  0  0  0  0  0  0  0  0  0
  2  1  1  0
  2  3  1  6
  1  4  1  0
  4  5  2  0
  2  6  1  0
  4  7  1  0
  2  8  1  0
  3  9  1  0
  6 10  1  0
  7 11  1  0
  7 12  2  0
  8 13  2  0
  8 14  1  0
 10 14  1  0
 10 15  1  6
  9 16  1  0
 11 17  2  0
 12 18  1  0
 11 19  1  0
 13 20  1  0
 14 21  2  0
 10 22  1  0
 18 23  1  0
 15 24  2  0
 15 25  1  0
 20 26  1  0
 16 27  2  0
 16 28  1  0
 17 29  1  0
 18 29  2  0
 17 30  1  0
 19 31  2  0
 20 32  2  0
 21 32  1  0
 22 33  1  1
 22 34  1  0
 27 35  1  0
 28 36  2  0
 27 37  1  0
 30 38  2  0
 31 38  1  0
 34 39  1  0
 33 40  2  0
 39 40  1  0
 35 41  1  0
 39 42  1  0
 39 43  1  0
 36 44  1  0
 37 44  2  0
M  END
