x1374-x2964
     RDKit          3D

 39 42  0  0  0  0  0  0  0  0999 V2000
   10.4990   -3.6470   25.9810 C   0  0  0  0  0  0  0  0  0  0  0  0
    9.5810   -4.3020   25.0450 C   0  0  0  0  0  0  0  0  0  0  0  0
    9.5940   -5.6210   24.6820 C   0  0  0  0  0  0  0  0  0  0  0  0
    8.5330   -3.3520   24.4670 C   0  0  0  0  0  0  0  0  0  0  0  0
    7.5110   -3.8770   23.4970 C   0  0  0  0  0  0  0  0  0  0  0  0
    8.6710   -6.0820   23.7890 C   0  0  0  0  0  0  0  0  0  0  0  0
    6.4360   -3.0990   22.8670 C   0  0  2  0  0  0  0  0  0  0  0  0
    7.6230   -5.2080   23.1970 C   0  0  0  0  0  0  0  0  0  0  0  0
    5.7290   -4.1090   22.0990 N   0  0  0  0  0  0  0  0  0  0  0  0
    6.7890   -1.9550   21.9170 C   0  0  0  0  0  0  0  0  0  0  0  0
    6.3240   -4.3750   20.8730 C   0  0  0  0  0  0  0  0  0  0  0  0
    6.3640   -0.6100   22.4570 C   0  0  0  0  0  0  0  0  0  0  0  0
    4.7540   -4.8970   22.7250 C   0  0  2  0  0  0  0  0  0  0  0  0
    5.5530   -4.5700   19.9360 O   0  0  0  0  0  0  0  0  0  0  0  0
    7.8980   -4.3880   20.8150 C   0  0  0  0  0  0  0  0  0  0  0  0
    7.0010    0.3790   21.6090 N   0  0  0  0  0  0  0  0  0  0  0  0
    4.5720   -4.4630   24.0510 C   0  0  0  0  0  0  0  0  0  0  0  0
    4.9480   -6.3090   22.6720 C   0  0  0  0  0  0  0  0  0  0  0  0
    8.2270    0.5720   21.8060 C   0  0  0  0  0  0  0  0  0  0  0  0
    3.8360   -6.7820   23.9880 S   0  0  0  0  0  0  0  0  0  0  0  0
    4.0590   -5.3890   24.8560 C   0  0  0  0  0  0  0  0  0  0  0  0
    6.4310    0.5790   20.3100 C   0  0  0  0  0  0  0  0  0  0  0  0
    2.4760   -6.8230   23.4750 O   0  0  0  0  0  0  0  0  0  0  0  0
    4.3230   -7.8820   24.7910 O   0  0  0  0  0  0  0  0  0  0  0  0
    8.9430    1.6400   21.1520 O   0  0  0  0  0  0  0  0  0  0  0  0
    8.8880   -0.3610   22.7230 N   0  0  0  0  0  0  0  0  0  0  0  0
    5.2790    1.3480   20.2870 C   0  0  0  0  0  0  0  0  0  0  0  0
    6.9420    0.0580   18.9930 C   0  0  0  0  0  0  0  0  0  0  0  0
    4.5660    1.6670   18.9960 C   0  0  0  0  0  0  0  0  0  0  0  0
    6.2410    0.3900   17.7590 N   0  0  0  0  0  0  0  0  0  0  0  0
   10.2930   -0.2320   22.8300 C   0  0  0  0  0  0  0  0  0  0  0  0
    3.3470    2.4760   18.9640 N   0  0  0  0  0  0  0  0  0  0  0  0
    5.1080    1.1690   17.8310 C   0  0  0  0  0  0  0  0  0  0  0  0
   10.7620    0.7320   23.6770 C   0  0  0  0  0  0  0  0  0  0  0  0
   11.1000   -1.0320   22.0800 C   0  0  0  0  0  0  0  0  0  0  0  0
   12.0780    0.9180   23.7670 C   0  0  0  0  0  0  0  0  0  0  0  0
   12.4470   -0.8970   22.1170 C   0  0  0  0  0  0  0  0  0  0  0  0
   13.4140   -1.8430   21.1580 Cl  0  0  0  0  0  0  0  0  0  0  0  0
   12.9780    0.1770   23.0430 C   0  0  0  0  0  0  0  0  0  0  0  0
  1  2  1  0
  2  3  2  0
  2  4  1  0
  4  5  2  0
  3  6  1  0
  5  7  1  0
  5  8  1  0
  6  8  2  0
  7  9  1  0
  7 10  1  6
  9 11  1  0
 10 12  1  0
 13  9  1  1
 11 14  2  0
 11 15  1  0
 12 16  1  0
 13 17  1  0
 13 18  1  0
 16 19  1  0
 18 20  1  0
 17 21  2  0
 20 21  1  0
 16 22  1  0
 20 23  1  0
 20 24  1  0
 19 25  2  0
 19 26  1  0
 22 27  2  0
 22 28  1  0
 27 29  1  0
 28 30  2  0
 26 31  1  0
 29 32  1  0
 29 33  2  0
 30 33  1  0
 31 34  2  0
 31 35  1  0
 34 36  1  0
 35 37  2  0
 37 38  1  0
 36 39  2  0
 37 39  1  0
M  END
