x1380-x0426
     RDKit          3D

 38 41  0  0  0  0  0  0  0  0999 V2000
    7.2250   -3.3120   19.4780 C   0  0  0  0  0  0  0  0  0  0  0  0
    6.4560   -4.0510   20.2930 C   0  0  0  0  0  0  0  0  0  0  0  0
    5.3950   -4.5260   19.8920 O   0  0  0  0  0  0  0  0  0  0  0  0
    6.8400   -4.3360   21.6160 N   0  0  0  0  0  0  0  0  0  0  0  0
    6.3750   -5.3470   22.3530 C   0  0  0  0  0  0  0  0  0  0  0  0
    8.0420   -3.7640   22.2870 C   0  0  0  0  0  0  0  0  0  0  0  0
    6.0840   -4.9680   23.6650 C   0  0  0  0  0  0  0  0  0  0  0  0
    7.6480   -3.1490   23.4240 C   0  0  0  0  0  0  0  0  0  0  0  0
    6.9720   -4.0480   24.2940 C   0  0  0  0  0  0  0  0  0  0  0  0
    6.3230   -3.3300   25.3620 C   0  0  0  0  0  0  0  0  0  0  0  0
    5.3570   -2.3710   25.1230 N   0  0  0  0  0  0  0  0  0  0  0  0
    6.6680   -3.5530   26.7810 N   0  0  0  0  0  0  0  0  0  0  0  0
    4.9930   -2.0630   23.7280 C   0  0  0  0  0  0  0  0  0  0  0  0
    7.8870   -4.0700   27.1590 C   0  0  0  0  0  0  0  0  0  0  0  0
    5.6520   -3.7010   27.6500 C   0  0  0  0  0  0  0  0  0  0  0  0
    3.8710   -1.2670   23.7460 C   0  0  0  0  0  0  0  0  0  0  0  0
    8.0200   -5.2980   27.7600 C   0  0  0  0  0  0  0  0  0  0  0  0
    5.6220   -5.0080   28.4320 C   0  0  0  0  0  0  0  0  0  0  0  0
    4.1500    0.1150   24.5160 C   0  0  0  0  0  0  0  0  0  0  0  0
    6.9070   -5.4510   28.8350 C   0  0  0  0  0  0  0  0  0  0  0  0
    2.9860    0.9030   24.7820 N   0  0  0  0  0  0  0  0  0  0  0  0
    2.5790    2.0130   24.0500 C   0  0  0  0  0  0  0  0  0  0  0  0
    3.2180    2.3670   23.1210 N   0  0  0  0  0  0  0  0  0  0  0  0
    1.3600    2.7210   24.5830 C   0  0  0  0  0  0  0  0  0  0  0  0
    3.5900    1.3840   22.2140 C   0  0  0  0  0  0  0  0  0  0  0  0
    1.4750    3.9720   25.2120 C   0  0  0  0  0  0  0  0  0  0  0  0
   -0.0560    2.0970   24.4760 C   0  0  0  0  0  0  0  0  0  0  0  0
    3.4540    1.7710   20.8880 C   0  0  0  0  0  0  0  0  0  0  0  0
    2.6690    4.5810   25.3480 F   0  0  0  0  0  0  0  0  0  0  0  0
   -1.1600    2.8100   25.0130 C   0  0  0  0  0  0  0  0  0  0  0  0
    0.2420    4.6240   25.7370 C   0  0  0  0  0  0  0  0  0  0  0  0
   -0.9970    4.0500   25.6310 C   0  0  0  0  0  0  0  0  0  0  0  0
    4.5540    1.2500   19.9620 C   0  0  0  0  0  0  0  0  0  0  0  0
    5.6300    0.2030   20.3880 C   0  0  0  0  0  0  0  0  0  0  0  0
    4.5900    1.7470   18.6560 C   0  0  0  0  0  0  0  0  0  0  0  0
    6.5410   -0.1280   19.3720 C   0  0  0  0  0  0  0  0  0  0  0  0
    5.5480    1.3240   17.7660 C   0  0  0  0  0  0  0  0  0  0  0  0
    6.5080    0.4320   18.0330 N   0  0  0  0  0  0  0  0  0  0  0  0
  1  2  1  0
  2  3  2  0
  2  4  1  0
  4  5  1  0
  4  6  1  0
  5  7  1  0
  6  8  1  0
  7  9  1  0
  8  9  1  0
  9 10  1  0
 10 11  2  3
 10 12  1  0
 11 13  1  0
 12 14  1  0
 12 15  1  0
 13 16  1  0
 14 17  1  0
 15 18  1  0
 16 19  1  0
 17 20  1  0
 18 20  1  0
 19 21  1  0
 21 22  2  3
 22 23  1  0
 22 24  1  0
 23 25  1  0
 24 26  2  0
 24 27  1  0
 25 28  1  0
 26 29  1  0
 27 30  2  0
 26 31  1  0
 30 32  1  0
 31 32  2  0
 28 33  1  0
 33 34  2  0
 33 35  1  0
 34 36  1  0
 35 37  2  0
 36 38  2  0
 37 38  1  0
M  END
