x1380-x0831
     RDKit          3D

 30 33  0  0  0  0  0  0  0  0999 V2000
    6.9770   -3.4580   19.2030 C   0  0  0  0  0  0  0  0  0  0  0  0
    6.1960   -4.2760   20.2510 C   0  0  0  0  0  0  0  0  0  0  0  0
    5.3060   -5.0450   19.9690 O   0  0  0  0  0  0  0  0  0  0  0  0
    6.5890   -4.0980   21.5330 N   0  0  0  0  0  0  0  0  0  0  0  0
    6.6130   -5.1770   22.5030 C   0  0  0  0  0  0  0  0  0  0  0  0
    7.0630   -2.8390   21.8780 C   0  0  2  0  0  0  0  0  0  0  0  0
    6.8970   -4.8930   23.8730 C   0  0  0  0  0  0  0  0  0  0  0  0
    7.0380   -2.4400   23.1410 C   0  0  1  0  0  0  0  0  0  0  0  0
    6.1760   -1.9270   21.1340 N   0  0  0  0  0  0  0  0  0  0  0  0
    6.3670   -3.4720   24.0450 C   0  0  2  0  0  0  0  0  0  0  0  0
    6.8080   -0.7960   20.8130 C   0  0  0  0  0  0  0  0  0  0  0  0
    8.1870   -1.5580   23.5260 N   0  0  0  0  0  0  0  0  0  0  0  0
    6.0790   -3.0520   25.5160 C   0  0  0  0  0  0  0  0  0  0  0  0
    9.5760   -2.0970   23.6330 C   0  0  0  0  0  0  0  0  0  0  0  0
    7.1740   -0.0260   21.8950 C   0  0  0  0  0  0  0  0  0  0  0  0
    8.2970   -0.5510   22.5480 C   0  0  0  0  0  0  0  0  0  0  0  0
    5.4210   -2.0350   25.6650 O   0  0  0  0  0  0  0  0  0  0  0  0
    6.5050   -3.8390   26.6470 N   0  0  0  0  0  0  0  0  0  0  0  0
   10.6470   -0.9950   23.4880 C   0  0  0  0  0  0  0  0  0  0  0  0
    7.9280   -4.1170   26.9060 C   0  0  0  0  0  0  0  0  0  0  0  0
    5.6780   -3.8170   27.8360 C   0  0  0  0  0  0  0  0  0  0  0  0
   11.8590   -1.0600   22.7450 C   0  0  0  0  0  0  0  0  0  0  0  0
   10.3460    0.1810   24.1700 C   0  0  0  0  0  0  0  0  0  0  0  0
   12.3110   -2.2540   21.9630 C   0  0  0  0  0  0  0  0  0  0  0  0
    8.0960   -5.4800   27.5560 C   0  0  0  0  0  0  0  0  0  0  0  0
    5.9600   -4.9930   28.5070 C   0  0  0  0  0  0  0  0  0  0  0  0
   11.1670    1.2800   24.1390 C   0  0  0  0  0  0  0  0  0  0  0  0
   12.6940    0.0780   22.7400 C   0  0  0  0  0  0  0  0  0  0  0  0
    7.2600   -5.3550   28.6720 C   0  0  0  0  0  0  0  0  0  0  0  0
   12.3580    1.2380   23.4200 C   0  0  0  0  0  0  0  0  0  0  0  0
  1  2  1  0
  2  3  2  0
  2  4  1  0
  4  5  1  0
  4  6  1  0
  5  7  1  0
  6  8  1  0
  6  9  1  6
  7 10  1  0
  8 10  1  0
  9 11  1  0
  8 12  1  1
 10 13  1  1
 12 14  1  0
 11 15  1  0
 12 16  1  0
 15 16  1  0
 13 17  2  0
 13 18  1  0
 14 19  1  0
 18 20  1  0
 18 21  1  0
 19 22  2  0
 19 23  1  0
 22 24  1  0
 20 25  1  0
 21 26  1  0
 23 27  2  0
 22 28  1  0
 25 29  1  0
 26 29  1  0
 27 30  1  0
 28 30  2  0
M  END
