x1380-x0678
     RDKit          3D

 34 37  0  0  0  0  0  0  0  0999 V2000
    7.3880   -3.2770   19.3160 C   0  0  0  0  0  0  0  0  0  0  0  0
    6.4490   -4.0660   20.2080 C   0  0  0  0  0  0  0  0  0  0  0  0
    5.3210   -4.3440   19.8190 O   0  0  0  0  0  0  0  0  0  0  0  0
    6.9070   -4.5320   21.4170 N   0  0  0  0  0  0  0  0  0  0  0  0
    6.0730   -5.3400   22.2900 C   0  0  0  0  0  0  0  0  0  0  0  0
    7.9170   -3.7090   22.1690 C   0  0  0  0  0  0  0  0  0  0  0  0
    5.4900   -4.3510   23.2840 C   0  0  0  0  0  0  0  0  0  0  0  0
    7.3000   -2.6950   23.1950 C   0  0  1  0  0  0  0  0  0  0  0  0
    6.5840   -1.5040   22.4260 C   0  0  0  0  0  0  0  0  0  0  0  0
    6.6340   -3.6920   24.0080 C   0  0  1  0  0  0  0  0  0  0  0  0
    6.0580   -3.0810   25.3670 C   0  0  0  0  0  0  0  0  0  0  0  0
    7.2470   -0.8000   21.6770 N   0  0  0  0  0  0  0  0  0  0  0  0
    5.1060   -2.3140   25.3430 O   0  0  0  0  0  0  0  0  0  0  0  0
    8.5750   -0.1980   21.9690 C   0  0  0  0  0  0  0  0  0  0  0  0
    6.6760   -3.4940   26.6540 N   0  0  0  0  0  0  0  0  0  0  0  0
    6.6180   -0.1660   20.5110 C   0  0  0  0  0  0  0  0  0  0  0  0
    8.9430    0.8430   21.4000 O   0  0  0  0  0  0  0  0  0  0  0  0
    9.5510   -0.8720   23.0140 C   0  0  0  0  0  0  0  0  0  0  0  0
    7.9470   -4.2250   26.8780 C   0  0  0  0  0  0  0  0  0  0  0  0
    5.7890   -3.2630   27.8050 C   0  0  0  0  0  0  0  0  0  0  0  0
    5.4760    0.6500   20.5900 C   0  0  0  0  0  0  0  0  0  0  0  0
    7.2000   -0.3720   19.1490 C   0  0  0  0  0  0  0  0  0  0  0  0
    8.1320   -4.8980   28.0750 C   0  0  0  0  0  0  0  0  0  0  0  0
    6.0900   -4.0740   28.9070 C   0  0  0  0  0  0  0  0  0  0  0  0
   10.9460   -0.2760   23.0380 C   0  0  0  0  0  0  0  0  0  0  0  0
    4.8400    1.2870   19.5100 C   0  0  0  0  0  0  0  0  0  0  0  0
    6.5900    0.2680   17.9910 N   0  0  0  0  0  0  0  0  0  0  0  0
    6.9320   -5.1750   28.7190 C   0  0  0  0  0  0  0  0  0  0  0  0
   11.7780   -1.0770   22.2720 C   0  0  0  0  0  0  0  0  0  0  0  0
   11.4670    0.0240   24.2940 C   0  0  0  0  0  0  0  0  0  0  0  0
    5.4090    1.0880   18.2160 C   0  0  0  0  0  0  0  0  0  0  0  0
   12.5050   -2.0630   22.8980 C   0  0  0  0  0  0  0  0  0  0  0  0
   12.4280   -0.8630   24.7910 C   0  0  0  0  0  0  0  0  0  0  0  0
   13.2780   -1.4330   23.8530 C   0  0  0  0  0  0  0  0  0  0  0  0
  1  2  1  0
  2  3  2  0
  2  4  1  0
  4  5  1  0
  4  6  1  0
  5  7  1  0
  6  8  1  0
  8  9  1  6
  7 10  1  0
  8 10  1  0
 10 11  1  1
  9 12  1  0
 11 13  2  0
 12 14  1  0
 11 15  1  0
 12 16  1  0
 14 17  2  0
 14 18  1  0
 15 19  1  0
 15 20  1  0
 16 21  2  0
 16 22  1  0
 19 23  1  0
 20 24  1  0
 18 25  1  0
 21 26  1  0
 22 27  2  0
 23 28  1  0
 24 28  1  0
 25 29  1  0
 25 30  1  0
 26 31  2  0
 27 31  1  0
 29 32  1  0
 30 33  1  0
 32 34  1  0
 33 34  1  0
M  END
