x1382-x2754
     RDKit          3D

 31 34  0  0  0  0  0  0  0  0999 V2000
    4.8640   -3.0920   25.2240 C   0  0  0  0  0  0  0  0  0  0  0  0
    5.6930   -2.7650   26.3810 N   0  0  0  0  0  0  0  0  0  0  0  0
    4.9260   -2.2500   27.5100 C   0  0  0  0  0  0  0  0  0  0  0  0
    3.4230   -3.1200   25.2860 O   0  0  0  0  0  0  0  0  0  0  0  0
    5.5910   -3.3960   23.9320 C   0  0  1  0  0  0  0  0  0  0  0  0
    6.9420   -3.0400   23.9540 C   0  0  0  0  0  0  0  0  0  0  0  0
    5.4560   -4.7930   23.5950 C   0  0  0  0  0  0  0  0  0  0  0  0
    6.8670   -3.4980   26.7260 C   0  0  0  0  0  0  0  0  0  0  0  0
    7.6800   -3.2170   22.6230 C   0  0  2  0  0  0  0  0  0  0  0  0
    6.2560   -5.1860   22.3600 C   0  0  0  0  0  0  0  0  0  0  0  0
    6.8660   -4.6540   27.4670 C   0  0  0  0  0  0  0  0  0  0  0  0
    8.1290   -3.0690   26.3110 C   0  0  0  0  0  0  0  0  0  0  0  0
    8.3040   -1.8220   22.3220 C   0  0  2  0  0  0  0  0  0  0  0  0
    6.7770   -4.0050   21.6920 N   0  0  0  0  0  0  0  0  0  0  0  0
    8.0600   -5.3050   27.7540 C   0  0  0  0  0  0  0  0  0  0  0  0
    9.3760   -3.6700   26.5550 C   0  0  0  0  0  0  0  0  0  0  0  0
    6.3890   -3.9100   20.3240 C   0  0  0  0  0  0  0  0  0  0  0  0
    7.4370   -0.6340   22.7010 C   0  0  0  0  0  0  0  0  0  0  0  0
    8.5770   -1.9430   20.9930 N   0  0  0  0  0  0  0  0  0  0  0  0
    9.4470   -4.8480   27.3070 C   0  0  0  0  0  0  0  0  0  0  0  0
    9.7570   -1.3610   22.7270 C   0  0  0  0  0  0  0  0  0  0  0  0
    5.3800   -4.5020   19.9160 O   0  0  0  0  0  0  0  0  0  0  0  0
    7.2510   -3.1300   19.3420 C   0  0  0  0  0  0  0  0  0  0  0  0
    7.5150   -1.7680   20.0340 C   0  0  0  0  0  0  0  0  0  0  0  0
   10.8070   -1.8890   21.9800 C   0  0  0  0  0  0  0  0  0  0  0  0
    9.9690   -0.4290   23.7740 C   0  0  0  0  0  0  0  0  0  0  0  0
    6.9930   -0.6780   19.8650 O   0  0  0  0  0  0  0  0  0  0  0  0
   12.1140   -1.5000   22.2310 C   0  0  0  0  0  0  0  0  0  0  0  0
   11.4590   -0.0440   23.9970 C   0  0  0  0  0  0  0  0  0  0  0  0
   13.2570   -2.2120   21.2230 Cl  0  0  0  0  0  0  0  0  0  0  0  0
   12.4650   -0.6000   23.2090 C   0  0  0  0  0  0  0  0  0  0  0  0
  1  2  1  0
  2  3  1  0
  1  4  2  0
  5  1  1  1
  5  6  1  0
  5  7  1  0
  2  8  1  0
  9  6  1  1
  7 10  1  0
  8 11  2  0
  8 12  1  0
  9 13  1  0
  9 14  1  0
 10 14  1  0
 11 15  1  0
 12 16  2  0
 14 17  1  0
 13 18  1  6
 13 19  1  0
 15 20  2  0
 16 20  1  0
 13 21  1  0
 17 22  2  0
 17 23  1  0
 19 24  1  0
 23 24  1  0
 21 25  2  0
 21 26  1  0
 24 27  2  0
 25 28  1  0
 26 29  2  0
 28 30  1  0
 28 31  2  0
 29 31  1  0
M  END
