x1380-x0967-x0946
     RDKit          3D

 47 50  0  0  0  0  0  0  0  0999 V2000
    8.3510    4.8700   22.8460 C   0  0  0  0  0  0  0  0  0  0  0  0
    7.5040    3.6040   23.2530 C   0  0  0  0  0  0  0  0  0  0  0  0
    7.8880    2.4690   22.5810 N   0  0  0  0  0  0  0  0  0  0  0  0
    9.9470    5.1110   23.6630 S   0  0  0  0  0  0  0  0  0  0  0  0
    6.5910    3.6490   24.0770 O   0  0  0  0  0  0  0  0  0  0  0  0
    9.7260    5.3790   25.0640 O   0  0  0  0  0  0  0  0  0  0  0  0
   10.7270    6.1020   22.9470 O   0  0  0  0  0  0  0  0  0  0  0  0
   10.8770    3.5880   23.5240 C   0  0  0  0  0  0  0  0  0  0  0  0
    7.7360    1.1320   23.1710 C   0  0  1  0  0  0  0  0  0  0  0  0
   12.1430    3.5890   22.9610 C   0  0  0  0  0  0  0  0  0  0  0  0
   10.3540    2.3650   23.9840 C   0  0  0  0  0  0  0  0  0  0  0  0
    6.3630    0.5490   22.7830 C   0  0  0  0  0  0  0  0  0  0  0  0
    8.8670    0.2310   22.6380 C   0  0  0  0  0  0  0  0  0  0  0  0
   12.8980    2.4450   22.8380 C   0  0  0  0  0  0  0  0  0  0  0  0
   11.2290    1.1070   23.8250 C   0  0  0  0  0  0  0  0  0  0  0  0
    9.0440   -1.1800   23.0650 N   0  0  0  0  0  0  0  0  0  0  0  0
    9.8030    0.7460   21.7060 O   0  0  0  0  0  0  0  0  0  0  0  0
    6.1370    0.6840   21.2520 C   0  0  0  0  0  0  0  0  0  0  0  0
   12.4860    1.2390   23.2410 C   0  0  0  0  0  0  0  0  0  0  0  0
    9.9120   -1.9020   22.1300 C   0  0  0  0  0  0  0  0  0  0  0  0
    8.0690   -1.9350   23.9160 C   0  0  0  0  0  0  0  0  0  0  0  0
    7.0280   -0.2280   20.4560 C   0  0  0  0  0  0  0  0  0  0  0  0
    5.2280    1.5400   20.6940 C   0  0  0  0  0  0  0  0  0  0  0  0
   11.2010   -1.3730   22.1060 C   0  0  0  0  0  0  0  0  0  0  0  0
    6.8970   -0.1860   18.9370 C   0  0  0  0  0  0  0  0  0  0  0  0
    5.0300    1.6490   19.1600 C   0  0  0  0  0  0  0  0  0  0  0  0
    7.0910   -2.9630   23.2670 C   0  0  2  0  0  0  0  0  0  0  0  0
   12.1330   -1.7770   23.0660 C   0  0  0  0  0  0  0  0  0  0  0  0
    5.8450    0.8110   18.3690 C   0  0  0  0  0  0  0  0  0  0  0  0
    6.6540   -3.9960   24.1100 C   0  0  1  0  0  0  0  0  0  0  0  0
    7.6570   -3.4380   22.1220 C   0  0  0  0  0  0  0  0  0  0  0  0
    5.7420    0.8450   17.0460 O   0  0  0  0  0  0  0  0  0  0  0  0
   13.3280   -2.3340   24.4200 Br  0  0  0  0  0  0  0  0  0  0  0  0
    6.0380   -3.4320   25.4190 C   0  0  0  0  0  0  0  0  0  0  0  0
    6.7660   -4.4020   21.5410 N   0  0  0  0  0  0  0  0  0  0  0  0
    5.7040   -4.8400   23.5100 C   0  0  0  0  0  0  0  0  0  0  0  0
    6.2220   -4.2290   20.2810 C   0  0  0  0  0  0  0  0  0  0  0  0
    4.9240   -2.9010   25.3790 O   0  0  0  0  0  0  0  0  0  0  0  0
    6.2350   -5.4590   22.3720 C   0  0  0  0  0  0  0  0  0  0  0  0
    6.7330   -3.5270   26.6110 N   0  0  0  0  0  0  0  0  0  0  0  0
    6.9690   -3.3120   19.3260 C   0  0  0  0  0  0  0  0  0  0  0  0
    5.2190   -4.8270   19.9460 O   0  0  0  0  0  0  0  0  0  0  0  0
    7.9710   -4.3070   26.7840 C   0  0  0  0  0  0  0  0  0  0  0  0
    5.9940   -3.3510   27.8610 C   0  0  0  0  0  0  0  0  0  0  0  0
    7.8540   -5.6490   27.5290 C   0  0  0  0  0  0  0  0  0  0  0  0
    5.8410   -4.7100   28.5400 C   0  0  0  0  0  0  0  0  0  0  0  0
    6.9950   -5.4410   28.7670 C   0  0  0  0  0  0  0  0  0  0  0  0
  1  2  1  0
  2  3  1  0
  4  1  1  0
  2  5  2  0
  4  6  2  0
  4  7  2  0
  4  8  1  0
  3  9  1  0
  8 10  2  0
  8 11  1  0
  9 12  1  6
  9 13  1  0
 10 14  1  0
 11 15  2  0
 13 16  1  0
 13 17  2  0
 12 18  1  0
 14 19  2  0
 15 19  1  0
 16 20  1  0
 16 21  1  0
 18 22  2  0
 18 23  1  0
 20 24  1  0
 22 25  1  0
 23 26  2  0
 27 21  1  1
 24 28  3  0
 25 29  2  0
 26 29  1  0
 27 30  1  0
 27 31  1  0
 29 32  1  0
 28 33  1  0
 30 34  1  1
 31 35  1  0
 30 36  1  0
 35 37  1  0
 34 38  2  0
 35 39  1  0
 36 39  1  0
 34 40  1  0
 37 41  1  0
 37 42  2  0
 40 43  1  0
 40 44  1  0
 43 45  1  0
 44 46  1  0
 45 47  1  0
 46 47  1  0
M  END
