x1380-x2193-x2694-x2705
     RDKit          3D

 56 61  0  0  0  0  0  0  0  0999 V2000
    7.4220   -0.8970   22.1430 N   0  0  0  0  0  0  0  0  0  0  0  0
    6.9660    0.4600   21.6950 C   0  0  1  0  0  0  0  0  0  0  0  0
    8.0320    1.5910   21.7720 C   0  0  0  0  0  0  0  0  0  0  0  0
    6.4650   -1.7080   22.8110 C   0  0  0  0  0  0  0  0  0  0  0  0
    8.7450   -1.0370   22.7530 C   0  0  0  0  0  0  0  0  0  0  0  0
    6.3130    0.6680   20.2920 C   0  0  0  0  0  0  0  0  0  0  0  0
    8.8200   -1.1400   24.2010 N   0  0  0  0  0  0  0  0  0  0  0  0
    9.9950   -1.0900   22.2120 C   0  0  0  0  0  0  0  0  0  0  0  0
    6.9530   -3.0660   23.3400 C   0  0  1  0  0  0  0  0  0  0  0  0
    7.7140    2.6500   22.5620 N   0  0  0  0  0  0  0  0  0  0  0  0
    9.0870    1.5530   21.1380 O   0  0  0  0  0  0  0  0  0  0  0  0
    5.1660    1.4370   20.2070 C   0  0  0  0  0  0  0  0  0  0  0  0
    6.9210    0.0800   19.1860 C   0  0  0  0  0  0  0  0  0  0  0  0
   10.2040   -1.2530   24.4370 O   0  0  0  0  0  0  0  0  0  0  0  0
   10.9140   -1.2190   23.2520 C   0  0  0  0  0  0  0  0  0  0  0  0
    5.8780   -3.8550   23.8010 C   0  0  2  0  0  0  0  0  0  0  0  0
    7.7280   -3.7810   22.2260 C   0  0  0  0  0  0  0  0  0  0  0  0
   12.3370   -1.2970   23.2210 C   0  0  0  0  0  0  0  0  0  0  0  0
    5.5250   -3.3440   25.2370 C   0  0  0  0  0  0  0  0  0  0  0  0
    6.3110    0.3130   17.8920 N   0  0  0  0  0  0  0  0  0  0  0  0
    4.6040    1.6390   18.9580 C   0  0  0  0  0  0  0  0  0  0  0  0
    8.6240    3.6590   22.9490 C   0  0  0  0  0  0  0  0  0  0  0  0
    6.8180   -4.4900   21.5370 N   0  0  0  0  0  0  0  0  0  0  0  0
    5.9610   -5.2500   23.6190 C   0  0  0  0  0  0  0  0  0  0  0  0
    6.3160    2.9750   22.9160 C   0  0  0  0  0  0  0  0  0  0  0  0
   12.8220    0.1420   23.4130 C   0  0  0  0  0  0  0  0  0  0  0  0
   12.8810   -1.7930   21.8560 C   0  0  0  0  0  0  0  0  0  0  0  0
   12.9040   -2.1800   24.3570 C   0  0  0  0  0  0  0  0  0  0  0  0
    6.4080   -4.0930   20.2540 C   0  0  0  0  0  0  0  0  0  0  0  0
    4.5070   -2.6770   25.3390 O   0  0  0  0  0  0  0  0  0  0  0  0
    5.2060    1.0690   17.8530 C   0  0  0  0  0  0  0  0  0  0  0  0
    9.8070    3.4150   23.6450 C   0  0  0  0  0  0  0  0  0  0  0  0
    8.3260    4.9870   22.6160 C   0  0  0  0  0  0  0  0  0  0  0  0
    6.2180   -5.5950   22.2610 C   0  0  0  0  0  0  0  0  0  0  0  0
    6.2930   -3.6090   26.3980 N   0  0  0  0  0  0  0  0  0  0  0  0
    5.7320    3.8530   22.0070 C   0  0  0  0  0  0  0  0  0  0  0  0
   10.1920    2.0120   24.0320 C   0  0  0  0  0  0  0  0  0  0  0  0
    7.3290   -3.2590   19.3760 C   0  0  0  0  0  0  0  0  0  0  0  0
    5.3090   -4.4800   19.8740 O   0  0  0  0  0  0  0  0  0  0  0  0
   10.6550    4.4730   23.9970 C   0  0  0  0  0  0  0  0  0  0  0  0
    9.1730    6.0150   22.9790 C   0  0  0  0  0  0  0  0  0  0  0  0
    7.2700   -4.6960   26.4190 C   0  0  1  0  0  0  0  0  0  0  0  0
    5.9750   -3.0430   27.5930 C   0  0  0  0  0  0  0  0  0  0  0  0
    9.2180    1.4460   25.0200 C   0  0  0  0  0  0  0  0  0  0  0  0
   10.3540    5.7990   23.6780 C   0  0  0  0  0  0  0  0  0  0  0  0
    8.7220   -4.1560   26.5310 C   0  0  1  0  0  0  0  0  0  0  0  0
    7.0130   -5.5790   27.4550 C   0  0  0  0  0  0  0  0  0  0  0  0
    5.7780   -3.9370   28.6280 C   0  0  0  0  0  0  0  0  0  0  0  0
   11.0970    6.8940   23.9850 O   0  0  0  0  0  0  0  0  0  0  0  0
    9.5230   -5.1650   26.9790 C   0  0  0  0  0  0  0  0  0  0  0  0
    9.1850   -3.6920   25.2000 N   0  0  0  0  0  0  0  0  0  0  0  0
    6.8890   -4.7620   28.7340 C   0  0  0  0  0  0  0  0  0  0  0  0
   11.8890    6.7840   25.1610 C   0  0  0  0  0  0  0  0  0  0  0  0
    9.4580   -6.2580   26.0190 N   0  0  0  0  0  0  0  0  0  0  0  0
    9.9830   -4.5710   24.5960 C   0  0  0  0  0  0  0  0  0  0  0  0
    9.4090   -5.8300   24.7280 C   0  0  0  0  0  0  0  0  0  0  0  0
  1  2  1  0
  2  3  1  6
  1  4  1  0
  1  5  1  0
  2  6  1  0
  5  7  2  0
  5  8  1  0
  9  4  1  6
  3 10  1  0
  3 11  2  0
  6 12  2  0
  6 13  1  0
  7 14  1  0
  8 15  2  0
 14 15  1  0
  9 16  1  0
  9 17  1  0
 15 18  1  0
 16 19  1  1
 13 20  2  0
 12 21  1  0
 10 22  1  0
 17 23  1  0
 16 24  1  0
 10 25  1  0
 18 26  1  0
 18 27  1  0
 18 28  1  0
 23 29  1  0
 19 30  2  0
 20 31  1  0
 21 31  2  0
 22 32  2  0
 22 33  1  0
 23 34  1  0
 24 34  1  0
 19 35  1  0
 25 36  1  0
 32 37  1  0
 29 38  1  0
 29 39  2  0
 32 40  1  0
 33 41  2  0
 35 42  1  0
 35 43  1  0
 37 44  1  0
 40 45  2  0
 41 45  1  0
 42 46  1  0
 42 47  1  1
 43 48  1  0
 45 49  1  0
 46 50  1  6
 46 51  1  0
 47 52  1  0
 48 52  1  0
 49 53  1  0
 50 54  1  0
 51 55  1  0
 54 56  1  0
 55 56  1  0
M  END
