x1386-x0426
     RDKit          3D

 36 40  0  0  0  0  0  0  0  0999 V2000
    2.3100    1.6930   23.9120 C   0  0  0  0  0  0  0  0  0  0  0  0
    3.5830    2.3730   23.6600 N   0  0  0  0  0  0  0  0  0  0  0  0
    4.3700    1.9550   22.4900 C   0  0  2  0  0  0  0  0  0  0  0  0
    2.1010    0.5170   23.6360 O   0  0  0  0  0  0  0  0  0  0  0  0
    1.2340    2.5090   24.5710 C   0  0  0  0  0  0  0  0  0  0  0  0
    1.5590    3.8590   25.2470 C   0  0  0  0  0  0  0  0  0  0  0  0
   -0.1100    2.0250   24.5750 C   0  0  0  0  0  0  0  0  0  0  0  0
    3.6740    1.8390   21.1370 C   0  0  0  0  0  0  0  0  0  0  0  0
    2.8000    4.3700   25.2790 F   0  0  0  0  0  0  0  0  0  0  0  0
    5.1020    0.6350   22.7190 C   0  0  0  0  0  0  0  0  0  0  0  0
   -1.1550    2.7510   25.1830 C   0  0  0  0  0  0  0  0  0  0  0  0
    0.5250    4.5650   25.8410 C   0  0  0  0  0  0  0  0  0  0  0  0
    6.2380    0.6430   21.9000 C   0  0  2  0  0  0  0  0  0  0  0  0
   -0.8980    3.9750   25.8040 C   0  0  0  0  0  0  0  0  0  0  0  0
    4.6550    1.4080   20.0900 C   0  0  0  0  0  0  0  0  0  0  0  0
    5.8840    0.8160   20.4280 C   0  0  0  0  0  0  0  0  0  0  0  0
    4.3030    1.6260   18.7840 C   0  0  0  0  0  0  0  0  0  0  0  0
    7.2520   -0.4570   22.2770 C   0  0  0  0  0  0  0  0  0  0  0  0
    6.8250    0.3850   19.3120 C   0  0  0  0  0  0  0  0  0  0  0  0
    5.1460    1.2600   17.7710 C   0  0  0  0  0  0  0  0  0  0  0  0
    7.7000   -1.5040   21.2300 C   0  0  2  0  0  0  0  0  0  0  0  0
    6.4310    0.6190   17.9440 N   0  0  0  0  0  0  0  0  0  0  0  0
    6.6950   -2.5940   21.1230 N   0  0  0  0  0  0  0  0  0  0  0  0
    9.0050   -1.9530   21.7400 C   0  0  0  0  0  0  0  0  0  0  0  0
    6.4200   -3.2190   19.8820 C   0  0  0  0  0  0  0  0  0  0  0  0
    8.7430   -2.3750   22.9800 N   0  0  0  0  0  0  0  0  0  0  0  0
    6.5350   -3.2870   22.4190 C   0  0  0  0  0  0  0  0  0  0  0  0
    7.3730   -2.9650   18.7340 C   0  0  0  0  0  0  0  0  0  0  0  0
    5.4590   -4.0000   19.7150 O   0  0  0  0  0  0  0  0  0  0  0  0
    9.9440   -2.6220   23.7540 C   0  0  0  0  0  0  0  0  0  0  0  0
    7.7750   -3.5060   23.0690 C   0  0  0  0  0  0  0  0  0  0  0  0
   10.9590   -1.5290   23.5860 C   0  0  0  0  0  0  0  0  0  0  0  0
   12.0490   -1.5970   22.6960 C   0  0  0  0  0  0  0  0  0  0  0  0
   10.9340   -0.3300   24.2840 C   0  0  0  0  0  0  0  0  0  0  0  0
   12.2140    0.7130   23.8610 S   0  0  0  0  0  0  0  0  0  0  0  0
   12.8340   -0.4720   22.7150 C   0  0  0  0  0  0  0  0  0  0  0  0
  1  2  1  0
  3  2  1  1
  1  4  2  0
  1  5  1  0
  5  6  2  0
  5  7  1  0
  3  8  1  0
  6  9  1  0
  3 10  1  0
  7 11  2  0
  6 12  1  0
 10 13  1  0
 11 14  1  0
 12 14  2  0
  8 15  1  0
 13 16  1  0
 15 16  2  0
 15 17  1  0
 13 18  1  6
 16 19  1  0
 17 20  2  0
 21 18  1  1
 19 22  2  0
 20 22  1  0
 21 23  1  0
 21 24  1  0
 23 25  1  0
 24 26  1  0
 23 27  1  0
 25 28  1  0
 25 29  2  0
 26 30  1  0
 26 31  1  0
 27 31  1  0
 30 32  1  0
 32 33  1  0
 32 34  2  0
 34 35  1  0
 33 36  2  0
 35 36  1  0
M  END
