x1385-x0426
     RDKit          3D

 37 40  0  0  0  0  0  0  0  0999 V2000
    7.5180   -3.0040   18.7570 C   0  0  0  0  0  0  0  0  0  0  0  0
    6.5350   -3.1970   19.9230 C   0  0  0  0  0  0  0  0  0  0  0  0
    5.6170   -4.0330   19.7490 O   0  0  0  0  0  0  0  0  0  0  0  0
    6.6960   -2.4660   21.1390 N   0  0  0  0  0  0  0  0  0  0  0  0
    6.5150   -3.3120   22.3300 C   0  0  0  0  0  0  0  0  0  0  0  0
    7.8290   -1.4830   21.3150 C   0  0  2  0  0  0  0  0  0  0  0  0
    7.7360   -3.8620   22.7690 C   0  0  0  0  0  0  0  0  0  0  0  0
    8.9450   -1.9550   22.0110 C   0  0  0  0  0  0  0  0  0  0  0  0
    7.5120   -0.0480   21.8890 C   0  0  0  0  0  0  0  0  0  0  0  0
    8.6120   -2.8680   23.1100 N   0  0  0  0  0  0  0  0  0  0  0  0
    6.2850    0.1250   22.8230 C   0  0  0  0  0  0  0  0  0  0  0  0
    9.5560   -3.1810   24.1060 C   0  0  0  0  0  0  0  0  0  0  0  0
    5.5960    1.3870   22.5350 C   0  0  0  0  0  0  0  0  0  0  0  0
    9.1740   -4.1130   25.1500 C   0  0  0  0  0  0  0  0  0  0  0  0
    4.0560    1.2130   22.3880 C   0  0  1  0  0  0  0  0  0  0  0  0
    9.7680   -5.3430   25.2730 C   0  0  0  0  0  0  0  0  0  0  0  0
    7.9100   -3.7320   26.3400 S   0  0  0  0  0  0  0  0  0  0  0  0
    3.4120    2.1040   23.3580 N   0  0  0  0  0  0  0  0  0  0  0  0
    3.6290    1.6540   21.1270 C   0  0  0  0  0  0  0  0  0  0  0  0
    8.1330   -5.2440   27.0670 C   0  0  0  0  0  0  0  0  0  0  0  0
    9.1130   -6.0360   26.4760 C   0  0  0  0  0  0  0  0  0  0  0  0
    2.3070    1.6170   23.9740 C   0  0  0  0  0  0  0  0  0  0  0  0
    4.5180    1.2040   20.0040 C   0  0  0  0  0  0  0  0  0  0  0  0
    7.0920   -5.7750   28.5660 Br  0  0  0  0  0  0  0  0  0  0  0  0
    2.0900    0.2750   24.0550 O   0  0  0  0  0  0  0  0  0  0  0  0
    1.2850    2.5270   24.5950 C   0  0  0  0  0  0  0  0  0  0  0  0
    5.3550    0.1090   20.0610 C   0  0  0  0  0  0  0  0  0  0  0  0
    4.5470    1.9590   18.6820 C   0  0  0  0  0  0  0  0  0  0  0  0
    1.5530    3.7870   25.1950 C   0  0  0  0  0  0  0  0  0  0  0  0
   -0.0480    2.0820   24.5860 C   0  0  0  0  0  0  0  0  0  0  0  0
    6.1830   -0.2730   18.9850 C   0  0  0  0  0  0  0  0  0  0  0  0
    5.3670    1.5600   17.6300 C   0  0  0  0  0  0  0  0  0  0  0  0
    2.9150    4.1520   25.1590 F   0  0  0  0  0  0  0  0  0  0  0  0
   -1.0110    2.9010   25.1640 C   0  0  0  0  0  0  0  0  0  0  0  0
    0.5710    4.6020   25.7740 C   0  0  0  0  0  0  0  0  0  0  0  0
    6.1770    0.4890   17.7370 N   0  0  0  0  0  0  0  0  0  0  0  0
   -0.7400    4.1260   25.7480 C   0  0  0  0  0  0  0  0  0  0  0  0
  1  2  1  0
  2  3  2  0
  2  4  1  0
  4  5  1  0
  4  6  1  0
  5  7  1  0
  6  8  1  0
  6  9  1  1
  7 10  1  0
  8 10  1  0
  9 11  1  0
 10 12  1  0
 11 13  1  0
 12 14  1  0
 15 13  1  6
 14 16  2  0
 14 17  1  0
 15 18  1  0
 15 19  1  0
 17 20  1  0
 16 21  1  0
 20 21  2  0
 18 22  1  0
 19 23  1  0
 20 24  1  0
 22 25  2  0
 22 26  1  0
 23 27  2  0
 23 28  1  0
 26 29  2  0
 26 30  1  0
 27 31  1  0
 28 32  2  0
 29 33  1  0
 30 34  2  0
 29 35  1  0
 31 36  2  0
 32 36  1  0
 34 37  1  0
 35 37  2  0
M  END
