x1380-x2643
     RDKit          3D

 34 37  0  0  0  0  0  0  0  0999 V2000
    6.9640   -3.3690   19.3760 C   0  0  0  0  0  0  0  0  0  0  0  0
    6.3550   -4.1400   20.2640 C   0  0  0  0  0  0  0  0  0  0  0  0
    5.3320   -4.7400   19.9470 O   0  0  0  0  0  0  0  0  0  0  0  0
    6.9250   -4.3120   21.5110 N   0  0  0  0  0  0  0  0  0  0  0  0
    6.4370   -5.3920   22.3690 C   0  0  0  0  0  0  0  0  0  0  0  0
    7.6630   -3.2030   22.2090 C   0  0  0  0  0  0  0  0  0  0  0  0
    5.9570   -5.1160   23.6640 C   0  0  0  0  0  0  0  0  0  0  0  0
    6.8900   -2.9180   23.3210 C   0  0  2  0  0  0  0  0  0  0  0  0
    7.0550   -1.5880   23.7580 C   0  0  0  0  0  0  0  0  0  0  0  0
    6.8530   -3.9110   24.3160 C   0  0  1  0  0  0  0  0  0  0  0  0
    6.1290   -3.4110   25.6440 C   0  0  0  0  0  0  0  0  0  0  0  0
    7.8720   -0.4730   23.0610 C   0  0  2  0  0  0  0  0  0  0  0  0
    4.9810   -2.9610   25.5480 O   0  0  0  0  0  0  0  0  0  0  0  0
    7.7150   -0.2360   21.6980 C   0  0  0  0  0  0  0  0  0  0  0  0
    6.7000   -3.4810   26.6830 N   0  0  0  0  0  0  0  0  0  0  0  0
    9.3120   -0.4300   23.4510 C   0  0  0  0  0  0  0  0  0  0  0  0
    6.6340   -0.7700   21.0490 N   0  0  0  0  0  0  0  0  0  0  0  0
    8.5310    0.4840   21.1260 O   0  0  0  0  0  0  0  0  0  0  0  0
    7.8050   -4.2720   26.8030 C   0  0  0  0  0  0  0  0  0  0  0  0
    5.9620   -3.2110   27.9090 C   0  0  0  0  0  0  0  0  0  0  0  0
    9.8310   -0.3710   24.7100 C   0  0  0  0  0  0  0  0  0  0  0  0
   10.5990   -0.4310   22.2860 S   0  0  0  0  0  0  0  0  0  0  0  0
    8.0760   -4.9270   28.0020 C   0  0  0  0  0  0  0  0  0  0  0  0
    5.6360   -4.4610   28.4750 C   0  0  0  0  0  0  0  0  0  0  0  0
   11.8510   -0.3240   23.4490 C   0  0  0  0  0  0  0  0  0  0  0  0
   11.3050   -0.3140   24.7020 C   0  0  0  0  0  0  0  0  0  0  0  0
    6.0040    0.0170   20.0300 C   0  0  0  0  0  0  0  0  0  0  0  0
   13.4300   -0.2520   22.9230 Cl  0  0  0  0  0  0  0  0  0  0  0  0
    6.8040   -5.4660   28.6620 C   0  0  0  0  0  0  0  0  0  0  0  0
    6.7760    0.0100   18.8500 C   0  0  0  0  0  0  0  0  0  0  0  0
    4.8240    0.7450   20.0450 C   0  0  0  0  0  0  0  0  0  0  0  0
    6.4120    0.6920   17.7260 N   0  0  0  0  0  0  0  0  0  0  0  0
    4.4600    1.4320   18.9160 C   0  0  0  0  0  0  0  0  0  0  0  0
    5.2250    1.4210   17.7740 C   0  0  0  0  0  0  0  0  0  0  0  0
  1  2  1  0
  2  3  2  0
  2  4  1  0
  4  5  1  0
  4  6  1  0
  5  7  1  0
  6  8  1  0
  8  9  1  1
  7 10  1  0
  8 10  1  0
 10 11  1  1
 12  9  1  6
 11 13  2  0
 12 14  1  0
 11 15  1  0
 12 16  1  0
 14 17  1  0
 14 18  2  0
 15 19  1  0
 15 20  1  0
 16 21  2  0
 16 22  1  0
 19 23  1  0
 20 24  1  0
 22 25  1  0
 21 26  1  0
 25 26  2  0
 17 27  1  0
 25 28  1  0
 23 29  1  0
 24 29  1  0
 27 30  2  0
 27 31  1  0
 30 32  1  0
 31 33  2  0
 32 34  2  0
 33 34  1  0
M  END
