x1380-x0107-x1119-x3110
     RDKit          3D

 68 74  0  0  0  0  0  0  0  0999 V2000
    7.9830    1.4300   23.4450 N   0  0  0  0  0  0  0  0  0  0  0  0
    8.7930    2.5990   23.7440 C   0  0  0  0  0  0  0  0  0  0  0  0
   10.2920    2.3230   23.7080 C   0  0  0  0  0  0  0  0  0  0  0  0
    7.8370    1.0120   22.1330 C   0  0  2  0  0  0  0  0  0  0  0  0
    7.8470    1.9360   21.3140 O   0  0  0  0  0  0  0  0  0  0  0  0
    6.7670   -0.1230   22.0010 C   0  0  2  0  0  0  0  0  0  0  0  0
    9.0620    0.3220   21.6050 C   0  0  0  0  0  0  0  0  0  0  0  0
    7.2560   -1.4870   22.5940 N   0  0  0  0  0  0  0  0  0  0  0  0
   11.0210    3.5990   23.3970 C   0  0  0  0  0  0  0  0  0  0  0  0
    6.2960    0.1460   20.5570 C   0  0  0  0  0  0  0  0  0  0  0  0
    9.5690   -0.7220   22.4940 C   0  0  0  0  0  0  0  0  0  0  0  0
   11.5930    3.5380   22.1740 O   0  0  0  0  0  0  0  0  0  0  0  0
   11.0830    4.5660   24.1400 O   0  0  0  0  0  0  0  0  0  0  0  0
    5.0750    1.0530   20.4040 C   0  0  0  0  0  0  0  0  0  0  0  0
    6.9650   -0.3760   19.4190 C   0  0  0  0  0  0  0  0  0  0  0  0
   10.8870   -0.8230   22.8590 C   0  0  0  0  0  0  0  0  0  0  0  0
    8.6120   -1.5750   22.9350 C   0  0  0  0  0  0  0  0  0  0  0  0
    6.5660   -2.7510   22.6350 C   0  0  2  0  0  0  0  0  0  0  0  0
   12.5420    4.5770   21.8990 C   0  0  0  0  0  0  0  0  0  0  0  0
    6.4940   -0.0420   18.0970 N   0  0  0  0  0  0  0  0  0  0  0  0
    4.6070    1.3850   19.1490 C   0  0  0  0  0  0  0  0  0  0  0  0
   11.2330   -1.8430   23.7080 C   0  0  0  0  0  0  0  0  0  0  0  0
    8.9950   -2.5840   23.7660 C   0  0  0  0  0  0  0  0  0  0  0  0
    5.6840   -3.3790   23.6060 C   0  0  2  0  0  0  0  0  0  0  0  0
    7.5170   -3.7960   22.1000 C   0  0  0  0  0  0  0  0  0  0  0  0
   13.7410    4.2790   22.7520 C   0  0  0  0  0  0  0  0  0  0  0  0
   12.6410   -1.9040   24.1260 C   0  0  0  0  0  0  0  0  0  0  0  0
    5.5230   -2.8910   25.0870 C   0  0  0  0  0  0  0  0  0  0  0  0
    5.3710    0.8020   17.9490 C   0  0  0  0  0  0  0  0  0  0  0  0
   10.3010   -2.7150   24.1320 C   0  0  0  0  0  0  0  0  0  0  0  0
    6.7080   -4.7870   21.4740 N   0  0  0  0  0  0  0  0  0  0  0  0
    5.8820   -4.7840   23.7250 C   0  0  0  0  0  0  0  0  0  0  0  0
   12.8330   -0.5540   24.7910 C   0  0  0  0  0  0  0  0  0  0  0  0
   13.4640   -2.0410   22.8730 C   0  0  0  0  0  0  0  0  0  0  0  0
   13.0630   -3.0010   25.0830 C   0  0  0  0  0  0  0  0  0  0  0  0
    6.1350   -4.3970   20.2630 C   0  0  0  0  0  0  0  0  0  0  0  0
    5.3630   -1.7050   25.2820 O   0  0  0  0  0  0  0  0  0  0  0  0
   15.0270    4.9080   22.2460 C   0  0  0  0  0  0  0  0  0  0  0  0
    6.0020   -5.5350   22.5220 C   0  0  0  0  0  0  0  0  0  0  0  0
    5.4890   -3.7020   26.1940 N   0  0  0  0  0  0  0  0  0  0  0  0
    6.9030   -3.3920   19.3950 C   0  0  0  0  0  0  0  0  0  0  0  0
    5.0530   -4.8640   19.9090 O   0  0  0  0  0  0  0  0  0  0  0  0
   16.2790    4.2800   22.4760 C   0  0  0  0  0  0  0  0  0  0  0  0
    6.4550   -3.2710   27.1710 C   0  0  0  0  0  0  0  0  0  0  0  0
    4.2270   -4.0130   26.8800 C   0  0  0  0  0  0  0  0  0  0  0  0
   17.1330    4.8530   23.4820 C   0  0  0  0  0  0  0  0  0  0  0  0
    6.7740   -4.3900   28.1870 C   0  0  0  0  0  0  0  0  0  0  0  0
    4.3400   -4.8150   28.1900 C   0  0  0  0  0  0  0  0  0  0  0  0
   18.5550    5.1610   23.3540 C   0  0  0  0  0  0  0  0  0  0  0  0
    5.5780   -4.5900   29.0100 C   0  0  0  0  0  0  0  0  0  0  0  0
   19.0640    6.5140   23.5040 C   0  0  0  0  0  0  0  0  0  0  0  0
   20.2600    6.7760   22.8670 N   0  0  0  0  0  0  0  0  0  0  0  0
   21.2170    5.9330   23.3880 C   0  0  0  0  0  0  0  0  0  0  0  0
   22.3640    5.5320   22.6570 C   0  0  0  0  0  0  0  0  0  0  0  0
   21.0070    5.4600   24.6780 C   0  0  0  0  0  0  0  0  0  0  0  0
   23.2910    4.6260   23.2130 C   0  0  0  0  0  0  0  0  0  0  0  0
   21.9410    4.5060   25.3020 C   0  0  0  0  0  0  0  0  0  0  0  0
   23.0240    4.0830   24.6170 C   0  0  0  0  0  0  0  0  0  0  0  0
   24.1370    2.8640   25.3350 S   0  0  0  0  0  0  0  0  0  0  0  0
   23.3970    1.6430   25.2930 O   0  0  0  0  0  0  0  0  0  0  0  0
   24.2720    3.3260   26.9480 N   0  0  0  0  0  0  0  0  0  0  0  0
   25.3980    2.9940   24.6700 O   0  0  0  0  0  0  0  0  0  0  0  0
   25.0600    4.4270   27.2950 C   0  0  0  0  0  0  0  0  0  0  0  0
   25.1410    4.7050   28.6250 N   0  0  0  0  0  0  0  0  0  0  0  0
   25.7120    5.1680   26.2900 C   0  0  0  0  0  0  0  0  0  0  0  0
   25.9000    5.7610   29.0070 C   0  0  0  0  0  0  0  0  0  0  0  0
   26.4720    6.2310   26.7340 C   0  0  0  0  0  0  0  0  0  0  0  0
   26.5640    6.5220   28.0670 C   0  0  0  0  0  0  0  0  0  0  0  0
  1  2  1  0
  2  3  1  0
  1  4  1  0
  4  5  1  6
  4  6  1  0
  4  7  1  0
  6  8  1  0
  3  9  1  0
  6 10  1  6
  7 11  1  0
  9 12  1  0
  9 13  2  0
 10 14  2  0
 10 15  1  0
 11 16  2  0
  8 17  1  0
 11 17  1  0
 18  8  1  1
 12 19  1  0
 15 20  2  0
 14 21  1  0
 16 22  1  0
 17 23  2  0
 18 24  1  0
 18 25  1  0
 19 26  1  0
 22 27  1  0
 24 28  1  1
 20 29  1  0
 21 29  2  0
 22 30  2  0
 23 30  1  0
 25 31  1  0
 24 32  1  0
 27 33  1  0
 27 34  1  0
 27 35  1  0
 31 36  1  0
 28 37  2  0
 26 38  1  0
 31 39  1  0
 32 39  1  0
 28 40  1  0
 36 41  1  0
 36 42  2  0
 38 43  1  0
 40 44  1  0
 40 45  1  0
 43 46  1  0
 44 47  1  0
 45 48  1  0
 46 49  1  0
 47 50  1  0
 48 50  1  0
 49 51  1  0
 51 52  1  0
 52 53  1  0
 53 54  2  0
 53 55  1  0
 54 56  1  0
 55 57  2  0
 56 58  2  0
 57 58  1  0
 58 59  1  0
 59 60  2  0
 59 61  1  0
 59 62  2  0
 61 63  1  0
 63 64  2  0
 63 65  1  0
 64 66  1  0
 65 67  2  0
 66 68  2  0
 67 68  1  0
M  END
