x1380-x0387
     RDKit          3D

 30 33  0  0  0  0  0  0  0  0999 V2000
    7.2400   -3.2370   19.1830 C   0  0  0  0  0  0  0  0  0  0  0  0
    6.2920   -3.9820   20.1300 C   0  0  0  0  0  0  0  0  0  0  0  0
    5.1860   -4.3600   19.7850 O   0  0  0  0  0  0  0  0  0  0  0  0
    6.7630   -4.2750   21.3810 N   0  0  0  0  0  0  0  0  0  0  0  0
    6.1940   -5.2560   22.1610 C   0  0  0  0  0  0  0  0  0  0  0  0
    7.4400   -3.3220   22.1210 C   0  0  0  0  0  0  0  0  0  0  0  0
    6.1590   -5.0610   23.5350 C   0  0  0  0  0  0  0  0  0  0  0  0
    6.5980   -2.6920   23.2520 C   0  0  0  0  0  0  0  0  0  0  0  0
    5.8020   -3.7680   24.0410 C   0  0  0  0  0  0  0  0  0  0  0  0
    5.4990   -3.4370   25.5560 C   0  0  0  0  0  0  0  0  0  0  0  0
    4.3680   -3.0210   25.7450 O   0  0  0  0  0  0  0  0  0  0  0  0
    6.4700   -3.5810   26.6610 N   0  0  0  0  0  0  0  0  0  0  0  0
    7.2940   -4.6870   26.5240 C   0  0  1  0  0  0  0  0  0  0  0  0
    5.9940   -3.2050   27.9000 C   0  0  0  0  0  0  0  0  0  0  0  0
    8.4380   -4.2780   26.6830 O   0  0  0  0  0  0  0  0  0  0  0  0
    7.1100   -5.6820   27.5350 C   0  0  0  0  0  0  0  0  0  0  0  0
    5.8890   -4.2280   28.7660 C   0  0  0  0  0  0  0  0  0  0  0  0
    7.0320   -5.0970   28.9050 C   0  0  0  0  0  0  0  0  0  0  0  0
    9.2390   -4.7560   25.6050 C   0  0  1  0  0  0  0  0  0  0  0  0
    8.9970   -3.9100   24.5960 C   0  0  0  0  0  0  0  0  0  0  0  0
   10.6810   -4.6990   25.9560 C   0  0  0  0  0  0  0  0  0  0  0  0
    9.2940   -2.5480   25.0060 C   0  0  2  0  0  0  0  0  0  0  0  0
   11.3310   -3.6120   25.3820 C   0  0  0  0  0  0  0  0  0  0  0  0
    9.3820   -1.6250   23.8290 C   0  0  0  0  0  0  0  0  0  0  0  0
   10.6010   -2.4930   25.5780 N   0  0  0  0  0  0  0  0  0  0  0  0
   10.8400   -1.2660   23.3910 C   0  0  0  0  0  0  0  0  0  0  0  0
   11.6600   -0.2090   23.8230 C   0  0  0  0  0  0  0  0  0  0  0  0
   11.4300   -2.0780   22.4360 C   0  0  0  0  0  0  0  0  0  0  0  0
   13.0420   -1.4280   22.1380 S   0  0  0  0  0  0  0  0  0  0  0  0
   12.8820   -0.0940   23.2860 C   0  0  0  0  0  0  0  0  0  0  0  0
  1  2  1  0
  2  3  2  0
  2  4  1  0
  4  5  1  0
  4  6  1  0
  5  7  1  0
  6  8  1  0
  7  9  1  0
  8  9  1  0
  9 10  1  0
 10 11  2  0
 10 12  1  0
 12 13  1  0
 12 14  1  0
 13 15  1  1
 13 16  1  0
 14 17  1  0
 16 18  1  0
 17 18  1  0
 19 15  1  1
 19 20  1  0
 19 21  1  0
 20 22  1  0
 21 23  1  0
 22 24  1  6
 22 25  1  0
 23 25  1  0
 24 26  1  0
 26 27  1  0
 26 28  2  0
 28 29  1  0
 27 30  2  0
 29 30  1  0
M  END
