x1380-x2646
     RDKit          3D

 36 39  0  0  0  0  0  0  0  0999 V2000
    6.9520   -3.3680   19.3700 C   0  0  0  0  0  0  0  0  0  0  0  0
    6.2420   -4.0660   20.2430 C   0  0  0  0  0  0  0  0  0  0  0  0
    5.2080   -4.6150   19.8880 O   0  0  0  0  0  0  0  0  0  0  0  0
    6.7250   -4.2150   21.5230 N   0  0  0  0  0  0  0  0  0  0  0  0
    6.4090   -5.3820   22.3380 C   0  0  0  0  0  0  0  0  0  0  0  0
    7.6330   -3.2120   22.1170 C   0  0  0  0  0  0  0  0  0  0  0  0
    6.8290   -4.9180   23.8510 C   0  0  0  0  0  0  0  0  0  0  0  0
    6.9030   -2.5380   23.2530 C   0  0  2  0  0  0  0  0  0  0  0  0
    8.0000   -1.7820   23.9590 C   0  0  0  0  0  0  0  0  0  0  0  0
    6.2190   -3.5120   24.0490 C   0  0  2  0  0  0  0  0  0  0  0  0
    5.9440   -3.0590   25.4620 C   0  0  0  0  0  0  0  0  0  0  0  0
    8.4800   -0.5470   23.3670 C   0  0  2  0  0  0  0  0  0  0  0  0
    5.1010   -2.1670   25.5570 O   0  0  0  0  0  0  0  0  0  0  0  0
    8.0930   -0.1170   21.9180 C   0  0  0  0  0  0  0  0  0  0  0  0
    6.4520   -3.5240   26.4070 N   0  0  0  0  0  0  0  0  0  0  0  0
   10.0080   -0.4970   23.2290 C   0  0  0  0  0  0  0  0  0  0  0  0
    8.8530    0.6680   21.3530 O   0  0  0  0  0  0  0  0  0  0  0  0
    6.9360   -0.5610   21.3200 N   0  0  0  0  0  0  0  0  0  0  0  0
    7.8720   -3.9500   26.5020 C   0  0  0  0  0  0  0  0  0  0  0  0
    5.8770   -3.5430   27.7100 C   0  0  0  0  0  0  0  0  0  0  0  0
   10.6880    0.4630   23.9710 C   0  0  0  0  0  0  0  0  0  0  0  0
   10.8160   -1.4130   22.3190 C   0  0  0  0  0  0  0  0  0  0  0  0
    8.1390   -5.2830   27.2220 C   0  0  0  0  0  0  0  0  0  0  0  0
    6.0320   -4.7280   28.4590 C   0  0  0  0  0  0  0  0  0  0  0  0
    6.3500    0.1190   20.1660 C   0  0  0  0  0  0  0  0  0  0  0  0
   12.0800    0.5530   23.8470 C   0  0  0  0  0  0  0  0  0  0  0  0
   12.1910   -1.2720   22.2460 C   0  0  0  0  0  0  0  0  0  0  0  0
   13.0900   -2.2930   21.2290 Cl  0  0  0  0  0  0  0  0  0  0  0  0
    7.3540   -5.2110   28.5410 C   0  0  0  0  0  0  0  0  0  0  0  0
    6.9430   -0.2070   18.7930 C   0  0  0  0  0  0  0  0  0  0  0  0
    5.3030    1.0030   20.4750 C   0  0  0  0  0  0  0  0  0  0  0  0
   12.8180   -0.2860   23.0100 C   0  0  0  0  0  0  0  0  0  0  0  0
    4.7680    1.2860   21.8300 C   0  0  0  0  0  0  0  0  0  0  0  0
    6.3090    0.5260   17.6630 N   0  0  0  0  0  0  0  0  0  0  0  0
    4.7170    1.7020   19.2390 C   0  0  0  0  0  0  0  0  0  0  0  0
    5.2750    1.4100   17.8810 C   0  0  0  0  0  0  0  0  0  0  0  0
  1  2  1  0
  2  3  2  0
  2  4  1  0
  4  5  1  0
  4  6  1  0
  5  7  1  0
  6  8  1  0
  8  9  1  1
  7 10  1  0
  8 10  1  0
 10 11  1  1
 12  9  1  6
 11 13  2  0
 12 14  1  0
 11 15  1  0
 12 16  1  0
 14 17  2  0
 14 18  1  0
 15 19  1  0
 15 20  1  0
 16 21  2  0
 16 22  1  0
 19 23  1  0
 20 24  1  0
 18 25  1  0
 21 26  1  0
 22 27  2  0
 27 28  1  0
 23 29  1  0
 24 29  1  0
 25 30  2  0
 25 31  1  0
 26 32  2  0
 27 32  1  0
 31 33  1  0
 30 34  1  0
 31 35  2  0
 34 36  2  0
 35 36  1  0
M  END
