x1385-x2540
     RDKit          3D

 40 44  0  0  0  0  0  0  0  0999 V2000
    7.6040    1.7410   22.8530 N   0  0  0  0  0  0  0  0  0  0  0  0
    7.8030    1.1510   21.6470 C   0  0  0  0  0  0  0  0  0  0  0  0
    8.6490    1.5010   20.8350 O   0  0  0  0  0  0  0  0  0  0  0  0
    8.6330    2.4920   23.5400 C   0  0  0  0  0  0  0  0  0  0  0  0
    6.7780    0.0090   21.3710 C   0  0  1  0  0  0  0  0  0  0  0  0
    8.3840    2.1450   25.0140 C   0  0  0  0  0  0  0  0  0  0  0  0
    8.4120    3.9990   23.1820 C   0  0  0  0  0  0  0  0  0  0  0  0
   10.0480    2.0550   23.0340 C   0  0  0  0  0  0  0  0  0  0  0  0
    6.1450    0.5250   20.1240 C   0  0  0  0  0  0  0  0  0  0  0  0
    7.4050   -1.4560   21.2390 C   0  0  2  0  0  0  0  0  0  0  0  0
    4.9570    1.2850   20.0670 C   0  0  0  0  0  0  0  0  0  0  0  0
    6.7630    0.2720   18.9110 C   0  0  0  0  0  0  0  0  0  0  0  0
    6.3680   -2.5060   21.0800 N   0  0  0  0  0  0  0  0  0  0  0  0
    8.3910   -1.9960   22.2520 C   0  0  1  0  0  0  0  0  0  0  0  0
    6.3230   -3.2350   19.8890 C   0  0  0  0  0  0  0  0  0  0  0  0
    6.3240    0.7080   17.6540 N   0  0  0  0  0  0  0  0  0  0  0  0
    4.4440    1.7630   18.8720 C   0  0  0  0  0  0  0  0  0  0  0  0
    9.4430   -1.0400   22.7490 C   0  0  1  0  0  0  0  0  0  0  0  0
    5.8630   -3.0760   22.2900 C   0  0  0  0  0  0  0  0  0  0  0  0
    8.1780   -3.1580   22.9690 C   0  0  1  0  0  0  0  0  0  0  0  0
    7.3750   -3.0080   18.7840 C   0  0  0  0  0  0  0  0  0  0  0  0
    5.4500   -4.0930   19.7180 O   0  0  0  0  0  0  0  0  0  0  0  0
    9.2220   -3.3420   24.0850 C   0  0  1  0  0  0  0  0  0  0  0  0
    5.1100    1.4880   17.7050 C   0  0  0  0  0  0  0  0  0  0  0  0
   10.1080   -1.2890   23.9130 C   0  0  1  0  0  0  0  0  0  0  0  0
   10.2230   -1.0180   21.6700 C   0  0  0  0  0  0  0  0  0  0  0  0
    6.8750   -3.5210   23.2170 C   0  0  0  0  0  0  0  0  0  0  0  0
    9.3950   -2.1300   24.7600 O   0  0  0  0  0  0  0  0  0  0  0  0
   11.4510   -1.8660   23.3850 C   0  0  1  0  0  0  0  0  0  0  0  0
    8.9900   -4.3100   25.1600 C   0  0  0  0  0  0  0  0  0  0  0  0
   11.3860   -1.5390   21.9350 C   0  0  0  0  0  0  0  0  0  0  0  0
   12.6860   -1.3470   23.9470 C   0  0  0  0  0  0  0  0  0  0  0  0
    9.6220   -5.5080   25.3920 C   0  0  0  0  0  0  0  0  0  0  0  0
    7.7860   -3.9670   26.3190 S   0  0  0  0  0  0  0  0  0  0  0  0
   13.2920   -0.5800   22.9470 C   0  0  0  0  0  0  0  0  0  0  0  0
   12.3890   -0.4250   25.1120 C   0  0  0  0  0  0  0  0  0  0  0  0
   13.5220   -2.5400   24.4150 C   0  0  0  0  0  0  0  0  0  0  0  0
    8.0920   -5.4080   27.1080 C   0  0  0  0  0  0  0  0  0  0  0  0
    9.1100   -6.1620   26.5320 C   0  0  0  0  0  0  0  0  0  0  0  0
    7.0880   -5.9060   28.6380 Br  0  0  0  0  0  0  0  0  0  0  0  0
  1  2  1  0
  2  3  2  0
  4  1  1  0
  5  2  1  6
  4  6  1  0
  4  7  1  0
  4  8  1  0
  5  9  1  0
  5 10  1  0
  9 11  2  0
  9 12  1  0
 10 13  1  1
 14 10  1  1
 13 15  1  0
 12 16  2  0
 11 17  1  0
 14 18  1  0
 13 19  1  0
 14 20  1  0
 15 21  1  0
 15 22  2  0
 20 23  1  0
 16 24  1  0
 17 24  2  0
 18 25  1  0
 18 26  1  6
 19 27  1  0
 20 27  1  1
 23 28  1  0
 25 28  1  1
 25 29  1  0
 23 30  1  1
 26 31  2  0
 29 31  1  0
 29 32  1  1
 30 33  2  0
 30 34  1  0
 32 35  1  0
 32 36  1  0
 32 37  1  0
 34 38  1  0
 33 39  1  0
 38 39  2  0
 38 40  1  0
M  END
