x1385-x2703
     RDKit          3D

 42 46  0  0  0  0  0  0  0  0999 V2000
    7.5880    2.4940   22.4500 N   0  0  0  0  0  0  0  0  0  0  0  0
    7.9520    1.6090   21.4290 C   0  0  0  0  0  0  0  0  0  0  0  0
    9.2120    1.8800   20.8370 O   0  0  0  0  0  0  0  0  0  0  0  0
    8.3250    3.6820   22.8140 C   0  0  0  0  0  0  0  0  0  0  0  0
    7.0660    0.4370   20.9650 C   0  0  1  0  0  0  0  0  0  0  0  0
    9.5020    3.5370   23.6730 C   0  0  0  0  0  0  0  0  0  0  0  0
    7.8510    4.9800   22.2850 C   0  0  0  0  0  0  0  0  0  0  0  0
    9.9820    2.1760   24.2410 C   0  0  0  0  0  0  0  0  0  0  0  0
    6.6110    5.1290   21.3910 C   0  0  0  0  0  0  0  0  0  0  0  0
    6.2800    0.9730   19.7520 C   0  0  0  0  0  0  0  0  0  0  0  0
   10.2380    4.7120   23.9940 C   0  0  0  0  0  0  0  0  0  0  0  0
    8.5610    6.1670   22.5800 C   0  0  0  0  0  0  0  0  0  0  0  0
    7.8340   -0.9570   20.7040 C   0  0  1  0  0  0  0  0  0  0  0  0
    9.0680    1.5340   25.2960 C   0  0  0  0  0  0  0  0  0  0  0  0
    6.7640    0.9890   18.4150 C   0  0  0  0  0  0  0  0  0  0  0  0
    4.9590    1.5330   19.9020 C   0  0  0  0  0  0  0  0  0  0  0  0
    9.0720   -1.2650   21.6220 C   0  0  0  0  0  0  0  0  0  0  0  0
    9.8070    6.0900   23.4700 C   0  0  0  0  0  0  0  0  0  0  0  0
    6.9050   -2.1700   20.7310 N   0  0  0  0  0  0  0  0  0  0  0  0
    6.5580   -2.9230   19.5260 C   0  0  0  0  0  0  0  0  0  0  0  0
    4.2140    2.0570   18.8730 N   0  0  0  0  0  0  0  0  0  0  0  0
    6.0030    1.5260   17.3320 C   0  0  0  0  0  0  0  0  0  0  0  0
    8.9680   -1.8000   22.9210 C   0  0  0  0  0  0  0  0  0  0  0  0
   10.2950   -1.0020   21.1750 C   0  0  0  0  0  0  0  0  0  0  0  0
    6.6820   -2.7320   22.0920 C   0  0  0  0  0  0  0  0  0  0  0  0
    7.5320   -2.9490   18.3210 C   0  0  0  0  0  0  0  0  0  0  0  0
    5.5090   -3.5880   19.4550 O   0  0  0  0  0  0  0  0  0  0  0  0
    4.7520    2.0400   17.6180 C   0  0  0  0  0  0  0  0  0  0  0  0
   11.4100   -1.2250   21.9430 N   0  0  0  0  0  0  0  0  0  0  0  0
    9.8280   -2.1610   24.0720 C   0  0  0  0  0  0  0  0  0  0  0  0
    7.4880   -2.0910   23.2560 C   0  0  0  0  0  0  0  0  0  0  0  0
   10.6920   -2.5250   25.2290 C   0  0  0  0  0  0  0  0  0  0  0  0
   11.3190   -1.7110   23.2150 C   0  0  0  0  0  0  0  0  0  0  0  0
   12.8520   -1.6560   23.4920 C   0  0  0  0  0  0  0  0  0  0  0  0
   10.2800   -3.9470   25.5060 C   0  0  0  0  0  0  0  0  0  0  0  0
   13.6240   -2.9800   23.9070 C   0  0  0  0  0  0  0  0  0  0  0  0
   13.1710   -0.4220   24.3910 C   0  0  0  0  0  0  0  0  0  0  0  0
   10.4560   -5.1550   24.8840 C   0  0  0  0  0  0  0  0  0  0  0  0
    9.3240   -4.1970   26.8540 S   0  0  0  0  0  0  0  0  0  0  0  0
    9.1230   -5.7810   26.6610 C   0  0  0  0  0  0  0  0  0  0  0  0
    9.7920   -6.2510   25.5550 C   0  0  0  0  0  0  0  0  0  0  0  0
    8.0400   -6.5760   27.9750 Br  0  0  0  0  0  0  0  0  0  0  0  0
  1  2  1  0
  2  3  2  0
  1  4  1  0
  5  2  1  6
  4  6  2  0
  4  7  1  0
  6  8  1  0
  7  9  1  0
  5 10  1  0
  6 11  1  0
  7 12  2  0
  5 13  1  0
  8 14  1  0
 10 15  2  0
 10 16  1  0
 13 17  1  0
 11 18  2  0
 12 18  1  0
 13 19  1  1
 19 20  1  0
 16 21  2  0
 15 22  1  0
 17 23  2  0
 17 24  1  0
 19 25  1  0
 20 26  1  0
 20 27  2  0
 21 28  1  0
 22 28  2  0
 24 29  2  0
 23 30  1  0
 23 31  1  0
 25 31  1  0
 30 32  1  0
 29 33  1  0
 30 33  2  0
 33 34  1  0
 32 35  1  0
 34 36  1  0
 34 37  1  0
 35 38  2  0
 35 39  1  0
 39 40  1  0
 38 41  1  0
 40 41  2  0
 40 42  1  0
M  END
