x1380-x2572
     RDKit          3D

 37 40  0  0  0  0  0  0  0  0999 V2000
    4.4180    1.5810   21.5450 C   0  0  0  0  0  0  0  0  0  0  0  0
    5.1310    1.2090   20.2120 C   0  0  0  0  0  0  0  0  0  0  0  0
    6.2320    0.3580   20.1220 C   0  0  0  0  0  0  0  0  0  0  0  0
    4.6480    1.7620   19.0160 C   0  0  0  0  0  0  0  0  0  0  0  0
    6.6450   -0.1470   21.4030 N   0  0  0  0  0  0  0  0  0  0  0  0
    6.8570    0.0400   18.9210 C   0  0  0  0  0  0  0  0  0  0  0  0
    5.2420    1.4770   17.8090 C   0  0  0  0  0  0  0  0  0  0  0  0
    7.9740    0.1110   21.8340 C   0  0  0  0  0  0  0  0  0  0  0  0
    6.4080    0.5850   17.6550 N   0  0  0  0  0  0  0  0  0  0  0  0
    8.5310    1.1930   21.6550 O   0  0  0  0  0  0  0  0  0  0  0  0
    8.6670   -1.0550   22.5150 C   0  0  2  0  0  0  0  0  0  0  0  0
    7.9790   -1.6720   23.5950 C   0  0  0  0  0  0  0  0  0  0  0  0
   10.1070   -0.7170   22.6530 C   0  0  0  0  0  0  0  0  0  0  0  0
   10.6590    0.3780   23.3030 C   0  0  0  0  0  0  0  0  0  0  0  0
   11.0730   -1.6280   21.9970 C   0  0  0  0  0  0  0  0  0  0  0  0
    6.9530   -2.6890   23.0500 C   0  0  2  0  0  0  0  0  0  0  0  0
   12.2030    0.6000   23.3240 C   0  0  0  0  0  0  0  0  0  0  0  0
   12.4180   -1.3840   22.0400 C   0  0  0  0  0  0  0  0  0  0  0  0
    6.0380   -3.4600   23.9950 C   0  0  2  0  0  0  0  0  0  0  0  0
    7.5770   -3.6440   22.3070 C   0  0  0  0  0  0  0  0  0  0  0  0
   13.1660   -2.3390   21.3490 C   0  0  0  0  0  0  0  0  0  0  0  0
    5.8320   -2.9980   25.4240 C   0  0  0  0  0  0  0  0  0  0  0  0
   13.0200   -0.2980   22.6870 C   0  0  0  0  0  0  0  0  0  0  0  0
    6.8110   -4.5660   21.7000 N   0  0  0  0  0  0  0  0  0  0  0  0
    6.1830   -4.8690   23.8690 C   0  0  0  0  0  0  0  0  0  0  0  0
   13.7360   -3.4220   20.5620 N   0  0  0  0  0  0  0  0  0  0  0  0
    6.2980   -4.3320   20.4120 C   0  0  0  0  0  0  0  0  0  0  0  0
    5.0290   -2.0940   25.6250 O   0  0  0  0  0  0  0  0  0  0  0  0
    6.1380   -5.3970   22.5470 C   0  0  0  0  0  0  0  0  0  0  0  0
    6.5040   -3.6020   26.4880 N   0  0  0  0  0  0  0  0  0  0  0  0
    7.0160   -3.3590   19.4810 C   0  0  0  0  0  0  0  0  0  0  0  0
    5.3160   -4.9300   19.9940 O   0  0  0  0  0  0  0  0  0  0  0  0
    7.9110   -4.0000   26.4970 C   0  0  0  0  0  0  0  0  0  0  0  0
    5.8600   -3.6040   27.7320 C   0  0  0  0  0  0  0  0  0  0  0  0
    8.0930   -5.3080   27.3200 C   0  0  0  0  0  0  0  0  0  0  0  0
    5.9420   -4.7930   28.4340 C   0  0  0  0  0  0  0  0  0  0  0  0
    7.3780   -5.3430   28.5160 C   0  0  0  0  0  0  0  0  0  0  0  0
  1  2  1  0
  2  3  2  0
  2  4  1  0
  3  5  1  0
  3  6  1  0
  4  7  2  0
  5  8  1  0
  6  9  2  0
  7  9  1  0
  8 10  2  0
  8 11  1  0
 11 12  1  1
 11 13  1  0
 13 14  2  0
 13 15  1  0
 16 12  1  1
 14 17  1  0
 15 18  2  0
 16 19  1  0
 16 20  1  0
 18 21  1  0
 19 22  1  1
 17 23  2  0
 18 23  1  0
 20 24  1  0
 19 25  1  0
 21 26  3  0
 24 27  1  0
 22 28  2  0
 24 29  1  0
 25 29  1  0
 22 30  1  0
 27 31  1  0
 27 32  2  0
 30 33  1  0
 30 34  1  0
 33 35  1  0
 34 36  1  0
 35 37  1  0
 36 37  1  0
M  END
