x1380-x0104
     RDKit          3D

 37 40  0  0  0  0  0  0  0  0999 V2000
    8.9510    6.7370   22.5420 C   0  0  0  0  0  0  0  0  0  0  0  0
   10.2750    6.3730   23.2630 C   0  0  0  0  0  0  0  0  0  0  0  0
   10.5270    6.6130   24.4410 O   0  0  0  0  0  0  0  0  0  0  0  0
   11.1560    5.7240   22.4300 N   0  0  0  0  0  0  0  0  0  0  0  0
   12.6010    5.8140   22.6120 C   0  0  0  0  0  0  0  0  0  0  0  0
   13.1200    4.4010   23.0770 C   0  0  0  0  0  0  0  0  0  0  0  0
   12.0400    3.2590   23.1900 C   0  0  0  0  0  0  0  0  0  0  0  0
   10.7010    3.4890   23.6000 C   0  0  0  0  0  0  0  0  0  0  0  0
   12.1200    1.7530   22.9900 C   0  0  0  0  0  0  0  0  0  0  0  0
    9.9900    2.2030   23.5740 N   0  0  0  0  0  0  0  0  0  0  0  0
   10.8400    1.2900   23.0770 C   0  0  2  0  0  0  0  0  0  0  0  0
   13.2630    0.8390   22.6740 C   0  0  0  0  0  0  0  0  0  0  0  0
   10.6280   -0.1440   23.0040 C   0  0  0  0  0  0  0  0  0  0  0  0
   13.0480   -0.4850   22.4850 C   0  0  0  0  0  0  0  0  0  0  0  0
   11.7540   -0.9600   22.6270 C   0  0  0  0  0  0  0  0  0  0  0  0
   11.6960   -2.4070   22.2880 C   0  0  2  0  0  0  0  0  0  0  0  0
   12.5110   -2.4120   21.1830 F   0  0  0  0  0  0  0  0  0  0  0  0
   10.3080   -2.8030   21.9140 C   0  0  0  0  0  0  0  0  0  0  0  0
    9.2830   -1.6970   21.9540 C   0  0  0  0  0  0  0  0  0  0  0  0
    7.9810   -2.0620   21.5760 C   0  0  0  0  0  0  0  0  0  0  0  0
    7.5930   -3.3990   22.2100 C   0  0  2  0  0  0  0  0  0  0  0  0
    6.7200   -4.2370   21.4390 N   0  0  0  0  0  0  0  0  0  0  0  0
    7.2140   -3.0800   23.6530 C   0  0  0  0  0  0  0  0  0  0  0  0
    6.3440   -3.9470   20.1240 C   0  0  0  0  0  0  0  0  0  0  0  0
    6.1840   -5.3060   22.2230 C   0  0  0  0  0  0  0  0  0  0  0  0
    6.4990   -4.1360   24.2460 C   0  0  1  0  0  0  0  0  0  0  0  0
    7.3120   -3.2640   19.1180 C   0  0  0  0  0  0  0  0  0  0  0  0
    5.2310   -4.2940   19.7630 O   0  0  0  0  0  0  0  0  0  0  0  0
    5.7860   -3.6050   25.4570 C   0  0  0  0  0  0  0  0  0  0  0  0
    5.5770   -4.7890   23.3930 C   0  0  0  0  0  0  0  0  0  0  0  0
    4.6480   -3.1630   25.3440 O   0  0  0  0  0  0  0  0  0  0  0  0
    6.3960   -3.5850   26.6690 N   0  0  0  0  0  0  0  0  0  0  0  0
    7.8130   -3.9790   26.7930 C   0  0  0  0  0  0  0  0  0  0  0  0
    5.6780   -3.5970   27.8770 C   0  0  0  0  0  0  0  0  0  0  0  0
    7.9190   -5.2460   27.3670 C   0  0  0  0  0  0  0  0  0  0  0  0
    6.0260   -4.5070   28.8620 C   0  0  0  0  0  0  0  0  0  0  0  0
    7.3570   -5.2610   28.6330 C   0  0  0  0  0  0  0  0  0  0  0  0
  1  2  1  0
  2  3  2  0
  2  4  1  0
  4  5  1  0
  5  6  1  0
  6  7  1  0
  7  8  1  0
  7  9  2  0
  8 10  2  0
  9 11  1  0
 10 11  1  0
  9 12  1  0
 11 13  1  1
 12 14  2  0
 13 15  2  0
 14 15  1  0
 15 16  1  0
 16 17  1  6
 16 18  1  0
 18 19  1  0
 19 20  1  0
 21 20  1  6
 21 22  1  0
 21 23  1  0
 22 24  1  0
 22 25  1  0
 23 26  1  0
 24 27  1  0
 24 28  2  0
 26 29  1  1
 25 30  1  0
 26 30  1  0
 29 31  2  0
 29 32  1  0
 32 33  1  0
 32 34  1  0
 33 35  1  0
 34 36  1  0
 35 37  1  0
 36 37  1  0
M  END
