x1380-x3117
     RDKit          3D

 45 49  0  0  0  0  0  0  0  0999 V2000
    7.1980   -1.2170   22.3330 C   0  0  1  0  0  0  0  0  0  0  0  0
    6.8260    0.2490   21.8650 C   0  0  1  0  0  0  0  0  0  0  0  0
    7.9720    1.2580   22.0950 C   0  0  0  0  0  0  0  0  0  0  0  0
    7.4680   -1.7710   21.0240 C   0  0  0  0  0  0  0  0  0  0  0  0
    8.6170   -1.4120   22.8580 C   0  0  0  0  0  0  0  0  0  0  0  0
    6.1340   -2.2140   23.1330 C   0  0  2  0  0  0  0  0  0  0  0  0
    6.2980    0.5250   20.4070 C   0  0  0  0  0  0  0  0  0  0  0  0
    9.6510   -1.8750   22.0560 C   0  0  0  0  0  0  0  0  0  0  0  0
    8.9270   -1.1350   24.2610 C   0  0  0  0  0  0  0  0  0  0  0  0
    6.5890   -3.1240   24.1240 C   0  0  1  0  0  0  0  0  0  0  0  0
    5.4320   -2.9730   22.0480 C   0  0  0  0  0  0  0  0  0  0  0  0
    8.0110    1.7480   23.1510 N   0  0  0  0  0  0  0  0  0  0  0  0
    8.8480    1.5740   21.0980 O   0  0  0  0  0  0  0  0  0  0  0  0
    5.9950   -3.0330   25.5260 C   0  0  0  0  0  0  0  0  0  0  0  0
    5.1390    1.2800   20.2870 C   0  0  0  0  0  0  0  0  0  0  0  0
    6.8890    0.0930   19.2560 C   0  0  0  0  0  0  0  0  0  0  0  0
   10.8700   -2.0450   22.5880 C   0  0  0  0  0  0  0  0  0  0  0  0
   10.2170   -1.3380   24.7390 C   0  0  0  0  0  0  0  0  0  0  0  0
    6.2190   -4.0550   21.5350 N   0  0  0  0  0  0  0  0  0  0  0  0
    6.5250   -4.6420   23.7890 C   0  0  0  0  0  0  0  0  0  0  0  0
    6.0440   -4.2670   20.2190 C   0  0  0  0  0  0  0  0  0  0  0  0
    4.8230   -2.6760   25.6050 O   0  0  0  0  0  0  0  0  0  0  0  0
    6.3420    0.4120   17.9730 N   0  0  0  0  0  0  0  0  0  0  0  0
    4.5430    1.6340   19.1430 C   0  0  0  0  0  0  0  0  0  0  0  0
    8.4410    3.0820   23.4400 C   0  0  0  0  0  0  0  0  0  0  0  0
   11.2390   -1.8060   23.9010 C   0  0  0  0  0  0  0  0  0  0  0  0
    6.4730   -5.0610   22.4690 C   0  0  0  0  0  0  0  0  0  0  0  0
    6.7660   -3.3620   26.7130 N   0  0  0  0  0  0  0  0  0  0  0  0
   12.6210   -1.9960   24.3880 C   0  0  0  0  0  0  0  0  0  0  0  0
    6.8430   -3.4480   19.1820 C   0  0  0  0  0  0  0  0  0  0  0  0
    5.2700   -5.1360   19.9340 O   0  0  0  0  0  0  0  0  0  0  0  0
    5.1220    1.2180   17.8950 C   0  0  0  0  0  0  0  0  0  0  0  0
    9.8180    3.1600   23.6040 C   0  0  0  0  0  0  0  0  0  0  0  0
    8.0980    4.0880   22.5040 C   0  0  0  0  0  0  0  0  0  0  0  0
    7.9720   -4.2020   26.7180 C   0  0  0  0  0  0  0  0  0  0  0  0
    6.0310   -3.3400   27.9890 C   0  0  0  0  0  0  0  0  0  0  0  0
   12.8930   -0.6090   24.9810 C   0  0  0  0  0  0  0  0  0  0  0  0
   13.5070   -2.1490   23.2040 C   0  0  0  0  0  0  0  0  0  0  0  0
   12.9850   -3.0660   25.4280 C   0  0  0  0  0  0  0  0  0  0  0  0
   10.1810    4.4170   24.1230 C   0  0  0  0  0  0  0  0  0  0  0  0
    8.5370    5.3870   22.8690 C   0  0  0  0  0  0  0  0  0  0  0  0
    7.7190   -5.5830   27.3200 C   0  0  0  0  0  0  0  0  0  0  0  0
    5.8140   -4.7260   28.5500 C   0  0  0  0  0  0  0  0  0  0  0  0
    9.9240    5.3440   23.1920 O   0  0  0  0  0  0  0  0  0  0  0  0
    7.1550   -5.4370   28.7210 C   0  0  0  0  0  0  0  0  0  0  0  0
  1  2  1  0
  2  3  1  6
  1  4  1  6
  1  5  1  0
  1  6  1  0
  2  7  1  0
  5  8  2  0
  5  9  1  0
  6 10  1  0
  6 11  1  6
  3 12  1  0
  3 13  2  0
 10 14  1  1
  7 15  2  0
  7 16  1  0
  8 17  1  0
  9 18  2  0
 11 19  1  0
 10 20  1  0
 19 21  1  0
 14 22  2  0
 16 23  2  0
 15 24  1  0
 12 25  1  0
 17 26  2  0
 18 26  1  0
 19 27  1  0
 20 27  1  0
 14 28  1  0
 26 29  1  0
 21 30  1  0
 21 31  2  0
 23 32  1  0
 24 32  2  0
 25 33  1  0
 25 34  1  0
 28 35  1  0
 28 36  1  0
 29 37  1  0
 29 38  1  0
 29 39  1  0
 33 40  1  0
 34 41  1  0
 35 42  1  0
 36 43  1  0
 40 44  1  0
 41 44  1  0
 42 45  1  0
 43 45  1  0
M  END
