x1380-x0434
     RDKit          3D

 34 37  0  0  0  0  0  0  0  0999 V2000
    7.1960   -3.2800   19.2490 C   0  0  0  0  0  0  0  0  0  0  0  0
    6.3610   -4.0870   20.2380 C   0  0  0  0  0  0  0  0  0  0  0  0
    5.2880   -4.5670   19.8940 O   0  0  0  0  0  0  0  0  0  0  0  0
    6.8800   -4.3140   21.4900 N   0  0  0  0  0  0  0  0  0  0  0  0
    6.2180   -5.3020   22.3500 C   0  0  0  0  0  0  0  0  0  0  0  0
    7.8850   -3.4490   22.1570 C   0  0  0  0  0  0  0  0  0  0  0  0
    5.5790   -4.7790   23.4840 C   0  0  0  0  0  0  0  0  0  0  0  0
    7.2570   -2.7710   23.1910 C   0  0  1  0  0  0  0  0  0  0  0  0
    6.3540   -1.7480   22.3940 C   0  0  0  0  0  0  0  0  0  0  0  0
    6.6080   -3.8320   24.1420 C   0  0  1  0  0  0  0  0  0  0  0  0
    5.9180   -3.2580   25.4250 C   0  0  0  0  0  0  0  0  0  0  0  0
    7.0260   -0.8610   21.3750 N   0  0  0  0  0  0  0  0  0  0  0  0
    4.8770   -2.6280   25.3020 O   0  0  0  0  0  0  0  0  0  0  0  0
    8.2910   -0.3600   21.6440 C   0  0  0  0  0  0  0  0  0  0  0  0
    6.5190   -3.4980   26.6740 N   0  0  0  0  0  0  0  0  0  0  0  0
    6.3750   -0.1730   20.2910 C   0  0  0  0  0  0  0  0  0  0  0  0
    8.5960    0.7470   21.1820 O   0  0  0  0  0  0  0  0  0  0  0  0
    9.2660   -1.1190   22.4780 N   0  0  0  0  0  0  0  0  0  0  0  0
    7.8010   -3.9000   26.8370 C   0  0  0  0  0  0  0  0  0  0  0  0
    5.8260   -3.4310   27.8070 C   0  0  0  0  0  0  0  0  0  0  0  0
    5.1850    0.5290   20.4130 C   0  0  0  0  0  0  0  0  0  0  0  0
    6.9420   -0.1650   18.9930 C   0  0  0  0  0  0  0  0  0  0  0  0
    7.9850   -5.2900   27.4290 C   0  0  0  0  0  0  0  0  0  0  0  0
    5.9050   -4.7210   28.3450 C   0  0  0  0  0  0  0  0  0  0  0  0
   10.5310   -0.6060   22.6090 C   0  0  0  0  0  0  0  0  0  0  0  0
    4.6770    1.1610   19.2910 C   0  0  0  0  0  0  0  0  0  0  0  0
    6.4100    0.4740   17.9100 N   0  0  0  0  0  0  0  0  0  0  0  0
    7.1600   -5.2080   28.5470 C   0  0  0  0  0  0  0  0  0  0  0  0
   10.7460    0.6660   23.1090 C   0  0  0  0  0  0  0  0  0  0  0  0
   11.6480   -1.3390   22.2370 C   0  0  0  0  0  0  0  0  0  0  0  0
    5.2470    1.1710   18.0110 C   0  0  0  0  0  0  0  0  0  0  0  0
   12.0730    1.1800   23.2260 C   0  0  0  0  0  0  0  0  0  0  0  0
   12.9490   -0.8610   22.3430 C   0  0  0  0  0  0  0  0  0  0  0  0
   13.1600    0.4260   22.8470 C   0  0  0  0  0  0  0  0  0  0  0  0
  1  2  1  0
  2  3  2  0
  2  4  1  0
  4  5  1  0
  4  6  1  0
  5  7  1  0
  6  8  1  0
  8  9  1  6
  7 10  1  0
  8 10  1  0
 10 11  1  1
  9 12  1  0
 11 13  2  0
 12 14  1  0
 11 15  1  0
 12 16  1  0
 14 17  2  0
 14 18  1  0
 15 19  1  0
 15 20  1  0
 16 21  2  0
 16 22  1  0
 19 23  1  0
 20 24  1  0
 18 25  1  0
 21 26  1  0
 22 27  2  0
 23 28  1  0
 24 28  1  0
 25 29  2  0
 25 30  1  0
 26 31  2  0
 27 31  1  0
 29 32  1  0
 30 33  2  0
 32 34  2  0
 33 34  1  0
M  END
