x1385-x2581
     RDKit          3D

 37 42  0  0  0  0  0  0  0  0999 V2000
    9.0170   -2.4180   23.9920 C   0  0  1  0  0  0  0  0  0  0  0  0
   10.0930   -1.4290   23.9340 O   0  0  0  0  0  0  0  0  0  0  0  0
    9.7990   -0.3610   23.0910 C   0  0  0  0  0  0  0  0  0  0  0  0
    8.6390   -2.9290   22.6900 N   0  0  0  0  0  0  0  0  0  0  0  0
    8.9830   -3.6010   24.9900 C   0  0  0  0  0  0  0  0  0  0  0  0
    7.8170   -4.0220   22.6830 C   0  0  0  0  0  0  0  0  0  0  0  0
    8.3280   -1.8330   21.7400 C   0  0  2  0  0  0  0  0  0  0  0  0
    9.7110   -4.7990   25.0230 C   0  0  0  0  0  0  0  0  0  0  0  0
    7.8740   -3.5700   26.2950 S   0  0  0  0  0  0  0  0  0  0  0  0
   10.3740    0.9030   23.3020 C   0  0  0  0  0  0  0  0  0  0  0  0
    8.9280   -0.5240   22.0300 C   0  0  0  0  0  0  0  0  0  0  0  0
    6.3410   -3.7280   22.3910 C   0  0  0  0  0  0  0  0  0  0  0  0
    6.8460   -1.6440   21.4320 C   0  0  0  0  0  0  0  0  0  0  0  0
    8.3380   -5.0850   26.8510 C   0  0  0  0  0  0  0  0  0  0  0  0
    9.3350   -5.6640   26.1090 C   0  0  0  0  0  0  0  0  0  0  0  0
    7.4850   -5.8420   28.3700 Br  0  0  0  0  0  0  0  0  0  0  0  0
    9.9660    2.0630   22.3100 C   0  0  0  0  0  0  0  0  0  0  0  0
    8.5710    0.5040   21.1930 C   0  0  0  0  0  0  0  0  0  0  0  0
    6.2170   -2.9040   21.2130 N   0  0  0  0  0  0  0  0  0  0  0  0
   10.3890    3.3790   22.2680 N   0  0  0  0  0  0  0  0  0  0  0  0
    6.2040   -3.4030   19.9250 C   0  0  0  0  0  0  0  0  0  0  0  0
    9.0050    1.7570   21.2520 N   0  0  0  0  0  0  0  0  0  0  0  0
   11.2030    3.9150   23.1690 C   0  0  0  0  0  0  0  0  0  0  0  0
    7.3450   -3.0350   18.9270 C   0  0  0  0  0  0  0  0  0  0  0  0
    5.2650   -4.1300   19.6570 O   0  0  0  0  0  0  0  0  0  0  0  0
   11.3450    3.3640   24.1960 O   0  0  0  0  0  0  0  0  0  0  0  0
   11.8730    5.2260   22.7940 C   0  0  0  0  0  0  0  0  0  0  0  0
   11.0980    6.3770   23.3710 C   0  0  0  0  0  0  0  0  0  0  0  0
    9.8740    6.7180   22.8160 C   0  0  0  0  0  0  0  0  0  0  0  0
   11.5890    7.0970   24.4520 C   0  0  0  0  0  0  0  0  0  0  0  0
    9.0090    7.8580   23.3200 C   0  0  0  0  0  0  0  0  0  0  0  0
   10.8950    8.1590   24.9990 C   0  0  0  0  0  0  0  0  0  0  0  0
    9.6280    8.5880   24.4960 C   0  0  0  0  0  0  0  0  0  0  0  0
   11.4450    8.8560   26.0830 C   0  0  0  0  0  0  0  0  0  0  0  0
    8.9730    9.6790   25.0810 C   0  0  0  0  0  0  0  0  0  0  0  0
   10.7750    9.9420   26.6520 C   0  0  0  0  0  0  0  0  0  0  0  0
    9.5420   10.3490   26.1480 C   0  0  0  0  0  0  0  0  0  0  0  0
  1  2  1  0
  2  3  1  0
  1  4  1  0
  1  5  1  1
  4  6  1  0
  4  7  1  0
  5  8  2  0
  5  9  1  0
  3 10  2  0
  3 11  1  0
  7 11  1  0
  6 12  1  0
  7 13  1  1
  9 14  1  0
  8 15  1  0
 14 15  2  0
 14 16  1  0
 10 17  1  0
 11 18  2  0
 12 19  1  0
 13 19  1  0
 17 20  1  0
 19 21  1  0
 17 22  2  0
 18 22  1  0
 20 23  1  0
 21 24  1  0
 21 25  2  0
 23 26  2  0
 23 27  1  0
 27 28  1  0
 28 29  2  0
 28 30  1  0
 29 31  1  0
 30 32  2  0
 31 33  2  0
 32 33  1  0
 32 34  1  0
 33 35  1  0
 34 36  2  0
 35 37  2  0
 36 37  1  0
M  END
