x1385-x3298
     RDKit          3D

 44 48  0  0  0  0  0  0  0  0999 V2000
    7.1300    2.1110   22.1950 N   0  0  0  0  0  0  0  0  0  0  0  0
    7.7980    1.1380   21.4890 C   0  0  0  0  0  0  0  0  0  0  0  0
    6.9260   -0.1180   21.2690 C   0  0  1  0  0  0  0  0  0  0  0  0
    7.8590    3.1840   22.6780 C   0  0  0  0  0  0  0  0  0  0  0  0
    8.9270    1.3000   21.0520 O   0  0  0  0  0  0  0  0  0  0  0  0
    7.7080    4.5310   22.3790 C   0  0  0  0  0  0  0  0  0  0  0  0
    8.8230    2.7390   23.5280 C   0  0  0  0  0  0  0  0  0  0  0  0
    5.9190   -0.2200   22.2760 O   0  0  0  0  0  0  0  0  0  0  0  0
    8.9240    1.3140   23.8190 N   0  0  0  0  0  0  0  0  0  0  0  0
    6.2460    0.3620   20.0500 C   0  0  0  0  0  0  0  0  0  0  0  0
    8.5770    5.4620   22.9610 C   0  0  0  0  0  0  0  0  0  0  0  0
    9.6850    3.6620   24.0900 C   0  0  0  0  0  0  0  0  0  0  0  0
    7.5320   -1.5500   21.1280 C   0  0  2  0  0  0  0  0  0  0  0  0
   10.2670    0.7380   24.5990 S   0  0  0  0  0  0  0  0  0  0  0  0
    6.8480    0.2240   18.8140 C   0  0  0  0  0  0  0  0  0  0  0  0
    5.0070    0.9760   20.1210 C   0  0  0  0  0  0  0  0  0  0  0  0
    9.5760    5.0170   23.8210 C   0  0  0  0  0  0  0  0  0  0  0  0
    6.4350   -2.5350   21.0010 N   0  0  0  0  0  0  0  0  0  0  0  0
    8.5310   -1.9040   22.0130 C   0  0  0  0  0  0  0  0  0  0  0  0
   11.0290    1.9270   24.6450 O   0  0  0  0  0  0  0  0  0  0  0  0
    9.9830   -0.1490   25.7140 O   0  0  0  0  0  0  0  0  0  0  0  0
    6.3250   -3.2020   19.7880 C   0  0  0  0  0  0  0  0  0  0  0  0
    6.3360    0.6580   17.6660 N   0  0  0  0  0  0  0  0  0  0  0  0
    4.4550    1.4330   18.9360 C   0  0  0  0  0  0  0  0  0  0  0  0
   11.2870   -0.0560   23.4810 C   0  0  0  0  0  0  0  0  0  0  0  0
    6.0470   -3.1940   22.2330 C   0  0  0  0  0  0  0  0  0  0  0  0
    8.1860   -2.7800   23.2060 N   0  0  0  0  0  0  0  0  0  0  0  0
    7.3980   -3.0060   18.7050 C   0  0  0  0  0  0  0  0  0  0  0  0
    5.3820   -3.9770   19.6100 O   0  0  0  0  0  0  0  0  0  0  0  0
    9.3010   -3.6500   23.6190 C   0  0  0  0  0  0  0  0  0  0  0  0
    5.1510    1.2590   17.7580 C   0  0  0  0  0  0  0  0  0  0  0  0
   12.5000    0.5350   23.2840 C   0  0  0  0  0  0  0  0  0  0  0  0
   10.9070   -1.1860   22.8390 C   0  0  0  0  0  0  0  0  0  0  0  0
    7.1820   -3.8070   22.8010 C   0  0  0  0  0  0  0  0  0  0  0  0
   13.3470   -0.0350   22.3970 C   0  0  0  0  0  0  0  0  0  0  0  0
   11.7500   -1.7700   21.9430 C   0  0  0  0  0  0  0  0  0  0  0  0
    9.0300   -4.4090   24.8640 C   0  0  0  0  0  0  0  0  0  0  0  0
   12.9680   -1.1900   21.7190 C   0  0  0  0  0  0  0  0  0  0  0  0
    9.6580   -5.5800   25.2740 C   0  0  0  0  0  0  0  0  0  0  0  0
    7.8310   -3.8950   25.9800 S   0  0  0  0  0  0  0  0  0  0  0  0
   13.7660   -1.7430   20.8360 F   0  0  0  0  0  0  0  0  0  0  0  0
    8.1860   -5.3140   26.9800 C   0  0  0  0  0  0  0  0  0  0  0  0
    9.1920   -6.1160   26.4860 C   0  0  0  0  0  0  0  0  0  0  0  0
    7.2250   -5.6650   28.5740 Br  0  0  0  0  0  0  0  0  0  0  0  0
  1  2  1  0
  2  3  1  0
  1  4  1  0
  2  5  2  0
  4  6  2  0
  4  7  1  0
  3  8  1  1
  7  9  1  0
  3 10  1  0
  6 11  1  0
  7 12  2  0
  3 13  1  0
 14  9  1  0
 10 15  2  0
 10 16  1  0
 11 17  2  0
 12 17  1  0
 13 18  1  0
 13 19  1  1
 14 20  2  0
 14 21  2  0
 18 22  1  0
 15 23  1  0
 16 24  2  0
 14 25  1  0
 18 26  1  0
 19 27  1  0
 22 28  1  0
 22 29  2  0
 27 30  1  0
 23 31  2  0
 24 31  1  0
 25 32  2  0
 25 33  1  0
 26 34  1  0
 27 34  1  0
 32 35  1  0
 33 36  2  0
 30 37  1  0
 35 38  2  0
 36 38  1  0
 37 39  2  0
 37 40  1  0
 38 41  1  0
 40 42  1  0
 39 43  1  0
 42 43  2  0
 42 44  1  0
M  END
