x1385-x2608
     RDKit          3D

 32 36  0  0  0  0  0  0  0  0999 V2000
    7.4050   -2.9790   18.9270 C   0  0  0  0  0  0  0  0  0  0  0  0
    6.2690   -3.3140   19.9290 C   0  0  0  0  0  0  0  0  0  0  0  0
    5.3190   -4.0290   19.6360 O   0  0  0  0  0  0  0  0  0  0  0  0
    6.2700   -2.8360   21.2410 N   0  0  0  0  0  0  0  0  0  0  0  0
    6.1290   -3.8610   22.2770 C   0  0  0  0  0  0  0  0  0  0  0  0
    6.9200   -1.6330   21.7670 C   0  0  2  0  0  0  0  0  0  0  0  0
    7.1900   -0.5570   20.8650 N   0  0  0  0  0  0  0  0  0  0  0  0
    7.5000   -4.1580   22.9580 C   0  0  0  0  0  0  0  0  0  0  0  0
    8.3300   -2.0360   22.1920 C   0  0  1  0  0  0  0  0  0  0  0  0
    8.8990   -0.7310   22.3990 N   0  0  0  0  0  0  0  0  0  0  0  0
    8.2850    0.1130   21.4080 C   0  0  0  0  0  0  0  0  0  0  0  0
    8.2210   -2.9270   23.3430 N   0  0  0  0  0  0  0  0  0  0  0  0
    6.3550    0.0980   19.9520 C   0  0  0  0  0  0  0  0  0  0  0  0
    9.4390   -3.1800   24.0730 C   0  0  0  0  0  0  0  0  0  0  0  0
    8.6340    1.2550   21.0740 O   0  0  0  0  0  0  0  0  0  0  0  0
   10.2190   -0.3930   22.5700 C   0  0  0  0  0  0  0  0  0  0  0  0
    6.7320    0.1670   18.6380 C   0  0  0  0  0  0  0  0  0  0  0  0
    5.1510    0.7190   20.2960 C   0  0  0  0  0  0  0  0  0  0  0  0
    9.1480   -4.1910   25.1280 C   0  0  0  0  0  0  0  0  0  0  0  0
   11.5140   -1.1830   22.7120 C   0  0  0  0  0  0  0  0  0  0  0  0
   10.4810    1.2980   22.6190 S   0  0  0  0  0  0  0  0  0  0  0  0
    6.0550    0.7890   17.6700 N   0  0  0  0  0  0  0  0  0  0  0  0
    4.4170    1.3800   19.3220 C   0  0  0  0  0  0  0  0  0  0  0  0
    9.7250   -5.4000   25.2960 C   0  0  0  0  0  0  0  0  0  0  0  0
    7.9360   -3.8260   26.2970 S   0  0  0  0  0  0  0  0  0  0  0  0
   12.1530    1.2050   22.7470 C   0  0  0  0  0  0  0  0  0  0  0  0
   12.5270   -0.2500   22.8080 C   0  0  0  0  0  0  0  0  0  0  0  0
    4.9200    1.3900   18.0380 C   0  0  0  0  0  0  0  0  0  0  0  0
   12.8880    2.4680   22.7520 C   0  0  0  0  0  0  0  0  0  0  0  0
    8.1500   -5.3020   27.0600 C   0  0  0  0  0  0  0  0  0  0  0  0
    9.2100   -6.1140   26.3990 C   0  0  0  0  0  0  0  0  0  0  0  0
    7.1240   -5.8200   28.5710 Br  0  0  0  0  0  0  0  0  0  0  0  0
  1  2  1  0
  2  3  2  0
  2  4  1  0
  4  5  1  0
  6  4  1  6
  6  7  1  0
  5  8  1  0
  6  9  1  0
  9 10  1  1
  7 11  1  0
 10 11  1  0
  8 12  1  0
  9 12  1  0
  7 13  1  0
 12 14  1  0
 11 15  2  0
 10 16  1  0
 13 17  2  0
 13 18  1  0
 14 19  1  0
 16 20  2  0
 16 21  1  0
 17 22  1  0
 18 23  2  0
 19 24  2  0
 19 25  1  0
 21 26  1  0
 20 27  1  0
 26 27  2  0
 22 28  2  0
 23 28  1  0
 26 29  1  0
 25 30  1  0
 24 31  1  0
 30 31  2  0
 30 32  1  0
M  END
