x1385-x2563
     RDKit          3D

 37 42  0  0  0  0  0  0  0  0999 V2000
    7.4330   -3.0230   18.7890 C   0  0  0  0  0  0  0  0  0  0  0  0
    6.3020   -3.2900   19.8180 C   0  0  0  0  0  0  0  0  0  0  0  0
    5.2710   -3.8460   19.4690 O   0  0  0  0  0  0  0  0  0  0  0  0
    6.3970   -2.9910   21.1610 N   0  0  0  0  0  0  0  0  0  0  0  0
    6.3660   -3.9460   22.0850 C   0  0  0  0  0  0  0  0  0  0  0  0
    6.8600   -1.8340   21.6290 C   0  0  2  0  0  0  0  0  0  0  0  0
    7.4480   -0.7580   20.6670 C   0  0  1  0  0  0  0  0  0  0  0  0
    7.5650   -4.2350   22.6900 C   0  0  0  0  0  0  0  0  0  0  0  0
    7.8170   -1.9510   22.6620 C   0  0  2  0  0  0  0  0  0  0  0  0
    9.0550   -1.4480   21.9820 C   0  0  2  0  0  0  0  0  0  0  0  0
    8.1480   -3.1330   23.2070 N   0  0  0  0  0  0  0  0  0  0  0  0
    6.5130    0.0700   19.8600 C   0  0  0  0  0  0  0  0  0  0  0  0
    8.4750   -0.1010   21.5720 C   0  0  0  0  0  0  0  0  0  0  0  0
    9.2890   -3.3320   24.0740 C   0  0  0  0  0  0  0  0  0  0  0  0
    9.2880   -1.9860   20.9480 O   0  0  0  0  0  0  0  0  0  0  0  0
   10.2740   -1.4080   22.7790 N   0  0  0  0  0  0  0  0  0  0  0  0
    5.3580    0.7690   20.2500 C   0  0  0  0  0  0  0  0  0  0  0  0
    6.8240    0.1670   18.5160 C   0  0  0  0  0  0  0  0  0  0  0  0
    9.0770   -4.2750   25.1040 C   0  0  0  0  0  0  0  0  0  0  0  0
    6.1770    0.8320   17.5480 N   0  0  0  0  0  0  0  0  0  0  0  0
    4.6600    1.4730   19.2560 C   0  0  0  0  0  0  0  0  0  0  0  0
    4.9120    0.7680   21.5930 C   0  0  0  0  0  0  0  0  0  0  0  0
   10.5820   -0.1090   23.2060 C   0  0  0  0  0  0  0  0  0  0  0  0
    9.6860   -5.4860   25.3300 C   0  0  0  0  0  0  0  0  0  0  0  0
    7.8820   -3.9190   26.2750 S   0  0  0  0  0  0  0  0  0  0  0  0
    5.0970    1.4790   17.9590 C   0  0  0  0  0  0  0  0  0  0  0  0
    3.4330    2.1910   19.7610 C   0  0  0  0  0  0  0  0  0  0  0  0
    3.7820    1.4440   22.0030 C   0  0  0  0  0  0  0  0  0  0  0  0
   11.9040    0.4750   22.8140 C   0  0  0  0  0  0  0  0  0  0  0  0
    9.6500    0.6120   23.9650 C   0  0  0  0  0  0  0  0  0  0  0  0
    8.1590   -5.3690   27.0670 C   0  0  0  0  0  0  0  0  0  0  0  0
    9.1630   -6.1270   26.4700 C   0  0  0  0  0  0  0  0  0  0  0  0
    3.0470    2.1510   21.0870 C   0  0  0  0  0  0  0  0  0  0  0  0
   12.2020    1.7910   23.1980 C   0  0  0  0  0  0  0  0  0  0  0  0
    9.9610    2.0140   24.3760 C   0  0  0  0  0  0  0  0  0  0  0  0
    7.1550   -5.8550   28.6000 Br  0  0  0  0  0  0  0  0  0  0  0  0
   11.1610    2.5650   24.0000 C   0  0  0  0  0  0  0  0  0  0  0  0
  1  2  1  0
  2  3  2  0
  2  4  1  0
  4  5  1  0
  6  4  1  6
  6  7  1  0
  5  8  1  0
  6  9  1  0
  9 10  1  0
  8 11  1  0
  9 11  1  6
  7 12  1  1
  7 13  1  0
 10 13  1  0
 11 14  1  0
 10 15  1  6
 10 16  1  0
 12 17  1  0
 12 18  2  0
 14 19  1  0
 18 20  1  0
 17 21  2  0
 17 22  1  0
 16 23  1  0
 19 24  2  0
 19 25  1  0
 20 26  2  0
 21 26  1  0
 21 27  1  0
 22 28  2  0
 23 29  2  0
 23 30  1  0
 25 31  1  0
 24 32  1  0
 31 32  2  0
 27 33  2  0
 28 33  1  0
 29 34  1  0
 30 35  2  0
 31 36  1  0
 34 37  2  0
 35 37  1  0
M  END
