x1380-x0995-x2776-x2694
     RDKit          3D

 50 54  0  0  0  0  0  0  0  0999 V2000
    7.3620   -1.1520   21.6320 N   0  0  0  0  0  0  0  0  0  0  0  0
    6.9860    0.1550   21.6000 C   0  0  1  0  0  0  0  0  0  0  0  0
    8.0760    1.1510   21.8500 C   0  0  0  0  0  0  0  0  0  0  0  0
    6.1650   -2.0090   21.9720 C   0  0  0  0  0  0  0  0  0  0  0  0
    8.5000   -1.4780   22.4120 C   0  0  0  0  0  0  0  0  0  0  0  0
    6.3140    0.5470   20.2950 C   0  0  0  0  0  0  0  0  0  0  0  0
    9.8210   -1.4840   21.9350 C   0  0  0  0  0  0  0  0  0  0  0  0
    8.2750   -1.8430   23.8240 C   0  0  0  0  0  0  0  0  0  0  0  0
    6.2390   -3.5940   21.8110 C   0  0  2  0  0  0  0  0  0  0  0  0
    7.9200    1.9490   22.9490 N   0  0  0  0  0  0  0  0  0  0  0  0
    9.0240    1.2870   21.0930 O   0  0  0  0  0  0  0  0  0  0  0  0
    6.1040   -3.8620   20.2620 C   0  0  0  0  0  0  0  0  0  0  0  0
    5.0660    1.3750   20.1580 C   0  0  0  0  0  0  0  0  0  0  0  0
    6.8590    0.1490   18.9710 C   0  0  0  0  0  0  0  0  0  0  0  0
   10.8760   -1.8460   22.7810 C   0  0  0  0  0  0  0  0  0  0  0  0
    9.3460   -2.1970   24.6050 C   0  0  0  0  0  0  0  0  0  0  0  0
    5.1270   -4.0870   22.3900 C   0  0  0  0  0  0  0  0  0  0  0  0
    7.4430   -4.1430   22.2040 C   0  0  0  0  0  0  0  0  0  0  0  0
   12.1870   -1.8860   22.4220 C   0  0  0  0  0  0  0  0  0  0  0  0
    7.0090   -3.1830   19.2330 C   0  0  0  0  0  0  0  0  0  0  0  0
    5.2520   -4.6540   19.8910 O   0  0  0  0  0  0  0  0  0  0  0  0
    6.2910    0.5130   17.6780 N   0  0  0  0  0  0  0  0  0  0  0  0
    4.5300    1.7130   18.9450 C   0  0  0  0  0  0  0  0  0  0  0  0
    8.6800    3.1490   23.1940 C   0  0  0  0  0  0  0  0  0  0  0  0
   10.6060   -2.1960   24.0930 C   0  0  0  0  0  0  0  0  0  0  0  0
    5.4180   -4.9980   23.5730 C   0  0  0  0  0  0  0  0  0  0  0  0
    7.5720   -4.2660   23.5350 C   0  0  0  0  0  0  0  0  0  0  0  0
   13.1270   -1.8560   23.6280 C   0  0  2  0  0  0  0  0  0  0  0  0
    3.4460    2.4350   18.8130 N   0  0  0  0  0  0  0  0  0  0  0  0
    5.1790    1.2660   17.7990 C   0  0  0  0  0  0  0  0  0  0  0  0
    9.9900    3.0980   23.6410 C   0  0  0  0  0  0  0  0  0  0  0  0
    7.9920    4.5240   22.9390 C   0  0  0  0  0  0  0  0  0  0  0  0
    6.4380   -4.5550   24.4270 C   0  0  1  0  0  0  0  0  0  0  0  0
   13.0740   -2.9870   24.1350 O   0  0  0  0  0  0  0  0  0  0  0  0
   10.6850    1.7900   23.8840 C   0  0  0  0  0  0  0  0  0  0  0  0
   12.8010   -0.5860   24.4210 C   0  0  0  0  0  0  0  0  0  0  0  0
    6.0370   -3.5900   25.5510 C   0  0  0  0  0  0  0  0  0  0  0  0
   10.7580    4.4300   23.8930 C   0  0  0  0  0  0  0  0  0  0  0  0
    8.7070    5.8090   23.1750 C   0  0  0  0  0  0  0  0  0  0  0  0
   13.3180   -3.0960   25.5370 C   0  0  0  0  0  0  0  0  0  0  0  0
    4.9560   -2.6700   25.2920 O   0  0  0  0  0  0  0  0  0  0  0  0
   10.1150    5.7710   23.6670 C   0  0  0  0  0  0  0  0  0  0  0  0
    6.7180   -3.6200   26.8570 N   0  0  0  0  0  0  0  0  0  0  0  0
   10.9500    6.8880   23.9600 O   0  0  0  0  0  0  0  0  0  0  0  0
    7.9860   -4.4040   26.9120 C   0  0  0  0  0  0  0  0  0  0  0  0
    6.0920   -3.3580   28.0300 C   0  0  0  0  0  0  0  0  0  0  0  0
   11.8270    6.7470   25.0740 C   0  0  0  0  0  0  0  0  0  0  0  0
    8.1690   -5.0030   28.1390 C   0  0  0  0  0  0  0  0  0  0  0  0
    5.8490   -4.5530   28.7700 C   0  0  0  0  0  0  0  0  0  0  0  0
    6.8330   -5.5340   28.7200 C   0  0  0  0  0  0  0  0  0  0  0  0
  1  2  1  0
  2  3  1  6
  1  4  1  0
  1  5  1  0
  2  6  1  0
  5  7  2  0
  5  8  1  0
  9  4  1  6
  3 10  1  0
  3 11  2  0
  9 12  1  0
  6 13  2  0
  6 14  1  0
  7 15  1  0
  8 16  2  0
  9 17  1  0
  9 18  1  0
 15 19  1  0
 12 20  1  0
 12 21  2  0
 14 22  2  0
 13 23  1  0
 10 24  1  0
 15 25  2  0
 16 25  1  0
 17 26  1  0
 18 27  1  0
 19 28  1  0
 23 29  1  0
 22 30  1  0
 23 30  2  0
 24 31  2  0
 24 32  1  0
 26 33  1  0
 27 33  1  0
 28 34  1  0
 31 35  1  0
 28 36  1  1
 33 37  1  6
 31 38  1  0
 32 39  2  0
 34 40  1  0
 37 41  2  0
 38 42  2  0
 39 42  1  0
 37 43  1  0
 42 44  1  0
 43 45  1  0
 43 46  1  0
 44 47  1  0
 45 48  1  0
 46 49  1  0
 48 50  1  0
 49 50  1  0
M  END
