x1382-x1458
     RDKit          3D

 28 30  0  0  0  0  0  0  0  0999 V2000
    7.3430   -3.4520   26.6780 N   0  0  0  0  0  0  0  0  0  0  0  0
    7.7650   -4.5840   27.3890 C   0  0  0  0  0  0  0  0  0  0  0  0
    8.8540   -5.3570   26.6700 C   0  0  0  0  0  0  0  0  0  0  0  0
    7.8880   -2.1160   26.9770 C   0  0  0  0  0  0  0  0  0  0  0  0
    6.2290   -3.6060   25.7350 C   0  0  0  0  0  0  0  0  0  0  0  0
    5.0520   -3.4900   26.0930 O   0  0  0  0  0  0  0  0  0  0  0  0
    6.5840   -5.5460   27.6100 C   0  0  0  0  0  0  0  0  0  0  0  0
    6.5050   -3.8910   24.2860 C   0  0  1  0  0  0  0  0  0  0  0  0
    7.9010   -3.5950   23.7540 C   0  0  0  0  0  0  0  0  0  0  0  0
    6.0810   -5.2100   23.6490 C   0  0  0  0  0  0  0  0  0  0  0  0
    7.8950   -3.3960   22.3750 C   0  0  2  0  0  0  0  0  0  0  0  0
    6.5020   -5.3620   22.3400 C   0  0  0  0  0  0  0  0  0  0  0  0
    8.2140   -1.8240   22.1760 C   0  0  2  0  0  0  0  0  0  0  0  0
    6.7810   -4.0360   21.7310 N   0  0  0  0  0  0  0  0  0  0  0  0
    6.3950   -3.9240   20.3810 C   0  0  0  0  0  0  0  0  0  0  0  0
    7.2380   -1.0840   22.8080 C   0  0  0  0  0  0  0  0  0  0  0  0
    8.5800   -1.6330   20.9000 N   0  0  0  0  0  0  0  0  0  0  0  0
    9.6460   -1.2910   22.5850 C   0  0  0  0  0  0  0  0  0  0  0  0
    5.3930   -4.5160   19.9500 O   0  0  0  0  0  0  0  0  0  0  0  0
    7.2420   -3.1560   19.4230 C   0  0  0  0  0  0  0  0  0  0  0  0
    7.5990   -1.7940   20.0150 C   0  0  0  0  0  0  0  0  0  0  0  0
   10.7630   -1.7910   21.9480 C   0  0  0  0  0  0  0  0  0  0  0  0
    9.8510   -0.2800   23.5610 C   0  0  0  0  0  0  0  0  0  0  0  0
    6.9430   -0.5790   19.6900 O   0  0  0  0  0  0  0  0  0  0  0  0
   12.0260   -1.3130   22.2320 C   0  0  0  0  0  0  0  0  0  0  0  0
   11.1410    0.2100   23.8630 C   0  0  0  0  0  0  0  0  0  0  0  0
   13.2880   -1.9980   21.3550 Cl  0  0  0  0  0  0  0  0  0  0  0  0
   12.2360   -0.3170   23.1810 C   0  0  0  0  0  0  0  0  0  0  0  0
  1  2  1  0
  2  3  1  0
  1  4  1  0
  1  5  1  0
  5  6  2  0
  2  7  1  0
  8  5  1  1
  8  9  1  0
  8 10  1  0
 11  9  1  1
 10 12  1  0
 11 13  1  0
 11 14  1  0
 12 14  1  0
 14 15  1  0
 13 16  1  1
 13 17  1  0
 13 18  1  0
 15 19  2  0
 15 20  1  0
 17 21  1  0
 20 21  1  0
 18 22  2  0
 18 23  1  0
 21 24  2  0
 22 25  1  0
 23 26  2  0
 25 27  1  0
 25 28  2  0
 26 28  1  0
M  END
