x1380-x1093
     RDKit          3D

 37 41  0  0  0  0  0  0  0  0999 V2000
    7.3160   -3.3830   19.4590 C   0  0  0  0  0  0  0  0  0  0  0  0
    6.5450   -4.1350   20.2330 C   0  0  0  0  0  0  0  0  0  0  0  0
    5.4120   -4.4620   19.8780 O   0  0  0  0  0  0  0  0  0  0  0  0
    7.0630   -4.6030   21.4340 N   0  0  0  0  0  0  0  0  0  0  0  0
    6.2110   -5.4320   22.2800 C   0  0  0  0  0  0  0  0  0  0  0  0
    8.0210   -3.8850   22.1870 C   0  0  0  0  0  0  0  0  0  0  0  0
    5.4260   -4.3630   23.2210 C   0  0  0  0  0  0  0  0  0  0  0  0
    7.4080   -2.9140   23.1940 C   0  0  1  0  0  0  0  0  0  0  0  0
    6.6800   -1.8420   22.3660 C   0  0  0  0  0  0  0  0  0  0  0  0
    6.5630   -3.7290   24.0350 C   0  0  1  0  0  0  0  0  0  0  0  0
    6.1590   -3.0960   25.3460 C   0  0  0  0  0  0  0  0  0  0  0  0
    7.2690   -0.5780   21.8960 C   0  0  1  0  0  0  0  0  0  0  0  0
    5.3200   -2.1950   25.3160 O   0  0  0  0  0  0  0  0  0  0  0  0
    8.7560   -0.1440   22.0070 C   0  0  0  0  0  0  0  0  0  0  0  0
    6.5880   -3.4660   26.3900 N   0  0  0  0  0  0  0  0  0  0  0  0
    6.8450   -0.2960   20.5230 C   0  0  0  0  0  0  0  0  0  0  0  0
    9.0940    0.7880   21.2820 O   0  0  0  0  0  0  0  0  0  0  0  0
    7.8550   -3.9840   26.4360 C   0  0  0  0  0  0  0  0  0  0  0  0
    5.9620   -3.2720   27.5760 C   0  0  0  0  0  0  0  0  0  0  0  0
    9.6950   -0.6040   22.8680 N   0  0  0  0  0  0  0  0  0  0  0  0
    7.2860   -0.6690   19.1350 C   0  0  0  0  0  0  0  0  0  0  0  0
    5.7570    0.5360   20.4320 C   0  0  0  0  0  0  0  0  0  0  0  0
    7.8120   -5.3140   27.2010 C   0  0  0  0  0  0  0  0  0  0  0  0
    6.2060   -4.1220   28.6790 C   0  0  0  0  0  0  0  0  0  0  0  0
   10.3640    0.3830   23.5740 C   0  0  0  0  0  0  0  0  0  0  0  0
   10.1700   -1.8820   22.6590 C   0  0  0  0  0  0  0  0  0  0  0  0
    6.3350    0.0380   18.2480 N   0  0  0  0  0  0  0  0  0  0  0  0
    5.4030    0.7770   19.0990 C   0  0  0  0  0  0  0  0  0  0  0  0
    4.9630    1.1660   21.3820 C   0  0  0  0  0  0  0  0  0  0  0  0
    7.2580   -5.0560   28.6000 C   0  0  0  0  0  0  0  0  0  0  0  0
   11.8530    0.1170   23.5090 C   0  0  0  0  0  0  0  0  0  0  0  0
   11.6920   -1.8490   22.4400 C   0  0  0  0  0  0  0  0  0  0  0  0
    4.4150    1.5230   18.5920 N   0  0  0  0  0  0  0  0  0  0  0  0
    3.8190    2.0270   20.8650 C   0  0  0  0  0  0  0  0  0  0  0  0
   12.0600   -1.2000   23.5450 N   0  0  0  0  0  0  0  0  0  0  0  0
    3.6130    2.1540   19.4950 C   0  0  0  0  0  0  0  0  0  0  0  0
   13.3770   -1.4730   23.8320 C   0  0  0  0  0  0  0  0  0  0  0  0
  1  2  1  0
  2  3  2  0
  2  4  1  0
  4  5  1  0
  4  6  1  0
  5  7  1  0
  6  8  1  0
  8  9  1  6
  7 10  1  0
  8 10  1  0
 10 11  1  1
 12  9  1  6
 11 13  2  0
 12 14  1  0
 11 15  1  0
 12 16  1  0
 14 17  2  0
 15 18  1  0
 15 19  1  0
 14 20  1  0
 16 21  2  0
 16 22  1  0
 18 23  1  0
 19 24  1  0
 20 25  1  0
 20 26  1  0
 21 27  1  0
 22 28  2  0
 27 28  1  0
 22 29  1  0
 23 30  1  0
 24 30  1  0
 25 31  1  0
 26 32  1  0
 28 33  1  0
 29 34  2  0
 31 35  1  0
 32 35  1  0
 33 36  2  0
 34 36  1  0
 35 37  1  0
M  END
