x1380-x2705-x0107
     RDKit          3D

 47 51  0  0  0  0  0  0  0  0999 V2000
    7.4040   -0.9740   22.0030 N   0  0  0  0  0  0  0  0  0  0  0  0
    6.9570    0.3710   21.5800 C   0  0  1  0  0  0  0  0  0  0  0  0
    7.9580    1.4360   21.7880 C   0  0  0  0  0  0  0  0  0  0  0  0
    6.3060   -1.8810   22.4690 C   0  0  0  0  0  0  0  0  0  0  0  0
    8.5890   -1.0910   22.7480 C   0  0  0  0  0  0  0  0  0  0  0  0
    6.3640    0.4860   20.3960 C   0  0  0  0  0  0  0  0  0  0  0  0
    8.6910   -1.1120   24.1200 N   0  0  0  0  0  0  0  0  0  0  0  0
    9.8570   -1.2050   22.1680 C   0  0  0  0  0  0  0  0  0  0  0  0
    6.7490   -3.0510   23.2290 C   0  0  1  0  0  0  0  0  0  0  0  0
    7.6530    2.3430   22.7690 N   0  0  0  0  0  0  0  0  0  0  0  0
    8.9830    1.5560   21.1300 O   0  0  0  0  0  0  0  0  0  0  0  0
    5.1860    1.2090   20.2410 C   0  0  0  0  0  0  0  0  0  0  0  0
    6.9860   -0.1340   19.3110 C   0  0  0  0  0  0  0  0  0  0  0  0
   10.0290   -1.2370   24.3540 N   0  0  0  0  0  0  0  0  0  0  0  0
   10.7780   -1.2940   23.1860 C   0  0  0  0  0  0  0  0  0  0  0  0
    5.7840   -3.8020   23.9050 C   0  0  2  0  0  0  0  0  0  0  0  0
    7.6040   -3.9510   22.3830 C   0  0  0  0  0  0  0  0  0  0  0  0
   12.2890   -1.4210   23.1440 C   0  0  0  0  0  0  0  0  0  0  0  0
    5.5210   -3.3520   25.3010 C   0  0  0  0  0  0  0  0  0  0  0  0
    6.3410    0.0290   17.9850 N   0  0  0  0  0  0  0  0  0  0  0  0
    4.6540    1.3070   18.9990 C   0  0  0  0  0  0  0  0  0  0  0  0
    8.3140    3.5780   22.9310 C   0  0  0  0  0  0  0  0  0  0  0  0
    6.8800   -4.8280   21.6760 N   0  0  0  0  0  0  0  0  0  0  0  0
    5.8590   -5.2120   23.7220 C   0  0  0  0  0  0  0  0  0  0  0  0
   12.8490   -0.1250   23.5570 C   0  0  0  0  0  0  0  0  0  0  0  0
   12.7360   -2.3980   24.1760 C   0  0  0  0  0  0  0  0  0  0  0  0
   12.7560   -1.9660   21.7340 C   0  0  0  0  0  0  0  0  0  0  0  0
    6.3290   -4.4460   20.4470 C   0  0  0  0  0  0  0  0  0  0  0  0
    4.4450   -2.8040   25.5160 O   0  0  0  0  0  0  0  0  0  0  0  0
    5.2100    0.7400   17.8970 C   0  0  0  0  0  0  0  0  0  0  0  0
    9.5860    3.5490   23.5130 C   0  0  0  0  0  0  0  0  0  0  0  0
    7.7030    4.7670   22.5140 C   0  0  0  0  0  0  0  0  0  0  0  0
    6.2080   -5.6800   22.4510 C   0  0  0  0  0  0  0  0  0  0  0  0
    6.4390   -3.5200   26.3520 N   0  0  0  0  0  0  0  0  0  0  0  0
   10.2540    2.2870   23.9570 C   0  0  0  0  0  0  0  0  0  0  0  0
    6.3360    4.7970   21.8820 C   0  0  0  0  0  0  0  0  0  0  0  0
    7.0110   -3.4130   19.5670 C   0  0  0  0  0  0  0  0  0  0  0  0
    5.3190   -4.9700   20.0030 O   0  0  0  0  0  0  0  0  0  0  0  0
   10.2800    4.7530   23.6950 C   0  0  0  0  0  0  0  0  0  0  0  0
    8.3730    5.9660   22.6850 C   0  0  0  0  0  0  0  0  0  0  0  0
    7.7140   -4.1760   26.3190 C   0  0  0  0  0  0  0  0  0  0  0  0
    5.9790   -3.3170   27.6580 C   0  0  0  0  0  0  0  0  0  0  0  0
    9.3020    1.5570   24.9030 C   0  0  0  0  0  0  0  0  0  0  0  0
    9.6340    5.9110   23.2690 C   0  0  0  0  0  0  0  0  0  0  0  0
    7.9190   -5.4180   27.1960 C   0  0  0  0  0  0  0  0  0  0  0  0
    6.1760   -4.3950   28.7430 C   0  0  0  0  0  0  0  0  0  0  0  0
    7.4860   -5.1690   28.6460 C   0  0  0  0  0  0  0  0  0  0  0  0
  1  2  1  0
  2  3  1  6
  1  4  1  0
  1  5  1  0
  2  6  1  0
  5  7  2  0
  5  8  1  0
  9  4  1  6
  3 10  1  0
  3 11  2  0
  6 12  2  0
  6 13  1  0
  7 14  1  0
  8 15  2  0
 14 15  1  0
  9 16  1  0
  9 17  1  0
 15 18  1  0
 16 19  1  1
 13 20  2  0
 12 21  1  0
 10 22  1  0
 17 23  1  0
 16 24  1  0
 18 25  1  0
 18 26  1  0
 18 27  1  0
 23 28  1  0
 19 29  2  0
 20 30  1  0
 21 30  2  0
 22 31  2  0
 22 32  1  0
 23 33  1  0
 24 33  1  0
 19 34  1  0
 31 35  1  0
 32 36  1  0
 28 37  1  0
 28 38  2  0
 31 39  1  0
 32 40  2  0
 34 41  1  0
 34 42  1  0
 35 43  1  0
 39 44  2  0
 40 44  1  0
 41 45  1  0
 42 46  1  0
 45 47  1  0
 46 47  1  0
M  END
