x1380-x2569
     RDKit          3D

 36 39  0  0  0  0  0  0  0  0999 V2000
    7.1980   -3.3470   19.4940 C   0  0  0  0  0  0  0  0  0  0  0  0
    6.3900   -4.2800   20.4000 C   0  0  0  0  0  0  0  0  0  0  0  0
    5.3500   -4.7660   19.9690 O   0  0  0  0  0  0  0  0  0  0  0  0
    6.8480   -4.6270   21.6640 N   0  0  0  0  0  0  0  0  0  0  0  0
    6.2720   -5.6710   22.5470 C   0  0  0  0  0  0  0  0  0  0  0  0
    7.8470   -3.8130   22.3760 C   0  0  0  0  0  0  0  0  0  0  0  0
    6.3060   -5.1550   23.9840 C   0  0  0  0  0  0  0  0  0  0  0  0
    7.1330   -2.8920   23.0170 C   0  0  2  0  0  0  0  0  0  0  0  0
    7.7440   -1.6730   23.6710 C   0  0  0  0  0  0  0  0  0  0  0  0
    6.0580   -3.6460   23.8880 C   0  0  2  0  0  0  0  0  0  0  0  0
    5.9740   -3.0840   25.3370 C   0  0  0  0  0  0  0  0  0  0  0  0
    8.6330   -0.9210   22.6360 C   0  0  1  0  0  0  0  0  0  0  0  0
    5.3940   -2.0210   25.4780 O   0  0  0  0  0  0  0  0  0  0  0  0
    8.0370    0.1110   21.9410 C   0  0  0  0  0  0  0  0  0  0  0  0
    6.4850   -3.7790   26.4450 N   0  0  0  0  0  0  0  0  0  0  0  0
   10.0680   -0.5930   22.9140 C   0  0  0  0  0  0  0  0  0  0  0  0
    8.6670    1.1600   21.7320 O   0  0  0  0  0  0  0  0  0  0  0  0
    6.7660   -0.1670   21.5110 N   0  0  0  0  0  0  0  0  0  0  0  0
    7.7850   -4.0560   26.6930 C   0  0  0  0  0  0  0  0  0  0  0  0
    5.6410   -3.7010   27.6430 C   0  0  0  0  0  0  0  0  0  0  0  0
   11.0470   -1.1340   22.1740 C   0  0  0  0  0  0  0  0  0  0  0  0
   10.4520    0.2780   23.9160 C   0  0  0  0  0  0  0  0  0  0  0  0
    8.1290   -4.8710   27.7900 C   0  0  0  0  0  0  0  0  0  0  0  0
    6.1020   -4.4450   28.7300 C   0  0  0  0  0  0  0  0  0  0  0  0
   11.7540    0.6160   24.1770 N   0  0  0  0  0  0  0  0  0  0  0  0
   12.3340   -0.8240   22.3970 C   0  0  0  0  0  0  0  0  0  0  0  0
    6.1990    0.3460   20.3370 C   0  0  0  0  0  0  0  0  0  0  0  0
   13.2420   -1.4810   21.4890 C   0  0  0  0  0  0  0  0  0  0  0  0
    6.9360   -5.5340   28.4790 C   0  0  0  0  0  0  0  0  0  0  0  0
   12.6980    0.0540   23.3990 C   0  0  0  0  0  0  0  0  0  0  0  0
    6.8510    0.1180   18.9690 C   0  0  0  0  0  0  0  0  0  0  0  0
    4.9920    1.1180   20.2730 C   0  0  0  0  0  0  0  0  0  0  0  0
   13.7860   -1.9570   20.6590 N   0  0  0  0  0  0  0  0  0  0  0  0
    6.3950    0.5810   17.8070 N   0  0  0  0  0  0  0  0  0  0  0  0
    4.5860    1.5590   19.0140 C   0  0  0  0  0  0  0  0  0  0  0  0
    5.2660    1.3020   17.8300 C   0  0  0  0  0  0  0  0  0  0  0  0
  1  2  1  0
  2  3  2  0
  2  4  1  0
  4  5  1  0
  4  6  1  0
  5  7  1  0
  6  8  1  0
  8  9  1  1
  7 10  1  0
  8 10  1  0
 10 11  1  1
 12  9  1  1
 11 13  2  0
 12 14  1  0
 11 15  1  0
 12 16  1  0
 14 17  2  0
 14 18  1  0
 15 19  1  0
 15 20  1  0
 16 21  2  0
 16 22  1  0
 19 23  1  0
 20 24  1  0
 22 25  2  0
 21 26  1  0
 18 27  1  0
 26 28  1  0
 23 29  1  0
 24 29  1  0
 25 30  1  0
 26 30  2  0
 27 31  2  0
 27 32  1  0
 28 33  3  0
 31 34  1  0
 32 35  2  0
 34 36  2  0
 35 36  1  0
M  END
