x1380-x2563
     RDKit          3D

 38 42  0  0  0  0  0  0  0  0999 V2000
    7.0150   -3.3760   19.1880 C   0  0  0  0  0  0  0  0  0  0  0  0
    6.1550   -4.1340   20.1780 C   0  0  0  0  0  0  0  0  0  0  0  0
    5.0910   -4.5760   19.8320 O   0  0  0  0  0  0  0  0  0  0  0  0
    6.6380   -4.3640   21.4350 N   0  0  0  0  0  0  0  0  0  0  0  0
    6.1940   -5.4430   22.2940 C   0  0  0  0  0  0  0  0  0  0  0  0
    7.1490   -3.1470   22.1260 C   0  0  1  0  0  0  0  0  0  0  0  0
    6.3990   -1.8690   21.6280 C   0  0  0  0  0  0  0  0  0  0  0  0
    5.5460   -4.7370   23.4490 C   0  0  0  0  0  0  0  0  0  0  0  0
    7.4160   -3.1340   23.6960 C   0  0  0  0  0  0  0  0  0  0  0  0
    7.2040   -1.0780   20.5760 C   0  0  2  0  0  0  0  0  0  0  0  0
    6.6180   -4.1510   24.3160 C   0  0  1  0  0  0  0  0  0  0  0  0
    5.8770   -3.4510   25.5470 C   0  0  0  0  0  0  0  0  0  0  0  0
    8.1760   -0.3780   21.1910 C   0  0  0  0  0  0  0  0  0  0  0  0
    6.3950   -0.1390   19.7410 C   0  0  0  0  0  0  0  0  0  0  0  0
    4.7670   -2.9240   25.4290 O   0  0  0  0  0  0  0  0  0  0  0  0
    8.2120    0.8610   21.1440 O   0  0  0  0  0  0  0  0  0  0  0  0
    9.1430   -1.2510   21.8570 N   0  0  0  0  0  0  0  0  0  0  0  0
    6.5560   -3.4610   26.8580 N   0  0  0  0  0  0  0  0  0  0  0  0
    5.2680    0.5710   20.1560 C   0  0  0  0  0  0  0  0  0  0  0  0
    6.8240    0.0240   18.4540 C   0  0  0  0  0  0  0  0  0  0  0  0
    7.8830   -3.9580   27.1800 C   0  0  0  0  0  0  0  0  0  0  0  0
    5.6630   -3.4700   27.9960 C   0  0  0  0  0  0  0  0  0  0  0  0
    6.2750    0.7990   17.5300 N   0  0  0  0  0  0  0  0  0  0  0  0
    4.5880    1.4390   19.2450 C   0  0  0  0  0  0  0  0  0  0  0  0
    4.8050    0.4320   21.4750 C   0  0  0  0  0  0  0  0  0  0  0  0
   10.0590   -0.5980   22.6910 C   0  0  0  0  0  0  0  0  0  0  0  0
    7.9850   -5.1250   27.9290 C   0  0  0  0  0  0  0  0  0  0  0  0
    5.6460   -4.7530   28.5490 C   0  0  0  0  0  0  0  0  0  0  0  0
    5.0970    1.5460   17.9400 C   0  0  0  0  0  0  0  0  0  0  0  0
    3.3800    2.1650   19.7740 C   0  0  0  0  0  0  0  0  0  0  0  0
    3.6940    1.1080   21.9470 C   0  0  0  0  0  0  0  0  0  0  0  0
   11.4170   -0.6970   22.4080 C   0  0  0  0  0  0  0  0  0  0  0  0
    9.5930    0.1250   23.7350 C   0  0  0  0  0  0  0  0  0  0  0  0
    6.8450   -5.4900   28.6730 C   0  0  0  0  0  0  0  0  0  0  0  0
    2.9010    2.0490   21.0590 C   0  0  0  0  0  0  0  0  0  0  0  0
   12.3280   -0.0340   23.1920 C   0  0  0  0  0  0  0  0  0  0  0  0
   10.5460    0.8340   24.5840 C   0  0  0  0  0  0  0  0  0  0  0  0
   11.8900    0.7170   24.2560 C   0  0  0  0  0  0  0  0  0  0  0  0
  1  2  1  0
  2  3  2  0
  2  4  1  0
  4  5  1  0
  4  6  1  0
  6  7  1  1
  5  8  1  0
  6  9  1  0
 10  7  1  1
  8 11  1  0
  9 11  1  0
 11 12  1  1
 10 13  1  0
 10 14  1  0
 12 15  2  0
 13 16  2  0
 13 17  1  0
 12 18  1  0
 14 19  1  0
 14 20  2  0
 18 21  1  0
 18 22  1  0
 20 23  1  0
 19 24  2  0
 19 25  1  0
 17 26  1  0
 21 27  1  0
 22 28  1  0
 23 29  2  0
 24 29  1  0
 24 30  1  0
 25 31  2  0
 26 32  2  0
 26 33  1  0
 27 34  1  0
 28 34  1  0
 30 35  2  0
 31 35  1  0
 32 36  1  0
 33 37  2  0
 36 38  2  0
 37 38  1  0
M  END
