x1380-x1249
     RDKit          3D

 36 39  0  0  0  0  0  0  0  0999 V2000
    7.0610   -3.2510   19.2910 C   0  0  0  0  0  0  0  0  0  0  0  0
    6.2100   -4.0340   20.2850 C   0  0  0  0  0  0  0  0  0  0  0  0
    5.2040   -4.5990   19.8910 O   0  0  0  0  0  0  0  0  0  0  0  0
    6.6210   -4.1450   21.6070 N   0  0  0  0  0  0  0  0  0  0  0  0
    6.3870   -5.2470   22.3590 C   0  0  0  0  0  0  0  0  0  0  0  0
    7.3870   -3.1480   22.1160 C   0  0  0  0  0  0  0  0  0  0  0  0
    5.6010   -4.8010   23.5700 C   0  0  0  0  0  0  0  0  0  0  0  0
    7.2870   -2.8550   23.4150 C   0  0  0  0  0  0  0  0  0  0  0  0
    6.6480   -3.9650   24.2950 C   0  0  0  0  0  0  0  0  0  0  0  0
    5.9750   -3.2370   25.4980 C   0  0  0  0  0  0  0  0  0  0  0  0
    5.0850   -2.4410   25.5060 N   0  0  0  0  0  0  0  0  0  0  0  0
    6.4150   -3.4470   26.8670 N   0  0  0  0  0  0  0  0  0  0  0  0
    4.3480   -1.9160   24.3190 C   0  0  0  0  0  0  0  0  0  0  0  0
    7.8250   -3.8180   27.1640 C   0  0  0  0  0  0  0  0  0  0  0  0
    5.5760   -3.6440   27.9050 C   0  0  0  0  0  0  0  0  0  0  0  0
    7.9020   -5.1080   27.6880 C   0  0  0  0  0  0  0  0  0  0  0  0
    5.6670   -5.0010   28.2480 C   0  0  0  0  0  0  0  0  0  0  0  0
    4.7980   -0.4760   23.9220 C   0  0  1  0  0  0  0  0  0  0  0  0
    6.8890   -5.3970   28.7910 C   0  0  0  0  0  0  0  0  0  0  0  0
    3.7410    0.3050   23.6000 O   0  0  0  0  0  0  0  0  0  0  0  0
    5.6190    0.2000   24.8090 C   0  0  0  0  0  0  0  0  0  0  0  0
    4.1530    1.5640   23.0340 C   0  0  0  0  0  0  0  0  0  0  0  0
    6.2060    1.2960   24.0020 N   0  0  0  0  0  0  0  0  0  0  0  0
    7.5220    1.6640   24.0400 C   0  0  0  0  0  0  0  0  0  0  0  0
    5.5420    1.5900   22.8510 C   0  0  0  0  0  0  0  0  0  0  0  0
    8.3210    0.8230   24.7480 N   0  0  0  0  0  0  0  0  0  0  0  0
    7.9600    2.6690   23.4820 O   0  0  0  0  0  0  0  0  0  0  0  0
    9.6250    1.0830   25.0150 C   0  0  0  0  0  0  0  0  0  0  0  0
   10.5570    0.3660   24.0930 C   0  0  0  0  0  0  0  0  0  0  0  0
   11.8730    0.7510   23.7790 C   0  0  0  0  0  0  0  0  0  0  0  0
   10.0970   -0.8410   23.4460 C   0  0  0  0  0  0  0  0  0  0  0  0
   12.7060    0.0120   22.9090 C   0  0  0  0  0  0  0  0  0  0  0  0
   10.9210   -1.5390   22.6060 C   0  0  0  0  0  0  0  0  0  0  0  0
   12.2200   -1.1840   22.2990 C   0  0  0  0  0  0  0  0  0  0  0  0
   12.9290   -2.0260   21.4390 C   0  0  0  0  0  0  0  0  0  0  0  0
   13.4980   -2.9690   20.6810 N   0  0  0  0  0  0  0  0  0  0  0  0
  1  2  1  0
  2  3  2  0
  2  4  1  0
  4  5  1  0
  4  6  1  0
  5  7  1  0
  6  8  1  0
  7  9  1  0
  8  9  1  0
  9 10  1  0
 10 11  2  3
 10 12  1  0
 11 13  1  0
 12 14  1  0
 12 15  1  0
 14 16  1  0
 15 17  1  0
 18 13  1  1
 16 19  1  0
 17 19  1  0
 18 20  1  0
 18 21  1  0
 20 22  1  0
 21 23  1  0
 23 24  1  0
 22 25  1  0
 23 25  1  0
 24 26  1  0
 24 27  2  0
 26 28  1  0
 28 29  1  0
 29 30  2  0
 29 31  1  0
 30 32  1  0
 31 33  2  0
 32 34  2  0
 33 34  1  0
 34 35  1  0
 35 36  3  0
M  END
