x1380-x3115
     RDKit          3D

 42 45  0  0  0  0  0  0  0  0999 V2000
    7.2000   -1.3500   22.7360 N   0  0  0  0  0  0  0  0  0  0  0  0
    6.7140   -0.1040   22.0080 C   0  0  1  0  0  0  0  0  0  0  0  0
    7.6900    1.1030   21.9510 C   0  0  0  0  0  0  0  0  0  0  0  0
    8.5520   -1.4800   22.9710 C   0  0  0  0  0  0  0  0  0  0  0  0
    6.5540   -2.6330   22.6620 C   0  0  2  0  0  0  0  0  0  0  0  0
    6.2370    0.1020   20.5520 C   0  0  0  0  0  0  0  0  0  0  0  0
    9.5610   -1.4500   22.0110 C   0  0  0  0  0  0  0  0  0  0  0  0
    8.8840   -1.6780   24.3060 C   0  0  0  0  0  0  0  0  0  0  0  0
    6.4680   -3.6000   23.8230 C   0  0  1  0  0  0  0  0  0  0  0  0
    7.4880   -3.3140   21.9440 C   0  0  0  0  0  0  0  0  0  0  0  0
    7.2710    2.0890   22.8120 N   0  0  0  0  0  0  0  0  0  0  0  0
    8.6880    1.2600   21.2290 O   0  0  0  0  0  0  0  0  0  0  0  0
    5.9150   -3.0510   25.1560 C   0  0  0  0  0  0  0  0  0  0  0  0
    5.0030    0.7690   20.4100 C   0  0  0  0  0  0  0  0  0  0  0  0
    6.9610   -0.2880   19.3560 C   0  0  0  0  0  0  0  0  0  0  0  0
   10.8750   -1.6120   22.3740 C   0  0  0  0  0  0  0  0  0  0  0  0
   10.2030   -1.8320   24.6220 C   0  0  0  0  0  0  0  0  0  0  0  0
    6.8230   -4.4530   21.3500 N   0  0  0  0  0  0  0  0  0  0  0  0
    5.8190   -4.8000   23.3760 C   0  0  0  0  0  0  0  0  0  0  0  0
    8.0930    3.2070   23.2010 C   0  0  0  0  0  0  0  0  0  0  0  0
    6.2620   -4.2150   20.1520 C   0  0  0  0  0  0  0  0  0  0  0  0
    4.9270   -2.3270   25.1780 O   0  0  0  0  0  0  0  0  0  0  0  0
    6.4200    0.0210   18.0320 N   0  0  0  0  0  0  0  0  0  0  0  0
    4.5250    1.0420   19.1430 C   0  0  0  0  0  0  0  0  0  0  0  0
   11.2440   -1.8090   23.7160 C   0  0  0  0  0  0  0  0  0  0  0  0
    6.3690   -5.4400   22.2190 C   0  0  0  0  0  0  0  0  0  0  0  0
    6.5980   -3.4500   26.4290 N   0  0  0  0  0  0  0  0  0  0  0  0
    7.7860    4.5150   22.3960 C   0  0  0  0  0  0  0  0  0  0  0  0
   12.6040   -1.9650   24.2640 C   0  0  0  0  0  0  0  0  0  0  0  0
    7.1290   -3.3760   19.1910 C   0  0  0  0  0  0  0  0  0  0  0  0
    5.1660   -4.6370   19.8600 O   0  0  0  0  0  0  0  0  0  0  0  0
    5.1200    0.7340   17.9920 C   0  0  0  0  0  0  0  0  0  0  0  0
    7.7930   -4.2280   26.5330 C   0  0  0  0  0  0  0  0  0  0  0  0
    5.8420   -3.2770   27.6760 C   0  0  0  0  0  0  0  0  0  0  0  0
    8.5010    5.3970   22.8880 O   0  0  0  0  0  0  0  0  0  0  0  0
   13.4690   -2.1360   23.1910 C   0  0  0  0  0  0  0  0  0  0  0  0
   12.8430   -3.0360   25.2740 C   0  0  0  0  0  0  0  0  0  0  0  0
   12.7970   -0.6220   24.9380 C   0  0  0  0  0  0  0  0  0  0  0  0
    7.8600   -5.1960   27.5460 C   0  0  0  0  0  0  0  0  0  0  0  0
    5.8180   -4.4440   28.4290 C   0  0  0  0  0  0  0  0  0  0  0  0
    8.4070    6.6040   22.1410 C   0  0  0  0  0  0  0  0  0  0  0  0
    7.1130   -4.8820   28.6720 C   0  0  0  0  0  0  0  0  0  0  0  0
  1  2  1  0
  2  3  1  6
  1  4  1  0
  5  1  1  1
  2  6  1  0
  4  7  2  0
  4  8  1  0
  5  9  1  0
  5 10  1  0
  3 11  1  0
  3 12  2  0
  9 13  1  1
  6 14  2  0
  6 15  1  0
  7 16  1  0
  8 17  2  0
 10 18  1  0
  9 19  1  0
 11 20  1  0
 18 21  1  0
 13 22  2  0
 15 23  2  0
 14 24  1  0
 16 25  2  0
 17 25  1  0
 18 26  1  0
 19 26  1  0
 13 27  1  0
 20 28  1  0
 25 29  1  0
 21 30  1  0
 21 31  2  0
 23 32  1  0
 24 32  2  0
 27 33  1  0
 27 34  1  0
 28 35  1  0
 29 36  1  0
 29 37  1  0
 29 38  1  0
 33 39  1  0
 34 40  1  0
 35 41  1  0
 39 42  1  0
 40 42  1  0
M  END
