x1380-x2703
     RDKit          3D

 46 50  0  0  0  0  0  0  0  0999 V2000
    7.3610   -1.7570   22.1800 N   0  0  0  0  0  0  0  0  0  0  0  0
    6.8060   -0.3640   21.9460 C   0  0  1  0  0  0  0  0  0  0  0  0
    7.8560    0.7980   22.0620 C   0  0  0  0  0  0  0  0  0  0  0  0
    8.6020   -1.6960   22.7210 C   0  0  0  0  0  0  0  0  0  0  0  0
    7.0180   -2.9040   23.1460 C   0  0  1  0  0  0  0  0  0  0  0  0
    6.2260   -0.0010   20.5420 C   0  0  0  0  0  0  0  0  0  0  0  0
    8.7250   -1.4630   24.0820 C   0  0  0  0  0  0  0  0  0  0  0  0
    9.7600   -1.8770   21.9870 C   0  0  0  0  0  0  0  0  0  0  0  0
    5.7600   -3.3450   23.5870 C   0  0  2  0  0  0  0  0  0  0  0  0
    7.7040   -4.0560   22.4140 C   0  0  0  0  0  0  0  0  0  0  0  0
    7.4420    1.9040   22.8090 N   0  0  0  0  0  0  0  0  0  0  0  0
    8.9590    0.8110   21.5310 O   0  0  0  0  0  0  0  0  0  0  0  0
    5.6390   -2.9780   25.1030 C   0  0  0  0  0  0  0  0  0  0  0  0
    4.9920    0.6570   20.3840 C   0  0  0  0  0  0  0  0  0  0  0  0
    6.9130   -0.2790   19.3840 C   0  0  0  0  0  0  0  0  0  0  0  0
   10.9990   -1.8440   22.4810 N   0  0  0  0  0  0  0  0  0  0  0  0
    9.9650   -1.4220   24.6640 C   0  0  0  0  0  0  0  0  0  0  0  0
    6.7530   -4.6970   21.5490 N   0  0  0  0  0  0  0  0  0  0  0  0
    5.5820   -4.8900   23.5950 C   0  0  0  0  0  0  0  0  0  0  0  0
    6.3110   -4.2280   20.3130 C   0  0  0  0  0  0  0  0  0  0  0  0
    4.8720   -2.0550   25.3730 O   0  0  0  0  0  0  0  0  0  0  0  0
    6.3990    0.0990   18.0480 N   0  0  0  0  0  0  0  0  0  0  0  0
    4.4270    1.0460   19.2270 C   0  0  0  0  0  0  0  0  0  0  0  0
   11.1210   -1.6010   23.9260 C   0  0  0  0  0  0  0  0  0  0  0  0
    8.0840    3.1740   22.8700 C   0  0  0  0  0  0  0  0  0  0  0  0
    5.8400   -5.4960   22.3540 C   0  0  0  0  0  0  0  0  0  0  0  0
    6.2740   -3.6060   26.1660 N   0  0  0  0  0  0  0  0  0  0  0  0
   12.4780   -1.5450   24.5130 C   0  0  0  0  0  0  0  0  0  0  0  0
    7.2240   -3.3500   19.4570 C   0  0  0  0  0  0  0  0  0  0  0  0
    5.2150   -4.5520   19.8830 O   0  0  0  0  0  0  0  0  0  0  0  0
    5.1110    0.7870   18.0050 C   0  0  0  0  0  0  0  0  0  0  0  0
    9.3670    3.2570   23.4260 C   0  0  0  0  0  0  0  0  0  0  0  0
    7.4900    4.4370   22.3850 C   0  0  0  0  0  0  0  0  0  0  0  0
    7.6850   -3.9970   26.0680 C   0  0  0  0  0  0  0  0  0  0  0  0
    5.8460   -3.3070   27.5470 C   0  0  0  0  0  0  0  0  0  0  0  0
   10.0750    2.0280   23.9510 C   0  0  0  0  0  0  0  0  0  0  0  0
    6.1260    4.5460   21.7530 C   0  0  0  0  0  0  0  0  0  0  0  0
   12.9760   -2.7840   24.9570 C   0  0  0  0  0  0  0  0  0  0  0  0
   13.3090   -0.9610   23.4540 C   0  0  0  0  0  0  0  0  0  0  0  0
   10.0530    4.4660   23.5260 C   0  0  0  0  0  0  0  0  0  0  0  0
    8.2220    5.6450   22.5060 C   0  0  0  0  0  0  0  0  0  0  0  0
    8.0260   -5.1270   27.0700 C   0  0  0  0  0  0  0  0  0  0  0  0
    5.9960   -4.5320   28.4320 C   0  0  0  0  0  0  0  0  0  0  0  0
    9.1280    1.2590   24.9540 C   0  0  0  0  0  0  0  0  0  0  0  0
    9.5210    5.7000   23.0790 C   0  0  0  0  0  0  0  0  0  0  0  0
    7.4590   -4.9650   28.4700 C   0  0  0  0  0  0  0  0  0  0  0  0
  1  2  1  0
  2  3  1  6
  1  4  1  0
  5  1  1  6
  2  6  1  0
  4  7  2  0
  4  8  1  0
  5  9  1  0
  5 10  1  0
  3 11  1  0
  3 12  2  0
  9 13  1  1
  6 14  2  0
  6 15  1  0
  8 16  2  0
  7 17  1  0
 10 18  1  0
  9 19  1  0
 18 20  1  0
 13 21  2  0
 15 22  2  0
 14 23  1  0
 16 24  1  0
 17 24  2  0
 11 25  1  0
 18 26  1  0
 19 26  1  0
 13 27  1  0
 24 28  1  0
 20 29  1  0
 20 30  2  0
 22 31  1  0
 23 31  2  0
 25 32  2  0
 25 33  1  0
 27 34  1  0
 27 35  1  0
 32 36  1  0
 33 37  1  0
 28 38  1  0
 28 39  1  0
 32 40  1  0
 33 41  2  0
 34 42  1  0
 35 43  1  0
 36 44  1  0
 40 45  2  0
 41 45  1  0
 42 46  1  0
 43 46  1  0
M  END
