x1380-x2764
     RDKit          3D

 35 39  0  0  0  0  0  0  0  0999 V2000
    8.2680   -1.3360   21.2960 N   0  0  0  0  0  0  0  0  0  0  0  0
    6.8290   -1.3000   20.9440 C   0  0  0  0  0  0  0  0  0  0  0  0
    5.8470   -2.2360   21.1800 N   0  0  0  0  0  0  0  0  0  0  0  0
    8.4940   -1.9510   22.6320 C   0  0  2  0  0  0  0  0  0  0  0  0
    9.9530   -2.0070   23.1100 C   0  0  0  0  0  0  0  0  0  0  0  0
    6.3130   -0.1440   20.1520 C   0  0  0  0  0  0  0  0  0  0  0  0
    7.3480   -2.9830   22.9560 C   0  0  1  0  0  0  0  0  0  0  0  0
   11.1620   -1.8800   22.1460 C   0  0  0  0  0  0  0  0  0  0  0  0
   10.5230   -2.1510   24.5080 C   0  0  0  0  0  0  0  0  0  0  0  0
    6.1090   -0.3170   18.7780 C   0  0  0  0  0  0  0  0  0  0  0  0
    6.0240    1.0680   20.7720 C   0  0  0  0  0  0  0  0  0  0  0  0
    6.3310   -3.4080   21.7910 C   0  0  2  0  0  0  0  0  0  0  0  0
    7.1210   -3.9590   23.9690 C   0  0  1  0  0  0  0  0  0  0  0  0
    6.2260    1.2820   22.1150 O   0  0  0  0  0  0  0  0  0  0  0  0
    6.5590   -4.0080   20.3600 C   0  0  0  0  0  0  0  0  0  0  0  0
    6.5110   -3.3530   25.2690 C   0  0  0  0  0  0  0  0  0  0  0  0
   12.5200   -1.9190   22.7650 N   0  0  0  0  0  0  0  0  0  0  0  0
   12.3110   -2.1070   24.4380 S   0  0  0  0  0  0  0  0  0  0  0  0
    5.5550    0.7800   17.9220 C   0  0  0  0  0  0  0  0  0  0  0  0
    5.5060    2.0660   19.9590 C   0  0  0  0  0  0  0  0  0  0  0  0
    5.5000   -4.3000   22.4630 C   0  0  0  0  0  0  0  0  0  0  0  0
    6.2350   -4.8960   23.4650 C   0  0  0  0  0  0  0  0  0  0  0  0
    7.5400    1.8220   22.4030 C   0  0  0  0  0  0  0  0  0  0  0  0
    7.3130   -3.2760   19.2350 C   0  0  0  0  0  0  0  0  0  0  0  0
    5.9790   -5.0650   20.0540 O   0  0  0  0  0  0  0  0  0  0  0  0
    5.4820   -2.6770   25.1850 O   0  0  0  0  0  0  0  0  0  0  0  0
    5.2840    1.9270   18.6350 C   0  0  0  0  0  0  0  0  0  0  0  0
    7.0770   -3.5900   26.5110 N   0  0  0  0  0  0  0  0  0  0  0  0
    7.6040    3.3470   21.9730 C   0  0  0  0  0  0  0  0  0  0  0  0
    8.1440   -4.3840   26.7240 C   0  0  0  0  0  0  0  0  0  0  0  0
    6.2350   -3.4790   27.5990 C   0  0  0  0  0  0  0  0  0  0  0  0
    7.8020    4.3710   22.8720 N   0  0  0  0  0  0  0  0  0  0  0  0
    7.8490   -5.5480   27.3960 C   0  0  0  0  0  0  0  0  0  0  0  0
    6.0670   -4.6580   28.3800 C   0  0  0  0  0  0  0  0  0  0  0  0
    7.3100   -5.2670   28.6390 C   0  0  0  0  0  0  0  0  0  0  0  0
  1  2  1  0
  2  3  2  0
  1  4  1  0
  4  5  1  6
  2  6  1  0
  7  4  1  6
  5  8  1  0
  5  9  2  0
  6 10  2  0
  6 11  1  0
  3 12  1  0
  7 12  1  0
  7 13  1  0
 11 14  1  0
 12 15  1  6
 13 16  1  1
  8 17  2  0
  9 18  1  0
 17 18  1  0
 10 19  1  0
 11 20  2  0
 12 21  1  0
 13 22  1  0
 21 22  1  0
 14 23  1  0
 15 24  1  0
 15 25  2  0
 16 26  2  0
 19 27  2  0
 20 27  1  0
 16 28  1  0
 23 29  1  0
 28 30  1  0
 28 31  1  0
 29 32  3  0
 30 33  1  0
 31 34  1  0
 33 35  1  0
 34 35  1  0
M  END
