x1385-x0678
     RDKit          3D

 32 36  0  0  0  0  0  0  0  0999 V2000
    7.4920   -2.9580   18.9250 C   0  0  0  0  0  0  0  0  0  0  0  0
    6.3750   -3.2270   19.9360 C   0  0  0  0  0  0  0  0  0  0  0  0
    5.4010   -3.9400   19.6500 O   0  0  0  0  0  0  0  0  0  0  0  0
    6.4730   -2.6910   21.2280 N   0  0  0  0  0  0  0  0  0  0  0  0
    6.2530   -3.6410   22.3120 C   0  0  0  0  0  0  0  0  0  0  0  0
    7.2230   -1.5280   21.7580 C   0  0  2  0  0  0  0  0  0  0  0  0
    7.5650   -0.4060   20.9260 N   0  0  0  0  0  0  0  0  0  0  0  0
    7.5970   -3.9910   23.0090 C   0  0  0  0  0  0  0  0  0  0  0  0
    8.5970   -1.9140   22.3070 C   0  0  1  0  0  0  0  0  0  0  0  0
    8.6540    0.3290   21.5630 C   0  0  0  0  0  0  0  0  0  0  0  0
    9.2070   -0.5360   22.7010 C   0  0  2  0  0  0  0  0  0  0  0  0
    8.4160   -2.8390   23.4160 N   0  0  0  0  0  0  0  0  0  0  0  0
    6.7380    0.1810   19.9710 C   0  0  0  0  0  0  0  0  0  0  0  0
    9.6430   -3.2720   24.0840 C   0  0  0  0  0  0  0  0  0  0  0  0
    9.0840    1.4430   21.2600 O   0  0  0  0  0  0  0  0  0  0  0  0
   10.7280   -0.5660   22.9240 C   0  0  0  0  0  0  0  0  0  0  0  0
    5.5860    0.9060   20.2870 C   0  0  0  0  0  0  0  0  0  0  0  0
    7.0360    0.0700   18.6420 C   0  0  0  0  0  0  0  0  0  0  0  0
    9.2790   -4.2390   25.1580 C   0  0  0  0  0  0  0  0  0  0  0  0
   11.4600   -1.7450   22.2540 C   0  0  0  0  0  0  0  0  0  0  0  0
   11.0700   -0.3510   24.2560 C   0  0  0  0  0  0  0  0  0  0  0  0
    4.8220    1.4710   19.2740 C   0  0  0  0  0  0  0  0  0  0  0  0
    6.3280    0.6010   17.6420 N   0  0  0  0  0  0  0  0  0  0  0  0
    9.7960   -5.4630   25.3430 C   0  0  0  0  0  0  0  0  0  0  0  0
    8.0690   -3.8010   26.3020 S   0  0  0  0  0  0  0  0  0  0  0  0
   12.7190   -2.1730   22.9460 C   0  0  0  0  0  0  0  0  0  0  0  0
   12.5370   -0.3040   24.5790 C   0  0  0  0  0  0  0  0  0  0  0  0
    5.2360    1.2930   17.9760 C   0  0  0  0  0  0  0  0  0  0  0  0
    8.2010   -5.2740   27.0810 C   0  0  0  0  0  0  0  0  0  0  0  0
    9.2310   -6.1380   26.4430 C   0  0  0  0  0  0  0  0  0  0  0  0
   13.3310   -1.1030   23.5710 C   0  0  0  0  0  0  0  0  0  0  0  0
    7.1370   -5.7470   28.5800 Br  0  0  0  0  0  0  0  0  0  0  0  0
  1  2  1  0
  2  3  2  0
  2  4  1  0
  4  5  1  0
  6  4  1  6
  6  7  1  0
  5  8  1  0
  6  9  1  0
  7 10  1  0
  9 11  1  0
 10 11  1  0
  8 12  1  0
  9 12  1  1
  7 13  1  0
 12 14  1  0
 10 15  2  0
 11 16  1  6
 13 17  2  0
 13 18  1  0
 14 19  1  0
 16 20  1  0
 16 21  1  0
 17 22  1  0
 18 23  2  0
 19 24  2  0
 19 25  1  0
 20 26  1  0
 21 27  1  0
 22 28  2  0
 23 28  1  0
 25 29  1  0
 24 30  1  0
 29 30  2  0
 26 31  1  0
 27 31  1  0
 29 32  1  0
M  END
