x1392-x2643
     RDKit          3D

 30 35  0  0  0  0  0  0  0  0999 V2000
    5.6860   -4.0510   19.7870 O   0  0  0  0  0  0  0  0  0  0  0  0
    6.6000   -3.2060   19.9190 C   0  0  0  0  0  0  0  0  0  0  0  0
    7.5770   -2.9890   18.7770 C   0  0  0  0  0  0  0  0  0  0  0  0
    6.7970   -2.4000   21.2490 C   0  0  2  0  0  0  0  0  0  0  0  0
    6.3730   -1.0030   21.0870 N   0  0  0  0  0  0  0  0  0  0  0  0
    8.2670   -2.0660   21.4330 C   0  0  1  0  0  0  0  0  0  0  0  0
    6.2950   -3.1620   22.3340 C   0  0  0  0  0  0  0  0  0  0  0  0
    8.1000   -1.1210   22.6040 C   0  0  2  0  0  0  0  0  0  0  0  0
    7.2350   -0.1770   21.9210 C   0  0  0  0  0  0  0  0  0  0  0  0
    9.3680   -2.9380   21.9960 C   0  0  2  0  0  0  0  0  0  0  0  0
    7.3210   -3.7430   23.3460 C   0  0  0  0  0  0  0  0  0  0  0  0
    5.9390   -0.2280   19.9360 C   0  0  0  0  0  0  0  0  0  0  0  0
    7.3570    1.0340   22.0570 O   0  0  0  0  0  0  0  0  0  0  0  0
    8.8510   -3.6640   23.2350 C   0  0  0  0  0  0  0  0  0  0  0  0
    6.8570   -4.4790   24.5990 C   0  0  0  0  0  0  0  0  0  0  0  0
    9.5090   -0.6770   22.7210 C   0  0  0  0  0  0  0  0  0  0  0  0
   10.3240   -1.7420   22.3520 C   0  0  0  0  0  0  0  0  0  0  0  0
    6.7240   -0.0720   18.7950 C   0  0  0  0  0  0  0  0  0  0  0  0
    4.7370    0.4150   19.9660 C   0  0  0  0  0  0  0  0  0  0  0  0
    7.7550   -4.9910   25.4880 C   0  0  0  0  0  0  0  0  0  0  0  0
    9.7200   -4.2030   24.1690 C   0  0  0  0  0  0  0  0  0  0  0  0
   11.8050   -1.4810   22.3570 C   0  0  0  0  0  0  0  0  0  0  0  0
    9.8620    0.6000   23.1120 C   0  0  0  0  0  0  0  0  0  0  0  0
    6.3850    0.7130   17.6380 N   0  0  0  0  0  0  0  0  0  0  0  0
    4.2740    1.2800   18.8070 C   0  0  0  0  0  0  0  0  0  0  0  0
    9.2350   -4.8610   25.2840 C   0  0  0  0  0  0  0  0  0  0  0  0
   12.1850   -0.0910   22.7590 C   0  0  0  0  0  0  0  0  0  0  0  0
   11.2980    0.8770   23.1140 C   0  0  0  0  0  0  0  0  0  0  0  0
    5.1630    1.3740   17.6950 C   0  0  0  0  0  0  0  0  0  0  0  0
   13.6840    0.4110   22.8010 Cl  0  0  0  0  0  0  0  0  0  0  0  0
  1  2  2  0
  2  3  1  0
  4  2  1  6
  4  5  1  0
  4  6  1  0
  4  7  1  0
  6  8  1  1
  5  9  1  0
  8  9  1  6
  6 10  1  0
  7 11  1  0
  5 12  1  0
  9 13  2  0
 10 14  1  1
 11 14  2  0
 11 15  1  0
  8 16  1  0
 10 17  1  0
 16 17  2  0
 12 18  2  0
 12 19  1  0
 15 20  2  0
 14 21  1  0
 17 22  1  0
 16 23  1  0
 18 24  1  0
 19 25  2  0
 20 26  1  0
 21 26  2  0
 22 27  2  0
 23 28  2  0
 27 28  1  0
 24 29  2  0
 25 29  1  0
 27 30  1  0
M  END
