x1392-x2608
     RDKit          3D

 30 35  0  0  0  0  0  0  0  0999 V2000
    5.7880   -4.0290   19.8550 O   0  0  0  0  0  0  0  0  0  0  0  0
    6.7030   -3.1590   20.0070 C   0  0  0  0  0  0  0  0  0  0  0  0
    7.6240   -2.9790   18.8110 C   0  0  0  0  0  0  0  0  0  0  0  0
    6.9750   -2.2540   21.3160 C   0  0  2  0  0  0  0  0  0  0  0  0
    6.7370   -0.7730   21.0560 N   0  0  0  0  0  0  0  0  0  0  0  0
    8.4870   -2.1440   21.4920 C   0  0  1  0  0  0  0  0  0  0  0  0
    6.3380   -2.7870   22.4970 C   0  0  0  0  0  0  0  0  0  0  0  0
    8.7250   -0.8960   22.0390 N   0  0  0  0  0  0  0  0  0  0  0  0
    7.9620   -0.0010   21.4020 C   0  0  0  0  0  0  0  0  0  0  0  0
    9.2750   -2.7200   22.5870 C   0  0  2  0  0  0  0  0  0  0  0  0
    7.2290   -3.7390   23.3760 C   0  0  0  0  0  0  0  0  0  0  0  0
    6.0760   -0.0630   20.0090 C   0  0  0  0  0  0  0  0  0  0  0  0
    8.1970    1.1810   21.1340 O   0  0  0  0  0  0  0  0  0  0  0  0
    8.7530   -3.7850   23.4290 C   0  0  0  0  0  0  0  0  0  0  0  0
    6.6330   -4.7500   24.3270 C   0  0  0  0  0  0  0  0  0  0  0  0
   10.0100   -0.7030   22.4670 C   0  0  0  0  0  0  0  0  0  0  0  0
   10.5770   -1.9040   22.8510 C   0  0  0  0  0  0  0  0  0  0  0  0
    6.6840    0.0730   18.7660 C   0  0  0  0  0  0  0  0  0  0  0  0
    4.8700    0.5430   20.1700 C   0  0  0  0  0  0  0  0  0  0  0  0
    7.4240   -5.5620   25.0740 C   0  0  0  0  0  0  0  0  0  0  0  0
    9.5350   -4.6250   24.1530 C   0  0  0  0  0  0  0  0  0  0  0  0
   12.0280   -2.0110   23.3300 C   0  0  0  0  0  0  0  0  0  0  0  0
   10.6920    0.5020   22.5060 C   0  0  0  0  0  0  0  0  0  0  0  0
    6.1930    0.7940   17.6360 N   0  0  0  0  0  0  0  0  0  0  0  0
    4.1810    1.3580   19.0940 C   0  0  0  0  0  0  0  0  0  0  0  0
    8.9290   -5.5330   24.9880 C   0  0  0  0  0  0  0  0  0  0  0  0
   12.7900   -0.6960   23.3540 C   0  0  0  0  0  0  0  0  0  0  0  0
   12.1240    0.4810   22.9570 C   0  0  0  0  0  0  0  0  0  0  0  0
    4.9170    1.4400   17.8660 C   0  0  0  0  0  0  0  0  0  0  0  0
   12.7750    1.8050   22.9300 C   0  0  0  0  0  0  0  0  0  0  0  0
  1  2  2  0
  2  3  1  0
  4  2  1  6
  4  5  1  0
  4  6  1  0
  4  7  1  0
  6  8  1  1
  5  9  1  0
  8  9  1  0
  6 10  1  0
  7 11  1  0
  5 12  1  0
  9 13  2  0
 10 14  1  1
 11 14  2  0
 11 15  1  0
  8 16  1  0
 10 17  1  0
 16 17  2  0
 12 18  2  0
 12 19  1  0
 15 20  2  0
 14 21  1  0
 17 22  1  0
 16 23  1  0
 18 24  1  0
 19 25  2  0
 20 26  1  0
 21 26  2  0
 22 27  2  0
 23 28  2  0
 27 28  1  0
 24 29  2  0
 25 29  1  0
 28 30  1  0
M  END
