x1392-x1093
     RDKit          3D

 32 36  0  0  0  0  0  0  0  0999 V2000
    5.8260   -4.0450   19.8640 O   0  0  0  0  0  0  0  0  0  0  0  0
    6.7900   -3.2150   19.9750 C   0  0  0  0  0  0  0  0  0  0  0  0
    7.5820   -3.0060   18.7090 C   0  0  0  0  0  0  0  0  0  0  0  0
    7.3270   -2.4050   21.2900 C   0  0  2  0  0  0  0  0  0  0  0  0
    7.6680   -0.9350   20.9450 C   0  0  2  0  0  0  0  0  0  0  0  0
    8.7210   -2.9200   21.5090 C   0  0  0  0  0  0  0  0  0  0  0  0
    6.4670   -2.5990   22.4100 C   0  0  0  0  0  0  0  0  0  0  0  0
    8.0280    0.0810   22.0360 C   0  0  0  0  0  0  0  0  0  0  0  0
    9.4100   -2.8190   22.8320 C   0  0  2  0  0  0  0  0  0  0  0  0
    7.1380   -3.3960   23.5880 C   0  0  0  0  0  0  0  0  0  0  0  0
    6.8370   -0.2230   19.9230 C   0  0  0  0  0  0  0  0  0  0  0  0
    8.7400    1.0900   21.9790 O   0  0  0  0  0  0  0  0  0  0  0  0
    8.6100   -3.5180   23.8420 C   0  0  0  0  0  0  0  0  0  0  0  0
    6.3320   -4.1440   24.6170 C   0  0  0  0  0  0  0  0  0  0  0  0
   10.1060   -1.5280   23.1710 C   0  0  0  0  0  0  0  0  0  0  0  0
    7.1510   -0.2600   18.4920 C   0  0  0  0  0  0  0  0  0  0  0  0
    5.6540    0.6130   20.1320 C   0  0  0  0  0  0  0  0  0  0  0  0
    7.0880   -4.8770   25.7130 C   0  0  0  0  0  0  0  0  0  0  0  0
    9.3270   -4.2290   24.9080 C   0  0  0  0  0  0  0  0  0  0  0  0
   11.3820   -1.4330   22.6700 C   0  0  0  0  0  0  0  0  0  0  0  0
    9.6080   -0.4730   23.9470 C   0  0  0  0  0  0  0  0  0  0  0  0
    6.2360    0.4940   17.8250 N   0  0  0  0  0  0  0  0  0  0  0  0
    5.2850    1.0540   18.8230 C   0  0  0  0  0  0  0  0  0  0  0  0
    5.0610    0.9000   21.2830 C   0  0  0  0  0  0  0  0  0  0  0  0
    8.5090   -4.8880   25.8130 C   0  0  0  0  0  0  0  0  0  0  0  0
   12.1800   -0.3530   22.9180 C   0  0  0  0  0  0  0  0  0  0  0  0
   10.4120    0.6620   24.1990 C   0  0  0  0  0  0  0  0  0  0  0  0
    4.2560    1.8410   18.5680 N   0  0  0  0  0  0  0  0  0  0  0  0
    3.9910    1.7020   21.1610 C   0  0  0  0  0  0  0  0  0  0  0  0
   13.5450   -0.4910   22.3130 C   0  0  0  0  0  0  0  0  0  0  0  0
   11.7010    0.6920   23.6710 C   0  0  0  0  0  0  0  0  0  0  0  0
    3.5890    2.1730   19.7800 C   0  0  0  0  0  0  0  0  0  0  0  0
  1  2  2  0
  2  3  1  0
  4  2  1  6
  4  5  1  0
  4  6  1  0
  4  7  1  0
  5  8  1  1
  6  9  1  0
  7 10  1  0
  5 11  1  0
  8 12  2  0
  9 13  1  0
 10 13  2  0
 10 14  1  0
  9 15  1  1
 11 16  2  0
 11 17  1  0
 14 18  2  0
 13 19  1  0
 15 20  2  0
 15 21  1  0
 16 22  1  0
 17 23  2  0
 22 23  1  0
 17 24  1  0
 18 25  1  0
 19 25  2  0
 20 26  1  0
 21 27  2  0
 23 28  1  0
 24 29  2  0
 26 30  1  0
 26 31  2  0
 27 31  1  0
 28 32  2  0
 29 32  1  0
M  END
