x1392-x0678
     RDKit          3D

 28 31  0  0  0  0  0  0  0  0999 V2000
    5.7110   -4.0990   19.8600 O   0  0  0  0  0  0  0  0  0  0  0  0
    6.7320   -3.3890   20.1160 C   0  0  0  0  0  0  0  0  0  0  0  0
    7.5300   -2.9700   18.9210 C   0  0  0  0  0  0  0  0  0  0  0  0
    7.1810   -3.0790   21.4510 N   0  0  0  0  0  0  0  0  0  0  0  0
    7.9200   -1.8580   22.1180 C   0  0  2  0  0  0  0  0  0  0  0  0
    6.6020   -3.8590   22.5020 C   0  0  0  0  0  0  0  0  0  0  0  0
    8.2730   -0.4990   21.5480 C   0  0  0  0  0  0  0  0  0  0  0  0
    9.0030   -2.1450   23.1680 C   0  0  1  0  0  0  0  0  0  0  0  0
    7.4450   -4.0940   23.5980 C   0  0  0  0  0  0  0  0  0  0  0  0
    9.3570   -0.0560   21.2090 O   0  0  0  0  0  0  0  0  0  0  0  0
    7.0310    0.2340   21.6030 N   0  0  0  0  0  0  0  0  0  0  0  0
    8.5540   -3.3450   23.9220 C   0  0  0  0  0  0  0  0  0  0  0  0
    7.0560   -5.2740   24.4620 C   0  0  0  0  0  0  0  0  0  0  0  0
   10.4190   -1.7970   22.9620 C   0  0  0  0  0  0  0  0  0  0  0  0
    7.9250   -5.5870   25.6530 C   0  0  0  0  0  0  0  0  0  0  0  0
    9.3790   -3.7580   25.1550 C   0  0  0  0  0  0  0  0  0  0  0  0
   11.1270   -1.9750   21.8070 C   0  0  0  0  0  0  0  0  0  0  0  0
   11.1100   -1.2120   24.1220 C   0  0  0  0  0  0  0  0  0  0  0  0
    6.3800    0.6220   20.3710 C   0  0  0  0  0  0  0  0  0  0  0  0
    9.0480   -4.8290   25.9490 C   0  0  0  0  0  0  0  0  0  0  0  0
   12.4680   -1.5820   21.7350 C   0  0  0  0  0  0  0  0  0  0  0  0
   12.4340   -0.8500   23.9840 C   0  0  0  0  0  0  0  0  0  0  0  0
    5.2400    1.3120   20.2520 C   0  0  0  0  0  0  0  0  0  0  0  0
    6.7700    0.3780   18.9720 C   0  0  0  0  0  0  0  0  0  0  0  0
   13.0540   -1.0390   22.8000 C   0  0  0  0  0  0  0  0  0  0  0  0
    4.7180    1.6300   18.9480 C   0  0  0  0  0  0  0  0  0  0  0  0
    6.6280    0.4620   17.8770 N   0  0  0  0  0  0  0  0  0  0  0  0
    5.3910    1.2230   17.8030 C   0  0  0  0  0  0  0  0  0  0  0  0
  1  2  2  0
  2  3  1  0
  2  4  1  0
  4  5  1  0
  4  6  1  0
  5  7  1  6
  5  8  1  0
  6  9  1  0
  7 10  2  0
  7 11  1  0
  8 12  1  0
  9 12  2  0
  9 13  1  0
  8 14  1  6
 13 15  2  0
 12 16  1  0
 14 17  2  0
 14 18  1  0
 11 19  1  0
 15 20  1  0
 16 20  2  0
 17 21  1  0
 18 22  2  0
 19 23  2  0
 19 24  1  0
 21 25  2  0
 22 25  1  0
 23 26  1  0
 24 27  2  0
 26 28  2  0
 27 28  1  0
M  END
