x1392-x0981
     RDKit          3D

 33 35  0  0  0  0  0  0  0  0999 V2000
    1.2040   -8.7800   21.2770 C   0  0  0  0  0  0  0  0  0  0  0  0
    1.2640   -7.4650   22.1070 C   0  0  0  0  0  0  0  0  0  0  0  0
    2.4370   -7.3170   22.8170 N   0  0  0  0  0  0  0  0  0  0  0  0
    0.3450   -6.6510   22.0980 O   0  0  0  0  0  0  0  0  0  0  0  0
    2.6920   -6.1280   23.5260 C   0  0  1  0  0  0  0  0  0  0  0  0
    2.4540   -6.2730   25.0280 C   0  0  0  0  0  0  0  0  0  0  0  0
    4.1360   -5.6400   23.3800 C   0  0  0  0  0  0  0  0  0  0  0  0
    5.0700   -6.4210   22.5790 N   0  0  0  0  0  0  0  0  0  0  0  0
    4.4610   -4.4120   24.0430 O   0  0  0  0  0  0  0  0  0  0  0  0
    2.8530   -7.6830   25.4330 C   0  0  0  0  0  0  0  0  0  0  0  0
    2.2470   -8.4410   26.5170 N   0  0  0  0  0  0  0  0  0  0  0  0
    3.9000   -8.2260   24.6550 O   0  0  0  0  0  0  0  0  0  0  0  0
    5.6420   -5.7450   21.4500 C   0  0  0  0  0  0  0  0  0  0  0  0
    6.9720   -5.1290   21.8080 C   0  0  0  0  0  0  0  0  0  0  0  0
    6.8480   -3.8500   22.3550 C   0  0  2  0  0  0  0  0  0  0  0  0
    7.1240   -2.9620   21.3410 N   0  0  0  0  0  0  0  0  0  0  0  0
    7.7090   -3.8920   23.4110 C   0  0  0  0  0  0  0  0  0  0  0  0
    6.7060   -3.3260   19.9980 C   0  0  0  0  0  0  0  0  0  0  0  0
    8.1770   -2.0880   21.6170 C   0  0  0  0  0  0  0  0  0  0  0  0
    8.9390   -3.2580   23.3960 C   0  0  0  0  0  0  0  0  0  0  0  0
    7.2670   -4.6910   24.5970 C   0  0  0  0  0  0  0  0  0  0  0  0
    5.6700   -3.9910   19.7650 O   0  0  0  0  0  0  0  0  0  0  0  0
    7.5330   -2.9680   18.7950 C   0  0  0  0  0  0  0  0  0  0  0  0
    9.3050   -2.5310   22.2680 C   0  0  2  0  0  0  0  0  0  0  0  0
    8.1170   -4.7970   25.6990 C   0  0  0  0  0  0  0  0  0  0  0  0
    9.7320   -3.4190   24.5510 C   0  0  0  0  0  0  0  0  0  0  0  0
    9.3490   -4.1620   25.6760 C   0  0  0  0  0  0  0  0  0  0  0  0
   10.2800   -1.4410   22.6990 C   0  0  0  0  0  0  0  0  0  0  0  0
   11.6110   -1.4920   22.1780 C   0  0  0  0  0  0  0  0  0  0  0  0
    9.8990   -0.4850   23.5510 C   0  0  0  0  0  0  0  0  0  0  0  0
   12.6450   -0.5890   22.4760 C   0  0  0  0  0  0  0  0  0  0  0  0
   10.9840    0.4830   23.8810 C   0  0  0  0  0  0  0  0  0  0  0  0
   12.3710    0.4190   23.3270 C   0  0  0  0  0  0  0  0  0  0  0  0
  1  2  1  0
  2  3  1  0
  2  4  2  0
  3  5  1  0
  5  6  1  1
  5  7  1  0
  7  8  1  0
  7  9  2  0
  6 10  1  0
 10 11  1  0
 10 12  2  0
  8 13  1  0
 13 14  1  0
 15 14  1  6
 15 16  1  0
 15 17  1  0
 16 18  1  0
 16 19  1  0
 17 20  2  0
 17 21  1  0
 18 22  2  0
 18 23  1  0
 19 24  1  0
 20 24  1  0
 21 25  2  0
 20 26  1  0
 25 27  1  0
 26 27  2  0
 24 28  1  1
 28 29  2  0
 28 30  1  0
 29 31  1  0
 30 32  2  0
 31 33  2  0
 32 33  1  0
M  END
