x1392-x2908
     RDKit          3D

 31 35  0  0  0  0  0  0  0  0999 V2000
    4.2680    0.7000   21.5970 C   0  0  0  0  0  0  0  0  0  0  0  0
    5.0090    0.6140   20.2620 C   0  0  0  0  0  0  0  0  0  0  0  0
    6.1900   -0.0510   20.0400 C   0  0  0  0  0  0  0  0  0  0  0  0
    4.3660    1.3530   19.1020 C   0  0  0  0  0  0  0  0  0  0  0  0
    6.8000   -0.6810   21.1060 N   0  0  0  0  0  0  0  0  0  0  0  0
    6.7920   -0.0200   18.6530 C   0  0  0  0  0  0  0  0  0  0  0  0
    5.1050    1.2930   17.7810 C   0  0  0  0  0  0  0  0  0  0  0  0
    7.8780   -0.0660   21.7160 C   0  0  0  0  0  0  0  0  0  0  0  0
    6.3580    0.5260   17.7190 N   0  0  0  0  0  0  0  0  0  0  0  0
    7.0930   -2.1900   21.3010 C   0  0  1  0  0  0  0  0  0  0  0  0
    8.1290    1.1380   21.7060 O   0  0  0  0  0  0  0  0  0  0  0  0
    8.6950   -0.9490   22.3000 N   0  0  0  0  0  0  0  0  0  0  0  0
    6.7310   -3.0990   19.9790 C   0  0  0  0  0  0  0  0  0  0  0  0
    8.5030   -2.1510   21.5400 C   0  0  1  0  0  0  0  0  0  0  0  0
    6.2590   -2.9330   22.4540 C   0  0  0  0  0  0  0  0  0  0  0  0
    5.7850   -3.9460   19.8220 O   0  0  0  0  0  0  0  0  0  0  0  0
    7.6400   -2.9740   18.7850 C   0  0  0  0  0  0  0  0  0  0  0  0
   10.0140   -0.5440   22.6910 C   0  0  0  0  0  0  0  0  0  0  0  0
    9.1450   -3.1480   22.2220 C   0  0  0  0  0  0  0  0  0  0  0  0
    7.0730   -3.7300   23.2990 C   0  0  0  0  0  0  0  0  0  0  0  0
   10.3420    0.4200   23.6480 C   0  0  0  0  0  0  0  0  0  0  0  0
   10.9830   -1.1810   22.0300 C   0  0  0  0  0  0  0  0  0  0  0  0
    8.4410   -3.8100   23.1570 C   0  0  0  0  0  0  0  0  0  0  0  0
    6.4990   -4.4780   24.3260 C   0  0  0  0  0  0  0  0  0  0  0  0
   11.6980    0.6910   23.8740 C   0  0  0  0  0  0  0  0  0  0  0  0
   12.2850   -0.9010   22.2700 C   0  0  0  0  0  0  0  0  0  0  0  0
    7.1920   -5.2720   25.1770 C   0  0  0  0  0  0  0  0  0  0  0  0
    9.2720   -4.7030   24.1010 C   0  0  0  0  0  0  0  0  0  0  0  0
   13.4190   -1.7310   21.3820 Cl  0  0  0  0  0  0  0  0  0  0  0  0
   12.6810    0.0490   23.2040 C   0  0  0  0  0  0  0  0  0  0  0  0
    8.6910   -5.4180   25.0750 C   0  0  0  0  0  0  0  0  0  0  0  0
  1  2  1  0
  2  3  2  0
  2  4  1  0
  3  5  1  0
  3  6  1  0
  4  7  2  0
  5  8  1  0
  6  9  2  0
  7  9  1  0
  5 10  1  0
  8 11  2  0
  8 12  1  0
 10 13  1  6
 10 14  1  0
 12 14  1  0
 10 15  1  0
 13 16  2  0
 13 17  1  0
 12 18  1  0
 14 19  1  1
 15 20  1  0
 18 21  2  0
 18 22  1  0
 19 23  1  0
 20 23  2  0
 20 24  1  0
 21 25  1  0
 22 26  2  0
 24 27  2  0
 23 28  1  0
 26 29  1  0
 25 30  2  0
 26 30  1  0
 27 31  1  0
 28 31  2  0
M  END
