x1392-x3115
     RDKit          3D

 40 45  0  0  0  0  0  0  0  0999 V2000
    7.3790    1.5520   23.0300 N   0  0  0  0  0  0  0  0  0  0  0  0
    7.6210    0.9620   21.8160 C   0  0  0  0  0  0  0  0  0  0  0  0
    8.3330    1.3880   20.8910 O   0  0  0  0  0  0  0  0  0  0  0  0
    8.0420    2.7360   23.3730 C   0  0  0  0  0  0  0  0  0  0  0  0
    6.8620   -0.3620   21.5050 C   0  0  1  0  0  0  0  0  0  0  0  0
    7.8570    3.9710   22.4670 C   0  0  0  0  0  0  0  0  0  0  0  0
    8.3480    5.0290   22.8930 O   0  0  0  0  0  0  0  0  0  0  0  0
    6.2880    0.1020   20.1890 C   0  0  0  0  0  0  0  0  0  0  0  0
    7.5460   -1.7520   21.9230 C   0  0  2  0  0  0  0  0  0  0  0  0
    8.0200    6.1650   22.0960 C   0  0  0  0  0  0  0  0  0  0  0  0
    5.0830    0.7880   20.2530 C   0  0  0  0  0  0  0  0  0  0  0  0
    6.9780   -0.1140   18.8850 C   0  0  0  0  0  0  0  0  0  0  0  0
    8.8710   -1.9940   22.4530 C   0  0  2  0  0  0  0  0  0  0  0  0
    6.9140   -2.7940   21.4890 N   0  0  0  0  0  0  0  0  0  0  0  0
    7.1610   -1.6340   23.2250 C   0  0  0  0  0  0  0  0  0  0  0  0
    6.6410   -3.2650   20.1260 C   0  0  0  0  0  0  0  0  0  0  0  0
    6.3920    0.4140   17.6930 N   0  0  0  0  0  0  0  0  0  0  0  0
    4.5070    1.3030   19.0810 C   0  0  0  0  0  0  0  0  0  0  0  0
    9.5830   -0.9550   23.0350 C   0  0  2  0  0  0  0  0  0  0  0  0
    9.9900   -2.2610   21.7790 C   0  0  0  0  0  0  0  0  0  0  0  0
    7.6350   -2.8270   24.0450 C   0  0  0  0  0  0  0  0  0  0  0  0
    6.1620   -3.6170   22.4660 C   0  0  0  0  0  0  0  0  0  0  0  0
    5.6740   -4.0480   19.8430 O   0  0  0  0  0  0  0  0  0  0  0  0
    7.5060   -2.9330   18.9440 C   0  0  0  0  0  0  0  0  0  0  0  0
    5.0970    1.1560   17.8370 C   0  0  0  0  0  0  0  0  0  0  0  0
   10.2290   -0.2260   22.1400 C   0  0  2  0  0  0  0  0  0  0  0  0
   10.8730   -1.2850   21.6370 C   0  0  0  0  0  0  0  0  0  0  0  0
    6.9580   -3.9100   23.5040 C   0  0  0  0  0  0  0  0  0  0  0  0
    8.5340   -2.8580   25.1190 C   0  0  0  0  0  0  0  0  0  0  0  0
   10.8750   -1.2870   23.9150 C   0  0  1  0  0  0  0  0  0  0  0  0
   11.6330   -2.6100   23.8600 C   0  0  0  0  0  0  0  0  0  0  0  0
    7.2040   -5.2340   24.1510 C   0  0  0  0  0  0  0  0  0  0  0  0
    8.8220   -4.0010   25.7560 C   0  0  0  0  0  0  0  0  0  0  0  0
   11.9180   -0.4200   23.8450 C   0  0  2  0  0  0  0  0  0  0  0  0
   10.8260    0.9950   22.7350 C   0  0  0  0  0  0  0  0  0  0  0  0
   12.2420   -2.3790   25.0500 C   0  0  2  0  0  0  0  0  0  0  0  0
   12.3740   -0.8100   25.2240 C   0  0  0  0  0  0  0  0  0  0  0  0
    8.1690   -5.3010   25.3290 C   0  0  0  0  0  0  0  0  0  0  0  0
   11.7010    0.8310   23.6350 C   0  0  0  0  0  0  0  0  0  0  0  0
   13.5590   -3.0640   25.2320 C   0  0  0  0  0  0  0  0  0  0  0  0
  1  2  1  0
  2  3  2  0
  1  4  1  0
  5  2  1  6
  4  6  1  0
  6  7  1  0
  5  8  1  0
  5  9  1  0
  7 10  1  0
  8 11  2  0
  8 12  1  0
  9 13  1  0
  9 14  1  0
  9 15  1  1
 14 16  1  0
 12 17  2  0
 11 18  1  0
 13 19  1  0
 13 20  1  6
 15 21  1  0
 14 22  1  0
 16 23  2  0
 16 24  1  0
 17 25  1  0
 18 25  2  0
 19 26  1  6
 20 27  2  0
 26 27  1  1
 21 28  2  0
 22 28  1  0
 21 29  1  0
 19 30  1  0
 30 31  1  6
 28 32  1  0
 29 33  2  0
 30 34  1  0
 26 35  1  0
 31 36  1  0
 34 37  1  1
 36 37  1  0
 32 38  2  0
 33 38  1  0
 34 39  1  0
 35 39  2  0
 36 40  1  6
M  END
