x1402-x3080
     RDKit          3D

 46 50  0  0  0  0  0  0  0  0999 V2000
    9.9640   -0.2540   23.3150 N   0  0  0  0  0  0  0  0  0  0  0  0
   10.9680    0.8290   23.5220 C   0  0  0  0  0  0  0  0  0  0  0  0
    9.7170   -0.8830   22.1240 C   0  0  0  0  0  0  0  0  0  0  0  0
    8.8640   -0.7670   24.5970 S   0  0  2  0  0  0  0  0  0  0  0  0
    7.2780   -0.9230   24.0060 N   0  0  0  0  0  0  0  0  0  0  0  0
    8.8070    0.0570   21.3360 C   0  0  0  0  0  0  0  0  0  0  0  0
    8.8620    0.2570   25.6170 O   0  0  0  0  0  0  0  0  0  0  0  0
    9.4400   -2.2930   25.2480 C   0  0  0  0  0  0  0  0  0  0  0  0
    9.0940    1.3940   21.2430 O   0  0  0  0  0  0  0  0  0  0  0  0
    7.6710   -0.5660   20.7280 N   0  0  0  0  0  0  0  0  0  0  0  0
    6.9550   -1.8520   22.9170 C   0  0  0  0  0  0  0  0  0  0  0  0
   10.8090   -2.4670   25.2850 C   0  0  0  0  0  0  0  0  0  0  0  0
    8.5740   -3.2500   25.7100 C   0  0  0  0  0  0  0  0  0  0  0  0
    6.2110   -3.1620   23.1060 C   0  0  0  0  0  0  0  0  0  0  0  0
    6.7620    0.0880   19.9020 C   0  0  0  0  0  0  0  0  0  0  0  0
   11.7200   -1.4340   24.7840 N   0  0  0  0  0  0  0  0  0  0  0  0
   11.3350   -3.6520   25.8220 C   0  0  0  0  0  0  0  0  0  0  0  0
    9.0850   -4.4190   26.2280 C   0  0  0  0  0  0  0  0  0  0  0  0
    5.6630    0.8080   20.3590 C   0  0  0  0  0  0  0  0  0  0  0  0
    7.0230   -0.0100   18.5470 C   0  0  0  0  0  0  0  0  0  0  0  0
   12.7050   -3.7990   25.8810 C   0  0  0  0  0  0  0  0  0  0  0  0
   13.0180   -1.6710   24.8750 C   0  0  0  0  0  0  0  0  0  0  0  0
   10.4150   -4.6210   26.2850 C   0  0  0  0  0  0  0  0  0  0  0  0
    7.0250   -4.4250   22.8710 C   0  0  2  0  0  0  0  0  0  0  0  0
    5.2990    0.9590   21.8040 C   0  0  0  0  0  0  0  0  0  0  0  0
    6.2280    0.5990   17.6340 N   0  0  0  0  0  0  0  0  0  0  0  0
    4.8970    1.4030   19.3730 C   0  0  0  0  0  0  0  0  0  0  0  0
   13.5550   -2.8110   25.4110 C   0  0  0  0  0  0  0  0  0  0  0  0
    6.5180   -5.0580   21.7790 N   0  0  0  0  0  0  0  0  0  0  0  0
    7.0090   -5.2890   23.9400 C   0  0  0  0  0  0  0  0  0  0  0  0
    6.3160   -4.4520   20.5370 C   0  0  0  0  0  0  0  0  0  0  0  0
    5.1770    1.3040   18.0340 C   0  0  0  0  0  0  0  0  0  0  0  0
    5.6200   -5.6370   24.2430 N   0  0  0  0  0  0  0  0  0  0  0  0
    5.6920   -6.2580   22.0350 C   0  0  0  0  0  0  0  0  0  0  0  0
    7.3280   -3.4720   19.9190 C   0  0  0  0  0  0  0  0  0  0  0  0
    5.2880   -4.7130   19.9420 O   0  0  0  0  0  0  0  0  0  0  0  0
    4.9770   -5.4950   25.7890 S   0  0  0  0  0  0  0  0  0  0  0  0
    4.7870   -5.9350   23.0700 C   0  0  0  0  0  0  0  0  0  0  0  0
    4.0430   -6.5930   25.9960 O   0  0  0  0  0  0  0  0  0  0  0  0
    6.0750   -5.2720   26.7040 O   0  0  0  0  0  0  0  0  0  0  0  0
    4.0090   -4.0040   25.9220 C   0  0  0  0  0  0  0  0  0  0  0  0
    2.2940   -3.9130   25.9160 S   0  0  0  0  0  0  0  0  0  0  0  0
    4.5820   -2.7460   26.0570 C   0  0  0  0  0  0  0  0  0  0  0  0
    3.6550   -1.7400   26.1560 C   0  0  0  0  0  0  0  0  0  0  0  0
    2.3490   -2.2140   26.1050 C   0  0  0  0  0  0  0  0  0  0  0  0
    0.8950   -1.3120   26.2110 Cl  0  0  0  0  0  0  0  0  0  0  0  0
  1  2  1  0
  1  3  1  0
  4  1  1  6
  4  5  2  0
  3  6  1  0
  4  7  2  0
  4  8  1  0
  6  9  2  0
  6 10  1  0
  5 11  1  0
  8 12  1  0
  8 13  2  0
 11 14  1  0
 10 15  1  0
 12 16  2  0
 12 17  1  0
 13 18  1  0
 15 19  2  0
 15 20  1  0
 17 21  2  0
 16 22  1  0
 17 23  1  0
 18 23  2  0
 24 14  1  1
 19 25  1  0
 20 26  2  0
 19 27  1  0
 21 28  1  0
 22 28  2  0
 24 29  1  0
 24 30  1  0
 29 31  1  0
 26 32  1  0
 27 32  2  0
 30 33  1  0
 29 34  1  0
 31 35  1  0
 31 36  2  0
 33 37  1  0
 33 38  1  0
 34 38  1  0
 37 39  2  0
 37 40  2  0
 37 41  1  0
 41 42  1  0
 41 43  2  0
 43 44  1  0
 42 45  1  0
 44 45  2  0
 45 46  1  0
M  END
