x1402-x0967
     RDKit          3D

 40 42  0  0  0  0  0  0  0  0999 V2000
    7.6810    4.8410   22.4170 C   0  0  0  0  0  0  0  0  0  0  0  0
    7.2130    3.4950   23.0030 C   0  0  0  0  0  0  0  0  0  0  0  0
    8.0380    2.4440   22.6760 N   0  0  0  0  0  0  0  0  0  0  0  0
    6.2050    3.3900   23.6950 O   0  0  0  0  0  0  0  0  0  0  0  0
    7.7720    1.0800   23.0820 C   0  0  1  0  0  0  0  0  0  0  0  0
    6.4060    0.5630   22.6150 C   0  0  0  0  0  0  0  0  0  0  0  0
    8.9130    0.1820   22.5260 C   0  0  0  0  0  0  0  0  0  0  0  0
    8.8950   -1.3120   22.6260 N   0  0  0  0  0  0  0  0  0  0  0  0
    9.8580    0.7670   21.9950 O   0  0  0  0  0  0  0  0  0  0  0  0
    6.2100    0.6180   21.1600 C   0  0  0  0  0  0  0  0  0  0  0  0
    9.8980   -2.2190   22.0960 C   0  0  0  0  0  0  0  0  0  0  0  0
    7.9320   -1.9760   23.4720 C   0  0  0  0  0  0  0  0  0  0  0  0
    7.0100   -0.2530   20.1960 C   0  0  0  0  0  0  0  0  0  0  0  0
    5.2610    1.4960   20.6340 C   0  0  0  0  0  0  0  0  0  0  0  0
   11.2690   -1.5310   21.9110 C   0  0  0  0  0  0  0  0  0  0  0  0
    6.9020   -2.7680   22.9000 C   0  0  0  0  0  0  0  0  0  0  0  0
    6.7710   -0.1440   18.8470 C   0  0  0  0  0  0  0  0  0  0  0  0
    5.0820    1.5460   19.2570 C   0  0  0  0  0  0  0  0  0  0  0  0
   12.2060   -1.8700   23.0500 C   0  0  0  0  0  0  0  0  0  0  0  0
    5.8270    0.7400   18.4000 C   0  0  0  0  0  0  0  0  0  0  0  0
    7.2850   -4.2680   22.7170 C   0  0  2  0  0  0  0  0  0  0  0  0
    5.6220    0.8250   17.0830 O   0  0  0  0  0  0  0  0  0  0  0  0
   13.3140   -2.3260   24.5070 Br  0  0  0  0  0  0  0  0  0  0  0  0
    6.6170   -4.8720   21.7180 N   0  0  0  0  0  0  0  0  0  0  0  0
    6.9910   -4.8820   23.9360 C   0  0  0  0  0  0  0  0  0  0  0  0
    6.3290   -4.3560   20.4740 C   0  0  0  0  0  0  0  0  0  0  0  0
    5.6870   -5.2550   24.0810 N   0  0  0  0  0  0  0  0  0  0  0  0
    5.9850   -6.0860   22.0710 C   0  0  0  0  0  0  0  0  0  0  0  0
    7.3090   -3.3880   19.7750 C   0  0  0  0  0  0  0  0  0  0  0  0
    5.2880   -4.6660   19.9280 O   0  0  0  0  0  0  0  0  0  0  0  0
    5.0150   -5.3290   25.6520 S   0  0  0  0  0  0  0  0  0  0  0  0
    5.1370   -6.0380   23.1410 C   0  0  0  0  0  0  0  0  0  0  0  0
    3.9820   -6.3390   25.6710 O   0  0  0  0  0  0  0  0  0  0  0  0
    6.0540   -5.3220   26.6470 O   0  0  0  0  0  0  0  0  0  0  0  0
    4.1090   -3.7930   25.8620 C   0  0  0  0  0  0  0  0  0  0  0  0
    2.3830   -3.8220   25.9070 S   0  0  0  0  0  0  0  0  0  0  0  0
    4.5140   -2.4900   26.0090 C   0  0  0  0  0  0  0  0  0  0  0  0
    3.4960   -1.5680   26.1510 C   0  0  0  0  0  0  0  0  0  0  0  0
    2.2770   -2.1330   26.1210 C   0  0  0  0  0  0  0  0  0  0  0  0
    0.7480   -1.3650   26.2750 Cl  0  0  0  0  0  0  0  0  0  0  0  0
  1  2  1  0
  2  3  1  0
  2  4  2  0
  3  5  1  0
  5  6  1  6
  5  7  1  0
  7  8  1  0
  7  9  2  0
  6 10  1  0
  8 11  1  0
  8 12  1  0
 10 13  2  0
 10 14  1  0
 11 15  1  0
 12 16  1  0
 13 17  1  0
 14 18  2  0
 15 19  3  0
 17 20  2  0
 18 20  1  0
 21 16  1  1
 20 22  1  0
 19 23  1  0
 21 24  1  0
 21 25  1  0
 24 26  1  0
 25 27  1  0
 24 28  1  0
 26 29  1  0
 26 30  2  0
 27 31  1  0
 27 32  1  0
 28 32  1  0
 31 33  2  0
 31 34  2  0
 31 35  1  0
 35 36  1  0
 35 37  2  0
 37 38  1  0
 36 39  1  0
 38 39  2  0
 39 40  1  0
M  END
