x1402-x0426
     RDKit          3D

 37 40  0  0  0  0  0  0  0  0999 V2000
    7.3640   -3.4870   20.0030 C   0  0  0  0  0  0  0  0  0  0  0  0
    6.4010   -4.5370   20.5780 C   0  0  0  0  0  0  0  0  0  0  0  0
    5.3690   -4.7840   19.9740 O   0  0  0  0  0  0  0  0  0  0  0  0
    6.6460   -5.2760   21.7620 N   0  0  0  0  0  0  0  0  0  0  0  0
    7.3980   -4.8680   22.8140 C   0  0  0  0  0  0  0  0  0  0  0  0
    5.7660   -6.3520   22.1860 C   0  0  0  0  0  0  0  0  0  0  0  0
    6.5050   -4.4600   23.7650 C   0  0  0  0  0  0  0  0  0  0  0  0
    5.1080   -6.1910   23.3830 C   0  0  0  0  0  0  0  0  0  0  0  0
    5.8060   -5.4980   24.3140 N   0  0  0  0  0  0  0  0  0  0  0  0
    5.1350   -5.3550   25.8870 S   0  0  0  0  0  0  0  0  0  0  0  0
    4.1290   -6.3890   25.9460 O   0  0  0  0  0  0  0  0  0  0  0  0
    6.1770   -5.2300   26.8700 O   0  0  0  0  0  0  0  0  0  0  0  0
    4.3160   -3.7870   25.9220 C   0  0  0  0  0  0  0  0  0  0  0  0
    2.5810   -3.7530   26.0470 S   0  0  0  0  0  0  0  0  0  0  0  0
    4.8150   -2.4870   25.8560 C   0  0  0  0  0  0  0  0  0  0  0  0
    3.6820   -1.5100   25.8900 C   0  0  0  0  0  0  0  0  0  0  0  0
    2.4160   -2.0280   25.9800 C   0  0  0  0  0  0  0  0  0  0  0  0
    1.0860   -1.3370   26.0200 C   0  0  0  0  0  0  0  0  0  0  0  0
    0.8840   -0.1940   25.0000 C   0  0  0  0  0  0  0  0  0  0  0  0
    2.0760    0.2710   24.3470 N   0  0  0  0  0  0  0  0  0  0  0  0
    2.3190    1.7130   24.1270 C   0  0  0  0  0  0  0  0  0  0  0  0
    3.5070    2.1440   23.5230 N   0  0  0  0  0  0  0  0  0  0  0  0
    1.2820    2.6520   24.6330 C   0  0  0  0  0  0  0  0  0  0  0  0
    3.6820    2.1900   22.0590 C   0  0  0  0  0  0  0  0  0  0  0  0
    1.5590    3.8450   25.2890 C   0  0  0  0  0  0  0  0  0  0  0  0
   -0.0670    2.3310   24.4590 C   0  0  0  0  0  0  0  0  0  0  0  0
    3.5500    0.9550   21.1560 C   0  0  0  0  0  0  0  0  0  0  0  0
    2.8210    4.2510   25.5030 F   0  0  0  0  0  0  0  0  0  0  0  0
   -1.1230    3.1130   24.9050 C   0  0  0  0  0  0  0  0  0  0  0  0
    0.5050    4.6560   25.7500 C   0  0  0  0  0  0  0  0  0  0  0  0
   -0.8460    4.3060   25.5690 C   0  0  0  0  0  0  0  0  0  0  0  0
    4.5860    0.7960   20.0500 C   0  0  0  0  0  0  0  0  0  0  0  0
    5.6860   -0.0650   20.1960 C   0  0  0  0  0  0  0  0  0  0  0  0
    4.4620    1.5010   18.8540 C   0  0  0  0  0  0  0  0  0  0  0  0
    6.6440   -0.2210   19.1610 C   0  0  0  0  0  0  0  0  0  0  0  0
    5.4150    1.3120   17.8870 C   0  0  0  0  0  0  0  0  0  0  0  0
    6.4660    0.4880   18.0160 N   0  0  0  0  0  0  0  0  0  0  0  0
  1  2  1  0
  2  3  2  0
  2  4  1  0
  4  5  1  0
  4  6  1  0
  5  7  1  0
  6  8  1  0
  7  9  1  0
  8  9  1  0
  9 10  1  0
 10 11  2  0
 10 12  2  0
 10 13  1  0
 13 14  1  0
 13 15  2  0
 15 16  1  0
 14 17  1  0
 16 17  2  0
 17 18  1  0
 18 19  1  0
 19 20  1  0
 20 21  2  3
 21 22  1  0
 21 23  1  0
 22 24  1  0
 23 25  2  0
 23 26  1  0
 24 27  1  0
 25 28  1  0
 26 29  2  0
 25 30  1  0
 29 31  1  0
 30 31  2  0
 27 32  1  0
 32 33  2  0
 32 34  1  0
 33 35  1  0
 34 36  2  0
 35 37  2  0
 36 37  1  0
M  END
