x1402-x2569
     RDKit          3D

 38 41  0  0  0  0  0  0  0  0999 V2000
    7.2060   -3.3680   19.6940 C   0  0  0  0  0  0  0  0  0  0  0  0
    6.2570   -4.3260   20.4460 C   0  0  0  0  0  0  0  0  0  0  0  0
    5.2110   -4.6200   19.9070 O   0  0  0  0  0  0  0  0  0  0  0  0
    6.5150   -4.9370   21.6980 N   0  0  0  0  0  0  0  0  0  0  0  0
    7.2640   -4.3980   22.7070 C   0  0  1  0  0  0  0  0  0  0  0  0
    5.9020   -6.2200   22.0310 C   0  0  0  0  0  0  0  0  0  0  0  0
    7.1780   -2.8430   22.6540 C   0  0  0  0  0  0  0  0  0  0  0  0
    6.9510   -4.9870   23.9020 C   0  0  0  0  0  0  0  0  0  0  0  0
    5.1410   -6.1170   23.1550 C   0  0  0  0  0  0  0  0  0  0  0  0
    8.5430   -2.1280   22.4350 C   0  0  0  0  0  0  0  0  0  0  0  0
    5.6180   -5.2420   24.0490 N   0  0  0  0  0  0  0  0  0  0  0  0
    4.9680   -5.2950   25.6330 S   0  0  0  0  0  0  0  0  0  0  0  0
    8.7000   -0.6830   22.8520 C   0  0  2  0  0  0  0  0  0  0  0  0
    3.9880   -6.3540   25.6010 O   0  0  0  0  0  0  0  0  0  0  0  0
    6.0170   -5.2560   26.6170 O   0  0  0  0  0  0  0  0  0  0  0  0
    8.2230    0.1970   21.7130 C   0  0  0  0  0  0  0  0  0  0  0  0
    4.1150   -3.7570   25.8560 C   0  0  0  0  0  0  0  0  0  0  0  0
   10.1150   -0.4180   23.1050 C   0  0  0  0  0  0  0  0  0  0  0  0
    8.8810    1.1770   21.3000 O   0  0  0  0  0  0  0  0  0  0  0  0
    6.9450   -0.2430   21.2130 N   0  0  0  0  0  0  0  0  0  0  0  0
    2.3840   -3.7710   25.8310 S   0  0  0  0  0  0  0  0  0  0  0  0
    4.5870   -2.4620   26.0570 C   0  0  0  0  0  0  0  0  0  0  0  0
   11.0120   -1.0470   22.2720 C   0  0  0  0  0  0  0  0  0  0  0  0
   10.4710    0.4530   24.1610 C   0  0  0  0  0  0  0  0  0  0  0  0
    3.4480   -1.4780   26.1900 C   0  0  0  0  0  0  0  0  0  0  0  0
    2.2050   -2.0760   26.0890 C   0  0  0  0  0  0  0  0  0  0  0  0
   11.8310    0.6440   24.3100 N   0  0  0  0  0  0  0  0  0  0  0  0
   12.3280   -0.8570   22.4220 C   0  0  0  0  0  0  0  0  0  0  0  0
    6.3520    0.2910   20.1080 C   0  0  0  0  0  0  0  0  0  0  0  0
    0.6550   -1.3470   26.1930 Cl  0  0  0  0  0  0  0  0  0  0  0  0
   13.1180   -1.4580   21.6060 C   0  0  0  0  0  0  0  0  0  0  0  0
   12.7220   -0.0380   23.4080 C   0  0  0  0  0  0  0  0  0  0  0  0
    6.9190    0.0930   18.8730 C   0  0  0  0  0  0  0  0  0  0  0  0
    5.1630    1.0480   20.2320 C   0  0  0  0  0  0  0  0  0  0  0  0
   13.7780   -2.0250   20.6420 N   0  0  0  0  0  0  0  0  0  0  0  0
    6.4500    0.5770   17.7100 N   0  0  0  0  0  0  0  0  0  0  0  0
    4.6030    1.5850   19.0800 C   0  0  0  0  0  0  0  0  0  0  0  0
    5.2100    1.3740   17.8610 C   0  0  0  0  0  0  0  0  0  0  0  0
  1  2  1  0
  2  3  2  0
  2  4  1  0
  4  5  1  0
  4  6  1  0
  5  7  1  1
  5  8  1  0
  6  9  1  0
  7 10  1  0
  8 11  1  0
  9 11  1  0
 11 12  1  0
 13 10  1  6
 12 14  2  0
 12 15  2  0
 13 16  1  0
 12 17  1  0
 13 18  1  0
 16 19  2  0
 16 20  1  0
 17 21  1  0
 17 22  2  0
 18 23  2  0
 18 24  1  0
 22 25  1  0
 21 26  1  0
 25 26  2  0
 24 27  2  0
 23 28  1  0
 20 29  1  0
 26 30  1  0
 28 31  1  0
 27 32  1  0
 28 32  2  0
 29 33  2  0
 29 34  1  0
 31 35  3  0
 33 36  1  0
 34 37  2  0
 36 38  2  0
 37 38  1  0
M  END
