x1402-x2964
     RDKit          3D

 39 42  0  0  0  0  0  0  0  0999 V2000
    7.2060   -3.4030   19.7530 C   0  0  0  0  0  0  0  0  0  0  0  0
    6.3030   -4.4030   20.5190 C   0  0  0  0  0  0  0  0  0  0  0  0
    5.5190   -5.1410   19.9760 O   0  0  0  0  0  0  0  0  0  0  0  0
    6.2030   -4.4980   22.0530 C   0  0  0  0  0  0  0  0  0  0  0  0
    7.4910   -4.4830   22.8790 C   0  0  0  0  0  0  0  0  0  0  0  0
    5.4180   -5.8430   22.2810 C   0  0  0  0  0  0  0  0  0  0  0  0
    5.2450   -3.3480   22.4780 C   0  0  0  0  0  0  0  0  0  0  0  0
    6.9190   -5.0730   24.1160 C   0  0  0  0  0  0  0  0  0  0  0  0
    4.9740   -6.0020   23.5880 C   0  0  0  0  0  0  0  0  0  0  0  0
    5.3690   -2.0230   21.7140 C   0  0  0  0  0  0  0  0  0  0  0  0
    5.8610   -5.7470   24.5690 N   0  0  0  0  0  0  0  0  0  0  0  0
    6.5540   -1.2110   22.2440 C   0  0  0  0  0  0  0  0  0  0  0  0
    5.1510   -5.3500   26.1160 S   0  0  0  0  0  0  0  0  0  0  0  0
    7.1290   -0.3740   21.1830 N   0  0  0  0  0  0  0  0  0  0  0  0
    4.1140   -6.3280   26.3510 O   0  0  0  0  0  0  0  0  0  0  0  0
    6.2470   -5.1560   27.0300 O   0  0  0  0  0  0  0  0  0  0  0  0
    4.2660   -3.8110   26.0230 C   0  0  0  0  0  0  0  0  0  0  0  0
    8.2760    0.3910   21.6100 C   0  0  0  0  0  0  0  0  0  0  0  0
    6.3720    0.2140   20.0870 C   0  0  0  0  0  0  0  0  0  0  0  0
    2.5430   -3.9160   26.1270 S   0  0  0  0  0  0  0  0  0  0  0  0
    4.6700   -2.5380   25.8940 C   0  0  0  0  0  0  0  0  0  0  0  0
    8.6620    1.6460   21.0300 O   0  0  0  0  0  0  0  0  0  0  0  0
    8.9490   -0.1830   22.5790 N   0  0  0  0  0  0  0  0  0  0  0  0
    5.2000    0.9190   20.2660 C   0  0  0  0  0  0  0  0  0  0  0  0
    6.9380    0.0090   18.8350 C   0  0  0  0  0  0  0  0  0  0  0  0
    3.5980   -1.6480   25.8860 C   0  0  0  0  0  0  0  0  0  0  0  0
    2.3730   -2.2390   26.0120 C   0  0  0  0  0  0  0  0  0  0  0  0
    4.4980    1.5070   19.0440 C   0  0  0  0  0  0  0  0  0  0  0  0
    6.3290    0.5380   17.7290 N   0  0  0  0  0  0  0  0  0  0  0  0
   10.2960    0.0450   22.6770 C   0  0  0  0  0  0  0  0  0  0  0  0
    0.7570   -1.4690   26.0710 Cl  0  0  0  0  0  0  0  0  0  0  0  0
    3.3180    2.2280   19.0880 N   0  0  0  0  0  0  0  0  0  0  0  0
    5.1910    1.2310   17.8850 C   0  0  0  0  0  0  0  0  0  0  0  0
   10.8660    1.2330   23.0270 C   0  0  0  0  0  0  0  0  0  0  0  0
   11.1230   -0.9840   22.3920 C   0  0  0  0  0  0  0  0  0  0  0  0
   12.2060    1.4180   23.1030 C   0  0  0  0  0  0  0  0  0  0  0  0
   12.4700   -0.7980   22.4650 C   0  0  0  0  0  0  0  0  0  0  0  0
   13.3560   -2.1350   22.0830 Cl  0  0  0  0  0  0  0  0  0  0  0  0
   13.0610    0.4040   22.8230 C   0  0  0  0  0  0  0  0  0  0  0  0
  1  2  1  0
  2  3  2  0
  4  2  1  0
  4  5  1  0
  4  6  1  0
  4  7  1  0
  5  8  1  0
  6  9  1  0
  7 10  1  0
  8 11  1  0
  9 11  1  0
 10 12  1  0
 11 13  1  0
 12 14  1  0
 13 15  2  0
 13 16  2  0
 13 17  1  0
 14 18  1  0
 14 19  1  0
 17 20  1  0
 17 21  2  0
 18 22  2  0
 18 23  1  0
 19 24  2  0
 19 25  1  0
 21 26  1  0
 20 27  1  0
 26 27  2  0
 24 28  1  0
 25 29  2  0
 23 30  1  0
 27 31  1  0
 28 32  1  0
 28 33  2  0
 29 33  1  0
 30 34  2  0
 30 35  1  0
 34 36  1  0
 35 37  2  0
 37 38  1  0
 36 39  2  0
 37 39  1  0
M  END
