x1402-x3110
     RDKit          3D

 48 51  0  0  0  0  0  0  0  0999 V2000
    8.0540    1.4440   23.3720 N   0  0  0  0  0  0  0  0  0  0  0  0
    8.9620    2.4550   23.8980 C   0  0  0  0  0  0  0  0  0  0  0  0
   10.4310    2.1720   23.5970 C   0  0  0  0  0  0  0  0  0  0  0  0
    7.9260    1.1790   22.0200 C   0  0  0  0  0  0  0  0  0  0  0  0
    8.7850    1.7300   21.1130 O   0  0  0  0  0  0  0  0  0  0  0  0
    6.7400    0.2470   21.6630 C   0  0  2  0  0  0  0  0  0  0  0  0
    7.0960   -1.1590   21.9610 N   0  0  0  0  0  0  0  0  0  0  0  0
   11.2200    3.4340   23.4190 C   0  0  0  0  0  0  0  0  0  0  0  0
    6.2190    0.5540   20.2790 C   0  0  0  0  0  0  0  0  0  0  0  0
   12.1070    3.3350   22.4070 O   0  0  0  0  0  0  0  0  0  0  0  0
   11.0680    4.4330   24.1160 O   0  0  0  0  0  0  0  0  0  0  0  0
    6.0210   -2.0230   21.9350 C   0  0  0  0  0  0  0  0  0  0  0  0
    5.1120    1.3960   20.1470 C   0  0  0  0  0  0  0  0  0  0  0  0
    6.8500    0.0090   19.1590 C   0  0  0  0  0  0  0  0  0  0  0  0
    8.3710   -1.3570   22.5740 C   0  0  0  0  0  0  0  0  0  0  0  0
   12.4580    4.5400   21.8990 C   0  0  0  0  0  0  0  0  0  0  0  0
    5.8380   -3.1460   22.7620 C   0  0  0  0  0  0  0  0  0  0  0  0
    6.3530    0.3310   17.8380 N   0  0  0  0  0  0  0  0  0  0  0  0
    4.6210    1.7140   18.9010 C   0  0  0  0  0  0  0  0  0  0  0  0
    9.4240   -1.4970   21.7150 C   0  0  0  0  0  0  0  0  0  0  0  0
    8.6060   -1.3840   23.9570 C   0  0  0  0  0  0  0  0  0  0  0  0
   13.4100    5.2040   22.8610 C   0  0  0  0  0  0  0  0  0  0  0  0
    5.2640    1.1720   17.8210 C   0  0  0  0  0  0  0  0  0  0  0  0
   10.7070   -1.6530   22.1960 C   0  0  0  0  0  0  0  0  0  0  0  0
    9.9010   -1.5330   24.4310 C   0  0  0  0  0  0  0  0  0  0  0  0
    6.2510   -4.5290   22.1500 C   0  0  0  0  0  0  0  0  0  0  0  0
    6.6220   -4.2780   20.6970 C   0  0  0  0  0  0  0  0  0  0  0  0
   10.9760   -1.6660   23.5640 C   0  0  0  0  0  0  0  0  0  0  0  0
    7.3030   -5.0780   22.8780 C   0  0  0  0  0  0  0  0  0  0  0  0
    5.0810   -5.5520   22.1970 C   0  0  0  0  0  0  0  0  0  0  0  0
   12.3980   -1.7970   24.1190 C   0  0  0  0  0  0  0  0  0  0  0  0
    7.9810   -3.6450   20.3720 C   0  0  0  0  0  0  0  0  0  0  0  0
    5.7520   -4.5620   19.8930 O   0  0  0  0  0  0  0  0  0  0  0  0
    7.1300   -5.1850   24.2460 C   0  0  0  0  0  0  0  0  0  0  0  0
    5.1220   -6.3510   23.3180 C   0  0  0  0  0  0  0  0  0  0  0  0
   12.6490   -0.6930   24.8270 C   0  0  0  0  0  0  0  0  0  0  0  0
   13.3830   -1.8580   22.9490 C   0  0  0  0  0  0  0  0  0  0  0  0
   12.7250   -2.9940   25.0120 C   0  0  0  0  0  0  0  0  0  0  0  0
    5.7000   -5.5090   24.3690 N   0  0  0  0  0  0  0  0  0  0  0  0
    4.9230   -5.4390   25.8810 S   0  0  0  0  0  0  0  0  0  0  0  0
    3.8410   -6.3950   25.8790 O   0  0  0  0  0  0  0  0  0  0  0  0
    5.8710   -5.4080   26.9530 O   0  0  0  0  0  0  0  0  0  0  0  0
    4.1010   -3.8600   25.9720 C   0  0  0  0  0  0  0  0  0  0  0  0
    2.3790   -3.8830   26.0190 S   0  0  0  0  0  0  0  0  0  0  0  0
    4.5960   -2.5220   26.0170 C   0  0  0  0  0  0  0  0  0  0  0  0
    3.5630   -1.6630   26.0910 C   0  0  0  0  0  0  0  0  0  0  0  0
    2.3310   -2.2000   26.1090 C   0  0  0  0  0  0  0  0  0  0  0  0
    0.8240   -1.3890   26.2140 Cl  0  0  0  0  0  0  0  0  0  0  0  0
  1  2  1  0
  2  3  1  0
  1  4  1  0
  4  5  2  0
  6  4  1  6
  6  7  1  0
  3  8  1  0
  6  9  1  0
  8 10  1  0
  8 11  2  0
  7 12  1  0
  9 13  2  0
  9 14  1  0
  7 15  1  0
 10 16  1  0
 12 17  1  0
 14 18  2  0
 13 19  1  0
 15 20  2  0
 15 21  1  0
 16 22  1  0
 18 23  1  0
 19 23  2  0
 20 24  1  0
 21 25  2  0
 17 26  1  0
 26 27  1  0
 24 28  2  0
 25 28  1  0
 26 29  1  0
 26 30  1  0
 28 31  1  0
 27 32  1  0
 27 33  2  0
 29 34  1  0
 30 35  1  0
 31 36  1  0
 31 37  1  0
 31 38  1  0
 34 39  1  0
 35 39  1  0
 39 40  1  0
 40 41  2  0
 40 42  2  0
 40 43  1  0
 43 44  1  0
 43 45  2  0
 45 46  1  0
 44 47  1  0
 46 47  2  0
 47 48  1  0
M  END
