x1402-x2912
     RDKit          3D

 40 43  0  0  0  0  0  0  0  0999 V2000
    7.3030   -3.3660   19.8590 C   0  0  0  0  0  0  0  0  0  0  0  0
    6.2950   -4.3580   20.4660 C   0  0  0  0  0  0  0  0  0  0  0  0
    5.2430   -4.5570   19.8910 O   0  0  0  0  0  0  0  0  0  0  0  0
    6.5040   -5.0970   21.6480 N   0  0  0  0  0  0  0  0  0  0  0  0
    7.1880   -4.5770   22.7350 C   0  0  1  0  0  0  0  0  0  0  0  0
    5.7350   -6.1730   21.9180 C   0  0  0  0  0  0  0  0  0  0  0  0
    6.7120   -3.1530   23.1510 C   0  0  0  0  0  0  0  0  0  0  0  0
    6.9120   -5.3730   23.8110 C   0  0  0  0  0  0  0  0  0  0  0  0
    4.8210   -6.0520   23.1350 C   0  0  0  0  0  0  0  0  0  0  0  0
    7.4280   -2.7800   24.2400 C   0  0  0  0  0  0  0  0  0  0  0  0
    5.5630   -5.4350   24.0830 N   0  0  0  0  0  0  0  0  0  0  0  0
    4.9390   -5.3430   25.6800 S   0  0  0  0  0  0  0  0  0  0  0  0
    7.9870   -1.4070   24.1760 C   0  0  0  0  0  0  0  0  0  0  0  0
    3.9790   -6.4200   25.7380 O   0  0  0  0  0  0  0  0  0  0  0  0
    5.9990   -5.2370   26.6430 O   0  0  0  0  0  0  0  0  0  0  0  0
    8.7200   -1.1800   22.8680 C   0  0  1  0  0  0  0  0  0  0  0  0
    3.9850   -3.9510   25.8830 C   0  0  0  0  0  0  0  0  0  0  0  0
    7.8530   -0.5700   21.7800 C   0  0  0  0  0  0  0  0  0  0  0  0
    2.2090   -3.8680   25.7740 S   0  0  0  0  0  0  0  0  0  0  0  0
    4.5380   -2.7130   26.1680 C   0  0  0  0  0  0  0  0  0  0  0  0
   10.0740   -0.5800   23.0330 C   0  0  0  0  0  0  0  0  0  0  0  0
    6.7040   -0.6510   21.0670 N   0  0  0  0  0  0  0  0  0  0  0  0
    8.4610    0.4490   21.3930 O   0  0  0  0  0  0  0  0  0  0  0  0
    3.5720   -1.7860   26.2860 C   0  0  0  0  0  0  0  0  0  0  0  0
    2.2590   -2.1960   26.1190 C   0  0  0  0  0  0  0  0  0  0  0  0
   10.4180    0.5260   23.8260 C   0  0  0  0  0  0  0  0  0  0  0  0
   11.0440   -1.2120   22.3250 C   0  0  0  0  0  0  0  0  0  0  0  0
    0.8220   -1.2680   26.2240 Cl  0  0  0  0  0  0  0  0  0  0  0  0
    6.2320    0.1220   20.0120 C   0  0  0  0  0  0  0  0  0  0  0  0
   11.7420    0.9420   23.8550 C   0  0  0  0  0  0  0  0  0  0  0  0
   12.3300   -0.7830   22.3770 C   0  0  0  0  0  0  0  0  0  0  0  0
   13.1400   -1.5400   21.5850 C   0  0  0  0  0  0  0  0  0  0  0  0
    5.2130    1.0510   20.1830 C   0  0  0  0  0  0  0  0  0  0  0  0
    6.7590   -0.0430   18.7540 C   0  0  0  0  0  0  0  0  0  0  0  0
   12.7410    0.2940   23.1280 C   0  0  0  0  0  0  0  0  0  0  0  0
   13.7530   -2.3710   20.6320 N   0  0  0  0  0  0  0  0  0  0  0  0
    4.5610    1.3270   21.5120 C   0  0  0  0  0  0  0  0  0  0  0  0
    6.3600    0.6300   17.6480 N   0  0  0  0  0  0  0  0  0  0  0  0
    4.7970    1.7340   19.0570 C   0  0  0  0  0  0  0  0  0  0  0  0
    5.3610    1.5200   17.8180 C   0  0  0  0  0  0  0  0  0  0  0  0
  1  2  1  0
  2  3  2  0
  2  4  1  0
  4  5  1  0
  4  6  1  0
  5  7  1  1
  5  8  1  0
  6  9  1  0
  7 10  1  0
  8 11  1  0
  9 11  1  0
 11 12  1  0
 10 13  1  0
 12 14  2  0
 12 15  2  0
 16 13  1  1
 12 17  1  0
 16 18  1  0
 17 19  1  0
 17 20  2  0
 16 21  1  0
 18 22  1  0
 18 23  2  0
 20 24  1  0
 19 25  1  0
 24 25  2  0
 21 26  2  0
 21 27  1  0
 25 28  1  0
 22 29  1  0
 26 30  1  0
 27 31  2  0
 31 32  1  0
 29 33  2  0
 29 34  1  0
 30 35  2  0
 31 35  1  0
 32 36  3  0
 33 37  1  0
 34 38  2  0
 33 39  1  0
 38 40  1  0
 39 40  2  0
M  END
