x1402-x2703
     RDKit          3D

 49 53  0  0  0  0  0  0  0  0999 V2000
    6.9770   -1.3260   21.7030 N   0  0  0  0  0  0  0  0  0  0  0  0
    6.6970    0.1320   21.4950 C   0  0  1  0  0  0  0  0  0  0  0  0
    7.8010    1.1760   21.7740 C   0  0  0  0  0  0  0  0  0  0  0  0
    5.7490   -2.1470   21.9420 C   0  0  0  0  0  0  0  0  0  0  0  0
    8.1850   -1.4210   22.4530 C   0  0  0  0  0  0  0  0  0  0  0  0
    5.9210   -3.2600   22.7850 C   0  0  0  0  0  0  0  0  0  0  0  0
    6.1100    0.4690   20.1630 C   0  0  0  0  0  0  0  0  0  0  0  0
    8.3070   -1.1930   23.7960 C   0  0  0  0  0  0  0  0  0  0  0  0
    9.3650   -1.7400   21.8130 C   0  0  0  0  0  0  0  0  0  0  0  0
    7.4980    2.0190   22.8260 N   0  0  0  0  0  0  0  0  0  0  0  0
    8.8340    1.3170   21.1160 O   0  0  0  0  0  0  0  0  0  0  0  0
    4.8220    1.2490   20.1060 C   0  0  0  0  0  0  0  0  0  0  0  0
    6.7990    0.0590   19.0490 C   0  0  0  0  0  0  0  0  0  0  0  0
   10.6920   -1.8240   22.4470 N   0  0  0  0  0  0  0  0  0  0  0  0
    9.5140   -1.2440   24.4530 C   0  0  0  0  0  0  0  0  0  0  0  0
    6.3020   -4.6090   22.1680 C   0  0  0  0  0  0  0  0  0  0  0  0
    6.3920   -4.3840   20.6170 C   0  0  0  0  0  0  0  0  0  0  0  0
    6.2970    0.3960   17.8370 N   0  0  0  0  0  0  0  0  0  0  0  0
    4.3590    1.5590   18.8670 C   0  0  0  0  0  0  0  0  0  0  0  0
   10.7440   -1.5370   23.8820 C   0  0  0  0  0  0  0  0  0  0  0  0
    8.1680    3.3340   22.9070 C   0  0  0  0  0  0  0  0  0  0  0  0
    7.4940   -5.0760   22.6980 C   0  0  0  0  0  0  0  0  0  0  0  0
    5.1980   -5.4000   22.1300 C   0  0  0  0  0  0  0  0  0  0  0  0
   12.0590   -1.5510   24.6000 C   0  0  0  0  0  0  0  0  0  0  0  0
    7.4010   -3.4570   19.9020 C   0  0  0  0  0  0  0  0  0  0  0  0
    5.5190   -4.9330   19.9780 O   0  0  0  0  0  0  0  0  0  0  0  0
    5.1310    1.1170   17.7850 C   0  0  0  0  0  0  0  0  0  0  0  0
    9.4550    3.3950   23.4720 C   0  0  0  0  0  0  0  0  0  0  0  0
    7.5480    4.4950   22.4370 C   0  0  0  0  0  0  0  0  0  0  0  0
    7.3970   -5.1950   24.0540 C   0  0  0  0  0  0  0  0  0  0  0  0
    5.2200   -6.2180   23.3740 C   0  0  0  0  0  0  0  0  0  0  0  0
   10.1200    2.1410   23.9720 C   0  0  0  0  0  0  0  0  0  0  0  0
    6.1740    4.4750   21.8210 C   0  0  0  0  0  0  0  0  0  0  0  0
   12.7130   -2.9370   24.7660 C   0  0  0  0  0  0  0  0  0  0  0  0
   13.0150   -0.7010   23.7800 C   0  0  0  0  0  0  0  0  0  0  0  0
   10.1450    4.6070   23.5850 C   0  0  0  0  0  0  0  0  0  0  0  0
    8.2570    5.6940   22.5590 C   0  0  0  0  0  0  0  0  0  0  0  0
    5.9740   -5.4630   24.3750 N   0  0  0  0  0  0  0  0  0  0  0  0
    9.1660    1.4270   24.9280 C   0  0  0  0  0  0  0  0  0  0  0  0
    5.3050   -5.2650   25.8810 S   0  0  0  0  0  0  0  0  0  0  0  0
    9.5340    5.7850   23.1180 C   0  0  0  0  0  0  0  0  0  0  0  0
    4.3100   -6.3050   26.0270 O   0  0  0  0  0  0  0  0  0  0  0  0
    6.3620   -5.0830   26.8380 O   0  0  0  0  0  0  0  0  0  0  0  0
    4.3330   -3.7790   25.9720 C   0  0  0  0  0  0  0  0  0  0  0  0
    2.6280   -3.9510   25.9990 S   0  0  0  0  0  0  0  0  0  0  0  0
    4.6500   -2.4770   26.0300 C   0  0  0  0  0  0  0  0  0  0  0  0
    3.6170   -1.5850   26.1010 C   0  0  0  0  0  0  0  0  0  0  0  0
    2.4270   -2.2690   26.0990 C   0  0  0  0  0  0  0  0  0  0  0  0
    0.8490   -1.5980   26.1910 Cl  0  0  0  0  0  0  0  0  0  0  0  0
  1  2  1  0
  2  3  1  6
  1  4  1  0
  1  5  1  0
  4  6  1  0
  2  7  1  0
  5  8  2  0
  5  9  1  0
  3 10  1  0
  3 11  2  0
  7 12  2  0
  7 13  1  0
  9 14  2  0
  8 15  1  0
  6 16  1  0
 16 17  1  0
 13 18  2  0
 12 19  1  0
 14 20  1  0
 15 20  2  0
 10 21  1  0
 16 22  1  0
 16 23  1  0
 20 24  1  0
 17 25  1  0
 17 26  2  0
 18 27  1  0
 19 27  2  0
 21 28  2  0
 21 29  1  0
 22 30  1  0
 23 31  1  0
 28 32  1  0
 29 33  1  0
 24 34  1  0
 24 35  1  0
 28 36  1  0
 29 37  2  0
 30 38  1  0
 31 38  1  0
 32 39  1  0
 38 40  1  0
 36 41  2  0
 37 41  1  0
 40 42  2  0
 40 43  2  0
 40 44  1  0
 44 45  1  0
 44 46  2  0
 46 47  1  0
 45 48  1  0
 47 48  2  0
 48 49  1  0
M  END
