x1402-x2694
     RDKit          3D

 49 53  0  0  0  0  0  0  0  0999 V2000
    7.3980   -0.9010   21.9040 N   0  0  0  0  0  0  0  0  0  0  0  0
    7.0010    0.4990   21.5850 C   0  0  1  0  0  0  0  0  0  0  0  0
    8.0870    1.5540   21.8050 C   0  0  0  0  0  0  0  0  0  0  0  0
    6.2210   -1.8240   21.8400 C   0  0  0  0  0  0  0  0  0  0  0  0
    8.5640   -1.1680   22.6880 C   0  0  0  0  0  0  0  0  0  0  0  0
    6.2970   -2.9350   22.7020 C   0  0  0  0  0  0  0  0  0  0  0  0
    6.3510    0.6910   20.2400 C   0  0  0  0  0  0  0  0  0  0  0  0
    8.6060   -1.4230   24.0160 N   0  0  0  0  0  0  0  0  0  0  0  0
    9.8380   -1.1830   22.2250 C   0  0  0  0  0  0  0  0  0  0  0  0
    7.8060    2.4700   22.8010 N   0  0  0  0  0  0  0  0  0  0  0  0
    9.1120    1.6240   21.1510 O   0  0  0  0  0  0  0  0  0  0  0  0
    5.1320    1.5810   20.1360 C   0  0  0  0  0  0  0  0  0  0  0  0
    6.9040    0.0560   19.1510 C   0  0  0  0  0  0  0  0  0  0  0  0
    9.9870   -1.5860   24.3180 O   0  0  0  0  0  0  0  0  0  0  0  0
   10.7750   -1.4310   23.1890 C   0  0  0  0  0  0  0  0  0  0  0  0
    6.2870   -4.3710   22.0700 C   0  0  0  0  0  0  0  0  0  0  0  0
   12.2680   -1.5460   23.3050 C   0  0  0  0  0  0  0  0  0  0  0  0
    6.3940   -4.2690   20.5400 C   0  0  0  0  0  0  0  0  0  0  0  0
    6.3250    0.2560   17.9320 N   0  0  0  0  0  0  0  0  0  0  0  0
    4.5910    1.7440   18.8960 C   0  0  0  0  0  0  0  0  0  0  0  0
    8.5680    3.6270   23.0450 C   0  0  0  0  0  0  0  0  0  0  0  0
    7.3040   -5.1040   22.6740 C   0  0  0  0  0  0  0  0  0  0  0  0
    4.9310   -5.0910   22.3600 C   0  0  0  0  0  0  0  0  0  0  0  0
   12.8280   -0.2240   23.8330 C   0  0  0  0  0  0  0  0  0  0  0  0
   12.9300   -1.8590   21.9590 C   0  0  0  0  0  0  0  0  0  0  0  0
   12.6410   -2.4240   24.2480 C   0  0  0  0  0  0  0  0  0  0  0  0
    7.3770   -3.3650   19.7630 C   0  0  0  0  0  0  0  0  0  0  0  0
    5.5580   -4.9330   19.9710 O   0  0  0  0  0  0  0  0  0  0  0  0
    5.2230    1.0690   17.8450 C   0  0  0  0  0  0  0  0  0  0  0  0
    9.7920    3.4520   23.6540 C   0  0  0  0  0  0  0  0  0  0  0  0
    8.1420    4.9200   22.6990 C   0  0  0  0  0  0  0  0  0  0  0  0
    7.1800   -5.1610   24.0600 C   0  0  0  0  0  0  0  0  0  0  0  0
    4.9900   -6.1010   23.2960 C   0  0  0  0  0  0  0  0  0  0  0  0
   10.2800    2.0830   24.0380 C   0  0  0  0  0  0  0  0  0  0  0  0
   10.6270    4.5260   23.9400 C   0  0  0  0  0  0  0  0  0  0  0  0
    8.9780    5.9740   22.9960 C   0  0  0  0  0  0  0  0  0  0  0  0
    5.8030   -5.6120   24.3970 N   0  0  0  0  0  0  0  0  0  0  0  0
    5.0630   -5.4420   25.8780 S   0  0  0  0  0  0  0  0  0  0  0  0
   10.2120    5.8240   23.6110 C   0  0  0  0  0  0  0  0  0  0  0  0
   11.0900    6.8210   23.9400 O   0  0  0  0  0  0  0  0  0  0  0  0
    4.0410   -6.4540   25.9850 O   0  0  0  0  0  0  0  0  0  0  0  0
    6.0560   -5.2980   26.9040 O   0  0  0  0  0  0  0  0  0  0  0  0
    4.1890   -3.8860   25.9440 C   0  0  0  0  0  0  0  0  0  0  0  0
   11.8680    6.6450   25.1250 C   0  0  0  0  0  0  0  0  0  0  0  0
    2.4630   -3.9360   26.0300 S   0  0  0  0  0  0  0  0  0  0  0  0
    4.6120   -2.5310   25.9480 C   0  0  0  0  0  0  0  0  0  0  0  0
    3.5800   -1.6880   26.0260 C   0  0  0  0  0  0  0  0  0  0  0  0
    2.3600   -2.2450   26.0850 C   0  0  0  0  0  0  0  0  0  0  0  0
    0.8360   -1.4680   26.2090 Cl  0  0  0  0  0  0  0  0  0  0  0  0
  1  2  1  0
  2  3  1  6
  1  4  1  0
  1  5  1  0
  4  6  1  0
  2  7  1  0
  5  8  2  0
  5  9  1  0
  3 10  1  0
  3 11  2  0
  7 12  2  0
  7 13  1  0
  8 14  1  0
  9 15  2  0
 14 15  1  0
  6 16  1  0
 15 17  1  0
 16 18  1  0
 13 19  2  0
 12 20  1  0
 10 21  1  0
 16 22  1  0
 16 23  1  0
 17 24  1  0
 17 25  1  0
 17 26  1  0
 18 27  1  0
 18 28  2  0
 19 29  1  0
 20 29  2  0
 21 30  2  0
 21 31  1  0
 22 32  1  0
 23 33  1  0
 30 34  1  0
 30 35  1  0
 31 36  2  0
 32 37  1  0
 33 37  1  0
 37 38  1  0
 35 39  2  0
 36 39  1  0
 39 40  1  0
 38 41  2  0
 38 42  2  0
 38 43  1  0
 40 44  1  0
 43 45  1  0
 43 46  2  0
 46 47  1  0
 45 48  1  0
 47 48  2  0
 48 49  1  0
M  END
