x1402-x2563
     RDKit          3D

 40 44  0  0  0  0  0  0  0  0999 V2000
    8.2480   -3.9840   20.5230 C   0  0  0  0  0  0  0  0  0  0  0  0
    6.7660   -4.2940   20.7370 C   0  0  0  0  0  0  0  0  0  0  0  0
    5.8910   -4.4630   19.8880 O   0  0  0  0  0  0  0  0  0  0  0  0
    6.3820   -4.3750   22.2220 C   0  0  0  0  0  0  0  0  0  0  0  0
    6.3630   -2.8710   22.6210 C   0  0  0  0  0  0  0  0  0  0  0  0
    7.5080   -5.0120   23.0360 C   0  0  0  0  0  0  0  0  0  0  0  0
    5.1200   -4.8430   22.1810 C   0  0  0  0  0  0  0  0  0  0  0  0
    5.8440   -1.9850   21.4630 C   0  0  0  0  0  0  0  0  0  0  0  0
    6.9990   -4.9930   24.2710 C   0  0  0  0  0  0  0  0  0  0  0  0
    4.8900   -5.6200   23.3140 C   0  0  0  0  0  0  0  0  0  0  0  0
    6.9320   -1.2240   20.6010 C   0  0  2  0  0  0  0  0  0  0  0  0
    5.8080   -5.6210   24.4610 N   0  0  0  0  0  0  0  0  0  0  0  0
    5.0730   -5.4330   25.9850 S   0  0  0  0  0  0  0  0  0  0  0  0
    8.0240   -0.4700   21.3160 C   0  0  0  0  0  0  0  0  0  0  0  0
    6.2560   -0.2700   19.7250 C   0  0  0  0  0  0  0  0  0  0  0  0
    4.0890   -6.4850   26.0830 O   0  0  0  0  0  0  0  0  0  0  0  0
    6.1250   -5.2580   26.9540 O   0  0  0  0  0  0  0  0  0  0  0  0
    8.1780    0.7380   21.1080 O   0  0  0  0  0  0  0  0  0  0  0  0
    8.8330   -1.1740   22.1600 N   0  0  0  0  0  0  0  0  0  0  0  0
    4.2010   -3.8810   26.0160 C   0  0  0  0  0  0  0  0  0  0  0  0
    5.2560    0.5970   20.1490 C   0  0  0  0  0  0  0  0  0  0  0  0
    6.7060   -0.3160   18.4370 C   0  0  0  0  0  0  0  0  0  0  0  0
    2.4670   -3.8900   25.9490 S   0  0  0  0  0  0  0  0  0  0  0  0
    4.6370   -2.5640   26.0960 C   0  0  0  0  0  0  0  0  0  0  0  0
    6.0920    0.5910   17.4840 N   0  0  0  0  0  0  0  0  0  0  0  0
    4.6650    1.4580   19.2310 C   0  0  0  0  0  0  0  0  0  0  0  0
    4.7940    0.6560   21.4890 C   0  0  0  0  0  0  0  0  0  0  0  0
    9.9000   -0.5430   22.7600 C   0  0  0  0  0  0  0  0  0  0  0  0
    3.5130   -1.5570   26.1060 C   0  0  0  0  0  0  0  0  0  0  0  0
    2.2730   -2.1730   26.0340 C   0  0  0  0  0  0  0  0  0  0  0  0
    5.0970    1.4390   17.9230 C   0  0  0  0  0  0  0  0  0  0  0  0
    3.6460    2.3280   19.6450 C   0  0  0  0  0  0  0  0  0  0  0  0
    3.7850    1.5320   21.8640 C   0  0  0  0  0  0  0  0  0  0  0  0
   11.2590   -0.7890   22.4460 C   0  0  0  0  0  0  0  0  0  0  0  0
    9.4910    0.3980   23.7240 C   0  0  0  0  0  0  0  0  0  0  0  0
    0.7130   -1.4460   26.0250 Cl  0  0  0  0  0  0  0  0  0  0  0  0
    3.1890    2.3840   20.9430 C   0  0  0  0  0  0  0  0  0  0  0  0
   12.1970   -0.0940   23.0820 C   0  0  0  0  0  0  0  0  0  0  0  0
   10.4310    1.1100   24.3760 C   0  0  0  0  0  0  0  0  0  0  0  0
   11.7560    0.8820   24.0690 C   0  0  0  0  0  0  0  0  0  0  0  0
  1  2  1  0
  2  3  2  0
  4  2  1  0
  4  5  1  0
  4  6  1  0
  4  7  1  0
  5  8  1  0
  6  9  1  0
  7 10  1  0
 11  8  1  1
  9 12  1  0
 10 12  1  0
 12 13  1  0
 11 14  1  0
 11 15  1  0
 13 16  2  0
 13 17  2  0
 14 18  2  0
 14 19  1  0
 13 20  1  0
 15 21  1  0
 15 22  2  0
 20 23  1  0
 20 24  2  0
 22 25  1  0
 21 26  2  0
 21 27  1  0
 19 28  1  0
 24 29  1  0
 23 30  1  0
 29 30  2  0
 25 31  2  0
 26 31  1  0
 26 32  1  0
 27 33  2  0
 28 34  2  0
 28 35  1  0
 30 36  1  0
 32 37  2  0
 33 37  1  0
 34 38  1  0
 35 39  2  0
 38 40  2  0
 39 40  1  0
M  END
