x1402-x2608
     RDKit          3D

 37 40  0  0  0  0  0  0  0  0999 V2000
    7.2650   -3.3790   19.6420 C   0  0  0  0  0  0  0  0  0  0  0  0
    6.2760   -4.2810   20.4610 C   0  0  0  0  0  0  0  0  0  0  0  0
    5.3930   -4.8970   19.9280 O   0  0  0  0  0  0  0  0  0  0  0  0
    6.1830   -4.4510   22.0090 C   0  0  0  0  0  0  0  0  0  0  0  0
    7.4500   -4.3600   22.8520 C   0  0  0  0  0  0  0  0  0  0  0  0
    5.5240   -5.8780   22.1990 C   0  0  0  0  0  0  0  0  0  0  0  0
    5.1550   -3.4060   22.5920 C   0  0  0  0  0  0  0  0  0  0  0  0
    6.8690   -4.9950   24.0700 C   0  0  0  0  0  0  0  0  0  0  0  0
    5.0430   -6.1030   23.4890 C   0  0  0  0  0  0  0  0  0  0  0  0
    5.5930   -2.0440   22.6820 C   0  0  0  0  0  0  0  0  0  0  0  0
    5.8570   -5.7480   24.5020 N   0  0  0  0  0  0  0  0  0  0  0  0
    6.2420   -1.8080   21.4890 C   0  0  0  0  0  0  0  0  0  0  0  0
    5.0420   -5.4180   26.0240 S   0  0  0  0  0  0  0  0  0  0  0  0
    6.6520   -0.4200   21.3080 N   0  0  0  0  0  0  0  0  0  0  0  0
    3.9580   -6.3650   26.1250 O   0  0  0  0  0  0  0  0  0  0  0  0
    6.0460   -5.3280   27.0470 O   0  0  0  0  0  0  0  0  0  0  0  0
    4.2170   -3.8460   25.9890 C   0  0  0  0  0  0  0  0  0  0  0  0
    7.9270   -0.1070   21.5820 C   0  0  0  0  0  0  0  0  0  0  0  0
    6.0290    0.2080   20.1360 C   0  0  0  0  0  0  0  0  0  0  0  0
    2.4910   -3.9000   26.0780 S   0  0  0  0  0  0  0  0  0  0  0  0
    4.6610   -2.5840   25.9120 C   0  0  0  0  0  0  0  0  0  0  0  0
    8.6290   -0.9330   22.3910 N   0  0  0  0  0  0  0  0  0  0  0  0
    8.3890    0.9230   21.0860 O   0  0  0  0  0  0  0  0  0  0  0  0
    6.6400    0.1320   18.8910 C   0  0  0  0  0  0  0  0  0  0  0  0
    4.8470    0.8790   20.2900 C   0  0  0  0  0  0  0  0  0  0  0  0
    3.6200   -1.6600   25.9330 C   0  0  0  0  0  0  0  0  0  0  0  0
    2.3730   -2.2170   26.0290 C   0  0  0  0  0  0  0  0  0  0  0  0
    9.9540   -0.6080   22.6260 C   0  0  0  0  0  0  0  0  0  0  0  0
    6.1720    0.6900   17.7630 N   0  0  0  0  0  0  0  0  0  0  0  0
    4.3250    1.4720   19.1440 C   0  0  0  0  0  0  0  0  0  0  0  0
    0.7820   -1.3980   26.1110 Cl  0  0  0  0  0  0  0  0  0  0  0  0
   11.0080   -1.4570   22.8890 C   0  0  0  0  0  0  0  0  0  0  0  0
   10.4870    0.9980   22.6040 S   0  0  0  0  0  0  0  0  0  0  0  0
    5.0100    1.3550   17.9400 C   0  0  0  0  0  0  0  0  0  0  0  0
   12.1180    0.5460   22.9050 C   0  0  0  0  0  0  0  0  0  0  0  0
   12.2010   -0.8230   23.0450 C   0  0  0  0  0  0  0  0  0  0  0  0
   13.0350    1.5510   22.9580 C   0  0  0  0  0  0  0  0  0  0  0  0
  1  2  1  0
  2  3  2  0
  4  2  1  0
  4  5  1  0
  4  6  1  0
  4  7  1  0
  5  8  1  0
  6  9  1  0
  7 10  1  0
  8 11  1  0
  9 11  1  0
 10 12  1  0
 11 13  1  0
 12 14  1  0
 13 15  2  0
 13 16  2  0
 13 17  1  0
 14 18  1  0
 14 19  1  0
 17 20  1  0
 17 21  2  0
 18 22  1  0
 18 23  2  0
 19 24  2  0
 19 25  1  0
 21 26  1  0
 20 27  1  0
 26 27  2  0
 22 28  1  0
 24 29  1  0
 25 30  2  0
 27 31  1  0
 28 32  2  0
 28 33  1  0
 29 34  2  0
 30 34  1  0
 33 35  1  0
 32 36  1  0
 35 36  2  0
 35 37  1  0
M  END
