x1402-x0978-x2703
     RDKit          3D

 58 62  0  0  0  0  0  0  0  0999 V2000
    7.0970   -1.2840   22.0230 N   0  0  0  0  0  0  0  0  0  0  0  0
    6.7720    0.0700   21.7480 C   0  0  1  0  0  0  0  0  0  0  0  0
    7.7970    1.1720   21.9180 C   0  0  0  0  0  0  0  0  0  0  0  0
    6.0510   -2.0640   22.6090 C   0  0  0  0  0  0  0  0  0  0  0  0
    8.4000   -1.5120   22.6510 C   0  0  0  0  0  0  0  0  0  0  0  0
    5.4090   -3.0330   21.9380 C   0  0  0  0  0  0  0  0  0  0  0  0
    6.1770    0.3750   20.3780 C   0  0  0  0  0  0  0  0  0  0  0  0
    8.6570   -1.8260   23.9760 C   0  0  0  0  0  0  0  0  0  0  0  0
    9.4390   -1.3950   21.8180 C   0  0  0  0  0  0  0  0  0  0  0  0
    7.6310    1.9020   22.8020 N   0  0  0  0  0  0  0  0  0  0  0  0
    8.7300    1.3160   21.1150 O   0  0  0  0  0  0  0  0  0  0  0  0
    5.0100    1.0810   20.2390 C   0  0  0  0  0  0  0  0  0  0  0  0
    6.8700   -0.0720   19.1420 C   0  0  0  0  0  0  0  0  0  0  0  0
   10.8400   -1.5710   22.2360 N   0  0  0  0  0  0  0  0  0  0  0  0
   10.0540   -2.0200   24.4920 C   0  0  0  0  0  0  0  0  0  0  0  0
    5.9430   -4.4990   21.9950 C   0  0  1  0  0  0  0  0  0  0  0  0
    6.3220   -4.6000   20.5200 C   0  0  0  0  0  0  0  0  0  0  0  0
    6.2710    0.2880   17.8630 N   0  0  0  0  0  0  0  0  0  0  0  0
    4.4860    1.3900   19.0100 C   0  0  0  0  0  0  0  0  0  0  0  0
   11.1420   -1.8900   23.6440 C   0  0  0  0  0  0  0  0  0  0  0  0
    8.2480    3.1850   22.9000 C   0  0  0  0  0  0  0  0  0  0  0  0
    7.0950   -4.6660   22.7700 C   0  0  0  0  0  0  0  0  0  0  0  0
    4.9050   -5.4300   22.2000 C   0  0  0  0  0  0  0  0  0  0  0  0
   12.6200   -2.0190   24.0460 C   0  0  0  0  0  0  0  0  0  0  0  0
    7.1590   -3.5290   19.7730 C   0  0  0  0  0  0  0  0  0  0  0  0
    5.8200   -5.5370   19.9520 O   0  0  0  0  0  0  0  0  0  0  0  0
    5.1380    0.9870   17.8450 C   0  0  0  0  0  0  0  0  0  0  0  0
    9.5220    3.2650   23.4550 C   0  0  0  0  0  0  0  0  0  0  0  0
    7.5230    4.4470   22.4030 C   0  0  0  0  0  0  0  0  0  0  0  0
    6.7730   -4.8010   24.1610 C   0  0  0  0  0  0  0  0  0  0  0  0
    4.8480   -6.0310   23.4240 C   0  0  2  0  0  0  0  0  0  0  0  0
   10.1980    2.0020   23.9230 C   0  0  0  0  0  0  0  0  0  0  0  0
    6.1200    4.4280   21.7770 C   0  0  0  0  0  0  0  0  0  0  0  0
   12.8950   -3.0450   25.1480 C   0  0  0  0  0  0  0  0  0  0  0  0
   12.8140   -0.6160   24.6630 C   0  0  0  0  0  0  0  0  0  0  0  0
    3.3220   -6.5590   23.4790 C   0  0  2  0  0  0  0  0  0  0  0  0
   10.2030    4.4870   23.5930 C   0  0  0  0  0  0  0  0  0  0  0  0
    8.2590    5.6210   22.5720 C   0  0  0  0  0  0  0  0  0  0  0  0
    5.4260   -5.1200   24.3270 C   0  0  2  0  0  0  0  0  0  0  0  0
    9.2900    1.1590   24.8420 C   0  0  0  0  0  0  0  0  0  0  0  0
    2.2620   -5.5060   23.3310 N   0  0  0  0  0  0  0  0  0  0  0  0
    3.1990   -7.5000   24.4780 C   0  0  1  0  0  0  0  0  0  0  0  0
    4.7610   -3.8850   23.9550 O   0  0  0  0  0  0  0  0  0  0  0  0
    5.1000   -5.2480   26.1020 S   0  0  0  0  0  0  0  0  0  0  0  0
    9.5340    5.6290   23.1400 C   0  0  0  0  0  0  0  0  0  0  0  0
    2.0330   -8.2410   24.4240 C   0  0  0  0  0  0  0  0  0  0  0  0
    4.3060   -8.1630   24.6850 O   0  0  0  0  0  0  0  0  0  0  0  0
    1.0400   -6.1040   22.7200 C   0  0  0  0  0  0  0  0  0  0  0  0
    4.4480   -6.4550   26.5470 O   0  0  0  0  0  0  0  0  0  0  0  0
    6.2780   -4.8680   26.8590 O   0  0  0  0  0  0  0  0  0  0  0  0
    4.0130   -3.8440   26.2150 C   0  0  0  0  0  0  0  0  0  0  0  0
    1.0320   -7.1310   22.0480 O   0  0  0  0  0  0  0  0  0  0  0  0
   -0.1430   -5.3990   22.9760 C   0  0  0  0  0  0  0  0  0  0  0  0
    2.2810   -3.8360   26.1190 S   0  0  0  0  0  0  0  0  0  0  0  0
    4.5460   -2.5820   26.3720 C   0  0  0  0  0  0  0  0  0  0  0  0
    3.6320   -1.5880   26.4190 C   0  0  0  0  0  0  0  0  0  0  0  0
    2.2240   -2.1290   26.2880 C   0  0  0  0  0  0  0  0  0  0  0  0
    0.7390   -1.2810   26.2960 Cl  0  0  0  0  0  0  0  0  0  0  0  0
  1  2  1  0
  2  3  1  6
  1  4  1  0
  1  5  1  0
  4  6  1  0
  2  7  1  0
  5  8  2  0
  5  9  1  0
  3 10  1  0
  3 11  2  0
  7 12  2  0
  7 13  1  0
  9 14  2  0
  8 15  1  0
 16  6  1  6
 16 17  1  0
 13 18  2  0
 12 19  1  0
 14 20  1  0
 15 20  2  0
 10 21  1  0
 16 22  1  0
 16 23  1  0
 20 24  1  0
 17 25  1  0
 17 26  2  0
 18 27  1  0
 19 27  2  0
 21 28  2  0
 21 29  1  0
 22 30  1  0
 31 23  1  6
 28 32  1  0
 29 33  1  0
 24 34  1  0
 24 35  1  0
 31 36  1  0
 28 37  1  0
 29 38  2  0
 30 39  1  0
 31 39  1  0
 32 40  1  0
 36 41  1  1
 36 42  1  0
 39 43  1  6
 39 44  1  0
 37 45  2  0
 38 45  1  0
 42 46  1  6
 42 47  1  0
 41 48  1  0
 44 49  2  0
 44 50  2  0
 44 51  1  0
 48 52  2  0
 48 53  1  0
 51 54  1  0
 51 55  2  0
 55 56  1  0
 54 57  1  0
 56 57  2  0
 57 58  1  0
M  END
