x1418-x0540
     RDKit          3D

 34 37  0  0  0  0  0  0  0  0999 V2000
    3.0280    1.3820   24.5150 O   0  0  0  0  0  0  0  0  0  0  0  0
    3.1280    2.2490   23.3690 C   0  0  0  0  0  0  0  0  0  0  0  0
    4.2250    2.0610   22.3950 N   0  0  0  0  0  0  0  0  0  0  0  0
    2.0990    3.3060   23.2090 N   0  0  0  0  0  0  0  0  0  0  0  0
    5.4060    1.4050   22.8290 C   0  0  0  0  0  0  0  0  0  0  0  0
    0.8140    3.3310   23.9270 C   0  0  0  0  0  0  0  0  0  0  0  0
    5.5100   -0.1610   22.6710 C   0  0  0  0  0  0  0  0  0  0  0  0
    0.6970    4.6010   24.5180 C   0  0  0  0  0  0  0  0  0  0  0  0
   -0.4160    2.8370   23.1630 C   0  0  0  0  0  0  0  0  0  0  0  0
    5.8740   -0.6930   21.3320 C   0  0  1  0  0  0  0  0  0  0  0  0
   -0.5240    4.8080   25.1780 C   0  0  0  0  0  0  0  0  0  0  0  0
   -1.6810    3.3270   23.8350 C   0  0  0  0  0  0  0  0  0  0  0  0
    5.5840    0.0400   20.1730 C   0  0  0  0  0  0  0  0  0  0  0  0
   -1.5900    4.6420   24.2890 C   0  0  0  0  0  0  0  0  0  0  0  0
    7.2350   -1.4770   21.2330 C   0  0  2  0  0  0  0  0  0  0  0  0
    6.5680    0.0600   18.9870 C   0  0  0  0  0  0  0  0  0  0  0  0
    4.3950    0.7370   20.1180 C   0  0  0  0  0  0  0  0  0  0  0  0
    6.9340   -2.7560   21.0100 N   0  0  0  0  0  0  0  0  0  0  0  0
    8.2530   -1.1840   22.1660 C   0  0  0  0  0  0  0  0  0  0  0  0
    6.5320   -3.3490   19.8440 C   0  0  0  0  0  0  0  0  0  0  0  0
    6.4200    0.7080   17.8310 N   0  0  0  0  0  0  0  0  0  0  0  0
    4.1040    1.5400   18.8510 C   0  0  0  0  0  0  0  0  0  0  0  0
    6.6890   -3.4890   22.2440 C   0  0  0  0  0  0  0  0  0  0  0  0
    8.6590   -2.3410   23.0370 N   0  0  0  0  0  0  0  0  0  0  0  0
    7.4930   -3.0530   18.7120 C   0  0  0  0  0  0  0  0  0  0  0  0
    5.5300   -4.0680   19.7150 O   0  0  0  0  0  0  0  0  0  0  0  0
   10.0060   -2.7030   23.0880 C   0  0  0  0  0  0  0  0  0  0  0  0
    5.1700    1.4730   17.7580 C   0  0  0  0  0  0  0  0  0  0  0  0
    7.8190   -3.5650   22.9510 C   0  0  0  0  0  0  0  0  0  0  0  0
   10.9350   -1.4750   23.0970 C   0  0  0  0  0  0  0  0  0  0  0  0
   12.4200   -1.6210   22.7710 C   0  0  0  0  0  0  0  0  0  0  0  0
   10.4860    0.1300   23.4360 S   0  0  0  0  0  0  0  0  0  0  0  0
   12.1460    0.7290   23.1960 C   0  0  0  0  0  0  0  0  0  0  0  0
   13.0380   -0.2740   22.8560 C   0  0  0  0  0  0  0  0  0  0  0  0
  1  2  2  0
  2  3  1  0
  2  4  1  0
  3  5  1  0
  4  6  1  0
  5  7  1  0
  6  8  1  0
  6  9  1  0
 10  7  1  1
  8 11  1  0
  9 12  1  0
 10 13  1  0
 11 14  1  0
 12 14  1  0
 10 15  1  0
 13 16  2  0
 13 17  1  0
 15 18  1  0
 15 19  1  1
 18 20  1  0
 16 21  1  0
 17 22  2  0
 18 23  1  0
 19 24  1  0
 20 25  1  0
 20 26  2  0
 24 27  1  0
 21 28  2  0
 22 28  1  0
 23 29  1  0
 24 29  1  0
 27 30  1  0
 30 31  2  0
 30 32  1  0
 32 33  1  0
 31 34  1  0
 33 34  2  0
M  END
