x1412-x0540
     RDKit          3D

 35 38  0  0  0  0  0  0  0  0999 V2000
    7.3680   -3.0140   18.9690 C   0  0  0  0  0  0  0  0  0  0  0  0
    6.3310   -3.3960   20.0340 C   0  0  0  0  0  0  0  0  0  0  0  0
    5.3730   -4.1140   19.7310 O   0  0  0  0  0  0  0  0  0  0  0  0
    6.4630   -2.9850   21.3670 N   0  0  0  0  0  0  0  0  0  0  0  0
    7.0540   -1.8280   21.7990 C   0  0  1  0  0  0  0  0  0  0  0  0
    6.4190   -4.0210   22.2280 C   0  0  0  0  0  0  0  0  0  0  0  0
    6.2560   -0.9170   22.5950 C   0  0  0  0  0  0  0  0  0  0  0  0
    8.3120   -2.0010   22.4240 C   0  0  0  0  0  0  0  0  0  0  0  0
    7.6390   -4.2140   22.8580 C   0  0  0  0  0  0  0  0  0  0  0  0
    5.2370   -0.0550   22.0430 C   0  0  1  0  0  0  0  0  0  0  0  0
    8.3570   -3.0190   23.3220 N   0  0  0  0  0  0  0  0  0  0  0  0
    8.4840   -2.6960   24.6760 C   0  0  0  0  0  0  0  0  0  0  0  0
    5.2340    1.1820   22.7040 C   0  0  0  0  0  0  0  0  0  0  0  0
    5.4910    0.2610   20.5650 C   0  0  0  0  0  0  0  0  0  0  0  0
    8.4630   -1.3800   25.2180 O   0  0  0  0  0  0  0  0  0  0  0  0
    4.0500    2.0660   22.5010 N   0  0  0  0  0  0  0  0  0  0  0  0
    8.6440   -3.8820   25.6130 C   0  0  0  0  0  0  0  0  0  0  0  0
    6.8820    0.0090   19.9240 C   0  0  0  0  0  0  0  0  0  0  0  0
    4.4890    0.7810   19.7660 C   0  0  0  0  0  0  0  0  0  0  0  0
    3.0130    2.1970   23.4540 C   0  0  0  0  0  0  0  0  0  0  0  0
    9.4450   -4.9860   25.3430 C   0  0  0  0  0  0  0  0  0  0  0  0
    7.8010   -3.9700   27.1890 S   0  0  0  0  0  0  0  0  0  0  0  0
    6.9960    0.3380   18.4690 C   0  0  0  0  0  0  0  0  0  0  0  0
    4.7880    1.0430   18.4050 C   0  0  0  0  0  0  0  0  0  0  0  0
    2.9350    1.4740   24.4560 O   0  0  0  0  0  0  0  0  0  0  0  0
    2.0910    3.2070   23.1660 N   0  0  0  0  0  0  0  0  0  0  0  0
    8.5700   -5.4910   27.4170 C   0  0  0  0  0  0  0  0  0  0  0  0
    9.3760   -5.8380   26.3510 C   0  0  0  0  0  0  0  0  0  0  0  0
    6.0270    0.8270   17.7120 N   0  0  0  0  0  0  0  0  0  0  0  0
    0.8480    3.3210   23.8440 C   0  0  0  0  0  0  0  0  0  0  0  0
    0.7100    4.5670   24.4740 C   0  0  0  0  0  0  0  0  0  0  0  0
   -0.4090    3.0710   23.0460 C   0  0  0  0  0  0  0  0  0  0  0  0
   -0.5380    4.7280   25.1000 C   0  0  0  0  0  0  0  0  0  0  0  0
   -1.6980    3.2790   23.8190 C   0  0  0  0  0  0  0  0  0  0  0  0
   -1.6160    4.5550   24.2420 C   0  0  0  0  0  0  0  0  0  0  0  0
  1  2  1  0
  2  3  2  0
  2  4  1  0
  4  5  1  0
  4  6  1  0
  5  7  1  1
  5  8  1  0
  6  9  1  0
 10  7  1  1
  8 11  1  0
  9 11  1  0
 11 12  1  0
 10 13  1  0
 10 14  1  0
 12 15  2  0
 13 16  1  0
 12 17  1  0
 14 18  2  0
 14 19  1  0
 16 20  1  0
 17 21  2  0
 17 22  1  0
 18 23  1  0
 19 24  2  0
 20 25  2  0
 20 26  1  0
 22 27  1  0
 21 28  1  0
 27 28  2  0
 23 29  2  0
 24 29  1  0
 26 30  1  0
 30 31  1  0
 30 32  1  0
 31 33  1  0
 32 34  1  0
 33 35  1  0
 34 35  1  0
M  END
