x1412-x2581
     RDKit          3D

 38 43  0  0  0  0  0  0  0  0999 V2000
    9.3080   -2.1990   23.7260 C   0  0  1  0  0  0  0  0  0  0  0  0
   10.2910   -1.4700   23.5770 O   0  0  0  0  0  0  0  0  0  0  0  0
    9.9360   -0.3250   22.9480 C   0  0  0  0  0  0  0  0  0  0  0  0
    8.8360   -1.7520   24.7550 O   0  0  0  0  0  0  0  0  0  0  0  0
    8.2780   -1.8870   22.5940 C   0  0  1  0  0  0  0  0  0  0  0  0
    9.6010   -3.7230   23.9750 C   0  0  0  0  0  0  0  0  0  0  0  0
    8.7340   -0.4840   22.3020 C   0  0  0  0  0  0  0  0  0  0  0  0
    8.2120   -2.5680   21.4120 C   0  0  0  0  0  0  0  0  0  0  0  0
    7.0410   -1.9150   23.1260 N   0  0  0  0  0  0  0  0  0  0  0  0
    9.1140   -4.2850   25.3030 C   0  0  0  0  0  0  0  0  0  0  0  0
   10.5660    0.9380   22.8570 C   0  0  0  0  0  0  0  0  0  0  0  0
    8.1620    0.5410   21.5570 C   0  0  0  0  0  0  0  0  0  0  0  0
    7.0410   -3.1860   21.1190 N   0  0  0  0  0  0  0  0  0  0  0  0
    6.6150   -3.1870   23.3540 C   0  0  0  0  0  0  0  0  0  0  0  0
    8.1670   -3.6260   26.0840 C   0  0  0  0  0  0  0  0  0  0  0  0
    9.5190   -5.4970   25.9290 C   0  0  0  0  0  0  0  0  0  0  0  0
    6.5360   -3.4550   19.8440 C   0  0  0  0  0  0  0  0  0  0  0  0
    8.8150    1.8640   21.4440 N   0  0  0  0  0  0  0  0  0  0  0  0
   10.0740    2.0580   22.1510 C   0  0  0  0  0  0  0  0  0  0  0  0
    6.4740   -3.9770   22.2230 C   0  0  0  0  0  0  0  0  0  0  0  0
    7.7970   -4.4540   27.5350 S   0  0  0  0  0  0  0  0  0  0  0  0
    8.8780   -5.7050   27.1490 C   0  0  0  0  0  0  0  0  0  0  0  0
   10.7920    3.2930   22.1100 N   0  0  0  0  0  0  0  0  0  0  0  0
    7.4530   -3.0460   18.6950 C   0  0  0  0  0  0  0  0  0  0  0  0
    5.4530   -4.0240   19.6570 O   0  0  0  0  0  0  0  0  0  0  0  0
   11.2060    4.0240   23.2620 C   0  0  0  0  0  0  0  0  0  0  0  0
   10.9560    3.7380   24.4130 O   0  0  0  0  0  0  0  0  0  0  0  0
   11.9820    5.2700   22.8920 C   0  0  0  0  0  0  0  0  0  0  0  0
   11.1660    6.4130   23.4210 C   0  0  0  0  0  0  0  0  0  0  0  0
    9.9390    6.7720   22.8710 C   0  0  0  0  0  0  0  0  0  0  0  0
   11.6300    7.1420   24.5060 C   0  0  0  0  0  0  0  0  0  0  0  0
    9.1780    7.8200   23.3660 C   0  0  0  0  0  0  0  0  0  0  0  0
   10.8920    8.2060   25.0260 C   0  0  0  0  0  0  0  0  0  0  0  0
    9.6410    8.5690   24.4630 C   0  0  0  0  0  0  0  0  0  0  0  0
   11.3680    8.9450   26.1120 C   0  0  0  0  0  0  0  0  0  0  0  0
    8.9080    9.6510   24.9910 C   0  0  0  0  0  0  0  0  0  0  0  0
   10.6510    9.9970   26.6200 C   0  0  0  0  0  0  0  0  0  0  0  0
    9.3980   10.3640   26.0540 C   0  0  0  0  0  0  0  0  0  0  0  0
  1  2  1  0
  2  3  1  0
  1  4  1  1
  1  5  1  0
  1  6  1  0
  3  7  2  0
  5  7  1  0
  5  8  1  6
  5  9  1  0
  6 10  1  0
  3 11  1  0
  7 12  1  0
  8 13  1  0
  9 14  1  0
 10 15  2  0
 10 16  1  0
 13 17  1  0
 12 18  2  0
 11 19  2  0
 18 19  1  0
 13 20  1  0
 14 20  1  0
 15 21  1  0
 16 22  2  0
 21 22  1  0
 19 23  1  0
 17 24  1  0
 17 25  2  0
 23 26  1  0
 26 27  2  0
 26 28  1  0
 28 29  1  0
 29 30  2  0
 29 31  1  0
 30 32  1  0
 31 33  2  0
 32 34  2  0
 33 34  1  0
 33 35  1  0
 34 36  1  0
 35 37  2  0
 36 38  2  0
 37 38  1  0
M  END
