x1412-x2705
     RDKit          3D

 44 49  0  0  0  0  0  0  0  0999 V2000
    7.4600    1.9400   22.7670 N   0  0  0  0  0  0  0  0  0  0  0  0
    7.8650    0.8040   21.9400 C   0  0  0  0  0  0  0  0  0  0  0  0
    9.0090    0.7390   21.5150 O   0  0  0  0  0  0  0  0  0  0  0  0
    8.1720    3.1740   22.9100 C   0  0  0  0  0  0  0  0  0  0  0  0
    6.8270   -0.2900   21.5500 C   0  0  1  0  0  0  0  0  0  0  0  0
    9.4410    3.2710   23.4730 C   0  0  0  0  0  0  0  0  0  0  0  0
    7.5480    4.4620   22.4390 C   0  0  0  0  0  0  0  0  0  0  0  0
   10.1430    2.0350   23.9730 C   0  0  0  0  0  0  0  0  0  0  0  0
    6.1820    4.5380   21.8040 C   0  0  0  0  0  0  0  0  0  0  0  0
    6.1940    0.2500   20.2840 C   0  0  0  0  0  0  0  0  0  0  0  0
   10.0820    4.5140   23.5880 C   0  0  0  0  0  0  0  0  0  0  0  0
    8.3010    5.7740   22.5950 C   0  0  0  0  0  0  0  0  0  0  0  0
    7.3960   -1.7900   21.4120 C   0  0  1  0  0  0  0  0  0  0  0  0
    9.2830    1.2690   24.9790 C   0  0  0  0  0  0  0  0  0  0  0  0
    4.9780    0.9520   20.2210 C   0  0  0  0  0  0  0  0  0  0  0  0
    6.9160    0.0430   18.9610 C   0  0  0  0  0  0  0  0  0  0  0  0
    8.1940   -2.4240   22.5890 C   0  0  1  0  0  0  0  0  0  0  0  0
    9.5230    5.7130   23.1610 C   0  0  0  0  0  0  0  0  0  0  0  0
    6.4070   -2.7390   21.1870 N   0  0  0  0  0  0  0  0  0  0  0  0
    6.3330   -3.3290   19.9280 C   0  0  0  0  0  0  0  0  0  0  0  0
    6.3340    0.5800   17.7520 N   0  0  0  0  0  0  0  0  0  0  0  0
    4.4820    1.4340   19.0060 C   0  0  0  0  0  0  0  0  0  0  0  0
    9.5750   -2.3370   22.7080 N   0  0  0  0  0  0  0  0  0  0  0  0
    7.4720   -2.4680   23.8180 N   0  0  0  0  0  0  0  0  0  0  0  0
    5.9150   -3.4660   22.3100 C   0  0  0  0  0  0  0  0  0  0  0  0
    7.3420   -3.0220   18.7930 C   0  0  0  0  0  0  0  0  0  0  0  0
    5.4310   -4.1520   19.7290 O   0  0  0  0  0  0  0  0  0  0  0  0
    8.3460   -2.4280   25.0080 C   0  0  2  0  0  0  0  0  0  0  0  0
    5.1780    1.2340   17.8330 C   0  0  0  0  0  0  0  0  0  0  0  0
   10.1870   -1.5760   23.6160 N   0  0  0  0  0  0  0  0  0  0  0  0
   10.4100   -2.5910   21.7560 C   0  0  0  0  0  0  0  0  0  0  0  0
    6.4420   -3.3330   23.5980 C   0  0  0  0  0  0  0  0  0  0  0  0
    9.5490   -1.6830   24.9460 N   0  0  0  0  0  0  0  0  0  0  0  0
   11.4460   -2.1040   23.5360 C   0  0  1  0  0  0  0  0  0  0  0  0
    8.6180   -3.7410   25.7580 C   0  0  0  0  0  0  0  0  0  0  0  0
   11.6090   -2.4720   22.1090 C   0  0  0  0  0  0  0  0  0  0  0  0
   12.6580   -1.4580   23.9960 C   0  0  0  0  0  0  0  0  0  0  0  0
    9.4820   -4.7880   25.4340 C   0  0  0  0  0  0  0  0  0  0  0  0
    7.7950   -4.0810   27.2450 S   0  0  0  0  0  0  0  0  0  0  0  0
   12.4170   -0.3670   24.9940 C   0  0  0  0  0  0  0  0  0  0  0  0
   13.4440   -2.4230   24.5830 C   0  0  0  0  0  0  0  0  0  0  0  0
   13.2650   -0.8190   22.7420 C   0  0  0  0  0  0  0  0  0  0  0  0
    8.5810   -5.5780   27.4340 C   0  0  0  0  0  0  0  0  0  0  0  0
    9.4570   -5.8360   26.3910 C   0  0  0  0  0  0  0  0  0  0  0  0
  1  2  1  0
  2  3  2  0
  1  4  1  0
  5  2  1  6
  4  6  2  0
  4  7  1  0
  6  8  1  0
  7  9  1  0
  5 10  1  0
  6 11  1  0
  7 12  2  0
  5 13  1  0
  8 14  1  0
 10 15  2  0
 10 16  1  0
 13 17  1  0
 11 18  2  0
 12 18  1  0
 13 19  1  1
 19 20  1  0
 16 21  2  0
 15 22  1  0
 17 23  1  1
 17 24  1  0
 19 25  1  0
 20 26  1  0
 20 27  2  0
 24 28  1  0
 21 29  1  0
 22 29  2  0
 23 30  1  0
 23 31  1  0
 24 32  1  0
 25 32  2  0
 28 33  1  0
 30 33  1  0
 30 34  1  0
 28 35  1  6
 31 36  2  0
 34 36  1  0
 34 37  1  6
 35 38  2  0
 35 39  1  0
 37 40  1  0
 37 41  1  0
 37 42  1  0
 39 43  1  0
 38 44  1  0
 43 44  2  0
M  END
