x1418-x0104
     RDKit          3D

 26 28  0  0  0  0  0  0  0  0999 V2000
    9.0870    6.5110   22.6400 C   0  0  0  0  0  0  0  0  0  0  0  0
   10.2970    6.1130   23.4420 C   0  0  0  0  0  0  0  0  0  0  0  0
   10.3160    6.1760   24.6730 O   0  0  0  0  0  0  0  0  0  0  0  0
   11.2880    5.7100   22.7270 N   0  0  0  0  0  0  0  0  0  0  0  0
   12.4390    5.1680   23.3140 C   0  0  0  0  0  0  0  0  0  0  0  0
   12.7750    3.7540   22.7460 C   0  0  0  0  0  0  0  0  0  0  0  0
   11.8850    2.5880   23.0690 C   0  0  0  0  0  0  0  0  0  0  0  0
   10.5250    2.7910   23.7800 C   0  0  0  0  0  0  0  0  0  0  0  0
   11.9590    1.0500   22.9290 C   0  0  0  0  0  0  0  0  0  0  0  0
    9.7880    1.5410   24.0060 N   0  0  0  0  0  0  0  0  0  0  0  0
   10.5620    0.5110   23.2770 C   0  0  2  0  0  0  0  0  0  0  0  0
   12.9610    0.1190   22.4730 C   0  0  0  0  0  0  0  0  0  0  0  0
   10.5580   -1.0270   23.5420 C   0  0  0  0  0  0  0  0  0  0  0  0
   12.7510   -1.2510   22.6010 C   0  0  0  0  0  0  0  0  0  0  0  0
   13.6410   -2.0970   22.1480 F   0  0  0  0  0  0  0  0  0  0  0  0
    9.4880   -1.7460   24.0630 C   0  0  0  0  0  0  0  0  0  0  0  0
   11.6320   -1.7630   23.1770 C   0  0  0  0  0  0  0  0  0  0  0  0
    8.3510   -1.9080   23.1170 N   0  0  0  0  0  0  0  0  0  0  0  0
    7.6800   -3.2210   23.1610 C   0  0  0  0  0  0  0  0  0  0  0  0
    8.6820   -1.6910   21.7030 C   0  0  0  0  0  0  0  0  0  0  0  0
    6.4170   -3.2440   22.3020 C   0  0  0  0  0  0  0  0  0  0  0  0
    7.4530   -1.3210   21.0680 C   0  0  0  0  0  0  0  0  0  0  0  0
    6.5860   -2.5110   21.0290 N   0  0  0  0  0  0  0  0  0  0  0  0
    6.3730   -3.2310   19.8450 C   0  0  0  0  0  0  0  0  0  0  0  0
    7.3390   -2.9880   18.7060 C   0  0  0  0  0  0  0  0  0  0  0  0
    5.4590   -4.0650   19.7230 O   0  0  0  0  0  0  0  0  0  0  0  0
  1  2  1  0
  2  3  2  0
  2  4  1  0
  4  5  1  0
  5  6  1  0
  6  7  1  0
  7  8  1  0
  7  9  2  0
  8 10  2  0
  9 11  1  0
 11 10  1  1
  9 12  1  0
 11 13  1  0
 12 14  2  0
 14 15  1  0
 13 16  1  0
 13 17  2  0
 14 17  1  0
 16 18  1  0
 18 19  1  0
 18 20  1  0
 19 21  1  0
 20 22  1  0
 21 23  1  0
 22 23  1  0
 23 24  1  0
 24 25  1  0
 24 26  2  0
M  END
