x1412-x0978
     RDKit          3D

 28 29  0  0  0  0  0  0  0  0999 V2000
    2.0240   -5.7440   23.2190 N   0  0  0  0  0  0  0  0  0  0  0  0
    3.2420   -6.4290   23.2680 C   0  0  2  0  0  0  0  0  0  0  0  0
    3.3470   -7.2520   24.5690 C   0  0  1  0  0  0  0  0  0  0  0  0
    0.9010   -6.2920   22.5700 C   0  0  0  0  0  0  0  0  0  0  0  0
    0.8360   -7.3250   21.9180 O   0  0  0  0  0  0  0  0  0  0  0  0
   -0.3660   -5.3920   22.7620 C   0  0  0  0  0  0  0  0  0  0  0  0
    4.3250   -5.3170   23.1630 C   0  0  0  0  0  0  0  0  0  0  0  0
    2.1070   -8.1390   24.6840 C   0  0  0  0  0  0  0  0  0  0  0  0
    4.4360   -7.7690   24.6540 O   0  0  0  0  0  0  0  0  0  0  0  0
    5.6530   -5.5460   23.8430 N   0  0  0  0  0  0  0  0  0  0  0  0
    4.0700   -4.2830   22.5610 O   0  0  0  0  0  0  0  0  0  0  0  0
    6.9340   -5.5610   23.0730 C   0  0  0  0  0  0  0  0  0  0  0  0
    7.5080   -4.2210   22.5010 C   0  0  2  0  0  0  0  0  0  0  0  0
    8.3240   -3.3220   23.1760 N   0  0  0  0  0  0  0  0  0  0  0  0
    6.3630   -3.3310   22.0960 C   0  0  0  0  0  0  0  0  0  0  0  0
    8.2020   -3.0140   24.5560 C   0  0  0  0  0  0  0  0  0  0  0  0
    6.7140   -2.5830   21.0800 N   0  0  0  0  0  0  0  0  0  0  0  0
    8.7660   -2.3100   22.2690 C   0  0  0  0  0  0  0  0  0  0  0  0
    6.4940   -3.1740   19.8090 C   0  0  0  0  0  0  0  0  0  0  0  0
    7.8950   -1.8750   24.9270 O   0  0  0  0  0  0  0  0  0  0  0  0
    7.8360   -1.8440   21.3250 C   0  0  0  0  0  0  0  0  0  0  0  0
    8.4730   -4.0120   25.5010 C   0  0  0  0  0  0  0  0  0  0  0  0
    7.5240   -2.9620   18.7010 C   0  0  0  0  0  0  0  0  0  0  0  0
    5.5000   -3.8920   19.6030 O   0  0  0  0  0  0  0  0  0  0  0  0
    9.3320   -5.1010   25.3060 C   0  0  0  0  0  0  0  0  0  0  0  0
    7.7930   -4.0620   27.0620 S   0  0  0  0  0  0  0  0  0  0  0  0
    8.5970   -5.4800   27.4830 C   0  0  0  0  0  0  0  0  0  0  0  0
    9.3920   -5.9460   26.4620 C   0  0  0  0  0  0  0  0  0  0  0  0
  2  1  1  1
  2  3  1  0
  1  4  1  0
  4  5  2  0
  4  6  1  0
  2  7  1  0
  3  8  1  6
  3  9  1  0
  7 10  1  0
  7 11  2  0
 10 12  1  0
 13 12  1  1
 13 14  1  0
 13 15  1  0
 14 16  1  0
 15 17  1  0
 14 18  1  0
 17 19  1  0
 16 20  2  0
 17 21  1  0
 18 21  1  0
 16 22  1  0
 19 23  1  0
 19 24  2  0
 22 25  2  0
 22 26  1  0
 26 27  1  0
 25 28  1  0
 27 28  2  0
M  END
