x1412-x2908
     RDKit          3D

 34 38  0  0  0  0  0  0  0  0999 V2000
    7.4100   -3.0730   18.6760 C   0  0  0  0  0  0  0  0  0  0  0  0
    6.3400   -3.3000   19.7560 C   0  0  0  0  0  0  0  0  0  0  0  0
    5.3440   -3.9960   19.5770 O   0  0  0  0  0  0  0  0  0  0  0  0
    6.5070   -2.7430   21.0040 N   0  0  0  0  0  0  0  0  0  0  0  0
    7.5290   -1.9290   21.1470 C   0  0  1  0  0  0  0  0  0  0  0  0
    6.0960   -3.5480   22.1570 C   0  0  0  0  0  0  0  0  0  0  0  0
    7.2310   -0.5420   21.0210 N   0  0  0  0  0  0  0  0  0  0  0  0
    8.4080   -1.8970   22.4070 C   0  0  1  0  0  0  0  0  0  0  0  0
    7.1660   -3.7880   23.2050 C   0  0  0  0  0  0  0  0  0  0  0  0
    8.8020   -0.4960   22.6120 N   0  0  0  0  0  0  0  0  0  0  0  0
    8.2810    0.2270   21.6500 C   0  0  0  0  0  0  0  0  0  0  0  0
    7.7740   -2.5330   23.5790 N   0  0  0  0  0  0  0  0  0  0  0  0
    6.5020    0.0760   20.0290 C   0  0  0  0  0  0  0  0  0  0  0  0
    8.3670   -2.4350   24.9020 C   0  0  0  0  0  0  0  0  0  0  0  0
    8.6670    1.3630   21.3010 O   0  0  0  0  0  0  0  0  0  0  0  0
    6.9310   -0.0510   18.7210 C   0  0  0  0  0  0  0  0  0  0  0  0
    5.3680    0.8320   20.3080 C   0  0  0  0  0  0  0  0  0  0  0  0
   10.1440   -0.2910   22.8460 C   0  0  0  0  0  0  0  0  0  0  0  0
    8.7090   -1.1730   25.4500 O   0  0  0  0  0  0  0  0  0  0  0  0
    4.8830    0.9950   21.7520 C   0  0  0  0  0  0  0  0  0  0  0  0
    8.5690   -3.6660   25.6470 C   0  0  0  0  0  0  0  0  0  0  0  0
    6.3060    0.5280   17.6680 N   0  0  0  0  0  0  0  0  0  0  0  0
    4.7210    1.4280   19.2190 C   0  0  0  0  0  0  0  0  0  0  0  0
   10.6380    0.6390   23.7310 C   0  0  0  0  0  0  0  0  0  0  0  0
   11.0770   -1.1470   22.0470 C   0  0  0  0  0  0  0  0  0  0  0  0
    9.4430   -4.8470   25.2480 C   0  0  0  0  0  0  0  0  0  0  0  0
    7.7890   -3.9230   27.1760 S   0  0  0  0  0  0  0  0  0  0  0  0
    5.2110    1.2600   17.9340 C   0  0  0  0  0  0  0  0  0  0  0  0
   11.9510    0.8100   23.8890 C   0  0  0  0  0  0  0  0  0  0  0  0
   12.3940   -0.9740   22.2050 C   0  0  0  0  0  0  0  0  0  0  0  0
   13.3520   -1.9560   21.2500 Cl  0  0  0  0  0  0  0  0  0  0  0  0
    8.5110   -5.4770   27.3830 C   0  0  0  0  0  0  0  0  0  0  0  0
    9.3600   -5.9100   26.3530 C   0  0  0  0  0  0  0  0  0  0  0  0
   12.8950   -0.0380   23.0840 C   0  0  0  0  0  0  0  0  0  0  0  0
  1  2  1  0
  2  3  2  0
  2  4  1  0
  5  4  1  1
  4  6  1  0
  5  7  1  0
  5  8  1  0
  6  9  1  0
  8 10  1  1
  7 11  1  0
 10 11  1  0
  8 12  1  0
  9 12  1  0
  7 13  1  0
 12 14  1  0
 11 15  2  0
 13 16  2  0
 13 17  1  0
 10 18  1  0
 14 19  2  0
 17 20  1  0
 14 21  1  0
 16 22  1  0
 17 23  2  0
 18 24  2  0
 18 25  1  0
 21 26  2  0
 21 27  1  0
 22 28  2  0
 23 28  1  0
 24 29  1  0
 25 30  2  0
 30 31  1  0
 27 32  1  0
 26 33  1  0
 32 33  2  0
 29 34  2  0
 30 34  1  0
M  END
