x1418-x3108
     RDKit          3D

 35 39  0  0  0  0  0  0  0  0999 V2000
    6.0000    1.8840   21.9100 C   0  0  0  0  0  0  0  0  0  0  0  0
    5.9930    1.4300   20.4810 C   0  0  0  0  0  0  0  0  0  0  0  0
    7.1100    0.5170   20.0570 C   0  0  0  0  0  0  0  0  0  0  0  0
    5.0380    1.7830   19.5190 C   0  0  0  0  0  0  0  0  0  0  0  0
    8.0910    0.1400   21.0110 N   0  0  0  0  0  0  0  0  0  0  0  0
    7.1250    0.0400   18.6410 C   0  0  0  0  0  0  0  0  0  0  0  0
    5.1570    1.2750   18.2040 C   0  0  0  0  0  0  0  0  0  0  0  0
    8.7680    1.0310   21.7580 C   0  0  0  0  0  0  0  0  0  0  0  0
    6.1140    0.4450   17.7080 N   0  0  0  0  0  0  0  0  0  0  0  0
    7.9570   -1.2210   21.2990 C   0  0  1  0  0  0  0  0  0  0  0  0
    9.3240    2.2250   21.2730 O   0  0  0  0  0  0  0  0  0  0  0  0
    8.7900    0.6120   23.2340 C   0  0  0  0  0  0  0  0  0  0  0  0
    8.3670   -1.6930   22.5800 N   0  0  0  0  0  0  0  0  0  0  0  0
    6.4840   -1.5920   21.3370 C   0  0  0  0  0  0  0  0  0  0  0  0
    9.0330   -0.8550   23.4740 C   0  0  2  0  0  0  0  0  0  0  0  0
    6.4140   -2.9000   21.1760 N   0  0  0  0  0  0  0  0  0  0  0  0
    8.4090   -3.1720   22.5100 C   0  0  0  0  0  0  0  0  0  0  0  0
    8.4460   -1.0260   24.8850 C   0  0  0  0  0  0  0  0  0  0  0  0
    6.2800   -3.5310   19.9820 C   0  0  0  0  0  0  0  0  0  0  0  0
    7.1080   -3.6620   22.2470 C   0  0  0  0  0  0  0  0  0  0  0  0
   10.5350   -0.9800   23.4960 C   0  0  0  0  0  0  0  0  0  0  0  0
    8.6210    0.0500   25.8090 O   0  0  0  0  0  0  0  0  0  0  0  0
    7.5970   -2.2660   25.2540 C   0  0  0  0  0  0  0  0  0  0  0  0
    7.3150   -3.1250   18.9250 C   0  0  0  0  0  0  0  0  0  0  0  0
    5.3970   -4.3570   19.8020 O   0  0  0  0  0  0  0  0  0  0  0  0
   11.4550   -1.3860   22.3350 C   0  0  0  0  0  0  0  0  0  0  0  0
   11.4010   -0.6110   24.9120 S   0  0  0  0  0  0  0  0  0  0  0  0
    8.4070   -3.4840   25.5380 C   0  0  0  0  0  0  0  0  0  0  0  0
   12.9070   -0.9470   24.0720 C   0  0  0  0  0  0  0  0  0  0  0  0
   12.8580   -1.3370   22.7520 C   0  0  0  0  0  0  0  0  0  0  0  0
    9.6890   -3.7170   25.0160 C   0  0  0  0  0  0  0  0  0  0  0  0
    7.7450   -4.3840   26.3890 C   0  0  0  0  0  0  0  0  0  0  0  0
   10.3500   -4.9580   25.3780 N   0  0  0  0  0  0  0  0  0  0  0  0
    8.3430   -5.5870   26.7590 C   0  0  0  0  0  0  0  0  0  0  0  0
    9.5930   -5.8500   26.2600 C   0  0  0  0  0  0  0  0  0  0  0  0
  1  2  1  0
  2  3  2  0
  2  4  1  0
  3  5  1  0
  3  6  1  0
  4  7  2  0
  5  8  1  0
  6  9  2  0
  7  9  1  0
  5 10  1  0
  8 11  2  0
  8 12  1  0
 10 13  1  0
 10 14  1  1
 12 15  1  0
 13 15  1  0
 14 16  1  0
 13 17  1  0
 15 18  1  1
 16 19  1  0
 16 20  1  0
 17 20  1  0
 15 21  1  0
 18 22  2  0
 18 23  1  0
 19 24  1  0
 19 25  2  0
 21 26  2  0
 21 27  1  0
 23 28  1  0
 27 29  1  0
 26 30  1  0
 29 30  2  0
 28 31  2  0
 28 32  1  0
 31 33  1  0
 32 34  2  0
 33 35  2  0
 34 35  1  0
M  END
