x1418-x2694-x2052
     RDKit          3D

 59 66  0  0  0  0  0  0  0  0999 V2000
    7.7460    2.2820   22.9390 N   0  0  0  0  0  0  0  0  0  0  0  0
    8.1810    1.5210   21.7760 C   0  0  0  0  0  0  0  0  0  0  0  0
    9.0900    1.9760   21.1150 O   0  0  0  0  0  0  0  0  0  0  0  0
    8.5900    3.4290   23.1050 C   0  0  0  0  0  0  0  0  0  0  0  0
    7.6770    0.2410   21.0850 C   0  0  0  0  0  0  0  0  0  0  0  0
    9.6880    3.2940   23.9400 C   0  0  0  0  0  0  0  0  0  0  0  0
    8.3110    4.6240   22.4430 C   0  0  0  0  0  0  0  0  0  0  0  0
    9.7580    1.9460   24.6430 C   0  0  0  0  0  0  0  0  0  0  0  0
    6.6150    0.7620   20.1890 C   0  0  0  0  0  0  0  0  0  0  0  0
   10.6650    4.4920   24.1140 C   0  0  0  0  0  0  0  0  0  0  0  0
    9.1760    5.8830   22.5680 C   0  0  0  0  0  0  0  0  0  0  0  0
    8.2620   -1.2400   21.3840 C   0  0  1  0  0  0  0  0  0  0  0  0
    5.4510    1.4840   20.4250 C   0  0  0  0  0  0  0  0  0  0  0  0
    6.9540    0.4170   18.7280 C   0  0  0  0  0  0  0  0  0  0  0  0
    9.2620   -1.6490   22.6260 C   0  0  2  0  0  0  0  0  0  0  0  0
   10.3960    5.8100   23.4240 C   0  0  0  0  0  0  0  0  0  0  0  0
    7.1010   -2.5540   20.9880 C   0  0  0  0  0  0  0  0  0  0  0  0
   10.1160    0.2500   24.4280 S   0  0  0  0  0  0  0  0  0  0  0  0
   11.3040    6.7920   23.6790 O   0  0  0  0  0  0  0  0  0  0  0  0
    7.0440   -3.5670   19.8600 C   0  0  0  0  0  0  0  0  0  0  0  0
    5.7700   -2.2280   20.2210 C   0  0  0  0  0  0  0  0  0  0  0  0
    6.2350    0.7690   17.6650 N   0  0  0  0  0  0  0  0  0  0  0  0
    4.6000    1.9030   19.1970 C   0  0  0  0  0  0  0  0  0  0  0  0
    8.5210   -1.7050   23.7490 N   0  0  0  0  0  0  0  0  0  0  0  0
   10.5750   -0.9750   23.3560 C   0  0  1  0  0  0  0  0  0  0  0  0
    6.8180   -3.0700   22.3040 C   0  0  1  0  0  0  0  0  0  0  0  0
    9.3720   -2.9820   22.6110 N   0  0  0  0  0  0  0  0  0  0  0  0
   10.7400    1.1940   23.0200 C   0  0  0  0  0  0  0  0  0  0  0  0
   11.8960    6.7810   24.9790 C   0  0  0  0  0  0  0  0  0  0  0  0
    6.3020   -4.5780   19.9160 O   0  0  0  0  0  0  0  0  0  0  0  0
    7.7990   -3.1880   18.6660 C   0  0  0  0  0  0  0  0  0  0  0  0
    5.6710   -1.3880   19.1230 C   0  0  0  0  0  0  0  0  0  0  0  0
    4.8130   -2.9090   20.5210 O   0  0  0  0  0  0  0  0  0  0  0  0
    7.9320   -0.6790   24.3900 C   0  0  0  0  0  0  0  0  0  0  0  0
    5.0240    1.5490   17.9540 C   0  0  0  0  0  0  0  0  0  0  0  0
   10.7810   -2.1100   24.1530 O   0  0  0  0  0  0  0  0  0  0  0  0
    6.2440   -1.6300   22.6590 C   0  0  0  0  0  0  0  0  0  0  0  0
    5.6680   -4.0930   22.6740 C   0  0  0  0  0  0  0  0  0  0  0  0
    8.1040   -3.7090   22.9660 C   0  0  0  0  0  0  0  0  0  0  0  0
   12.1030   -0.6500   23.1850 C   0  0  2  0  0  0  0  0  0  0  0  0
   11.8910    0.5930   22.5520 C   0  0  0  0  0  0  0  0  0  0  0  0
    9.5180   -2.2090   24.6980 C   0  0  0  0  0  0  0  0  0  0  0  0
   12.9910   -1.6350   22.4810 C   0  0  0  0  0  0  0  0  0  0  0  0
    5.3580   -1.7450   23.6400 C   0  0  0  0  0  0  0  0  0  0  0  0
    5.3930   -3.9860   24.0760 C   0  0  0  0  0  0  0  0  0  0  0  0
    5.7770   -2.7180   24.4990 C   0  0  2  0  0  0  0  0  0  0  0  0
   13.2830   -2.7640   23.4660 C   0  0  0  0  0  0  0  0  0  0  0  0
    5.3280   -2.1800   25.8140 C   0  0  0  0  0  0  0  0  0  0  0  0
   13.3850   -2.4470   24.8190 C   0  0  0  0  0  0  0  0  0  0  0  0
    4.1720   -2.3530   26.1710 O   0  0  0  0  0  0  0  0  0  0  0  0
    6.3560   -1.3960   26.5770 N   0  0  0  0  0  0  0  0  0  0  0  0
    6.1010   -0.4550   27.5760 C   0  0  0  0  0  0  0  0  0  0  0  0
    6.5510    0.8800   27.4000 C   0  0  0  0  0  0  0  0  0  0  0  0
    5.4170   -0.8320   28.7170 C   0  0  0  0  0  0  0  0  0  0  0  0
    6.3160    1.9450   28.4170 N   0  0  0  0  0  0  0  0  0  0  0  0
    5.1130    0.1430   29.8260 C   0  0  0  0  0  0  0  0  0  0  0  0
    5.5940    1.6210   29.6640 C   0  0  0  0  0  0  0  0  0  0  0  0
    5.3310    2.5250   30.6490 O   0  0  0  0  0  0  0  0  0  0  0  0
    6.3860    3.4850   30.7230 C   0  0  0  0  0  0  0  0  0  0  0  0
  1  2  1  0
  2  3  2  0
  1  4  1  0
  2  5  1  0
  4  6  2  0
  4  7  1  0
  6  8  1  0
  5  9  1  0
  6 10  1  0
  7 11  2  0
 12  5  1  1
  9 13  2  0
  9 14  1  0
 12 15  1  0
 10 16  2  0
 11 16  1  0
 12 17  1  0
  8 18  2  0
 16 19  1  0
 17 20  1  0
 17 21  1  0
 14 22  2  0
 13 23  1  0
 15 24  1  0
 15 25  1  0
 18 25  1  0
 17 26  1  0
 15 27  1  6
 18 28  1  0
 19 29  1  0
 20 30  2  0
 20 31  1  0
 21 32  1  0
 21 33  2  0
 24 34  1  0
 22 35  1  0
 23 35  2  0
 25 36  1  1
 26 37  1  1
 26 38  1  0
 26 39  1  0
 27 39  1  0
 25 40  1  0
 28 41  2  0
 40 41  1  0
 24 42  1  0
 36 42  1  0
 40 43  1  6
 37 44  1  0
 38 45  1  0
 44 46  1  0
 45 46  1  0
 43 47  1  0
 46 48  1  1
 47 49  1  0
 48 50  2  0
 48 51  1  0
 51 52  1  0
 52 53  2  0
 52 54  1  0
 53 55  1  0
 54 56  2  0
 55 57  2  0
 56 57  1  0
 57 58  1  0
 58 59  1  0
M  END
