x1418-x2776
     RDKit          3D

 41 43  0  0  0  0  0  0  0  0999 V2000
    7.6390    2.0760   22.7920 N   0  0  0  0  0  0  0  0  0  0  0  0
    7.7550    1.2090   21.7340 C   0  0  0  0  0  0  0  0  0  0  0  0
    8.9380    1.4090   20.9740 O   0  0  0  0  0  0  0  0  0  0  0  0
    8.1570    3.3720   22.3000 C   0  0  0  0  0  0  0  0  0  0  0  0
    6.6760    0.1680   21.3670 C   0  0  1  0  0  0  0  0  0  0  0  0
    7.7570    4.4410   23.1250 C   0  0  0  0  0  0  0  0  0  0  0  0
    6.0440    0.6980   20.0910 C   0  0  0  0  0  0  0  0  0  0  0  0
    8.5180    5.4420   23.7550 C   0  0  0  0  0  0  0  0  0  0  0  0
    7.2040   -1.2920   21.0970 C   0  0  0  0  0  0  0  0  0  0  0  0
    4.8730    1.4510   20.0460 C   0  0  0  0  0  0  0  0  0  0  0  0
    6.7890    0.3600   18.8400 C   0  0  0  0  0  0  0  0  0  0  0  0
    9.9060    5.6110   23.6970 C   0  0  1  0  0  0  0  0  0  0  0  0
    6.2560   -2.4310   20.9750 N   0  0  0  0  0  0  0  0  0  0  0  0
   10.5470    6.0130   24.8400 O   0  0  0  0  0  0  0  0  0  0  0  0
    6.2320   -3.2060   19.8150 C   0  0  0  0  0  0  0  0  0  0  0  0
    6.3440    0.7900   17.6270 N   0  0  0  0  0  0  0  0  0  0  0  0
    4.4210    1.8900   18.8260 C   0  0  0  0  0  0  0  0  0  0  0  0
   10.6810    4.3290   23.3980 C   0  0  0  0  0  0  0  0  0  0  0  0
    6.3180   -3.3450   22.0890 C   0  0  0  0  0  0  0  0  0  0  0  0
   11.8860    6.4620   24.6650 C   0  0  0  0  0  0  0  0  0  0  0  0
    7.3040   -2.9870   18.7460 C   0  0  0  0  0  0  0  0  0  0  0  0
    5.3720   -4.0810   19.6890 O   0  0  0  0  0  0  0  0  0  0  0  0
    5.1170    1.5890   17.6510 C   0  0  0  0  0  0  0  0  0  0  0  0
   10.2530    2.9700   23.9560 C   0  0  0  0  0  0  0  0  0  0  0  0
    7.6110   -3.8900   22.6610 C   0  0  0  0  0  0  0  0  0  0  0  0
   11.0670    1.8700   23.5580 C   0  0  0  0  0  0  0  0  0  0  0  0
    8.8970   -3.6360   22.2860 N   0  0  0  0  0  0  0  0  0  0  0  0
    9.3510   -2.4380   21.8750 C   0  0  0  0  0  0  0  0  0  0  0  0
   11.0150    0.1590   23.6920 S   0  0  0  0  0  0  0  0  0  0  0  0
   12.4830    0.4030   22.7940 C   0  0  0  0  0  0  0  0  0  0  0  0
    9.0550   -1.0390   22.5630 C   0  0  0  0  0  0  0  0  0  0  0  0
   11.7450   -1.4250   23.2970 C   0  0  1  0  0  0  0  0  0  0  0  0
   13.2400   -1.5790   23.3490 C   0  0  1  0  0  0  0  0  0  0  0  0
   11.3040   -2.6890   24.0150 C   0  0  0  0  0  0  0  0  0  0  0  0
    8.2810   -0.9670   23.7460 C   0  0  1  0  0  0  0  0  0  0  0  0
   13.4460   -0.5560   22.3070 C   0  0  0  0  0  0  0  0  0  0  0  0
   13.5400   -1.3750   24.7060 O   0  0  0  0  0  0  0  0  0  0  0  0
    8.7270   -2.3040   24.2480 C   0  0  0  0  0  0  0  0  0  0  0  0
    9.9840   -2.6940   24.2180 C   0  0  0  0  0  0  0  0  0  0  0  0
    8.5640   -0.0990   24.7890 C   0  0  0  0  0  0  0  0  0  0  0  0
   13.8920   -2.5690   25.3950 C   0  0  0  0  0  0  0  0  0  0  0  0
  1  2  1  0
  2  3  2  0
  1  4  1  0
  2  5  1  0
  4  6  1  0
  5  7  1  6
  6  8  2  0
  5  9  1  0
  7 10  2  0
  7 11  1  0
  8 12  1  0
  9 13  1  0
 12 14  1  1
 13 15  1  0
 11 16  2  0
 10 17  1  0
 12 18  1  0
 13 19  1  0
 14 20  1  0
 15 21  1  0
 15 22  2  0
 16 23  1  0
 17 23  2  0
 18 24  2  0
 19 25  2  0
 24 26  1  0
 25 27  1  0
 27 28  1  0
 26 29  2  0
 29 30  2  0
 28 31  2  0
 29 32  1  0
 32 33  1  0
 32 34  1  1
 31 35  1  0
 30 36  1  0
 33 36  1  0
 33 37  1  1
 35 38  1  0
 34 39  1  0
 38 39  2  0
 35 40  1  1
 37 41  1  0
M  END
