x1412-x1093
     RDKit          3D

 35 40  0  0  0  0  0  0  0  0999 V2000
    7.4990   -3.0180   18.7940 C   0  0  0  0  0  0  0  0  0  0  0  0
    6.5350   -3.3010   19.9170 C   0  0  0  0  0  0  0  0  0  0  0  0
    5.4920   -3.9410   19.6740 O   0  0  0  0  0  0  0  0  0  0  0  0
    6.9010   -2.9270   21.2370 N   0  0  0  0  0  0  0  0  0  0  0  0
    7.5300   -1.7150   21.7740 C   0  0  2  0  0  0  0  0  0  0  0  0
    6.8350   -3.9280   22.1920 C   0  0  0  0  0  0  0  0  0  0  0  0
    8.1320   -0.7980   20.9120 C   0  0  2  0  0  0  0  0  0  0  0  0
    8.2670   -1.8630   22.9880 C   0  0  1  0  0  0  0  0  0  0  0  0
    7.9560   -4.1310   22.9490 C   0  0  0  0  0  0  0  0  0  0  0  0
    8.7190    0.2960   21.5610 C   0  0  0  0  0  0  0  0  0  0  0  0
    8.4110   -3.0450   23.6050 N   0  0  0  0  0  0  0  0  0  0  0  0
    9.6490   -1.1020   23.0690 C   0  0  2  0  0  0  0  0  0  0  0  0
    7.1400   -0.1770   19.9300 C   0  0  0  0  0  0  0  0  0  0  0  0
    8.3070   -2.9660   25.0670 C   0  0  0  0  0  0  0  0  0  0  0  0
    8.6570    1.4460   21.0880 O   0  0  0  0  0  0  0  0  0  0  0  0
    9.3920    0.1370   22.7040 N   0  0  0  0  0  0  0  0  0  0  0  0
   10.7800   -1.6050   22.5000 C   0  0  0  0  0  0  0  0  0  0  0  0
    7.2310   -0.2070   18.5890 C   0  0  0  0  0  0  0  0  0  0  0  0
    5.9940    0.5220   20.2020 C   0  0  0  0  0  0  0  0  0  0  0  0
    7.9670   -1.6690   25.5280 O   0  0  0  0  0  0  0  0  0  0  0  0
    8.5180   -4.0720   25.9040 C   0  0  0  0  0  0  0  0  0  0  0  0
   11.9370   -1.0120   22.9140 N   0  0  0  0  0  0  0  0  0  0  0  0
   10.5040    0.8840   22.8580 C   0  0  0  0  0  0  0  0  0  0  0  0
    6.2490    0.4130   17.9290 N   0  0  0  0  0  0  0  0  0  0  0  0
    5.4800    0.8670   18.9410 C   0  0  0  0  0  0  0  0  0  0  0  0
    5.3070    0.9190   21.3690 C   0  0  0  0  0  0  0  0  0  0  0  0
   13.1550   -1.4380   22.2120 C   0  0  0  0  0  0  0  0  0  0  0  0
    9.3340   -5.1030   25.5100 C   0  0  0  0  0  0  0  0  0  0  0  0
    7.7490   -4.1920   27.5110 S   0  0  0  0  0  0  0  0  0  0  0  0
   11.8240    0.3450   23.0470 C   0  0  0  0  0  0  0  0  0  0  0  0
    4.3870    1.5500   18.6780 N   0  0  0  0  0  0  0  0  0  0  0  0
    4.0320    1.7130   21.0860 C   0  0  0  0  0  0  0  0  0  0  0  0
    8.5410   -5.7050   27.7120 C   0  0  0  0  0  0  0  0  0  0  0  0
    9.3940   -6.0690   26.4920 C   0  0  0  0  0  0  0  0  0  0  0  0
    3.6950    1.9500   19.8060 C   0  0  0  0  0  0  0  0  0  0  0  0
  1  2  1  0
  2  3  2  0
  2  4  1  0
  5  4  1  6
  4  6  1  0
  5  7  1  0
  5  8  1  0
  6  9  1  0
  7 10  1  0
  8 11  1  6
  9 11  1  0
  8 12  1  0
  7 13  1  6
 11 14  1  0
 10 15  2  0
 10 16  1  0
 12 16  1  0
 12 17  1  6
 13 18  2  0
 13 19  1  0
 14 20  2  0
 14 21  1  0
 17 22  1  0
 16 23  1  0
 18 24  1  0
 19 25  2  0
 24 25  1  0
 19 26  1  0
 22 27  1  0
 21 28  2  0
 21 29  1  0
 22 30  1  0
 23 30  1  0
 25 31  1  0
 26 32  2  0
 29 33  1  0
 28 34  1  0
 33 34  2  0
 31 35  2  0
 32 35  1  0
M  END
