x1412-x2694
     RDKit          3D

 43 48  0  0  0  0  0  0  0  0999 V2000
    7.7500    2.0850   22.7780 N   0  0  0  0  0  0  0  0  0  0  0  0
    8.0440    1.1570   21.7830 C   0  0  0  0  0  0  0  0  0  0  0  0
    9.0240    1.1580   21.0690 O   0  0  0  0  0  0  0  0  0  0  0  0
    8.4630    3.3900   23.0050 C   0  0  0  0  0  0  0  0  0  0  0  0
    6.9860    0.0400   21.4690 C   0  0  1  0  0  0  0  0  0  0  0  0
    9.7230    3.3300   23.6550 C   0  0  0  0  0  0  0  0  0  0  0  0
    7.9500    4.5700   22.6180 C   0  0  0  0  0  0  0  0  0  0  0  0
   10.2670    2.0000   24.0690 C   0  0  0  0  0  0  0  0  0  0  0  0
    6.3450    0.4670   20.1700 C   0  0  0  0  0  0  0  0  0  0  0  0
   10.5470    4.4240   23.9660 C   0  0  0  0  0  0  0  0  0  0  0  0
    8.8280    5.7550   22.9530 C   0  0  0  0  0  0  0  0  0  0  0  0
    7.3010   -1.5320   21.7770 C   0  0  2  0  0  0  0  0  0  0  0  0
    5.1860    1.2160   20.2510 C   0  0  0  0  0  0  0  0  0  0  0  0
    6.9510    0.1100   18.8400 C   0  0  0  0  0  0  0  0  0  0  0  0
    8.6210   -1.9720   22.6130 C   0  0  2  0  0  0  0  0  0  0  0  0
   10.1630    5.6780   23.6500 C   0  0  0  0  0  0  0  0  0  0  0  0
    6.5510   -2.6220   21.2560 N   0  0  0  0  0  0  0  0  0  0  0  0
   11.0150    6.7190   23.9940 O   0  0  0  0  0  0  0  0  0  0  0  0
    6.4180   -3.1230   19.9460 C   0  0  0  0  0  0  0  0  0  0  0  0
    6.3680    0.5360   17.7080 N   0  0  0  0  0  0  0  0  0  0  0  0
    4.5980    1.6430   19.0580 C   0  0  0  0  0  0  0  0  0  0  0  0
    8.6920   -1.1760   23.7490 N   0  0  0  0  0  0  0  0  0  0  0  0
    9.9060   -2.0300   22.1180 C   0  0  0  0  0  0  0  0  0  0  0  0
    8.3300   -3.3300   23.1680 N   0  0  0  0  0  0  0  0  0  0  0  0
    6.3450   -3.5610   22.2060 C   0  0  0  0  0  0  0  0  0  0  0  0
   11.8870    6.5260   25.1250 C   0  0  0  0  0  0  0  0  0  0  0  0
    7.4860   -2.9020   18.8880 C   0  0  0  0  0  0  0  0  0  0  0  0
    5.4400   -3.8340   19.6140 O   0  0  0  0  0  0  0  0  0  0  0  0
    8.6190   -1.9420   24.8700 N   0  0  0  0  0  0  0  0  0  0  0  0
    8.4800   -3.1940   24.5130 C   0  0  0  0  0  0  0  0  0  0  0  0
    5.1720    1.3180   17.8500 C   0  0  0  0  0  0  0  0  0  0  0  0
   10.1200   -0.7540   23.9290 O   0  0  0  0  0  0  0  0  0  0  0  0
   10.8920   -1.3370   22.9790 C   0  0  0  0  0  0  0  0  0  0  0  0
    7.4310   -4.2610   22.5720 C   0  0  0  0  0  0  0  0  0  0  0  0
   12.3760   -1.1520   23.0370 C   0  0  0  0  0  0  0  0  0  0  0  0
    8.5690   -4.1860   25.5950 C   0  0  0  0  0  0  0  0  0  0  0  0
   12.7710    0.3180   23.2310 C   0  0  0  0  0  0  0  0  0  0  0  0
   13.0040   -1.7000   21.7530 C   0  0  0  0  0  0  0  0  0  0  0  0
   12.9100   -1.9700   24.2390 C   0  0  0  0  0  0  0  0  0  0  0  0
    9.4090   -5.2290   25.5930 C   0  0  0  0  0  0  0  0  0  0  0  0
    7.6010   -4.1130   27.0180 S   0  0  0  0  0  0  0  0  0  0  0  0
    8.4170   -5.5670   27.5790 C   0  0  0  0  0  0  0  0  0  0  0  0
    9.3340   -6.0470   26.7380 C   0  0  0  0  0  0  0  0  0  0  0  0
  1  2  1  0
  2  3  2  0
  1  4  1  0
  5  2  1  6
  4  6  2  0
  4  7  1  0
  6  8  1  0
  5  9  1  0
  6 10  1  0
  7 11  2  0
  5 12  1  0
  9 13  2  0
  9 14  1  0
 12 15  1  0
 10 16  2  0
 11 16  1  0
 12 17  1  6
 16 18  1  0
 17 19  1  0
 14 20  2  0
 13 21  1  0
 15 22  1  0
 15 23  1  6
 15 24  1  0
 17 25  1  0
 18 26  1  0
 19 27  1  0
 19 28  2  0
 22 29  1  0
 24 30  1  0
 29 30  2  0
 20 31  1  0
 21 31  2  0
 22 32  1  0
 23 33  2  0
 32 33  1  0
 24 34  1  0
 25 34  1  0
 33 35  1  0
 30 36  1  0
 35 37  1  0
 35 38  1  0
 35 39  1  0
 36 40  2  0
 36 41  1  0
 41 42  1  0
 40 43  1  0
 42 43  2  0
M  END
