x1418-x2694-x0978
     RDKit          3D

 52 57  0  0  0  0  0  0  0  0999 V2000
    7.4890    2.7240   22.0680 N   0  0  0  0  0  0  0  0  0  0  0  0
    7.9950    1.5210   21.5530 C   0  0  0  0  0  0  0  0  0  0  0  0
    9.1050    1.4170   21.0840 O   0  0  0  0  0  0  0  0  0  0  0  0
    8.2610    3.8470   22.6850 C   0  0  0  0  0  0  0  0  0  0  0  0
    7.1570    0.2130   21.4660 C   0  0  1  0  0  0  0  0  0  0  0  0
    9.1100    3.4750   23.6780 C   0  0  0  0  0  0  0  0  0  0  0  0
    8.2150    5.1770   22.3590 C   0  0  0  0  0  0  0  0  0  0  0  0
    8.9680    2.0120   23.8380 C   0  0  0  0  0  0  0  0  0  0  0  0
    6.4710    0.5680   20.1830 C   0  0  0  0  0  0  0  0  0  0  0  0
    9.9720    4.3980   24.4030 C   0  0  0  0  0  0  0  0  0  0  0  0
    8.9900    6.0800   22.9970 C   0  0  0  0  0  0  0  0  0  0  0  0
    7.8790   -1.2630   21.4230 C   0  0  1  0  0  0  0  0  0  0  0  0
    5.3390    1.3700   20.1970 C   0  0  0  0  0  0  0  0  0  0  0  0
    6.9390    0.1400   18.8810 C   0  0  0  0  0  0  0  0  0  0  0  0
    8.8050   -1.7210   22.7590 C   0  0  2  0  0  0  0  0  0  0  0  0
    9.8990    5.7630   24.0340 C   0  0  0  0  0  0  0  0  0  0  0  0
    6.8970   -2.5020   21.0800 N   0  0  0  0  0  0  0  0  0  0  0  0
   10.0930    0.7670   23.3490 S   0  0  0  0  0  0  0  0  0  0  0  0
   10.6870    6.6670   24.6920 O   0  0  0  0  0  0  0  0  0  0  0  0
    6.6120   -3.0310   19.7530 C   0  0  0  0  0  0  0  0  0  0  0  0
    6.3140    0.5190   17.7190 N   0  0  0  0  0  0  0  0  0  0  0  0
    4.6640    1.7830   19.0920 C   0  0  0  0  0  0  0  0  0  0  0  0
    7.9360   -1.9580   23.8230 N   0  0  0  0  0  0  0  0  0  0  0  0
    9.9500   -1.0200   23.4020 C   0  0  1  0  0  0  0  0  0  0  0  0
    6.8810   -3.6440   22.0680 C   0  0  1  0  0  0  0  0  0  0  0  0
    9.2220   -3.0770   22.4290 N   0  0  0  0  0  0  0  0  0  0  0  0
   11.6600    1.1630   22.7500 C   0  0  0  0  0  0  0  0  0  0  0  0
   11.9660    6.2740   25.1520 C   0  0  0  0  0  0  0  0  0  0  0  0
    6.0600   -4.9100   21.6150 C   0  0  0  0  0  0  0  0  0  0  0  0
    7.6290   -2.9260   18.6380 C   0  0  0  0  0  0  0  0  0  0  0  0
    5.5520   -3.6250   19.4700 O   0  0  0  0  0  0  0  0  0  0  0  0
    8.0100   -3.0910   24.5250 C   0  0  0  0  0  0  0  0  0  0  0  0
    5.1550    1.3620   17.7450 C   0  0  0  0  0  0  0  0  0  0  0  0
    9.7290   -1.0650   24.6060 O   0  0  0  0  0  0  0  0  0  0  0  0
    8.1760   -4.1370   22.2850 C   0  0  0  0  0  0  0  0  0  0  0  0
   11.5400   -1.2410   23.2910 C   0  0  2  0  0  0  0  0  0  0  0  0
   12.3330   -0.0390   22.7730 C   0  0  0  0  0  0  0  0  0  0  0  0
    8.3470   -0.9710   24.7330 C   0  0  0  0  0  0  0  0  0  0  0  0
   12.2160   -2.4760   22.7770 C   0  0  0  0  0  0  0  0  0  0  0  0
    5.4650   -5.7070   22.6800 N   0  0  0  0  0  0  0  0  0  0  0  0
    4.2840   -5.2810   23.2310 C   0  0  0  0  0  0  0  0  0  0  0  0
   13.5080   -2.6220   23.5660 C   0  0  0  0  0  0  0  0  0  0  0  0
    3.1660   -6.3440   23.3650 C   0  0  2  0  0  0  0  0  0  0  0  0
    4.1200   -4.1300   23.5890 O   0  0  0  0  0  0  0  0  0  0  0  0
   13.2060   -2.8710   24.9090 C   0  0  0  0  0  0  0  0  0  0  0  0
    1.8690   -5.6300   23.3150 N   0  0  0  0  0  0  0  0  0  0  0  0
    3.1100   -7.2510   24.6110 C   0  0  1  0  0  0  0  0  0  0  0  0
    2.0510   -8.3660   24.6540 C   0  0  0  0  0  0  0  0  0  0  0  0
    4.3840   -7.8570   24.7490 O   0  0  0  0  0  0  0  0  0  0  0  0
    0.8170   -6.1910   22.6150 C   0  0  0  0  0  0  0  0  0  0  0  0
    0.8950   -7.3550   21.9200 O   0  0  0  0  0  0  0  0  0  0  0  0
   -0.3700   -5.4510   22.6700 C   0  0  0  0  0  0  0  0  0  0  0  0
  1  2  1  0
  2  3  2  0
  1  4  1  0
  2  5  1  0
  4  6  2  0
  4  7  1  0
  6  8  1  0
  5  9  1  6
  6 10  1  0
  7 11  2  0
  5 12  1  0
  9 13  2  0
  9 14  1  0
 12 15  1  0
 10 16  2  0
 11 16  1  0
 12 17  1  1
  8 18  2  0
 16 19  1  0
 17 20  1  0
 14 21  2  0
 13 22  1  0
 15 23  1  0
 15 24  1  0
 18 24  1  0
 17 25  1  0
 15 26  1  6
 18 27  1  0
 19 28  1  0
 25 29  1  6
 20 30  1  0
 20 31  2  0
 23 32  1  0
 21 33  1  0
 22 33  2  0
 24 34  1  1
 25 35  1  0
 26 35  1  0
 24 36  1  0
 27 37  2  0
 36 37  1  0
 23 38  1  0
 34 38  1  0
 36 39  1  6
 29 40  1  0
 40 41  1  0
 39 42  1  0
 41 43  1  0
 41 44  2  0
 42 45  1  0
 43 46  1  1
 43 47  1  0
 47 48  1  6
 47 49  1  0
 46 50  1  0
 50 51  2  0
 50 52  1  0
M  END
