x1412-x2600
     RDKit          3D

 35 40  0  0  0  0  0  0  0  0999 V2000
    7.4290   -3.0480   18.8530 C   0  0  0  0  0  0  0  0  0  0  0  0
    6.4250   -3.2740   19.9540 C   0  0  0  0  0  0  0  0  0  0  0  0
    5.4460   -4.0160   19.7230 O   0  0  0  0  0  0  0  0  0  0  0  0
    6.6500   -2.6840   21.2270 N   0  0  0  0  0  0  0  0  0  0  0  0
    7.9300   -1.9050   21.4610 C   0  0  1  0  0  0  0  0  0  0  0  0
    6.0560   -3.3130   22.2490 C   0  0  0  0  0  0  0  0  0  0  0  0
    7.9520   -0.4280   21.7720 C   0  0  2  0  0  0  0  0  0  0  0  0
    8.5170   -2.6000   22.5570 C   0  0  1  0  0  0  0  0  0  0  0  0
    6.8940   -4.1550   22.9270 C   0  0  0  0  0  0  0  0  0  0  0  0
    8.4820    0.1210   20.8390 O   0  0  0  0  0  0  0  0  0  0  0  0
    8.7660   -0.2340   23.0930 C   0  0  1  0  0  0  0  0  0  0  0  0
    6.6780    0.0620   21.5620 N   0  0  0  0  0  0  0  0  0  0  0  0
    8.9300   -1.5780   23.5860 C   0  0  1  0  0  0  0  0  0  0  0  0
    7.9470   -3.5290   23.4240 N   0  0  0  0  0  0  0  0  0  0  0  0
    8.7050   -1.9880   24.9590 N   0  0  0  0  0  0  0  0  0  0  0  0
    8.2210   -3.2400   24.7540 C   0  0  0  0  0  0  0  0  0  0  0  0
    6.2680    0.4230   20.3130 C   0  0  0  0  0  0  0  0  0  0  0  0
   10.2430    0.0590   23.0650 C   0  0  0  0  0  0  0  0  0  0  0  0
    8.1650   -4.0640   26.0020 C   0  0  0  0  0  0  0  0  0  0  0  0
    6.8480    0.1410   19.0670 C   0  0  0  0  0  0  0  0  0  0  0  0
    5.1260    1.1680   20.3010 C   0  0  0  0  0  0  0  0  0  0  0  0
   10.9520    1.0860   23.6200 C   0  0  0  0  0  0  0  0  0  0  0  0
   11.0240   -0.9650   22.3270 C   0  0  0  0  0  0  0  0  0  0  0  0
    8.5380   -5.3960   26.0010 C   0  0  0  0  0  0  0  0  0  0  0  0
    7.6560   -3.4250   27.5690 S   0  0  0  0  0  0  0  0  0  0  0  0
    6.3540    0.5700   17.8670 N   0  0  0  0  0  0  0  0  0  0  0  0
    4.5770    1.6280   19.0990 C   0  0  0  0  0  0  0  0  0  0  0  0
   12.3420    1.1150   23.4680 C   0  0  0  0  0  0  0  0  0  0  0  0
   12.4890   -0.8960   22.2050 C   0  0  0  0  0  0  0  0  0  0  0  0
   13.0960   -1.9430   21.4800 C   0  0  0  0  0  0  0  0  0  0  0  0
    7.9810   -4.9900   28.1910 C   0  0  0  0  0  0  0  0  0  0  0  0
    8.4270   -5.8510   27.2150 C   0  0  0  0  0  0  0  0  0  0  0  0
    5.2280    1.3040   17.9340 C   0  0  0  0  0  0  0  0  0  0  0  0
   13.0760    0.1480   22.7840 C   0  0  0  0  0  0  0  0  0  0  0  0
   13.5550   -3.1140   20.7110 N   0  0  0  0  0  0  0  0  0  0  0  0
  1  2  1  0
  2  3  2  0
  2  4  1  0
  5  4  1  1
  4  6  1  0
  5  7  1  0
  5  8  1  0
  6  9  1  0
  7 10  1  6
  7 11  1  0
  7 12  1  0
  8 13  1  0
 11 13  1  0
  8 14  1  1
  9 14  1  0
 13 15  1  1
 14 16  1  0
 15 16  2  0
 12 17  1  0
 11 18  1  6
 16 19  1  0
 17 20  2  0
 17 21  1  0
 18 22  2  0
 18 23  1  0
 19 24  2  0
 19 25  1  0
 20 26  1  0
 21 27  2  0
 22 28  1  0
 23 29  2  0
 29 30  1  0
 25 31  1  0
 24 32  1  0
 31 32  2  0
 26 33  2  0
 27 33  1  0
 28 34  2  0
 29 34  1  0
 30 35  3  0
M  END
