x1412-x3115
     RDKit          3D

 39 43  0  0  0  0  0  0  0  0999 V2000
    7.4260    1.7680   22.8800 N   0  0  0  0  0  0  0  0  0  0  0  0
    7.8370    0.8650   21.9050 C   0  0  0  0  0  0  0  0  0  0  0  0
    8.8970    0.8590   21.2880 O   0  0  0  0  0  0  0  0  0  0  0  0
    8.2330    2.8350   23.2290 C   0  0  0  0  0  0  0  0  0  0  0  0
    6.8000   -0.2170   21.4970 C   0  0  1  0  0  0  0  0  0  0  0  0
    7.8480    4.1770   22.5160 C   0  0  0  0  0  0  0  0  0  0  0  0
    8.4220    5.1700   22.9940 O   0  0  0  0  0  0  0  0  0  0  0  0
    6.2630    0.2230   20.1620 C   0  0  0  0  0  0  0  0  0  0  0  0
    7.1270   -1.6730   21.9440 C   0  0  2  0  0  0  0  0  0  0  0  0
    8.2520    6.3550   22.2130 C   0  0  0  0  0  0  0  0  0  0  0  0
    5.0550    0.9340   20.1770 C   0  0  0  0  0  0  0  0  0  0  0  0
    6.8840    0.0090   18.9380 C   0  0  0  0  0  0  0  0  0  0  0  0
    8.4630   -1.8840   22.7480 C   0  0  1  0  0  0  0  0  0  0  0  0
    6.7180   -2.9520   21.2390 N   0  0  0  0  0  0  0  0  0  0  0  0
    6.4470   -3.2770   19.9100 C   0  0  0  0  0  0  0  0  0  0  0  0
    6.3590    0.4970   17.6760 N   0  0  0  0  0  0  0  0  0  0  0  0
    4.4990    1.4260   19.0160 C   0  0  0  0  0  0  0  0  0  0  0  0
    9.5150   -2.1930   21.8730 C   0  0  0  0  0  0  0  0  0  0  0  0
    8.7930   -0.9180   23.7210 C   0  0  1  0  0  0  0  0  0  0  0  0
    8.4860   -3.1440   23.5250 N   0  0  0  0  0  0  0  0  0  0  0  0
    6.6850   -4.0640   22.1610 C   0  0  0  0  0  0  0  0  0  0  0  0
    7.5020   -2.9610   18.8530 C   0  0  0  0  0  0  0  0  0  0  0  0
    5.4090   -3.8800   19.6050 O   0  0  0  0  0  0  0  0  0  0  0  0
    8.8200   -1.5550   25.0600 N   0  0  0  0  0  0  0  0  0  0  0  0
    8.1090   -2.8150   24.8600 C   0  0  2  0  0  0  0  0  0  0  0  0
    5.1030    1.2380   17.8050 C   0  0  0  0  0  0  0  0  0  0  0  0
   10.9050   -1.8550   22.0370 C   0  0  0  0  0  0  0  0  0  0  0  0
   10.0450   -0.2930   23.5910 C   0  0  0  0  0  0  0  0  0  0  0  0
    7.9670   -4.3430   22.9670 C   0  0  0  0  0  0  0  0  0  0  0  0
   11.2430   -1.1580   23.1150 C   0  0  1  0  0  0  0  0  0  0  0  0
    8.4620   -3.9090   25.8160 C   0  0  0  0  0  0  0  0  0  0  0  0
   12.1720   -1.7570   24.1290 C   0  0  0  0  0  0  0  0  0  0  0  0
    9.3280   -4.9650   25.5510 C   0  0  0  0  0  0  0  0  0  0  0  0
    7.8270   -4.0390   27.4130 S   0  0  0  0  0  0  0  0  0  0  0  0
   13.4480   -2.1890   23.4160 C   0  0  0  0  0  0  0  0  0  0  0  0
   11.6310   -2.9510   24.8550 C   0  0  0  0  0  0  0  0  0  0  0  0
   12.5080   -0.6940   25.1500 C   0  0  0  0  0  0  0  0  0  0  0  0
    8.6990   -5.4770   27.6960 C   0  0  0  0  0  0  0  0  0  0  0  0
    9.4700   -5.8750   26.6180 C   0  0  0  0  0  0  0  0  0  0  0  0
  1  2  1  0
  2  3  2  0
  1  4  1  0
  5  2  1  6
  4  6  1  0
  6  7  1  0
  5  8  1  0
  5  9  1  0
  7 10  1  0
  8 11  2  0
  8 12  1  0
  9 13  1  0
  9 14  1  6
 14 15  1  0
 12 16  2  0
 11 17  1  0
 13 18  1  6
 13 19  1  0
 13 20  1  0
 14 21  1  0
 15 22  1  0
 15 23  2  0
 19 24  1  0
 20 25  1  0
 24 25  1  0
 16 26  1  0
 17 26  2  0
 18 27  2  0
 19 28  1  6
 20 29  1  0
 21 29  1  0
 27 30  1  0
 28 30  1  0
 25 31  1  1
 30 32  1  1
 31 33  2  0
 31 34  1  0
 32 35  1  0
 32 36  1  0
 32 37  1  0
 34 38  1  0
 33 39  1  0
 38 39  2  0
M  END
