x1412-x2563
     RDKit          3D

 36 40  0  0  0  0  0  0  0  0999 V2000
    7.4970   -3.1760   18.8290 C   0  0  0  0  0  0  0  0  0  0  0  0
    6.5960   -3.5570   20.0110 C   0  0  0  0  0  0  0  0  0  0  0  0
    5.5700   -4.2230   19.7950 O   0  0  0  0  0  0  0  0  0  0  0  0
    6.9450   -3.1910   21.3210 N   0  0  0  0  0  0  0  0  0  0  0  0
    8.1590   -2.3160   21.5610 C   0  0  1  0  0  0  0  0  0  0  0  0
    6.3210   -3.7920   22.3530 C   0  0  0  0  0  0  0  0  0  0  0  0
    7.9940   -0.8110   21.4040 C   0  0  2  0  0  0  0  0  0  0  0  0
    8.8730   -2.6530   22.8600 C   0  0  0  0  0  0  0  0  0  0  0  0
    7.2600   -4.0620   23.3600 C   0  0  0  0  0  0  0  0  0  0  0  0
    7.3520   -0.3140   22.3060 O   0  0  0  0  0  0  0  0  0  0  0  0
    7.2660   -0.8300   20.0780 C   0  0  0  0  0  0  0  0  0  0  0  0
    9.2950   -0.4980   21.3170 N   0  0  0  0  0  0  0  0  0  0  0  0
    7.9770   -3.0130   23.7240 N   0  0  0  0  0  0  0  0  0  0  0  0
    8.2360   -2.7450   25.1100 C   0  0  0  0  0  0  0  0  0  0  0  0
    6.3430    0.1720   19.5560 C   0  0  0  0  0  0  0  0  0  0  0  0
   10.1130   -0.0920   22.3580 C   0  0  0  0  0  0  0  0  0  0  0  0
    8.2410   -1.4650   25.7290 O   0  0  0  0  0  0  0  0  0  0  0  0
    8.5070   -3.9300   25.8580 C   0  0  0  0  0  0  0  0  0  0  0  0
    5.2650    0.8200   20.1540 C   0  0  0  0  0  0  0  0  0  0  0  0
    6.6620    0.3980   18.3110 C   0  0  0  0  0  0  0  0  0  0  0  0
   11.4300   -0.5250   22.3020 C   0  0  0  0  0  0  0  0  0  0  0  0
    9.6640    0.6980   23.3950 C   0  0  0  0  0  0  0  0  0  0  0  0
    9.3200   -4.9880   25.4770 C   0  0  0  0  0  0  0  0  0  0  0  0
    7.7990   -4.1640   27.4110 S   0  0  0  0  0  0  0  0  0  0  0  0
    6.0920    1.1900   17.4160 N   0  0  0  0  0  0  0  0  0  0  0  0
    4.5650    1.7050   19.3000 C   0  0  0  0  0  0  0  0  0  0  0  0
    4.8900    0.6210   21.4750 C   0  0  0  0  0  0  0  0  0  0  0  0
   12.3260   -0.1630   23.2500 C   0  0  0  0  0  0  0  0  0  0  0  0
   10.4920    1.0930   24.3890 C   0  0  0  0  0  0  0  0  0  0  0  0
    8.5520   -5.6660   27.6210 C   0  0  0  0  0  0  0  0  0  0  0  0
    9.3510   -6.0520   26.5550 C   0  0  0  0  0  0  0  0  0  0  0  0
    4.9410    1.9010   17.9760 C   0  0  0  0  0  0  0  0  0  0  0  0
    3.4620    2.3790   19.8550 C   0  0  0  0  0  0  0  0  0  0  0  0
    3.8040    1.3230   21.9480 C   0  0  0  0  0  0  0  0  0  0  0  0
   11.9120    0.6200   24.2780 C   0  0  0  0  0  0  0  0  0  0  0  0
    3.0740    2.2010   21.1670 C   0  0  0  0  0  0  0  0  0  0  0  0
  1  2  1  0
  2  3  2  0
  2  4  1  0
  4  5  1  0
  4  6  1  0
  5  7  1  0
  5  8  1  1
  6  9  1  0
  7 10  1  1
  7 11  1  0
  7 12  1  0
  8 13  1  0
  9 13  1  0
 13 14  1  0
 11 15  1  0
 12 16  1  0
 14 17  2  0
 14 18  1  0
 15 19  1  0
 15 20  2  0
 16 21  2  0
 16 22  1  0
 18 23  2  0
 18 24  1  0
 20 25  1  0
 19 26  2  0
 19 27  1  0
 21 28  1  0
 22 29  2  0
 24 30  1  0
 23 31  1  0
 30 31  2  0
 25 32  2  0
 26 32  1  0
 26 33  1  0
 27 34  2  0
 28 35  2  0
 29 35  1  0
 33 36  2  0
 34 36  1  0
M  END
