x1412-x0967
     RDKit          3D

 36 38  0  0  0  0  0  0  0  0999 V2000
    7.8480    4.6660   22.4610 C   0  0  0  0  0  0  0  0  0  0  0  0
    7.3490    3.3460   22.9830 C   0  0  0  0  0  0  0  0  0  0  0  0
    8.1160    2.2630   22.6040 N   0  0  0  0  0  0  0  0  0  0  0  0
    6.3500    3.2700   23.6870 O   0  0  0  0  0  0  0  0  0  0  0  0
    7.7670    0.9430   22.9350 C   0  0  1  0  0  0  0  0  0  0  0  0
    6.3210    0.7200   22.5030 C   0  0  0  0  0  0  0  0  0  0  0  0
    8.8050    0.0790   22.1820 C   0  0  0  0  0  0  0  0  0  0  0  0
    8.6760   -1.3290   21.9570 N   0  0  0  0  0  0  0  0  0  0  0  0
    9.7760    0.7250   21.7870 O   0  0  0  0  0  0  0  0  0  0  0  0
    6.1200    0.8000   21.0200 C   0  0  0  0  0  0  0  0  0  0  0  0
    9.8350   -2.2450   21.8680 C   0  0  0  0  0  0  0  0  0  0  0  0
    7.0100    0.1640   20.1920 C   0  0  0  0  0  0  0  0  0  0  0  0
    5.0230    1.5210   20.5250 C   0  0  0  0  0  0  0  0  0  0  0  0
    7.3130   -1.9730   21.9220 C   0  0  1  0  0  0  0  0  0  0  0  0
   11.1380   -1.4490   21.9370 C   0  0  0  0  0  0  0  0  0  0  0  0
    6.7830    0.2520   18.7390 C   0  0  0  0  0  0  0  0  0  0  0  0
    4.7890    1.6210   19.1440 C   0  0  0  0  0  0  0  0  0  0  0  0
    7.1790   -3.1710   21.2420 N   0  0  0  0  0  0  0  0  0  0  0  0
    7.0750   -2.0270   23.2760 C   0  0  0  0  0  0  0  0  0  0  0  0
   12.0900   -1.8270   22.8850 C   0  0  0  0  0  0  0  0  0  0  0  0
    6.6240   -3.3830   19.9400 C   0  0  0  0  0  0  0  0  0  0  0  0
    5.6990    0.9660   18.2860 C   0  0  0  0  0  0  0  0  0  0  0  0
    7.9060   -2.9200   23.8130 N   0  0  0  0  0  0  0  0  0  0  0  0
    6.9100   -4.2620   22.1670 C   0  0  0  0  0  0  0  0  0  0  0  0
    5.5610    1.0060   16.9850 O   0  0  0  0  0  0  0  0  0  0  0  0
   13.3170   -2.3390   24.2370 Br  0  0  0  0  0  0  0  0  0  0  0  0
    7.5580   -3.0260   18.8080 C   0  0  0  0  0  0  0  0  0  0  0  0
    5.5200   -3.9140   19.6930 O   0  0  0  0  0  0  0  0  0  0  0  0
    8.4450   -2.6870   25.0010 C   0  0  0  0  0  0  0  0  0  0  0  0
    7.7440   -4.1400   23.2630 C   0  0  0  0  0  0  0  0  0  0  0  0
    8.6830   -1.5370   25.3620 O   0  0  0  0  0  0  0  0  0  0  0  0
    8.7070   -3.9370   25.8400 C   0  0  0  0  0  0  0  0  0  0  0  0
    9.5800   -4.9760   25.5430 C   0  0  0  0  0  0  0  0  0  0  0  0
    7.8390   -4.1320   27.3020 S   0  0  0  0  0  0  0  0  0  0  0  0
    8.5880   -5.6140   27.6050 C   0  0  0  0  0  0  0  0  0  0  0  0
    9.4990   -6.0260   26.6460 C   0  0  0  0  0  0  0  0  0  0  0  0
  1  2  1  0
  2  3  1  0
  2  4  2  0
  3  5  1  0
  5  6  1  6
  5  7  1  0
  7  8  1  0
  7  9  2  0
  6 10  1  0
  8 11  1  0
 10 12  2  0
 10 13  1  0
 14  8  1  1
 11 15  1  0
 12 16  1  0
 13 17  2  0
 14 18  1  0
 14 19  1  0
 15 20  3  0
 18 21  1  0
 16 22  2  0
 17 22  1  0
 19 23  1  0
 18 24  1  0
 22 25  1  0
 20 26  1  0
 21 27  1  0
 21 28  2  0
 23 29  1  0
 23 30  1  0
 24 30  1  0
 29 31  2  0
 29 32  1  0
 32 33  2  0
 32 34  1  0
 34 35  1  0
 33 36  1  0
 35 36  2  0
M  END
