x1418-x2193
     RDKit          3D

 29 32  0  0  0  0  0  0  0  0999 V2000
    7.4350   -2.9840   18.7240 C   0  0  0  0  0  0  0  0  0  0  0  0
    6.2990   -3.2050   19.7180 C   0  0  0  0  0  0  0  0  0  0  0  0
    5.2990   -3.8740   19.4950 O   0  0  0  0  0  0  0  0  0  0  0  0
    6.4450   -2.6620   20.9440 N   0  0  0  0  0  0  0  0  0  0  0  0
    6.7480   -3.5830   22.0300 C   0  0  0  0  0  0  0  0  0  0  0  0
    6.9390   -1.2970   21.2090 C   0  0  0  0  0  0  0  0  0  0  0  0
    8.1870   -3.4450   22.5330 C   0  0  0  0  0  0  0  0  0  0  0  0
    7.4210   -1.1940   22.6950 C   0  0  0  0  0  0  0  0  0  0  0  0
    8.4790   -2.0230   23.0720 C   0  0  0  0  0  0  0  0  0  0  0  0
    8.6640   -2.0990   24.6050 C   0  0  2  0  0  0  0  0  0  0  0  0
    9.6270   -1.3350   22.3760 C   0  0  0  0  0  0  0  0  0  0  0  0
   10.0860    0.0270   22.9480 C   0  0  1  0  0  0  0  0  0  0  0  0
    9.4350   -0.9090   25.1090 C   0  0  0  0  0  0  0  0  0  0  0  0
    8.9810   -3.4660   25.1010 N   0  0  0  0  0  0  0  0  0  0  0  0
    9.3090    1.5900   22.5220 S   0  0  0  0  0  0  0  0  0  0  0  0
   10.2630   -0.1020   24.3210 C   0  0  1  0  0  0  0  0  0  0  0  0
    8.5520   -3.8820   26.4470 C   0  0  0  0  0  0  0  0  0  0  0  0
    9.9330   -4.3970   24.4500 C   0  0  0  0  0  0  0  0  0  0  0  0
   10.6290    2.8210   23.0130 C   0  0  0  0  0  0  0  0  0  0  0  0
    9.1720    1.6710   21.0870 O   0  0  0  0  0  0  0  0  0  0  0  0
    8.1510    1.8750   23.3380 O   0  0  0  0  0  0  0  0  0  0  0  0
   11.6550   -0.4600   24.6500 C   0  0  0  0  0  0  0  0  0  0  0  0
    8.0910   -5.1880   26.5460 C   0  0  0  0  0  0  0  0  0  0  0  0
    9.3330   -5.8210   24.5700 C   0  0  0  0  0  0  0  0  0  0  0  0
   11.9840   -1.7810   24.0200 C   0  0  0  0  0  0  0  0  0  0  0  0
   12.4530    0.4200   23.9000 C   0  0  0  0  0  0  0  0  0  0  0  0
    9.0630   -6.1300   25.9860 N   0  0  0  0  0  0  0  0  0  0  0  0
   12.9530   -1.6050   22.8880 C   0  0  0  0  0  0  0  0  0  0  0  0
   13.2160   -0.1870   22.8630 C   0  0  0  0  0  0  0  0  0  0  0  0
  1  2  1  0
  2  3  2  0
  2  4  1  0
  4  5  1  0
  4  6  1  0
  5  7  1  0
  6  8  1  0
  9  7  1  0
  8  9  1  0
  9 10  1  0
  9 11  1  0
 11 12  1  0
 10 13  1  0
 10 14  1  6
 12 15  1  1
 12 16  1  0
 13 16  1  0
 14 17  1  0
 14 18  1  0
 15 19  1  0
 15 20  2  0
 15 21  2  0
 16 22  1  6
 17 23  1  0
 18 24  1  0
 22 25  1  0
 22 26  1  0
 23 27  1  0
 24 27  1  0
 25 28  2  0
 26 29  2  0
 28 29  1  0
M  END
