x1412-x3124
     RDKit          3D

 36 40  0  0  0  0  0  0  0  0999 V2000
    7.8190    1.7400   23.0400 N   0  0  0  0  0  0  0  0  0  0  0  0
    7.8780    0.9170   21.8570 C   0  0  0  0  0  0  0  0  0  0  0  0
    8.7470    1.1530   21.0280 O   0  0  0  0  0  0  0  0  0  0  0  0
    8.1600    3.0790   22.9230 C   0  0  0  0  0  0  0  0  0  0  0  0
    6.8080   -0.1750   21.6030 C   0  0  1  0  0  0  0  0  0  0  0  0
    6.2450    0.2560   20.2440 C   0  0  0  0  0  0  0  0  0  0  0  0
    7.1080   -1.6880   22.0380 C   0  0  2  0  0  0  0  0  0  0  0  0
    5.0330    0.9540   20.2070 C   0  0  0  0  0  0  0  0  0  0  0  0
    6.8860    0.0080   19.0600 C   0  0  0  0  0  0  0  0  0  0  0  0
    8.3120   -2.0080   22.7510 C   0  0  1  0  0  0  0  0  0  0  0  0
    6.7230   -2.8150   21.2600 N   0  0  0  0  0  0  0  0  0  0  0  0
    6.5030   -3.2320   19.9220 C   0  0  0  0  0  0  0  0  0  0  0  0
    6.3470    0.4580   17.7940 N   0  0  0  0  0  0  0  0  0  0  0  0
    4.4790    1.4020   19.0130 C   0  0  0  0  0  0  0  0  0  0  0  0
    9.3500   -2.1030   21.8270 C   0  0  0  0  0  0  0  0  0  0  0  0
    8.6630   -1.2460   23.8690 C   0  0  1  0  0  0  0  0  0  0  0  0
    8.2920   -3.2090   23.3740 N   0  0  0  0  0  0  0  0  0  0  0  0
    6.6510   -3.9150   22.0330 C   0  0  0  0  0  0  0  0  0  0  0  0
    7.5130   -2.9750   18.7920 C   0  0  0  0  0  0  0  0  0  0  0  0
    5.4870   -3.9070   19.6520 O   0  0  0  0  0  0  0  0  0  0  0  0
    7.7620   -1.5700   24.9480 N   0  0  0  0  0  0  0  0  0  0  0  0
    7.6020   -2.9710   24.6610 C   0  0  2  0  0  0  0  0  0  0  0  0
    5.1900    1.1230   17.8600 C   0  0  0  0  0  0  0  0  0  0  0  0
   10.7810   -1.7570   22.1820 C   0  0  0  0  0  0  0  0  0  0  0  0
    9.8880   -1.7110   24.3470 C   0  0  0  0  0  0  0  0  0  0  0  0
    7.7260   -4.2330   22.7320 C   0  0  0  0  0  0  0  0  0  0  0  0
   10.9420   -1.3350   23.4720 C   0  0  1  0  0  0  0  0  0  0  0  0
    8.1670   -3.9290   25.6620 C   0  0  0  0  0  0  0  0  0  0  0  0
   12.2460   -1.7600   24.0810 C   0  0  0  0  0  0  0  0  0  0  0  0
    9.1970   -4.9910   25.4110 C   0  0  0  0  0  0  0  0  0  0  0  0
    7.6720   -3.9610   27.3090 S   0  0  0  0  0  0  0  0  0  0  0  0
   12.6940   -0.6940   25.0890 C   0  0  0  0  0  0  0  0  0  0  0  0
   13.3600   -1.9850   23.0360 C   0  0  0  0  0  0  0  0  0  0  0  0
   12.0710   -3.0600   24.8860 C   0  0  0  0  0  0  0  0  0  0  0  0
    8.7190   -5.2690   27.6530 C   0  0  0  0  0  0  0  0  0  0  0  0
    9.4570   -5.7180   26.5840 C   0  0  0  0  0  0  0  0  0  0  0  0
  1  2  1  0
  2  3  2  0
  1  4  1  0
  5  2  1  6
  5  6  1  0
  5  7  1  0
  6  8  2  0
  6  9  1  0
  7 10  1  0
  7 11  1  6
 11 12  1  0
  9 13  2  0
  8 14  1  0
 10 15  1  6
 10 16  1  0
 10 17  1  0
 11 18  1  0
 12 19  1  0
 12 20  2  0
 16 21  1  0
 17 22  1  0
 21 22  1  0
 13 23  1  0
 14 23  2  0
 15 24  2  0
 16 25  1  1
 17 26  1  0
 18 26  1  0
 24 27  1  0
 25 27  1  0
 22 28  1  1
 27 29  1  1
 28 30  2  0
 28 31  1  0
 29 32  1  0
 29 33  1  0
 29 34  1  0
 31 35  1  0
 30 36  1  0
 35 36  2  0
M  END
