x1412-x0678
     RDKit          3D

 32 36  0  0  0  0  0  0  0  0999 V2000
    7.5090   -3.0130   18.8450 C   0  0  0  0  0  0  0  0  0  0  0  0
    6.5720   -3.3670   19.9720 C   0  0  0  0  0  0  0  0  0  0  0  0
    5.5390   -4.0270   19.7330 O   0  0  0  0  0  0  0  0  0  0  0  0
    6.9380   -3.0080   21.2660 N   0  0  0  0  0  0  0  0  0  0  0  0
    7.1080   -1.5940   21.7110 C   0  0  2  0  0  0  0  0  0  0  0  0
    6.8130   -3.8890   22.2550 C   0  0  0  0  0  0  0  0  0  0  0  0
    7.6250   -0.5640   20.8900 N   0  0  0  0  0  0  0  0  0  0  0  0
    7.9880   -1.5430   22.9990 C   0  0  2  0  0  0  0  0  0  0  0  0
    8.0730   -3.8750   22.8750 C   0  0  0  0  0  0  0  0  0  0  0  0
    8.5500    0.2770   21.5030 C   0  0  0  0  0  0  0  0  0  0  0  0
    9.0510   -0.3860   22.8190 C   0  0  2  0  0  0  0  0  0  0  0  0
    8.4130   -2.7220   23.4850 N   0  0  0  0  0  0  0  0  0  0  0  0
    6.7940    0.0950   19.9690 C   0  0  0  0  0  0  0  0  0  0  0  0
    8.4820   -2.6800   24.9420 C   0  0  0  0  0  0  0  0  0  0  0  0
    8.9330    1.3960   21.1070 O   0  0  0  0  0  0  0  0  0  0  0  0
   10.5640   -0.5430   22.7420 C   0  0  0  0  0  0  0  0  0  0  0  0
    5.6660    0.8210   20.3560 C   0  0  0  0  0  0  0  0  0  0  0  0
    7.0810    0.0330   18.6860 C   0  0  0  0  0  0  0  0  0  0  0  0
    8.3740   -1.4790   25.6980 O   0  0  0  0  0  0  0  0  0  0  0  0
    8.6700   -3.9070   25.6670 C   0  0  0  0  0  0  0  0  0  0  0  0
   11.0760   -1.7330   22.2510 C   0  0  0  0  0  0  0  0  0  0  0  0
   11.2210   -0.0570   23.8850 C   0  0  0  0  0  0  0  0  0  0  0  0
    4.8870    1.4550   19.3940 C   0  0  0  0  0  0  0  0  0  0  0  0
    6.3980    0.6070   17.6960 N   0  0  0  0  0  0  0  0  0  0  0  0
    9.4800   -4.9940   25.3420 C   0  0  0  0  0  0  0  0  0  0  0  0
    7.8190   -4.1170   27.1600 S   0  0  0  0  0  0  0  0  0  0  0  0
   12.4400   -1.7460   22.0190 C   0  0  0  0  0  0  0  0  0  0  0  0
   12.5790    0.1270   23.7540 C   0  0  0  0  0  0  0  0  0  0  0  0
    5.2180    1.3780   18.0420 C   0  0  0  0  0  0  0  0  0  0  0  0
    8.4890   -5.6400   27.4440 C   0  0  0  0  0  0  0  0  0  0  0  0
    9.3520   -6.0360   26.4440 C   0  0  0  0  0  0  0  0  0  0  0  0
   13.2410   -0.7390   22.8600 C   0  0  0  0  0  0  0  0  0  0  0  0
  1  2  1  0
  2  3  2  0
  2  4  1  0
  5  4  1  6
  4  6  1  0
  5  7  1  0
  5  8  1  0
  6  9  1  0
  7 10  1  0
  8 11  1  0
 10 11  1  0
  8 12  1  6
  9 12  1  0
  7 13  1  0
 12 14  1  0
 10 15  2  0
 11 16  1  6
 13 17  2  0
 13 18  1  0
 14 19  2  0
 14 20  1  0
 16 21  1  0
 16 22  1  0
 17 23  1  0
 18 24  2  0
 20 25  2  0
 20 26  1  0
 21 27  1  0
 22 28  1  0
 23 29  2  0
 24 29  1  0
 26 30  1  0
 25 31  1  0
 30 31  2  0
 27 32  1  0
 28 32  1  0
M  END
