x1412-x0830
     RDKit          3D

 27 30  0  0  0  0  0  0  0  0999 V2000
    7.5000   -3.0250   18.7820 C   0  0  0  0  0  0  0  0  0  0  0  0
    6.5020   -3.2800   19.8880 C   0  0  0  0  0  0  0  0  0  0  0  0
    5.5450   -4.0570   19.7340 O   0  0  0  0  0  0  0  0  0  0  0  0
    6.7460   -2.6080   21.0840 N   0  0  0  0  0  0  0  0  0  0  0  0
    8.0630   -1.9700   21.4850 C   0  0  0  0  0  0  0  0  0  0  0  0
    5.8720   -3.0130   22.2010 C   0  0  0  0  0  0  0  0  0  0  0  0
    8.6930   -2.8350   22.5910 C   0  0  2  0  0  0  0  0  0  0  0  0
    6.6170   -3.7100   23.1800 C   0  0  0  0  0  0  0  0  0  0  0  0
    7.8210   -3.0200   23.5850 N   0  0  0  0  0  0  0  0  0  0  0  0
   10.1500   -2.7580   23.0930 C   0  0  0  0  0  0  0  0  0  0  0  0
    8.0570   -2.8320   25.0160 C   0  0  0  0  0  0  0  0  0  0  0  0
   11.0410   -1.5380   22.9940 C   0  0  0  0  0  0  0  0  0  0  0  0
    7.8500   -1.5220   25.5180 O   0  0  0  0  0  0  0  0  0  0  0  0
    8.4440   -3.9600   25.7900 C   0  0  0  0  0  0  0  0  0  0  0  0
   12.2360   -1.7900   22.3720 C   0  0  0  0  0  0  0  0  0  0  0  0
   10.7590   -0.1570   23.5010 C   0  0  0  0  0  0  0  0  0  0  0  0
    9.3510   -5.1210   25.4130 C   0  0  0  0  0  0  0  0  0  0  0  0
    7.8550   -4.1420   27.3970 S   0  0  0  0  0  0  0  0  0  0  0  0
   13.1580   -0.7940   22.2290 C   0  0  0  0  0  0  0  0  0  0  0  0
   11.7290    0.8120   23.3090 C   0  0  0  0  0  0  0  0  0  0  0  0
    9.5820    0.2010   24.1450 C   0  0  0  0  0  0  0  0  0  0  0  0
    8.6840   -5.6260   27.6460 C   0  0  0  0  0  0  0  0  0  0  0  0
    9.4470   -6.0810   26.5690 C   0  0  0  0  0  0  0  0  0  0  0  0
   12.9260    0.4950   22.6900 C   0  0  0  0  0  0  0  0  0  0  0  0
   11.5620    2.0740   23.6930 C   0  0  0  0  0  0  0  0  0  0  0  0
    9.3780    1.6440   24.5980 C   0  0  0  0  0  0  0  0  0  0  0  0
   10.3790    2.5810   24.3490 C   0  0  0  0  0  0  0  0  0  0  0  0
  1  2  1  0
  2  3  2  0
  2  4  1  0
  4  5  1  0
  4  6  1  0
  5  7  1  0
  6  8  1  0
  7  9  1  0
  8  9  1  0
  7 10  1  1
  9 11  1  0
 10 12  1  0
 11 13  2  0
 11 14  1  0
 12 15  2  0
 12 16  1  0
 14 17  2  0
 14 18  1  0
 15 19  1  0
 16 20  2  0
 16 21  1  0
 18 22  1  0
 17 23  1  0
 22 23  2  0
 19 24  2  0
 20 24  1  0
 20 25  1  0
 21 26  2  0
 25 27  2  0
 26 27  1  0
M  END
