x1418-x2540
     RDKit          3D

 36 40  0  0  0  0  0  0  0  0999 V2000
    7.8060    1.8910   22.9900 N   0  0  0  0  0  0  0  0  0  0  0  0
    7.8290    1.1920   21.7800 C   0  0  0  0  0  0  0  0  0  0  0  0
    8.6100    1.4150   20.8590 O   0  0  0  0  0  0  0  0  0  0  0  0
    8.5440    3.0630   23.2010 C   0  0  0  0  0  0  0  0  0  0  0  0
    6.7300    0.0770   21.5040 C   0  0  1  0  0  0  0  0  0  0  0  0
    8.5820    3.3300   24.7250 C   0  0  0  0  0  0  0  0  0  0  0  0
    7.8840    4.2420   22.4720 C   0  0  0  0  0  0  0  0  0  0  0  0
    9.9670    2.8860   22.5910 C   0  0  0  0  0  0  0  0  0  0  0  0
    6.1910    0.4960   20.1780 C   0  0  0  0  0  0  0  0  0  0  0  0
    6.8710   -1.4910   21.8180 C   0  0  1  0  0  0  0  0  0  0  0  0
    5.0280    1.2400   20.0820 C   0  0  0  0  0  0  0  0  0  0  0  0
    6.8750    0.1660   19.0090 C   0  0  0  0  0  0  0  0  0  0  0  0
    6.0150   -2.5180   21.1830 N   0  0  0  0  0  0  0  0  0  0  0  0
    8.1670   -1.8270   22.1190 C   0  0  1  0  0  0  0  0  0  0  0  0
    6.1100   -3.1870   19.9250 C   0  0  0  0  0  0  0  0  0  0  0  0
    6.3620    0.6200   17.7190 N   0  0  0  0  0  0  0  0  0  0  0  0
    4.5090    1.6850   18.9060 C   0  0  0  0  0  0  0  0  0  0  0  0
    9.1870   -0.9110   22.6730 C   0  0  1  0  0  0  0  0  0  0  0  0
    5.9200   -3.5540   22.2440 C   0  0  0  0  0  0  0  0  0  0  0  0
    8.1050   -2.9730   23.1010 C   0  0  2  0  0  0  0  0  0  0  0  0
    7.1090   -2.8570   18.8240 C   0  0  0  0  0  0  0  0  0  0  0  0
    5.3440   -4.1360   19.7340 O   0  0  0  0  0  0  0  0  0  0  0  0
    9.4800   -3.4340   23.3940 C   0  0  0  0  0  0  0  0  0  0  0  0
    5.1250    1.4150   17.7240 C   0  0  0  0  0  0  0  0  0  0  0  0
    9.9830   -1.3580   23.9030 C   0  0  1  0  0  0  0  0  0  0  0  0
   10.1930   -0.6560   21.7860 C   0  0  0  0  0  0  0  0  0  0  0  0
    7.3220   -4.0480   22.7050 C   0  0  0  0  0  0  0  0  0  0  0  0
   10.2580   -2.5240   24.1310 O   0  0  0  0  0  0  0  0  0  0  0  0
   11.1220   -0.5340   23.8190 C   0  0  2  0  0  0  0  0  0  0  0  0
   11.3090   -0.4630   22.3680 C   0  0  0  0  0  0  0  0  0  0  0  0
   12.5170   -0.8810   24.2770 C   0  0  1  0  0  0  0  0  0  0  0  0
   10.7500    1.0260   24.3350 S   0  0  0  0  0  0  0  0  0  0  0  0
   13.0300   -2.1980   23.9170 C   0  0  0  0  0  0  0  0  0  0  0  0
   12.1910    1.4240   23.4950 C   0  0  0  0  0  0  0  0  0  0  0  0
   13.1220    0.2460   23.5110 C   0  0  0  0  0  0  0  0  0  0  0  0
   13.1340   -2.9960   25.0300 C   0  0  0  0  0  0  0  0  0  0  0  0
  1  2  1  0
  2  3  2  0
  4  1  1  0
  5  2  1  6
  4  6  1  0
  4  7  1  0
  4  8  1  0
  5  9  1  0
  5 10  1  0
  9 11  2  0
  9 12  1  0
 10 13  1  6
 10 14  1  0
 13 15  1  0
 12 16  2  0
 11 17  1  0
 14 18  1  0
 13 19  1  0
 14 20  1  1
 15 21  1  0
 15 22  2  0
 20 23  1  6
 16 24  1  0
 17 24  2  0
 18 25  1  0
 18 26  1  6
 19 27  1  0
 20 27  1  0
 23 28  1  0
 25 28  1  6
 25 29  1  0
 26 30  2  0
 29 30  1  6
 29 31  1  0
 29 32  1  0
 31 33  1  6
 32 34  1  0
 31 35  1  0
 34 35  2  0
 33 36  1  0
M  END
