x1425-x2764
     RDKit          3D

 36 40  0  0  0  0  0  0  0  0999 V2000
    8.3390   -1.3530   21.0810 N   0  0  0  0  0  0  0  0  0  0  0  0
    6.9760   -1.2070   20.8470 C   0  0  0  0  0  0  0  0  0  0  0  0
    6.0290   -2.0680   21.1150 N   0  0  0  0  0  0  0  0  0  0  0  0
    8.8150   -2.4210   21.9200 C   0  0  1  0  0  0  0  0  0  0  0  0
   10.1240   -2.0930   22.6440 C   0  0  0  0  0  0  0  0  0  0  0  0
    6.3930   -0.0470   20.1530 C   0  0  0  0  0  0  0  0  0  0  0  0
    7.5370   -2.8780   22.6750 C   0  0  1  0  0  0  0  0  0  0  0  0
   11.3790   -1.9600   21.9990 C   0  0  0  0  0  0  0  0  0  0  0  0
   10.4100   -1.8440   24.1140 C   0  0  0  0  0  0  0  0  0  0  0  0
    6.1440   -0.2640   18.7950 C   0  0  0  0  0  0  0  0  0  0  0  0
    6.0650    1.1810   20.7210 C   0  0  0  0  0  0  0  0  0  0  0  0
    6.4540   -3.3400   21.6660 C   0  0  2  0  0  0  0  0  0  0  0  0
    7.6390   -3.5300   23.8960 C   0  0  0  0  0  0  0  0  0  0  0  0
    6.3110    1.4290   22.0470 O   0  0  0  0  0  0  0  0  0  0  0  0
    6.5770   -3.9780   20.2480 C   0  0  0  0  0  0  0  0  0  0  0  0
   12.4660   -1.6730   22.7290 N   0  0  0  0  0  0  0  0  0  0  0  0
   12.0750   -1.5320   24.3390 S   0  0  0  0  0  0  0  0  0  0  0  0
    5.5630    0.6900   17.9680 C   0  0  0  0  0  0  0  0  0  0  0  0
    5.4100    2.2320   19.7900 C   0  0  0  0  0  0  0  0  0  0  0  0
    6.3560   -4.2200   24.2500 N   0  0  0  0  0  0  0  0  0  0  0  0
    5.2960   -4.1310   22.2870 C   0  0  0  0  0  0  0  0  0  0  0  0
    7.6770    1.8180   22.3120 C   0  0  0  0  0  0  0  0  0  0  0  0
    5.9720   -5.0320   20.0150 O   0  0  0  0  0  0  0  0  0  0  0  0
    7.3250   -3.2970   19.0980 C   0  0  0  0  0  0  0  0  0  0  0  0
    5.2030    1.9150   18.4860 C   0  0  0  0  0  0  0  0  0  0  0  0
    5.4950   -3.6080   25.1910 C   0  0  0  0  0  0  0  0  0  0  0  0
    5.7620   -5.0310   23.2130 C   0  0  0  0  0  0  0  0  0  0  0  0
    7.7940    3.3340   22.4940 C   0  0  0  0  0  0  0  0  0  0  0  0
    5.8840   -2.6090   26.0890 C   0  0  0  0  0  0  0  0  0  0  0  0
    4.0010   -4.0560   25.2760 C   0  0  0  0  0  0  0  0  0  0  0  0
    7.8750    4.4800   22.6560 N   0  0  0  0  0  0  0  0  0  0  0  0
    4.8860   -2.0210   27.0850 C   0  0  0  0  0  0  0  0  0  0  0  0
    3.0810   -3.4140   26.3030 C   0  0  0  0  0  0  0  0  0  0  0  0
    3.5440   -2.4350   27.1640 C   0  0  0  0  0  0  0  0  0  0  0  0
    2.6290   -1.9300   28.0530 O   0  0  0  0  0  0  0  0  0  0  0  0
    1.3430   -2.5320   28.1340 C   0  0  0  0  0  0  0  0  0  0  0  0
  1  2  1  0
  2  3  2  0
  1  4  1  0
  4  5  1  1
  2  6  1  0
  4  7  1  0
  5  8  1  0
  5  9  2  0
  6 10  2  0
  6 11  1  0
  3 12  1  0
  7 12  1  0
  7 13  1  1
 11 14  1  0
 12 15  1  6
  8 16  2  0
  9 17  1  0
 16 17  1  0
 10 18  1  0
 11 19  2  0
 13 20  1  0
 12 21  1  0
 14 22  1  0
 15 23  2  0
 15 24  1  0
 18 25  2  0
 19 25  1  0
 20 26  1  0
 20 27  1  0
 21 27  1  0
 22 28  1  0
 26 29  2  0
 26 30  1  0
 28 31  3  0
 29 32  1  0
 30 33  2  0
 32 34  2  0
 33 34  1  0
 34 35  1  0
 35 36  1  0
M  END
