x1425-x3303
     RDKit          3D

 41 46  0  0  0  0  0  0  0  0999 V2000
    1.4280   -2.3770   28.1620 C   0  0  0  0  0  0  0  0  0  0  0  0
    2.6380   -2.3390   28.3680 O   0  0  0  0  0  0  0  0  0  0  0  0
    3.4580   -2.7110   27.3410 C   0  0  0  0  0  0  0  0  0  0  0  0
    4.5870   -1.9510   27.1250 C   0  0  0  0  0  0  0  0  0  0  0  0
    3.1640   -3.8300   26.5380 C   0  0  0  0  0  0  0  0  0  0  0  0
    5.4670   -2.4040   25.9750 C   0  0  0  0  0  0  0  0  0  0  0  0
    3.9940   -4.2290   25.4820 C   0  0  0  0  0  0  0  0  0  0  0  0
    5.1880   -3.5100   25.1680 C   0  0  0  0  0  0  0  0  0  0  0  0
    6.0290   -3.8370   24.1610 N   0  0  0  0  0  0  0  0  0  0  0  0
    6.7450   -2.7270   23.6170 C   0  0  0  0  0  0  0  0  0  0  0  0
    5.6600   -4.8660   23.3630 C   0  0  0  0  0  0  0  0  0  0  0  0
    7.3290   -2.7640   22.3500 C   0  0  2  0  0  0  0  0  0  0  0  0
    6.7860   -5.1960   22.4010 C   0  0  0  0  0  0  0  0  0  0  0  0
    6.9620   -4.0040   21.5630 N   0  0  0  0  0  0  0  0  0  0  0  0
    8.8720   -2.8130   22.8020 C   0  0  0  0  0  0  0  0  0  0  0  0
    7.1710   -1.6380   21.5410 N   0  0  0  0  0  0  0  0  0  0  0  0
    6.4280   -3.9950   20.2520 C   0  0  0  0  0  0  0  0  0  0  0  0
    5.8870   -1.4960   20.9140 C   0  0  0  0  0  0  0  0  0  0  0  0
    8.2290   -0.8640   21.1800 C   0  0  0  0  0  0  0  0  0  0  0  0
    9.4710   -1.5410   23.2500 N   0  0  0  0  0  0  0  0  0  0  0  0
    5.4030   -4.6180   19.9400 O   0  0  0  0  0  0  0  0  0  0  0  0
    7.2080   -3.2450   19.1710 C   0  0  0  0  0  0  0  0  0  0  0  0
    5.0070   -2.3330   20.9830 O   0  0  0  0  0  0  0  0  0  0  0  0
    9.0610   -0.4530   22.3850 C   0  0  0  0  0  0  0  0  0  0  0  0
    5.4910   -0.2970   20.1300 C   0  0  0  0  0  0  0  0  0  0  0  0
   10.7860   -1.8050   23.3900 C   0  0  0  0  0  0  0  0  0  0  0  0
    4.5270    0.5930   20.5790 C   0  0  0  0  0  0  0  0  0  0  0  0
    6.1100   -0.0690   18.8960 C   0  0  0  0  0  0  0  0  0  0  0  0
   11.5960   -1.7600   22.2570 C   0  0  0  0  0  0  0  0  0  0  0  0
   11.3210   -2.1320   24.6220 C   0  0  0  0  0  0  0  0  0  0  0  0
    4.2180    1.7070   19.7310 C   0  0  0  0  0  0  0  0  0  0  0  0
    5.7410    1.0410   18.1490 C   0  0  0  0  0  0  0  0  0  0  0  0
   12.9380   -2.0590   22.3530 C   0  0  0  0  0  0  0  0  0  0  0  0
   12.6510   -2.4490   24.8130 C   0  0  0  0  0  0  0  0  0  0  0  0
    3.8590    0.4330   21.8140 C   0  0  0  0  0  0  0  0  0  0  0  0
    6.3780    1.1830   16.9900 O   0  0  0  0  0  0  0  0  0  0  0  0
    4.8290    1.9580   18.4750 N   0  0  0  0  0  0  0  0  0  0  0  0
   13.4760   -2.4060   23.5780 C   0  0  0  0  0  0  0  0  0  0  0  0
    2.8970    1.3010   22.2790 C   0  0  0  0  0  0  0  0  0  0  0  0
    3.2620    2.6100   20.1450 C   0  0  0  0  0  0  0  0  0  0  0  0
    2.5780    2.4950   21.3520 C   0  0  0  0  0  0  0  0  0  0  0  0
  1  2  1  0
  2  3  1  0
  3  4  2  0
  3  5  1  0
  4  6  1  0
  5  7  2  0
  6  8  2  0
  7  8  1  0
  8  9  1  0
  9 10  1  0
  9 11  1  0
 12 10  1  1
 11 13  1  0
 12 14  1  0
 13 14  1  0
 12 15  1  0
 12 16  1  0
 14 17  1  0
 16 18  1  0
 16 19  1  0
 15 20  1  0
 17 21  2  0
 17 22  1  0
 18 23  2  0
 19 24  1  0
 20 24  1  0
 18 25  1  0
 20 26  1  0
 25 27  1  0
 25 28  2  0
 26 29  2  0
 26 30  1  0
 27 31  2  0
 28 32  1  0
 29 33  1  0
 30 34  2  0
 27 35  1  0
 32 36  1  0
 31 37  1  0
 32 37  2  0
 33 38  2  0
 34 38  1  0
 35 39  2  0
 31 40  1  0
 39 41  1  0
 40 41  2  0
M  END
