x1425-x2694
     RDKit          3D

 47 51  0  0  0  0  0  0  0  0999 V2000
    7.5380   -0.8040   21.9170 N   0  0  0  0  0  0  0  0  0  0  0  0
    7.1120    0.5060   21.7350 C   0  0  1  0  0  0  0  0  0  0  0  0
    8.1790    1.5270   21.8370 C   0  0  0  0  0  0  0  0  0  0  0  0
    6.5630   -1.9120   21.9740 C   0  0  0  0  0  0  0  0  0  0  0  0
    8.7190   -1.0050   22.7120 C   0  0  0  0  0  0  0  0  0  0  0  0
    6.4230    0.7030   20.4000 C   0  0  0  0  0  0  0  0  0  0  0  0
    8.7500   -1.1110   24.0630 N   0  0  0  0  0  0  0  0  0  0  0  0
    9.9620   -1.1130   22.1300 C   0  0  0  0  0  0  0  0  0  0  0  0
    7.2040   -3.2790   22.2800 C   0  0  2  0  0  0  0  0  0  0  0  0
    7.9480    2.4410   22.6930 N   0  0  0  0  0  0  0  0  0  0  0  0
    9.1680    1.5190   21.1460 O   0  0  0  0  0  0  0  0  0  0  0  0
    5.2870    1.5150   20.2360 C   0  0  0  0  0  0  0  0  0  0  0  0
    6.9570    0.0230   19.1430 C   0  0  0  0  0  0  0  0  0  0  0  0
   10.0910   -1.2980   24.3910 O   0  0  0  0  0  0  0  0  0  0  0  0
   10.8320   -1.3000   23.2440 C   0  0  0  0  0  0  0  0  0  0  0  0
    6.7600   -4.4250   21.4440 N   0  0  0  0  0  0  0  0  0  0  0  0
    7.0630   -3.5680   23.6330 C   0  0  0  0  0  0  0  0  0  0  0  0
   12.2640   -1.4630   23.2480 C   0  0  0  0  0  0  0  0  0  0  0  0
    6.2170   -4.1460   20.1950 C   0  0  0  0  0  0  0  0  0  0  0  0
    6.2700    0.2710   17.8880 N   0  0  0  0  0  0  0  0  0  0  0  0
    4.6880    1.6930   18.9890 C   0  0  0  0  0  0  0  0  0  0  0  0
    8.6530    3.6010   22.9880 C   0  0  0  0  0  0  0  0  0  0  0  0
    5.6840   -4.0390   23.8910 N   0  0  0  0  0  0  0  0  0  0  0  0
    6.2630   -5.5980   22.2040 C   0  0  0  0  0  0  0  0  0  0  0  0
   12.8530   -0.2290   23.4860 C   0  0  0  0  0  0  0  0  0  0  0  0
   12.8120   -1.9990   21.9530 C   0  0  0  0  0  0  0  0  0  0  0  0
   12.6950   -2.2140   24.2840 C   0  0  0  0  0  0  0  0  0  0  0  0
    5.1450   -4.6090   19.8700 O   0  0  0  0  0  0  0  0  0  0  0  0
    7.0720   -3.2800   19.2670 C   0  0  0  0  0  0  0  0  0  0  0  0
    5.2020    1.0720   17.8770 C   0  0  0  0  0  0  0  0  0  0  0  0
    9.8690    3.4520   23.6270 C   0  0  0  0  0  0  0  0  0  0  0  0
    8.2170    4.9960   22.6680 C   0  0  0  0  0  0  0  0  0  0  0  0
    4.9920   -3.5660   24.9470 C   0  0  0  0  0  0  0  0  0  0  0  0
    5.2990   -5.2590   23.1660 C   0  0  0  0  0  0  0  0  0  0  0  0
   10.4010    2.0860   23.9940 C   0  0  0  0  0  0  0  0  0  0  0  0
   10.6430    4.5660   23.9500 C   0  0  0  0  0  0  0  0  0  0  0  0
    9.0870    6.1730   23.0440 C   0  0  0  0  0  0  0  0  0  0  0  0
    5.5220   -2.6850   25.8810 C   0  0  0  0  0  0  0  0  0  0  0  0
    3.5220   -3.9910   25.1870 C   0  0  0  0  0  0  0  0  0  0  0  0
   10.2410    5.8620   23.6630 C   0  0  0  0  0  0  0  0  0  0  0  0
    4.8040   -2.2030   26.9730 C   0  0  0  0  0  0  0  0  0  0  0  0
    2.8590   -3.4710   26.3020 C   0  0  0  0  0  0  0  0  0  0  0  0
   11.0680    6.8870   24.0330 O   0  0  0  0  0  0  0  0  0  0  0  0
    3.4820   -2.5890   27.1900 C   0  0  0  0  0  0  0  0  0  0  0  0
   11.8680    6.6890   25.2180 C   0  0  0  0  0  0  0  0  0  0  0  0
    2.7100   -2.1660   28.2420 O   0  0  0  0  0  0  0  0  0  0  0  0
    1.3000   -2.3280   28.1370 C   0  0  0  0  0  0  0  0  0  0  0  0
  1  2  1  0
  2  3  1  6
  1  4  1  0
  1  5  1  0
  2  6  1  0
  5  7  2  0
  5  8  1  0
  9  4  1  6
  3 10  1  0
  3 11  2  0
  6 12  2  0
  6 13  1  0
  7 14  1  0
  8 15  2  0
 14 15  1  0
  9 16  1  0
  9 17  1  0
 15 18  1  0
 16 19  1  0
 13 20  2  0
 12 21  1  0
 10 22  1  0
 17 23  1  0
 16 24  1  0
 18 25  1  0
 18 26  1  0
 18 27  1  0
 19 28  2  0
 19 29  1  0
 20 30  1  0
 21 30  2  0
 22 31  2  0
 22 32  1  0
 23 33  1  0
 23 34  1  0
 24 34  1  0
 31 35  1  0
 31 36  1  0
 32 37  2  0
 33 38  2  0
 33 39  1  0
 36 40  2  0
 37 40  1  0
 38 41  1  0
 39 42  2  0
 40 43  1  0
 41 44  2  0
 42 44  1  0
 43 45  1  0
 44 46  1  0
 46 47  1  0
M  END
