x1425-x2600
     RDKit          3D

 36 39  0  0  0  0  0  0  0  0999 V2000
    1.5130   -2.3090   28.2090 C   0  0  0  0  0  0  0  0  0  0  0  0
    2.7410   -2.2210   28.2510 O   0  0  0  0  0  0  0  0  0  0  0  0
    3.4590   -2.6220   27.1500 C   0  0  0  0  0  0  0  0  0  0  0  0
    4.7920   -2.2390   27.0370 C   0  0  0  0  0  0  0  0  0  0  0  0
    2.8320   -3.4040   26.1730 C   0  0  0  0  0  0  0  0  0  0  0  0
    5.5190   -2.6490   25.9230 C   0  0  0  0  0  0  0  0  0  0  0  0
    3.5540   -3.8140   25.0580 C   0  0  0  0  0  0  0  0  0  0  0  0
    4.8920   -3.4350   24.9400 C   0  0  0  0  0  0  0  0  0  0  0  0
    5.6860   -3.8000   23.8660 N   0  0  0  0  0  0  0  0  0  0  0  0
    6.7740   -3.0660   23.5400 C   0  0  0  0  0  0  0  0  0  0  0  0
    5.5910   -5.0650   23.3870 C   0  0  0  0  0  0  0  0  0  0  0  0
    7.0690   -2.9530   22.1840 C   0  0  2  0  0  0  0  0  0  0  0  0
    6.4460   -5.2830   22.1470 C   0  0  0  0  0  0  0  0  0  0  0  0
    6.4940   -1.5440   21.7740 C   0  0  0  0  0  0  0  0  0  0  0  0
    6.6580   -4.0060   21.4570 N   0  0  0  0  0  0  0  0  0  0  0  0
    6.1860   -3.9340   20.1480 C   0  0  0  0  0  0  0  0  0  0  0  0
    7.2340   -0.5680   21.1540 N   0  0  0  0  0  0  0  0  0  0  0  0
    5.1300   -4.4330   19.8040 O   0  0  0  0  0  0  0  0  0  0  0  0
    7.1420   -3.2220   19.1930 C   0  0  0  0  0  0  0  0  0  0  0  0
    8.2740    0.1610   21.7690 C   0  0  0  0  0  0  0  0  0  0  0  0
    6.5150    0.1090   20.0850 C   0  0  0  0  0  0  0  0  0  0  0  0
    8.8920    1.1280   21.2610 O   0  0  0  0  0  0  0  0  0  0  0  0
    8.6740   -0.2400   23.2330 C   0  0  0  0  0  0  0  0  0  0  0  0
    6.9070    0.0120   18.7420 C   0  0  0  0  0  0  0  0  0  0  0  0
    5.3960    0.8920   20.3440 C   0  0  0  0  0  0  0  0  0  0  0  0
    6.2790    0.6400   17.6250 N   0  0  0  0  0  0  0  0  0  0  0  0
    4.7620    1.5170   19.2580 C   0  0  0  0  0  0  0  0  0  0  0  0
   10.1590   -0.4420   23.4170 C   0  0  0  0  0  0  0  0  0  0  0  0
    5.2170    1.3780   17.9430 C   0  0  0  0  0  0  0  0  0  0  0  0
   10.7160   -0.2360   24.6810 C   0  0  0  0  0  0  0  0  0  0  0  0
   10.9550   -0.8230   22.3600 C   0  0  0  0  0  0  0  0  0  0  0  0
   12.0760   -0.4080   24.9070 C   0  0  0  0  0  0  0  0  0  0  0  0
   12.3080   -0.9950   22.5430 C   0  0  0  0  0  0  0  0  0  0  0  0
   13.1930   -1.3690   21.4630 C   0  0  0  0  0  0  0  0  0  0  0  0
   12.8710   -0.7770   23.8770 C   0  0  0  0  0  0  0  0  0  0  0  0
   14.0100   -1.5110   20.3850 N   0  0  0  0  0  0  0  0  0  0  0  0
  1  2  1  0
  2  3  1  0
  3  4  2  0
  3  5  1  0
  4  6  1  0
  5  7  2  0
  6  8  2  0
  7  8  1  0
  8  9  1  0
  9 10  1  0
  9 11  1  0
 10 12  1  0
 11 13  1  0
 12 14  1  6
 12 15  1  0
 13 15  1  0
 15 16  1  0
 14 17  1  0
 16 18  2  0
 16 19  1  0
 17 20  1  0
 17 21  1  0
 20 22  2  0
 20 23  1  0
 21 24  2  0
 21 25  1  0
 24 26  1  0
 25 27  2  0
 23 28  1  0
 26 29  2  0
 27 29  1  0
 28 30  2  0
 28 31  1  0
 30 32  1  0
 31 33  2  0
 33 34  1  0
 32 35  2  0
 33 35  1  0
 34 36  3  0
M  END
