x1425-x0540
     RDKit          3D

 37 40  0  0  0  0  0  0  0  0999 V2000
    1.5860   -2.2990   28.3910 C   0  0  0  0  0  0  0  0  0  0  0  0
    2.8170   -2.2880   28.3710 O   0  0  0  0  0  0  0  0  0  0  0  0
    3.4160   -2.6930   27.2110 C   0  0  0  0  0  0  0  0  0  0  0  0
    4.6860   -2.2010   26.9810 C   0  0  0  0  0  0  0  0  0  0  0  0
    2.8600   -3.5450   26.2550 C   0  0  0  0  0  0  0  0  0  0  0  0
    5.4300   -2.5050   25.8610 C   0  0  0  0  0  0  0  0  0  0  0  0
    3.6090   -3.8650   25.1010 C   0  0  0  0  0  0  0  0  0  0  0  0
    4.8980   -3.3470   24.8930 C   0  0  0  0  0  0  0  0  0  0  0  0
    5.6110   -3.6570   23.7820 N   0  0  0  0  0  0  0  0  0  0  0  0
    6.6260   -2.8160   23.4120 C   0  0  2  0  0  0  0  0  0  0  0  0
    5.6310   -4.9530   23.3550 C   0  0  0  0  0  0  0  0  0  0  0  0
    6.0580   -1.3600   23.1960 C   0  0  0  0  0  0  0  0  0  0  0  0
    7.3580   -3.1760   22.2740 C   0  0  0  0  0  0  0  0  0  0  0  0
    6.3160   -5.2620   22.2150 C   0  0  0  0  0  0  0  0  0  0  0  0
    5.0110   -1.3370   22.2520 C   0  0  0  0  0  0  0  0  0  0  0  0
    6.7690   -4.2460   21.4710 N   0  0  0  0  0  0  0  0  0  0  0  0
    6.2400   -4.0420   20.1870 C   0  0  0  0  0  0  0  0  0  0  0  0
    4.5230    0.0760   21.7530 C   0  0  1  0  0  0  0  0  0  0  0  0
    5.1610   -4.4990   19.8390 O   0  0  0  0  0  0  0  0  0  0  0  0
    7.1600   -3.2640   19.2440 C   0  0  0  0  0  0  0  0  0  0  0  0
    5.0260    1.1120   22.5410 C   0  0  0  0  0  0  0  0  0  0  0  0
    5.1730    0.2770   20.3550 C   0  0  0  0  0  0  0  0  0  0  0  0
    4.0740    2.2540   22.6160 N   0  0  0  0  0  0  0  0  0  0  0  0
    6.3650   -0.3440   19.9960 C   0  0  0  0  0  0  0  0  0  0  0  0
    4.5640    1.0960   19.4120 C   0  0  0  0  0  0  0  0  0  0  0  0
    2.9690    2.2590   23.4950 C   0  0  0  0  0  0  0  0  0  0  0  0
    6.8670   -0.1230   18.7390 C   0  0  0  0  0  0  0  0  0  0  0  0
    5.1560    1.2610   18.1650 C   0  0  0  0  0  0  0  0  0  0  0  0
    2.8830    1.4930   24.4600 O   0  0  0  0  0  0  0  0  0  0  0  0
    1.9820    3.1950   23.1930 N   0  0  0  0  0  0  0  0  0  0  0  0
    6.3150    0.6670   17.7780 N   0  0  0  0  0  0  0  0  0  0  0  0
    0.7760    3.3380   24.0180 C   0  0  0  0  0  0  0  0  0  0  0  0
    0.6250    4.6510   24.4520 C   0  0  0  0  0  0  0  0  0  0  0  0
   -0.3420    2.8350   23.3440 C   0  0  0  0  0  0  0  0  0  0  0  0
   -0.6150    4.8920   25.0500 C   0  0  0  0  0  0  0  0  0  0  0  0
   -1.6030    3.3250   23.6920 C   0  0  0  0  0  0  0  0  0  0  0  0
   -1.6890    4.6140   24.2100 C   0  0  0  0  0  0  0  0  0  0  0  0
  1  2  1  0
  2  3  1  0
  3  4  2  0
  3  5  1  0
  4  6  1  0
  5  7  2  0
  6  8  2  0
  7  8  1  0
  8  9  1  0
  9 10  1  0
  9 11  1  0
 10 12  1  6
 10 13  1  0
 11 14  1  0
 12 15  1  0
 13 16  1  0
 14 16  1  0
 16 17  1  0
 18 15  1  1
 17 19  2  0
 17 20  1  0
 18 21  1  0
 18 22  1  0
 21 23  1  0
 22 24  2  0
 22 25  1  0
 23 26  1  0
 24 27  1  0
 25 28  2  0
 26 29  2  0
 26 30  1  0
 27 31  2  0
 28 31  1  0
 30 32  1  0
 32 33  1  0
 32 34  1  0
 33 35  1  0
 34 36  1  0
 35 37  1  0
 36 37  1  0
M  END
