x1425-x2776-x2694-x0354
     RDKit          3D

 62 68  0  0  0  0  0  0  0  0999 V2000
    7.1090   -1.3840   22.2910 C   0  0  2  0  0  0  0  0  0  0  0  0
    6.9000    0.0070   21.5370 C   0  0  1  0  0  0  0  0  0  0  0  0
    7.9820    1.0830   21.7200 C   0  0  0  0  0  0  0  0  0  0  0  0
    6.1430   -1.2610   23.4720 C   0  0  0  0  0  0  0  0  0  0  0  0
    8.6030   -1.4750   22.6530 C   0  0  0  0  0  0  0  0  0  0  0  0
    6.9530   -3.0260   22.0440 C   0  0  2  0  0  0  0  0  0  0  0  0
    6.3340    0.3000   20.1330 C   0  0  0  0  0  0  0  0  0  0  0  0
    9.5540   -1.9060   21.7400 C   0  0  0  0  0  0  0  0  0  0  0  0
    8.9970   -1.1510   23.8590 C   0  0  0  0  0  0  0  0  0  0  0  0
    6.0040   -3.7820   21.2870 N   0  0  0  0  0  0  0  0  0  0  0  0
    7.0770   -3.7810   23.3790 C   0  0  0  0  0  0  0  0  0  0  0  0
    7.8080    2.0200   22.8280 N   0  0  0  0  0  0  0  0  0  0  0  0
    8.9260    1.2070   20.9750 O   0  0  0  0  0  0  0  0  0  0  0  0
    8.1000   -0.7560   24.8000 N   0  0  0  0  0  0  0  0  0  0  0  0
    5.9690   -3.6310   19.9210 C   0  0  0  0  0  0  0  0  0  0  0  0
    5.1430    1.0120   20.2790 C   0  0  0  0  0  0  0  0  0  0  0  0
    6.8900   -0.0280   18.9060 C   0  0  0  0  0  0  0  0  0  0  0  0
   10.9980   -2.0050   22.0800 C   0  0  0  0  0  0  0  0  0  0  0  0
   10.2940   -1.2070   24.1940 C   0  0  0  0  0  0  0  0  0  0  0  0
    5.7540   -4.2950   23.8370 N   0  0  0  0  0  0  0  0  0  0  0  0
    5.9700   -5.2240   21.6760 C   0  0  0  0  0  0  0  0  0  0  0  0
   12.1540   -2.4660   21.2240 C   0  0  0  0  0  0  0  0  0  0  0  0
    8.6100   -0.4320   26.0170 C   0  0  0  0  0  0  0  0  0  0  0  0
    4.9230   -3.9890   19.4390 O   0  0  0  0  0  0  0  0  0  0  0  0
    7.1290   -3.0900   19.0780 C   0  0  0  0  0  0  0  0  0  0  0  0
    6.3550    0.3150   17.7300 N   0  0  0  0  0  0  0  0  0  0  0  0
    4.5110    1.4120   18.9850 C   0  0  0  0  0  0  0  0  0  0  0  0
    8.5950    3.2730   22.9790 C   0  0  0  0  0  0  0  0  0  0  0  0
   11.0830   -1.6050   23.3080 C   0  0  0  0  0  0  0  0  0  0  0  0
   10.9760   -0.9440   25.2640 C   0  0  0  0  0  0  0  0  0  0  0  0
    4.9190   -3.7430   24.9120 C   0  0  0  0  0  0  0  0  0  0  0  0
    5.2630   -5.3830   23.0050 C   0  0  0  0  0  0  0  0  0  0  0  0
    8.6480    0.0020   27.4090 C   0  0  0  0  0  0  0  0  0  0  0  0
    5.1320    1.0600   17.7940 C   0  0  0  0  0  0  0  0  0  0  0  0
    9.9740    3.2650   23.2520 C   0  0  0  0  0  0  0  0  0  0  0  0
    8.0200    4.4720   22.8620 C   0  0  0  0  0  0  0  0  0  0  0  0
   12.3430   -1.5040   24.0890 C   0  0  1  0  0  0  0  0  0  0  0  0
   12.1640   -0.3150   25.0550 C   0  0  0  0  0  0  0  0  0  0  0  0
    5.5830   -3.0110   25.9110 C   0  0  0  0  0  0  0  0  0  0  0  0
    3.5570   -3.9140   24.9700 C   0  0  0  0  0  0  0  0  0  0  0  0
   12.5580   -2.7850   24.7010 O   0  0  0  0  0  0  0  0  0  0  0  0
   10.7130    1.9640   23.4040 C   0  0  0  0  0  0  0  0  0  0  0  0
   13.4000   -1.0490   23.1470 C   0  0  0  0  0  0  0  0  0  0  0  0
    7.6390   -0.3810   28.2240 O   0  0  0  0  0  0  0  0  0  0  0  0
   10.7110    4.4020   23.4040 C   0  0  0  0  0  0  0  0  0  0  0  0
    8.6630    5.6280   22.9960 C   0  0  0  0  0  0  0  0  0  0  0  0
    4.7910   -2.4060   27.0700 C   0  0  0  0  0  0  0  0  0  0  0  0
    2.8000   -3.3760   26.0170 C   0  0  0  0  0  0  0  0  0  0  0  0
   13.6960   -2.8740   25.5130 C   0  0  0  0  0  0  0  0  0  0  0  0
   10.1480    5.6550   23.3010 C   0  0  0  0  0  0  0  0  0  0  0  0
    7.1040    0.6620   28.8640 C   0  0  0  0  0  0  0  0  0  0  0  0
    3.4730   -2.5700   27.1370 C   0  0  0  0  0  0  0  0  0  0  0  0
   10.9200    6.7750   23.4700 O   0  0  0  0  0  0  0  0  0  0  0  0
    2.8180   -1.9890   28.2440 O   0  0  0  0  0  0  0  0  0  0  0  0
    7.7770    1.8480   29.1430 C   0  0  0  0  0  0  0  0  0  0  0  0
    5.6630    0.5290   29.3110 C   0  0  0  0  0  0  0  0  0  0  0  0
   12.1310    6.7050   24.2100 C   0  0  0  0  0  0  0  0  0  0  0  0
    1.4270   -2.2820   28.3580 C   0  0  0  0  0  0  0  0  0  0  0  0
    7.1560    3.0320   29.8730 C   0  0  0  0  0  0  0  0  0  0  0  0
    5.0040    1.6780   30.0420 C   0  0  0  0  0  0  0  0  0  0  0  0
    5.7180    2.9850   30.3590 C   0  0  0  0  0  0  0  0  0  0  0  0
    5.0870    4.1290   31.0760 C   0  0  0  0  0  0  0  0  0  0  0  0
  1  2  1  0
  2  3  1  6
  1  4  1  1
  1  5  1  0
  1  6  1  0
  2  7  1  0
  5  8  2  0
  5  9  1  0
  6 10  1  0
  6 11  1  1
  3 12  1  0
  3 13  2  0
  9 14  1  0
 10 15  1  0
  7 16  2  0
  7 17  1  0
  8 18  1  0
  9 19  2  0
 11 20  1  0
 10 21  1  0
 18 22  1  0
 14 23  2  3
 15 24  2  0
 15 25  1  0
 17 26  2  0
 16 27  1  0
 12 28  1  0
 18 29  2  0
 19 29  1  0
 19 30  1  0
 20 31  1  0
 20 32  1  0
 21 32  1  0
 23 33  1  0
 26 34  1  0
 27 34  2  0
 28 35  2  0
 28 36  1  0
 29 37  1  0
 30 38  1  0
 37 38  1  0
 31 39  2  0
 31 40  1  0
 37 41  1  0
 35 42  1  0
 37 43  1  6
 33 44  1  0
 35 45  1  0
 36 46  2  0
 39 47  1  0
 40 48  2  0
 41 49  1  0
 45 50  2  0
 46 50  1  0
 44 51  1  0
 47 52  2  0
 48 52  1  0
 50 53  1  0
 52 54  1  0
 51 55  2  0
 51 56  1  0
 53 57  1  0
 54 58  1  0
 55 59  1  0
 56 60  2  0
 59 61  2  0
 60 61  1  0
 61 62  1  0
M  END
