x1425-x2776-x2703
     RDKit          3D

 50 54  0  0  0  0  0  0  0  0999 V2000
    6.9060   -0.9760   22.4130 C   0  0  2  0  0  0  0  0  0  0  0  0
    6.7310    0.3580   21.6620 C   0  0  1  0  0  0  0  0  0  0  0  0
    7.9280    1.2890   21.9270 C   0  0  0  0  0  0  0  0  0  0  0  0
    6.2410   -0.6150   23.8020 C   0  0  0  0  0  0  0  0  0  0  0  0
    8.4080   -1.3140   22.7030 C   0  0  0  0  0  0  0  0  0  0  0  0
    6.1050   -2.2450   21.8430 C   0  0  1  0  0  0  0  0  0  0  0  0
    6.1730    0.5720   20.2490 C   0  0  0  0  0  0  0  0  0  0  0  0
    9.3910   -1.6010   21.7780 C   0  0  0  0  0  0  0  0  0  0  0  0
    8.8190   -1.3200   24.0260 C   0  0  0  0  0  0  0  0  0  0  0  0
    6.7230   -3.5190   21.3950 N   0  0  0  0  0  0  0  0  0  0  0  0
    5.0140   -2.7120   22.7630 C   0  0  0  0  0  0  0  0  0  0  0  0
    7.8670    1.9720   22.8560 N   0  0  0  0  0  0  0  0  0  0  0  0
    9.0080    1.3780   21.1140 O   0  0  0  0  0  0  0  0  0  0  0  0
    6.3450   -3.8750   20.1420 C   0  0  0  0  0  0  0  0  0  0  0  0
    5.0010    1.2960   20.0790 C   0  0  0  0  0  0  0  0  0  0  0  0
    6.9180    0.0290   19.2250 C   0  0  0  0  0  0  0  0  0  0  0  0
   10.7100   -1.8650   22.1140 C   0  0  0  0  0  0  0  0  0  0  0  0
   10.1260   -1.5690   24.3870 C   0  0  0  0  0  0  0  0  0  0  0  0
    5.4890   -3.5850   23.8280 N   0  0  0  0  0  0  0  0  0  0  0  0
    6.8980   -4.7390   22.3040 C   0  0  0  0  0  0  0  0  0  0  0  0
    5.4020   -4.6180   19.8900 O   0  0  0  0  0  0  0  0  0  0  0  0
    7.2290   -3.2530   19.0980 C   0  0  0  0  0  0  0  0  0  0  0  0
    6.4330    0.2550   17.8840 N   0  0  0  0  0  0  0  0  0  0  0  0
    4.4630    1.5560   18.8280 C   0  0  0  0  0  0  0  0  0  0  0  0
    8.5430    3.1900   23.0130 C   0  0  0  0  0  0  0  0  0  0  0  0
   11.0970   -1.8430   23.4540 C   0  0  0  0  0  0  0  0  0  0  0  0
    4.7020   -3.3700   25.0060 C   0  0  0  0  0  0  0  0  0  0  0  0
    5.7640   -4.8940   23.3000 C   0  0  0  0  0  0  0  0  0  0  0  0
   12.4800   -2.0790   23.8700 C   0  0  2  0  0  0  0  0  0  0  0  0
    5.2050    1.0290   17.7790 C   0  0  0  0  0  0  0  0  0  0  0  0
    9.8280    3.1160   23.5760 C   0  0  0  0  0  0  0  0  0  0  0  0
    7.9230    4.5250   22.6120 C   0  0  0  0  0  0  0  0  0  0  0  0
    5.3620   -2.6920   26.0670 C   0  0  0  0  0  0  0  0  0  0  0  0
    3.2580   -3.8320   25.0830 C   0  0  0  0  0  0  0  0  0  0  0  0
   12.4280   -2.8730   24.8050 O   0  0  0  0  0  0  0  0  0  0  0  0
   10.3470    1.8330   23.9250 C   0  0  0  0  0  0  0  0  0  0  0  0
   13.0280   -0.6430   23.9790 C   0  0  0  0  0  0  0  0  0  0  0  0
    6.5290    4.5490   21.9960 C   0  0  0  0  0  0  0  0  0  0  0  0
   10.5890    4.2780   23.7990 C   0  0  0  0  0  0  0  0  0  0  0  0
    8.7980    5.7300   22.8920 C   0  0  0  0  0  0  0  0  0  0  0  0
    4.7220   -2.3780   27.2790 C   0  0  0  0  0  0  0  0  0  0  0  0
    2.5900   -3.4750   26.4250 C   0  0  0  0  0  0  0  0  0  0  0  0
   13.6520   -2.9300   25.4920 C   0  0  0  0  0  0  0  0  0  0  0  0
    9.4570    1.2350   24.8330 C   0  0  0  0  0  0  0  0  0  0  0  0
   10.0660    5.6730   23.4580 C   0  0  0  0  0  0  0  0  0  0  0  0
    3.3880   -2.7330   27.4950 C   0  0  0  0  0  0  0  0  0  0  0  0
   10.8810    6.7630   23.7290 O   0  0  0  0  0  0  0  0  0  0  0  0
    2.7550   -2.4280   28.6640 O   0  0  0  0  0  0  0  0  0  0  0  0
   11.8030    6.6300   24.7250 C   0  0  0  0  0  0  0  0  0  0  0  0
    1.4100   -2.2770   28.5860 C   0  0  0  0  0  0  0  0  0  0  0  0
  1  2  1  0
  2  3  1  6
  1  4  1  1
  1  5  1  0
  1  6  1  0
  2  7  1  0
  5  8  2  0
  5  9  1  0
  6 10  1  0
  6 11  1  1
  3 12  1  0
  3 13  2  0
 10 14  1  0
  7 15  2  0
  7 16  1  0
  8 17  1  0
  9 18  2  0
 11 19  1  0
 10 20  1  0
 14 21  2  0
 14 22  1  0
 16 23  2  0
 15 24  1  0
 12 25  1  0
 17 26  2  0
 18 26  1  0
 19 27  1  0
 19 28  1  0
 20 28  1  0
 26 29  1  0
 23 30  1  0
 24 30  2  0
 25 31  2  0
 25 32  1  0
 27 33  2  0
 27 34  1  0
 29 35  1  0
 31 36  1  0
 29 37  1  1
 32 38  1  0
 31 39  1  0
 32 40  2  0
 33 41  1  0
 34 42  2  0
 35 43  1  0
 36 44  1  0
 39 45  2  0
 40 45  1  0
 41 46  2  0
 42 46  1  0
 45 47  1  0
 46 48  1  0
 47 49  1  0
 48 50  1  0
M  END
