x1425-x2705-x3117
     RDKit          3D

 48 52  0  0  0  0  0  0  0  0999 V2000
    7.4030   -1.3270   22.4170 C   0  0  2  0  0  0  0  0  0  0  0  0
    6.9100   -0.0160   21.6390 C   0  0  1  0  0  0  0  0  0  0  0  0
    7.8180    1.2140   21.8990 C   0  0  0  0  0  0  0  0  0  0  0  0
    6.5080   -1.0480   23.5640 C   0  0  0  0  0  0  0  0  0  0  0  0
    8.8330   -1.3000   23.0320 C   0  0  0  0  0  0  0  0  0  0  0  0
    7.3020   -2.9310   22.1580 C   0  0  2  0  0  0  0  0  0  0  0  0
    6.3710    0.2820   20.2640 C   0  0  0  0  0  0  0  0  0  0  0  0
    9.0780   -1.2230   24.4730 N   0  0  0  0  0  0  0  0  0  0  0  0
    9.9990   -1.3650   22.3380 C   0  0  0  0  0  0  0  0  0  0  0  0
    6.2530   -3.6920   21.3590 N   0  0  0  0  0  0  0  0  0  0  0  0
    7.2070   -3.6260   23.5250 C   0  0  0  0  0  0  0  0  0  0  0  0
    7.5930    1.9770   22.7580 N   0  0  0  0  0  0  0  0  0  0  0  0
    8.7540    1.3430   21.1020 O   0  0  0  0  0  0  0  0  0  0  0  0
    6.0490   -3.6630   20.0040 C   0  0  0  0  0  0  0  0  0  0  0  0
    5.1620    0.9850   20.1590 C   0  0  0  0  0  0  0  0  0  0  0  0
    6.9400   -0.0250   19.0370 C   0  0  0  0  0  0  0  0  0  0  0  0
   10.4910   -1.2500   24.4830 N   0  0  0  0  0  0  0  0  0  0  0  0
   11.0360   -1.3340   23.2350 C   0  0  0  0  0  0  0  0  0  0  0  0
    5.7700   -3.9270   23.7630 N   0  0  0  0  0  0  0  0  0  0  0  0
    6.0830   -5.0320   21.8230 C   0  0  0  0  0  0  0  0  0  0  0  0
   12.4780   -1.3780   22.9380 C   0  0  0  0  0  0  0  0  0  0  0  0
    5.0180   -4.1610   19.6160 O   0  0  0  0  0  0  0  0  0  0  0  0
    7.0940   -3.0820   19.0490 C   0  0  0  0  0  0  0  0  0  0  0  0
    6.4070    0.3270   17.6920 N   0  0  0  0  0  0  0  0  0  0  0  0
    4.5840    1.3600   18.9590 C   0  0  0  0  0  0  0  0  0  0  0  0
    8.2070    3.2260   22.8960 C   0  0  0  0  0  0  0  0  0  0  0  0
    4.9690   -3.5030   24.9220 C   0  0  0  0  0  0  0  0  0  0  0  0
    5.3300   -5.0770   22.9940 C   0  0  0  0  0  0  0  0  0  0  0  0
   13.0900   -0.1470   23.1880 C   0  0  0  0  0  0  0  0  0  0  0  0
   13.1340   -2.4780   23.7640 C   0  0  0  0  0  0  0  0  0  0  0  0
   12.7880   -1.8260   21.5040 C   0  0  0  0  0  0  0  0  0  0  0  0
    5.1770    1.0550   17.7680 C   0  0  0  0  0  0  0  0  0  0  0  0
    9.4990    3.3030   23.4880 C   0  0  0  0  0  0  0  0  0  0  0  0
    7.5770    4.4360   22.4630 C   0  0  0  0  0  0  0  0  0  0  0  0
    5.5480   -2.7760   25.9670 C   0  0  0  0  0  0  0  0  0  0  0  0
    3.6210   -3.7960   25.0310 C   0  0  0  0  0  0  0  0  0  0  0  0
   10.1970    2.0600   23.9520 C   0  0  0  0  0  0  0  0  0  0  0  0
    6.2730    4.3840   21.8580 C   0  0  0  0  0  0  0  0  0  0  0  0
   13.0600   -2.3330   25.2830 C   0  0  0  0  0  0  0  0  0  0  0  0
   10.0950    4.5420   23.6240 C   0  0  0  0  0  0  0  0  0  0  0  0
    8.2160    5.6850   22.6190 C   0  0  0  0  0  0  0  0  0  0  0  0
    4.8720   -2.3200   27.1090 C   0  0  0  0  0  0  0  0  0  0  0  0
    2.8160   -3.3480   26.2260 C   0  0  0  0  0  0  0  0  0  0  0  0
    9.3570    1.4400   24.8760 C   0  0  0  0  0  0  0  0  0  0  0  0
    9.4810    5.7030   23.2070 C   0  0  0  0  0  0  0  0  0  0  0  0
    3.4860   -2.6220   27.2200 C   0  0  0  0  0  0  0  0  0  0  0  0
    2.8000   -2.1940   28.3210 O   0  0  0  0  0  0  0  0  0  0  0  0
    1.3830   -2.3240   28.2920 C   0  0  0  0  0  0  0  0  0  0  0  0
  1  2  1  0
  2  3  1  6
  1  4  1  1
  1  5  1  0
  1  6  1  0
  2  7  1  0
  5  8  2  0
  5  9  1  0
  6 10  1  0
  6 11  1  1
  3 12  1  0
  3 13  2  0
 10 14  1  0
  7 15  2  0
  7 16  1  0
  8 17  1  0
  9 18  2  0
 17 18  1  0
 11 19  1  0
 10 20  1  0
 18 21  1  0
 14 22  2  0
 14 23  1  0
 16 24  2  0
 15 25  1  0
 12 26  1  0
 19 27  1  0
 19 28  1  0
 20 28  1  0
 21 29  1  0
 21 30  1  0
 21 31  1  0
 24 32  1  0
 25 32  2  0
 26 33  2  0
 26 34  1  0
 27 35  2  0
 27 36  1  0
 33 37  1  0
 34 38  1  0
 30 39  1  0
 33 40  1  0
 34 41  2  0
 35 42  1  0
 36 43  2  0
 37 44  1  0
 40 45  2  0
 41 45  1  0
 42 46  2  0
 43 46  1  0
 46 47  1  0
 47 48  1  0
M  END
