x1425-x2646
     RDKit          3D

 36 39  0  0  0  0  0  0  0  0999 V2000
    1.5250   -2.3020   28.2440 C   0  0  0  0  0  0  0  0  0  0  0  0
    2.7250   -2.0370   28.2020 O   0  0  0  0  0  0  0  0  0  0  0  0
    3.4490   -2.5240   27.1440 C   0  0  0  0  0  0  0  0  0  0  0  0
    4.7920   -2.2090   27.0020 C   0  0  0  0  0  0  0  0  0  0  0  0
    2.8320   -3.3560   26.1880 C   0  0  0  0  0  0  0  0  0  0  0  0
    5.5250   -2.6980   25.9470 C   0  0  0  0  0  0  0  0  0  0  0  0
    3.5720   -3.8600   25.1060 C   0  0  0  0  0  0  0  0  0  0  0  0
    4.9310   -3.5270   24.9910 C   0  0  0  0  0  0  0  0  0  0  0  0
    5.7560   -3.9580   24.0000 N   0  0  0  0  0  0  0  0  0  0  0  0
    6.8020   -3.2210   23.5510 C   0  0  0  0  0  0  0  0  0  0  0  0
    5.2920   -5.0300   23.1060 C   0  0  0  0  0  0  0  0  0  0  0  0
    7.0130   -2.9340   22.1970 C   0  0  2  0  0  0  0  0  0  0  0  0
    6.4090   -5.3130   22.1240 C   0  0  0  0  0  0  0  0  0  0  0  0
    6.3110   -1.5710   21.8530 C   0  0  0  0  0  0  0  0  0  0  0  0
    6.5810   -4.1180   21.4040 N   0  0  0  0  0  0  0  0  0  0  0  0
    6.1430   -3.9690   20.1140 C   0  0  0  0  0  0  0  0  0  0  0  0
    7.0930   -0.5430   21.0890 N   0  0  0  0  0  0  0  0  0  0  0  0
    5.0880   -4.4690   19.7930 O   0  0  0  0  0  0  0  0  0  0  0  0
    7.0650   -3.2050   19.1620 C   0  0  0  0  0  0  0  0  0  0  0  0
    8.2640    0.1730   21.7010 C   0  0  0  0  0  0  0  0  0  0  0  0
    6.4310    0.1250   20.0490 C   0  0  0  0  0  0  0  0  0  0  0  0
    8.8660    1.1700   21.2460 O   0  0  0  0  0  0  0  0  0  0  0  0
    8.6290   -0.4070   22.9010 C   0  0  0  0  0  0  0  0  0  0  0  0
    6.8520   -0.0430   18.7130 C   0  0  0  0  0  0  0  0  0  0  0  0
    5.3600    0.9770   20.2640 C   0  0  0  0  0  0  0  0  0  0  0  0
    4.8050    1.2530   21.6260 C   0  0  0  0  0  0  0  0  0  0  0  0
    6.2820    0.5760   17.6550 N   0  0  0  0  0  0  0  0  0  0  0  0
    4.7460    1.6300   19.1960 C   0  0  0  0  0  0  0  0  0  0  0  0
   10.1190   -0.4080   22.9480 C   0  0  0  0  0  0  0  0  0  0  0  0
    5.1680    1.4670   17.8860 C   0  0  0  0  0  0  0  0  0  0  0  0
   10.7640    0.5210   23.7600 C   0  0  0  0  0  0  0  0  0  0  0  0
   10.8370   -1.3180   22.1860 C   0  0  0  0  0  0  0  0  0  0  0  0
   12.1360    0.5590   23.8210 C   0  0  0  0  0  0  0  0  0  0  0  0
   12.2140   -1.3350   22.2020 C   0  0  0  0  0  0  0  0  0  0  0  0
   13.0960   -2.4930   21.2190 Cl  0  0  0  0  0  0  0  0  0  0  0  0
   12.8890   -0.3240   23.0800 C   0  0  0  0  0  0  0  0  0  0  0  0
  1  2  1  0
  2  3  1  0
  3  4  2  0
  3  5  1  0
  4  6  1  0
  5  7  2  0
  6  8  2  0
  7  8  1  0
  8  9  1  0
  9 10  1  0
  9 11  1  0
 10 12  1  0
 11 13  1  0
 12 14  1  6
 12 15  1  0
 13 15  1  0
 15 16  1  0
 14 17  1  0
 16 18  2  0
 16 19  1  0
 17 20  1  0
 17 21  1  0
 20 22  2  0
 20 23  1  0
 21 24  2  0
 21 25  1  0
 25 26  1  0
 24 27  1  0
 25 28  2  0
 23 29  1  0
 27 30  2  0
 28 30  1  0
 29 31  2  0
 29 32  1  0
 31 33  1  0
 32 34  2  0
 34 35  1  0
 33 36  2  0
 34 36  1  0
M  END
