x1458-x2649
     RDKit          3D

 37 40  0  0  0  0  0  0  0  0999 V2000
    7.1450   -3.6840   26.2730 N   0  0  0  0  0  0  0  0  0  0  0  0
    7.3490   -5.0050   26.7690 C   0  0  0  0  0  0  0  0  0  0  0  0
    8.8130   -5.3410   26.9000 C   0  0  0  0  0  0  0  0  0  0  0  0
    7.9060   -2.5260   26.7840 C   0  0  0  0  0  0  0  0  0  0  0  0
    5.9810   -3.4940   25.3930 C   0  0  0  0  0  0  0  0  0  0  0  0
    4.8850   -3.1070   25.8130 O   0  0  0  0  0  0  0  0  0  0  0  0
    6.6230   -5.1980   28.1350 C   0  0  0  0  0  0  0  0  0  0  0  0
    8.6560   -1.9780   25.6150 C   0  0  0  0  0  0  0  0  0  0  0  0
    6.1410   -3.8050   23.8890 C   0  0  1  0  0  0  0  0  0  0  0  0
    7.7780   -1.2650   24.8970 C   0  0  0  0  0  0  0  0  0  0  0  0
    7.0010   -3.0220   23.0280 C   0  0  1  0  0  0  0  0  0  0  0  0
    6.4820   -5.1880   23.8230 C   0  0  0  0  0  0  0  0  0  0  0  0
    7.5950   -1.5890   23.5310 C   0  0  2  0  0  0  0  0  0  0  0  0
    7.8360   -3.9040   22.3380 C   0  0  0  0  0  0  0  0  0  0  0  0
    6.3250   -5.6890   22.5190 C   0  0  0  0  0  0  0  0  0  0  0  0
    8.6390   -1.1940   22.4410 C   0  0  1  0  0  0  0  0  0  0  0  0
    7.0130   -4.7410   21.6710 N   0  0  0  0  0  0  0  0  0  0  0  0
    6.4920   -4.3440   20.4140 C   0  0  0  0  0  0  0  0  0  0  0  0
    8.1060   -0.2520   21.6780 C   0  0  0  0  0  0  0  0  0  0  0  0
   10.0460   -0.7590   22.7850 C   0  0  0  0  0  0  0  0  0  0  0  0
    5.4430   -4.8400   20.0050 O   0  0  0  0  0  0  0  0  0  0  0  0
    7.2490   -3.3640   19.5310 C   0  0  0  0  0  0  0  0  0  0  0  0
    6.8660   -0.5960   21.0260 N   0  0  0  0  0  0  0  0  0  0  0  0
    8.8560    0.9640   21.5900 O   0  0  0  0  0  0  0  0  0  0  0  0
   10.3870    0.2190   23.7420 C   0  0  0  0  0  0  0  0  0  0  0  0
   11.0020   -1.3930   22.0480 C   0  0  0  0  0  0  0  0  0  0  0  0
    6.2970    0.1240   19.9850 C   0  0  0  0  0  0  0  0  0  0  0  0
   11.7410    0.5560   23.9280 C   0  0  0  0  0  0  0  0  0  0  0  0
   12.3200   -1.0910   22.1990 C   0  0  0  0  0  0  0  0  0  0  0  0
   13.3530   -1.9390   21.1990 Cl  0  0  0  0  0  0  0  0  0  0  0  0
    5.2660    1.0320   20.1900 C   0  0  0  0  0  0  0  0  0  0  0  0
    6.7620   -0.0530   18.7090 C   0  0  0  0  0  0  0  0  0  0  0  0
   12.7510   -0.1430   23.1040 C   0  0  0  0  0  0  0  0  0  0  0  0
    4.7270    1.2650   21.5650 C   0  0  0  0  0  0  0  0  0  0  0  0
    6.2350    0.6600   17.5640 N   0  0  0  0  0  0  0  0  0  0  0  0
    4.7210    1.7430   19.1180 C   0  0  0  0  0  0  0  0  0  0  0  0
    5.1340    1.6280   17.7900 C   0  0  0  0  0  0  0  0  0  0  0  0
  1  2  1  0
  2  3  1  0
  1  4  1  0
  1  5  1  0
  5  6  2  0
  2  7  1  0
  4  8  1  0
  5  9  1  0
  8 10  1  0
  9 11  1  0
  9 12  1  1
 13 10  1  1
 11 13  1  0
 11 14  1  1
 12 15  1  0
 13 16  1  0
 14 17  1  0
 15 17  1  0
 17 18  1  0
 16 19  1  1
 16 20  1  0
 18 21  2  0
 18 22  1  0
 19 23  1  0
 19 24  2  0
 20 25  2  0
 20 26  1  0
 23 27  1  0
 25 28  1  0
 26 29  2  0
 29 30  1  0
 27 31  2  0
 27 32  1  0
 28 33  2  0
 29 33  1  0
 31 34  1  0
 32 35  2  0
 31 36  1  0
 35 37  1  0
 36 37  2  0
M  END
