x1458-x0195
     RDKit          3D

 33 35  0  0  0  0  0  0  0  0999 V2000
    6.9110   -3.5170   26.1830 N   0  0  0  0  0  0  0  0  0  0  0  0
    7.5530   -4.6640   26.8690 C   0  0  0  0  0  0  0  0  0  0  0  0
    9.0300   -4.6750   27.2530 C   0  0  0  0  0  0  0  0  0  0  0  0
    7.6940   -2.2460   26.0400 C   0  0  0  0  0  0  0  0  0  0  0  0
    5.9360   -3.8380   25.2410 C   0  0  0  0  0  0  0  0  0  0  0  0
    4.7330   -3.5690   25.3960 O   0  0  0  0  0  0  0  0  0  0  0  0
    6.7650   -5.2770   28.0450 C   0  0  0  0  0  0  0  0  0  0  0  0
    7.8160   -1.3700   24.9480 C   0  0  0  0  0  0  0  0  0  0  0  0
    6.5040   -4.5160   24.0330 C   0  0  0  0  0  0  0  0  0  0  0  0
    8.6650   -0.0910   25.2150 C   0  0  0  0  0  0  0  0  0  0  0  0
    7.3050   -3.5970   23.4050 C   0  0  0  0  0  0  0  0  0  0  0  0
    5.4190   -5.1850   23.1900 C   0  0  0  0  0  0  0  0  0  0  0  0
    9.3110   -0.8020   24.0220 C   0  0  0  0  0  0  0  0  0  0  0  0
    7.8190   -4.0060   22.0490 C   0  0  0  0  0  0  0  0  0  0  0  0
    6.1130   -5.6160   21.8730 C   0  0  0  0  0  0  0  0  0  0  0  0
    6.8820   -4.6510   21.2490 N   0  0  0  0  0  0  0  0  0  0  0  0
   10.6100   -0.4860   24.0120 N   0  0  0  0  0  0  0  0  0  0  0  0
    6.3720   -4.0770   20.0940 C   0  0  0  0  0  0  0  0  0  0  0  0
   11.0830    0.7420   23.6970 C   0  0  0  0  0  0  0  0  0  0  0  0
   11.4840   -1.5490   23.8400 C   0  0  0  0  0  0  0  0  0  0  0  0
    5.2070   -4.2450   19.7610 O   0  0  0  0  0  0  0  0  0  0  0  0
    7.3440   -3.2860   19.2140 C   0  0  0  0  0  0  0  0  0  0  0  0
   12.5030    0.8500   23.1330 C   0  0  0  0  0  0  0  0  0  0  0  0
   12.2700   -1.4770   22.6910 C   0  0  0  0  0  0  0  0  0  0  0  0
   10.3870    1.9560   23.8410 C   0  0  0  0  0  0  0  0  0  0  0  0
   13.2200   -0.3290   22.9720 C   0  0  0  0  0  0  0  0  0  0  0  0
   13.0870    2.1200   22.7820 C   0  0  0  0  0  0  0  0  0  0  0  0
   10.9750    3.3270   23.4650 C   0  0  0  0  0  0  0  0  0  0  0  0
   10.0950    4.9560   23.6260 S   0  0  0  0  0  0  0  0  0  0  0  0
   12.3620    3.4480   22.9160 C   0  0  0  0  0  0  0  0  0  0  0  0
    9.8130    5.2830   24.9960 O   0  0  0  0  0  0  0  0  0  0  0  0
    9.0370    4.9920   22.6590 O   0  0  0  0  0  0  0  0  0  0  0  0
   11.3170    6.0650   23.1540 N   0  0  0  0  0  0  0  0  0  0  0  0
  1  2  1  0
  2  3  1  0
  1  4  1  0
  1  5  1  0
  5  6  2  0
  2  7  1  0
  4  8  1  0
  5  9  1  0
  8 10  1  0
  9 11  1  0
  9 12  1  0
 10 13  1  0
 11 14  1  0
 12 15  1  0
 14 16  1  0
 15 16  1  0
 13 17  1  0
 16 18  1  0
 17 19  1  0
 17 20  1  0
 18 21  2  0
 18 22  1  0
 19 23  2  0
 20 24  1  0
 19 25  1  0
 23 26  1  0
 24 26  1  0
 23 27  1  0
 25 28  2  0
 28 29  1  0
 27 30  2  0
 28 30  1  0
 29 31  2  0
 29 32  2  0
 29 33  1  0
M  END
