x1458-x2964
     RDKit          3D

 36 38  0  0  0  0  0  0  0  0999 V2000
    7.5040   -3.4760   26.6320 N   0  0  0  0  0  0  0  0  0  0  0  0
    7.8380   -4.6070   27.4230 C   0  0  0  0  0  0  0  0  0  0  0  0
    8.9340   -5.3980   26.7550 C   0  0  0  0  0  0  0  0  0  0  0  0
    7.8880   -2.1130   27.1170 C   0  0  0  0  0  0  0  0  0  0  0  0
    6.4560   -3.7150   25.6230 C   0  0  0  0  0  0  0  0  0  0  0  0
    5.2570   -3.4690   25.8270 O   0  0  0  0  0  0  0  0  0  0  0  0
    6.5800   -5.5140   27.6330 C   0  0  0  0  0  0  0  0  0  0  0  0
    6.9050   -4.2650   24.3010 C   0  0  2  0  0  0  0  0  0  0  0  0
    7.6770   -3.3120   23.5620 C   0  0  0  0  0  0  0  0  0  0  0  0
    5.7520   -4.7570   23.6510 C   0  0  0  0  0  0  0  0  0  0  0  0
    7.6320   -3.3790   22.1640 C   0  0  0  0  0  0  0  0  0  0  0  0
    5.8750   -4.7800   22.2840 C   0  0  0  0  0  0  0  0  0  0  0  0
    6.3540   -3.5720   21.7600 C   0  0  2  0  0  0  0  0  0  0  0  0
    6.2160   -3.8470   20.2370 C   0  0  0  0  0  0  0  0  0  0  0  0
    5.5260   -2.4530   21.9860 C   0  0  0  0  0  0  0  0  0  0  0  0
    5.3610   -4.6600   19.9120 O   0  0  0  0  0  0  0  0  0  0  0  0
    7.0630   -3.1690   19.1810 C   0  0  0  0  0  0  0  0  0  0  0  0
    6.0710   -1.2030   22.0860 C   0  0  0  0  0  0  0  0  0  0  0  0
    6.8980   -0.6240   21.1460 N   0  0  0  0  0  0  0  0  0  0  0  0
    8.0970    0.0680   21.6640 C   0  0  0  0  0  0  0  0  0  0  0  0
    6.2610    0.0670   20.0100 C   0  0  0  0  0  0  0  0  0  0  0  0
    8.5500    1.3200   21.0990 O   0  0  0  0  0  0  0  0  0  0  0  0
    8.8700   -0.5190   22.7510 N   0  0  0  0  0  0  0  0  0  0  0  0
    5.0620    0.7660   20.1670 C   0  0  0  0  0  0  0  0  0  0  0  0
    6.8980    0.0090   18.7670 C   0  0  0  0  0  0  0  0  0  0  0  0
    4.4960    1.4190   19.0780 C   0  0  0  0  0  0  0  0  0  0  0  0
    6.4090    0.6220   17.6780 N   0  0  0  0  0  0  0  0  0  0  0  0
   10.2920   -0.2840   22.8220 C   0  0  0  0  0  0  0  0  0  0  0  0
    3.2470    2.1710   19.1320 N   0  0  0  0  0  0  0  0  0  0  0  0
    5.1570    1.3480   17.8780 C   0  0  0  0  0  0  0  0  0  0  0  0
   10.8790    0.7910   23.4760 C   0  0  0  0  0  0  0  0  0  0  0  0
   11.0900   -1.1970   22.1690 C   0  0  0  0  0  0  0  0  0  0  0  0
   12.2480    0.9680   23.4780 C   0  0  0  0  0  0  0  0  0  0  0  0
   12.4530   -1.0260   22.1680 C   0  0  0  0  0  0  0  0  0  0  0  0
   13.3460   -2.1880   21.3250 Cl  0  0  0  0  0  0  0  0  0  0  0  0
   13.0590    0.0560   22.8170 C   0  0  0  0  0  0  0  0  0  0  0  0
  1  2  1  0
  2  3  1  0
  1  4  1  0
  1  5  1  0
  5  6  2  0
  2  7  1  0
  8  5  1  1
  8  9  1  0
  8 10  1  0
  9 11  1  0
 10 12  1  0
 11 13  1  0
 12 13  1  0
 13 14  1  0
 13 15  1  1
 14 16  2  0
 14 17  1  0
 15 18  1  0
 18 19  1  0
 19 20  1  0
 19 21  1  0
 20 22  2  0
 20 23  1  0
 21 24  2  0
 21 25  1  0
 24 26  1  0
 25 27  2  0
 23 28  1  0
 26 29  1  0
 26 30  2  0
 27 30  1  0
 28 31  2  0
 28 32  1  0
 31 33  1  0
 32 34  2  0
 34 35  1  0
 33 36  2  0
 34 36  1  0
M  END
