x1458-x2705
     RDKit          3D

 46 49  0  0  0  0  0  0  0  0999 V2000
    7.5090   -0.9590   21.7820 N   0  0  0  0  0  0  0  0  0  0  0  0
    6.9100    0.3760   21.5720 C   0  0  1  0  0  0  0  0  0  0  0  0
    7.8710    1.5270   21.8630 C   0  0  0  0  0  0  0  0  0  0  0  0
    6.6330   -1.9580   22.0160 C   0  0  0  0  0  0  0  0  0  0  0  0
    8.6980   -1.0230   22.5580 C   0  0  0  0  0  0  0  0  0  0  0  0
    6.3630    0.5660   20.2290 C   0  0  0  0  0  0  0  0  0  0  0  0
    8.8170   -0.8120   24.0350 N   0  0  0  0  0  0  0  0  0  0  0  0
    9.9670   -1.2950   22.1190 C   0  0  0  0  0  0  0  0  0  0  0  0
    7.3510   -3.2650   22.2780 C   0  0  2  0  0  0  0  0  0  0  0  0
    7.3620    2.3940   22.7510 N   0  0  0  0  0  0  0  0  0  0  0  0
    8.9740    1.6700   21.3000 O   0  0  0  0  0  0  0  0  0  0  0  0
    5.2550    1.4000   20.1320 C   0  0  0  0  0  0  0  0  0  0  0  0
    6.8790   -0.0020   19.0790 C   0  0  0  0  0  0  0  0  0  0  0  0
   10.1450   -0.9770   24.2800 N   0  0  0  0  0  0  0  0  0  0  0  0
   10.8840   -1.2760   23.1340 C   0  0  0  0  0  0  0  0  0  0  0  0
    6.6720   -4.3690   21.6100 N   0  0  0  0  0  0  0  0  0  0  0  0
    7.3250   -3.4930   23.6130 C   0  0  0  0  0  0  0  0  0  0  0  0
   12.3760   -1.4970   23.1520 C   0  0  0  0  0  0  0  0  0  0  0  0
    6.2030   -4.2530   20.3130 C   0  0  0  0  0  0  0  0  0  0  0  0
    6.3300    0.2430   17.7740 N   0  0  0  0  0  0  0  0  0  0  0  0
    4.6860    1.6700   18.9010 C   0  0  0  0  0  0  0  0  0  0  0  0
    8.0670    3.5780   22.9650 C   0  0  0  0  0  0  0  0  0  0  0  0
    6.0850   -3.9440   24.0410 C   0  0  2  0  0  0  0  0  0  0  0  0
    6.4070   -5.5930   22.3690 C   0  0  0  0  0  0  0  0  0  0  0  0
   13.0420   -0.1290   23.2640 C   0  0  0  0  0  0  0  0  0  0  0  0
   12.8210   -2.3690   24.2950 C   0  0  0  0  0  0  0  0  0  0  0  0
   12.8390   -2.1370   21.8300 C   0  0  0  0  0  0  0  0  0  0  0  0
    5.2370   -4.8910   19.9550 O   0  0  0  0  0  0  0  0  0  0  0  0
    6.0650   -3.8600   25.5800 C   0  0  0  0  0  0  0  0  0  0  0  0
    6.9730   -3.3530   19.3730 C   0  0  0  0  0  0  0  0  0  0  0  0
    5.1700    1.1430   17.7360 C   0  0  0  0  0  0  0  0  0  0  0  0
    9.2580    3.4870   23.6810 C   0  0  0  0  0  0  0  0  0  0  0  0
    7.5520    4.7700   22.4470 C   0  0  0  0  0  0  0  0  0  0  0  0
    5.6480   -5.3250   23.5150 C   0  0  0  0  0  0  0  0  0  0  0  0
    9.7240    2.1530   24.2220 C   0  0  0  0  0  0  0  0  0  0  0  0
    6.2510    4.8190   21.6900 C   0  0  0  0  0  0  0  0  0  0  0  0
    7.0610   -4.4460   26.2720 N   0  0  0  0  0  0  0  0  0  0  0  0
    5.0050   -3.1760   26.1980 O   0  0  0  0  0  0  0  0  0  0  0  0
    9.9480    4.6170   23.8600 C   0  0  0  0  0  0  0  0  0  0  0  0
    8.2620    5.9540   22.6340 C   0  0  0  0  0  0  0  0  0  0  0  0
   10.9680    1.8570   23.8010 C   0  0  0  0  0  0  0  0  0  0  0  0
    6.8200   -4.9330   27.5150 C   0  0  0  0  0  0  0  0  0  0  0  0
    8.0120   -5.1660   25.5620 C   0  0  0  0  0  0  0  0  0  0  0  0
    9.4550    5.9040   23.3280 C   0  0  0  0  0  0  0  0  0  0  0  0
    8.0260   -5.6210   28.1290 C   0  0  0  0  0  0  0  0  0  0  0  0
    5.8580   -5.9210   27.6420 C   0  0  0  0  0  0  0  0  0  0  0  0
  1  2  1  0
  2  3  1  6
  1  4  1  0
  1  5  1  0
  2  6  1  0
  5  7  2  0
  5  8  1  0
  9  4  1  1
  3 10  1  0
  3 11  2  0
  6 12  2  0
  6 13  1  0
  7 14  1  0
  8 15  2  0
 14 15  1  0
  9 16  1  0
  9 17  1  0
 15 18  1  0
 16 19  1  0
 13 20  2  0
 12 21  1  0
 10 22  1  0
 17 23  1  0
 16 24  1  0
 18 25  1  0
 18 26  1  0
 18 27  1  0
 19 28  2  0
 23 29  1  1
 19 30  1  0
 20 31  1  0
 21 31  2  0
 22 32  2  0
 22 33  1  0
 23 34  1  0
 24 34  1  0
 32 35  1  0
 33 36  1  0
 29 37  1  0
 29 38  2  0
 32 39  1  0
 33 40  2  0
 35 41  1  0
 37 42  1  0
 37 43  1  0
 39 44  2  0
 40 44  1  0
 42 45  1  0
 42 46  1  0
M  END
