x1458-x2608
     RDKit          3D

 33 35  0  0  0  0  0  0  0  0999 V2000
    7.4510   -3.5700   26.4840 N   0  0  0  0  0  0  0  0  0  0  0  0
    7.7690   -4.6430   27.3560 C   0  0  0  0  0  0  0  0  0  0  0  0
    8.9230   -5.4360   26.8010 C   0  0  0  0  0  0  0  0  0  0  0  0
    7.9100   -2.1970   26.8590 C   0  0  0  0  0  0  0  0  0  0  0  0
    6.3480   -3.8280   25.5330 C   0  0  0  0  0  0  0  0  0  0  0  0
    5.1660   -3.7190   25.8890 O   0  0  0  0  0  0  0  0  0  0  0  0
    6.5310   -5.5800   27.5540 C   0  0  0  0  0  0  0  0  0  0  0  0
    6.6350   -4.1930   24.0820 C   0  0  1  0  0  0  0  0  0  0  0  0
    7.9650   -4.0820   23.6630 C   0  0  0  0  0  0  0  0  0  0  0  0
    5.9980   -5.3020   23.5620 C   0  0  0  0  0  0  0  0  0  0  0  0
    7.8900   -3.5470   22.3900 C   0  0  2  0  0  0  0  0  0  0  0  0
    6.4770   -5.4220   22.2600 C   0  0  0  0  0  0  0  0  0  0  0  0
    7.7790   -2.0690   22.7540 C   0  0  0  0  0  0  0  0  0  0  0  0
    6.8780   -4.2460   21.7010 N   0  0  0  0  0  0  0  0  0  0  0  0
    6.4780   -4.0280   20.3640 C   0  0  0  0  0  0  0  0  0  0  0  0
    8.6420   -1.1930   21.9510 N   0  0  0  0  0  0  0  0  0  0  0  0
    5.4480   -4.5760   19.9450 O   0  0  0  0  0  0  0  0  0  0  0  0
    7.2850   -3.2010   19.3880 C   0  0  0  0  0  0  0  0  0  0  0  0
    7.8890   -0.2300   21.2790 C   0  0  0  0  0  0  0  0  0  0  0  0
    9.9710   -0.8480   22.2730 C   0  0  0  0  0  0  0  0  0  0  0  0
    8.3450    1.0970   21.0110 O   0  0  0  0  0  0  0  0  0  0  0  0
    6.6890   -0.6080   20.8730 N   0  0  0  0  0  0  0  0  0  0  0  0
   11.1270   -1.6040   22.3820 C   0  0  0  0  0  0  0  0  0  0  0  0
   10.4350    0.8820   22.6040 S   0  0  0  0  0  0  0  0  0  0  0  0
   12.0690    0.4810   22.8090 C   0  0  0  0  0  0  0  0  0  0  0  0
   12.2680   -0.8870   22.6710 C   0  0  0  0  0  0  0  0  0  0  0  0
    6.1320    0.0990   19.8340 C   0  0  0  0  0  0  0  0  0  0  0  0
   12.9260    1.4290   23.0520 C   0  0  0  0  0  0  0  0  0  0  0  0
    6.5990    0.0630   18.5540 C   0  0  0  0  0  0  0  0  0  0  0  0
    5.0600    0.8670   20.2360 C   0  0  0  0  0  0  0  0  0  0  0  0
    6.0190    0.8140   17.5980 N   0  0  0  0  0  0  0  0  0  0  0  0
    4.4340    1.6570   19.3000 C   0  0  0  0  0  0  0  0  0  0  0  0
    4.8830    1.6720   17.9750 C   0  0  0  0  0  0  0  0  0  0  0  0
  1  2  1  0
  2  3  1  0
  1  4  1  0
  1  5  1  0
  5  6  2  0
  2  7  1  0
  8  5  1  1
  8  9  1  0
  8 10  1  0
  9 11  1  0
 10 12  1  0
 11 13  1  1
 11 14  1  0
 12 14  1  0
 14 15  1  0
 13 16  1  0
 15 17  2  0
 15 18  1  0
 16 19  1  0
 16 20  1  0
 19 21  2  0
 19 22  1  0
 20 23  2  0
 20 24  1  0
 24 25  1  0
 23 26  1  0
 25 26  2  0
 22 27  1  0
 25 28  1  0
 27 29  2  0
 27 30  1  0
 29 31  1  0
 30 32  2  0
 31 33  2  0
 32 33  1  0
M  END
