x1458-x2776
     RDKit          3D

 47 50  0  0  0  0  0  0  0  0999 V2000
    7.2740   -0.9730   21.8900 N   0  0  0  0  0  0  0  0  0  0  0  0
    6.7690    0.3970   21.6850 C   0  0  1  0  0  0  0  0  0  0  0  0
    7.9510    1.3910   21.8260 C   0  0  0  0  0  0  0  0  0  0  0  0
    6.3440   -2.0390   22.0940 C   0  0  0  0  0  0  0  0  0  0  0  0
    8.4980   -1.1870   22.5200 C   0  0  0  0  0  0  0  0  0  0  0  0
    6.1640    0.7090   20.3200 C   0  0  0  0  0  0  0  0  0  0  0  0
    9.4600   -1.5700   21.6530 C   0  0  0  0  0  0  0  0  0  0  0  0
    8.7210   -1.0330   23.9010 C   0  0  0  0  0  0  0  0  0  0  0  0
    7.1690   -3.3650   22.2440 C   0  0  2  0  0  0  0  0  0  0  0  0
    7.8570    2.1570   22.9140 N   0  0  0  0  0  0  0  0  0  0  0  0
    8.8810    1.4860   21.0190 O   0  0  0  0  0  0  0  0  0  0  0  0
    5.0370    1.4860   20.1410 C   0  0  0  0  0  0  0  0  0  0  0  0
    6.8310    0.1660   19.1850 C   0  0  0  0  0  0  0  0  0  0  0  0
   10.7670   -1.8280   22.2060 C   0  0  0  0  0  0  0  0  0  0  0  0
    9.9700   -1.2760   24.4650 C   0  0  0  0  0  0  0  0  0  0  0  0
    6.5760   -4.4970   21.5170 N   0  0  0  0  0  0  0  0  0  0  0  0
    7.5390   -3.6190   23.5630 C   0  0  0  0  0  0  0  0  0  0  0  0
    6.1370   -4.2110   20.2550 C   0  0  0  0  0  0  0  0  0  0  0  0
    6.4210    0.3810   17.9050 N   0  0  0  0  0  0  0  0  0  0  0  0
    4.5690    1.7410   18.8870 C   0  0  0  0  0  0  0  0  0  0  0  0
    8.5870    3.3100   23.1460 C   0  0  0  0  0  0  0  0  0  0  0  0
   11.0180   -1.6740   23.6540 C   0  0  0  0  0  0  0  0  0  0  0  0
    6.7470   -4.6460   24.3500 C   0  0  1  0  0  0  0  0  0  0  0  0
    6.3340   -5.7580   22.1990 C   0  0  0  0  0  0  0  0  0  0  0  0
   12.3530   -1.9280   24.2190 C   0  0  2  0  0  0  0  0  0  0  0  0
    5.1050   -4.6960   19.8730 O   0  0  0  0  0  0  0  0  0  0  0  0
    6.0880   -3.9880   25.5500 C   0  0  0  0  0  0  0  0  0  0  0  0
    6.9710   -3.3160   19.3620 C   0  0  0  0  0  0  0  0  0  0  0  0
    5.2060    1.2350   17.8050 C   0  0  0  0  0  0  0  0  0  0  0  0
    9.9340    3.2470   23.5730 C   0  0  0  0  0  0  0  0  0  0  0  0
    8.0780    4.5990   22.9830 C   0  0  0  0  0  0  0  0  0  0  0  0
    5.8430   -5.5100   23.4590 C   0  0  0  0  0  0  0  0  0  0  0  0
   12.2730   -2.7530   25.3610 O   0  0  0  0  0  0  0  0  0  0  0  0
   10.6230    1.9240   23.7830 C   0  0  0  0  0  0  0  0  0  0  0  0
   12.8930   -0.5730   24.5960 C   0  0  0  0  0  0  0  0  0  0  0  0
    6.8800   -3.4800   26.6740 N   0  0  0  0  0  0  0  0  0  0  0  0
    4.8660   -3.8860   25.5070 O   0  0  0  0  0  0  0  0  0  0  0  0
   10.6870    4.4190   23.8190 C   0  0  0  0  0  0  0  0  0  0  0  0
    8.8190    5.7410   23.2270 C   0  0  0  0  0  0  0  0  0  0  0  0
   13.5450   -3.2290   25.6900 C   0  0  0  0  0  0  0  0  0  0  0  0
    7.5960   -4.4690   27.5270 C   0  0  0  0  0  0  0  0  0  0  0  0
    6.4720   -2.3960   27.3460 C   0  0  0  0  0  0  0  0  0  0  0  0
   10.1430    5.6990   23.6550 C   0  0  0  0  0  0  0  0  0  0  0  0
   10.9650    6.7610   23.9310 O   0  0  0  0  0  0  0  0  0  0  0  0
    8.9060   -4.6990   27.0800 C   0  0  0  0  0  0  0  0  0  0  0  0
    6.9680   -5.6480   27.6440 C   0  0  0  0  0  0  0  0  0  0  0  0
   11.8030    6.6630   25.0780 C   0  0  0  0  0  0  0  0  0  0  0  0
  1  2  1  0
  2  3  1  6
  1  4  1  0
  1  5  1  0
  2  6  1  0
  5  7  2  0
  5  8  1  0
  9  4  1  1
  3 10  1  0
  3 11  2  0
  6 12  2  0
  6 13  1  0
  7 14  1  0
  8 15  2  0
  9 16  1  0
  9 17  1  0
 16 18  1  0
 13 19  2  0
 12 20  1  0
 10 21  1  0
 14 22  2  0
 15 22  1  0
 17 23  1  0
 16 24  1  0
 22 25  1  0
 18 26  2  0
 23 27  1  1
 18 28  1  0
 19 29  1  0
 20 29  2  0
 21 30  2  0
 21 31  1  0
 23 32  1  0
 24 32  1  0
 25 33  1  0
 30 34  1  0
 25 35  1  1
 27 36  1  0
 27 37  2  0
 30 38  1  0
 31 39  2  0
 33 40  1  0
 36 41  1  0
 36 42  1  0
 38 43  2  0
 39 43  1  0
 43 44  1  0
 41 45  1  0
 41 46  1  0
 44 47  1  0
M  END
