x1458-x1093
     RDKit          3D

 36 39  0  0  0  0  0  0  0  0999 V2000
    7.1060   -3.6610   26.6330 N   0  0  0  0  0  0  0  0  0  0  0  0
    7.7400   -4.8740   27.0110 C   0  0  0  0  0  0  0  0  0  0  0  0
    9.1020   -4.6120   27.5970 C   0  0  0  0  0  0  0  0  0  0  0  0
    6.7610   -2.6950   27.7110 C   0  0  0  0  0  0  0  0  0  0  0  0
    6.2420   -3.7960   25.4480 C   0  0  0  0  0  0  0  0  0  0  0  0
    5.0510   -3.4570   25.4530 O   0  0  0  0  0  0  0  0  0  0  0  0
    6.8300   -5.6400   28.0230 C   0  0  0  0  0  0  0  0  0  0  0  0
    6.8580   -4.3580   24.2040 C   0  0  2  0  0  0  0  0  0  0  0  0
    7.7020   -3.4120   23.5480 C   0  0  0  0  0  0  0  0  0  0  0  0
    5.8550   -4.9290   23.4080 C   0  0  0  0  0  0  0  0  0  0  0  0
    7.3830   -3.0630   22.2240 C   0  0  2  0  0  0  0  0  0  0  0  0
    6.3830   -5.2490   22.1870 C   0  0  0  0  0  0  0  0  0  0  0  0
    7.0850   -1.6720   22.0870 C   0  0  0  0  0  0  0  0  0  0  0  0
    6.5020   -3.9520   21.5510 N   0  0  0  0  0  0  0  0  0  0  0  0
    6.2000   -3.9730   20.2210 C   0  0  0  0  0  0  0  0  0  0  0  0
    8.0080   -0.9510   21.0820 C   0  0  2  0  0  0  0  0  0  0  0  0
    5.2320   -4.6370   19.8880 O   0  0  0  0  0  0  0  0  0  0  0  0
    7.0180   -3.2570   19.1870 C   0  0  0  0  0  0  0  0  0  0  0  0
    8.8280    0.0550   21.6460 C   0  0  0  0  0  0  0  0  0  0  0  0
    7.0950   -0.2880   20.0650 C   0  0  0  0  0  0  0  0  0  0  0  0
    8.8280    1.4390   21.2340 O   0  0  0  0  0  0  0  0  0  0  0  0
    9.6900   -0.4020   22.6040 N   0  0  0  0  0  0  0  0  0  0  0  0
    7.2870   -0.4060   18.6860 C   0  0  0  0  0  0  0  0  0  0  0  0
    5.9800    0.5000   20.2040 C   0  0  0  0  0  0  0  0  0  0  0  0
   10.4670    0.6150   23.3770 C   0  0  0  0  0  0  0  0  0  0  0  0
   10.0970   -1.8300   22.7350 C   0  0  0  0  0  0  0  0  0  0  0  0
    6.3520    0.2730   17.9870 N   0  0  0  0  0  0  0  0  0  0  0  0
    5.4940    0.8660   18.9760 C   0  0  0  0  0  0  0  0  0  0  0  0
    5.2570    0.9890   21.4730 C   0  0  0  0  0  0  0  0  0  0  0  0
   11.7950    0.1980   23.4290 C   0  0  0  0  0  0  0  0  0  0  0  0
   11.4780   -1.8440   22.7210 C   0  0  0  0  0  0  0  0  0  0  0  0
    4.3040    1.7140   18.7500 N   0  0  0  0  0  0  0  0  0  0  0  0
    4.1390    1.7830   21.2130 C   0  0  0  0  0  0  0  0  0  0  0  0
   12.0250   -1.1180   23.6740 N   0  0  0  0  0  0  0  0  0  0  0  0
    3.7090    2.1100   19.9280 C   0  0  0  0  0  0  0  0  0  0  0  0
   13.4370   -1.3800   23.6860 C   0  0  0  0  0  0  0  0  0  0  0  0
  1  2  1  0
  2  3  1  0
  1  4  1  0
  1  5  1  0
  5  6  2  0
  2  7  1  0
  8  5  1  1
  8  9  1  0
  8 10  1  0
  9 11  1  0
 10 12  1  0
 11 13  1  1
 11 14  1  0
 12 14  1  0
 14 15  1  0
 16 13  1  1
 15 17  2  0
 15 18  1  0
 16 19  1  0
 16 20  1  0
 19 21  2  0
 19 22  1  0
 20 23  2  0
 20 24  1  0
 22 25  1  0
 22 26  1  0
 23 27  1  0
 24 28  2  0
 27 28  1  0
 24 29  1  0
 25 30  1  0
 26 31  1  0
 28 32  1  0
 29 33  2  0
 30 34  1  0
 31 34  1  0
 32 35  2  0
 33 35  1  0
 34 36  1  0
M  END
