x1458-x3113
     RDKit          3D

 43 45  0  0  0  0  0  0  0  0999 V2000
    7.1270   -1.4560   22.6080 C   0  0  2  0  0  0  0  0  0  0  0  0
    6.9110   -0.0840   21.8190 C   0  0  1  0  0  0  0  0  0  0  0  0
    8.0760    0.9500   21.9690 C   0  0  0  0  0  0  0  0  0  0  0  0
    6.1800   -1.4040   23.8170 C   0  0  0  0  0  0  0  0  0  0  0  0
    8.5720   -1.5420   23.0450 C   0  0  0  0  0  0  0  0  0  0  0  0
    7.3180   -3.0560   22.1570 C   0  0  2  0  0  0  0  0  0  0  0  0
    6.2640    0.1990   20.4480 C   0  0  0  0  0  0  0  0  0  0  0  0
    9.5750   -1.6460   22.0810 C   0  0  0  0  0  0  0  0  0  0  0  0
    8.9140   -1.5620   24.3850 C   0  0  0  0  0  0  0  0  0  0  0  0
    6.2880   -3.8240   21.4520 N   0  0  0  0  0  0  0  0  0  0  0  0
    7.8350   -3.9340   23.1720 C   0  0  0  0  0  0  0  0  0  0  0  0
    8.3650    1.4160   22.9680 N   0  0  0  0  0  0  0  0  0  0  0  0
    8.7190    1.3640   20.8000 O   0  0  0  0  0  0  0  0  0  0  0  0
    6.1330   -3.8200   20.1010 C   0  0  0  0  0  0  0  0  0  0  0  0
    5.0200    0.8300   20.3560 C   0  0  0  0  0  0  0  0  0  0  0  0
    6.9660   -0.1560   19.3130 C   0  0  0  0  0  0  0  0  0  0  0  0
   10.9680   -1.7940   22.5010 C   0  0  0  0  0  0  0  0  0  0  0  0
   10.2360   -1.7060   24.7490 C   0  0  0  0  0  0  0  0  0  0  0  0
    6.9700   -4.7440   23.9560 C   0  0  1  0  0  0  0  0  0  0  0  0
    6.1300   -5.2380   21.8930 C   0  0  0  0  0  0  0  0  0  0  0  0
    9.3110    2.5650   22.8900 C   0  0  0  0  0  0  0  0  0  0  0  0
    5.1170   -4.3460   19.7160 O   0  0  0  0  0  0  0  0  0  0  0  0
    6.3590   -3.9430   25.1340 C   0  0  0  0  0  0  0  0  0  0  0  0
    7.1760   -3.1880   19.1590 C   0  0  0  0  0  0  0  0  0  0  0  0
    6.5020    0.0890   18.0770 N   0  0  0  0  0  0  0  0  0  0  0  0
    4.4950    1.1100   19.0970 C   0  0  0  0  0  0  0  0  0  0  0  0
   11.2350   -1.8240   23.8020 C   0  0  0  0  0  0  0  0  0  0  0  0
    5.8980   -5.2550   23.2440 C   0  0  0  0  0  0  0  0  0  0  0  0
   10.7340    2.0370   23.2230 C   0  0  0  0  0  0  0  0  0  0  0  0
   12.6310   -1.9700   24.3260 C   0  0  0  0  0  0  0  0  0  0  0  0
    7.1760   -3.7310   26.3280 N   0  0  0  0  0  0  0  0  0  0  0  0
    5.1980   -3.5220   25.0620 O   0  0  0  0  0  0  0  0  0  0  0  0
    5.1970    0.7650   17.9510 C   0  0  0  0  0  0  0  0  0  0  0  0
   11.8320    3.1050   23.1540 C   0  0  0  0  0  0  0  0  0  0  0  0
   13.5440   -2.2720   23.1570 C   0  0  0  0  0  0  0  0  0  0  0  0
   12.9490   -3.0500   25.3740 C   0  0  0  0  0  0  0  0  0  0  0  0
   12.8470   -0.6110   24.9410 C   0  0  0  0  0  0  0  0  0  0  0  0
    7.7950   -4.8670   27.0450 C   0  0  0  0  0  0  0  0  0  0  0  0
    6.6690   -2.6260   27.1290 C   0  0  0  0  0  0  0  0  0  0  0  0
   11.9750    3.8440   22.2030 O   0  0  0  0  0  0  0  0  0  0  0  0
    9.0860   -4.6810   27.5320 C   0  0  0  0  0  0  0  0  0  0  0  0
    6.8390   -5.4580   27.8600 C   0  0  0  0  0  0  0  0  0  0  0  0
   13.0370    4.7580   22.4640 C   0  0  0  0  0  0  0  0  0  0  0  0
  1  2  1  0
  2  3  1  6
  1  4  1  1
  1  5  1  0
  1  6  1  0
  2  7  1  0
  5  8  2  0
  5  9  1  0
  6 10  1  0
  6 11  1  1
  3 12  1  0
  3 13  2  0
 10 14  1  0
  7 15  2  0
  7 16  1  0
  8 17  1  0
  9 18  2  0
 11 19  1  0
 10 20  1  0
 12 21  1  0
 14 22  2  0
 19 23  1  1
 14 24  1  0
 16 25  2  0
 15 26  1  0
 17 27  2  0
 18 27  1  0
 19 28  1  0
 20 28  1  0
 21 29  1  0
 27 30  1  0
 23 31  1  0
 23 32  2  0
 25 33  1  0
 26 33  2  0
 29 34  1  0
 30 35  1  0
 30 36  1  0
 30 37  1  0
 31 38  1  0
 31 39  1  0
 34 40  1  0
 38 41  1  0
 38 42  1  0
 40 43  1  0
M  END
