x1458-x1119-x3113-x3110-x1358
     RDKit          3D

 79 85  0  0  0  0  0  0  0  0999 V2000
    8.1890    1.5870   23.2960 N   0  0  0  0  0  0  0  0  0  0  0  0
    9.1010    2.6130   23.7960 C   0  0  0  0  0  0  0  0  0  0  0  0
   10.5560    2.2880   23.4850 C   0  0  0  0  0  0  0  0  0  0  0  0
    8.0620    1.3230   21.9870 C   0  0  0  0  0  0  0  0  0  0  0  0
    8.8040    1.8090   21.1300 O   0  0  0  0  0  0  0  0  0  0  0  0
    7.0050    0.4490   21.7760 C   0  0  2  0  0  0  0  0  0  0  0  0
    7.3520   -0.9460   21.8970 N   0  0  0  0  0  0  0  0  0  0  0  0
   11.3240    3.5960   23.2760 C   0  0  0  0  0  0  0  0  0  0  0  0
    6.3810    0.7460   20.3620 C   0  0  0  0  0  0  0  0  0  0  0  0
   11.8170    3.6250   22.1450 O   0  0  0  0  0  0  0  0  0  0  0  0
   11.4170    4.6140   24.2670 O   0  0  0  0  0  0  0  0  0  0  0  0
    6.5040   -1.8420   22.6100 C   0  0  0  0  0  0  0  0  0  0  0  0
    5.2990    1.6040   20.2260 C   0  0  0  0  0  0  0  0  0  0  0  0
    6.9690    0.0760   19.1080 C   0  0  0  0  0  0  0  0  0  0  0  0
    8.6250   -1.1890   22.4280 C   0  0  0  0  0  0  0  0  0  0  0  0
   12.8490    4.6000   21.8920 C   0  0  0  0  0  0  0  0  0  0  0  0
    6.3390    0.4070   17.8340 N   0  0  0  0  0  0  0  0  0  0  0  0
    4.7580    1.8590   18.9720 C   0  0  0  0  0  0  0  0  0  0  0  0
    9.7630   -1.0680   21.6650 C   0  0  0  0  0  0  0  0  0  0  0  0
    8.7640   -1.5850   23.7370 C   0  0  0  0  0  0  0  0  0  0  0  0
    7.0220   -3.2790   22.3890 C   0  0  2  0  0  0  0  0  0  0  0  0
   14.0980    4.1720   22.6640 C   0  0  0  0  0  0  0  0  0  0  0  0
    5.2980    1.2570   17.8410 C   0  0  0  0  0  0  0  0  0  0  0  0
   11.1710   -1.3590   22.2180 C   0  0  0  0  0  0  0  0  0  0  0  0
   10.0730   -1.9020   24.3570 C   0  0  0  0  0  0  0  0  0  0  0  0
    6.1260   -4.1240   21.6320 C   0  0  0  0  0  0  0  0  0  0  0  0
    7.4280   -3.7880   23.5890 C   0  0  0  0  0  0  0  0  0  0  0  0
    6.5740   -4.5830   20.3110 C   0  0  0  0  0  0  0  0  0  0  0  0
    5.3870   -3.3680   20.4650 C   0  0  0  0  0  0  0  0  0  0  0  0
   15.4460    4.8730   22.3180 C   0  0  0  0  0  0  0  0  0  0  0  0
   11.2480   -1.7960   23.6710 C   0  0  0  0  0  0  0  0  0  0  0  0
    6.4300   -4.4410   24.2120 C   0  0  2  0  0  0  0  0  0  0  0  0
    5.3690   -5.1700   22.2250 C   0  0  0  0  0  0  0  0  0  0  0  0
   12.5510   -2.0880   24.3090 C   0  0  0  0  0  0  0  0  0  0  0  0
    6.1960   -5.6780   19.9440 O   0  0  0  0  0  0  0  0  0  0  0  0
    5.9140   -3.5860   25.4460 C   0  0  0  0  0  0  0  0  0  0  0  0
    7.3080   -3.5770   19.4150 C   0  0  0  0  0  0  0  0  0  0  0  0
    4.7930   -4.1990   19.4890 O   0  0  0  0  0  0  0  0  0  0  0  0
    5.2690   -3.6520   24.4390 C   0  0  0  0  0  0  0  0  0  0  0  0
    5.4770   -1.9040   20.1950 C   0  0  0  0  0  0  0  0  0  0  0  0
   16.7880    4.4370   22.6860 C   0  0  0  0  0  0  0  0  0  0  0  0
    5.8400   -5.5010   23.5270 C   0  0  0  0  0  0  0  0  0  0  0  0
   12.9070   -0.9100   24.9290 C   0  0  0  0  0  0  0  0  0  0  0  0
   13.4820   -2.4430   23.3790 C   0  0  0  0  0  0  0  0  0  0  0  0
   12.3330   -3.1360   25.1490 C   0  0  0  0  0  0  0  0  0  0  0  0
    6.6830   -3.4060   26.5820 N   0  0  0  0  0  0  0  0  0  0  0  0
    4.4460   -2.9690   25.0590 N   0  0  0  0  0  0  0  0  0  0  0  0
    5.2110   -2.8810   25.5230 N   0  0  0  0  0  0  0  0  0  0  0  0
    4.2240   -3.5140   23.8490 N   0  0  0  0  0  0  0  0  0  0  0  0
   17.7050    5.3540   23.5570 C   0  0  0  0  0  0  0  0  0  0  0  0
    7.3270   -4.6750   27.0990 C   0  0  0  0  0  0  0  0  0  0  0  0
   19.1140    5.9500   23.0330 C   0  0  0  0  0  0  0  0  0  0  0  0
    6.4160   -2.1770   27.3720 C   0  0  0  0  0  0  0  0  0  0  0  0
    8.8270   -4.4660   27.4070 C   0  0  0  0  0  0  0  0  0  0  0  0
    6.5340   -5.1550   28.3120 C   0  0  0  0  0  0  0  0  0  0  0  0
   19.4540    7.2380   23.4190 C   0  0  0  0  0  0  0  0  0  0  0  0
    6.1490   -0.8760   26.8150 C   0  0  0  0  0  0  0  0  0  0  0  0
    6.4220   -2.3000   28.8860 C   0  0  0  0  0  0  0  0  0  0  0  0
    6.1290   -0.7690   25.4600 O   0  0  0  0  0  0  0  0  0  0  0  0
   20.7770    7.4920   23.1100 N   0  0  0  0  0  0  0  0  0  0  0  0
    6.1950   -1.1540   29.6530 C   0  0  0  0  0  0  0  0  0  0  0  0
    5.9200    0.2550   27.6050 C   0  0  0  0  0  0  0  0  0  0  0  0
    5.9300    0.2090   29.0000 C   0  0  0  0  0  0  0  0  0  0  0  0
   21.5910    6.4580   23.5690 C   0  0  0  0  0  0  0  0  0  0  0  0
   22.4910    5.8280   22.7900 C   0  0  0  0  0  0  0  0  0  0  0  0
   21.4230    6.0780   24.9010 C   0  0  0  0  0  0  0  0  0  0  0  0
   23.2570    4.7870   23.3140 C   0  0  0  0  0  0  0  0  0  0  0  0
   22.1840    5.0440   25.4080 C   0  0  0  0  0  0  0  0  0  0  0  0
   23.0900    4.4050   24.6190 C   0  0  0  0  0  0  0  0  0  0  0  0
   24.0290    3.0790   25.3180 S   0  0  0  0  0  0  0  0  0  0  0  0
   23.3440    1.8900   25.0570 O   0  0  0  0  0  0  0  0  0  0  0  0
   24.1350    3.4250   26.9420 N   0  0  0  0  0  0  0  0  0  0  0  0
   25.4240    3.2020   25.0210 O   0  0  0  0  0  0  0  0  0  0  0  0
   25.0310    4.5410   27.3100 C   0  0  0  0  0  0  0  0  0  0  0  0
   25.1410    4.7070   28.6370 N   0  0  0  0  0  0  0  0  0  0  0  0
   25.6830    5.3210   26.3220 C   0  0  0  0  0  0  0  0  0  0  0  0
   25.9500    5.7130   29.0390 C   0  0  0  0  0  0  0  0  0  0  0  0
   26.5070    6.3450   26.8040 C   0  0  0  0  0  0  0  0  0  0  0  0
   26.6370    6.5370   28.1780 C   0  0  0  0  0  0  0  0  0  0  0  0
  1  2  1  0
  2  3  1  0
  1  4  1  0
  4  5  2  0
  6  4  1  6
  6  7  1  0
  3  8  1  0
  6  9  1  0
  8 10  1  0
  8 11  2  0
  7 12  1  0
  9 13  2  0
  9 14  1  0
  7 15  1  0
 10 16  1  0
 14 17  2  0
 13 18  1  0
 15 19  2  0
 15 20  1  0
 21 12  1  1
 16 22  1  0
 17 23  1  0
 18 23  2  0
 19 24  1  0
 20 25  2  0
 21 26  1  0
 21 27  1  0
 26 28  1  0
 26 29  1  0
 22 30  1  0
 24 31  2  0
 25 31  1  0
 32 27  1  6
 26 33  1  0
 31 34  1  0
 28 35  2  0
 32 36  1  0
 28 37  1  0
 29 38  2  0
 32 39  1  0
 29 40  1  0
 30 41  1  0
 32 42  1  0
 33 42  1  0
 34 43  1  0
 34 44  1  0
 34 45  1  0
 36 46  1  0
 36 47  2  0
 39 48  1  0
 39 49  2  0
 47 49  1  0
 41 50  1  0
 46 51  1  0
 50 52  1  0
 46 53  1  0
 51 54  1  0
 51 55  1  0
 52 56  1  0
 53 57  2  0
 53 58  1  0
 57 59  1  0
 56 60  1  0
 58 61  2  0
 57 62  1  0
 61 63  1  0
 62 63  2  0
 60 64  1  0
 64 65  2  0
 64 66  1  0
 65 67  1  0
 66 68  2  0
 67 69  2  0
 68 69  1  0
 69 70  1  0
 70 71  2  0
 70 72  1  0
 70 73  2  0
 72 74  1  0
 74 75  2  0
 74 76  1  0
 75 77  1  0
 76 78  2  0
 77 79  2  0
 78 79  1  0
M  END
