x1458-x2776-x0426
     RDKit          3D

 59 63  0  0  0  0  0  0  0  0999 V2000
    7.2090   -0.8840   21.8940 N   0  0  0  0  0  0  0  0  0  0  0  0
    6.8620    0.3990   21.6400 C   0  0  1  0  0  0  0  0  0  0  0  0
    7.9770    1.3850   21.7840 C   0  0  0  0  0  0  0  0  0  0  0  0
    6.3870   -1.9950   21.8360 C   0  0  0  0  0  0  0  0  0  0  0  0
    8.4180   -1.1160   22.5200 C   0  0  0  0  0  0  0  0  0  0  0  0
    6.1770    0.6910   20.2340 C   0  0  0  0  0  0  0  0  0  0  0  0
    9.4620   -1.5900   21.7830 C   0  0  0  0  0  0  0  0  0  0  0  0
    8.6290   -0.8900   23.9580 C   0  0  0  0  0  0  0  0  0  0  0  0
    7.1940   -3.2900   22.1740 C   0  0  2  0  0  0  0  0  0  0  0  0
    7.9230    2.1220   22.9420 N   0  0  0  0  0  0  0  0  0  0  0  0
    8.8580    1.5450   20.9550 O   0  0  0  0  0  0  0  0  0  0  0  0
    4.9660    1.3550   20.0930 C   0  0  0  0  0  0  0  0  0  0  0  0
    6.8250    0.2700   19.1330 C   0  0  0  0  0  0  0  0  0  0  0  0
   10.7130   -1.8860   22.2350 C   0  0  0  0  0  0  0  0  0  0  0  0
    9.9970   -1.1940   24.5640 C   0  0  0  0  0  0  0  0  0  0  0  0
    6.5690   -4.4500   21.5380 N   0  0  0  0  0  0  0  0  0  0  0  0
    7.3080   -3.5340   23.6460 C   0  0  0  0  0  0  0  0  0  0  0  0
    3.9670    1.9450   21.1050 C   0  0  0  0  0  0  0  0  0  0  0  0
    6.1480   -4.2130   20.2550 C   0  0  0  0  0  0  0  0  0  0  0  0
    6.4100    0.4570   17.9100 N   0  0  0  0  0  0  0  0  0  0  0  0
    4.5580    1.5380   18.8180 C   0  0  0  0  0  0  0  0  0  0  0  0
    8.6260    3.3320   23.1550 C   0  0  0  0  0  0  0  0  0  0  0  0
   11.0050   -1.6800   23.7090 C   0  0  0  0  0  0  0  0  0  0  0  0
    6.1770   -4.1440   24.0740 C   0  0  2  0  0  0  0  0  0  0  0  0
    6.3620   -5.6950   22.3180 C   0  0  0  0  0  0  0  0  0  0  0  0
   12.3510   -1.9830   24.2230 C   0  0  2  0  0  0  0  0  0  0  0  0
    4.2070    1.8370   22.4670 C   0  0  0  0  0  0  0  0  0  0  0  0
    5.1130   -4.6940   19.8750 O   0  0  0  0  0  0  0  0  0  0  0  0
    5.8440   -3.8540   25.5310 C   0  0  0  0  0  0  0  0  0  0  0  0
    7.0410   -3.3610   19.3370 C   0  0  0  0  0  0  0  0  0  0  0  0
    5.2470    1.1150   17.7260 C   0  0  0  0  0  0  0  0  0  0  0  0
    9.9640    3.2460   23.5890 C   0  0  0  0  0  0  0  0  0  0  0  0
    8.0160    4.5800   22.9430 C   0  0  0  0  0  0  0  0  0  0  0  0
    6.0650   -5.4560   23.6670 C   0  0  0  0  0  0  0  0  0  0  0  0
   12.2940   -2.6090   25.2710 O   0  0  0  0  0  0  0  0  0  0  0  0
   10.6170    1.9000   23.8120 C   0  0  0  0  0  0  0  0  0  0  0  0
   12.9440   -0.6250   24.4710 C   0  0  0  0  0  0  0  0  0  0  0  0
    3.3470    2.3660   23.3690 N   0  0  0  0  0  0  0  0  0  0  0  0
    6.8360   -3.7530   26.4580 N   0  0  0  0  0  0  0  0  0  0  0  0
    4.4740   -3.6150   25.8450 O   0  0  0  0  0  0  0  0  0  0  0  0
   10.7870    4.5300   23.8500 C   0  0  0  0  0  0  0  0  0  0  0  0
    8.7710    5.7340   23.1850 C   0  0  0  0  0  0  0  0  0  0  0  0
   13.5340   -3.1580   25.6300 C   0  0  0  0  0  0  0  0  0  0  0  0
    2.2860    1.7050   23.8470 C   0  0  0  0  0  0  0  0  0  0  0  0
    7.5080   -4.8380   26.9310 C   0  0  0  0  0  0  0  0  0  0  0  0
    6.6520   -2.7520   27.3270 C   0  0  0  0  0  0  0  0  0  0  0  0
   10.2070    5.7560   23.6600 C   0  0  0  0  0  0  0  0  0  0  0  0
   10.9870    6.8480   23.9210 O   0  0  0  0  0  0  0  0  0  0  0  0
    2.1470    0.4910   23.7530 O   0  0  0  0  0  0  0  0  0  0  0  0
    8.9550   -4.6840   27.2480 C   0  0  0  0  0  0  0  0  0  0  0  0
    6.8310   -5.6680   27.8330 C   0  0  0  0  0  0  0  0  0  0  0  0
    1.2330    2.5070   24.5340 C   0  0  0  0  0  0  0  0  0  0  0  0
   11.8220    6.7820   25.0750 C   0  0  0  0  0  0  0  0  0  0  0  0
    1.5110    3.8460   25.2480 C   0  0  0  0  0  0  0  0  0  0  0  0
   -0.0610    2.0330   24.5400 C   0  0  0  0  0  0  0  0  0  0  0  0
    2.7460    4.3690   25.2860 F   0  0  0  0  0  0  0  0  0  0  0  0
   -1.1510    2.8490   25.2460 C   0  0  0  0  0  0  0  0  0  0  0  0
    0.4830    4.5470   25.8750 C   0  0  0  0  0  0  0  0  0  0  0  0
   -0.8160    4.0610   25.8740 C   0  0  0  0  0  0  0  0  0  0  0  0
  1  2  1  0
  2  3  1  6
  1  4  1  0
  1  5  1  0
  2  6  1  0
  5  7  2  0
  5  8  1  0
  9  4  1  1
  3 10  1  0
  3 11  2  0
  6 12  1  0
  6 13  2  0
  7 14  1  0
  8 15  2  0
  9 16  1  0
  9 17  1  0
 12 18  1  0
 16 19  1  0
 13 20  1  0
 12 21  2  0
 10 22  1  0
 14 23  2  0
 15 23  1  0
 17 24  1  0
 16 25  1  0
 23 26  1  0
 18 27  1  0
 19 28  2  0
 24 29  1  1
 19 30  1  0
 20 31  2  0
 21 31  1  0
 22 32  2  0
 22 33  1  0
 24 34  1  0
 25 34  1  0
 26 35  1  0
 32 36  1  0
 26 37  1  1
 27 38  1  0
 29 39  1  0
 29 40  2  0
 32 41  1  0
 33 42  2  0
 35 43  1  0
 38 44  1  0
 39 45  1  0
 39 46  1  0
 41 47  2  0
 42 47  1  0
 47 48  1  0
 44 49  2  0
 45 50  1  0
 45 51  1  0
 44 52  1  0
 48 53  1  0
 52 54  2  0
 52 55  1  0
 54 56  1  0
 55 57  2  0
 54 58  1  0
 57 59  1  0
 58 59  2  0
M  END
