x1458-x2694
     RDKit          3D

 46 49  0  0  0  0  0  0  0  0999 V2000
    7.6250   -0.8310   21.7290 N   0  0  0  0  0  0  0  0  0  0  0  0
    7.0980    0.4280   21.6430 C   0  0  1  0  0  0  0  0  0  0  0  0
    8.0910    1.5320   21.7940 C   0  0  0  0  0  0  0  0  0  0  0  0
    6.6290   -1.8580   21.9220 C   0  0  0  0  0  0  0  0  0  0  0  0
    8.7710   -1.0540   22.4870 C   0  0  0  0  0  0  0  0  0  0  0  0
    6.4330    0.6570   20.3100 C   0  0  0  0  0  0  0  0  0  0  0  0
    8.8180   -1.3080   23.8070 N   0  0  0  0  0  0  0  0  0  0  0  0
   10.1340   -1.0510   21.9200 C   0  0  0  0  0  0  0  0  0  0  0  0
    7.2900   -3.2360   22.2420 C   0  0  2  0  0  0  0  0  0  0  0  0
    7.7390    2.5120   22.6780 N   0  0  0  0  0  0  0  0  0  0  0  0
    9.1280    1.5980   21.1640 O   0  0  0  0  0  0  0  0  0  0  0  0
    5.3200    1.4940   20.2910 C   0  0  0  0  0  0  0  0  0  0  0  0
    6.9010    0.0460   18.9530 C   0  0  0  0  0  0  0  0  0  0  0  0
   10.1900   -1.4860   24.1620 O   0  0  0  0  0  0  0  0  0  0  0  0
   10.9720   -1.3320   23.0670 C   0  0  0  0  0  0  0  0  0  0  0  0
    6.5880   -4.2850   21.4960 N   0  0  0  0  0  0  0  0  0  0  0  0
    7.4380   -3.4550   23.6080 C   0  0  0  0  0  0  0  0  0  0  0  0
   12.4470   -1.4660   23.2390 C   0  0  0  0  0  0  0  0  0  0  0  0
    6.1500   -4.0850   20.2030 C   0  0  0  0  0  0  0  0  0  0  0  0
    6.2200    0.3650   17.8360 N   0  0  0  0  0  0  0  0  0  0  0  0
    4.6470    1.7670   18.9780 C   0  0  0  0  0  0  0  0  0  0  0  0
    8.5770    3.5930   23.0070 C   0  0  0  0  0  0  0  0  0  0  0  0
    6.8750   -4.5690   24.2090 C   0  0  1  0  0  0  0  0  0  0  0  0
    6.2800   -5.5760   22.1070 C   0  0  0  0  0  0  0  0  0  0  0  0
   12.9810   -0.2010   23.4700 C   0  0  0  0  0  0  0  0  0  0  0  0
   13.0230   -1.9570   22.0940 C   0  0  0  0  0  0  0  0  0  0  0  0
   12.8180   -2.1870   24.3140 C   0  0  0  0  0  0  0  0  0  0  0  0
    5.1040   -4.5670   19.8370 O   0  0  0  0  0  0  0  0  0  0  0  0
    6.1920   -3.9660   25.4280 C   0  0  0  0  0  0  0  0  0  0  0  0
    7.0360   -3.2770   19.2630 C   0  0  0  0  0  0  0  0  0  0  0  0
    5.1670    1.1740   17.8490 C   0  0  0  0  0  0  0  0  0  0  0  0
    9.8120    3.3910   23.6580 C   0  0  0  0  0  0  0  0  0  0  0  0
    8.1430    4.8920   22.6610 C   0  0  0  0  0  0  0  0  0  0  0  0
    5.8680   -5.3900   23.4100 C   0  0  0  0  0  0  0  0  0  0  0  0
   10.3180    2.0310   24.0460 C   0  0  0  0  0  0  0  0  0  0  0  0
    6.9930   -3.8830   26.6660 N   0  0  0  0  0  0  0  0  0  0  0  0
    5.0290   -3.5670   25.3520 O   0  0  0  0  0  0  0  0  0  0  0  0
   10.6950    4.6090   23.9930 C   0  0  0  0  0  0  0  0  0  0  0  0
    8.9100    6.0250   22.9500 C   0  0  0  0  0  0  0  0  0  0  0  0
    7.6820   -5.0420   27.2080 C   0  0  0  0  0  0  0  0  0  0  0  0
    6.5350   -2.9610   27.5290 C   0  0  0  0  0  0  0  0  0  0  0  0
   10.2660    5.8820   23.6610 C   0  0  0  0  0  0  0  0  0  0  0  0
   11.1140    6.8970   24.0100 O   0  0  0  0  0  0  0  0  0  0  0  0
    9.0170   -4.7270   27.5170 C   0  0  0  0  0  0  0  0  0  0  0  0
    6.9860   -5.6210   28.2760 C   0  0  0  0  0  0  0  0  0  0  0  0
   11.8670    6.7210   25.2100 C   0  0  0  0  0  0  0  0  0  0  0  0
  1  2  1  0
  2  3  1  6
  1  4  1  0
  1  5  1  0
  2  6  1  0
  5  7  2  0
  5  8  1  0
  9  4  1  1
  3 10  1  0
  3 11  2  0
  6 12  2  0
  6 13  1  0
  7 14  1  0
  8 15  2  0
 14 15  1  0
  9 16  1  0
  9 17  1  0
 15 18  1  0
 16 19  1  0
 13 20  2  0
 12 21  1  0
 10 22  1  0
 17 23  1  0
 16 24  1  0
 18 25  1  0
 18 26  1  0
 18 27  1  0
 19 28  2  0
 23 29  1  1
 19 30  1  0
 20 31  1  0
 21 31  2  0
 22 32  2  0
 22 33  1  0
 23 34  1  0
 24 34  1  0
 32 35  1  0
 29 36  1  0
 29 37  2  0
 32 38  1  0
 33 39  2  0
 36 40  1  0
 36 41  1  0
 38 42  2  0
 39 42  1  0
 42 43  1  0
 40 44  1  0
 40 45  1  0
 43 46  1  0
M  END
