x1458-x3113-x0995
     RDKit          3D

 44 46  0  0  0  0  0  0  0  0999 V2000
    7.3140   -1.4500   22.5140 C   0  0  2  0  0  0  0  0  0  0  0  0
    6.9290   -0.1450   21.7750 C   0  0  1  0  0  0  0  0  0  0  0  0
    8.0470    0.8820   22.0620 C   0  0  0  0  0  0  0  0  0  0  0  0
    6.4410   -1.2610   23.7630 C   0  0  0  0  0  0  0  0  0  0  0  0
    8.7590   -1.5620   22.9840 C   0  0  0  0  0  0  0  0  0  0  0  0
    7.1290   -3.0270   22.1590 C   0  0  2  0  0  0  0  0  0  0  0  0
    6.4120    0.1480   20.3690 C   0  0  0  0  0  0  0  0  0  0  0  0
    9.7640   -1.6900   22.0220 C   0  0  0  0  0  0  0  0  0  0  0  0
    9.0560   -1.5740   24.3380 C   0  0  0  0  0  0  0  0  0  0  0  0
    6.2140   -3.7860   21.5060 N   0  0  0  0  0  0  0  0  0  0  0  0
    7.3100   -3.6970   23.3700 C   0  0  0  0  0  0  0  0  0  0  0  0
    8.2440    1.2270   23.1490 N   0  0  0  0  0  0  0  0  0  0  0  0
    8.7990    1.4690   21.0790 O   0  0  0  0  0  0  0  0  0  0  0  0
    6.0310   -3.8070   20.1750 C   0  0  0  0  0  0  0  0  0  0  0  0
    5.2330    0.8580   20.3750 C   0  0  0  0  0  0  0  0  0  0  0  0
    6.9400   -0.1490   19.1270 C   0  0  0  0  0  0  0  0  0  0  0  0
   11.0470   -1.8360   22.4390 C   0  0  0  0  0  0  0  0  0  0  0  0
   10.3340   -1.7250   24.7860 C   0  0  0  0  0  0  0  0  0  0  0  0
    6.1390   -4.0900   23.9380 C   0  0  2  0  0  0  0  0  0  0  0  0
    6.0690   -5.1530   22.0030 C   0  0  0  0  0  0  0  0  0  0  0  0
    9.0910    2.3910   23.4240 C   0  0  0  0  0  0  0  0  0  0  0  0
    5.0580   -4.3710   19.7370 O   0  0  0  0  0  0  0  0  0  0  0  0
    6.0870   -4.0660   25.4350 C   0  0  0  0  0  0  0  0  0  0  0  0
    7.0640   -3.1590   19.2610 C   0  0  0  0  0  0  0  0  0  0  0  0
    6.4090    0.2030   17.9190 N   0  0  0  0  0  0  0  0  0  0  0  0
    4.6180    1.2650   19.0340 C   0  0  0  0  0  0  0  0  0  0  0  0
   11.3030   -1.8550   23.8160 C   0  0  0  0  0  0  0  0  0  0  0  0
    5.7440   -5.2480   23.3740 C   0  0  0  0  0  0  0  0  0  0  0  0
   10.5490    2.0760   23.2950 C   0  0  0  0  0  0  0  0  0  0  0  0
   12.6710   -1.9990   24.2750 C   0  0  0  0  0  0  0  0  0  0  0  0
    3.4630    1.9660   19.0250 N   0  0  0  0  0  0  0  0  0  0  0  0
    7.1240   -3.5390   26.3410 N   0  0  0  0  0  0  0  0  0  0  0  0
    4.9440   -4.4530   26.1580 O   0  0  0  0  0  0  0  0  0  0  0  0
    5.2560    0.9110   17.8630 C   0  0  0  0  0  0  0  0  0  0  0  0
   11.6220    3.1340   23.3580 C   0  0  0  0  0  0  0  0  0  0  0  0
   13.5440   -2.3700   23.0860 C   0  0  0  0  0  0  0  0  0  0  0  0
   13.0400   -2.9850   25.3950 C   0  0  0  0  0  0  0  0  0  0  0  0
   12.9130   -0.6010   24.7910 C   0  0  0  0  0  0  0  0  0  0  0  0
    7.7210   -4.4970   27.3260 C   0  0  0  0  0  0  0  0  0  0  0  0
    6.6120   -2.4040   26.8970 C   0  0  0  0  0  0  0  0  0  0  0  0
   11.8350    3.9080   22.1960 O   0  0  0  0  0  0  0  0  0  0  0  0
    9.0490   -4.8040   27.0040 C   0  0  0  0  0  0  0  0  0  0  0  0
    6.8200   -5.7020   27.6060 C   0  0  0  0  0  0  0  0  0  0  0  0
   13.0260    4.6870   22.3570 C   0  0  0  0  0  0  0  0  0  0  0  0
  1  2  1  0
  2  3  1  6
  1  4  1  1
  1  5  1  0
  1  6  1  0
  2  7  1  0
  5  8  2  0
  5  9  1  0
  6 10  1  0
  6 11  1  1
  3 12  1  0
  3 13  2  0
 10 14  1  0
  7 15  2  0
  7 16  1  0
  8 17  1  0
  9 18  2  0
 11 19  1  0
 10 20  1  0
 12 21  1  0
 14 22  2  0
 19 23  1  1
 14 24  1  0
 16 25  2  0
 15 26  1  0
 17 27  2  0
 18 27  1  0
 19 28  1  0
 20 28  1  0
 21 29  1  0
 27 30  1  0
 26 31  1  0
 23 32  1  0
 23 33  2  0
 25 34  1  0
 26 34  2  0
 29 35  1  0
 30 36  1  0
 30 37  1  0
 30 38  1  0
 32 39  1  0
 32 40  1  0
 35 41  1  0
 39 42  1  0
 39 43  1  0
 41 44  1  0
M  END
