x1458-x2569
     RDKit          3D

 35 37  0  0  0  0  0  0  0  0999 V2000
    7.3940   -3.4830   26.5800 N   0  0  0  0  0  0  0  0  0  0  0  0
    7.7800   -4.6100   27.3540 C   0  0  0  0  0  0  0  0  0  0  0  0
    8.8710   -5.3710   26.6460 C   0  0  0  0  0  0  0  0  0  0  0  0
    7.8440   -2.1240   27.0160 C   0  0  0  0  0  0  0  0  0  0  0  0
    6.2970   -3.7190   25.6180 C   0  0  0  0  0  0  0  0  0  0  0  0
    5.0990   -3.6520   25.9160 O   0  0  0  0  0  0  0  0  0  0  0  0
    6.5520   -5.5450   27.6000 C   0  0  0  0  0  0  0  0  0  0  0  0
    6.6890   -4.0190   24.2020 C   0  0  1  0  0  0  0  0  0  0  0  0
    7.9670   -3.6700   23.7560 C   0  0  0  0  0  0  0  0  0  0  0  0
    6.3350   -5.2710   23.7020 C   0  0  0  0  0  0  0  0  0  0  0  0
    7.8660   -3.2780   22.4370 C   0  0  2  0  0  0  0  0  0  0  0  0
    6.5180   -5.2730   22.3180 C   0  0  0  0  0  0  0  0  0  0  0  0
    7.5360   -1.9260   22.5460 C   0  0  0  0  0  0  0  0  0  0  0  0
    6.7460   -4.0680   21.7290 N   0  0  0  0  0  0  0  0  0  0  0  0
    6.3770   -3.9470   20.3670 C   0  0  0  0  0  0  0  0  0  0  0  0
    8.5140   -1.0640   21.9690 C   0  0  1  0  0  0  0  0  0  0  0  0
    5.3770   -4.5420   19.9370 O   0  0  0  0  0  0  0  0  0  0  0  0
    7.1960   -3.1780   19.3740 C   0  0  0  0  0  0  0  0  0  0  0  0
    7.9300    0.0750   21.4780 C   0  0  0  0  0  0  0  0  0  0  0  0
    9.8320   -0.7070   22.6330 C   0  0  0  0  0  0  0  0  0  0  0  0
    8.8240    1.1700   21.1950 O   0  0  0  0  0  0  0  0  0  0  0  0
    6.6230    0.1320   21.2750 N   0  0  0  0  0  0  0  0  0  0  0  0
   10.9450   -1.1470   22.0140 C   0  0  0  0  0  0  0  0  0  0  0  0
    9.9860    0.0560   23.7800 C   0  0  0  0  0  0  0  0  0  0  0  0
   11.1740    0.4060   24.3220 N   0  0  0  0  0  0  0  0  0  0  0  0
   12.1720   -0.8280   22.4910 C   0  0  0  0  0  0  0  0  0  0  0  0
    6.0740    0.6250   20.0510 C   0  0  0  0  0  0  0  0  0  0  0  0
   13.1340   -1.3490   21.6830 C   0  0  0  0  0  0  0  0  0  0  0  0
   12.4200   -0.0680   23.6170 C   0  0  0  0  0  0  0  0  0  0  0  0
    6.7640    0.3250   18.8930 C   0  0  0  0  0  0  0  0  0  0  0  0
    4.9200    1.3590   20.1330 C   0  0  0  0  0  0  0  0  0  0  0  0
   13.8840   -1.8000   20.5920 N   0  0  0  0  0  0  0  0  0  0  0  0
    6.3690    0.7510   17.6970 N   0  0  0  0  0  0  0  0  0  0  0  0
    4.4220    1.8520   18.9380 C   0  0  0  0  0  0  0  0  0  0  0  0
    5.1540    1.5620   17.6630 C   0  0  0  0  0  0  0  0  0  0  0  0
  1  2  1  0
  2  3  1  0
  1  4  1  0
  1  5  1  0
  5  6  2  0
  2  7  1  0
  8  5  1  1
  8  9  1  0
  8 10  1  0
  9 11  1  0
 10 12  1  0
 11 13  1  1
 11 14  1  0
 12 14  1  0
 14 15  1  0
 16 13  1  1
 15 17  2  0
 15 18  1  0
 16 19  1  0
 16 20  1  0
 19 21  2  0
 19 22  1  0
 20 23  2  0
 20 24  1  0
 24 25  2  0
 23 26  1  0
 22 27  1  0
 26 28  1  0
 25 29  1  0
 26 29  2  0
 27 30  2  0
 27 31  1  0
 28 32  3  0
 30 33  1  0
 31 34  2  0
 33 35  2  0
 34 35  1  0
M  END
