x1458-x0678
     RDKit          3D

 34 36  0  0  0  0  0  0  0  0999 V2000
    6.9670   -3.4020   26.4060 N   0  0  0  0  0  0  0  0  0  0  0  0
    7.5680   -4.2810   27.3590 C   0  0  0  0  0  0  0  0  0  0  0  0
    8.9900   -4.6160   26.9650 C   0  0  0  0  0  0  0  0  0  0  0  0
    6.7070   -2.0020   26.8240 C   0  0  0  0  0  0  0  0  0  0  0  0
    5.9940   -4.0170   25.4960 C   0  0  0  0  0  0  0  0  0  0  0  0
    4.8680   -4.3550   25.8620 O   0  0  0  0  0  0  0  0  0  0  0  0
    6.7280   -5.5940   27.5150 C   0  0  0  0  0  0  0  0  0  0  0  0
    6.3760   -4.1610   24.0590 C   0  0  1  0  0  0  0  0  0  0  0  0
    7.4570   -3.3870   23.6400 C   0  0  0  0  0  0  0  0  0  0  0  0
    6.6070   -5.4710   23.6490 C   0  0  0  0  0  0  0  0  0  0  0  0
    7.2720   -3.1640   22.2950 C   0  0  2  0  0  0  0  0  0  0  0  0
    6.5730   -5.5190   22.2510 C   0  0  0  0  0  0  0  0  0  0  0  0
    6.2390   -2.0120   22.0890 C   0  0  0  0  0  0  0  0  0  0  0  0
    6.7560   -4.3420   21.5800 N   0  0  0  0  0  0  0  0  0  0  0  0
    6.2370   -4.2460   20.3000 C   0  0  0  0  0  0  0  0  0  0  0  0
    6.7770   -0.7700   22.5680 C   0  0  0  0  0  0  0  0  0  0  0  0
    5.2660   -4.8940   19.9630 O   0  0  0  0  0  0  0  0  0  0  0  0
    6.9690   -3.3380   19.3440 C   0  0  0  0  0  0  0  0  0  0  0  0
    7.5940   -0.2010   21.4840 N   0  0  0  0  0  0  0  0  0  0  0  0
    8.7570    0.6150   21.9080 C   0  0  0  0  0  0  0  0  0  0  0  0
    6.8430    0.2390   20.3490 C   0  0  0  0  0  0  0  0  0  0  0  0
    9.1500    1.7560   21.1590 O   0  0  0  0  0  0  0  0  0  0  0  0
    9.5940    0.3640   23.1980 C   0  0  0  0  0  0  0  0  0  0  0  0
    5.7540    1.1180   20.4380 C   0  0  0  0  0  0  0  0  0  0  0  0
    7.1970   -0.2230   19.0570 C   0  0  0  0  0  0  0  0  0  0  0  0
   10.4150   -0.9410   23.3460 C   0  0  0  0  0  0  0  0  0  0  0  0
    5.0510    1.5280   19.3200 C   0  0  0  0  0  0  0  0  0  0  0  0
    6.4980    0.1960   17.9690 N   0  0  0  0  0  0  0  0  0  0  0  0
   11.3110   -1.0290   22.2840 C   0  0  0  0  0  0  0  0  0  0  0  0
   11.0800   -0.8730   24.5750 C   0  0  0  0  0  0  0  0  0  0  0  0
    5.4700    1.0360   18.1100 C   0  0  0  0  0  0  0  0  0  0  0  0
   12.4430   -1.7780   22.5760 C   0  0  0  0  0  0  0  0  0  0  0  0
   12.4040   -0.4210   24.4720 C   0  0  0  0  0  0  0  0  0  0  0  0
   13.2000   -1.0950   23.5220 C   0  0  0  0  0  0  0  0  0  0  0  0
  1  2  1  0
  2  3  1  0
  1  4  1  0
  1  5  1  0
  5  6  2  0
  2  7  1  0
  8  5  1  1
  8  9  1  0
  8 10  1  0
  9 11  1  0
 10 12  1  0
 11 13  1  1
 11 14  1  0
 12 14  1  0
 14 15  1  0
 13 16  1  0
 15 17  2  0
 15 18  1  0
 16 19  1  0
 19 20  1  0
 19 21  1  0
 20 22  2  0
 20 23  1  0
 21 24  2  0
 21 25  1  0
 23 26  1  0
 24 27  1  0
 25 28  2  0
 26 29  1  0
 26 30  1  0
 27 31  2  0
 28 31  1  0
 29 32  1  0
 30 33  1  0
 32 34  1  0
 33 34  1  0
M  END
