x1458-x3124-x3113-x0995
     RDKit          3D

 44 46  0  0  0  0  0  0  0  0999 V2000
    7.1490   -1.4870   22.5170 C   0  0  2  0  0  0  0  0  0  0  0  0
    7.0000   -0.1150   21.7170 C   0  0  1  0  0  0  0  0  0  0  0  0
    8.1300    0.9340   22.0420 C   0  0  0  0  0  0  0  0  0  0  0  0
    6.2690   -1.2780   23.7690 C   0  0  0  0  0  0  0  0  0  0  0  0
    8.5960   -1.5790   22.9420 C   0  0  0  0  0  0  0  0  0  0  0  0
    7.2230   -3.1420   22.2240 C   0  0  2  0  0  0  0  0  0  0  0  0
    6.3480    0.2210   20.3710 C   0  0  0  0  0  0  0  0  0  0  0  0
    9.6120   -1.6980   21.9790 C   0  0  0  0  0  0  0  0  0  0  0  0
    8.9610   -1.5850   24.2700 C   0  0  0  0  0  0  0  0  0  0  0  0
    6.2320   -3.9410   21.4660 N   0  0  0  0  0  0  0  0  0  0  0  0
    7.4050   -3.7680   23.4620 C   0  0  0  0  0  0  0  0  0  0  0  0
    8.3110    1.2490   23.1440 N   0  0  0  0  0  0  0  0  0  0  0  0
    8.8610    1.5280   20.9870 O   0  0  0  0  0  0  0  0  0  0  0  0
    6.0390   -3.8010   20.1210 C   0  0  0  0  0  0  0  0  0  0  0  0
    5.1450    0.9250   20.3130 C   0  0  0  0  0  0  0  0  0  0  0  0
    6.9390   -0.1310   19.1810 C   0  0  0  0  0  0  0  0  0  0  0  0
   10.9930   -1.8360   22.4890 C   0  0  0  0  0  0  0  0  0  0  0  0
   10.2490   -1.7170   24.6730 C   0  0  0  0  0  0  0  0  0  0  0  0
    6.1360   -4.1210   23.8500 C   0  0  2  0  0  0  0  0  0  0  0  0
    6.1470   -5.3490   21.9660 C   0  0  0  0  0  0  0  0  0  0  0  0
    9.1850    2.4110   23.4890 C   0  0  0  0  0  0  0  0  0  0  0  0
    5.0180   -4.2730   19.6870 O   0  0  0  0  0  0  0  0  0  0  0  0
    5.9720   -4.1020   25.3770 C   0  0  0  0  0  0  0  0  0  0  0  0
    7.0540   -3.1440   19.2170 C   0  0  0  0  0  0  0  0  0  0  0  0
    6.4620    0.1520   17.9330 N   0  0  0  0  0  0  0  0  0  0  0  0
    4.5930    1.2520   19.0840 C   0  0  0  0  0  0  0  0  0  0  0  0
   11.2830   -1.8480   23.7850 C   0  0  0  0  0  0  0  0  0  0  0  0
    5.8610   -5.3600   23.3280 C   0  0  0  0  0  0  0  0  0  0  0  0
   10.6650    1.9600   23.3590 C   0  0  0  0  0  0  0  0  0  0  0  0
   12.6750   -1.9730   24.3000 C   0  0  0  0  0  0  0  0  0  0  0  0
    3.4370    1.9390   19.0340 N   0  0  0  0  0  0  0  0  0  0  0  0
    7.0000   -3.8780   26.2240 N   0  0  0  0  0  0  0  0  0  0  0  0
    4.8390   -4.2450   25.8270 O   0  0  0  0  0  0  0  0  0  0  0  0
    5.2680    0.8600   17.9320 C   0  0  0  0  0  0  0  0  0  0  0  0
   11.6810    3.1060   23.2900 C   0  0  0  0  0  0  0  0  0  0  0  0
   13.5430   -2.2870   23.0920 C   0  0  0  0  0  0  0  0  0  0  0  0
   13.0390   -2.9970   25.3790 C   0  0  0  0  0  0  0  0  0  0  0  0
   12.8730   -0.5930   24.8700 C   0  0  0  0  0  0  0  0  0  0  0  0
    7.7080   -4.9490   26.8320 C   0  0  0  0  0  0  0  0  0  0  0  0
    6.7500   -2.6950   27.0720 C   0  0  0  0  0  0  0  0  0  0  0  0
   11.7860    3.8560   22.3380 O   0  0  0  0  0  0  0  0  0  0  0  0
    9.0240   -4.6010   27.1460 C   0  0  0  0  0  0  0  0  0  0  0  0
    6.9980   -5.6320   27.8080 C   0  0  0  0  0  0  0  0  0  0  0  0
   12.9540    4.6660   22.4790 C   0  0  0  0  0  0  0  0  0  0  0  0
  1  2  1  0
  2  3  1  6
  1  4  1  1
  1  5  1  0
  1  6  1  0
  2  7  1  0
  5  8  2  0
  5  9  1  0
  6 10  1  0
  6 11  1  1
  3 12  1  0
  3 13  2  0
 10 14  1  0
  7 15  2  0
  7 16  1  0
  8 17  1  0
  9 18  2  0
 11 19  1  0
 10 20  1  0
 12 21  1  0
 14 22  2  0
 19 23  1  1
 14 24  1  0
 16 25  2  0
 15 26  1  0
 17 27  2  0
 18 27  1  0
 19 28  1  0
 20 28  1  0
 21 29  1  0
 27 30  1  0
 26 31  1  0
 23 32  1  0
 23 33  2  0
 25 34  1  0
 26 34  2  0
 29 35  1  0
 30 36  1  0
 30 37  1  0
 30 38  1  0
 32 39  1  0
 32 40  1  0
 35 41  1  0
 39 42  1  0
 39 43  1  0
 41 44  1  0
M  END
