x1478-x3080
     RDKit          3D

 38 42  0  0  0  0  0  0  0  0999 V2000
    9.8390    0.0830   23.3540 N   0  0  0  0  0  0  0  0  0  0  0  0
   11.0580    0.8040   23.7920 C   0  0  0  0  0  0  0  0  0  0  0  0
    9.7510   -0.5260   22.1590 C   0  0  0  0  0  0  0  0  0  0  0  0
    8.7080   -0.7060   24.4640 S   0  0  2  0  0  0  0  0  0  0  0  0
    7.2140   -0.8730   23.6170 N   0  0  0  0  0  0  0  0  0  0  0  0
    8.7050    0.2750   21.3900 C   0  0  0  0  0  0  0  0  0  0  0  0
    8.5230    0.1610   25.6050 O   0  0  0  0  0  0  0  0  0  0  0  0
    9.3850   -2.2140   25.1400 C   0  0  0  0  0  0  0  0  0  0  0  0
    8.9140    1.5930   21.1070 O   0  0  0  0  0  0  0  0  0  0  0  0
    7.5460   -0.4870   21.0380 N   0  0  0  0  0  0  0  0  0  0  0  0
   10.7550   -2.3890   25.2130 C   0  0  0  0  0  0  0  0  0  0  0  0
    8.5180   -3.1870   25.5960 C   0  0  0  0  0  0  0  0  0  0  0  0
    6.3880   -2.0700   23.6110 C   0  0  0  0  0  0  0  0  0  0  0  0
    7.8320   -1.8930   20.8510 C   0  0  0  0  0  0  0  0  0  0  0  0
    6.7240    0.1300   20.0490 C   0  0  0  0  0  0  0  0  0  0  0  0
   11.7330   -1.4110   24.7470 N   0  0  0  0  0  0  0  0  0  0  0  0
   11.2890   -3.6730   25.8210 C   0  0  0  0  0  0  0  0  0  0  0  0
    8.9970   -4.3760   26.1450 C   0  0  0  0  0  0  0  0  0  0  0  0
    6.3120   -2.9950   22.5620 C   0  0  0  0  0  0  0  0  0  0  0  0
    5.6300   -2.2810   24.7910 C   0  0  0  0  0  0  0  0  0  0  0  0
    6.9360   -2.9110   21.3560 N   0  0  0  0  0  0  0  0  0  0  0  0
    5.5960    0.8700   20.4050 C   0  0  0  0  0  0  0  0  0  0  0  0
    7.0010    0.0310   18.6880 C   0  0  0  0  0  0  0  0  0  0  0  0
   12.6850   -3.7940   25.9020 C   0  0  0  0  0  0  0  0  0  0  0  0
   13.0340   -1.6680   24.8800 C   0  0  0  0  0  0  0  0  0  0  0  0
   10.3510   -4.6270   26.2620 C   0  0  0  0  0  0  0  0  0  0  0  0
    5.5110   -4.1230   22.8100 C   0  0  0  0  0  0  0  0  0  0  0  0
    4.8700   -3.4100   24.8700 C   0  0  0  0  0  0  0  0  0  0  0  0
    5.1960    1.0370   21.8410 C   0  0  0  0  0  0  0  0  0  0  0  0
    5.2880   -5.4640   21.7640 Cl  0  0  0  0  0  0  0  0  0  0  0  0
    6.7960   -3.8050   20.4020 C   0  0  0  0  0  0  0  0  0  0  0  0
    6.2860    0.5970   17.6700 N   0  0  0  0  0  0  0  0  0  0  0  0
    4.8460    1.4580   19.3880 C   0  0  0  0  0  0  0  0  0  0  0  0
   13.5400   -2.8250   25.4510 C   0  0  0  0  0  0  0  0  0  0  0  0
    4.8010   -4.3400   23.9170 N   0  0  0  0  0  0  0  0  0  0  0  0
    7.9660   -4.7130   20.4040 C   0  0  0  0  0  0  0  0  0  0  0  0
    5.8270   -3.8300   19.6370 O   0  0  0  0  0  0  0  0  0  0  0  0
    5.2300    1.2940   18.0850 C   0  0  0  0  0  0  0  0  0  0  0  0
  1  2  1  0
  1  3  1  0
  1  4  1  0
  4  5  2  0
  3  6  1  0
  4  7  2  0
  4  8  1  1
  6  9  2  0
  6 10  1  0
  8 11  1  0
  8 12  2  0
  5 13  1  0
 10 14  1  0
 10 15  1  0
 11 16  2  0
 11 17  1  0
 12 18  1  0
 13 19  2  0
 13 20  1  0
 14 21  1  0
 19 21  1  0
 15 22  2  0
 15 23  1  0
 17 24  2  0
 16 25  1  0
 17 26  1  0
 18 26  2  0
 19 27  1  0
 20 28  2  0
 22 29  1  0
 27 30  1  0
 21 31  1  0
 23 32  2  0
 22 33  1  0
 24 34  1  0
 25 34  2  0
 27 35  2  0
 28 35  1  0
 31 36  1  0
 31 37  2  0
 32 38  1  0
 33 38  2  0
M  END
