x1478-x2776
     RDKit          3D

 41 44  0  0  0  0  0  0  0  0999 V2000
    7.0080   -1.6260   21.2670 C   0  0  1  0  0  0  0  0  0  0  0  0
    6.7250   -0.0460   21.2580 C   0  0  1  0  0  0  0  0  0  0  0  0
    7.8670    0.9980   21.6820 C   0  0  0  0  0  0  0  0  0  0  0  0
    6.9880   -2.6810   20.0150 C   0  0  0  0  0  0  0  0  0  0  0  0
    8.3270   -1.6810   22.2140 C   0  0  0  0  0  0  0  0  0  0  0  0
    5.6670   -2.3310   21.7320 C   0  0  0  0  0  0  0  0  0  0  0  0
    7.9880   -3.7740   20.1000 C   0  0  0  0  0  0  0  0  0  0  0  0
    6.1750   -2.8230   19.0270 O   0  0  0  0  0  0  0  0  0  0  0  0
    6.1490    0.4880   20.0030 C   0  0  0  0  0  0  0  0  0  0  0  0
    9.5070   -2.1880   21.6900 C   0  0  0  0  0  0  0  0  0  0  0  0
    8.4420   -1.2410   23.5540 C   0  0  0  0  0  0  0  0  0  0  0  0
    5.5060   -2.9480   23.0620 C   0  0  0  0  0  0  0  0  0  0  0  0
    7.6900    1.8190   22.8000 N   0  0  0  0  0  0  0  0  0  0  0  0
    8.9670    1.1550   20.9470 O   0  0  0  0  0  0  0  0  0  0  0  0
    4.9610    1.2690   20.2010 C   0  0  0  0  0  0  0  0  0  0  0  0
    6.8360    0.1720   18.8240 C   0  0  0  0  0  0  0  0  0  0  0  0
   10.7130   -2.2590   22.3560 C   0  0  0  0  0  0  0  0  0  0  0  0
    9.6810   -1.3120   24.2590 C   0  0  0  0  0  0  0  0  0  0  0  0
    5.4090   -4.3040   23.3220 C   0  0  0  0  0  0  0  0  0  0  0  0
    5.4330   -2.0320   24.0790 C   0  0  0  0  0  0  0  0  0  0  0  0
    6.3960    0.6410   17.6210 N   0  0  0  0  0  0  0  0  0  0  0  0
    4.5440    1.7450   18.8160 C   0  0  0  0  0  0  0  0  0  0  0  0
    8.4090    3.0600   23.0440 C   0  0  0  0  0  0  0  0  0  0  0  0
   10.8230   -1.8250   23.6350 C   0  0  0  0  0  0  0  0  0  0  0  0
    5.4750   -5.5730   22.1780 Cl  0  0  0  0  0  0  0  0  0  0  0  0
    5.2380   -4.8040   24.5360 N   0  0  0  0  0  0  0  0  0  0  0  0
    5.2640   -2.3880   25.3480 C   0  0  0  0  0  0  0  0  0  0  0  0
   12.2070   -1.9520   24.2340 C   0  0  2  0  0  0  0  0  0  0  0  0
    5.2460    1.4220   17.7000 C   0  0  0  0  0  0  0  0  0  0  0  0
    9.7280    2.9960   23.5710 C   0  0  0  0  0  0  0  0  0  0  0  0
    7.8450    4.3240   22.7720 C   0  0  0  0  0  0  0  0  0  0  0  0
    5.1660   -3.7710   25.5700 C   0  0  0  0  0  0  0  0  0  0  0  0
   12.2060   -2.9260   25.1550 O   0  0  0  0  0  0  0  0  0  0  0  0
   10.3440    1.6890   23.8630 C   0  0  0  0  0  0  0  0  0  0  0  0
   12.7260   -0.5430   24.5510 C   0  0  0  0  0  0  0  0  0  0  0  0
   10.4390    4.1840   23.8090 C   0  0  0  0  0  0  0  0  0  0  0  0
    8.5760    5.5020   23.0240 C   0  0  0  0  0  0  0  0  0  0  0  0
   13.6040   -3.0040   25.4630 C   0  0  0  0  0  0  0  0  0  0  0  0
    9.8640    5.4270   23.5420 C   0  0  0  0  0  0  0  0  0  0  0  0
   10.6600    6.5310   23.8250 O   0  0  0  0  0  0  0  0  0  0  0  0
   11.7520    6.4120   24.7440 C   0  0  0  0  0  0  0  0  0  0  0  0
  1  2  1  0
  2  3  1  6
  1  4  1  0
  1  5  1  0
  1  6  1  1
  4  7  1  0
  4  8  2  0
  2  9  1  0
  5 10  2  0
  5 11  1  0
  6 12  1  0
  3 13  1  0
  3 14  2  0
  9 15  2  0
  9 16  1  0
 10 17  1  0
 11 18  2  0
 12 19  2  0
 12 20  1  0
 16 21  2  0
 15 22  1  0
 13 23  1  0
 17 24  2  0
 18 24  1  0
 19 25  1  0
 19 26  1  0
 20 27  2  0
 24 28  1  0
 21 29  1  0
 22 29  2  0
 23 30  2  0
 23 31  1  0
 26 32  2  0
 27 32  1  0
 28 33  1  0
 30 34  1  0
 28 35  1  1
 30 36  1  0
 31 37  2  0
 33 38  1  0
 36 39  2  0
 37 39  1  0
 39 40  1  0
 40 41  1  0
M  END
