x1478-x3298
     RDKit          3D

 40 44  0  0  0  0  0  0  0  0999 V2000
    7.0240    2.0480   22.4000 N   0  0  0  0  0  0  0  0  0  0  0  0
    7.7290    1.1120   21.6530 C   0  0  0  0  0  0  0  0  0  0  0  0
    7.0500   -0.2040   21.3870 C   0  0  1  0  0  0  0  0  0  0  0  0
    7.8040    3.1310   22.7790 C   0  0  0  0  0  0  0  0  0  0  0  0
    8.8350    1.3880   21.1660 O   0  0  0  0  0  0  0  0  0  0  0  0
    7.5820    4.4550   22.3920 C   0  0  0  0  0  0  0  0  0  0  0  0
    8.9600    2.7770   23.6280 C   0  0  0  0  0  0  0  0  0  0  0  0
    6.0800   -0.6450   22.1690 N   0  0  0  0  0  0  0  0  0  0  0  0
    8.9310    1.3150   23.9080 N   0  0  0  0  0  0  0  0  0  0  0  0
    6.4990    0.2350   20.0790 C   0  0  0  0  0  0  0  0  0  0  0  0
    8.4800    5.4660   22.8090 C   0  0  0  0  0  0  0  0  0  0  0  0
    9.8270    3.7960   23.9910 C   0  0  0  0  0  0  0  0  0  0  0  0
   10.2610    0.6940   24.6170 S   0  0  0  0  0  0  0  0  0  0  0  0
    5.2180   -1.4350   21.3130 C   0  0  0  0  0  0  0  0  0  0  0  0
    6.9450   -0.0310   18.8360 C   0  0  0  0  0  0  0  0  0  0  0  0
    5.2480    1.1350   20.1510 C   0  0  0  0  0  0  0  0  0  0  0  0
    9.5990    5.1240   23.6000 C   0  0  0  0  0  0  0  0  0  0  0  0
    6.0140   -1.7430   23.1270 C   0  0  0  0  0  0  0  0  0  0  0  0
   11.0120    1.8840   24.6660 O   0  0  0  0  0  0  0  0  0  0  0  0
    9.9190   -0.1810   25.7190 O   0  0  0  0  0  0  0  0  0  0  0  0
    5.9310   -2.5660   21.1840 N   0  0  0  0  0  0  0  0  0  0  0  0
    6.4250    0.4080   17.6940 N   0  0  0  0  0  0  0  0  0  0  0  0
    4.7160    1.5750   18.9990 C   0  0  0  0  0  0  0  0  0  0  0  0
   11.2240   -0.1620   23.4990 C   0  0  0  0  0  0  0  0  0  0  0  0
    5.9150   -2.9420   22.4370 C   0  0  0  0  0  0  0  0  0  0  0  0
    6.0000   -1.7870   24.4670 C   0  0  0  0  0  0  0  0  0  0  0  0
    6.1620   -3.2230   20.0210 C   0  0  0  0  0  0  0  0  0  0  0  0
    5.3470    1.1830   17.8190 C   0  0  0  0  0  0  0  0  0  0  0  0
   12.4400    0.4180   23.2870 C   0  0  0  0  0  0  0  0  0  0  0  0
   10.8250   -1.2860   22.8790 C   0  0  0  0  0  0  0  0  0  0  0  0
    5.8020   -4.2280   23.0290 C   0  0  0  0  0  0  0  0  0  0  0  0
    5.8750   -3.1230   25.1370 C   0  0  0  0  0  0  0  0  0  0  0  0
    7.5590   -3.5980   19.6670 C   0  0  0  0  0  0  0  0  0  0  0  0
    5.2400   -3.5350   19.2950 O   0  0  0  0  0  0  0  0  0  0  0  0
    5.6690   -5.7290   22.2050 Cl  0  0  0  0  0  0  0  0  0  0  0  0
   13.2540   -0.2120   22.3730 C   0  0  0  0  0  0  0  0  0  0  0  0
   11.6130   -1.9230   21.9760 C   0  0  0  0  0  0  0  0  0  0  0  0
    5.7720   -4.4060   24.3520 N   0  0  0  0  0  0  0  0  0  0  0  0
   12.8460   -1.3730   21.7150 C   0  0  0  0  0  0  0  0  0  0  0  0
   13.6360   -1.9420   20.8300 F   0  0  0  0  0  0  0  0  0  0  0  0
  1  2  1  0
  3  2  1  1
  1  4  1  0
  2  5  2  0
  4  6  2  0
  4  7  1  0
  3  8  1  0
  7  9  1  0
  3 10  1  0
  6 11  1  0
  7 12  2  0
 13  9  1  0
  8 14  1  0
 10 15  2  0
 10 16  1  0
 11 17  2  0
 12 17  1  0
  8 18  1  0
 13 19  2  0
 13 20  2  0
 14 21  1  0
 15 22  1  0
 16 23  2  0
 13 24  1  0
 18 25  2  0
 21 25  1  0
 18 26  1  0
 21 27  1  0
 22 28  2  0
 23 28  1  0
 24 29  2  0
 24 30  1  0
 25 31  1  0
 26 32  2  0
 27 33  1  0
 27 34  2  0
 31 35  1  0
 29 36  1  0
 30 37  2  0
 31 38  2  0
 32 38  1  0
 36 39  2  0
 37 39  1  0
 39 40  1  0
M  END
