x1478-x0691-x0107-x3110-x0946
     RDKit          3D

 56 61  0  0  0  0  0  0  0  0999 V2000
    8.2190    0.8290   23.3350 N   0  0  0  0  0  0  0  0  0  0  0  0
    8.7440    2.2320   23.5480 C   0  0  0  0  0  0  0  0  0  0  0  0
   10.2590    2.4170   23.3140 C   0  0  0  0  0  0  0  0  0  0  0  0
    8.4900   -0.1310   22.1800 C   0  0  2  0  0  0  0  0  0  0  0  0
    9.3030    0.3650   21.3940 O   0  0  0  0  0  0  0  0  0  0  0  0
    7.0700   -0.5310   21.4960 C   0  0  2  0  0  0  0  0  0  0  0  0
    9.3050   -1.3640   22.7070 C   0  0  0  0  0  0  0  0  0  0  0  0
    7.1790   -1.9120   21.3720 C   0  0  1  0  0  0  0  0  0  0  0  0
    6.4820    0.1640   20.2390 C   0  0  0  0  0  0  0  0  0  0  0  0
    9.6540   -2.0750   21.5700 C   0  0  0  0  0  0  0  0  0  0  0  0
   10.9170    3.6520   23.3800 C   0  0  0  0  0  0  0  0  0  0  0  0
   10.9670    1.2880   23.0170 C   0  0  0  0  0  0  0  0  0  0  0  0
   10.2450    5.0010   23.7150 C   0  0  0  0  0  0  0  0  0  0  0  0
    6.9390   -2.7580   19.9990 C   0  0  0  0  0  0  0  0  0  0  0  0
    5.3990    1.0520   20.3230 C   0  0  0  0  0  0  0  0  0  0  0  0
    7.0330   -0.1160   18.9720 C   0  0  0  0  0  0  0  0  0  0  0  0
   10.8450   -2.0300   22.1250 C   0  0  0  0  0  0  0  0  0  0  0  0
    8.4880   -1.7880   21.9650 C   0  0  0  0  0  0  0  0  0  0  0  0
   12.3170    1.3190   22.7630 C   0  0  0  0  0  0  0  0  0  0  0  0
   12.2660    3.6480   23.1200 C   0  0  0  0  0  0  0  0  0  0  0  0
    6.7770   -2.8000   22.5600 C   0  0  0  0  0  0  0  0  0  0  0  0
   13.1650    4.9200   23.1450 C   0  0  0  0  0  0  0  0  0  0  0  0
    8.0350   -3.5510   19.5410 C   0  0  0  0  0  0  0  0  0  0  0  0
    5.9100   -2.9750   19.2530 O   0  0  0  0  0  0  0  0  0  0  0  0
    9.0910    4.9580   23.7010 N   0  0  0  0  0  0  0  0  0  0  0  0
   10.4490    5.8870   22.9050 O   0  0  0  0  0  0  0  0  0  0  0  0
   10.8440    5.5320   24.6420 O   0  0  0  0  0  0  0  0  0  0  0  0
    6.4650    0.5340   17.7630 N   0  0  0  0  0  0  0  0  0  0  0  0
    4.8290    1.6780   19.2380 C   0  0  0  0  0  0  0  0  0  0  0  0
   10.9420   -1.6020   23.4430 C   0  0  0  0  0  0  0  0  0  0  0  0
    8.6540   -1.3260   23.3710 C   0  0  0  0  0  0  0  0  0  0  0  0
   12.9250    2.4760   22.8140 C   0  0  0  0  0  0  0  0  0  0  0  0
    5.5950   -3.6500   22.6600 C   0  0  1  0  0  0  0  0  0  0  0  0
   13.1730    5.5600   21.7650 C   0  0  0  0  0  0  0  0  0  0  0  0
   12.3510   -1.6080   24.0970 C   0  0  0  0  0  0  0  0  0  0  0  0
    5.3280    1.4430   17.9800 C   0  0  0  0  0  0  0  0  0  0  0  0
    9.8430   -1.1630   24.3000 C   0  0  0  0  0  0  0  0  0  0  0  0
    5.8780   -4.8470   23.3990 C   0  0  2  0  0  0  0  0  0  0  0  0
    4.6230   -2.8380   23.1320 C   0  0  0  0  0  0  0  0  0  0  0  0
   12.6030   -0.5340   25.1150 C   0  0  0  0  0  0  0  0  0  0  0  0
   13.4060   -1.4840   23.0140 C   0  0  0  0  0  0  0  0  0  0  0  0
   12.6930   -2.9160   24.8080 C   0  0  0  0  0  0  0  0  0  0  0  0
    6.5040   -6.2050   22.5650 Cl  0  0  0  0  0  0  0  0  0  0  0  0
    4.7020   -5.3240   24.1460 N   0  0  0  0  0  0  0  0  0  0  0  0
    3.4010   -3.4220   23.6690 C   0  0  0  0  0  0  0  0  0  0  0  0
    4.6340   -5.4350   25.6910 S   0  0  0  0  0  0  0  0  0  0  0  0
    3.4440   -4.9370   23.5580 C   0  0  0  0  0  0  0  0  0  0  0  0
    4.1820   -6.7940   26.3910 O   0  0  0  0  0  0  0  0  0  0  0  0
    5.9430   -4.8070   26.3450 O   0  0  0  0  0  0  0  0  0  0  0  0
    3.3600   -4.2900   25.9510 C   0  0  0  0  0  0  0  0  0  0  0  0
    3.8510   -2.9730   26.0480 C   0  0  0  0  0  0  0  0  0  0  0  0
    1.9910   -4.5040   26.0420 C   0  0  0  0  0  0  0  0  0  0  0  0
    2.9420   -1.9110   26.2210 C   0  0  0  0  0  0  0  0  0  0  0  0
    1.1130   -3.4500   26.2150 C   0  0  0  0  0  0  0  0  0  0  0  0
    3.3510   -0.6380   26.3090 F   0  0  0  0  0  0  0  0  0  0  0  0
    1.5620   -2.1530   26.3040 C   0  0  0  0  0  0  0  0  0  0  0  0
  1  2  1  0
  2  3  1  0
  1  4  1  0
  4  5  1  6
  4  6  1  0
  4  7  1  0
  6  8  1  0
  6  9  1  6
  7 10  1  0
  3 11  2  0
  3 12  1  0
 11 13  1  0
  8 14  1  0
  9 15  2  0
  9 16  1  0
 10 17  2  0
  8 18  1  0
 10 18  1  0
 12 19  2  0
 11 20  1  0
  8 21  1  1
 20 22  1  0
 14 23  1  0
 14 24  2  0
 13 25  1  0
 13 26  1  0
 13 27  1  0
 16 28  2  0
 15 29  1  0
 17 30  1  0
 18 31  2  0
 19 32  1  0
 20 32  2  0
 33 21  1  1
 22 34  1  0
 30 35  1  0
 28 36  1  0
 29 36  2  0
 30 37  2  0
 31 37  1  0
 33 38  1  0
 33 39  1  0
 35 40  1  0
 35 41  1  0
 35 42  1  0
 38 43  1  6
 38 44  1  0
 39 45  2  0
 44 46  1  0
 44 47  1  0
 45 47  1  0
 46 48  2  0
 46 49  2  0
 46 50  1  0
 50 51  2  0
 50 52  1  0
 51 53  1  0
 52 54  2  0
 53 55  1  0
 53 56  2  0
 54 56  1  0
M  END
