x1478-x2694
     RDKit          3D

 41 44  0  0  0  0  0  0  0  0999 V2000
    7.6320   -0.7320   21.8200 N   0  0  0  0  0  0  0  0  0  0  0  0
    7.0860    0.6280   21.5760 C   0  0  1  0  0  0  0  0  0  0  0  0
    8.1160    1.7130   21.7770 C   0  0  0  0  0  0  0  0  0  0  0  0
    6.9840   -1.7150   20.9800 C   0  0  0  0  0  0  0  0  0  0  0  0
    8.7510   -1.0390   22.6560 C   0  0  0  0  0  0  0  0  0  0  0  0
    6.8420   -2.9200   21.4880 N   0  0  0  0  0  0  0  0  0  0  0  0
    6.4160    0.7900   20.2220 C   0  0  0  0  0  0  0  0  0  0  0  0
    8.7240   -1.3300   24.0380 N   0  0  0  0  0  0  0  0  0  0  0  0
   10.0410   -1.0900   22.2520 C   0  0  0  0  0  0  0  0  0  0  0  0
    7.7770    2.6780   22.6870 N   0  0  0  0  0  0  0  0  0  0  0  0
    9.1650    1.7590   21.1700 O   0  0  0  0  0  0  0  0  0  0  0  0
    6.7860   -3.7560   20.4610 C   0  0  0  0  0  0  0  0  0  0  0  0
    5.2540    1.5780   20.1890 C   0  0  0  0  0  0  0  0  0  0  0  0
    6.9370    0.2030   19.1040 C   0  0  0  0  0  0  0  0  0  0  0  0
   10.0900   -1.5410   24.3780 O   0  0  0  0  0  0  0  0  0  0  0  0
   10.9030   -1.3860   23.2670 C   0  0  0  0  0  0  0  0  0  0  0  0
    5.9650   -3.1650   22.5240 C   0  0  0  0  0  0  0  0  0  0  0  0
   12.2520   -1.5120   23.2930 C   0  0  0  0  0  0  0  0  0  0  0  0
    8.0090   -4.5840   20.3730 C   0  0  0  0  0  0  0  0  0  0  0  0
    5.8310   -3.8260   19.6640 O   0  0  0  0  0  0  0  0  0  0  0  0
    6.2670    0.4150   17.8350 N   0  0  0  0  0  0  0  0  0  0  0  0
    4.4920    1.8700   19.0410 C   0  0  0  0  0  0  0  0  0  0  0  0
    8.6470    3.7080   23.0450 C   0  0  0  0  0  0  0  0  0  0  0  0
    5.6170   -4.4530   22.9860 C   0  0  0  0  0  0  0  0  0  0  0  0
    5.3770   -2.0740   23.1590 C   0  0  0  0  0  0  0  0  0  0  0  0
   12.8300   -0.1760   23.7680 C   0  0  0  0  0  0  0  0  0  0  0  0
   12.8710   -1.8630   21.9290 C   0  0  0  0  0  0  0  0  0  0  0  0
   12.6610   -2.3700   24.2440 C   0  0  0  0  0  0  0  0  0  0  0  0
    6.2270   -5.9350   22.3570 Cl  0  0  0  0  0  0  0  0  0  0  0  0
    5.1790    1.1750   17.8840 C   0  0  0  0  0  0  0  0  0  0  0  0
    9.8450    3.5320   23.6690 C   0  0  0  0  0  0  0  0  0  0  0  0
    8.2440    4.9970   22.7230 C   0  0  0  0  0  0  0  0  0  0  0  0
    4.7450   -4.6740   24.0010 N   0  0  0  0  0  0  0  0  0  0  0  0
    4.4880   -2.2510   24.1960 C   0  0  0  0  0  0  0  0  0  0  0  0
   10.3330    2.1580   24.0420 C   0  0  0  0  0  0  0  0  0  0  0  0
   10.6250    4.6090   23.9630 C   0  0  0  0  0  0  0  0  0  0  0  0
    9.0480    6.1010   23.0340 C   0  0  0  0  0  0  0  0  0  0  0  0
    4.2190   -3.5620   24.5620 C   0  0  0  0  0  0  0  0  0  0  0  0
   10.2750    5.9120   23.6750 C   0  0  0  0  0  0  0  0  0  0  0  0
   11.1660    6.8790   24.0470 O   0  0  0  0  0  0  0  0  0  0  0  0
   11.8600    6.7010   25.2820 C   0  0  0  0  0  0  0  0  0  0  0  0
  1  2  1  0
  2  3  1  6
  1  4  1  0
  1  5  1  0
  4  6  1  0
  2  7  1  0
  5  8  2  0
  5  9  1  0
  3 10  1  0
  3 11  2  0
  6 12  1  0
  7 13  2  0
  7 14  1  0
  8 15  1  0
  9 16  2  0
 15 16  1  0
  6 17  1  0
 16 18  1  0
 12 19  1  0
 12 20  2  0
 14 21  2  0
 13 22  1  0
 10 23  1  0
 17 24  2  0
 17 25  1  0
 18 26  1  0
 18 27  1  0
 18 28  1  0
 24 29  1  0
 21 30  1  0
 22 30  2  0
 23 31  2  0
 23 32  1  0
 24 33  1  0
 25 34  2  0
 31 35  1  0
 31 36  1  0
 32 37  2  0
 33 38  2  0
 34 38  1  0
 36 39  2  0
 37 39  1  0
 39 40  1  0
 40 41  1  0
M  END
