x1478-x0978-x0107-x3110-x1119
     RDKit          3D

 72 77  0  0  0  0  0  0  0  0999 V2000
    7.9440    1.2470   23.1050 N   0  0  0  0  0  0  0  0  0  0  0  0
    8.8290    2.3640   23.5280 C   0  0  0  0  0  0  0  0  0  0  0  0
   10.2160    2.2280   23.6740 C   0  0  0  0  0  0  0  0  0  0  0  0
    7.9590    0.7780   21.6850 C   0  0  2  0  0  0  0  0  0  0  0  0
    8.0280    1.7960   20.9740 O   0  0  0  0  0  0  0  0  0  0  0  0
    6.8580   -0.0790   21.3400 C   0  0  2  0  0  0  0  0  0  0  0  0
    9.2430    0.0570   21.4460 C   0  0  0  0  0  0  0  0  0  0  0  0
    7.0870   -1.6300   21.3930 C   0  0  1  0  0  0  0  0  0  0  0  0
   10.8980    3.3680   23.3070 C   0  0  0  0  0  0  0  0  0  0  0  0
    6.2460    0.4530   20.0570 C   0  0  0  0  0  0  0  0  0  0  0  0
    9.5120   -1.0100   22.2540 C   0  0  0  0  0  0  0  0  0  0  0  0
   11.4990    3.4640   22.0840 O   0  0  0  0  0  0  0  0  0  0  0  0
   10.9310    4.2800   24.1230 O   0  0  0  0  0  0  0  0  0  0  0  0
    6.9370   -2.5930   20.0400 C   0  0  0  0  0  0  0  0  0  0  0  0
    5.1440    1.2660   20.1840 C   0  0  0  0  0  0  0  0  0  0  0  0
    6.8890    0.0650   18.7400 C   0  0  0  0  0  0  0  0  0  0  0  0
   10.7190   -1.0490   22.8760 C   0  0  0  0  0  0  0  0  0  0  0  0
    8.4110   -1.9710   22.3020 C   0  0  0  0  0  0  0  0  0  0  0  0
    5.8140   -2.0530   22.1200 C   0  0  0  0  0  0  0  0  0  0  0  0
   12.4820    4.4930   21.9470 C   0  0  0  0  0  0  0  0  0  0  0  0
    8.0400   -3.4870   19.6730 C   0  0  0  0  0  0  0  0  0  0  0  0
    5.9600   -2.8700   19.2080 O   0  0  0  0  0  0  0  0  0  0  0  0
    6.3550    0.5640   17.6230 N   0  0  0  0  0  0  0  0  0  0  0  0
    4.6410    1.7430   18.9770 C   0  0  0  0  0  0  0  0  0  0  0  0
   11.0490   -2.0670   23.6810 C   0  0  0  0  0  0  0  0  0  0  0  0
    8.8280   -3.1160   23.2490 C   0  0  0  0  0  0  0  0  0  0  0  0
    5.9050   -3.0990   23.1820 C   0  0  2  0  0  0  0  0  0  0  0  0
   13.7510    4.3060   22.7930 C   0  0  0  0  0  0  0  0  0  0  0  0
   12.4710   -1.9250   24.2750 C   0  0  0  0  0  0  0  0  0  0  0  0
    5.1960    1.4310   17.7480 C   0  0  0  0  0  0  0  0  0  0  0  0
   10.1130   -3.0920   23.8730 C   0  0  0  0  0  0  0  0  0  0  0  0
    4.7970   -3.8170   22.9610 C   0  0  0  0  0  0  0  0  0  0  0  0
    5.8950   -2.3700   24.3350 C   0  0  0  0  0  0  0  0  0  0  0  0
   12.5230   -0.7440   25.0010 C   0  0  0  0  0  0  0  0  0  0  0  0
   13.3910   -1.8620   23.0730 C   0  0  0  0  0  0  0  0  0  0  0  0
   12.9010   -2.9870   25.0990 C   0  0  0  0  0  0  0  0  0  0  0  0
   14.9980    4.9610   22.2420 C   0  0  0  0  0  0  0  0  0  0  0  0
    4.6410   -4.7950   23.9890 N   0  0  0  0  0  0  0  0  0  0  0  0
    5.3580   -2.9680   25.4400 C   0  0  0  0  0  0  0  0  0  0  0  0
   16.2910    4.2240   22.4170 C   0  0  0  0  0  0  0  0  0  0  0  0
    5.0750   -5.9880   23.5920 N   0  0  0  0  0  0  0  0  0  0  0  0
    4.8680   -4.2860   25.3370 C   0  0  0  0  0  0  0  0  0  0  0  0
   17.0560    4.8410   23.4340 C   0  0  0  0  0  0  0  0  0  0  0  0
    6.6720   -6.0890   22.8420 Cl  0  0  0  0  0  0  0  0  0  0  0  0
    4.0730   -6.3270   22.6420 C   0  0  0  0  0  0  0  0  0  0  0  0
   18.4400    5.0210   23.1430 C   0  0  0  0  0  0  0  0  0  0  0  0
    2.7960   -6.9680   23.2150 C   0  0  2  0  0  0  0  0  0  0  0  0
   19.0850    6.2460   23.6050 C   0  0  0  0  0  0  0  0  0  0  0  0
    1.6970   -5.9920   23.2510 N   0  0  0  0  0  0  0  0  0  0  0  0
    3.0720   -7.3970   24.4880 C   0  0  1  0  0  0  0  0  0  0  0  0
   20.3120    6.7720   23.0420 N   0  0  0  0  0  0  0  0  0  0  0  0
    2.2280   -8.3170   25.0870 C   0  0  0  0  0  0  0  0  0  0  0  0
    4.3460   -8.0090   24.4910 O   0  0  0  0  0  0  0  0  0  0  0  0
    0.4790   -6.2430   22.4880 C   0  0  0  0  0  0  0  0  0  0  0  0
   21.3810    5.9630   23.4050 C   0  0  0  0  0  0  0  0  0  0  0  0
    0.3820   -7.1800   21.7070 O   0  0  0  0  0  0  0  0  0  0  0  0
   -0.5620   -5.3420   22.7210 C   0  0  0  0  0  0  0  0  0  0  0  0
   22.8880    6.0780   23.0800 C   0  0  0  0  0  0  0  0  0  0  0  0
   20.9850    4.9130   24.1670 C   0  0  0  0  0  0  0  0  0  0  0  0
   23.8350    5.0040   23.6610 C   0  0  0  0  0  0  0  0  0  0  0  0
   21.9370    3.9000   24.6890 C   0  0  0  0  0  0  0  0  0  0  0  0
   23.3660    3.9540   24.4500 C   0  0  0  0  0  0  0  0  0  0  0  0
   24.1650    2.6690   25.2140 S   0  0  0  0  0  0  0  0  0  0  0  0
   23.2140    1.5810   25.3610 O   0  0  0  0  0  0  0  0  0  0  0  0
   24.3200    3.1150   26.6860 N   0  0  0  0  0  0  0  0  0  0  0  0
   25.4430    2.4630   24.6040 O   0  0  0  0  0  0  0  0  0  0  0  0
   25.0650    4.2390   27.0990 C   0  0  0  0  0  0  0  0  0  0  0  0
   25.0570    4.5040   28.4220 N   0  0  0  0  0  0  0  0  0  0  0  0
   25.7810    5.0300   26.1270 C   0  0  0  0  0  0  0  0  0  0  0  0
   25.8070    5.6400   28.8550 C   0  0  0  0  0  0  0  0  0  0  0  0
   26.5200    6.1400   26.5230 C   0  0  0  0  0  0  0  0  0  0  0  0
   26.5780    6.5040   27.8680 C   0  0  0  0  0  0  0  0  0  0  0  0
  1  2  1  0
  2  3  1  0
  1  4  1  0
  4  5  1  6
  4  6  1  0
  4  7  1  0
  6  8  1  0
  3  9  1  0
  6 10  1  6
  7 11  1  0
  9 12  1  0
  9 13  2  0
  8 14  1  0
 10 15  2  0
 10 16  1  0
 11 17  2  0
  8 18  1  0
 11 18  1  0
  8 19  1  1
 12 20  1  0
 14 21  1  0
 14 22  2  0
 16 23  2  0
 15 24  1  0
 17 25  1  0
 18 26  2  0
 27 19  1  6
 20 28  1  0
 25 29  1  0
 23 30  1  0
 24 30  2  0
 25 31  2  0
 26 31  1  0
 27 32  1  0
 27 33  1  0
 29 34  1  0
 29 35  1  0
 29 36  1  0
 28 37  1  0
 32 38  1  0
 33 39  2  0
 37 40  1  0
 38 41  1  0
 38 42  1  0
 39 42  1  0
 40 43  1  0
 41 44  1  0
 41 45  1  0
 43 46  1  0
 47 45  1  1
 46 48  1  0
 47 49  1  0
 47 50  1  0
 48 51  1  0
 50 52  1  6
 50 53  1  0
 49 54  1  0
 51 55  1  0
 54 56  2  0
 54 57  1  0
 55 58  2  0
 55 59  1  0
 58 60  1  0
 59 61  2  0
 60 62  2  0
 61 62  1  0
 62 63  1  0
 63 64  2  0
 63 65  1  0
 63 66  2  0
 65 67  1  0
 67 68  2  0
 67 69  1  0
 68 70  1  0
 69 71  2  0
 70 72  2  0
 71 72  1  0
M  END
