x1493-x2764
     RDKit          3D

 32 34  0  0  0  0  0  0  0  0999 V2000
    8.6580   -1.0940   21.3610 N   0  0  0  0  0  0  0  0  0  0  0  0
    7.2470   -1.1050   21.2700 C   0  0  0  0  0  0  0  0  0  0  0  0
    6.4180   -1.8460   21.9560 N   0  0  0  0  0  0  0  0  0  0  0  0
    9.2500   -1.9560   22.3670 C   0  0  0  0  0  0  0  0  0  0  0  0
   10.6830   -1.7330   22.7410 C   0  0  0  0  0  0  0  0  0  0  0  0
    6.5950   -0.1400   20.2930 C   0  0  0  0  0  0  0  0  0  0  0  0
    6.6090   -2.8500   23.0220 C   0  0  0  0  0  0  0  0  0  0  0  0
   11.7940   -1.8470   21.8740 C   0  0  0  0  0  0  0  0  0  0  0  0
   11.1780   -1.3510   24.1240 C   0  0  0  0  0  0  0  0  0  0  0  0
    6.4320   -0.5090   18.9440 C   0  0  0  0  0  0  0  0  0  0  0  0
    6.1250    1.1320   20.7770 C   0  0  0  0  0  0  0  0  0  0  0  0
    6.3570    1.3640   22.1020 O   0  0  0  0  0  0  0  0  0  0  0  0
   13.0200   -1.5930   22.4590 N   0  0  0  0  0  0  0  0  0  0  0  0
   12.8670   -1.2160   24.0900 S   0  0  0  0  0  0  0  0  0  0  0  0
    5.7360    0.4090   17.9520 C   0  0  0  0  0  0  0  0  0  0  0  0
    5.4170    2.1260   19.8610 C   0  0  0  0  0  0  0  0  0  0  0  0
    7.3690   -4.1210   22.5890 C   0  0  1  0  0  0  0  0  0  0  0  0
    7.6320    1.9060   22.4610 C   0  0  0  0  0  0  0  0  0  0  0  0
    5.1920    1.7890   18.4040 C   0  0  0  0  0  0  0  0  0  0  0  0
    7.5530   -4.8680   23.7350 C   0  0  0  0  0  0  0  0  0  0  0  0
    6.7080   -4.9750   21.5810 N   0  0  0  0  0  0  0  0  0  0  0  0
    7.8900    3.3820   22.0860 C   0  0  0  0  0  0  0  0  0  0  0  0
    6.2620   -4.4500   20.3790 C   0  0  0  0  0  0  0  0  0  0  0  0
    6.2520   -5.2070   24.3010 N   0  0  0  0  0  0  0  0  0  0  0  0
    6.0320   -6.1740   22.1280 C   0  0  0  0  0  0  0  0  0  0  0  0
    7.7870    4.4970   22.9080 N   0  0  0  0  0  0  0  0  0  0  0  0
    6.1510   -5.6120   25.7330 C   0  0  0  0  0  0  0  0  0  0  0  0
    5.2090   -4.8560   19.9430 O   0  0  0  0  0  0  0  0  0  0  0  0
    7.0210   -3.4210   19.5780 C   0  0  0  0  0  0  0  0  0  0  0  0
    5.3580   -5.8270   23.3020 C   0  0  0  0  0  0  0  0  0  0  0  0
    4.6840   -5.9580   26.0450 C   0  0  0  0  0  0  0  0  0  0  0  0
    7.0850   -5.6770   26.5280 O   0  0  0  0  0  0  0  0  0  0  0  0
  1  2  1  0
  2  3  2  3
  1  4  1  0
  4  5  1  0
  2  6  1  0
  3  7  1  0
  5  8  1  0
  5  9  2  0
  6 10  2  0
  6 11  1  0
 11 12  1  0
  8 13  2  0
  9 14  1  0
 13 14  1  0
 10 15  1  0
 11 16  2  0
 17  7  1  1
 12 18  1  0
 15 19  2  0
 16 19  1  0
 17 20  1  0
 17 21  1  0
 18 22  1  0
 21 23  1  0
 20 24  1  0
 21 25  1  0
 22 26  3  0
 24 27  1  0
 23 28  2  0
 23 29  1  0
 24 30  1  0
 25 30  1  0
 27 31  1  0
 27 32  2  0
M  END
