x1493-x2694-x0354
     RDKit          3D

 54 59  0  0  0  0  0  0  0  0999 V2000
    7.6890   -1.0820   21.7820 N   0  0  0  0  0  0  0  0  0  0  0  0
    7.1760    0.3170   21.7200 C   0  0  1  0  0  0  0  0  0  0  0  0
    8.1220    1.4660   21.8540 C   0  0  0  0  0  0  0  0  0  0  0  0
    8.9610   -1.6320   22.2180 C   0  0  2  0  0  0  0  0  0  0  0  0
    6.4310    0.6290   20.3410 C   0  0  0  0  0  0  0  0  0  0  0  0
    8.9250   -2.3170   23.5670 N   0  0  0  0  0  0  0  0  0  0  0  0
   10.1380   -0.9500   22.2070 C   0  0  0  0  0  0  0  0  0  0  0  0
    7.7930    2.4750   22.7280 N   0  0  0  0  0  0  0  0  0  0  0  0
    9.1240    1.5910   21.1750 O   0  0  0  0  0  0  0  0  0  0  0  0
    7.8790   -2.1510   24.4760 C   0  0  0  0  0  0  0  0  0  0  0  0
    5.3150    1.4430   20.2390 C   0  0  0  0  0  0  0  0  0  0  0  0
    6.8480    0.1310   19.1110 C   0  0  0  0  0  0  0  0  0  0  0  0
   10.2450   -2.2540   24.1080 O   0  0  0  0  0  0  0  0  0  0  0  0
   10.8760   -1.2060   23.3560 C   0  0  1  0  0  0  0  0  0  0  0  0
   12.3010   -1.4160   23.2750 C   0  0  0  0  0  0  0  0  0  0  0  0
    7.8420   -0.8900   25.3660 C   0  0  0  0  0  0  0  0  0  0  0  0
    6.7110   -3.2410   24.6210 C   0  0  2  0  0  0  0  0  0  0  0  0
    6.3120    0.3560   17.8670 N   0  0  0  0  0  0  0  0  0  0  0  0
    4.6920    1.7310   18.9920 C   0  0  0  0  0  0  0  0  0  0  0  0
    8.5720    3.5880   23.0040 C   0  0  0  0  0  0  0  0  0  0  0  0
   12.9180    0.0190   23.3520 C   0  0  0  0  0  0  0  0  0  0  0  0
   12.8090   -2.1070   21.9920 C   0  0  0  0  0  0  0  0  0  0  0  0
   12.8200   -2.1790   24.4600 C   0  0  0  0  0  0  0  0  0  0  0  0
    6.8670   -0.5470   26.3040 C   0  0  0  0  0  0  0  0  0  0  0  0
    6.6280   -3.7040   25.9310 C   0  0  0  0  0  0  0  0  0  0  0  0
    5.1380    1.2330   17.7830 C   0  0  0  0  0  0  0  0  0  0  0  0
    9.9070    3.3720   23.7060 C   0  0  0  0  0  0  0  0  0  0  0  0
    8.2570    4.9140   22.6970 C   0  0  0  0  0  0  0  0  0  0  0  0
    7.0190   -4.4960   23.7430 C   0  0  1  0  0  0  0  0  0  0  0  0
   10.3910    2.0130   24.1000 C   0  0  0  0  0  0  0  0  0  0  0  0
    7.3260   -0.5570   27.4280 O   0  0  0  0  0  0  0  0  0  0  0  0
    5.6360   -4.7320   26.2170 N   0  0  0  0  0  0  0  0  0  0  0  0
   10.6770    4.4860   23.9800 C   0  0  0  0  0  0  0  0  0  0  0  0
    9.0500    6.0110   22.9890 C   0  0  0  0  0  0  0  0  0  0  0  0
    5.9290   -5.4950   23.9570 N   0  0  0  0  0  0  0  0  0  0  0  0
    7.2090   -4.0260   22.4320 C   0  0  0  0  0  0  0  0  0  0  0  0
    5.4010   -5.5120   25.2180 C   0  0  0  0  0  0  0  0  0  0  0  0
   10.2840    5.9150   23.6350 C   0  0  0  0  0  0  0  0  0  0  0  0
    6.8110    0.3290   28.3160 C   0  0  0  0  0  0  0  0  0  0  0  0
    6.7570   -4.8910   21.3380 N   0  0  0  0  0  0  0  0  0  0  0  0
    5.2160   -5.7590   22.7980 C   0  0  0  0  0  0  0  0  0  0  0  0
   11.0320    7.0970   23.9100 O   0  0  0  0  0  0  0  0  0  0  0  0
    4.5120   -6.5720   25.2440 C   0  0  0  0  0  0  0  0  0  0  0  0
    6.2900   -4.2210   20.2050 C   0  0  0  0  0  0  0  0  0  0  0  0
    6.9280    1.6630   27.9160 C   0  0  0  0  0  0  0  0  0  0  0  0
    6.1460    0.0190   29.6470 C   0  0  0  0  0  0  0  0  0  0  0  0
    6.0150   -6.0850   21.7250 C   0  0  0  0  0  0  0  0  0  0  0  0
   11.8990    6.9890   25.0320 C   0  0  0  0  0  0  0  0  0  0  0  0
    5.1530   -4.4180   19.8270 O   0  0  0  0  0  0  0  0  0  0  0  0
    7.2110   -3.2820   19.4320 C   0  0  0  0  0  0  0  0  0  0  0  0
    6.4230    2.8260   28.7610 C   0  0  0  0  0  0  0  0  0  0  0  0
    5.6090    1.1530   30.5590 C   0  0  0  0  0  0  0  0  0  0  0  0
    5.7460    2.6130   30.1240 C   0  0  0  0  0  0  0  0  0  0  0  0
    5.2590    3.7590   30.9550 C   0  0  0  0  0  0  0  0  0  0  0  0
  2  1  1  6
  2  3  1  0
  4  1  1  1
  2  5  1  0
  4  6  1  0
  4  7  1  0
  3  8  1  0
  3  9  2  0
  6 10  1  0
  5 11  2  0
  5 12  1  0
  6 13  1  0
  7 14  1  0
 13 14  1  0
 14 15  1  6
 10 16  2  3
 17 10  1  1
 12 18  2  0
 11 19  1  0
  8 20  1  0
 15 21  1  0
 15 22  1  0
 15 23  1  0
 16 24  1  0
 17 25  1  0
 18 26  1  0
 19 26  2  0
 20 27  2  0
 20 28  1  0
 17 29  1  0
 27 30  1  0
 24 31  1  0
 25 32  1  0
 27 33  1  0
 28 34  2  0
 29 35  1  0
 29 36  1  6
 32 37  2  0
 35 37  1  0
 33 38  2  0
 34 38  1  0
 31 39  1  0
 36 40  1  0
 35 41  1  0
 38 42  1  0
 37 43  1  0
 40 44  1  0
 39 45  2  0
 39 46  1  0
 40 47  1  0
 41 47  1  0
 42 48  1  0
 44 49  2  0
 44 50  1  0
 45 51  1  0
 46 52  2  0
 51 53  2  0
 52 53  1  0
 53 54  1  0
M  END
