x1493-x3303
     RDKit          3D

 38 42  0  0  0  0  0  0  0  0999 V2000
    4.6690   -6.2590   26.1320 C   0  0  0  0  0  0  0  0  0  0  0  0
    5.8830   -5.7120   25.7490 C   0  0  0  0  0  0  0  0  0  0  0  0
    6.7660   -5.4850   26.8440 O   0  0  0  0  0  0  0  0  0  0  0  0
    6.2280   -5.4250   24.3610 N   0  0  0  0  0  0  0  0  0  0  0  0
    7.5680   -4.9140   24.0960 C   0  0  0  0  0  0  0  0  0  0  0  0
    5.4100   -6.1450   23.2750 C   0  0  0  0  0  0  0  0  0  0  0  0
    7.7720   -4.5210   22.6520 C   0  0  0  0  0  0  0  0  0  0  0  0
    5.8780   -5.9760   21.9230 C   0  0  0  0  0  0  0  0  0  0  0  0
    6.5040   -4.5710   21.8690 C   0  0  0  0  0  0  0  0  0  0  0  0
    6.7210   -4.1070   20.4450 C   0  0  0  0  0  0  0  0  0  0  0  0
    5.3640   -3.6260   22.3290 C   0  0  0  0  0  0  0  0  0  0  0  0
    5.7400   -4.1620   19.7120 O   0  0  0  0  0  0  0  0  0  0  0  0
    8.0920   -3.5570   20.0640 C   0  0  0  0  0  0  0  0  0  0  0  0
    5.2440   -2.5200   21.4950 N   0  0  0  0  0  0  0  0  0  0  0  0
    6.1610   -1.4220   21.2200 C   0  0  0  0  0  0  0  0  0  0  0  0
    7.4070   -1.3230   21.8150 N   0  0  0  0  0  0  0  0  0  0  0  0
    5.6920   -0.2940   20.2510 C   0  0  0  0  0  0  0  0  0  0  0  0
    8.4020   -0.5070   21.2720 C   0  0  0  0  0  0  0  0  0  0  0  0
    7.5030   -1.5540   23.2630 C   0  0  0  0  0  0  0  0  0  0  0  0
    4.6300    0.5760   20.6360 C   0  0  0  0  0  0  0  0  0  0  0  0
    6.2940   -0.1090   19.0120 C   0  0  0  0  0  0  0  0  0  0  0  0
    9.3700    0.0470   22.3200 C   0  0  0  0  0  0  0  0  0  0  0  0
    8.7710   -1.7280   23.7680 C   0  0  0  0  0  0  0  0  0  0  0  0
    4.2060    1.6740   19.6800 C   0  0  0  0  0  0  0  0  0  0  0  0
    5.8550    0.9230   18.1800 C   0  0  0  0  0  0  0  0  0  0  0  0
    3.9570    0.4580   21.8770 C   0  0  0  0  0  0  0  0  0  0  0  0
    6.3700    1.1780   16.9860 O   0  0  0  0  0  0  0  0  0  0  0  0
    9.8030   -0.7900   23.3720 N   0  0  0  0  0  0  0  0  0  0  0  0
    4.7850    1.8440   18.5210 N   0  0  0  0  0  0  0  0  0  0  0  0
    2.9190    1.3150   22.2480 C   0  0  0  0  0  0  0  0  0  0  0  0
    3.1900    2.5160   20.0390 C   0  0  0  0  0  0  0  0  0  0  0  0
   11.0480   -1.3390   23.3750 C   0  0  0  0  0  0  0  0  0  0  0  0
    2.4960    2.3350   21.4030 C   0  0  0  0  0  0  0  0  0  0  0  0
   11.7310   -1.6150   22.1950 C   0  0  0  0  0  0  0  0  0  0  0  0
   11.6920   -1.6650   24.6700 C   0  0  0  0  0  0  0  0  0  0  0  0
   12.9850   -2.1930   22.2000 C   0  0  0  0  0  0  0  0  0  0  0  0
   13.0320   -2.2980   24.7190 C   0  0  0  0  0  0  0  0  0  0  0  0
   13.6840   -2.5740   23.5200 C   0  0  0  0  0  0  0  0  0  0  0  0
  1  2  1  0
  2  3  2  0
  2  4  1  0
  4  5  1  0
  4  6  1  0
  5  7  1  0
  6  8  1  0
  7  9  1  0
  8  9  1  0
  9 10  1  0
  9 11  1  0
 10 12  2  0
 10 13  1  0
 11 14  1  0
 14 15  2  3
 15 16  1  0
 15 17  1  0
 16 18  1  0
 16 19  1  0
 17 20  1  0
 17 21  2  0
 18 22  1  0
 19 23  1  0
 20 24  2  0
 21 25  1  0
 20 26  1  0
 25 27  1  0
 22 28  1  0
 23 28  1  0
 24 29  1  0
 25 29  2  0
 26 30  2  0
 24 31  1  0
 28 32  1  0
 30 33  1  0
 31 33  2  0
 32 34  2  0
 32 35  1  0
 34 36  1  0
 35 37  2  0
 36 38  2  0
 37 38  1  0
M  END
