x1493-x0771-x3113-x3115
     RDKit          3D

 56 59  0  0  0  0  0  0  0  0999 V2000
    7.2410   -1.1220   22.1840 N   0  0  0  0  0  0  0  0  0  0  0  0
    6.9030    0.1800   21.8720 C   0  0  1  0  0  0  0  0  0  0  0  0
    8.0600    1.1480   21.9320 C   0  0  0  0  0  0  0  0  0  0  0  0
    6.3410   -1.9840   22.7560 C   0  0  0  0  0  0  0  0  0  0  0  0
    8.5570   -1.3110   22.6600 C   0  0  0  0  0  0  0  0  0  0  0  0
    6.2790    0.4760   20.4840 C   0  0  0  0  0  0  0  0  0  0  0  0
    9.5040   -1.6840   21.7970 C   0  0  0  0  0  0  0  0  0  0  0  0
    8.8730   -1.1160   23.9770 C   0  0  0  0  0  0  0  0  0  0  0  0
    6.8830   -3.4700   22.9760 C   0  0  2  0  0  0  0  0  0  0  0  0
    8.2420    1.8510   23.1910 N   0  0  0  0  0  0  0  0  0  0  0  0
    8.7850    1.3710   20.9700 O   0  0  0  0  0  0  0  0  0  0  0  0
    5.1380    1.1880   20.2300 C   0  0  0  0  0  0  0  0  0  0  0  0
    6.8840    0.0280   19.3500 C   0  0  0  0  0  0  0  0  0  0  0  0
   10.9190   -1.9180   22.1850 C   0  0  0  0  0  0  0  0  0  0  0  0
   10.1650   -1.3030   24.3950 C   0  0  0  0  0  0  0  0  0  0  0  0
    6.5900   -4.4220   21.9580 C   0  0  0  0  0  0  0  0  0  0  0  0
    6.3010   -3.7380   24.2290 C   0  0  0  0  0  0  0  0  0  0  0  0
    9.1920    2.8870   23.4910 C   0  0  1  0  0  0  0  0  0  0  0  0
    6.9980   -4.2280   20.5280 C   0  0  0  0  0  0  0  0  0  0  0  0
    5.3790   -3.8880   21.2620 C   0  0  0  0  0  0  0  0  0  0  0  0
    6.4590    0.2420   18.1300 N   0  0  0  0  0  0  0  0  0  0  0  0
    4.5300    1.5120   18.9200 C   0  0  0  0  0  0  0  0  0  0  0  0
   11.1770   -1.7020   23.5270 C   0  0  0  0  0  0  0  0  0  0  0  0
    6.2330   -5.7490   22.2320 C   0  0  0  0  0  0  0  0  0  0  0  0
    6.0740   -5.0890   24.4340 C   0  0  2  0  0  0  0  0  0  0  0  0
   10.6250    2.3540   23.3380 C   0  0  0  0  0  0  0  0  0  0  0  0
   12.5800   -1.8680   24.0610 C   0  0  0  0  0  0  0  0  0  0  0  0
    9.0250    4.1260   22.7120 C   0  0  0  0  0  0  0  0  0  0  0  0
    6.1110   -4.7040   19.8510 O   0  0  0  0  0  0  0  0  0  0  0  0
    8.1970   -3.5030   19.9920 C   0  0  0  0  0  0  0  0  0  0  0  0
    5.0200   -5.3720   25.9530 S   0  0  0  0  0  0  0  0  0  0  0  0
    7.4850   -5.5940   24.7010 C   0  0  0  0  0  0  0  0  0  0  0  0
    4.3620   -4.3840   21.6000 O   0  0  0  0  0  0  0  0  0  0  0  0
    5.4590   -2.7830   20.1880 C   0  0  0  0  0  0  0  0  0  0  0  0
    5.2390    1.0140   17.8660 C   0  0  0  0  0  0  0  0  0  0  0  0
    5.5120   -5.8660   23.4130 C   0  0  0  0  0  0  0  0  0  0  0  0
   11.8290    3.3370   23.2220 C   0  0  0  0  0  0  0  0  0  0  0  0
   13.5020   -1.9490   22.8810 C   0  0  0  0  0  0  0  0  0  0  0  0
   12.7820   -2.9640   25.0350 C   0  0  0  0  0  0  0  0  0  0  0  0
   12.8520   -0.5710   24.7900 C   0  0  0  0  0  0  0  0  0  0  0  0
    8.4330    4.9990   23.3610 O   0  0  0  0  0  0  0  0  0  0  0  0
    4.4930   -6.7230   25.9420 O   0  0  0  0  0  0  0  0  0  0  0  0
    5.7600   -4.8390   27.0680 O   0  0  0  0  0  0  0  0  0  0  0  0
    7.8870   -5.9420   26.1400 C   0  0  0  0  0  0  0  0  0  0  0  0
    3.6480   -4.2690   25.9790 C   0  0  0  0  0  0  0  0  0  0  0  0
   11.8990    4.0480   22.2370 O   0  0  0  0  0  0  0  0  0  0  0  0
    8.3220    6.0890   22.4050 C   0  0  0  0  0  0  0  0  0  0  0  0
    7.1500   -6.1750   27.0630 O   0  0  0  0  0  0  0  0  0  0  0  0
    2.3590   -4.6560   25.5660 C   0  0  0  0  0  0  0  0  0  0  0  0
    3.8800   -2.9740   26.4480 C   0  0  0  0  0  0  0  0  0  0  0  0
   13.0470    4.9280   22.3170 C   0  0  0  0  0  0  0  0  0  0  0  0
    2.0010   -6.0220   25.0350 C   0  0  0  0  0  0  0  0  0  0  0  0
    1.3210   -3.7180   25.6570 C   0  0  0  0  0  0  0  0  0  0  0  0
    2.8640   -2.0440   26.5380 C   0  0  0  0  0  0  0  0  0  0  0  0
    1.4440   -2.4050   26.1270 C   0  0  0  0  0  0  0  0  0  0  0  0
    0.3100   -1.4380   26.2360 C   0  0  0  0  0  0  0  0  0  0  0  0
  1  2  1  0
  2  3  1  6
  1  4  1  0
  1  5  1  0
  2  6  1  0
  5  7  2  0
  5  8  1  0
  9  4  1  6
  3 10  1  0
  3 11  2  0
  6 12  2  0
  6 13  1  0
  7 14  1  0
  8 15  2  0
  9 16  1  0
  9 17  1  0
 10 18  1  0
 16 19  1  0
 16 20  1  0
 13 21  2  0
 12 22  1  0
 14 23  2  0
 15 23  1  0
 16 24  1  0
 17 25  1  0
 18 26  1  6
 23 27  1  0
 18 28  1  0
 19 29  2  0
 19 30  1  0
 25 31  1  0
 25 32  1  1
 20 33  2  0
 20 34  1  0
 21 35  1  0
 22 35  2  0
 24 36  1  0
 25 36  1  0
 26 37  1  0
 27 38  1  0
 27 39  1  0
 27 40  1  0
 28 41  1  0
 31 42  2  0
 31 43  2  0
 32 44  1  0
 31 45  1  0
 37 46  1  0
 41 47  1  0
 44 48  2  0
 45 49  2  0
 45 50  1  0
 46 51  1  0
 49 52  1  0
 49 53  1  0
 50 54  2  0
 53 55  2  0
 54 55  1  0
 55 56  1  0
M  END
