x1493-x2608
     RDKit          3D

 30 32  0  0  0  0  0  0  0  0999 V2000
    4.9550   -6.1580   26.1490 C   0  0  0  0  0  0  0  0  0  0  0  0
    6.0390   -5.5340   25.5450 C   0  0  0  0  0  0  0  0  0  0  0  0
    7.1760   -5.4370   26.4050 O   0  0  0  0  0  0  0  0  0  0  0  0
    5.9990   -5.0780   24.2370 N   0  0  0  0  0  0  0  0  0  0  0  0
    7.1600   -4.2810   23.8290 C   0  0  0  0  0  0  0  0  0  0  0  0
    5.3500   -5.8090   23.1550 C   0  0  0  0  0  0  0  0  0  0  0  0
    7.0120   -3.7150   22.5500 C   0  0  2  0  0  0  0  0  0  0  0  0
    6.2680   -5.9710   22.0700 C   0  0  0  0  0  0  0  0  0  0  0  0
    5.7980   -2.7210   22.5500 C   0  0  0  0  0  0  0  0  0  0  0  0
    6.8370   -4.6930   21.5950 N   0  0  0  0  0  0  0  0  0  0  0  0
    6.3910   -4.2270   20.3430 C   0  0  0  0  0  0  0  0  0  0  0  0
    6.1380   -1.2050   22.5610 C   0  0  0  0  0  0  0  0  0  0  0  0
    5.2970   -4.5330   19.8860 O   0  0  0  0  0  0  0  0  0  0  0  0
    7.3330   -3.3360   19.5810 C   0  0  0  0  0  0  0  0  0  0  0  0
    6.9060   -0.8890   21.3440 N   0  0  0  0  0  0  0  0  0  0  0  0
    8.0840   -0.4310   21.5950 C   0  0  0  0  0  0  0  0  0  0  0  0
    6.2230   -0.1650   20.2900 C   0  0  0  0  0  0  0  0  0  0  0  0
    8.9500   -1.1090   22.4340 N   0  0  0  0  0  0  0  0  0  0  0  0
    8.3990    0.6390   21.0720 O   0  0  0  0  0  0  0  0  0  0  0  0
    6.7380   -0.1570   18.9500 C   0  0  0  0  0  0  0  0  0  0  0  0
    5.0600    0.5910   20.4180 C   0  0  0  0  0  0  0  0  0  0  0  0
   10.2270   -0.7010   22.6430 C   0  0  0  0  0  0  0  0  0  0  0  0
    6.1530    0.5660   17.7910 N   0  0  0  0  0  0  0  0  0  0  0  0
    4.4250    1.3050   19.4120 C   0  0  0  0  0  0  0  0  0  0  0  0
   11.5920   -1.2920   22.9160 C   0  0  0  0  0  0  0  0  0  0  0  0
   10.3520    1.0060   22.5750 S   0  0  0  0  0  0  0  0  0  0  0  0
    4.9380    1.3110   18.1410 C   0  0  0  0  0  0  0  0  0  0  0  0
   12.0430    1.0370   22.8340 C   0  0  0  0  0  0  0  0  0  0  0  0
   12.5850   -0.3720   23.0270 C   0  0  0  0  0  0  0  0  0  0  0  0
   12.6790    2.3620   22.8180 C   0  0  0  0  0  0  0  0  0  0  0  0
  1  2  1  0
  2  3  2  0
  2  4  1  0
  4  5  1  0
  4  6  1  0
  5  7  1  0
  6  8  1  0
  7  9  1  1
  7 10  1  0
  8 10  1  0
 10 11  1  0
  9 12  1  0
 11 13  2  0
 11 14  1  0
 12 15  1  0
 15 16  1  0
 15 17  1  0
 16 18  1  0
 16 19  2  0
 17 20  2  0
 17 21  1  0
 18 22  1  0
 20 23  1  0
 21 24  2  0
 22 25  2  0
 22 26  1  0
 23 27  2  0
 24 27  1  0
 26 28  1  0
 25 29  1  0
 28 29  2  0
 28 30  1  0
M  END
