x1493-x2912
     RDKit          3D

 34 36  0  0  0  0  0  0  0  0999 V2000
    6.8920   -0.6300   21.1460 N   0  0  0  0  0  0  0  0  0  0  0  0
    8.0760   -0.1720   21.8320 C   0  0  0  0  0  0  0  0  0  0  0  0
    8.6950    0.8550   21.5250 O   0  0  0  0  0  0  0  0  0  0  0  0
    6.2770    0.0760   20.1120 C   0  0  0  0  0  0  0  0  0  0  0  0
    8.5530   -1.0450   23.0010 C   0  0  2  0  0  0  0  0  0  0  0  0
    5.2530    1.0170   20.3150 C   0  0  0  0  0  0  0  0  0  0  0  0
    6.6940   -0.1380   18.8030 C   0  0  0  0  0  0  0  0  0  0  0  0
    7.6440   -1.1190   24.2200 C   0  0  0  0  0  0  0  0  0  0  0  0
    4.7250    1.3440   21.6810 C   0  0  0  0  0  0  0  0  0  0  0  0
    6.1680    0.5300   17.5800 N   0  0  0  0  0  0  0  0  0  0  0  0
    4.7020    1.6910   19.1760 C   0  0  0  0  0  0  0  0  0  0  0  0
    9.9590   -0.6310   23.1450 C   0  0  0  0  0  0  0  0  0  0  0  0
    8.0950   -2.2070   25.1820 C   0  0  0  0  0  0  0  0  0  0  0  0
    5.1280    1.4690   17.8950 C   0  0  0  0  0  0  0  0  0  0  0  0
   10.4810    0.4230   24.0660 C   0  0  0  0  0  0  0  0  0  0  0  0
   10.9850   -1.2980   22.2580 C   0  0  0  0  0  0  0  0  0  0  0  0
    8.3390   -3.6510   24.6200 C   0  0  0  0  0  0  0  0  0  0  0  0
   11.8140    0.7310   24.0540 C   0  0  0  0  0  0  0  0  0  0  0  0
   12.2550   -0.8720   22.3750 C   0  0  0  0  0  0  0  0  0  0  0  0
   13.1340   -1.4470   21.5510 C   0  0  0  0  0  0  0  0  0  0  0  0
   12.6970    0.1030   23.2300 C   0  0  0  0  0  0  0  0  0  0  0  0
    7.2330   -4.2240   23.6780 C   0  0  2  0  0  0  0  0  0  0  0  0
   13.9320   -1.8740   20.5040 N   0  0  0  0  0  0  0  0  0  0  0  0
    6.3270   -5.1340   24.1940 N   0  0  0  0  0  0  0  0  0  0  0  0
    7.7790   -4.7030   22.4900 C   0  0  0  0  0  0  0  0  0  0  0  0
    6.2820   -5.4570   25.5610 C   0  0  0  0  0  0  0  0  0  0  0  0
    6.8140   -5.1690   21.4970 N   0  0  0  0  0  0  0  0  0  0  0  0
    5.3140   -5.6850   23.2690 C   0  0  0  0  0  0  0  0  0  0  0  0
    4.9740   -6.0360   26.1440 C   0  0  0  0  0  0  0  0  0  0  0  0
    7.3500   -5.3260   26.4890 O   0  0  0  0  0  0  0  0  0  0  0  0
    6.4510   -4.3610   20.4000 C   0  0  0  0  0  0  0  0  0  0  0  0
    5.9460   -6.2090   22.0140 C   0  0  0  0  0  0  0  0  0  0  0  0
    5.3310   -4.4710   19.9040 O   0  0  0  0  0  0  0  0  0  0  0  0
    7.4620   -3.4090   19.8140 C   0  0  0  0  0  0  0  0  0  0  0  0
  1  2  1  0
  2  3  2  0
  1  4  1  0
  2  5  1  0
  4  6  2  0
  4  7  1  0
  5  8  1  1
  6  9  1  0
  7 10  2  0
  6 11  1  0
  5 12  1  0
  8 13  1  0
 10 14  1  0
 11 14  2  0
 12 15  2  0
 12 16  1  0
 13 17  1  0
 15 18  1  0
 16 19  2  0
 19 20  1  0
 18 21  2  0
 19 21  1  0
 22 17  1  1
 20 23  3  0
 22 24  1  0
 22 25  1  0
 24 26  1  0
 25 27  1  0
 24 28  1  0
 26 29  1  0
 26 30  2  0
 27 31  1  0
 27 32  1  0
 28 32  1  0
 31 33  2  0
 31 34  1  0
M  END
