x1493-x2964
     RDKit          3D

 32 34  0  0  0  0  0  0  0  0999 V2000
    4.7720   -6.1690   26.0100 C   0  0  0  0  0  0  0  0  0  0  0  0
    5.9750   -5.5980   25.6150 C   0  0  0  0  0  0  0  0  0  0  0  0
    6.9810   -5.6270   26.6260 O   0  0  0  0  0  0  0  0  0  0  0  0
    6.1680   -5.0570   24.3470 N   0  0  0  0  0  0  0  0  0  0  0  0
    7.3480   -4.2550   24.0500 C   0  0  0  0  0  0  0  0  0  0  0  0
    5.4610   -5.6430   23.1910 C   0  0  0  0  0  0  0  0  0  0  0  0
    7.3650   -3.6750   22.6460 C   0  0  2  0  0  0  0  0  0  0  0  0
    6.3480   -5.9360   22.0910 C   0  0  0  0  0  0  0  0  0  0  0  0
    6.7320   -2.2540   22.5690 C   0  0  0  0  0  0  0  0  0  0  0  0
    6.9190   -4.6530   21.6100 N   0  0  0  0  0  0  0  0  0  0  0  0
    6.5670   -4.1820   20.3320 C   0  0  0  0  0  0  0  0  0  0  0  0
    7.1100   -1.4710   21.4700 C   0  0  0  0  0  0  0  0  0  0  0  0
    5.4590   -4.4750   19.8830 O   0  0  0  0  0  0  0  0  0  0  0  0
    7.5430   -3.3230   19.5260 C   0  0  0  0  0  0  0  0  0  0  0  0
    6.7830   -0.0610   21.5100 N   0  0  0  0  0  0  0  0  0  0  0  0
    8.1370    0.3640   21.8220 C   0  0  0  0  0  0  0  0  0  0  0  0
    6.1310    0.4370   20.3090 C   0  0  0  0  0  0  0  0  0  0  0  0
    8.6090    1.4630   21.0190 O   0  0  0  0  0  0  0  0  0  0  0  0
    8.8890   -0.3030   22.8800 N   0  0  0  0  0  0  0  0  0  0  0  0
    4.9160    1.1390   20.2700 C   0  0  0  0  0  0  0  0  0  0  0  0
    6.8640    0.1570   18.9660 C   0  0  0  0  0  0  0  0  0  0  0  0
    4.3290    1.6100   19.1150 C   0  0  0  0  0  0  0  0  0  0  0  0
    6.4140    0.5610   17.7910 N   0  0  0  0  0  0  0  0  0  0  0  0
   10.2570   -0.1830   22.8820 C   0  0  0  0  0  0  0  0  0  0  0  0
    3.0550    2.3290   19.1540 N   0  0  0  0  0  0  0  0  0  0  0  0
    5.1470    1.2970   17.8330 C   0  0  0  0  0  0  0  0  0  0  0  0
   11.0100    0.9450   23.5150 C   0  0  0  0  0  0  0  0  0  0  0  0
   11.0490   -1.2660   22.1700 C   0  0  0  0  0  0  0  0  0  0  0  0
   12.3850    0.9890   23.4390 C   0  0  0  0  0  0  0  0  0  0  0  0
   12.3840   -1.1290   22.1540 C   0  0  0  0  0  0  0  0  0  0  0  0
   13.2130   -2.3470   21.3310 Cl  0  0  0  0  0  0  0  0  0  0  0  0
   13.0330   -0.0440   22.7640 C   0  0  0  0  0  0  0  0  0  0  0  0
  1  2  1  0
  2  3  2  0
  2  4  1  0
  4  5  1  0
  4  6  1  0
  5  7  1  0
  6  8  1  0
  7  9  1  1
  7 10  1  0
  8 10  1  0
 10 11  1  0
  9 12  1  0
 11 13  2  0
 11 14  1  0
 12 15  1  0
 15 16  1  0
 15 17  1  0
 16 18  2  0
 16 19  1  0
 17 20  2  0
 17 21  1  0
 20 22  1  0
 21 23  2  0
 19 24  1  0
 22 25  1  0
 22 26  2  0
 23 26  1  0
 24 27  2  0
 24 28  1  0
 27 29  1  0
 28 30  2  0
 30 31  1  0
 29 32  2  0
 30 32  1  0
M  END
