x1493-x0978-x2705
     RDKit          3D

 52 55  0  0  0  0  0  0  0  0999 V2000
    7.2340   -0.8770   22.1990 N   0  0  0  0  0  0  0  0  0  0  0  0
    6.9140    0.4190   21.8040 C   0  0  1  0  0  0  0  0  0  0  0  0
    8.0090    1.4180   21.8930 C   0  0  0  0  0  0  0  0  0  0  0  0
    6.2500   -1.4530   23.0420 C   0  0  0  0  0  0  0  0  0  0  0  0
    8.5140   -1.0580   22.8210 C   0  0  0  0  0  0  0  0  0  0  0  0
    5.8810   -2.8740   22.6980 C   0  0  0  0  0  0  0  0  0  0  0  0
    6.2630    0.5680   20.3990 C   0  0  0  0  0  0  0  0  0  0  0  0
    8.6450   -1.1690   24.1580 N   0  0  0  0  0  0  0  0  0  0  0  0
    9.8290   -1.1430   22.0880 C   0  0  0  0  0  0  0  0  0  0  0  0
    7.7530    2.2720   22.8040 N   0  0  0  0  0  0  0  0  0  0  0  0
    8.9940    1.4500   21.1720 O   0  0  0  0  0  0  0  0  0  0  0  0
    5.1320    1.2470   20.1980 C   0  0  0  0  0  0  0  0  0  0  0  0
    6.8750   -0.0030   19.2920 C   0  0  0  0  0  0  0  0  0  0  0  0
    9.9670   -1.3090   24.3330 N   0  0  0  0  0  0  0  0  0  0  0  0
   10.7650   -1.3020   23.0850 C   0  0  0  0  0  0  0  0  0  0  0  0
    6.4930   -4.0020   23.5860 C   0  0  1  0  0  0  0  0  0  0  0  0
   12.2670   -1.4480   23.1540 C   0  0  0  0  0  0  0  0  0  0  0  0
    6.3370    0.1280   17.9300 N   0  0  0  0  0  0  0  0  0  0  0  0
    4.6380    1.3620   18.9290 C   0  0  0  0  0  0  0  0  0  0  0  0
    8.3580    3.5710   22.9290 C   0  0  0  0  0  0  0  0  0  0  0  0
    5.4610   -4.7830   24.1580 C   0  0  2  0  0  0  0  0  0  0  0  0
    7.5090   -4.8150   22.7160 C   0  0  0  0  0  0  0  0  0  0  0  0
   12.8870   -0.1390   23.6500 C   0  0  0  0  0  0  0  0  0  0  0  0
   12.6180   -2.3870   24.1060 C   0  0  0  0  0  0  0  0  0  0  0  0
   12.8740   -1.7960   21.7930 C   0  0  0  0  0  0  0  0  0  0  0  0
    4.5260   -3.8420   24.6220 O   0  0  0  0  0  0  0  0  0  0  0  0
    5.9990   -5.4760   25.4570 C   0  0  0  0  0  0  0  0  0  0  0  0
    5.2020    0.8340   17.8030 C   0  0  0  0  0  0  0  0  0  0  0  0
    9.6300    3.5800   23.5090 C   0  0  0  0  0  0  0  0  0  0  0  0
    7.5720    4.6660   22.4420 C   0  0  0  0  0  0  0  0  0  0  0  0
    6.8010   -5.3920   21.5640 N   0  0  0  0  0  0  0  0  0  0  0  0
    4.6890   -5.4680   22.9740 C   0  0  2  0  0  0  0  0  0  0  0  0
   10.2720    2.2840   23.9490 C   0  0  0  0  0  0  0  0  0  0  0  0
    6.2040    4.6200   21.8170 C   0  0  0  0  0  0  0  0  0  0  0  0
    3.3810   -6.3930   23.2800 C   0  0  2  0  0  0  0  0  0  0  0  0
    5.1670   -5.9970   26.4390 C   0  0  0  0  0  0  0  0  0  0  0  0
    7.2170   -5.5330   25.6360 O   0  0  0  0  0  0  0  0  0  0  0  0
    6.4290   -4.5890   20.4690 C   0  0  0  0  0  0  0  0  0  0  0  0
   10.3110    4.7460   23.6890 C   0  0  0  0  0  0  0  0  0  0  0  0
    8.3930    5.9760   22.6700 C   0  0  0  0  0  0  0  0  0  0  0  0
    5.7040   -6.2580   22.0980 C   0  0  0  0  0  0  0  0  0  0  0  0
    9.3770    1.4450   24.8580 C   0  0  0  0  0  0  0  0  0  0  0  0
    2.1770   -5.5350   23.1800 N   0  0  0  0  0  0  0  0  0  0  0  0
    3.4100   -7.2890   24.3390 C   0  0  1  0  0  0  0  0  0  0  0  0
    5.3340   -4.7500   19.9580 O   0  0  0  0  0  0  0  0  0  0  0  0
    7.4040   -3.5080   19.9260 C   0  0  0  0  0  0  0  0  0  0  0  0
    9.6540    6.0280   23.2430 C   0  0  0  0  0  0  0  0  0  0  0  0
    2.2230   -8.0100   24.4660 C   0  0  0  0  0  0  0  0  0  0  0  0
    4.5340   -8.0180   24.4020 O   0  0  0  0  0  0  0  0  0  0  0  0
    1.0530   -6.1080   22.6550 C   0  0  0  0  0  0  0  0  0  0  0  0
    1.0970   -7.3030   21.9980 O   0  0  0  0  0  0  0  0  0  0  0  0
   -0.3110   -5.4070   22.7820 C   0  0  0  0  0  0  0  0  0  0  0  0
  1  2  1  0
  2  3  1  6
  1  4  1  0
  1  5  1  0
  4  6  1  0
  2  7  1  0
  5  8  2  0
  5  9  1  0
  3 10  1  0
  3 11  2  0
  7 12  2  0
  7 13  1  0
  8 14  1  0
  9 15  2  0
 14 15  1  0
 16  6  1  6
 15 17  1  0
 13 18  2  0
 12 19  1  0
 10 20  1  0
 16 21  1  0
 16 22  1  0
 17 23  1  0
 17 24  1  0
 17 25  1  0
 21 26  1  1
 21 27  1  0
 18 28  1  0
 19 28  2  0
 20 29  2  0
 20 30  1  0
 22 31  1  0
 21 32  1  0
 29 33  1  0
 30 34  1  0
 32 35  1  0
 27 36  1  0
 27 37  2  0
 31 38  1  0
 29 39  1  0
 30 40  2  0
 31 41  1  0
 32 41  1  1
 33 42  1  0
 35 43  1  1
 35 44  1  0
 38 45  2  0
 38 46  1  0
 39 47  2  0
 40 47  1  0
 44 48  1  6
 44 49  1  0
 43 50  1  0
 50 51  2  0
 50 52  1  0
M  END
