x1493-x3298
     RDKit          3D

 42 45  0  0  0  0  0  0  0  0999 V2000
    7.2070    2.1680   21.6520 N   0  0  0  0  0  0  0  0  0  0  0  0
    8.0420    1.0410   21.3800 C   0  0  0  0  0  0  0  0  0  0  0  0
    7.4250   -0.3270   21.2330 C   0  0  1  0  0  0  0  0  0  0  0  0
    7.7960    3.1480   22.5080 C   0  0  0  0  0  0  0  0  0  0  0  0
    9.2150    1.3270   21.2170 O   0  0  0  0  0  0  0  0  0  0  0  0
    7.7690    4.5200   22.2240 C   0  0  0  0  0  0  0  0  0  0  0  0
    8.4630    2.6120   23.7430 C   0  0  0  0  0  0  0  0  0  0  0  0
    6.7490   -0.6270   22.2280 O   0  0  0  0  0  0  0  0  0  0  0  0
    8.5210    1.2010   24.0530 N   0  0  0  0  0  0  0  0  0  0  0  0
    6.5430    0.1210   20.1530 C   0  0  0  0  0  0  0  0  0  0  0  0
    8.4330    5.5990   23.1630 C   0  0  0  0  0  0  0  0  0  0  0  0
    9.0310    3.5770   24.5640 C   0  0  0  0  0  0  0  0  0  0  0  0
    9.9940    0.7430   24.7330 S   0  0  0  0  0  0  0  0  0  0  0  0
    7.2430   -1.6930   23.0330 C   0  0  0  0  0  0  0  0  0  0  0  0
    6.9540    0.0050   18.6660 C   0  0  0  0  0  0  0  0  0  0  0  0
    5.1600    0.7820   20.4060 C   0  0  0  0  0  0  0  0  0  0  0  0
    9.0370    5.0740   24.3000 C   0  0  0  0  0  0  0  0  0  0  0  0
   10.7050    1.9750   24.7310 O   0  0  0  0  0  0  0  0  0  0  0  0
    9.7660   -0.1120   25.8830 O   0  0  0  0  0  0  0  0  0  0  0  0
    6.2150   -2.7980   23.3300 C   0  0  0  0  0  0  0  0  0  0  0  0
    6.2820    0.4180   17.5980 N   0  0  0  0  0  0  0  0  0  0  0  0
    4.4340    1.2340   19.1360 C   0  0  0  0  0  0  0  0  0  0  0  0
   11.0240   -0.1080   23.6020 C   0  0  0  0  0  0  0  0  0  0  0  0
    5.1100    1.0000   17.8010 C   0  0  0  0  0  0  0  0  0  0  0  0
   12.2810    0.4520   23.3760 C   0  0  0  0  0  0  0  0  0  0  0  0
   10.6000   -1.3660   22.9020 C   0  0  0  0  0  0  0  0  0  0  0  0
    6.8890   -4.1470   23.6850 C   0  0  1  0  0  0  0  0  0  0  0  0
   13.1400   -0.1400   22.4980 C   0  0  0  0  0  0  0  0  0  0  0  0
   11.5480   -1.9080   22.0070 C   0  0  0  0  0  0  0  0  0  0  0  0
    5.9520   -5.2070   24.1660 N   0  0  0  0  0  0  0  0  0  0  0  0
    7.7390   -4.6530   22.4970 C   0  0  0  0  0  0  0  0  0  0  0  0
    5.7050   -5.4110   25.5970 C   0  0  0  0  0  0  0  0  0  0  0  0
   12.7750   -1.3020   21.8190 C   0  0  0  0  0  0  0  0  0  0  0  0
    6.8840   -5.1850   21.4410 N   0  0  0  0  0  0  0  0  0  0  0  0
    5.1400   -5.8240   23.0990 C   0  0  0  0  0  0  0  0  0  0  0  0
   13.6200   -1.8390   20.9560 F   0  0  0  0  0  0  0  0  0  0  0  0
    4.7240   -6.4740   26.0250 C   0  0  0  0  0  0  0  0  0  0  0  0
    6.2490   -4.7520   26.4690 O   0  0  0  0  0  0  0  0  0  0  0  0
    6.4950   -4.3560   20.3670 C   0  0  0  0  0  0  0  0  0  0  0  0
    6.0300   -6.2690   21.9260 C   0  0  0  0  0  0  0  0  0  0  0  0
    5.3590   -4.4680   19.9030 O   0  0  0  0  0  0  0  0  0  0  0  0
    7.4790   -3.3780   19.7750 C   0  0  0  0  0  0  0  0  0  0  0  0
  1  2  1  0
  2  3  1  0
  1  4  1  0
  2  5  2  0
  4  6  2  0
  4  7  1  0
  3  8  1  1
  7  9  1  0
  3 10  1  0
  6 11  1  0
  7 12  2  0
 13  9  1  0
  8 14  1  0
 10 15  2  0
 10 16  1  0
 11 17  2  0
 12 17  1  0
 13 18  2  0
 13 19  2  0
 14 20  1  0
 15 21  1  0
 16 22  2  0
 13 23  1  0
 21 24  2  0
 22 24  1  0
 23 25  2  0
 23 26  1  0
 27 20  1  6
 25 28  1  0
 26 29  2  0
 27 30  1  0
 27 31  1  0
 30 32  1  0
 28 33  2  0
 29 33  1  0
 31 34  1  0
 30 35  1  0
 33 36  1  0
 32 37  1  0
 32 38  2  0
 34 39  1  0
 34 40  1  0
 35 40  1  0
 39 41  2  0
 39 42  1  0
M  END
