x1493-x2572
     RDKit          3D

 33 35  0  0  0  0  0  0  0  0999 V2000
    4.4340    1.0180   21.6910 C   0  0  0  0  0  0  0  0  0  0  0  0
    5.0930    0.9070   20.3140 C   0  0  0  0  0  0  0  0  0  0  0  0
    6.2530    0.1540   20.0870 C   0  0  0  0  0  0  0  0  0  0  0  0
    4.5020    1.6280   19.1130 C   0  0  0  0  0  0  0  0  0  0  0  0
    6.7310   -0.4760   21.3070 N   0  0  0  0  0  0  0  0  0  0  0  0
    6.9360   -0.0120   18.8280 C   0  0  0  0  0  0  0  0  0  0  0  0
    5.2520    1.4480   17.7790 C   0  0  0  0  0  0  0  0  0  0  0  0
    8.0160   -0.1920   21.8850 C   0  0  0  0  0  0  0  0  0  0  0  0
    6.4400    0.6510   17.6190 N   0  0  0  0  0  0  0  0  0  0  0  0
    8.7000    1.0230   21.5380 O   0  0  0  0  0  0  0  0  0  0  0  0
    8.5600   -1.1250   22.7520 C   0  0  2  0  0  0  0  0  0  0  0  0
    7.7730   -1.5540   23.9660 C   0  0  0  0  0  0  0  0  0  0  0  0
   10.0110   -0.7270   22.9420 C   0  0  0  0  0  0  0  0  0  0  0  0
    6.6140   -2.3650   23.9600 C   0  0  0  0  0  0  0  0  0  0  0  0
   10.4500    0.3190   23.7620 C   0  0  0  0  0  0  0  0  0  0  0  0
   10.9200   -1.4490   22.2420 C   0  0  0  0  0  0  0  0  0  0  0  0
   12.0160    0.6180   23.8190 C   0  0  0  0  0  0  0  0  0  0  0  0
   12.2720   -1.2130   22.2800 C   0  0  0  0  0  0  0  0  0  0  0  0
    6.9230   -3.8990   23.9730 C   0  0  1  0  0  0  0  0  0  0  0  0
   13.0240   -2.0780   21.4830 C   0  0  0  0  0  0  0  0  0  0  0  0
   12.9420   -0.1030   23.1110 C   0  0  0  0  0  0  0  0  0  0  0  0
    5.8390   -4.8000   24.4170 N   0  0  0  0  0  0  0  0  0  0  0  0
    7.5780   -4.4410   22.7060 C   0  0  0  0  0  0  0  0  0  0  0  0
   13.6190   -3.0950   20.6440 N   0  0  0  0  0  0  0  0  0  0  0  0
    6.0640   -5.4380   25.6380 C   0  0  0  0  0  0  0  0  0  0  0  0
    6.7270   -4.9910   21.6630 N   0  0  0  0  0  0  0  0  0  0  0  0
    5.0490   -5.4890   23.3680 C   0  0  0  0  0  0  0  0  0  0  0  0
    4.8760   -6.1620   26.2950 C   0  0  0  0  0  0  0  0  0  0  0  0
    7.1670   -5.4470   26.1800 O   0  0  0  0  0  0  0  0  0  0  0  0
    6.3620   -4.3620   20.4580 C   0  0  0  0  0  0  0  0  0  0  0  0
    5.8390   -6.0150   22.1670 C   0  0  0  0  0  0  0  0  0  0  0  0
    5.3010   -4.6660   19.9300 O   0  0  0  0  0  0  0  0  0  0  0  0
    7.2560   -3.3320   19.8160 C   0  0  0  0  0  0  0  0  0  0  0  0
  1  2  1  0
  2  3  2  0
  2  4  1  0
  3  5  1  0
  3  6  1  0
  4  7  2  0
  5  8  1  0
  6  9  2  0
  7  9  1  0
  8 10  2  0
  8 11  1  0
 11 12  1  1
 11 13  1  0
 12 14  1  0
 13 15  2  0
 13 16  1  0
 15 17  1  0
 16 18  2  0
 19 14  1  6
 18 20  1  0
 17 21  2  0
 18 21  1  0
 19 22  1  0
 19 23  1  0
 20 24  3  0
 22 25  1  0
 23 26  1  0
 22 27  1  0
 25 28  1  0
 25 29  2  0
 26 30  1  0
 26 31  1  0
 27 31  1  0
 30 32  2  0
 30 33  1  0
M  END
