x1493-x2646
     RDKit          3D

 32 34  0  0  0  0  0  0  0  0999 V2000
    4.7640   -6.1660   25.9720 C   0  0  0  0  0  0  0  0  0  0  0  0
    5.9410   -5.5740   25.5290 C   0  0  0  0  0  0  0  0  0  0  0  0
    6.9710   -5.6000   26.5200 O   0  0  0  0  0  0  0  0  0  0  0  0
    6.1020   -4.9830   24.1920 N   0  0  0  0  0  0  0  0  0  0  0  0
    7.2750   -4.1830   23.6830 C   0  0  2  0  0  0  0  0  0  0  0  0
    5.1740   -5.5440   23.1560 C   0  0  0  0  0  0  0  0  0  0  0  0
    7.0760   -2.6910   23.4070 C   0  0  0  0  0  0  0  0  0  0  0  0
    7.8440   -4.8850   22.4290 C   0  0  0  0  0  0  0  0  0  0  0  0
    5.8140   -6.1020   22.0450 C   0  0  0  0  0  0  0  0  0  0  0  0
    8.2690   -2.1880   22.5970 C   0  0  0  0  0  0  0  0  0  0  0  0
    6.7900   -5.1820   21.4640 N   0  0  0  0  0  0  0  0  0  0  0  0
    6.4030   -4.3770   20.3580 C   0  0  0  0  0  0  0  0  0  0  0  0
    8.6630   -0.7170   22.7800 C   0  0  2  0  0  0  0  0  0  0  0  0
    5.2720   -4.5170   19.9050 O   0  0  0  0  0  0  0  0  0  0  0  0
    7.3360   -3.3910   19.6750 C   0  0  0  0  0  0  0  0  0  0  0  0
    8.1650    0.1280   21.6150 C   0  0  0  0  0  0  0  0  0  0  0  0
   10.1410   -0.5030   22.8960 C   0  0  0  0  0  0  0  0  0  0  0  0
    8.7700    1.1620   21.2600 O   0  0  0  0  0  0  0  0  0  0  0  0
    7.0240   -0.3850   21.0580 N   0  0  0  0  0  0  0  0  0  0  0  0
   10.6920    0.4360   23.7640 C   0  0  0  0  0  0  0  0  0  0  0  0
   10.9700   -1.2970   22.0700 C   0  0  0  0  0  0  0  0  0  0  0  0
    6.4000    0.2270   19.9880 C   0  0  0  0  0  0  0  0  0  0  0  0
   12.0490    0.6400   23.8520 C   0  0  0  0  0  0  0  0  0  0  0  0
   12.3150   -1.1130   22.1390 C   0  0  0  0  0  0  0  0  0  0  0  0
   13.2960   -2.0320   21.1460 Cl  0  0  0  0  0  0  0  0  0  0  0  0
    6.8920    0.1620   18.7040 C   0  0  0  0  0  0  0  0  0  0  0  0
    5.2300    0.9560   20.1830 C   0  0  0  0  0  0  0  0  0  0  0  0
   12.9110   -0.0680   23.0980 C   0  0  0  0  0  0  0  0  0  0  0  0
    4.5910    1.0880   21.5350 C   0  0  0  0  0  0  0  0  0  0  0  0
    6.3740    0.7450   17.6060 N   0  0  0  0  0  0  0  0  0  0  0  0
    4.5330    1.6840   18.9590 C   0  0  0  0  0  0  0  0  0  0  0  0
    5.1490    1.5380   17.7600 C   0  0  0  0  0  0  0  0  0  0  0  0
  1  2  1  0
  2  3  2  0
  2  4  1  0
  4  5  1  0
  4  6  1  0
  5  7  1  6
  5  8  1  0
  6  9  1  0
  7 10  1  0
  8 11  1  0
  9 11  1  0
 11 12  1  0
 13 10  1  6
 12 14  2  0
 12 15  1  0
 13 16  1  0
 13 17  1  0
 16 18  2  0
 16 19  1  0
 17 20  2  0
 17 21  1  0
 19 22  1  0
 20 23  1  0
 21 24  2  0
 24 25  1  0
 22 26  2  0
 22 27  1  0
 23 28  2  0
 24 28  1  0
 27 29  1  0
 26 30  1  0
 27 31  2  0
 30 32  2  0
 31 32  1  0
M  END
