x1493-x3115
     RDKit          3D

 38 40  0  0  0  0  0  0  0  0999 V2000
    7.2330   -1.3520   21.8410 N   0  0  0  0  0  0  0  0  0  0  0  0
    6.7310   -0.0520   21.7720 C   0  0  1  0  0  0  0  0  0  0  0  0
    7.5500    1.0460   21.9810 C   0  0  0  0  0  0  0  0  0  0  0  0
    6.4490   -2.3930   22.4380 C   0  0  0  0  0  0  0  0  0  0  0  0
    8.4760   -1.4870   22.4540 C   0  0  0  0  0  0  0  0  0  0  0  0
    6.2070    0.3290   20.4050 C   0  0  0  0  0  0  0  0  0  0  0  0
    9.6380   -1.3700   21.7410 C   0  0  0  0  0  0  0  0  0  0  0  0
    8.5560   -1.7790   23.9390 C   0  0  0  0  0  0  0  0  0  0  0  0
    7.1630   -3.7910   22.5000 C   0  0  1  0  0  0  0  0  0  0  0  0
    7.2610    1.9770   23.0510 N   0  0  0  0  0  0  0  0  0  0  0  0
    8.6270    1.1990   21.0420 O   0  0  0  0  0  0  0  0  0  0  0  0
    5.0380    1.1590   20.3310 C   0  0  0  0  0  0  0  0  0  0  0  0
    6.8450   -0.0900   19.2210 C   0  0  0  0  0  0  0  0  0  0  0  0
   10.8330   -1.5340   22.3630 C   0  0  0  0  0  0  0  0  0  0  0  0
    9.8460   -1.9340   24.5160 C   0  0  0  0  0  0  0  0  0  0  0  0
    7.2320   -4.3420   23.8930 C   0  0  0  0  0  0  0  0  0  0  0  0
    6.6990   -4.7630   21.5310 N   0  0  0  0  0  0  0  0  0  0  0  0
    8.1280    3.1070   23.3040 C   0  0  0  0  0  0  0  0  0  0  0  0
    6.2950   -4.2370   20.3100 C   0  0  0  0  0  0  0  0  0  0  0  0
    6.3300    0.3340   17.9170 N   0  0  0  0  0  0  0  0  0  0  0  0
    4.4870    1.6050   19.0180 C   0  0  0  0  0  0  0  0  0  0  0  0
   10.9650   -1.8110   23.7040 C   0  0  0  0  0  0  0  0  0  0  0  0
    6.0690   -5.1570   24.2860 N   0  0  0  0  0  0  0  0  0  0  0  0
    6.1900   -6.0260   22.0830 C   0  0  0  0  0  0  0  0  0  0  0  0
    7.7370    4.3850   22.5400 C   0  0  0  0  0  0  0  0  0  0  0  0
   12.3340   -1.9760   24.3080 C   0  0  0  0  0  0  0  0  0  0  0  0
    5.9710   -5.6510   25.6670 C   0  0  0  0  0  0  0  0  0  0  0  0
    5.1980   -4.5190   19.8620 O   0  0  0  0  0  0  0  0  0  0  0  0
    7.2380   -3.3330   19.5580 C   0  0  0  0  0  0  0  0  0  0  0  0
    5.1910    1.1610   17.7960 C   0  0  0  0  0  0  0  0  0  0  0  0
    5.3760   -5.8710   23.1940 C   0  0  0  0  0  0  0  0  0  0  0  0
    8.4270    5.3120   22.9950 O   0  0  0  0  0  0  0  0  0  0  0  0
   13.3040   -2.2390   23.3330 C   0  0  0  0  0  0  0  0  0  0  0  0
   12.2010   -3.1620   25.2560 C   0  0  0  0  0  0  0  0  0  0  0  0
   12.6810   -0.7230   25.0810 C   0  0  0  0  0  0  0  0  0  0  0  0
    4.7200   -6.2510   26.0430 C   0  0  0  0  0  0  0  0  0  0  0  0
    6.9050   -5.5650   26.4630 O   0  0  0  0  0  0  0  0  0  0  0  0
    8.3320    6.4870   22.1940 C   0  0  0  0  0  0  0  0  0  0  0  0
  1  2  1  0
  2  3  1  6
  1  4  1  0
  1  5  1  0
  2  6  1  0
  5  7  2  0
  5  8  1  0
  9  4  1  1
  3 10  1  0
  3 11  2  0
  6 12  2  0
  6 13  1  0
  7 14  1  0
  8 15  2  0
  9 16  1  0
  9 17  1  0
 10 18  1  0
 17 19  1  0
 13 20  2  0
 12 21  1  0
 14 22  2  0
 15 22  1  0
 16 23  1  0
 17 24  1  0
 18 25  1  0
 22 26  1  0
 23 27  1  0
 19 28  2  0
 19 29  1  0
 20 30  1  0
 21 30  2  0
 23 31  1  0
 24 31  1  0
 25 32  1  0
 26 33  1  0
 26 34  1  0
 26 35  1  0
 27 36  1  0
 27 37  2  0
 32 38  1  0
M  END
