x1493-x0540-x0771-x3113
     RDKit          3D

 65 69  0  0  0  0  0  0  0  0999 V2000
    7.4460   -1.1160   21.9660 N   0  0  0  0  0  0  0  0  0  0  0  0
    7.1090    0.1850   21.7060 C   0  0  1  0  0  0  0  0  0  0  0  0
    8.1980    1.1910   21.9840 C   0  0  0  0  0  0  0  0  0  0  0  0
    6.3210   -1.9270   22.4270 C   0  0  0  0  0  0  0  0  0  0  0  0
    8.6750   -1.4000   22.6140 C   0  0  0  0  0  0  0  0  0  0  0  0
    6.3720    0.4540   20.3920 C   0  0  0  0  0  0  0  0  0  0  0  0
    9.8210   -1.4040   21.8840 C   0  0  0  0  0  0  0  0  0  0  0  0
    8.7440   -1.6810   24.0950 C   0  0  0  0  0  0  0  0  0  0  0  0
    6.6420   -3.4330   22.6950 C   0  0  2  0  0  0  0  0  0  0  0  0
    8.3530    1.5160   23.0870 N   0  0  0  0  0  0  0  0  0  0  0  0
    8.8790    1.6750   21.0750 O   0  0  0  0  0  0  0  0  0  0  0  0
    5.1340    1.0170   20.3200 C   0  0  0  0  0  0  0  0  0  0  0  0
    6.9750    0.1350   19.2610 C   0  0  0  0  0  0  0  0  0  0  0  0
   11.0950   -1.6520   22.3650 C   0  0  0  0  0  0  0  0  0  0  0  0
   10.0120   -1.9200   24.5580 C   0  0  0  0  0  0  0  0  0  0  0  0
    5.9620   -4.3470   21.6200 C   0  0  0  0  0  0  0  0  0  0  0  0
    6.2310   -3.5920   24.0480 C   0  0  0  0  0  0  0  0  0  0  0  0
    9.3000    2.4070   23.4000 C   0  0  0  0  0  0  0  0  0  0  0  0
    4.3910    1.3630   21.5680 C   0  0  0  0  0  0  0  0  0  0  0  0
    5.8180   -3.8230   20.1560 C   0  0  0  0  0  0  0  0  0  0  0  0
    6.4470   -5.6420   21.1940 C   0  0  0  0  0  0  0  0  0  0  0  0
    6.4810    0.3440   17.9160 N   0  0  0  0  0  0  0  0  0  0  0  0
    4.4960    1.2960   18.9940 C   0  0  0  0  0  0  0  0  0  0  0  0
   11.1320   -1.9060   23.7360 C   0  0  0  0  0  0  0  0  0  0  0  0
    4.8090   -4.7690   22.2350 C   0  0  0  0  0  0  0  0  0  0  0  0
    5.8970   -4.8560   24.4960 C   0  0  2  0  0  0  0  0  0  0  0  0
   10.7740    1.9900   23.3020 C   0  0  0  0  0  0  0  0  0  0  0  0
   12.4400   -2.1820   24.4120 C   0  0  0  0  0  0  0  0  0  0  0  0
    5.0140    2.3550   22.3210 C   0  0  0  0  0  0  0  0  0  0  0  0
    4.8160   -4.1160   19.5790 O   0  0  0  0  0  0  0  0  0  0  0  0
    6.8560   -3.0480   19.3140 C   0  0  0  0  0  0  0  0  0  0  0  0
    5.0080   -5.1730   25.9770 S   0  0  0  0  0  0  0  0  0  0  0  0
    7.2390   -5.5580   24.6640 C   0  0  0  0  0  0  0  0  0  0  0  0
    5.8340   -6.0730   20.2290 O   0  0  0  0  0  0  0  0  0  0  0  0
    7.4910   -6.3550   21.8710 C   0  0  0  0  0  0  0  0  0  0  0  0
    5.1630    0.9730   17.8370 C   0  0  0  0  0  0  0  0  0  0  0  0
    5.0210   -5.5000   23.4060 C   0  0  0  0  0  0  0  0  0  0  0  0
   11.7220    3.1840   23.2530 C   0  0  0  0  0  0  0  0  0  0  0  0
   13.4930   -2.4000   23.3360 C   0  0  0  0  0  0  0  0  0  0  0  0
   12.1450   -3.3310   25.3460 C   0  0  0  0  0  0  0  0  0  0  0  0
   12.8780   -1.0970   25.0260 C   0  0  0  0  0  0  0  0  0  0  0  0
    4.0920    3.1370   22.9260 N   0  0  0  0  0  0  0  0  0  0  0  0
    4.5650   -6.5550   25.9710 O   0  0  0  0  0  0  0  0  0  0  0  0
    5.8130   -4.6660   27.0630 O   0  0  0  0  0  0  0  0  0  0  0  0
    7.7250   -5.6630   25.9600 C   0  0  0  0  0  0  0  0  0  0  0  0
    3.6020   -4.1560   25.9890 C   0  0  0  0  0  0  0  0  0  0  0  0
   11.8300    3.9440   22.3090 O   0  0  0  0  0  0  0  0  0  0  0  0
    2.9300    2.6880   23.4250 C   0  0  0  0  0  0  0  0  0  0  0  0
    7.1330   -6.1930   26.8770 O   0  0  0  0  0  0  0  0  0  0  0  0
    2.2050   -4.6650   25.5140 C   0  0  0  0  0  0  0  0  0  0  0  0
    3.7460   -2.8480   26.4430 C   0  0  0  0  0  0  0  0  0  0  0  0
   13.0110    4.7290   22.4480 C   0  0  0  0  0  0  0  0  0  0  0  0
    2.9760    1.7770   24.2510 O   0  0  0  0  0  0  0  0  0  0  0  0
    1.7630    3.2380   23.0240 N   0  0  0  0  0  0  0  0  0  0  0  0
    1.8650   -6.0350   24.9900 C   0  0  0  0  0  0  0  0  0  0  0  0
    1.1230   -3.6210   25.6220 C   0  0  0  0  0  0  0  0  0  0  0  0
    2.6810   -1.9680   26.5000 C   0  0  0  0  0  0  0  0  0  0  0  0
    0.5780    3.3410   23.8630 C   0  0  0  0  0  0  0  0  0  0  0  0
    1.3860   -2.3350   26.1040 C   0  0  0  0  0  0  0  0  0  0  0  0
    0.2840   -1.3310   26.2070 C   0  0  0  0  0  0  0  0  0  0  0  0
    0.5570    4.5070   24.6300 C   0  0  0  0  0  0  0  0  0  0  0  0
   -0.5770    3.0490   23.1520 C   0  0  0  0  0  0  0  0  0  0  0  0
   -0.6760    4.9120   25.1500 C   0  0  0  0  0  0  0  0  0  0  0  0
   -1.7880    3.4160   23.7600 C   0  0  0  0  0  0  0  0  0  0  0  0
   -1.8270    4.6990   24.3200 C   0  0  0  0  0  0  0  0  0  0  0  0
  1  2  1  0
  2  3  1  6
  1  4  1  0
  1  5  1  0
  2  6  1  0
  5  7  2  0
  5  8  1  0
  9  4  1  6
  3 10  1  0
  3 11  2  0
  6 12  1  0
  6 13  2  0
  7 14  1  0
  8 15  2  0
  9 16  1  0
  9 17  1  0
 10 18  1  0
 12 19  1  0
 16 20  1  0
 16 21  1  0
 13 22  1  0
 12 23  2  0
 14 24  2  0
 15 24  1  0
 16 25  1  0
 17 26  1  0
 18 27  1  0
 24 28  1  0
 19 29  1  0
 20 30  2  0
 20 31  1  0
 26 32  1  0
 26 33  1  1
 21 34  2  0
 21 35  1  0
 22 36  2  0
 23 36  1  0
 25 37  1  0
 26 37  1  0
 27 38  1  0
 28 39  1  0
 28 40  1  0
 28 41  1  0
 29 42  1  0
 32 43  2  0
 32 44  2  0
 33 45  1  0
 32 46  1  0
 38 47  1  0
 42 48  1  0
 45 49  2  0
 46 50  2  0
 46 51  1  0
 47 52  1  0
 48 53  2  0
 48 54  1  0
 50 55  1  0
 50 56  1  0
 51 57  2  0
 54 58  1  0
 56 59  2  0
 57 59  1  0
 59 60  1  0
 58 61  1  0
 58 62  1  0
 61 63  1  0
 62 64  1  0
 63 65  1  0
 64 65  1  0
M  END
