x1493-x3117-x3113
     RDKit          3D

 44 48  0  0  0  0  0  0  0  0999 V2000
    7.2710   -1.2520   22.3070 N   0  0  0  0  0  0  0  0  0  0  0  0
    6.8760    0.0500   21.9730 C   0  0  1  0  0  0  0  0  0  0  0  0
    8.0780    1.0080   22.0470 C   0  0  0  0  0  0  0  0  0  0  0  0
    6.4250   -2.4110   22.3160 C   0  0  0  0  0  0  0  0  0  0  0  0
    8.6080   -1.4970   22.8570 C   0  0  0  0  0  0  0  0  0  0  0  0
    6.3480    0.2870   20.5070 C   0  0  0  0  0  0  0  0  0  0  0  0
    9.7260   -1.6050   21.8830 C   0  0  0  0  0  0  0  0  0  0  0  0
    8.7380   -1.6110   24.2770 C   0  0  0  0  0  0  0  0  0  0  0  0
    7.1290   -3.6860   22.4550 C   0  0  1  0  0  0  0  0  0  0  0  0
    8.2800    1.7870   23.2150 N   0  0  0  0  0  0  0  0  0  0  0  0
    8.8270    1.1200   21.0820 O   0  0  0  0  0  0  0  0  0  0  0  0
    5.1060    1.1480   20.4290 C   0  0  0  0  0  0  0  0  0  0  0  0
    6.9360   -0.2100   19.1930 C   0  0  0  0  0  0  0  0  0  0  0  0
   11.2030   -1.8510   22.1380 C   0  0  0  0  0  0  0  0  0  0  0  0
    9.9700   -1.8200   24.5920 C   0  0  0  0  0  0  0  0  0  0  0  0
    7.2030   -4.0020   23.8800 C   0  0  0  0  0  0  0  0  0  0  0  0
    6.7290   -4.6280   21.5640 N   0  0  0  0  0  0  0  0  0  0  0  0
    6.3070   -4.1990   20.3170 C   0  0  0  0  0  0  0  0  0  0  0  0
    6.3860    0.1100   18.0210 N   0  0  0  0  0  0  0  0  0  0  0  0
    4.5400    1.4740   19.2150 C   0  0  0  0  0  0  0  0  0  0  0  0
   11.0980   -1.9280   23.5810 C   0  0  0  0  0  0  0  0  0  0  0  0
    9.5070    2.6440   23.1640 C   0  0  2  0  0  0  0  0  0  0  0  0
    6.1750   -4.9990   24.3050 N   0  0  0  0  0  0  0  0  0  0  0  0
    6.2580   -5.9090   22.1060 C   0  0  0  0  0  0  0  0  0  0  0  0
   10.6530    1.6920   23.0130 C   0  0  0  0  0  0  0  0  0  0  0  0
   12.4110   -2.1710   24.2960 C   0  0  0  0  0  0  0  0  0  0  0  0
    6.1380   -5.5110   25.5980 C   0  0  0  0  0  0  0  0  0  0  0  0
    5.2350   -4.5660   19.8850 O   0  0  0  0  0  0  0  0  0  0  0  0
    7.2110   -3.2750   19.5000 C   0  0  0  0  0  0  0  0  0  0  0  0
    5.1580    0.9730   17.9480 C   0  0  0  0  0  0  0  0  0  0  0  0
    9.9300    3.5230   24.1440 C   0  0  1  0  0  0  0  0  0  0  0  0
    9.2110    3.4880   22.1240 C   0  0  0  0  0  0  0  0  0  0  0  0
    5.4720   -5.7330   23.2300 C   0  0  0  0  0  0  0  0  0  0  0  0
   11.3820    3.7030   23.8280 N   0  0  0  0  0  0  0  0  0  0  0  0
   11.7640    2.5950   23.1140 C   0  0  0  0  0  0  0  0  0  0  0  0
   13.5060   -2.4470   23.2930 C   0  0  0  0  0  0  0  0  0  0  0  0
   12.1110   -3.2220   25.3120 C   0  0  0  0  0  0  0  0  0  0  0  0
   12.6930   -0.8290   25.0510 C   0  0  0  0  0  0  0  0  0  0  0  0
    4.8230   -6.1440   26.0990 C   0  0  0  0  0  0  0  0  0  0  0  0
    7.2340   -5.4730   26.4220 O   0  0  0  0  0  0  0  0  0  0  0  0
    9.3480    4.7500   24.4750 O   0  0  0  0  0  0  0  0  0  0  0  0
    8.1840    4.5190   22.4350 C   0  0  0  0  0  0  0  0  0  0  0  0
   11.8590    4.9100   23.3390 C   0  0  0  0  0  0  0  0  0  0  0  0
    8.8530    5.4730   23.3340 C   0  0  0  0  0  0  0  0  0  0  0  0
  1  2  1  0
  2  3  1  6
  1  4  1  0
  1  5  1  0
  2  6  1  0
  5  7  2  0
  5  8  1  0
  9  4  1  1
  3 10  1  0
  3 11  2  0
  6 12  2  0
  6 13  1  0
  7 14  1  0
  8 15  2  0
  9 16  1  0
  9 17  1  0
 17 18  1  0
 13 19  2  0
 12 20  1  0
 14 21  2  0
 15 21  1  0
 22 10  1  1
 16 23  1  0
 17 24  1  0
 22 25  1  0
 21 26  1  0
 23 27  1  0
 18 28  2  0
 18 29  1  0
 19 30  1  0
 20 30  2  0
 22 31  1  0
 22 32  1  0
 23 33  1  0
 24 33  1  0
 31 34  1  0
 25 35  1  0
 34 35  1  0
 26 36  1  0
 26 37  1  0
 26 38  1  0
 27 39  1  0
 27 40  2  0
 31 41  1  6
 32 42  1  0
 34 43  1  0
 41 44  1  0
 42 44  1  0
M  END
