x1493-x2563
     RDKit          3D

 34 37  0  0  0  0  0  0  0  0999 V2000
    4.3440   -6.3250   25.6770 C   0  0  0  0  0  0  0  0  0  0  0  0
    5.5260   -5.6450   25.4520 C   0  0  0  0  0  0  0  0  0  0  0  0
    6.3250   -5.6480   26.6260 O   0  0  0  0  0  0  0  0  0  0  0  0
    5.8570   -5.0210   24.1520 N   0  0  0  0  0  0  0  0  0  0  0  0
    7.1690   -4.4000   23.8510 C   0  0  0  0  0  0  0  0  0  0  0  0
    5.1910   -5.7090   23.0210 C   0  0  0  0  0  0  0  0  0  0  0  0
    7.1290   -3.8260   22.5790 C   0  0  2  0  0  0  0  0  0  0  0  0
    6.1800   -6.0270   22.0350 C   0  0  0  0  0  0  0  0  0  0  0  0
    6.1390   -2.6240   22.5450 C   0  0  0  0  0  0  0  0  0  0  0  0
    6.7600   -4.7710   21.5250 N   0  0  0  0  0  0  0  0  0  0  0  0
    6.3450   -4.2690   20.2920 C   0  0  0  0  0  0  0  0  0  0  0  0
    6.8270   -1.2490   22.5380 C   0  0  0  0  0  0  0  0  0  0  0  0
    5.2440   -4.5780   19.8810 O   0  0  0  0  0  0  0  0  0  0  0  0
    7.2240   -3.3580   19.4710 C   0  0  0  0  0  0  0  0  0  0  0  0
    7.3030   -0.7870   21.1300 C   0  0  2  0  0  0  0  0  0  0  0  0
    8.5750    0.0190   21.2570 C   0  0  0  0  0  0  0  0  0  0  0  0
    6.4340   -0.0460   20.1440 C   0  0  0  0  0  0  0  0  0  0  0  0
    8.5540    1.4420   21.0350 O   0  0  0  0  0  0  0  0  0  0  0  0
    9.5690   -0.6870   21.5480 N   0  0  0  0  0  0  0  0  0  0  0  0
    5.1640    0.7110   20.3830 C   0  0  0  0  0  0  0  0  0  0  0  0
    6.9300   -0.0500   18.6690 C   0  0  0  0  0  0  0  0  0  0  0  0
    6.2650    0.6190   17.5880 N   0  0  0  0  0  0  0  0  0  0  0  0
    4.5070    1.3700   19.3320 C   0  0  0  0  0  0  0  0  0  0  0  0
    4.5640    0.8110   21.6590 C   0  0  0  0  0  0  0  0  0  0  0  0
   10.3030   -0.5670   22.7000 C   0  0  0  0  0  0  0  0  0  0  0  0
    5.0720    1.3060   18.0060 C   0  0  0  0  0  0  0  0  0  0  0  0
    3.3280    2.0790   19.5570 C   0  0  0  0  0  0  0  0  0  0  0  0
    3.4000    1.5110   21.8680 C   0  0  0  0  0  0  0  0  0  0  0  0
   11.6770   -0.7410   22.6030 C   0  0  0  0  0  0  0  0  0  0  0  0
    9.7010   -0.2630   24.0290 C   0  0  0  0  0  0  0  0  0  0  0  0
    2.7640    2.1590   20.8090 C   0  0  0  0  0  0  0  0  0  0  0  0
   12.5620   -0.6200   23.8430 C   0  0  0  0  0  0  0  0  0  0  0  0
   10.5530   -0.1610   25.2170 C   0  0  0  0  0  0  0  0  0  0  0  0
   12.0630   -0.3530   25.0950 C   0  0  0  0  0  0  0  0  0  0  0  0
  1  2  1  0
  2  3  2  0
  2  4  1  0
  4  5  1  0
  4  6  1  0
  5  7  1  0
  6  8  1  0
  7  9  1  1
  7 10  1  0
  8 10  1  0
 10 11  1  0
  9 12  1  0
 11 13  2  0
 11 14  1  0
 15 12  1  1
 15 16  1  0
 15 17  1  0
 16 18  2  0
 16 19  1  0
 17 20  1  0
 17 21  2  0
 21 22  1  0
 20 23  2  0
 20 24  1  0
 19 25  1  0
 22 26  2  0
 23 26  1  0
 23 27  1  0
 24 28  2  0
 25 29  2  0
 25 30  1  0
 27 31  2  0
 28 31  1  0
 29 32  1  0
 30 33  2  0
 32 34  2  0
 33 34  1  0
M  END
