x1493-x3124
     RDKit          3D

 36 38  0  0  0  0  0  0  0  0999 V2000
    6.9890   -1.0420   21.9360 N   0  0  0  0  0  0  0  0  0  0  0  0
    6.7410    0.3140   21.8100 C   0  0  1  0  0  0  0  0  0  0  0  0
    7.7480    1.2190   22.1200 C   0  0  0  0  0  0  0  0  0  0  0  0
    5.7920   -1.8920   22.0090 C   0  0  0  0  0  0  0  0  0  0  0  0
    8.2990   -1.2810   22.5510 C   0  0  0  0  0  0  0  0  0  0  0  0
    6.2150    0.6310   20.4470 C   0  0  0  0  0  0  0  0  0  0  0  0
    9.2990   -1.7000   21.7270 C   0  0  0  0  0  0  0  0  0  0  0  0
    8.5860   -1.0540   24.0390 C   0  0  0  0  0  0  0  0  0  0  0  0
    5.9480   -3.0360   22.9900 C   0  0  0  0  0  0  0  0  0  0  0  0
    7.8630    1.7950   23.4590 N   0  0  0  0  0  0  0  0  0  0  0  0
    8.6110    1.5320   21.0140 O   0  0  0  0  0  0  0  0  0  0  0  0
    5.0880    1.4880   20.2980 C   0  0  0  0  0  0  0  0  0  0  0  0
    6.7800    0.1350   19.1260 C   0  0  0  0  0  0  0  0  0  0  0  0
   10.7610   -1.9500   22.1890 C   0  0  0  0  0  0  0  0  0  0  0  0
    9.9250   -1.2680   24.4940 C   0  0  0  0  0  0  0  0  0  0  0  0
    7.0760   -4.0460   22.6810 C   0  0  1  0  0  0  0  0  0  0  0  0
    8.9070    2.7450   23.8460 C   0  0  0  0  0  0  0  0  0  0  0  0
    6.3270    0.4400   17.8220 N   0  0  0  0  0  0  0  0  0  0  0  0
    4.5380    1.8690   19.0470 C   0  0  0  0  0  0  0  0  0  0  0  0
   11.0290   -1.7170   23.5350 C   0  0  0  0  0  0  0  0  0  0  0  0
    7.1020   -4.8780   23.9350 C   0  0  0  0  0  0  0  0  0  0  0  0
    6.7250   -4.9060   21.5300 N   0  0  0  0  0  0  0  0  0  0  0  0
   12.4320   -1.8670   24.0920 C   0  0  0  0  0  0  0  0  0  0  0  0
    5.1730    1.3400   17.7270 C   0  0  0  0  0  0  0  0  0  0  0  0
    6.3210   -4.2870   20.3410 C   0  0  0  0  0  0  0  0  0  0  0  0
    5.9640   -5.5360   24.2630 N   0  0  0  0  0  0  0  0  0  0  0  0
    6.1390   -6.2010   21.9020 C   0  0  0  0  0  0  0  0  0  0  0  0
   12.7460   -0.6210   24.8330 C   0  0  0  0  0  0  0  0  0  0  0  0
   13.4000   -2.0110   22.9790 C   0  0  0  0  0  0  0  0  0  0  0  0
   12.7030   -3.0190   25.0400 C   0  0  0  0  0  0  0  0  0  0  0  0
    5.5970   -5.6800   25.5590 C   0  0  0  0  0  0  0  0  0  0  0  0
    5.2200   -4.5430   19.8810 O   0  0  0  0  0  0  0  0  0  0  0  0
    7.2410   -3.3270   19.6320 C   0  0  0  0  0  0  0  0  0  0  0  0
    5.3110   -6.1370   23.1970 C   0  0  0  0  0  0  0  0  0  0  0  0
    4.5620   -6.5160   25.9350 C   0  0  0  0  0  0  0  0  0  0  0  0
    6.1560   -5.0780   26.4570 O   0  0  0  0  0  0  0  0  0  0  0  0
  1  2  1  0
  2  3  1  6
  1  4  1  0
  1  5  1  0
  2  6  1  0
  5  7  2  0
  5  8  1  0
  4  9  1  0
  3 10  1  0
  3 11  2  0
  6 12  2  0
  6 13  1  0
  7 14  1  0
  8 15  2  0
 16  9  1  1
 10 17  1  0
 13 18  2  0
 12 19  1  0
 14 20  2  0
 15 20  1  0
 16 21  1  0
 16 22  1  0
 20 23  1  0
 18 24  1  0
 19 24  2  0
 22 25  1  0
 21 26  1  0
 22 27  1  0
 23 28  1  0
 23 29  1  0
 23 30  1  0
 26 31  1  0
 25 32  2  0
 25 33  1  0
 26 34  1  0
 27 34  1  0
 31 35  1  0
 31 36  2  0
M  END
