x2052-x2608
     RDKit          3D

 36 39  0  0  0  0  0  0  0  0999 V2000
    5.7820   -1.7230   25.3030 C   0  0  0  0  0  0  0  0  0  0  0  0
    6.5870   -0.8830   26.0450 N   0  0  0  0  0  0  0  0  0  0  0  0
    6.2510   -0.1440   27.1860 C   0  0  0  0  0  0  0  0  0  0  0  0
    4.5540   -1.7480   25.3890 O   0  0  0  0  0  0  0  0  0  0  0  0
    6.5250   -2.6400   24.3270 C   0  0  2  0  0  0  0  0  0  0  0  0
    7.3240   -1.6860   23.4510 C   0  0  0  0  0  0  0  0  0  0  0  0
    5.5540   -3.4460   23.7040 C   0  0  0  0  0  0  0  0  0  0  0  0
    7.9430   -2.4550   22.3100 C   0  0  2  0  0  0  0  0  0  0  0  0
    6.3100   -4.3080   22.6330 C   0  0  0  0  0  0  0  0  0  0  0  0
    6.5490    1.1960   27.3550 C   0  0  0  0  0  0  0  0  0  0  0  0
    5.5180   -0.7330   28.3840 C   0  0  0  0  0  0  0  0  0  0  0  0
    8.7470   -1.4500   21.6210 N   0  0  0  0  0  0  0  0  0  0  0  0
    7.0010   -3.4430   21.6750 N   0  0  0  0  0  0  0  0  0  0  0  0
    6.2660    2.0840   28.4910 N   0  0  0  0  0  0  0  0  0  0  0  0
    5.1980    0.1920   29.6190 C   0  0  0  0  0  0  0  0  0  0  0  0
    6.6040   -3.6600   20.2820 C   0  0  0  0  0  0  0  0  0  0  0  0
    7.9780   -0.5430   21.1740 C   0  0  0  0  0  0  0  0  0  0  0  0
    5.6060    1.5320   29.5640 C   0  0  0  0  0  0  0  0  0  0  0  0
   10.0020   -0.9920   22.0890 C   0  0  0  0  0  0  0  0  0  0  0  0
    5.6050   -4.3440   19.9280 O   0  0  0  0  0  0  0  0  0  0  0  0
    5.3600    2.2620   30.5310 O   0  0  0  0  0  0  0  0  0  0  0  0
    7.4690   -3.0990   19.1990 C   0  0  0  0  0  0  0  0  0  0  0  0
    8.2130    0.6540   20.9970 O   0  0  0  0  0  0  0  0  0  0  0  0
    6.6150   -0.8670   20.7980 N   0  0  0  0  0  0  0  0  0  0  0  0
   11.1470   -1.7290   22.3650 C   0  0  0  0  0  0  0  0  0  0  0  0
   10.3080    0.7010   22.3850 S   0  0  0  0  0  0  0  0  0  0  0  0
    6.1950    3.4150   30.6140 C   0  0  0  0  0  0  0  0  0  0  0  0
   11.9520    0.4400   22.7990 C   0  0  0  0  0  0  0  0  0  0  0  0
   12.3050   -0.8660   22.7870 C   0  0  0  0  0  0  0  0  0  0  0  0
    5.9700   -0.0390   19.9130 C   0  0  0  0  0  0  0  0  0  0  0  0
   12.8950    1.4610   23.1210 C   0  0  0  0  0  0  0  0  0  0  0  0
    6.6060    0.1620   18.5440 C   0  0  0  0  0  0  0  0  0  0  0  0
    4.6790    0.7270   20.1610 C   0  0  0  0  0  0  0  0  0  0  0  0
    6.1270    0.9410   17.5930 N   0  0  0  0  0  0  0  0  0  0  0  0
    4.2190    1.5310   19.1270 C   0  0  0  0  0  0  0  0  0  0  0  0
    4.9600    1.5920   17.9290 C   0  0  0  0  0  0  0  0  0  0  0  0
  1  2  1  0
  2  3  1  0
  1  4  2  0
  5  1  1  1
  5  6  1  0
  5  7  1  0
  6  8  1  0
  7  9  1  0
  3 10  2  0
  3 11  1  0
  8 12  1  6
  8 13  1  0
  9 13  1  0
 10 14  1  0
 11 15  2  0
 13 16  1  0
 12 17  1  0
 14 18  2  0
 15 18  1  0
 12 19  1  0
 16 20  2  0
 18 21  1  0
 16 22  1  0
 17 23  2  0
 17 24  1  0
 19 25  2  0
 19 26  1  0
 21 27  1  0
 26 28  1  0
 25 29  1  0
 28 29  2  0
 24 30  1  0
 28 31  1  0
 30 32  2  0
 30 33  1  0
 32 34  1  0
 33 35  2  0
 34 36  2  0
 35 36  1  0
M  END
