x2052-x2646
     RDKit          3D

 38 42  0  0  0  0  0  0  0  0999 V2000
    6.3020   -1.5720   25.4050 C   0  0  0  0  0  0  0  0  0  0  0  0
    7.1750   -0.9820   26.2850 N   0  0  0  0  0  0  0  0  0  0  0  0
    6.6480   -0.1990   27.3390 C   0  0  0  0  0  0  0  0  0  0  0  0
    5.0640   -1.5740   25.4060 O   0  0  0  0  0  0  0  0  0  0  0  0
    6.9260   -2.3210   24.2550 C   0  0  2  0  0  0  0  0  0  0  0  0
    7.2480   -1.3430   23.0680 C   0  0  1  0  0  0  0  0  0  0  0  0
    5.9090   -3.3720   23.6940 C   0  0  0  0  0  0  0  0  0  0  0  0
    8.6290   -0.8670   22.5560 C   0  0  1  0  0  0  0  0  0  0  0  0
    7.1260   -1.8250   21.6100 C   0  0  2  0  0  0  0  0  0  0  0  0
    6.4500   -3.9960   22.3860 C   0  0  0  0  0  0  0  0  0  0  0  0
    7.0090    1.1720   27.4480 C   0  0  0  0  0  0  0  0  0  0  0  0
    5.6740   -0.8450   28.3940 C   0  0  0  0  0  0  0  0  0  0  0  0
    7.3070   -0.5520   20.8600 N   0  0  0  0  0  0  0  0  0  0  0  0
    8.2650    0.0720   21.4270 C   0  0  0  0  0  0  0  0  0  0  0  0
    6.1990   -2.9420   21.3830 N   0  0  0  0  0  0  0  0  0  0  0  0
    6.5550    2.0930   28.4900 N   0  0  0  0  0  0  0  0  0  0  0  0
    5.2460    0.0400   29.3870 C   0  0  0  0  0  0  0  0  0  0  0  0
   10.0050   -0.7400   23.0890 C   0  0  0  0  0  0  0  0  0  0  0  0
    6.1280   -3.4760   20.0820 C   0  0  0  0  0  0  0  0  0  0  0  0
    8.8040    1.1660   21.1680 O   0  0  0  0  0  0  0  0  0  0  0  0
    5.6540    1.5850   29.5200 C   0  0  0  0  0  0  0  0  0  0  0  0
    6.4770    0.1560   19.9990 C   0  0  0  0  0  0  0  0  0  0  0  0
   10.5900   -0.1780   24.2490 C   0  0  0  0  0  0  0  0  0  0  0  0
   10.9080   -1.3720   22.0950 C   0  0  0  0  0  0  0  0  0  0  0  0
    5.2940   -4.3520   19.8310 O   0  0  0  0  0  0  0  0  0  0  0  0
    5.2470    2.3080   30.4230 O   0  0  0  0  0  0  0  0  0  0  0  0
    7.1000   -3.0290   19.0160 C   0  0  0  0  0  0  0  0  0  0  0  0
    6.6570    0.2910   18.5480 C   0  0  0  0  0  0  0  0  0  0  0  0
    5.3580    0.8730   20.3530 C   0  0  0  0  0  0  0  0  0  0  0  0
   11.9950   -0.2030   24.4730 C   0  0  0  0  0  0  0  0  0  0  0  0
   12.3250   -1.4060   22.2890 C   0  0  0  0  0  0  0  0  0  0  0  0
    6.0950    3.4260   30.6870 C   0  0  0  0  0  0  0  0  0  0  0  0
    4.8800    0.9790   21.6870 C   0  0  0  0  0  0  0  0  0  0  0  0
   13.3160   -2.1260   21.1280 Cl  0  0  0  0  0  0  0  0  0  0  0  0
    6.3480    0.6840   17.5660 N   0  0  0  0  0  0  0  0  0  0  0  0
    4.6960    1.5290   19.2860 C   0  0  0  0  0  0  0  0  0  0  0  0
   12.8340   -0.7900   23.5290 C   0  0  0  0  0  0  0  0  0  0  0  0
    5.1530    1.4560   17.9360 C   0  0  0  0  0  0  0  0  0  0  0  0
  1  2  1  0
  2  3  1  0
  1  4  2  0
  5  1  1  1
  6  5  1  1
  5  7  1  0
  6  8  1  0
  6  9  1  0
  7 10  1  0
  3 11  2  0
  3 12  1  0
  9 13  1  6
  8 14  1  0
 13 14  1  0
  9 15  1  0
 10 15  1  0
 11 16  1  0
 12 17  2  0
  8 18  1  1
 15 19  1  0
 14 20  2  0
 16 21  2  0
 17 21  1  0
 13 22  1  0
 18 23  2  0
 18 24  1  0
 19 25  2  0
 21 26  1  0
 19 27  1  0
 22 28  2  0
 22 29  1  0
 23 30  1  0
 24 31  2  0
 26 32  1  0
 29 33  1  0
 31 34  1  0
 28 35  1  0
 29 36  2  0
 30 37  2  0
 31 37  1  0
 35 38  2  0
 36 38  1  0
M  END
