x2052-x0397
     RDKit          3D

 31 35  0  0  0  0  0  0  0  0999 V2000
    5.8480   -1.2330   25.3230 C   0  0  0  0  0  0  0  0  0  0  0  0
    6.9210   -0.7830   26.0530 N   0  0  0  0  0  0  0  0  0  0  0  0
    6.5330   -0.0770   27.2170 C   0  0  0  0  0  0  0  0  0  0  0  0
    4.6520   -1.1840   25.6030 O   0  0  0  0  0  0  0  0  0  0  0  0
    6.0910   -1.8870   24.0030 C   0  0  1  0  0  0  0  0  0  0  0  0
    7.2540   -1.4280   23.0660 C   0  0  0  0  0  0  0  0  0  0  0  0
    6.2650   -3.4060   24.0630 C   0  0  0  0  0  0  0  0  0  0  0  0
    6.8860   -1.7850   21.6340 C   0  0  1  0  0  0  0  0  0  0  0  0
    6.5880   -4.0010   22.6820 C   0  0  2  0  0  0  0  0  0  0  0  0
    6.9400    1.2700   27.4160 C   0  0  0  0  0  0  0  0  0  0  0  0
    5.6420   -0.7660   28.3090 C   0  0  0  0  0  0  0  0  0  0  0  0
    8.0050   -2.0090   20.6000 C   0  0  0  0  0  0  0  0  0  0  0  0
    6.2950   -3.0940   21.5710 N   0  0  0  0  0  0  0  0  0  0  0  0
    6.6210    2.1010   28.5340 N   0  0  0  0  0  0  0  0  0  0  0  0
    5.3050    0.0100   29.4210 C   0  0  0  0  0  0  0  0  0  0  0  0
    5.6420   -5.1580   22.4350 C   0  0  0  0  0  0  0  0  0  0  0  0
    6.2750   -3.5840   20.2920 C   0  0  0  0  0  0  0  0  0  0  0  0
    7.3550   -2.9330   19.4700 C   0  0  1  0  0  0  0  0  0  0  0  0
    5.7890    1.5300   29.6020 C   0  0  0  0  0  0  0  0  0  0  0  0
    5.8740   -6.2220   23.3910 C   0  0  0  0  0  0  0  0  0  0  0  0
    6.0280   -6.3300   21.7240 C   0  0  0  0  0  0  0  0  0  0  0  0
    5.4680   -4.4320   19.8870 O   0  0  0  0  0  0  0  0  0  0  0  0
    5.4820    2.1970   30.5870 O   0  0  0  0  0  0  0  0  0  0  0  0
    6.9180   -1.9850   18.3570 C   0  0  0  0  0  0  0  0  0  0  0  0
    6.1350    3.4640   30.6500 C   0  0  0  0  0  0  0  0  0  0  0  0
    6.2090   -0.8340   18.5500 C   0  0  0  0  0  0  0  0  0  0  0  0
    5.0640   -0.4030   19.4530 C   0  0  0  0  0  0  0  0  0  0  0  0
    6.5170    0.3510   17.7390 N   0  0  0  0  0  0  0  0  0  0  0  0
    5.6500    1.3390   18.1370 O   0  0  0  0  0  0  0  0  0  0  0  0
    4.7970    0.9110   19.1330 C   0  0  0  0  0  0  0  0  0  0  0  0
    3.8260    1.9060   19.6100 C   0  0  0  0  0  0  0  0  0  0  0  0
  1  2  1  0
  2  3  1  0
  1  4  2  0
  5  1  1  1
  5  6  1  0
  5  7  1  0
  8  6  1  1
  7  9  1  0
  3 10  2  0
  3 11  1  0
  8 12  1  0
  8 13  1  0
  9 13  1  0
 10 14  1  0
 11 15  2  0
  9 16  1  6
 13 17  1  0
 12 18  1  0
 17 18  1  0
 14 19  2  0
 15 19  1  0
 16 20  1  0
 16 21  1  0
 20 21  1  0
 17 22  2  0
 19 23  1  0
 18 24  1  6
 23 25  1  0
 24 26  1  0
 26 27  1  0
 26 28  2  0
 28 29  1  0
 27 30  2  0
 29 30  1  0
 30 31  1  0
M  END
