x2052-x0981
     RDKit          3D

 32 34  0  0  0  0  0  0  0  0999 V2000
    1.3270   -8.5530   21.6760 C   0  0  0  0  0  0  0  0  0  0  0  0
    1.2710   -7.2600   22.1810 C   0  0  0  0  0  0  0  0  0  0  0  0
    2.1300   -6.5860   22.8940 N   0  0  0  0  0  0  0  0  0  0  0  0
    0.0540   -6.6110   21.8190 O   0  0  0  0  0  0  0  0  0  0  0  0
    2.9790   -5.6940   23.7250 C   0  0  1  0  0  0  0  0  0  0  0  0
    3.2070   -6.2150   25.1580 C   0  0  0  0  0  0  0  0  0  0  0  0
    4.2640   -5.0920   23.0630 C   0  0  0  0  0  0  0  0  0  0  0  0
    5.2370   -5.8510   22.2690 N   0  0  0  0  0  0  0  0  0  0  0  0
    4.4070   -3.7340   23.2730 N   0  0  0  0  0  0  0  0  0  0  0  0
    3.2670   -7.6850   25.3160 C   0  0  0  0  0  0  0  0  0  0  0  0
    2.4280   -8.3800   26.3250 N   0  0  0  0  0  0  0  0  0  0  0  0
    4.0330   -8.2450   24.5820 O   0  0  0  0  0  0  0  0  0  0  0  0
    6.5870   -5.2370   22.3270 C   0  0  0  0  0  0  0  0  0  0  0  0
    5.5080   -2.9590   22.6850 C   0  0  2  0  0  0  0  0  0  0  0  0
    6.5870   -3.7350   21.9280 C   0  0  2  0  0  0  0  0  0  0  0  0
    6.1790   -1.8310   23.5020 C   0  0  1  0  0  0  0  0  0  0  0  0
    5.7250   -1.6280   24.9760 C   0  0  0  0  0  0  0  0  0  0  0  0
    6.2840   -3.8560   20.3780 C   0  0  0  0  0  0  0  0  0  0  0  0
    7.8090   -2.7860   22.2100 C   0  0  0  0  0  0  0  0  0  0  0  0
    7.5370   -1.8630   23.4020 C   0  0  0  0  0  0  0  0  0  0  0  0
    4.4840   -1.9830   25.3810 O   0  0  0  0  0  0  0  0  0  0  0  0
    6.6740   -1.0340   25.8200 N   0  0  0  0  0  0  0  0  0  0  0  0
    5.3730   -4.5870   19.9650 O   0  0  0  0  0  0  0  0  0  0  0  0
    7.1300   -3.1660   19.3330 C   0  0  0  0  0  0  0  0  0  0  0  0
    6.3920   -0.2050   27.0360 C   0  0  0  0  0  0  0  0  0  0  0  0
    6.8790    1.1340   27.1990 C   0  0  0  0  0  0  0  0  0  0  0  0
    5.6220   -0.7350   28.0730 C   0  0  0  0  0  0  0  0  0  0  0  0
    6.6580    1.9320   28.2670 N   0  0  0  0  0  0  0  0  0  0  0  0
    5.3460    0.0260   29.2150 C   0  0  0  0  0  0  0  0  0  0  0  0
    5.8420    1.3120   29.3130 C   0  0  0  0  0  0  0  0  0  0  0  0
    5.5320    2.0080   30.4690 O   0  0  0  0  0  0  0  0  0  0  0  0
    6.1030    3.3120   30.5330 C   0  0  0  0  0  0  0  0  0  0  0  0
  1  2  1  0
  2  3  1  0
  2  4  2  0
  3  5  1  0
  5  6  1  1
  5  7  1  0
  7  8  1  0
  7  9  2  0
  6 10  1  0
 10 11  1  0
 10 12  2  0
  8 13  1  0
 14  9  1  1
 13 15  1  0
 14 15  1  0
 14 16  1  0
 16 17  1  1
 15 18  1  6
 15 19  1  0
 16 20  1  0
 19 20  1  0
 17 21  2  0
 17 22  1  0
 18 23  2  0
 18 24  1  0
 22 25  1  0
 25 26  2  0
 25 27  1  0
 26 28  1  0
 27 29  2  0
 28 30  2  0
 29 30  1  0
 30 31  1  0
 31 32  1  0
M  END
