x2052-x2705
     RDKit          3D

 48 52  0  0  0  0  0  0  0  0999 V2000
    7.5360    2.1520   23.1650 N   0  0  0  0  0  0  0  0  0  0  0  0
    7.5800    1.0710   22.2290 C   0  0  0  0  0  0  0  0  0  0  0  0
    8.7200    0.7750   21.4110 O   0  0  0  0  0  0  0  0  0  0  0  0
    8.1920    3.3880   23.0880 C   0  0  0  0  0  0  0  0  0  0  0  0
    6.3690    0.1800   21.9810 C   0  0  1  0  0  0  0  0  0  0  0  0
    9.5080    3.4060   23.5240 C   0  0  0  0  0  0  0  0  0  0  0  0
    7.5590    4.6410   22.5820 C   0  0  0  0  0  0  0  0  0  0  0  0
   10.1940    2.1480   24.0160 C   0  0  0  0  0  0  0  0  0  0  0  0
    6.1430    4.6810   22.0740 C   0  0  0  0  0  0  0  0  0  0  0  0
    6.0280    0.4800   20.5100 C   0  0  0  0  0  0  0  0  0  0  0  0
   10.3370    4.7200   23.5200 C   0  0  0  0  0  0  0  0  0  0  0  0
    8.3650    5.9130   22.5780 C   0  0  0  0  0  0  0  0  0  0  0  0
    6.5350   -1.3240   22.4040 C   0  0  1  0  0  0  0  0  0  0  0  0
    9.2820    1.2860   24.9240 C   0  0  0  0  0  0  0  0  0  0  0  0
    4.7460    1.2100   20.2570 C   0  0  0  0  0  0  0  0  0  0  0  0
    6.7810    0.1670   19.3930 C   0  0  0  0  0  0  0  0  0  0  0  0
    9.8140    5.9440   23.0750 C   0  0  0  0  0  0  0  0  0  0  0  0
    7.6340   -2.1040   21.7770 C   0  0  1  0  0  0  0  0  0  0  0  0
    6.3690   -1.9600   23.8230 C   0  0  1  0  0  0  0  0  0  0  0  0
    5.5420   -1.2840   24.9270 C   0  0  0  0  0  0  0  0  0  0  0  0
    6.4960    0.4520   18.0930 N   0  0  0  0  0  0  0  0  0  0  0  0
    4.4180    1.5360   18.8320 C   0  0  0  0  0  0  0  0  0  0  0  0
    8.9700   -1.9060   22.4860 C   0  0  0  0  0  0  0  0  0  0  0  0
    7.1280   -3.4800   21.5210 N   0  0  0  0  0  0  0  0  0  0  0  0
    5.9810   -3.4370   23.7680 C   0  0  0  0  0  0  0  0  0  0  0  0
    4.1760   -0.9540   24.7690 O   0  0  0  0  0  0  0  0  0  0  0  0
    6.3570   -1.0810   26.1430 N   0  0  0  0  0  0  0  0  0  0  0  0
    6.6350   -3.7690   20.2280 C   0  0  0  0  0  0  0  0  0  0  0  0
    5.2400    1.1910   17.7820 C   0  0  0  0  0  0  0  0  0  0  0  0
    8.9770   -1.5510   23.9360 N   0  0  0  0  0  0  0  0  0  0  0  0
   10.2670   -1.9540   22.1060 C   0  0  0  0  0  0  0  0  0  0  0  0
    6.7040   -4.2700   22.6930 C   0  0  0  0  0  0  0  0  0  0  0  0
    5.6460   -4.5010   19.9800 O   0  0  0  0  0  0  0  0  0  0  0  0
    7.4150   -3.2030   19.0980 C   0  0  0  0  0  0  0  0  0  0  0  0
   10.2750   -1.4230   24.2480 N   0  0  0  0  0  0  0  0  0  0  0  0
   11.0340   -1.6540   23.1830 C   0  0  0  0  0  0  0  0  0  0  0  0
    6.1300   -0.2110   27.2220 C   0  0  0  0  0  0  0  0  0  0  0  0
   12.4520   -1.5640   23.2720 C   0  0  0  0  0  0  0  0  0  0  0  0
    6.4920    1.2510   27.2790 C   0  0  0  0  0  0  0  0  0  0  0  0
    5.5260   -0.6950   28.3590 C   0  0  0  0  0  0  0  0  0  0  0  0
   12.8230   -0.2510   23.6020 C   0  0  0  0  0  0  0  0  0  0  0  0
   12.9740   -2.5270   24.3670 C   0  0  0  0  0  0  0  0  0  0  0  0
   13.0780   -1.9520   21.9220 C   0  0  0  0  0  0  0  0  0  0  0  0
    6.2440    2.0280   28.3720 N   0  0  0  0  0  0  0  0  0  0  0  0
    5.2650    0.0880   29.4790 C   0  0  0  0  0  0  0  0  0  0  0  0
    5.6400    1.4320   29.4370 C   0  0  0  0  0  0  0  0  0  0  0  0
    5.3640    2.1700   30.5720 O   0  0  0  0  0  0  0  0  0  0  0  0
    6.1740    3.3390   30.6990 C   0  0  0  0  0  0  0  0  0  0  0  0
  1  2  1  0
  2  3  2  0
  1  4  1  0
  5  2  1  6
  4  6  2  0
  4  7  1  0
  6  8  1  0
  7  9  1  0
  5 10  1  0
  6 11  1  0
  7 12  2  0
 13  5  1  1
  8 14  1  0
 10 15  2  0
 10 16  1  0
 11 17  2  0
 12 17  1  0
 13 18  1  0
 13 19  1  0
 19 20  1  1
 16 21  2  0
 15 22  1  0
 18 23  1  1
 18 24  1  0
 19 25  1  0
 20 26  2  0
 20 27  1  0
 24 28  1  0
 21 29  1  0
 22 29  2  0
 23 30  2  0
 23 31  1  0
 24 32  1  0
 25 32  1  0
 28 33  2  0
 28 34  1  0
 30 35  1  0
 31 36  2  0
 35 36  1  0
 27 37  1  0
 36 38  1  0
 37 39  2  0
 37 40  1  0
 38 41  1  0
 38 42  1  0
 38 43  1  0
 39 44  1  0
 40 45  2  0
 44 46  2  0
 45 46  1  0
 46 47  1  0
 47 48  1  0
M  END
