x2052-x0104
     RDKit          3D

 39 42  0  0  0  0  0  0  0  0999 V2000
    5.9140   -1.6510   25.1590 C   0  0  0  0  0  0  0  0  0  0  0  0
    6.6980   -0.8470   25.9750 N   0  0  0  0  0  0  0  0  0  0  0  0
    8.0000   -0.4260   25.4470 C   0  0  0  0  0  0  0  0  0  0  0  0
    4.6860   -1.7190   25.2300 O   0  0  0  0  0  0  0  0  0  0  0  0
    6.7270   -2.4950   24.0780 C   0  0  0  0  0  0  0  0  0  0  0  0
    7.3090   -1.7640   22.9830 C   0  0  0  0  0  0  0  0  0  0  0  0
    5.7530   -3.7080   23.7940 C   0  0  0  0  0  0  0  0  0  0  0  0
    6.3180   -0.1130   27.1220 C   0  0  0  0  0  0  0  0  0  0  0  0
    7.8900    0.5460   24.4280 C   0  0  0  0  0  0  0  0  0  0  0  0
    7.5560   -2.3260   21.7480 C   0  0  0  0  0  0  0  0  0  0  0  0
    6.2200   -4.3000   22.6220 C   0  0  0  0  0  0  0  0  0  0  0  0
    6.5560    1.2880   27.2510 C   0  0  0  0  0  0  0  0  0  0  0  0
    5.6930   -0.7190   28.2120 C   0  0  0  0  0  0  0  0  0  0  0  0
    8.8760    1.6330   24.9030 C   0  0  0  0  0  0  0  0  0  0  0  0
    6.6250   -3.4130   21.4850 N   0  0  0  0  0  0  0  0  0  0  0  0
    6.1870    2.0370   28.4410 N   0  0  0  0  0  0  0  0  0  0  0  0
    5.3290   -0.0010   29.3590 C   0  0  0  0  0  0  0  0  0  0  0  0
    6.3180   -3.7290   20.1580 C   0  0  0  0  0  0  0  0  0  0  0  0
    5.5960    1.3520   29.4250 C   0  0  0  0  0  0  0  0  0  0  0  0
   10.0300    1.6900   24.2070 N   0  0  0  0  0  0  0  0  0  0  0  0
    5.3870   -4.4930   19.8930 O   0  0  0  0  0  0  0  0  0  0  0  0
    5.2310    2.0180   30.5770 O   0  0  0  0  0  0  0  0  0  0  0  0
    7.1740   -3.1490   19.0610 C   0  0  0  0  0  0  0  0  0  0  0  0
   10.6170    2.8190   23.8240 C   0  0  0  0  0  0  0  0  0  0  0  0
   10.8240    0.5850   23.7630 C   0  0  0  0  0  0  0  0  0  0  0  0
    5.9870    3.2130   30.7870 C   0  0  0  0  0  0  0  0  0  0  0  0
   11.7830    2.5260   23.1510 C   0  0  0  0  0  0  0  0  0  0  0  0
   11.9380    1.1230   23.1030 C   0  0  0  0  0  0  0  0  0  0  0  0
   10.6230   -0.7920   23.9060 C   0  0  0  0  0  0  0  0  0  0  0  0
   12.6720    3.6100   22.5810 C   0  0  0  0  0  0  0  0  0  0  0  0
   11.6200   -1.7860   23.3200 C   0  0  0  0  0  0  0  0  0  0  0  0
   12.8990    0.2440   22.5680 C   0  0  0  0  0  0  0  0  0  0  0  0
   12.4720    4.9910   23.2200 C   0  0  0  0  0  0  0  0  0  0  0  0
   12.7070   -1.2700   22.6770 C   0  0  0  0  0  0  0  0  0  0  0  0
   11.3970    5.7720   22.5730 N   0  0  0  0  0  0  0  0  0  0  0  0
   13.5830   -2.0970   22.1520 F   0  0  0  0  0  0  0  0  0  0  0  0
   10.4760    6.1170   23.4160 C   0  0  0  0  0  0  0  0  0  0  0  0
    9.1910    6.4380   22.6240 C   0  0  0  0  0  0  0  0  0  0  0  0
   10.5840    6.1920   24.6370 O   0  0  0  0  0  0  0  0  0  0  0  0
  1  2  1  0
  2  3  1  0
  1  4  2  0
  1  5  1  0
  5  6  1  0
  5  7  1  0
  2  8  1  0
  3  9  1  0
  6 10  1  0
  7 11  1  0
  8 12  2  0
  8 13  1  0
  9 14  1  0
 10 15  1  0
 11 15  1  0
 12 16  1  0
 13 17  2  0
 15 18  1  0
 16 19  2  0
 17 19  1  0
 14 20  1  0
 18 21  2  0
 19 22  1  0
 18 23  1  0
 20 24  1  0
 20 25  1  0
 22 26  1  0
 24 27  2  0
 25 28  2  0
 27 28  1  0
 25 29  1  0
 27 30  1  0
 29 31  2  0
 28 32  1  0
 30 33  1  0
 31 34  1  0
 32 34  2  0
 33 35  1  0
 34 36  1  0
 35 37  1  0
 37 38  1  0
 37 39  2  0
M  END
