x2052-x1249
     RDKit          3D

 38 42  0  0  0  0  0  0  0  0999 V2000
    6.0300   -1.2890   24.8260 C   0  0  0  0  0  0  0  0  0  0  0  0
    5.1630   -0.4640   24.2480 N   0  0  0  0  0  0  0  0  0  0  0  0
    4.8110    0.7640   24.6930 C   0  0  2  0  0  0  0  0  0  0  0  0
    6.6570   -1.0710   25.9430 N   0  0  0  0  0  0  0  0  0  0  0  0
    6.3150   -2.3290   23.7990 C   0  0  0  0  0  0  0  0  0  0  0  0
    7.9940   -0.6050   25.7360 C   0  0  0  0  0  0  0  0  0  0  0  0
    7.6360   -2.1750   23.3140 C   0  0  0  0  0  0  0  0  0  0  0  0
    6.1090   -3.8310   24.0730 C   0  0  0  0  0  0  0  0  0  0  0  0
    6.1790   -0.3620   27.1650 C   0  0  0  0  0  0  0  0  0  0  0  0
    8.2410    0.6000   24.9220 N   0  0  0  0  0  0  0  0  0  0  0  0
    7.6420   -2.5250   21.8200 C   0  0  0  0  0  0  0  0  0  0  0  0
    6.3720   -4.5340   22.6980 C   0  0  0  0  0  0  0  0  0  0  0  0
    6.5710    0.9810   27.3080 C   0  0  0  0  0  0  0  0  0  0  0  0
    5.4110   -0.8670   28.1890 C   0  0  0  0  0  0  0  0  0  0  0  0
    3.6290    1.2260   24.0260 O   0  0  0  0  0  0  0  0  0  0  0  0
    5.9190    1.6090   24.1240 N   0  0  0  0  0  0  0  0  0  0  0  0
    7.3330    1.5730   24.2240 C   0  0  0  0  0  0  0  0  0  0  0  0
    9.5160    1.1270   25.0430 C   0  0  0  0  0  0  0  0  0  0  0  0
    6.5770   -3.5290   21.6030 N   0  0  0  0  0  0  0  0  0  0  0  0
    6.2270    1.8720   28.4680 N   0  0  0  0  0  0  0  0  0  0  0  0
    5.0370    0.0580   29.4260 C   0  0  0  0  0  0  0  0  0  0  0  0
    4.1690    1.5190   22.8130 C   0  0  0  0  0  0  0  0  0  0  0  0
    5.4860    1.9600   22.8750 C   0  0  0  0  0  0  0  0  0  0  0  0
    6.2880   -3.8540   20.2620 C   0  0  0  0  0  0  0  0  0  0  0  0
    7.9750    2.6480   23.5260 O   0  0  0  0  0  0  0  0  0  0  0  0
    5.4750    1.3680   29.4830 C   0  0  0  0  0  0  0  0  0  0  0  0
   10.5280    0.4630   24.1650 C   0  0  0  0  0  0  0  0  0  0  0  0
    5.3980   -4.6540   19.9570 O   0  0  0  0  0  0  0  0  0  0  0  0
    5.1510    2.1450   30.5570 O   0  0  0  0  0  0  0  0  0  0  0  0
    7.1450   -3.1980   19.1990 C   0  0  0  0  0  0  0  0  0  0  0  0
   11.7070    1.0420   23.7050 C   0  0  0  0  0  0  0  0  0  0  0  0
   10.2730   -0.9080   23.7440 C   0  0  0  0  0  0  0  0  0  0  0  0
    6.0240    3.2590   30.7220 C   0  0  0  0  0  0  0  0  0  0  0  0
   12.6680    0.2330   22.7780 C   0  0  0  0  0  0  0  0  0  0  0  0
   11.1360   -1.6900   22.8770 C   0  0  0  0  0  0  0  0  0  0  0  0
   12.4120   -1.0950   22.3480 C   0  0  0  0  0  0  0  0  0  0  0  0
   13.0790   -2.0830   21.4890 C   0  0  0  0  0  0  0  0  0  0  0  0
   13.5500   -3.1590   20.6490 N   0  0  0  0  0  0  0  0  0  0  0  0
  1  2  2  0
  3  2  1  6
  1  4  1  0
  1  5  1  0
  4  6  1  0
  5  7  1  0
  5  8  1  0
  4  9  1  0
  6 10  1  0
  7 11  1  0
  8 12  1  0
  9 13  2  0
  9 14  1  0
  3 15  1  0
  3 16  1  0
 10 17  1  0
 16 17  1  0
 10 18  1  0
 11 19  1  0
 12 19  1  0
 13 20  1  0
 14 21  2  0
 15 22  1  0
 16 23  1  0
 22 23  1  0
 19 24  1  0
 17 25  2  0
 20 26  2  0
 21 26  1  0
 18 27  1  0
 24 28  2  0
 26 29  1  0
 24 30  1  0
 27 31  2  0
 27 32  1  0
 29 33  1  0
 31 34  1  0
 32 35  2  0
 34 36  2  0
 35 36  1  0
 36 37  1  0
 37 38  3  0
M  END
