x2052-x3298
     RDKit          3D

 47 51  0  0  0  0  0  0  0  0999 V2000
    6.9890    1.7800   22.3570 N   0  0  0  0  0  0  0  0  0  0  0  0
    7.7830    0.8440   21.5620 C   0  0  0  0  0  0  0  0  0  0  0  0
    7.4250   -0.5300   20.9790 C   0  0  2  0  0  0  0  0  0  0  0  0
    7.6870    2.9610   22.6960 C   0  0  0  0  0  0  0  0  0  0  0  0
    9.0570    1.3180   21.1310 O   0  0  0  0  0  0  0  0  0  0  0  0
    7.4100    4.2920   22.3050 C   0  0  0  0  0  0  0  0  0  0  0  0
    8.8430    2.6180   23.5400 C   0  0  0  0  0  0  0  0  0  0  0  0
    8.9170    1.1770   23.8460 N   0  0  0  0  0  0  0  0  0  0  0  0
    6.6120    0.0790   19.9070 C   0  0  0  0  0  0  0  0  0  0  0  0
    8.3640    5.4390   22.7670 C   0  0  0  0  0  0  0  0  0  0  0  0
    9.7730    3.7360   23.9580 C   0  0  0  0  0  0  0  0  0  0  0  0
    6.7180   -1.5510   21.8670 C   0  0  1  0  0  0  0  0  0  0  0  0
   10.2240    0.6480   24.6930 S   0  0  0  0  0  0  0  0  0  0  0  0
    7.0580    0.0060   18.5140 C   0  0  0  0  0  0  0  0  0  0  0  0
    5.3160    0.8210   20.2040 C   0  0  0  0  0  0  0  0  0  0  0  0
    9.5790    5.0560   23.6230 C   0  0  0  0  0  0  0  0  0  0  0  0
    6.7410   -3.0310   21.4900 N   0  0  0  0  0  0  0  0  0  0  0  0
    6.8940   -1.3890   23.2320 C   0  0  0  0  0  0  0  0  0  0  0  0
   11.0010    1.8320   24.6440 O   0  0  0  0  0  0  0  0  0  0  0  0
    9.9090   -0.1660   25.8420 O   0  0  0  0  0  0  0  0  0  0  0  0
    6.4200   -3.4910   20.1580 C   0  0  0  0  0  0  0  0  0  0  0  0
    6.2900    0.6430   17.4990 N   0  0  0  0  0  0  0  0  0  0  0  0
    4.5260    1.4570   19.2520 C   0  0  0  0  0  0  0  0  0  0  0  0
   11.1380   -0.2230   23.5530 C   0  0  0  0  0  0  0  0  0  0  0  0
    5.8010   -2.2130   23.8820 C   0  0  2  0  0  0  0  0  0  0  0  0
    7.0580   -3.9890   22.5870 C   0  0  0  0  0  0  0  0  0  0  0  0
    5.4800   -1.7880   25.3210 C   0  0  0  0  0  0  0  0  0  0  0  0
    5.4840   -4.2900   19.8940 O   0  0  0  0  0  0  0  0  0  0  0  0
    7.3030   -3.0370   19.0350 C   0  0  0  0  0  0  0  0  0  0  0  0
    5.0650    1.3690   17.7930 C   0  0  0  0  0  0  0  0  0  0  0  0
   12.3800    0.2980   23.2580 C   0  0  0  0  0  0  0  0  0  0  0  0
   10.7220   -1.3590   22.9260 C   0  0  0  0  0  0  0  0  0  0  0  0
    6.1050   -3.7040   23.7540 C   0  0  0  0  0  0  0  0  0  0  0  0
    4.1910   -2.0520   25.8390 O   0  0  0  0  0  0  0  0  0  0  0  0
    6.4740   -1.1370   26.0290 N   0  0  0  0  0  0  0  0  0  0  0  0
   13.2060   -0.2610   22.3610 C   0  0  0  0  0  0  0  0  0  0  0  0
   11.6580   -2.0140   21.8930 C   0  0  0  0  0  0  0  0  0  0  0  0
   12.8720   -1.4100   21.6610 C   0  0  0  0  0  0  0  0  0  0  0  0
    6.2060   -0.3570   27.1770 C   0  0  0  0  0  0  0  0  0  0  0  0
   13.6910   -1.9260   20.7690 F   0  0  0  0  0  0  0  0  0  0  0  0
    6.5600    1.1500   27.1440 C   0  0  0  0  0  0  0  0  0  0  0  0
    5.5790   -0.9360   28.4330 C   0  0  0  0  0  0  0  0  0  0  0  0
    6.2860    1.9860   28.3250 N   0  0  0  0  0  0  0  0  0  0  0  0
    5.3170   -0.0210   29.6180 C   0  0  0  0  0  0  0  0  0  0  0  0
    5.7200    1.4470   29.4410 C   0  0  0  0  0  0  0  0  0  0  0  0
    5.4690    2.2570   30.5330 O   0  0  0  0  0  0  0  0  0  0  0  0
    6.3170    3.3970   30.6100 C   0  0  0  0  0  0  0  0  0  0  0  0
  1  2  1  0
  3  2  1  1
  1  4  1  0
  2  5  2  0
  4  6  2  0
  4  7  1  0
  7  8  1  0
  3  9  1  0
  6 10  1  0
  7 11  2  0
  3 12  1  0
 13  8  1  0
  9 14  2  0
  9 15  1  0
 10 16  2  0
 11 16  1  0
 12 17  1  0
 12 18  1  1
 13 19  2  0
 13 20  2  0
 17 21  1  0
 14 22  1  0
 15 23  2  0
 13 24  1  0
 18 25  1  0
 17 26  1  0
 25 27  1  1
 21 28  2  0
 21 29  1  0
 22 30  2  0
 23 30  1  0
 24 31  2  0
 24 32  1  0
 25 33  1  0
 26 33  1  0
 27 34  2  0
 27 35  1  0
 31 36  1  0
 32 37  2  0
 36 38  2  0
 37 38  1  0
 35 39  1  0
 38 40  1  0
 39 41  2  0
 39 42  1  0
 41 43  1  0
 42 44  2  0
 43 45  2  0
 44 45  1  0
 45 46  1  0
 46 47  1  0
M  END
