x2052-x2581
     RDKit          3D

 43 47  0  0  0  0  0  0  0  0999 V2000
    5.6210   -1.6010   25.3140 C   0  0  0  0  0  0  0  0  0  0  0  0
    6.5480   -1.2100   26.2600 N   0  0  0  0  0  0  0  0  0  0  0  0
    6.2110   -0.3160   27.3040 C   0  0  0  0  0  0  0  0  0  0  0  0
    4.4190   -1.3520   25.3370 O   0  0  0  0  0  0  0  0  0  0  0  0
    6.2830   -2.3810   24.2330 C   0  0  2  0  0  0  0  0  0  0  0  0
    6.7970   -1.6670   23.1090 C   0  0  0  0  0  0  0  0  0  0  0  0
    5.4750   -3.6570   23.8280 C   0  0  0  0  0  0  0  0  0  0  0  0
    7.6250   -2.6870   22.2230 C   0  0  1  0  0  0  0  0  0  0  0  0
    6.1970   -4.4150   22.6930 C   0  0  0  0  0  0  0  0  0  0  0  0
    6.4980    1.0710   27.3360 C   0  0  0  0  0  0  0  0  0  0  0  0
    5.5480   -0.7830   28.4350 C   0  0  0  0  0  0  0  0  0  0  0  0
    8.8250   -3.2830   23.0170 C   0  0  0  0  0  0  0  0  0  0  0  0
    6.8790   -3.6860   21.6840 N   0  0  0  0  0  0  0  0  0  0  0  0
    6.2080    1.9760   28.3330 N   0  0  0  0  0  0  0  0  0  0  0  0
    5.1810    0.1900   29.6190 C   0  0  0  0  0  0  0  0  0  0  0  0
    6.5390   -3.8100   20.3040 C   0  0  0  0  0  0  0  0  0  0  0  0
   10.1610   -2.4790   22.9550 C   0  0  0  0  0  0  0  0  0  0  0  0
    5.5050    1.5100   29.5570 C   0  0  0  0  0  0  0  0  0  0  0  0
    5.5450   -4.4740   19.9460 O   0  0  0  0  0  0  0  0  0  0  0  0
    5.2540    2.3220   30.4390 O   0  0  0  0  0  0  0  0  0  0  0  0
    7.4130   -3.1880   19.2450 C   0  0  0  0  0  0  0  0  0  0  0  0
   10.1290   -1.4020   23.5880 O   0  0  0  0  0  0  0  0  0  0  0  0
    6.2490    3.3340   30.5810 C   0  0  0  0  0  0  0  0  0  0  0  0
    9.8640   -0.2500   22.8770 C   0  0  0  0  0  0  0  0  0  0  0  0
   10.5010    0.9650   22.9520 C   0  0  0  0  0  0  0  0  0  0  0  0
    8.8310   -0.3270   21.9900 C   0  0  0  0  0  0  0  0  0  0  0  0
   10.1590    2.1230   22.2230 C   0  0  0  0  0  0  0  0  0  0  0  0
    8.3210    0.8020   21.1220 C   0  0  0  0  0  0  0  0  0  0  0  0
   10.7310    3.3210   22.2490 N   0  0  0  0  0  0  0  0  0  0  0  0
    9.0210    2.0560   21.2640 N   0  0  0  0  0  0  0  0  0  0  0  0
   11.2190    4.0650   23.1520 C   0  0  0  0  0  0  0  0  0  0  0  0
   11.0780    3.7450   24.3150 O   0  0  0  0  0  0  0  0  0  0  0  0
   11.8500    5.2370   22.7640 C   0  0  0  0  0  0  0  0  0  0  0  0
   11.0960    6.3940   23.3500 C   0  0  0  0  0  0  0  0  0  0  0  0
    9.8420    6.7610   22.7900 C   0  0  0  0  0  0  0  0  0  0  0  0
   11.6790    7.1510   24.5450 C   0  0  0  0  0  0  0  0  0  0  0  0
    9.0970    7.8180   23.3010 C   0  0  0  0  0  0  0  0  0  0  0  0
   10.9110    8.3120   25.1340 C   0  0  0  0  0  0  0  0  0  0  0  0
    9.5850    8.6620   24.5040 C   0  0  0  0  0  0  0  0  0  0  0  0
   11.4200    9.0350   26.2230 C   0  0  0  0  0  0  0  0  0  0  0  0
    8.8340    9.7270   24.9960 C   0  0  0  0  0  0  0  0  0  0  0  0
   10.7220   10.1130   26.7670 C   0  0  0  0  0  0  0  0  0  0  0  0
    9.3750   10.5220   26.1710 C   0  0  0  0  0  0  0  0  0  0  0  0
  1  2  1  0
  2  3  1  0
  1  4  2  0
  5  1  1  6
  5  6  1  0
  5  7  1  0
  6  8  1  0
  7  9  1  0
  3 10  2  0
  3 11  1  0
  8 12  1  1
  8 13  1  0
  9 13  1  0
 10 14  1  0
 11 15  2  0
 13 16  1  0
 12 17  1  0
 14 18  2  0
 15 18  1  0
 16 19  2  0
 18 20  1  0
 16 21  1  0
 17 22  1  0
 20 23  1  0
 22 24  1  0
 24 25  2  0
 24 26  1  0
 25 27  1  0
 26 28  2  0
 27 29  1  0
 27 30  2  0
 28 30  1  0
 29 31  1  0
 31 32  2  0
 31 33  1  0
 33 34  1  0
 34 35  2  0
 34 36  1  0
 35 37  1  0
 36 38  2  0
 37 39  2  0
 38 39  1  0
 38 40  1  0
 39 41  1  0
 40 42  2  0
 41 43  2  0
 42 43  1  0
M  END
