x2052-x3108
     RDKit          3D

 41 45  0  0  0  0  0  0  0  0999 V2000
    6.4320   -1.3370   25.5300 C   0  0  0  0  0  0  0  0  0  0  0  0
    7.2440   -1.1540   26.6050 N   0  0  0  0  0  0  0  0  0  0  0  0
    6.7280   -0.2650   27.5600 C   0  0  0  0  0  0  0  0  0  0  0  0
    5.3290   -1.8830   25.4930 O   0  0  0  0  0  0  0  0  0  0  0  0
    6.9260   -0.7340   24.2260 C   0  0  1  0  0  0  0  0  0  0  0  0
    6.6040    0.6260   24.4200 O   0  0  0  0  0  0  0  0  0  0  0  0
    8.3700   -0.5940   24.1210 N   0  0  0  0  0  0  0  0  0  0  0  0
    6.2300   -1.2920   22.9210 C   0  0  1  0  0  0  0  0  0  0  0  0
    8.4960    0.3770   23.0230 C   0  0  0  0  0  0  0  0  0  0  0  0
    7.3530   -1.7040   21.8900 C   0  0  2  0  0  0  0  0  0  0  0  0
    5.2210   -2.4730   23.1220 C   0  0  0  0  0  0  0  0  0  0  0  0
    7.0210    1.0880   27.6760 C   0  0  0  0  0  0  0  0  0  0  0  0
    5.8310   -0.6990   28.5200 C   0  0  0  0  0  0  0  0  0  0  0  0
    7.8230   -0.7000   21.0590 N   0  0  0  0  0  0  0  0  0  0  0  0
    8.8440   -0.1950   21.6890 C   0  0  0  0  0  0  0  0  0  0  0  0
    6.9720   -3.0750   21.4000 N   0  0  0  0  0  0  0  0  0  0  0  0
    5.7870   -3.9060   23.3620 C   0  0  0  0  0  0  0  0  0  0  0  0
    6.5600    1.9990   28.5800 N   0  0  0  0  0  0  0  0  0  0  0  0
    5.2180    0.2560   29.6310 C   0  0  0  0  0  0  0  0  0  0  0  0
    6.5710   -3.4890   20.0860 C   0  0  0  0  0  0  0  0  0  0  0  0
    9.9920   -0.1220   21.3500 O   0  0  0  0  0  0  0  0  0  0  0  0
    6.9490   -4.1100   22.3730 C   0  0  2  0  0  0  0  0  0  0  0  0
    5.5980    1.5840   29.6400 C   0  0  0  0  0  0  0  0  0  0  0  0
    6.9640    0.0750   20.2140 C   0  0  0  0  0  0  0  0  0  0  0  0
    5.5670   -4.2000   19.8420 O   0  0  0  0  0  0  0  0  0  0  0  0
    5.2000    2.4140   30.4450 O   0  0  0  0  0  0  0  0  0  0  0  0
    7.4970   -3.0660   18.9990 C   0  0  0  0  0  0  0  0  0  0  0  0
    7.0090   -0.2200   18.8430 C   0  0  0  0  0  0  0  0  0  0  0  0
    6.0640    1.1050   20.5660 C   0  0  0  0  0  0  0  0  0  0  0  0
    8.3690   -4.3980   22.9280 C   0  0  0  0  0  0  0  0  0  0  0  0
    6.1400    3.4550   30.7010 C   0  0  0  0  0  0  0  0  0  0  0  0
    5.7590    1.6950   21.9120 C   0  0  0  0  0  0  0  0  0  0  0  0
    6.3350    0.2990   17.7970 N   0  0  0  0  0  0  0  0  0  0  0  0
    5.3300    1.6890   19.5490 C   0  0  0  0  0  0  0  0  0  0  0  0
    8.5510   -4.6700   24.2860 C   0  0  0  0  0  0  0  0  0  0  0  0
    5.4730    1.2600   18.0970 C   0  0  0  0  0  0  0  0  0  0  0  0
    9.2830   -5.7740   24.6100 N   0  0  0  0  0  0  0  0  0  0  0  0
    7.9720   -3.8280   25.2270 C   0  0  0  0  0  0  0  0  0  0  0  0
    8.0440   -4.0340   26.7380 C   0  0  0  0  0  0  0  0  0  0  0  0
    9.4430   -6.0860   25.9370 C   0  0  0  0  0  0  0  0  0  0  0  0
    8.8470   -5.2740   27.0660 C   0  0  0  0  0  0  0  0  0  0  0  0
  1  2  1  0
  2  3  1  0
  1  4  2  0
  1  5  1  0
  5  6  1  1
  5  7  1  0
  5  8  1  0
  7  9  1  0
  8 10  1  0
  8 11  1  1
  3 12  2  0
  3 13  1  0
 10 14  1  6
  9 15  1  0
 14 15  1  0
 10 16  1  0
 11 17  1  0
 12 18  1  0
 13 19  2  0
 16 20  1  0
 15 21  2  0
 16 22  1  0
 17 22  1  0
 18 23  2  0
 19 23  1  0
 14 24  1  0
 20 25  2  0
 23 26  1  0
 20 27  1  0
 24 28  2  0
 24 29  1  0
 22 30  1  1
 26 31  1  0
 29 32  1  0
 28 33  1  0
 29 34  2  0
 30 35  1  0
 33 36  2  0
 34 36  1  0
 35 37  2  0
 35 38  1  0
 38 39  2  0
 37 40  1  0
 39 41  1  0
 40 41  2  0
M  END
