x2052-x2563
     RDKit          3D

 40 44  0  0  0  0  0  0  0  0999 V2000
    5.6660   -1.6920   25.2500 C   0  0  0  0  0  0  0  0  0  0  0  0
    6.6290   -1.0290   25.9820 N   0  0  0  0  0  0  0  0  0  0  0  0
    6.3210   -0.2460   27.1150 C   0  0  0  0  0  0  0  0  0  0  0  0
    4.5070   -1.7920   25.6430 O   0  0  0  0  0  0  0  0  0  0  0  0
    6.0320   -2.3000   23.8900 C   0  0  1  0  0  0  0  0  0  0  0  0
    6.9670   -1.4210   23.0940 C   0  0  0  0  0  0  0  0  0  0  0  0
    6.3510   -3.6470   23.9710 C   0  0  0  0  0  0  0  0  0  0  0  0
    6.6260   -1.7770   21.6700 C   0  0  1  0  0  0  0  0  0  0  0  0
    7.0050   -4.0770   22.5950 C   0  0  0  0  0  0  0  0  0  0  0  0
    6.5770    1.1140   27.1600 C   0  0  0  0  0  0  0  0  0  0  0  0
    5.6820   -0.8230   28.3710 C   0  0  0  0  0  0  0  0  0  0  0  0
    7.1780   -0.9950   20.4610 C   0  0  2  0  0  0  0  0  0  0  0  0
    6.6370   -3.2250   21.4260 N   0  0  0  0  0  0  0  0  0  0  0  0
    6.2650    1.9650   28.3300 N   0  0  0  0  0  0  0  0  0  0  0  0
    5.3210    0.0190   29.6450 C   0  0  0  0  0  0  0  0  0  0  0  0
    6.3550   -3.7260   20.1380 C   0  0  0  0  0  0  0  0  0  0  0  0
    8.2580   -0.3310   21.2330 C   0  0  0  0  0  0  0  0  0  0  0  0
    5.6460    1.3710   29.5250 C   0  0  0  0  0  0  0  0  0  0  0  0
    6.3660   -0.0510   19.6500 C   0  0  0  0  0  0  0  0  0  0  0  0
    5.4770   -4.5780   19.9410 O   0  0  0  0  0  0  0  0  0  0  0  0
    5.3990    2.1220   30.4800 O   0  0  0  0  0  0  0  0  0  0  0  0
    7.1800   -3.2100   18.9900 C   0  0  0  0  0  0  0  0  0  0  0  0
    8.2510    0.8900   21.4040 O   0  0  0  0  0  0  0  0  0  0  0  0
    9.2800   -1.2520   21.6680 N   0  0  0  0  0  0  0  0  0  0  0  0
    5.3050    0.6910   20.1450 C   0  0  0  0  0  0  0  0  0  0  0  0
    6.7040    0.0690   18.3620 C   0  0  0  0  0  0  0  0  0  0  0  0
    6.2780    3.2430   30.5830 C   0  0  0  0  0  0  0  0  0  0  0  0
    6.1200    0.8460   17.4460 N   0  0  0  0  0  0  0  0  0  0  0  0
    4.5690    1.6060   19.1740 C   0  0  0  0  0  0  0  0  0  0  0  0
    4.8670    0.6550   21.4760 C   0  0  0  0  0  0  0  0  0  0  0  0
   10.1920   -0.6780   22.4590 C   0  0  0  0  0  0  0  0  0  0  0  0
    5.0890    1.5830   17.8590 C   0  0  0  0  0  0  0  0  0  0  0  0
    3.5330    2.3630   19.5280 C   0  0  0  0  0  0  0  0  0  0  0  0
    3.6950    1.4940   21.9520 C   0  0  0  0  0  0  0  0  0  0  0  0
   11.5560   -0.8490   22.3690 C   0  0  0  0  0  0  0  0  0  0  0  0
    9.5830    0.2540   23.5120 C   0  0  0  0  0  0  0  0  0  0  0  0
    3.0440    2.3280   20.9880 C   0  0  0  0  0  0  0  0  0  0  0  0
   12.5310   -0.1380   23.2640 C   0  0  0  0  0  0  0  0  0  0  0  0
   10.5320    0.9800   24.4230 C   0  0  0  0  0  0  0  0  0  0  0  0
   12.0200    0.7020   24.1980 C   0  0  0  0  0  0  0  0  0  0  0  0
  1  2  1  0
  2  3  1  0
  1  4  2  0
  5  1  1  1
  5  6  1  0
  5  7  1  0
  8  6  1  1
  7  9  1  0
  3 10  2  0
  3 11  1  0
  8 12  1  0
  8 13  1  0
  9 13  1  0
 10 14  1  0
 11 15  2  0
 13 16  1  0
 12 17  1  1
 14 18  2  0
 15 18  1  0
 12 19  1  0
 16 20  2  0
 18 21  1  0
 16 22  1  0
 17 23  2  0
 17 24  1  0
 19 25  1  0
 19 26  2  0
 21 27  1  0
 26 28  1  0
 25 29  2  0
 25 30  1  0
 24 31  1  0
 28 32  2  0
 29 32  1  0
 29 33  1  0
 30 34  2  0
 31 35  2  0
 31 36  1  0
 33 37  2  0
 34 37  1  0
 35 38  1  0
 36 39  2  0
 38 40  2  0
 39 40  1  0
M  END
