x2052-x2572
     RDKit          3D

 39 43  0  0  0  0  0  0  0  0999 V2000
    6.3010   -1.5810   25.3870 C   0  0  0  0  0  0  0  0  0  0  0  0
    7.1580   -1.0390   26.3100 N   0  0  0  0  0  0  0  0  0  0  0  0
    6.6570   -0.2160   27.3340 C   0  0  0  0  0  0  0  0  0  0  0  0
    5.0630   -1.5810   25.4690 O   0  0  0  0  0  0  0  0  0  0  0  0
    7.0420   -2.1720   24.2320 C   0  0  2  0  0  0  0  0  0  0  0  0
    7.1740   -1.2260   23.1460 C   0  0  1  0  0  0  0  0  0  0  0  0
    6.1960   -3.4360   23.8750 C   0  0  0  0  0  0  0  0  0  0  0  0
    8.3650   -0.1980   23.0770 C   0  0  2  0  0  0  0  0  0  0  0  0
    7.4020   -1.7330   21.6880 C   0  0  2  0  0  0  0  0  0  0  0  0
    6.5220   -3.9050   22.4670 C   0  0  0  0  0  0  0  0  0  0  0  0
    6.9540    1.1420   27.4970 C   0  0  0  0  0  0  0  0  0  0  0  0
    5.8000   -0.7130   28.3050 C   0  0  0  0  0  0  0  0  0  0  0  0
    7.4900   -0.6130   20.8920 N   0  0  0  0  0  0  0  0  0  0  0  0
    8.2280    0.2020   21.5880 C   0  0  0  0  0  0  0  0  0  0  0  0
    6.5580   -2.9410   21.3840 N   0  0  0  0  0  0  0  0  0  0  0  0
    6.5080    1.9940   28.4780 N   0  0  0  0  0  0  0  0  0  0  0  0
    5.2450    0.2030   29.4680 C   0  0  0  0  0  0  0  0  0  0  0  0
    9.8380   -0.4400   23.3870 C   0  0  0  0  0  0  0  0  0  0  0  0
    6.3310   -3.4170   20.0600 C   0  0  0  0  0  0  0  0  0  0  0  0
    8.7870    1.2360   21.1660 O   0  0  0  0  0  0  0  0  0  0  0  0
    5.5920    1.5280   29.5580 C   0  0  0  0  0  0  0  0  0  0  0  0
    6.5550   -0.0050   20.0330 C   0  0  0  0  0  0  0  0  0  0  0  0
   10.3670   -0.2530   24.6970 C   0  0  0  0  0  0  0  0  0  0  0  0
   10.7820   -0.8670   22.2510 C   0  0  0  0  0  0  0  0  0  0  0  0
    5.3840   -4.1760   19.7860 O   0  0  0  0  0  0  0  0  0  0  0  0
    5.2170    2.3080   30.4230 O   0  0  0  0  0  0  0  0  0  0  0  0
    7.3320   -3.0280   19.0160 C   0  0  0  0  0  0  0  0  0  0  0  0
    6.9510    0.0150   18.6890 C   0  0  0  0  0  0  0  0  0  0  0  0
    5.3360    0.5780   20.3820 C   0  0  0  0  0  0  0  0  0  0  0  0
   11.7350   -0.4620   24.9090 C   0  0  0  0  0  0  0  0  0  0  0  0
   12.2570   -1.0700   22.5280 C   0  0  0  0  0  0  0  0  0  0  0  0
    6.1190    3.3910   30.6430 C   0  0  0  0  0  0  0  0  0  0  0  0
    4.7510    0.6460   21.7620 C   0  0  0  0  0  0  0  0  0  0  0  0
   13.1190   -1.4210   21.5270 C   0  0  0  0  0  0  0  0  0  0  0  0
    6.2960    0.5570   17.6460 N   0  0  0  0  0  0  0  0  0  0  0  0
    4.6040    1.1560   19.3670 C   0  0  0  0  0  0  0  0  0  0  0  0
   12.7580   -0.8700   23.8770 C   0  0  0  0  0  0  0  0  0  0  0  0
   13.9750   -1.5400   20.4220 N   0  0  0  0  0  0  0  0  0  0  0  0
    5.1480    1.1280   17.9520 C   0  0  0  0  0  0  0  0  0  0  0  0
  1  2  1  0
  2  3  1  0
  1  4  2  0
  5  1  1  1
  6  5  1  1
  5  7  1  0
  6  8  1  0
  6  9  1  0
  7 10  1  0
  3 11  2  0
  3 12  1  0
  9 13  1  6
  8 14  1  0
 13 14  1  0
  9 15  1  0
 10 15  1  0
 11 16  1  0
 12 17  2  0
  8 18  1  6
 15 19  1  0
 14 20  2  0
 16 21  2  0
 17 21  1  0
 13 22  1  0
 18 23  2  0
 18 24  1  0
 19 25  2  0
 21 26  1  0
 19 27  1  0
 22 28  2  0
 22 29  1  0
 23 30  1  0
 24 31  2  0
 26 32  1  0
 29 33  1  0
 31 34  1  0
 28 35  1  0
 29 36  2  0
 30 37  2  0
 31 37  1  0
 34 38  3  0
 35 39  2  0
 36 39  1  0
M  END
