x2052-x2540
     RDKit          3D

 44 47  0  0  0  0  0  0  0  0999 V2000
    7.5690   -0.9190   21.8050 N   0  0  0  0  0  0  0  0  0  0  0  0
    7.1200    0.4210   21.6970 C   0  0  1  0  0  0  0  0  0  0  0  0
    7.9810    1.4930   21.8340 C   0  0  0  0  0  0  0  0  0  0  0  0
    8.7560   -1.3080   22.5120 C   0  0  0  0  0  0  0  0  0  0  0  0
    6.3670   -1.7650   21.7900 C   0  0  1  0  0  0  0  0  0  0  0  0
    6.4590    0.6930   20.3650 C   0  0  0  0  0  0  0  0  0  0  0  0
    8.7980   -2.3950   23.5040 N   0  0  0  0  0  0  0  0  0  0  0  0
    9.9980   -0.8350   22.4740 C   0  0  0  0  0  0  0  0  0  0  0  0
    6.6460   -3.2040   21.5020 N   0  0  0  0  0  0  0  0  0  0  0  0
    5.5300   -1.5780   22.8990 C   0  0  0  0  0  0  0  0  0  0  0  0
    7.7760    2.5260   22.8220 N   0  0  0  0  0  0  0  0  0  0  0  0
    9.0400    1.5140   20.9220 O   0  0  0  0  0  0  0  0  0  0  0  0
    6.3910   -3.6700   20.2040 C   0  0  0  0  0  0  0  0  0  0  0  0
    5.3030    1.5570   20.2830 C   0  0  0  0  0  0  0  0  0  0  0  0
    6.9590    0.1200   19.1820 C   0  0  0  0  0  0  0  0  0  0  0  0
   10.1270   -2.4160   23.9580 O   0  0  0  0  0  0  0  0  0  0  0  0
   10.8770   -1.4500   23.3210 C   0  0  0  0  0  0  0  0  0  0  0  0
    6.2470   -2.0810   23.9670 C   0  0  1  0  0  0  0  0  0  0  0  0
    6.6420   -4.2210   22.5760 C   0  0  0  0  0  0  0  0  0  0  0  0
    8.8640    3.2740   23.4250 C   0  0  0  0  0  0  0  0  0  0  0  0
   12.2520   -1.3160   23.6550 C   0  0  0  0  0  0  0  0  0  0  0  0
    5.5690   -1.6260   25.2460 C   0  0  0  0  0  0  0  0  0  0  0  0
    5.4950   -4.4950   19.9390 O   0  0  0  0  0  0  0  0  0  0  0  0
    7.2730   -3.1420   19.1210 C   0  0  0  0  0  0  0  0  0  0  0  0
    6.3640    0.3660   17.8440 N   0  0  0  0  0  0  0  0  0  0  0  0
    4.6240    1.8690   18.9820 C   0  0  0  0  0  0  0  0  0  0  0  0
    6.4430   -3.6130   23.9400 C   0  0  0  0  0  0  0  0  0  0  0  0
    8.6760    3.1140   24.9250 C   0  0  0  0  0  0  0  0  0  0  0  0
    8.7300    4.7370   22.9580 C   0  0  0  0  0  0  0  0  0  0  0  0
   10.2700    2.7630   22.9930 C   0  0  0  0  0  0  0  0  0  0  0  0
   13.0840   -1.1120   22.3900 C   0  0  0  0  0  0  0  0  0  0  0  0
   12.3560   -0.0630   24.5130 C   0  0  0  0  0  0  0  0  0  0  0  0
   12.7970   -2.5160   24.4600 C   0  0  0  0  0  0  0  0  0  0  0  0
    4.2150   -1.7400   25.4120 O   0  0  0  0  0  0  0  0  0  0  0  0
    6.5330   -1.0770   26.2160 N   0  0  0  0  0  0  0  0  0  0  0  0
    5.2160    1.2360   17.7850 C   0  0  0  0  0  0  0  0  0  0  0  0
    6.2290   -0.2100   27.3550 C   0  0  0  0  0  0  0  0  0  0  0  0
    6.6180    1.2700   27.4630 C   0  0  0  0  0  0  0  0  0  0  0  0
    5.4750   -0.8350   28.5090 C   0  0  0  0  0  0  0  0  0  0  0  0
    6.3280    2.0660   28.5430 N   0  0  0  0  0  0  0  0  0  0  0  0
    5.1730    0.0750   29.6740 C   0  0  0  0  0  0  0  0  0  0  0  0
    5.6450    1.5300   29.6030 C   0  0  0  0  0  0  0  0  0  0  0  0
    5.3420    2.3110   30.6970 O   0  0  0  0  0  0  0  0  0  0  0  0
    6.1600    3.4670   30.8180 C   0  0  0  0  0  0  0  0  0  0  0  0
  1  2  1  0
  2  3  1  6
  1  4  1  0
  5  1  1  1
  2  6  1  0
  4  7  2  0
  4  8  1  0
  5  9  1  0
  5 10  1  0
  3 11  1  0
  3 12  2  0
  9 13  1  0
  6 14  2  0
  6 15  1  0
  7 16  1  0
  8 17  2  0
 16 17  1  0
 10 18  1  0
  9 19  1  0
 20 11  1  0
 17 21  1  0
 18 22  1  1
 13 23  2  0
 13 24  1  0
 15 25  2  0
 14 26  1  0
 18 27  1  0
 19 27  1  0
 20 28  1  0
 20 29  1  0
 20 30  1  0
 21 31  1  0
 21 32  1  0
 21 33  1  0
 22 34  2  0
 22 35  1  0
 25 36  1  0
 26 36  2  0
 35 37  1  0
 37 38  2  0
 37 39  1  0
 38 40  1  0
 39 41  2  0
 40 42  2  0
 41 42  1  0
 42 43  1  0
 43 44  1  0
M  END
