x2052-x2705-x2703
     RDKit          3D

 49 53  0  0  0  0  0  0  0  0999 V2000
    7.4270    2.1030   22.8210 N   0  0  0  0  0  0  0  0  0  0  0  0
    7.7260    1.0290   22.0190 C   0  0  0  0  0  0  0  0  0  0  0  0
    8.7850    0.8840   21.4090 O   0  0  0  0  0  0  0  0  0  0  0  0
    8.1310    3.3860   22.9160 C   0  0  0  0  0  0  0  0  0  0  0  0
    6.5200    0.0400   21.9560 C   0  0  1  0  0  0  0  0  0  0  0  0
    9.5400    3.4120   23.4790 C   0  0  0  0  0  0  0  0  0  0  0  0
    7.5580    4.6160   22.5050 C   0  0  0  0  0  0  0  0  0  0  0  0
   10.2280    2.1120   23.9240 C   0  0  0  0  0  0  0  0  0  0  0  0
    6.1920    4.6950   21.9320 C   0  0  0  0  0  0  0  0  0  0  0  0
    6.0570    0.2860   20.5090 C   0  0  0  0  0  0  0  0  0  0  0  0
   10.2500    4.6540   23.5950 C   0  0  0  0  0  0  0  0  0  0  0  0
    8.3490    5.9230   22.6440 C   0  0  0  0  0  0  0  0  0  0  0  0
    6.6920   -1.3650   22.7650 C   0  0  2  0  0  0  0  0  0  0  0  0
    9.2970    1.3470   24.8640 C   0  0  0  0  0  0  0  0  0  0  0  0
    4.8040    0.8790   20.2640 C   0  0  0  0  0  0  0  0  0  0  0  0
    6.8650   -0.0330   19.4140 C   0  0  0  0  0  0  0  0  0  0  0  0
    9.6360    5.9960   23.1610 C   0  0  0  0  0  0  0  0  0  0  0  0
    7.5920   -2.3100   22.3650 C   0  0  0  0  0  0  0  0  0  0  0  0
    5.5700   -1.9660   23.4090 C   0  0  2  0  0  0  0  0  0  0  0  0
    5.2610   -1.2750   24.7780 C   0  0  0  0  0  0  0  0  0  0  0  0
    6.5310    0.1970   18.1100 N   0  0  0  0  0  0  0  0  0  0  0  0
    4.4140    1.1400   18.9490 C   0  0  0  0  0  0  0  0  0  0  0  0
    9.0350   -2.0020   22.6760 C   0  0  0  0  0  0  0  0  0  0  0  0
    7.0070   -3.5210   21.6420 N   0  0  0  0  0  0  0  0  0  0  0  0
    5.8170   -3.4440   23.8590 C   0  0  0  0  0  0  0  0  0  0  0  0
    3.9800   -0.9460   25.0680 O   0  0  0  0  0  0  0  0  0  0  0  0
    6.3150   -1.0300   25.7190 N   0  0  0  0  0  0  0  0  0  0  0  0
    6.6320   -3.6460   20.2680 C   0  0  0  0  0  0  0  0  0  0  0  0
    5.2290    0.8260   17.8890 C   0  0  0  0  0  0  0  0  0  0  0  0
    9.1710   -1.4880   24.0850 N   0  0  0  0  0  0  0  0  0  0  0  0
   10.2650   -2.0370   22.1050 C   0  0  0  0  0  0  0  0  0  0  0  0
    6.2430   -4.2170   22.5860 C   0  0  0  0  0  0  0  0  0  0  0  0
    5.6130   -4.2890   19.9080 O   0  0  0  0  0  0  0  0  0  0  0  0
    7.5100   -3.0830   19.1800 C   0  0  0  0  0  0  0  0  0  0  0  0
   10.4830   -1.2830   24.1600 N   0  0  0  0  0  0  0  0  0  0  0  0
   11.0900   -1.6090   23.0000 C   0  0  0  0  0  0  0  0  0  0  0  0
    6.1450   -0.1910   26.9660 C   0  0  0  0  0  0  0  0  0  0  0  0
   12.5040   -1.4730   22.8330 C   0  0  0  0  0  0  0  0  0  0  0  0
    6.4920    1.2460   27.1190 C   0  0  0  0  0  0  0  0  0  0  0  0
    5.6140   -0.8120   28.0600 C   0  0  0  0  0  0  0  0  0  0  0  0
   12.8650   -0.1590   23.0640 C   0  0  0  0  0  0  0  0  0  0  0  0
   13.2960   -2.3250   23.8390 C   0  0  0  0  0  0  0  0  0  0  0  0
   12.9640   -1.9150   21.4340 C   0  0  0  0  0  0  0  0  0  0  0  0
    6.3010    1.9560   28.2880 N   0  0  0  0  0  0  0  0  0  0  0  0
    5.4010   -0.0310   29.3530 C   0  0  0  0  0  0  0  0  0  0  0  0
   12.5280   -2.9070   25.0080 C   0  0  0  0  0  0  0  0  0  0  0  0
    5.7630    1.3120   29.3730 C   0  0  0  0  0  0  0  0  0  0  0  0
    5.5520    1.9960   30.5610 O   0  0  0  0  0  0  0  0  0  0  0  0
    6.1720    3.2060   30.6160 C   0  0  0  0  0  0  0  0  0  0  0  0
  1  2  1  0
  2  3  2  0
  1  4  1  0
  5  2  1  6
  4  6  2  0
  4  7  1  0
  6  8  1  0
  7  9  1  0
  5 10  1  0
  6 11  1  0
  7 12  2  0
  5 13  1  0
  8 14  1  0
 10 15  2  0
 10 16  1  0
 11 17  2  0
 12 17  1  0
 13 18  1  6
 13 19  1  0
 19 20  1  1
 16 21  2  0
 15 22  1  0
 18 23  1  0
 18 24  1  0
 19 25  1  0
 20 26  2  0
 20 27  1  0
 24 28  1  0
 21 29  1  0
 22 29  2  0
 23 30  2  0
 23 31  1  0
 24 32  1  0
 25 32  1  0
 28 33  2  0
 28 34  1  0
 30 35  1  0
 31 36  2  0
 35 36  1  0
 27 37  1  0
 36 38  1  0
 37 39  2  0
 37 40  1  0
 38 41  1  0
 38 42  1  0
 38 43  1  0
 39 44  1  0
 40 45  2  0
 42 46  1  0
 44 47  2  0
 45 47  1  0
 47 48  1  0
 48 49  1  0
M  END
