x2052-x0831
     RDKit          3D

 29 31  0  0  0  0  0  0  0  0999 V2000
    5.5800   -1.5060   25.0140 C   0  0  0  0  0  0  0  0  0  0  0  0
    6.5660   -0.9760   25.8390 N   0  0  0  0  0  0  0  0  0  0  0  0
    6.2780   -0.2120   27.0500 C   0  0  0  0  0  0  0  0  0  0  0  0
    4.3750   -1.5680   25.2480 O   0  0  0  0  0  0  0  0  0  0  0  0
    6.0000   -2.0940   23.6520 C   0  0  1  0  0  0  0  0  0  0  0  0
    6.9020   -1.2200   22.7000 C   0  0  0  0  0  0  0  0  0  0  0  0
    6.2170   -3.6180   23.8420 C   0  0  0  0  0  0  0  0  0  0  0  0
    7.7280   -2.4220   22.1960 C   0  0  2  0  0  0  0  0  0  0  0  0
    6.4700   -4.4700   22.5920 C   0  0  0  0  0  0  0  0  0  0  0  0
    6.6300    1.1800   27.0840 C   0  0  0  0  0  0  0  0  0  0  0  0
    5.5990   -0.9620   28.2270 C   0  0  0  0  0  0  0  0  0  0  0  0
    6.8500   -3.5450   21.6970 N   0  0  0  0  0  0  0  0  0  0  0  0
    6.3500    2.0040   28.2960 N   0  0  0  0  0  0  0  0  0  0  0  0
    5.3250   -0.0870   29.4570 C   0  0  0  0  0  0  0  0  0  0  0  0
    8.6790   -2.8820   23.3520 C   0  0  0  0  0  0  0  0  0  0  0  0
    6.4830   -3.7440   20.3150 C   0  0  0  0  0  0  0  0  0  0  0  0
    5.7020    1.3920   29.4830 C   0  0  0  0  0  0  0  0  0  0  0  0
   10.1810   -2.6030   23.1700 C   0  0  0  0  0  0  0  0  0  0  0  0
    5.5320   -4.4870   19.9680 O   0  0  0  0  0  0  0  0  0  0  0  0
    5.4270    2.1200   30.6240 O   0  0  0  0  0  0  0  0  0  0  0  0
    7.2900   -3.0960   19.2310 C   0  0  0  0  0  0  0  0  0  0  0  0
   10.7750   -1.2200   23.3510 C   0  0  0  0  0  0  0  0  0  0  0  0
    6.1620    3.3410   30.7070 C   0  0  0  0  0  0  0  0  0  0  0  0
   12.0720   -0.9540   22.7780 C   0  0  0  0  0  0  0  0  0  0  0  0
   10.1770   -0.1560   24.0270 C   0  0  0  0  0  0  0  0  0  0  0  0
   12.8490   -2.0030   22.0120 C   0  0  0  0  0  0  0  0  0  0  0  0
   10.6750    1.1330   24.2040 C   0  0  0  0  0  0  0  0  0  0  0  0
   12.6480    0.3000   22.9130 C   0  0  0  0  0  0  0  0  0  0  0  0
   11.9060    1.4220   23.6650 C   0  0  0  0  0  0  0  0  0  0  0  0
  1  2  1  0
  2  3  1  0
  1  4  2  0
  5  1  1  1
  5  6  1  0
  5  7  1  0
  6  8  1  0
  7  9  1  0
  3 10  2  0
  3 11  1  0
  8 12  1  0
  9 12  1  0
 10 13  1  0
 11 14  2  0
  8 15  1  1
 12 16  1  0
 13 17  2  0
 14 17  1  0
 15 18  1  0
 16 19  2  0
 17 20  1  0
 16 21  1  0
 18 22  1  0
 20 23  1  0
 22 24  2  0
 22 25  1  0
 24 26  1  0
 25 27  2  0
 24 28  1  0
 27 29  1  0
 28 29  2  0
M  END
