x2097-x3080
     RDKit          3D

 34 38  0  0  0  0  0  0  0  0999 V2000
    9.8010   -0.4660   23.3000 N   0  0  0  0  0  0  0  0  0  0  0  0
   10.6800    0.6030   23.8490 C   0  0  0  0  0  0  0  0  0  0  0  0
    9.9290   -0.8320   21.9750 C   0  0  0  0  0  0  0  0  0  0  0  0
    8.7450   -1.1890   24.1860 S   0  0  0  0  0  0  0  0  0  0  0  0
    7.2670   -1.6210   24.0050 N   0  0  0  0  0  0  0  0  0  0  0  0
    8.6650   -0.2640   21.2710 C   0  0  0  0  0  0  0  0  0  0  0  0
    8.6480   -0.3030   25.3340 O   0  0  0  0  0  0  0  0  0  0  0  0
    9.4710   -2.5730   25.1110 C   0  0  0  0  0  0  0  0  0  0  0  0
    8.6940    1.1490   20.9840 O   0  0  0  0  0  0  0  0  0  0  0  0
    7.5070   -0.8450   20.8950 N   0  0  0  0  0  0  0  0  0  0  0  0
   10.7860   -2.6360   25.2020 C   0  0  0  0  0  0  0  0  0  0  0  0
    8.5960   -3.4630   25.6490 C   0  0  0  0  0  0  0  0  0  0  0  0
    6.4830   -1.1590   22.9390 C   0  0  1  0  0  0  0  0  0  0  0  0
    6.7460   -0.0750   19.9600 C   0  0  0  0  0  0  0  0  0  0  0  0
   11.6490   -1.7440   24.6690 N   0  0  0  0  0  0  0  0  0  0  0  0
   11.3130   -3.7010   25.9070 C   0  0  0  0  0  0  0  0  0  0  0  0
    9.0860   -4.5310   26.3560 C   0  0  0  0  0  0  0  0  0  0  0  0
    6.7390   -1.7220   21.6000 N   0  0  0  0  0  0  0  0  0  0  0  0
    5.1960   -1.5720   23.2680 C   0  0  0  0  0  0  0  0  0  0  0  0
    5.6960    0.8040   20.2950 C   0  0  0  0  0  0  0  0  0  0  0  0
    6.9580   -0.1130   18.6400 C   0  0  0  0  0  0  0  0  0  0  0  0
   12.6590   -3.7840   26.0290 C   0  0  0  0  0  0  0  0  0  0  0  0
   12.9870   -1.8280   24.7910 C   0  0  0  0  0  0  0  0  0  0  0  0
   10.4390   -4.6400   26.4800 C   0  0  0  0  0  0  0  0  0  0  0  0
    6.8580   -3.1470   21.5200 C   0  0  2  0  0  0  0  0  0  0  0  0
    4.7860   -2.8600   22.9160 C   0  0  0  0  0  0  0  0  0  0  0  0
    5.1830    1.0980   21.6700 C   0  0  0  0  0  0  0  0  0  0  0  0
    6.7460   -3.8900   20.1070 C   0  0  0  0  0  0  0  0  0  0  0  0
    6.3210    0.5570   17.6410 N   0  0  0  0  0  0  0  0  0  0  0  0
    4.9760    1.5540   19.1850 C   0  0  0  0  0  0  0  0  0  0  0  0
   13.5570   -2.8780   25.5000 C   0  0  0  0  0  0  0  0  0  0  0  0
    5.6980   -3.7110   22.2380 N   0  0  0  0  0  0  0  0  0  0  0  0
    5.9070   -4.8830   20.0240 N   0  0  0  0  0  0  0  0  0  0  0  0
    5.3190    1.4040   17.8650 C   0  0  0  0  0  0  0  0  0  0  0  0
  1  2  1  0
  1  3  1  0
  1  4  1  0
  4  5  1  0
  3  6  1  0
  4  7  2  0
  4  8  1  0
  6  9  2  0
  6 10  1  0
  8 11  1  0
  8 12  2  0
  5 13  1  0
 10 14  1  0
 11 15  2  0
 11 16  1  0
 12 17  1  0
 10 18  1  0
 13 18  1  0
 13 19  1  1
 14 20  2  0
 14 21  1  0
 16 22  2  0
 15 23  1  0
 16 24  1  0
 17 24  2  0
 18 25  1  0
 19 26  2  0
 20 27  1  0
 25 28  1  6
 21 29  2  0
 20 30  1  0
 22 31  1  0
 23 31  2  0
 25 32  1  0
 26 32  1  0
 28 33  2  3
 29 34  1  0
 30 34  2  0
M  END
