x2097-x2705
     RDKit          3D

 37 40  0  0  0  0  0  0  0  0999 V2000
    7.7010   -1.2030   21.5950 N   0  0  0  0  0  0  0  0  0  0  0  0
    7.0840    0.1540   21.4920 C   0  0  1  0  0  0  0  0  0  0  0  0
    8.0420    1.3450   21.6870 C   0  0  0  0  0  0  0  0  0  0  0  0
    8.7910   -1.3220   22.4220 C   0  0  0  0  0  0  0  0  0  0  0  0
    6.6980   -2.0780   21.9720 N   0  0  0  0  0  0  0  0  0  0  0  0
    6.3240    0.5240   20.2330 C   0  0  0  0  0  0  0  0  0  0  0  0
    8.7410   -1.4410   23.7670 N   0  0  0  0  0  0  0  0  0  0  0  0
   10.1220   -1.3400   22.0820 C   0  0  0  0  0  0  0  0  0  0  0  0
    6.7330   -3.5740   21.7550 C   0  0  2  0  0  0  0  0  0  0  0  0
    6.1680   -1.7230   23.1890 C   0  0  0  0  0  0  0  0  0  0  0  0
    7.6260    2.1900   22.6350 N   0  0  0  0  0  0  0  0  0  0  0  0
    9.0660    1.5350   21.0460 O   0  0  0  0  0  0  0  0  0  0  0  0
    6.6840   -4.1280   20.2910 C   0  0  0  0  0  0  0  0  0  0  0  0
    5.1650    1.2940   20.1770 C   0  0  0  0  0  0  0  0  0  0  0  0
    6.8690    0.0410   19.0580 C   0  0  0  0  0  0  0  0  0  0  0  0
   10.0120   -1.5220   24.1940 N   0  0  0  0  0  0  0  0  0  0  0  0
   10.9220   -1.4660   23.1850 C   0  0  0  0  0  0  0  0  0  0  0  0
    5.1820   -2.3580   23.7480 C   0  0  0  0  0  0  0  0  0  0  0  0
    5.6400   -4.3580   22.4300 N   0  0  0  0  0  0  0  0  0  0  0  0
   12.4040   -1.5240   23.3270 C   0  0  0  0  0  0  0  0  0  0  0  0
    5.8240   -5.0490   20.0120 N   0  0  0  0  0  0  0  0  0  0  0  0
    6.3390    0.2880   17.8520 N   0  0  0  0  0  0  0  0  0  0  0  0
    4.6030    1.5560   18.9470 C   0  0  0  0  0  0  0  0  0  0  0  0
    8.2190    3.4470   22.8450 C   0  0  0  0  0  0  0  0  0  0  0  0
    4.6140   -3.5150   23.0380 C   0  0  0  0  0  0  0  0  0  0  0  0
   12.8540   -0.1300   23.7560 C   0  0  0  0  0  0  0  0  0  0  0  0
   12.8060   -2.5340   24.3700 C   0  0  0  0  0  0  0  0  0  0  0  0
   13.0470   -1.8860   21.9800 C   0  0  0  0  0  0  0  0  0  0  0  0
    5.2230    1.0400   17.8370 C   0  0  0  0  0  0  0  0  0  0  0  0
    9.5030    3.4590   23.4440 C   0  0  0  0  0  0  0  0  0  0  0  0
    7.6000    4.6600   22.4820 C   0  0  0  0  0  0  0  0  0  0  0  0
   10.2250    2.1840   23.8510 C   0  0  0  0  0  0  0  0  0  0  0  0
    6.2430    4.7560   21.8360 C   0  0  0  0  0  0  0  0  0  0  0  0
   10.1520    4.6880   23.6750 C   0  0  0  0  0  0  0  0  0  0  0  0
    8.2710    5.8730   22.7240 C   0  0  0  0  0  0  0  0  0  0  0  0
    9.4170    1.4230   24.6750 C   0  0  0  0  0  0  0  0  0  0  0  0
    9.5400    5.8870   23.3180 C   0  0  0  0  0  0  0  0  0  0  0  0
  1  2  1  0
  2  3  1  6
  1  4  1  0
  1  5  1  0
  2  6  1  0
  4  7  2  0
  4  8  1  0
  5  9  1  0
  5 10  1  0
  3 11  1  0
  3 12  2  0
  9 13  1  6
  6 14  2  0
  6 15  1  0
  7 16  1  0
  8 17  2  0
 16 17  1  0
 10 18  2  0
  9 19  1  0
 17 20  1  0
 13 21  2  3
 15 22  2  0
 14 23  1  0
 11 24  1  0
 18 25  1  0
 19 25  1  0
 20 26  1  0
 20 27  1  0
 20 28  1  0
 22 29  1  0
 23 29  2  0
 24 30  2  0
 24 31  1  0
 30 32  1  0
 31 33  1  0
 30 34  1  0
 31 35  2  0
 32 36  1  0
 34 37  2  0
 35 37  1  0
M  END
