x2097-x2776
     RDKit          3D

 38 41  0  0  0  0  0  0  0  0999 V2000
    7.5360   -1.1660   21.4620 N   0  0  0  0  0  0  0  0  0  0  0  0
    7.0690    0.2550   21.3930 C   0  0  1  0  0  0  0  0  0  0  0  0
    8.1510    1.3150   21.7120 C   0  0  0  0  0  0  0  0  0  0  0  0
    8.7360   -1.3990   22.1620 C   0  0  0  0  0  0  0  0  0  0  0  0
    6.5150   -2.0070   21.8910 N   0  0  0  0  0  0  0  0  0  0  0  0
    6.3680    0.6480   20.1200 C   0  0  0  0  0  0  0  0  0  0  0  0
    9.9590   -1.1030   21.6220 C   0  0  0  0  0  0  0  0  0  0  0  0
    8.7580   -1.9480   23.4440 C   0  0  0  0  0  0  0  0  0  0  0  0
    6.5720   -3.5170   21.7200 C   0  0  2  0  0  0  0  0  0  0  0  0
    6.0490   -1.6050   23.1090 C   0  0  0  0  0  0  0  0  0  0  0  0
    7.8720    2.0990   22.7590 N   0  0  0  0  0  0  0  0  0  0  0  0
    9.1700    1.4620   21.0660 O   0  0  0  0  0  0  0  0  0  0  0  0
    6.6080   -4.1360   20.2740 C   0  0  0  0  0  0  0  0  0  0  0  0
    5.2590    1.4750   20.1610 C   0  0  0  0  0  0  0  0  0  0  0  0
    6.8430    0.1840   18.9480 C   0  0  0  0  0  0  0  0  0  0  0  0
   11.1440   -1.3080   22.2420 C   0  0  0  0  0  0  0  0  0  0  0  0
    9.9650   -2.1610   24.0990 C   0  0  0  0  0  0  0  0  0  0  0  0
    5.0270   -2.3670   23.7850 C   0  0  0  0  0  0  0  0  0  0  0  0
    5.4910   -4.3350   22.3760 N   0  0  0  0  0  0  0  0  0  0  0  0
    5.7470   -5.0670   20.0240 N   0  0  0  0  0  0  0  0  0  0  0  0
    6.3180    0.4750   17.7440 N   0  0  0  0  0  0  0  0  0  0  0  0
    4.6350    1.8280   18.8520 C   0  0  0  0  0  0  0  0  0  0  0  0
    8.5810    3.2880   23.0470 C   0  0  0  0  0  0  0  0  0  0  0  0
   11.1590   -1.8330   23.4840 C   0  0  0  0  0  0  0  0  0  0  0  0
    4.4850   -3.6000   23.1400 C   0  0  0  0  0  0  0  0  0  0  0  0
   12.4670   -2.0090   24.1130 C   0  0  2  0  0  0  0  0  0  0  0  0
    5.2520    1.2770   17.7670 C   0  0  0  0  0  0  0  0  0  0  0  0
    9.8970    3.1730   23.5430 C   0  0  0  0  0  0  0  0  0  0  0  0
    8.0390    4.5540   22.8560 C   0  0  0  0  0  0  0  0  0  0  0  0
   12.4370   -2.8460   25.2400 O   0  0  0  0  0  0  0  0  0  0  0  0
   10.5590    1.8430   23.7810 C   0  0  0  0  0  0  0  0  0  0  0  0
   12.8760   -0.6150   24.5540 C   0  0  0  0  0  0  0  0  0  0  0  0
   10.6400    4.3170   23.8370 C   0  0  0  0  0  0  0  0  0  0  0  0
    8.7900    5.6910   23.1600 C   0  0  0  0  0  0  0  0  0  0  0  0
   13.7540   -3.0510   25.6630 C   0  0  0  0  0  0  0  0  0  0  0  0
   10.0850    5.5740   23.6520 C   0  0  0  0  0  0  0  0  0  0  0  0
   10.7220    6.7570   23.9220 O   0  0  0  0  0  0  0  0  0  0  0  0
   11.8190    6.6950   24.8340 C   0  0  0  0  0  0  0  0  0  0  0  0
  1  2  1  0
  2  3  1  6
  1  4  1  0
  1  5  1  0
  2  6  1  0
  4  7  2  0
  4  8  1  0
  5  9  1  0
  5 10  1  0
  3 11  1  0
  3 12  2  0
  9 13  1  6
  6 14  2  0
  6 15  1  0
  7 16  1  0
  8 17  2  0
 10 18  2  0
  9 19  1  0
 13 20  2  3
 15 21  2  0
 14 22  1  0
 11 23  1  0
 16 24  2  0
 17 24  1  0
 18 25  1  0
 19 25  1  0
 24 26  1  0
 21 27  1  0
 22 27  2  0
 23 28  2  0
 23 29  1  0
 26 30  1  0
 28 31  1  0
 26 32  1  1
 28 33  1  0
 29 34  2  0
 30 35  1  0
 33 36  2  0
 34 36  1  0
 36 37  1  0
 37 38  1  0
M  END
