x2097-x3117
     RDKit          3D

 35 38  0  0  0  0  0  0  0  0999 V2000
    7.7010   -1.2640   21.5960 N   0  0  0  0  0  0  0  0  0  0  0  0
    7.0390    0.0870   21.5870 C   0  0  1  0  0  0  0  0  0  0  0  0
    8.0970    1.2130   21.8060 C   0  0  0  0  0  0  0  0  0  0  0  0
    8.8590   -1.3420   22.3360 C   0  0  0  0  0  0  0  0  0  0  0  0
    7.0310   -2.4460   21.9040 N   0  0  0  0  0  0  0  0  0  0  0  0
    6.3440    0.4220   20.2910 C   0  0  0  0  0  0  0  0  0  0  0  0
    9.8990   -2.0840   21.8320 C   0  0  0  0  0  0  0  0  0  0  0  0
    8.9600   -0.7000   23.5720 C   0  0  0  0  0  0  0  0  0  0  0  0
    5.9900   -3.0880   21.1130 C   0  0  1  0  0  0  0  0  0  0  0  0
    6.9650   -2.7070   23.2560 C   0  0  0  0  0  0  0  0  0  0  0  0
    7.8820    2.0770   22.8110 N   0  0  0  0  0  0  0  0  0  0  0  0
    9.0710    1.3530   21.0740 O   0  0  0  0  0  0  0  0  0  0  0  0
    6.4390   -4.2020   20.1080 C   0  0  0  0  0  0  0  0  0  0  0  0
    5.1070    1.2990   20.2670 C   0  0  0  0  0  0  0  0  0  0  0  0
    6.8660   -0.0740   19.1000 C   0  0  0  0  0  0  0  0  0  0  0  0
   11.0600   -2.1840   22.5150 C   0  0  0  0  0  0  0  0  0  0  0  0
   10.1320   -0.8000   24.2740 C   0  0  0  0  0  0  0  0  0  0  0  0
    5.6600   -2.8460   23.8880 C   0  0  0  0  0  0  0  0  0  0  0  0
    4.7940   -3.5430   21.8860 N   0  0  0  0  0  0  0  0  0  0  0  0
    5.7450   -5.2950   20.0450 N   0  0  0  0  0  0  0  0  0  0  0  0
    6.2540    0.2440   17.8010 N   0  0  0  0  0  0  0  0  0  0  0  0
    4.6080    1.5380   19.0030 C   0  0  0  0  0  0  0  0  0  0  0  0
    8.6920    3.2970   22.7600 C   0  0  0  0  0  0  0  0  0  0  0  0
   11.1830   -1.5370   23.7280 C   0  0  0  0  0  0  0  0  0  0  0  0
    4.6130   -2.7420   23.1010 C   0  0  0  0  0  0  0  0  0  0  0  0
   12.5000   -1.6380   24.4100 C   0  0  0  0  0  0  0  0  0  0  0  0
    5.1780    1.0260   17.8660 C   0  0  0  0  0  0  0  0  0  0  0  0
    9.8240    3.1310   23.5630 C   0  0  0  0  0  0  0  0  0  0  0  0
    7.9540    4.3850   23.2160 C   0  0  0  0  0  0  0  0  0  0  0  0
   12.6400   -0.6060   25.2470 C   0  0  0  0  0  0  0  0  0  0  0  0
   13.4330   -1.3420   23.2350 C   0  0  0  0  0  0  0  0  0  0  0  0
   12.9100   -2.9810   25.0390 C   0  0  0  0  0  0  0  0  0  0  0  0
   10.6180    4.2760   23.6540 C   0  0  0  0  0  0  0  0  0  0  0  0
    8.7310    5.5550   23.4140 C   0  0  0  0  0  0  0  0  0  0  0  0
    9.8840    5.2790   24.2130 O   0  0  0  0  0  0  0  0  0  0  0  0
  1  2  1  0
  2  3  1  6
  1  4  1  0
  1  5  1  0
  2  6  1  0
  4  7  2  0
  4  8  1  0
  5  9  1  0
  5 10  1  0
  3 11  1  0
  3 12  2  0
  9 13  1  1
  6 14  2  0
  6 15  1  0
  7 16  1  0
  8 17  2  0
 10 18  2  0
  9 19  1  0
 13 20  2  3
 15 21  2  0
 14 22  1  0
 11 23  1  0
 16 24  2  0
 17 24  1  0
 18 25  1  0
 19 25  1  0
 24 26  1  0
 21 27  1  0
 22 27  2  0
 23 28  1  0
 23 29  1  0
 26 30  1  0
 26 31  1  0
 26 32  1  0
 28 33  1  0
 29 34  1  0
 33 35  1  0
 34 35  1  0
M  END
