x2097-x3113
     RDKit          3D

 34 36  0  0  0  0  0  0  0  0999 V2000
    7.7640   -1.3060   21.7560 N   0  0  0  0  0  0  0  0  0  0  0  0
    7.1430    0.0600   21.6400 C   0  0  1  0  0  0  0  0  0  0  0  0
    8.1890    1.1710   21.9620 C   0  0  0  0  0  0  0  0  0  0  0  0
    8.9270   -1.4440   22.4610 C   0  0  0  0  0  0  0  0  0  0  0  0
    7.0570   -2.4760   22.0180 N   0  0  0  0  0  0  0  0  0  0  0  0
    6.4770    0.3400   20.3140 C   0  0  0  0  0  0  0  0  0  0  0  0
    9.9330   -2.0360   21.7880 C   0  0  0  0  0  0  0  0  0  0  0  0
    9.1100   -1.0430   23.7720 C   0  0  0  0  0  0  0  0  0  0  0  0
    6.0120   -2.9810   21.0790 C   0  0  1  0  0  0  0  0  0  0  0  0
    6.9160   -2.8320   23.4120 C   0  0  0  0  0  0  0  0  0  0  0  0
    8.2260    1.5510   23.2500 N   0  0  0  0  0  0  0  0  0  0  0  0
    8.9020    1.6950   21.0920 O   0  0  0  0  0  0  0  0  0  0  0  0
    6.4800   -4.1110   20.0970 C   0  0  0  0  0  0  0  0  0  0  0  0
    5.3260    1.1480   20.2990 C   0  0  0  0  0  0  0  0  0  0  0  0
    6.9270   -0.1250   19.0880 C   0  0  0  0  0  0  0  0  0  0  0  0
   11.1420   -2.2180   22.3480 C   0  0  0  0  0  0  0  0  0  0  0  0
   10.3410   -1.2350   24.3600 C   0  0  0  0  0  0  0  0  0  0  0  0
    5.6640   -2.9580   23.9580 C   0  0  0  0  0  0  0  0  0  0  0  0
    4.8070   -3.4920   21.7760 N   0  0  0  0  0  0  0  0  0  0  0  0
    9.2080    2.4230   23.5470 C   0  0  0  0  0  0  0  0  0  0  0  0
    5.8080   -5.2230   20.0420 N   0  0  0  0  0  0  0  0  0  0  0  0
    6.3390    0.1590   17.9100 N   0  0  0  0  0  0  0  0  0  0  0  0
    4.6950    1.4550   19.0930 C   0  0  0  0  0  0  0  0  0  0  0  0
   11.3930   -1.8200   23.6400 C   0  0  0  0  0  0  0  0  0  0  0  0
    4.5680   -2.7370   22.9970 C   0  0  0  0  0  0  0  0  0  0  0  0
   10.5120    2.0110   23.3620 C   0  0  0  0  0  0  0  0  0  0  0  0
   12.6910   -1.9460   24.3080 C   0  0  0  0  0  0  0  0  0  0  0  0
    5.2350    0.9450   17.9330 C   0  0  0  0  0  0  0  0  0  0  0  0
   11.6370    3.0800   23.3040 C   0  0  0  0  0  0  0  0  0  0  0  0
   13.5660   -2.1880   23.2670 C   0  0  0  0  0  0  0  0  0  0  0  0
   12.9140   -3.1040   25.2440 C   0  0  0  0  0  0  0  0  0  0  0  0
   12.9070   -0.7810   24.9690 C   0  0  0  0  0  0  0  0  0  0  0  0
   11.7610    3.8260   22.3480 O   0  0  0  0  0  0  0  0  0  0  0  0
   12.9500    4.6080   22.4920 C   0  0  0  0  0  0  0  0  0  0  0  0
  1  2  1  0
  2  3  1  6
  1  4  1  0
  1  5  1  0
  2  6  1  0
  4  7  2  0
  4  8  1  0
  5  9  1  0
  5 10  1  0
  3 11  1  0
  3 12  2  0
  9 13  1  1
  6 14  2  0
  6 15  1  0
  7 16  1  0
  8 17  2  0
 10 18  2  0
  9 19  1  0
 11 20  1  0
 13 21  2  3
 15 22  2  0
 14 23  1  0
 16 24  2  0
 17 24  1  0
 18 25  1  0
 19 25  1  0
 20 26  1  0
 24 27  1  0
 22 28  1  0
 23 28  2  0
 26 29  1  0
 27 30  1  0
 27 31  1  0
 27 32  1  0
 29 33  1  0
 33 34  1  0
M  END
