x2097-x2540
     RDKit          3D

 32 34  0  0  0  0  0  0  0  0999 V2000
    7.8930   -1.1110   21.5920 N   0  0  0  0  0  0  0  0  0  0  0  0
    7.1900    0.2280   21.4970 C   0  0  1  0  0  0  0  0  0  0  0  0
    8.1640    1.3950   21.8380 C   0  0  0  0  0  0  0  0  0  0  0  0
    8.8950   -1.1700   22.4950 C   0  0  0  0  0  0  0  0  0  0  0  0
    7.2100   -2.3350   21.7140 N   0  0  0  0  0  0  0  0  0  0  0  0
    6.4900    0.4950   20.1960 C   0  0  0  0  0  0  0  0  0  0  0  0
    8.7600   -1.1990   23.9810 N   0  0  0  0  0  0  0  0  0  0  0  0
   10.2240   -1.2390   22.2600 C   0  0  0  0  0  0  0  0  0  0  0  0
    6.1990   -2.7300   20.8890 C   0  0  1  0  0  0  0  0  0  0  0  0
    7.1840   -2.8780   22.9820 C   0  0  0  0  0  0  0  0  0  0  0  0
    8.0270    1.8490   23.0820 N   0  0  0  0  0  0  0  0  0  0  0  0
    8.9650    1.8880   21.0370 O   0  0  0  0  0  0  0  0  0  0  0  0
    6.5340   -3.9290   19.8980 C   0  0  0  0  0  0  0  0  0  0  0  0
    5.3810    1.3580   20.2010 C   0  0  0  0  0  0  0  0  0  0  0  0
    6.8700   -0.0380   18.9770 C   0  0  0  0  0  0  0  0  0  0  0  0
   10.0530   -1.2850   24.4530 O   0  0  0  0  0  0  0  0  0  0  0  0
   10.9490   -1.3070   23.4190 C   0  0  0  0  0  0  0  0  0  0  0  0
    5.9920   -2.9960   23.6520 C   0  0  0  0  0  0  0  0  0  0  0  0
    4.9420   -3.1340   21.5830 N   0  0  0  0  0  0  0  0  0  0  0  0
    8.8330    2.8610   23.4500 C   0  0  0  0  0  0  0  0  0  0  0  0
   12.3780   -1.3850   23.7860 C   0  0  0  0  0  0  0  0  0  0  0  0
    5.8780   -5.0360   20.0510 N   0  0  0  0  0  0  0  0  0  0  0  0
    6.2470    0.2310   17.8200 N   0  0  0  0  0  0  0  0  0  0  0  0
    4.7160    1.6520   19.0160 C   0  0  0  0  0  0  0  0  0  0  0  0
    4.8950   -2.5790   22.9400 C   0  0  0  0  0  0  0  0  0  0  0  0
    8.7760    3.2310   24.7520 C   0  0  0  0  0  0  0  0  0  0  0  0
    8.4540    4.1690   22.6960 C   0  0  0  0  0  0  0  0  0  0  0  0
   10.3260    2.5230   23.1010 C   0  0  0  0  0  0  0  0  0  0  0  0
   13.1410   -0.9860   22.6820 C   0  0  0  0  0  0  0  0  0  0  0  0
   12.5090   -0.3800   24.9090 C   0  0  0  0  0  0  0  0  0  0  0  0
   12.7250   -2.6190   24.2920 C   0  0  0  0  0  0  0  0  0  0  0  0
    5.1860    1.0710   17.8610 C   0  0  0  0  0  0  0  0  0  0  0  0
  1  2  1  0
  2  3  1  6
  1  4  1  0
  1  5  1  0
  2  6  1  0
  4  7  2  0
  4  8  1  0
  5  9  1  0
  5 10  1  0
  3 11  1  0
  3 12  2  0
  9 13  1  1
  6 14  2  0
  6 15  1  0
  7 16  1  0
  8 17  2  0
 16 17  1  0
 10 18  2  0
  9 19  1  0
 20 11  1  0
 17 21  1  0
 13 22  2  3
 15 23  2  0
 14 24  1  0
 18 25  1  0
 19 25  1  0
 20 26  1  0
 20 27  1  0
 20 28  1  0
 21 29  1  0
 21 30  1  0
 21 31  1  0
 23 32  1  0
 24 32  2  0
M  END
