x2119-x3124
     RDKit          3D

 29 31  0  0  0  0  0  0  0  0999 V2000
    7.1350   -0.9740   22.1260 N   0  0  0  0  0  0  0  0  0  0  0  0
    6.8040    0.3030   21.7060 C   0  0  1  0  0  0  0  0  0  0  0  0
    7.9290    1.3320   22.0150 C   0  0  0  0  0  0  0  0  0  0  0  0
    8.4470   -1.2040   22.6800 C   0  0  0  0  0  0  0  0  0  0  0  0
    6.0240   -1.7040   22.5520 C   0  0  0  0  0  0  0  0  0  0  0  0
    6.2510    0.5300   20.2850 C   0  0  0  0  0  0  0  0  0  0  0  0
    9.4630   -1.6580   21.8580 C   0  0  0  0  0  0  0  0  0  0  0  0
    8.8250   -1.0080   24.0020 C   0  0  0  0  0  0  0  0  0  0  0  0
    5.0130   -2.6720   22.6930 C   0  0  0  0  0  0  0  0  0  0  0  0
    6.5310   -2.4820   21.4830 N   0  0  0  0  0  0  0  0  0  0  0  0
    7.9500    1.8870   23.3460 N   0  0  0  0  0  0  0  0  0  0  0  0
    8.6740    1.5740   21.0620 O   0  0  0  0  0  0  0  0  0  0  0  0
    5.0060    1.4070   20.2190 C   0  0  0  0  0  0  0  0  0  0  0  0
    6.8480   -0.0160   19.1580 C   0  0  0  0  0  0  0  0  0  0  0  0
   10.7610   -1.8830   22.2860 C   0  0  0  0  0  0  0  0  0  0  0  0
   10.1150   -1.2180   24.4900 C   0  0  0  0  0  0  0  0  0  0  0  0
    5.9390   -3.6100   21.1120 C   0  0  0  0  0  0  0  0  0  0  0  0
    4.8940   -3.8260   21.8710 N   0  0  0  0  0  0  0  0  0  0  0  0
    9.0390    2.7230   23.4840 C   0  0  0  0  0  0  0  0  0  0  0  0
    6.3880   -4.4360   20.0520 C   0  0  0  0  0  0  0  0  0  0  0  0
    6.4290    0.1760   18.0740 N   0  0  0  0  0  0  0  0  0  0  0  0
    4.5580    1.5970   18.9210 C   0  0  0  0  0  0  0  0  0  0  0  0
   11.1130   -1.6580   23.6120 C   0  0  0  0  0  0  0  0  0  0  0  0
   12.4380   -1.8370   24.0980 C   0  0  0  0  0  0  0  0  0  0  0  0
    5.8820   -5.6140   19.9630 N   0  0  0  0  0  0  0  0  0  0  0  0
    5.3240    0.9540   17.9430 C   0  0  0  0  0  0  0  0  0  0  0  0
   12.7880   -0.6510   24.7240 C   0  0  0  0  0  0  0  0  0  0  0  0
   13.3830   -2.0890   22.9250 C   0  0  0  0  0  0  0  0  0  0  0  0
   12.7460   -2.9850   25.0520 C   0  0  0  0  0  0  0  0  0  0  0  0
  1  2  1  0
  2  3  1  6
  1  4  1  0
  1  5  1  0
  2  6  1  0
  4  7  2  0
  4  8  1  0
  5  9  2  0
  5 10  1  0
  3 11  1  0
  3 12  2  0
  6 13  2  0
  6 14  1  0
  7 15  1  0
  8 16  2  0
 10 17  2  0
  9 18  1  0
 17 18  1  0
 11 19  1  0
 17 20  1  0
 14 21  2  0
 13 22  1  0
 15 23  2  0
 16 23  1  0
 23 24  1  0
 20 25  2  3
 21 26  1  0
 22 26  2  0
 24 27  1  0
 24 28  1  0
 24 29  1  0
M  END
