x2119-x3117
     RDKit          3D

 34 37  0  0  0  0  0  0  0  0999 V2000
    7.2220   -0.8970   22.0290 N   0  0  0  0  0  0  0  0  0  0  0  0
    6.9140    0.4070   21.6960 C   0  0  1  0  0  0  0  0  0  0  0  0
    8.0760    1.3910   21.9850 C   0  0  0  0  0  0  0  0  0  0  0  0
    8.5020   -1.1680   22.5880 C   0  0  0  0  0  0  0  0  0  0  0  0
    6.1430   -1.6090   22.4280 C   0  0  0  0  0  0  0  0  0  0  0  0
    6.2720    0.6150   20.3590 C   0  0  0  0  0  0  0  0  0  0  0  0
    9.8010   -1.1560   21.7820 C   0  0  0  0  0  0  0  0  0  0  0  0
    8.6000   -1.4630   23.9590 C   0  0  0  0  0  0  0  0  0  0  0  0
    5.0780   -2.5410   22.6420 C   0  0  0  0  0  0  0  0  0  0  0  0
    6.6480   -2.3830   21.3890 N   0  0  0  0  0  0  0  0  0  0  0  0
    8.0560    2.0130   23.2790 N   0  0  0  0  0  0  0  0  0  0  0  0
    8.8630    1.5310   21.0570 O   0  0  0  0  0  0  0  0  0  0  0  0
    5.1150    1.4030   20.2180 C   0  0  0  0  0  0  0  0  0  0  0  0
    6.8240    0.0320   19.2110 C   0  0  0  0  0  0  0  0  0  0  0  0
   11.1090   -1.4570   22.5040 C   0  0  0  0  0  0  0  0  0  0  0  0
    9.8140   -1.7290   24.5770 C   0  0  0  0  0  0  0  0  0  0  0  0
    6.0150   -3.4980   21.0710 C   0  0  0  0  0  0  0  0  0  0  0  0
    4.9980   -3.6330   21.8550 N   0  0  0  0  0  0  0  0  0  0  0  0
    6.3900   -4.3980   20.0360 C   0  0  0  0  0  0  0  0  0  0  0  0
    6.3550    0.1590   17.9540 N   0  0  0  0  0  0  0  0  0  0  0  0
    4.6070    1.5480   18.9270 C   0  0  0  0  0  0  0  0  0  0  0  0
    8.6780    3.2730   23.6380 C   0  0  0  0  0  0  0  0  0  0  0  0
   10.9810   -1.7150   23.8570 C   0  0  0  0  0  0  0  0  0  0  0  0
   12.3240   -1.9760   24.4640 C   0  0  0  0  0  0  0  0  0  0  0  0
    5.8730   -5.5740   19.9820 N   0  0  0  0  0  0  0  0  0  0  0  0
    5.2580    0.9210   17.8780 C   0  0  0  0  0  0  0  0  0  0  0  0
   10.0590    3.1050   23.5680 C   0  0  0  0  0  0  0  0  0  0  0  0
    8.2150    4.3020   22.8180 C   0  0  0  0  0  0  0  0  0  0  0  0
   12.6850   -0.6220   25.0490 C   0  0  0  0  0  0  0  0  0  0  0  0
   13.3530   -2.3180   23.3670 C   0  0  0  0  0  0  0  0  0  0  0  0
   12.0870   -3.2690   25.2340 C   0  0  0  0  0  0  0  0  0  0  0  0
   10.7240    4.3240   23.6170 C   0  0  0  0  0  0  0  0  0  0  0  0
    8.8000    5.5410   23.1340 C   0  0  0  0  0  0  0  0  0  0  0  0
    9.9430    5.3920   23.9990 O   0  0  0  0  0  0  0  0  0  0  0  0
  1  2  1  0
  2  3  1  6
  1  4  1  0
  1  5  1  0
  2  6  1  0
  4  7  2  0
  4  8  1  0
  5  9  2  0
  5 10  1  0
  3 11  1  0
  3 12  2  0
  6 13  2  0
  6 14  1  0
  7 15  1  0
  8 16  2  0
 10 17  2  0
  9 18  1  0
 17 18  1  0
 17 19  1  0
 14 20  2  0
 13 21  1  0
 11 22  1  0
 15 23  2  0
 16 23  1  0
 23 24  1  0
 19 25  2  3
 20 26  1  0
 21 26  2  0
 22 27  1  0
 22 28  1  0
 24 29  1  0
 24 30  1  0
 24 31  1  0
 27 32  1  0
 28 33  1  0
 32 34  1  0
 33 34  1  0
M  END
