x2119-x3080
     RDKit          3D

 33 37  0  0  0  0  0  0  0  0999 V2000
    9.9130   -0.3550   23.3290 N   0  0  0  0  0  0  0  0  0  0  0  0
   10.7380    0.7350   23.5230 C   0  0  0  0  0  0  0  0  0  0  0  0
    9.7840   -0.9820   22.1170 C   0  0  0  0  0  0  0  0  0  0  0  0
    8.7430   -0.7460   24.5500 S   0  0  2  0  0  0  0  0  0  0  0  0
    7.1680   -0.7880   23.8990 N   0  0  0  0  0  0  0  0  0  0  0  0
    8.7010   -0.2980   21.3390 C   0  0  0  0  0  0  0  0  0  0  0  0
    8.8310    0.3450   25.5030 O   0  0  0  0  0  0  0  0  0  0  0  0
    9.3020   -2.2800   25.2140 C   0  0  0  0  0  0  0  0  0  0  0  0
    8.8120    0.9270   21.2430 O   0  0  0  0  0  0  0  0  0  0  0  0
    7.6410   -1.0200   20.7920 N   0  0  0  0  0  0  0  0  0  0  0  0
   10.7970   -2.4280   25.2730 C   0  0  0  0  0  0  0  0  0  0  0  0
    8.3960   -3.2560   25.6550 C   0  0  0  0  0  0  0  0  0  0  0  0
    6.8380   -1.8220   22.9210 C   0  0  0  0  0  0  0  0  0  0  0  0
    6.7790   -0.2340   19.9790 C   0  0  0  0  0  0  0  0  0  0  0  0
   11.6130   -1.4450   24.8220 N   0  0  0  0  0  0  0  0  0  0  0  0
   11.3010   -3.6060   25.8190 C   0  0  0  0  0  0  0  0  0  0  0  0
    8.8990   -4.4290   26.1820 C   0  0  0  0  0  0  0  0  0  0  0  0
    6.1740   -2.9450   23.3540 C   0  0  0  0  0  0  0  0  0  0  0  0
    7.0290   -1.9900   21.5860 N   0  0  0  0  0  0  0  0  0  0  0  0
    5.6960    0.5340   20.4820 C   0  0  0  0  0  0  0  0  0  0  0  0
    7.0220   -0.2130   18.6100 C   0  0  0  0  0  0  0  0  0  0  0  0
   12.6860   -3.7650   25.9230 C   0  0  0  0  0  0  0  0  0  0  0  0
   12.9370   -1.6170   24.9140 C   0  0  0  0  0  0  0  0  0  0  0  0
   10.3920   -4.5880   26.2590 C   0  0  0  0  0  0  0  0  0  0  0  0
    6.5180   -3.2690   21.2580 C   0  0  0  0  0  0  0  0  0  0  0  0
    5.9680   -3.8380   22.3440 N   0  0  0  0  0  0  0  0  0  0  0  0
    5.3100    0.6120   21.9280 C   0  0  0  0  0  0  0  0  0  0  0  0
    6.5430   -3.9590   19.9980 C   0  0  0  0  0  0  0  0  0  0  0  0
    6.3170    0.4810   17.6920 N   0  0  0  0  0  0  0  0  0  0  0  0
    4.9510    1.2630   19.5370 C   0  0  0  0  0  0  0  0  0  0  0  0
   13.5180   -2.7530   25.4620 C   0  0  0  0  0  0  0  0  0  0  0  0
    5.8540   -5.0530   20.0170 N   0  0  0  0  0  0  0  0  0  0  0  0
    5.2670    1.2270   18.1880 C   0  0  0  0  0  0  0  0  0  0  0  0
  1  2  1  0
  1  3  1  0
  1  4  1  0
  4  5  2  0
  3  6  1  0
  4  7  2  0
  4  8  1  1
  6  9  2  0
  6 10  1  0
  8 11  1  0
  8 12  2  0
  5 13  1  0
 10 14  1  0
 11 15  2  0
 11 16  1  0
 12 17  1  0
 13 18  2  0
 10 19  1  0
 13 19  1  0
 14 20  2  0
 14 21  1  0
 16 22  2  0
 15 23  1  0
 16 24  1  0
 17 24  2  0
 19 25  1  0
 18 26  1  0
 25 26  2  0
 20 27  1  0
 25 28  1  0
 21 29  2  0
 20 30  1  0
 22 31  1  0
 23 31  2  0
 28 32  2  3
 29 33  1  0
 30 33  2  0
M  END
