x2119-x3113
     RDKit          3D

 33 35  0  0  0  0  0  0  0  0999 V2000
    7.2020   -1.0850   22.1650 N   0  0  0  0  0  0  0  0  0  0  0  0
    6.8980    0.2290   21.8910 C   0  0  1  0  0  0  0  0  0  0  0  0
    8.0800    1.2410   22.0000 C   0  0  0  0  0  0  0  0  0  0  0  0
    8.4980   -1.3330   22.6440 C   0  0  0  0  0  0  0  0  0  0  0  0
    6.0910   -1.8060   22.5920 C   0  0  0  0  0  0  0  0  0  0  0  0
    6.3060    0.5840   20.5820 C   0  0  0  0  0  0  0  0  0  0  0  0
    9.4390   -1.7770   21.7370 C   0  0  0  0  0  0  0  0  0  0  0  0
    8.8520   -1.1360   23.9820 C   0  0  0  0  0  0  0  0  0  0  0  0
    5.0200   -2.7480   22.7790 C   0  0  0  0  0  0  0  0  0  0  0  0
    6.5910   -2.5030   21.4910 N   0  0  0  0  0  0  0  0  0  0  0  0
    8.3040    1.8260   23.2950 N   0  0  0  0  0  0  0  0  0  0  0  0
    8.6880    1.4440   20.9550 O   0  0  0  0  0  0  0  0  0  0  0  0
    5.1910    1.3910   20.2730 C   0  0  0  0  0  0  0  0  0  0  0  0
    6.9480    0.0400   19.4660 C   0  0  0  0  0  0  0  0  0  0  0  0
   10.8640   -2.0490   22.1080 C   0  0  0  0  0  0  0  0  0  0  0  0
   10.1350   -1.3480   24.4520 C   0  0  0  0  0  0  0  0  0  0  0  0
    5.9670   -3.5720   21.1230 C   0  0  0  0  0  0  0  0  0  0  0  0
    4.9500   -3.7600   21.9260 N   0  0  0  0  0  0  0  0  0  0  0  0
    9.2530    2.8140   23.1760 C   0  0  0  0  0  0  0  0  0  0  0  0
    6.3250   -4.4080   20.0280 C   0  0  0  0  0  0  0  0  0  0  0  0
    6.5770    0.2410   18.0630 N   0  0  0  0  0  0  0  0  0  0  0  0
    4.7550    1.6410   18.9650 C   0  0  0  0  0  0  0  0  0  0  0  0
   11.2990   -1.8280   23.5370 C   0  0  0  0  0  0  0  0  0  0  0  0
   10.6450    2.1530   23.2350 C   0  0  0  0  0  0  0  0  0  0  0  0
   12.6320   -1.9780   24.1250 C   0  0  0  0  0  0  0  0  0  0  0  0
    5.8430   -5.5870   20.0060 N   0  0  0  0  0  0  0  0  0  0  0  0
    5.4300    1.0850   17.8990 C   0  0  0  0  0  0  0  0  0  0  0  0
   11.6780    3.0750   23.3290 C   0  0  0  0  0  0  0  0  0  0  0  0
   13.5230   -2.1770   23.0890 C   0  0  0  0  0  0  0  0  0  0  0  0
   12.8470   -3.0760   25.1350 C   0  0  0  0  0  0  0  0  0  0  0  0
   12.8620   -0.6450   24.8080 C   0  0  0  0  0  0  0  0  0  0  0  0
   11.7910    3.7590   22.3350 O   0  0  0  0  0  0  0  0  0  0  0  0
   12.9610    4.5700   22.4480 C   0  0  0  0  0  0  0  0  0  0  0  0
  1  2  1  0
  2  3  1  6
  1  4  1  0
  1  5  1  0
  2  6  1  0
  4  7  2  0
  4  8  1  0
  5  9  2  0
  5 10  1  0
  3 11  1  0
  3 12  2  0
  6 13  2  0
  6 14  1  0
  7 15  1  0
  8 16  2  0
 10 17  2  0
  9 18  1  0
 17 18  1  0
 11 19  1  0
 17 20  1  0
 14 21  2  0
 13 22  1  0
 15 23  2  0
 16 23  1  0
 19 24  1  0
 23 25  1  0
 20 26  2  3
 21 27  1  0
 22 27  2  0
 24 28  1  0
 25 29  1  0
 25 30  1  0
 25 31  1  0
 28 32  1  0
 32 33  1  0
M  END
