x2119-x2562
     RDKit          3D

 29 32  0  0  0  0  0  0  0  0999 V2000
    8.5200   -0.1300   21.4510 C   0  0  0  0  0  0  0  0  0  0  0  0
    7.0650   -0.5750   21.1940 C   0  0  1  0  0  0  0  0  0  0  0  0
    6.3570    0.0800   20.0630 C   0  0  0  0  0  0  0  0  0  0  0  0
    8.6660    1.0610   21.1200 O   0  0  0  0  0  0  0  0  0  0  0  0
    9.4440   -0.9990   22.0030 N   0  0  0  0  0  0  0  0  0  0  0  0
   10.6110   -0.3790   22.3240 C   0  0  0  0  0  0  0  0  0  0  0  0
    6.5480   -1.8630   21.7020 N   0  0  0  0  0  0  0  0  0  0  0  0
    6.7980    0.0500   18.7590 C   0  0  0  0  0  0  0  0  0  0  0  0
    5.0720    0.8850   20.1960 C   0  0  0  0  0  0  0  0  0  0  0  0
   11.7870   -1.1300   22.2690 C   0  0  0  0  0  0  0  0  0  0  0  0
   10.6980    0.9720   22.6970 C   0  0  0  0  0  0  0  0  0  0  0  0
    6.3240   -3.1860   21.2510 C   0  0  0  0  0  0  0  0  0  0  0  0
    6.1220   -1.8290   23.0050 C   0  0  0  0  0  0  0  0  0  0  0  0
    6.4980   -3.9690   20.0470 C   0  0  0  0  0  0  0  0  0  0  0  0
    4.4640    1.5260   19.0350 N   0  0  0  0  0  0  0  0  0  0  0  0
    6.2590    0.6340   17.6560 N   0  0  0  0  0  0  0  0  0  0  0  0
   13.0200   -0.5800   22.5560 C   0  0  0  0  0  0  0  0  0  0  0  0
   11.9380    1.5390   22.9870 C   0  0  0  0  0  0  0  0  0  0  0  0
    5.7780   -3.9030   22.2400 N   0  0  0  0  0  0  0  0  0  0  0  0
    5.6620   -3.0750   23.2920 C   0  0  0  0  0  0  0  0  0  0  0  0
   12.0470    2.8680   23.3570 O   0  0  0  0  0  0  0  0  0  0  0  0
    5.8180   -5.0570   20.0230 N   0  0  0  0  0  0  0  0  0  0  0  0
    5.1380    1.3350   17.8620 C   0  0  0  0  0  0  0  0  0  0  0  0
   13.1010    0.7610   22.9090 C   0  0  0  0  0  0  0  0  0  0  0  0
   12.8520    3.8030   22.6120 C   0  0  1  0  0  0  0  0  0  0  0  0
   12.1390    4.8970   22.1530 N   0  0  0  0  0  0  0  0  0  0  0  0
   13.5470    4.8020   23.2720 C   0  0  0  0  0  0  0  0  0  0  0  0
   13.3590    5.7250   22.3030 C   0  0  2  0  0  0  0  0  0  0  0  0
   13.1930    7.0680   22.7400 O   0  0  0  0  0  0  0  0  0  0  0  0
  2  1  1  6
  2  3  1  0
  1  4  2  0
  1  5  1  0
  5  6  1  0
  2  7  1  0
  3  8  2  0
  3  9  1  0
  6 10  2  0
  6 11  1  0
  7 12  1  0
  7 13  1  0
 12 14  1  0
  9 15  2  0
  8 16  1  0
 10 17  1  0
 11 18  2  0
 12 19  2  0
 13 20  2  0
 19 20  1  0
 18 21  1  0
 14 22  2  3
 15 23  1  0
 16 23  2  0
 17 24  2  0
 18 24  1  0
 25 21  1  1
 25 26  1  0
 25 27  1  0
 26 28  1  0
 27 28  1  0
 28 29  1  1
M  END
