x2193-x1358-x2694
     RDKit          3D

 56 61  0  0  0  0  0  0  0  0999 V2000
    7.6870   -0.7160   21.5050 N   0  0  0  0  0  0  0  0  0  0  0  0
    7.1420    0.5330   21.4930 C   0  0  1  0  0  0  0  0  0  0  0  0
    8.1470    1.6040   21.7250 C   0  0  0  0  0  0  0  0  0  0  0  0
    6.6220   -1.7110   21.4560 C   0  0  0  0  0  0  0  0  0  0  0  0
    8.8160   -0.9850   22.3470 C   0  0  0  0  0  0  0  0  0  0  0  0
    6.4370    0.8090   20.2400 C   0  0  0  0  0  0  0  0  0  0  0  0
    8.8530   -1.2780   23.7140 N   0  0  0  0  0  0  0  0  0  0  0  0
   10.1120   -0.9970   21.9780 C   0  0  0  0  0  0  0  0  0  0  0  0
    7.1220   -3.0740   21.9680 C   0  0  2  0  0  0  0  0  0  0  0  0
    7.7940    2.5190   22.6850 N   0  0  0  0  0  0  0  0  0  0  0  0
    9.1710    1.6510   21.0890 O   0  0  0  0  0  0  0  0  0  0  0  0
    5.2310    1.6890   20.1290 C   0  0  0  0  0  0  0  0  0  0  0  0
    6.8930    0.2420   19.0650 C   0  0  0  0  0  0  0  0  0  0  0  0
   10.0690   -1.4350   24.0680 O   0  0  0  0  0  0  0  0  0  0  0  0
   10.9270   -1.2630   23.0350 C   0  0  0  0  0  0  0  0  0  0  0  0
    6.6680   -3.9890   21.3920 N   0  0  0  0  0  0  0  0  0  0  0  0
    6.8580   -3.1170   23.3230 C   0  0  0  0  0  0  0  0  0  0  0  0
   12.3460   -1.3350   23.1100 C   0  0  0  0  0  0  0  0  0  0  0  0
    6.3380   -3.8350   20.0670 C   0  0  0  0  0  0  0  0  0  0  0  0
    6.3340    0.4460   17.8630 N   0  0  0  0  0  0  0  0  0  0  0  0
    4.6390    1.9140   18.9230 C   0  0  0  0  0  0  0  0  0  0  0  0
    8.6210    3.6590   23.0220 C   0  0  0  0  0  0  0  0  0  0  0  0
    5.5720   -3.5140   23.6210 C   0  0  2  0  0  0  0  0  0  0  0  0
    6.1710   -5.0650   22.1470 C   0  0  0  0  0  0  0  0  0  0  0  0
   12.8470    0.0810   23.4260 C   0  0  0  0  0  0  0  0  0  0  0  0
   12.9520   -1.8000   21.8250 C   0  0  0  0  0  0  0  0  0  0  0  0
   12.8280   -2.2480   24.2810 C   0  0  0  0  0  0  0  0  0  0  0  0
    5.2370   -4.2370   19.7190 O   0  0  0  0  0  0  0  0  0  0  0  0
    5.2840   -3.3980   25.1590 C   0  0  0  0  0  0  0  0  0  0  0  0
    7.3650   -3.1900   19.1030 C   0  0  0  0  0  0  0  0  0  0  0  0
    5.1630    1.3200   17.7860 C   0  0  0  0  0  0  0  0  0  0  0  0
    9.8330    3.4090   23.6550 C   0  0  0  0  0  0  0  0  0  0  0  0
    8.2130    4.9480   22.7160 C   0  0  0  0  0  0  0  0  0  0  0  0
    5.4440   -4.7990   23.2570 C   0  0  0  0  0  0  0  0  0  0  0  0
   10.2380    2.1670   23.9590 C   0  0  0  0  0  0  0  0  0  0  0  0
    6.3350   -2.9860   26.0940 N   0  0  0  0  0  0  0  0  0  0  0  0
    4.1590   -3.6600   25.5520 O   0  0  0  0  0  0  0  0  0  0  0  0
   10.6460    4.4970   23.9790 C   0  0  0  0  0  0  0  0  0  0  0  0
    9.0290    6.0250   23.0520 C   0  0  0  0  0  0  0  0  0  0  0  0
   10.2530    5.8010   23.6900 C   0  0  0  0  0  0  0  0  0  0  0  0
    6.1710   -1.8700   26.9400 C   0  0  0  0  0  0  0  0  0  0  0  0
    7.6910   -3.4420   25.7730 C   0  0  0  0  0  0  0  0  0  0  0  0
   10.9830    6.9100   23.9890 O   0  0  0  0  0  0  0  0  0  0  0  0
    5.8780   -0.5540   26.5030 C   0  0  0  0  0  0  0  0  0  0  0  0
    6.2990   -2.0180   28.3150 C   0  0  0  0  0  0  0  0  0  0  0  0
    8.6020   -4.2210   26.7340 C   0  0  1  0  0  0  0  0  0  0  0  0
   11.8750    6.7850   25.0950 C   0  0  0  0  0  0  0  0  0  0  0  0
    5.7260   -0.3650   25.1050 O   0  0  0  0  0  0  0  0  0  0  0  0
    6.1590   -0.9220   29.1760 C   0  0  0  0  0  0  0  0  0  0  0  0
    5.7350    0.5530   27.3590 C   0  0  0  0  0  0  0  0  0  0  0  0
    8.3280   -5.5870   26.7900 C   0  0  0  0  0  0  0  0  0  0  0  0
    9.9130   -4.0180   26.0560 N   0  0  0  0  0  0  0  0  0  0  0  0
    5.8820    0.3710   28.7390 C   0  0  0  0  0  0  0  0  0  0  0  0
    9.2750   -6.1960   26.1360 N   0  0  0  0  0  0  0  0  0  0  0  0
    9.8810   -4.5440   24.6850 C   0  0  0  0  0  0  0  0  0  0  0  0
    9.2970   -5.7920   24.7290 C   0  0  0  0  0  0  0  0  0  0  0  0
  1  2  1  0
  2  3  1  6
  1  4  1  0
  1  5  1  0
  2  6  1  0
  5  7  2  0
  5  8  1  0
  9  4  1  6
  3 10  1  0
  3 11  2  0
  6 12  2  0
  6 13  1  0
  7 14  1  0
  8 15  2  0
 14 15  1  0
  9 16  1  0
  9 17  1  0
 15 18  1  0
 16 19  1  0
 13 20  2  0
 12 21  1  0
 10 22  1  0
 17 23  1  0
 16 24  1  0
 18 25  1  0
 18 26  1  0
 18 27  1  0
 19 28  2  0
 23 29  1  1
 19 30  1  0
 20 31  1  0
 21 31  2  0
 22 32  2  0
 22 33  1  0
 23 34  1  0
 24 34  1  0
 32 35  1  0
 29 36  1  0
 29 37  2  0
 32 38  1  0
 33 39  2  0
 38 40  2  0
 39 40  1  0
 36 41  1  0
 36 42  1  0
 40 43  1  0
 41 44  2  0
 41 45  1  0
 46 42  1  6
 43 47  1  0
 44 48  1  0
 45 49  2  0
 44 50  1  0
 46 51  1  0
 46 52  1  0
 49 53  1  0
 50 53  2  0
 51 54  1  0
 52 55  1  0
 54 56  1  0
 55 56  1  0
M  END
