x2193-x3110-x0786-x3124
     RDKit          3D

 53 57  0  0  0  0  0  0  0  0999 V2000
    7.5180    1.0830   23.1790 N   0  0  0  0  0  0  0  0  0  0  0  0
    8.1820    2.1640   23.9220 C   0  0  0  0  0  0  0  0  0  0  0  0
    9.7260    2.1620   23.8170 C   0  0  0  0  0  0  0  0  0  0  0  0
    7.5110    0.7760   21.7360 C   0  0  0  0  0  0  0  0  0  0  0  0
    8.2850    1.3880   20.9630 O   0  0  0  0  0  0  0  0  0  0  0  0
    6.5160   -0.2580   21.3430 C   0  0  2  0  0  0  0  0  0  0  0  0
    6.8680   -1.7890   21.3010 N   0  0  0  0  0  0  0  0  0  0  0  0
   10.5610    3.4350   23.7080 C   0  0  0  0  0  0  0  0  0  0  0  0
    5.9020    0.2930   20.0450 C   0  0  0  0  0  0  0  0  0  0  0  0
   11.5530    3.2630   22.9540 O   0  0  0  0  0  0  0  0  0  0  0  0
   10.2660    4.4720   24.3040 O   0  0  0  0  0  0  0  0  0  0  0  0
    5.8030   -2.6240   20.5820 C   0  0  0  0  0  0  0  0  0  0  0  0
    4.4820    0.9620   19.9790 C   0  0  0  0  0  0  0  0  0  0  0  0
    6.5890    0.2430   18.7920 C   0  0  0  0  0  0  0  0  0  0  0  0
    8.1310   -1.9690   22.0600 C   0  0  0  0  0  0  0  0  0  0  0  0
   11.7760    4.1500   21.9110 C   0  0  0  0  0  0  0  0  0  0  0  0
    4.9290   -3.3090   19.9920 O   0  0  0  0  0  0  0  0  0  0  0  0
    6.1360   -4.1450   21.2050 C   0  0  1  0  0  0  0  0  0  0  0  0
    6.1670    0.7150   17.5870 N   0  0  0  0  0  0  0  0  0  0  0  0
    3.9850    1.4800   18.7400 C   0  0  0  0  0  0  0  0  0  0  0  0
    9.2790   -1.8090   21.2420 C   0  0  0  0  0  0  0  0  0  0  0  0
    7.9340   -2.2760   23.6140 C   0  0  0  0  0  0  0  0  0  0  0  0
   13.2250    4.6490   21.9560 C   0  0  0  0  0  0  0  0  0  0  0  0
    7.5630   -4.8430   21.1140 C   0  0  0  0  0  0  0  0  0  0  0  0
    4.8480    1.3670   17.4900 C   0  0  0  0  0  0  0  0  0  0  0  0
   10.5590   -1.8640   21.6600 C   0  0  0  0  0  0  0  0  0  0  0  0
    9.5640   -2.2870   23.9400 C   0  0  0  0  0  0  0  0  0  0  0  0
    5.1570   -4.3880   22.4330 C   0  0  0  0  0  0  0  0  0  0  0  0
    7.7370   -2.5830   25.1740 C   0  0  0  0  0  0  0  0  0  0  0  0
   10.7740   -2.1070   23.1420 C   0  0  0  0  0  0  0  0  0  0  0  0
    4.7510   -5.7480   22.7520 C   0  0  0  0  0  0  0  0  0  0  0  0
    4.6360   -3.2930   23.2530 C   0  0  0  0  0  0  0  0  0  0  0  0
    7.9950   -3.8150   25.8320 N   0  0  0  0  0  0  0  0  0  0  0  0
   12.2140   -2.1720   23.8060 C   0  0  0  0  0  0  0  0  0  0  0  0
    3.8690   -6.1210   23.8000 C   0  0  0  0  0  0  0  0  0  0  0  0
    3.6850   -3.5640   24.4100 C   0  0  0  0  0  0  0  0  0  0  0  0
    8.4350   -3.7160   27.1260 C   0  0  0  0  0  0  0  0  0  0  0  0
    8.2470   -5.1150   25.0880 C   0  0  0  0  0  0  0  0  0  0  0  0
   12.5770   -0.7150   24.4340 C   0  0  0  0  0  0  0  0  0  0  0  0
   13.4200   -1.8700   22.8410 C   0  0  0  0  0  0  0  0  0  0  0  0
   12.4730   -3.2610   24.6500 C   0  0  0  0  0  0  0  0  0  0  0  0
    3.4980   -7.5370   24.0400 C   0  0  0  0  0  0  0  0  0  0  0  0
    3.3010   -5.0050   24.6750 C   0  0  0  0  0  0  0  0  0  0  0  0
    8.8440   -4.9640   27.9390 C   0  0  0  0  0  0  0  0  0  0  0  0
    8.9180   -6.2810   25.8800 C   0  0  0  0  0  0  0  0  0  0  0  0
    4.3970   -8.2080   24.6940 O   0  0  0  0  0  0  0  0  0  0  0  0
    2.1750   -8.1270   23.5980 N   0  0  0  0  0  0  0  0  0  0  0  0
    9.6090   -5.9200   27.1390 N   0  0  0  0  0  0  0  0  0  0  0  0
    1.5250   -7.6780   22.3360 C   0  0  0  0  0  0  0  0  0  0  0  0
    1.3090   -8.9460   24.5080 C   0  0  0  0  0  0  0  0  0  0  0  0
    0.4200   -6.8310   22.5840 C   0  0  0  0  0  0  0  0  0  0  0  0
    0.0450   -8.1290   24.8770 C   0  0  0  0  0  0  0  0  0  0  0  0
   -0.8640   -7.3910   23.6900 S   0  0  0  0  0  0  0  0  0  0  0  0
  1  2  1  0
  2  3  1  0
  1  4  1  0
  4  5  2  0
  6  4  1  6
  6  7  1  0
  3  8  1  0
  6  9  1  0
  8 10  1  0
  8 11  2  0
  7 12  1  0
  9 13  2  0
  9 14  1  0
  7 15  1  0
 10 16  1  0
 12 17  2  0
 12 18  1  0
 14 19  2  0
 13 20  1  0
 15 21  2  0
 15 22  1  0
 16 23  1  0
 18 24  1  1
 19 25  1  0
 20 25  2  0
 21 26  1  0
 22 27  2  0
 18 28  1  0
 22 29  1  0
 26 30  2  0
 27 30  1  0
 28 31  2  0
 28 32  1  0
 29 33  1  0
 30 34  1  0
 31 35  1  0
 32 36  2  0
 33 37  1  0
 33 38  1  0
 34 39  1  0
 34 40  1  0
 34 41  1  0
 35 42  1  0
 35 43  2  0
 36 43  1  0
 37 44  1  0
 38 45  1  0
 42 46  2  0
 42 47  1  0
 44 48  1  0
 45 48  1  0
 47 49  1  0
 47 50  1  0
 49 51  1  0
 50 52  1  0
 51 53  1  0
 52 53  1  0
M  END
