x2193-x3110-x3113-x0769
     RDKit          3D

 55 59  0  0  0  0  0  0  0  0999 V2000
    7.9040    1.2320   23.2930 N   0  0  0  0  0  0  0  0  0  0  0  0
    8.7520    2.3800   23.6530 C   0  0  0  0  0  0  0  0  0  0  0  0
   10.2580    2.1080   23.5820 C   0  0  0  0  0  0  0  0  0  0  0  0
    7.7040    0.8580   21.9690 C   0  0  0  0  0  0  0  0  0  0  0  0
    8.5280    1.4100   21.0180 O   0  0  0  0  0  0  0  0  0  0  0  0
    6.5060   -0.1380   21.6490 C   0  0  2  0  0  0  0  0  0  0  0  0
    6.8900   -1.5670   21.9840 N   0  0  0  0  0  0  0  0  0  0  0  0
   11.0770    3.3660   23.4540 C   0  0  0  0  0  0  0  0  0  0  0  0
    6.0620    0.2850   20.2640 C   0  0  0  0  0  0  0  0  0  0  0  0
   12.0170    3.2720   22.4850 O   0  0  0  0  0  0  0  0  0  0  0  0
   10.9020    4.3620   24.1490 O   0  0  0  0  0  0  0  0  0  0  0  0
    6.1900   -2.7700   21.4500 C   0  0  0  0  0  0  0  0  0  0  0  0
    4.9030    1.0450   20.1310 C   0  0  0  0  0  0  0  0  0  0  0  0
    6.8120   -0.0510   19.1340 C   0  0  0  0  0  0  0  0  0  0  0  0
    8.2220   -1.6020   22.5850 C   0  0  0  0  0  0  0  0  0  0  0  0
   12.3410    4.4740   21.9410 C   0  0  0  0  0  0  0  0  0  0  0  0
    4.8910   -3.1010   21.2590 O   0  0  0  0  0  0  0  0  0  0  0  0
    7.1480   -3.7730   21.0760 C   0  0  2  0  0  0  0  0  0  0  0  0
    6.4390    0.3560   17.9000 N   0  0  0  0  0  0  0  0  0  0  0  0
    4.4460    1.5040   18.9220 C   0  0  0  0  0  0  0  0  0  0  0  0
    9.3130   -1.8190   21.7840 C   0  0  0  0  0  0  0  0  0  0  0  0
    8.5330   -1.4180   23.9390 C   0  0  0  0  0  0  0  0  0  0  0  0
   13.3720    5.1410   22.8190 C   0  0  0  0  0  0  0  0  0  0  0  0
    7.3210   -3.4820   19.6000 C   0  0  0  0  0  0  0  0  0  0  0  0
    5.1920    1.1780   17.8240 C   0  0  0  0  0  0  0  0  0  0  0  0
   10.6310   -1.8500   22.2490 C   0  0  0  0  0  0  0  0  0  0  0  0
    9.8290   -1.4370   24.4560 C   0  0  0  0  0  0  0  0  0  0  0  0
    6.8210   -5.1430   21.5700 N   0  0  0  0  0  0  0  0  0  0  0  0
   10.9310   -1.6540   23.6130 C   0  0  0  0  0  0  0  0  0  0  0  0
    5.4570   -5.6490   21.5970 C   0  0  0  0  0  0  0  0  0  0  0  0
    7.4610   -5.4180   22.8300 C   0  0  0  0  0  0  0  0  0  0  0  0
   12.3340   -1.6520   24.2080 C   0  0  0  0  0  0  0  0  0  0  0  0
    4.6900   -5.5110   22.9960 C   0  0  0  0  0  0  0  0  0  0  0  0
    6.7400   -4.5600   23.8880 C   0  0  0  0  0  0  0  0  0  0  0  0
   12.5160   -0.4480   24.8620 C   0  0  0  0  0  0  0  0  0  0  0  0
   13.3010   -1.9290   23.1080 C   0  0  0  0  0  0  0  0  0  0  0  0
   12.5080   -2.7650   25.0410 C   0  0  0  0  0  0  0  0  0  0  0  0
    5.4980   -5.3070   24.2220 N   0  0  0  0  0  0  0  0  0  0  0  0
    4.8020   -5.1350   25.7550 S   0  0  2  0  0  0  0  0  0  0  0  0
    6.0330   -4.7540   26.8720 N   0  0  0  0  0  0  0  0  0  0  0  0
    4.1560   -6.3950   26.0560 O   0  0  0  0  0  0  0  0  0  0  0  0
    3.5320   -3.8790   25.8180 C   0  0  0  0  0  0  0  0  0  0  0  0
    6.9850   -5.7940   27.3080 C   0  0  0  0  0  0  0  0  0  0  0  0
    4.1130   -2.6080   26.0540 C   0  0  0  0  0  0  0  0  0  0  0  0
    2.0970   -3.9850   25.6720 C   0  0  0  0  0  0  0  0  0  0  0  0
    5.4320   -2.4440   26.2000 F   0  0  0  0  0  0  0  0  0  0  0  0
    8.5020   -5.4460   27.1040 C   0  0  1  0  0  0  0  0  0  0  0  0
    1.3910   -2.8310   25.7750 C   0  0  0  0  0  0  0  0  0  0  0  0
    3.3160   -1.4780   26.1440 C   0  0  0  0  0  0  0  0  0  0  0  0
    9.1590   -6.3290   26.3380 N   0  0  0  0  0  0  0  0  0  0  0  0
    8.7690   -4.1210   26.7450 C   0  0  0  0  0  0  0  0  0  0  0  0
    2.0130   -1.6680   26.0000 C   0  0  0  0  0  0  0  0  0  0  0  0
    9.1010   -3.6660   25.5110 N   0  0  0  0  0  0  0  0  0  0  0  0
    9.3080   -5.8800   24.9550 C   0  0  0  0  0  0  0  0  0  0  0  0
    9.8900   -4.6430   24.7690 C   0  0  0  0  0  0  0  0  0  0  0  0
  1  2  1  0
  2  3  1  0
  1  4  1  0
  4  5  2  0
  6  4  1  6
  6  7  1  0
  3  8  1  0
  6  9  1  0
  8 10  1  0
  8 11  2  0
  7 12  1  0
  9 13  2  0
  9 14  1  0
  7 15  1  0
 10 16  1  0
 12 17  2  0
 12 18  1  0
 14 19  2  0
 13 20  1  0
 15 21  2  0
 15 22  1  0
 16 23  1  0
 18 24  1  6
 19 25  1  0
 20 25  2  0
 21 26  1  0
 22 27  2  0
 18 28  1  0
 26 29  2  0
 27 29  1  0
 28 30  1  0
 28 31  1  0
 29 32  1  0
 30 33  1  0
 31 34  1  0
 32 35  1  0
 32 36  1  0
 32 37  1  0
 33 38  1  0
 34 38  1  0
 38 39  1  0
 39 40  2  0
 39 41  2  0
 39 42  1  6
 40 43  1  0
 42 44  2  0
 42 45  1  0
 44 46  1  0
 47 43  1  6
 45 48  2  0
 44 49  1  0
 47 50  1  0
 47 51  1  0
 48 52  1  0
 49 52  2  0
 51 53  1  0
 50 54  1  0
 53 55  1  0
 54 55  1  0
M  END
