x2193-x3113-x0689-x2929
     RDKit          3D

 79 86  0  0  0  0  0  0  0  0999 V2000
    6.9800   -1.5190   21.7880 N   0  0  0  0  0  0  0  0  0  0  0  0
    6.0830   -2.7060   21.5380 C   0  0  0  0  0  0  0  0  0  0  0  0
    4.8620   -2.9570   20.9900 O   0  0  0  0  0  0  0  0  0  0  0  0
    6.7860   -0.0310   21.4850 C   0  0  1  0  0  0  0  0  0  0  0  0
    8.2940   -1.6350   22.4100 C   0  0  0  0  0  0  0  0  0  0  0  0
    6.7570   -3.9110   22.0980 C   0  0  0  0  0  0  0  0  0  0  0  0
    8.0090    0.9520   21.8100 C   0  0  0  0  0  0  0  0  0  0  0  0
    6.3180    0.2840   20.0810 C   0  0  0  0  0  0  0  0  0  0  0  0
    9.3720   -2.0590   21.6590 C   0  0  0  0  0  0  0  0  0  0  0  0
    8.5830   -1.3210   23.7500 C   0  0  0  0  0  0  0  0  0  0  0  0
    6.9870   -5.0130   21.1020 C   0  0  0  0  0  0  0  0  0  0  0  0
    8.2100    1.4720   23.0930 N   0  0  0  0  0  0  0  0  0  0  0  0
    8.7490    1.2710   20.9050 O   0  0  0  0  0  0  0  0  0  0  0  0
    5.2600    1.1710   19.9200 C   0  0  0  0  0  0  0  0  0  0  0  0
    6.9460   -0.2900   18.8700 C   0  0  0  0  0  0  0  0  0  0  0  0
   10.6480   -2.1370   22.1930 C   0  0  0  0  0  0  0  0  0  0  0  0
    9.9120   -1.4110   24.2840 C   0  0  0  0  0  0  0  0  0  0  0  0
    9.1670    2.5990   23.1760 C   0  0  0  0  0  0  0  0  0  0  0  0
    6.5010    0.0410   17.5300 N   0  0  0  0  0  0  0  0  0  0  0  0
    4.8040    1.5140   18.6370 C   0  0  0  0  0  0  0  0  0  0  0  0
   10.9980   -1.8210   23.4940 C   0  0  0  0  0  0  0  0  0  0  0  0
    5.8540   -5.9520   21.0740 N   0  0  0  0  0  0  0  0  0  0  0  0
   10.5850    2.1180   23.5940 C   0  0  0  0  0  0  0  0  0  0  0  0
   12.4570   -1.8920   24.0310 C   0  0  0  0  0  0  0  0  0  0  0  0
    5.3750    0.9910   17.4480 C   0  0  0  0  0  0  0  0  0  0  0  0
    4.4870   -5.4570   21.0200 C   0  0  0  0  0  0  0  0  0  0  0  0
    5.9260   -6.9190   21.9510 C   0  0  0  0  0  0  0  0  0  0  0  0
   11.7160    2.7700   23.0050 C   0  0  0  0  0  0  0  0  0  0  0  0
   13.3350   -1.8590   22.9170 C   0  0  0  0  0  0  0  0  0  0  0  0
   12.5620   -2.9070   24.9070 C   0  0  0  0  0  0  0  0  0  0  0  0
   12.5940   -0.7570   24.8590 C   0  0  0  0  0  0  0  0  0  0  0  0
    3.9220   -4.9950   22.2150 C   0  0  0  0  0  0  0  0  0  0  0  0
    5.1500   -6.7870   23.3090 C   0  0  0  0  0  0  0  0  0  0  0  0
   11.7250    4.2140   23.0020 O   0  0  0  0  0  0  0  0  0  0  0  0
    4.0240   -5.8680   23.3800 N   0  0  0  0  0  0  0  0  0  0  0  0
   12.8270    4.8170   22.2420 C   0  0  0  0  0  0  0  0  0  0  0  0
    3.7690   -5.0890   24.8510 S   0  0  2  0  0  0  0  0  0  0  0  0
   14.1470    4.2960   22.7690 C   0  0  0  0  0  0  0  0  0  0  0  0
    4.8140   -4.1900   24.7500 O   0  0  0  0  0  0  0  0  0  0  0  0
    3.9100   -5.9710   26.2830 N   0  0  0  0  0  0  0  0  0  0  0  0
    2.5960   -3.8220   25.1240 C   0  0  0  0  0  0  0  0  0  0  0  0
   15.3460    4.8530   22.2360 C   0  0  0  0  0  0  0  0  0  0  0  0
    4.9900   -6.9950   26.4440 C   0  0  0  0  0  0  0  0  0  0  0  0
    3.2520   -2.3560   25.7620 S   0  0  0  0  0  0  0  0  0  0  0  0
    1.2450   -3.7190   24.9440 C   0  0  0  0  0  0  0  0  0  0  0  0
   16.6970    4.3970   22.5900 C   0  0  0  0  0  0  0  0  0  0  0  0
    6.3700   -6.3160   26.6220 C   0  0  1  0  0  0  0  0  0  0  0  0
    0.7550   -2.4890   25.3070 C   0  0  0  0  0  0  0  0  0  0  0  0
    1.7180   -1.6040   25.7820 C   0  0  0  0  0  0  0  0  0  0  0  0
   17.4890    5.0440   23.5930 C   0  0  0  0  0  0  0  0  0  0  0  0
    7.3840   -7.1940   25.9840 N   0  0  0  0  0  0  0  0  0  0  0  0
    6.2150   -4.8130   26.2780 C   0  0  0  0  0  0  0  0  0  0  0  0
   18.7410    5.8440   23.4160 C   0  0  0  0  0  0  0  0  0  0  0  0
    6.6860   -4.5110   24.8510 N   0  0  0  0  0  0  0  0  0  0  0  0
    7.7780   -6.8020   24.7080 C   0  0  0  0  0  0  0  0  0  0  0  0
   19.7340    5.7270   24.4040 C   0  0  0  0  0  0  0  0  0  0  0  0
    7.5710   -5.5160   24.1170 C   0  0  0  0  0  0  0  0  0  0  0  0
   21.0670    5.8050   24.0220 C   0  0  0  0  0  0  0  0  0  0  0  0
   21.9190    4.9180   24.8450 N   0  0  0  0  0  0  0  0  0  0  0  0
   23.3110    4.5450   24.4850 C   0  0  0  0  0  0  0  0  0  0  0  0
   23.7110    5.1330   23.3460 N   0  0  0  0  0  0  0  0  0  0  0  0
   24.2570    3.5680   25.2060 C   0  0  2  0  0  0  0  0  0  0  0  0
   23.8150    2.3200   24.8100 C   0  0  0  0  0  0  0  0  0  0  0  0
   24.3470    3.6060   26.5650 C   0  0  1  0  0  0  0  0  0  0  0  0
   23.9800    1.5090   26.0050 N   0  0  0  0  0  0  0  0  0  0  0  0
   24.8640    2.3230   26.8280 C   0  0  0  0  0  0  0  0  0  0  0  0
   25.1760    4.6690   27.2470 C   0  0  0  0  0  0  0  0  0  0  0  0
   24.3590    0.1340   25.6850 C   0  0  0  0  0  0  0  0  0  0  0  0
   25.1790    4.6870   28.6520 C   0  0  0  0  0  0  0  0  0  0  0  0
   25.9000    5.5830   26.4910 C   0  0  0  0  0  0  0  0  0  0  0  0
   23.1610   -0.5720   25.1320 C   0  0  0  0  0  0  0  0  0  0  0  0
   25.9760    5.7100   29.4320 C   0  0  0  0  0  0  0  0  0  0  0  0
   26.6880    6.5920   27.0560 C   0  0  0  0  0  0  0  0  0  0  0  0
   22.1310   -1.0140   25.9550 C   0  0  0  0  0  0  0  0  0  0  0  0
   22.9140   -0.8760   23.6270 C   0  0  0  0  0  0  0  0  0  0  0  0
   26.7900    6.7350   28.5880 C   0  0  0  0  0  0  0  0  0  0  0  0
   21.0100   -1.6430   25.5160 N   0  0  0  0  0  0  0  0  0  0  0  0
   21.8190   -1.5000   23.1350 C   0  0  0  0  0  0  0  0  0  0  0  0
   20.8750   -1.8790   24.0570 C   0  0  0  0  0  0  0  0  0  0  0  0
  1  2  1  0
  2  3  2  0
  1  4  1  0
  1  5  1  0
  2  6  1  0
  4  7  1  6
  4  8  1  0
  5  9  2  0
  5 10  1  0
  6 11  1  0
  7 12  1  0
  7 13  2  0
  8 14  2  0
  8 15  1  0
  9 16  1  0
 10 17  2  0
 12 18  1  0
 15 19  2  0
 14 20  1  0
 16 21  2  0
 17 21  1  0
 11 22  1  0
 18 23  1  0
 21 24  1  0
 19 25  1  0
 20 25  2  0
 22 26  1  0
 22 27  1  0
 23 28  1  0
 24 29  1  0
 24 30  1  0
 24 31  1  0
 26 32  1  0
 27 33  1  0
 28 34  1  0
 32 35  1  0
 33 35  1  0
 34 36  1  0
 35 37  1  0
 36 38  1  0
 37 39  2  0
 37 40  2  0
 37 41  1  6
 38 42  1  0
 40 43  1  0
 41 44  1  0
 41 45  2  0
 42 46  1  0
 47 43  1  6
 45 48  1  0
 44 49  1  0
 48 49  2  0
 46 50  1  0
 47 51  1  0
 47 52  1  0
 50 53  1  0
 52 54  1  0
 51 55  1  0
 53 56  1  0
 54 57  1  0
 55 57  1  0
 56 58  1  0
 58 59  1  0
 59 60  2  3
 60 61  1  0
 62 60  1  1
 62 63  1  0
 62 64  1  0
 63 65  1  0
 64 66  1  0
 65 66  1  0
 64 67  1  6
 65 68  1  0
 67 69  2  0
 67 70  1  0
 68 71  1  0
 69 72  1  0
 70 73  2  0
 71 74  2  0
 71 75  1  0
 72 76  2  0
 73 76  1  0
 74 77  1  0
 75 78  2  0
 77 79  2  0
 78 79  1  0
M  END
