x2193-x3117
     RDKit          3D

 39 43  0  0  0  0  0  0  0  0999 V2000
    6.5160   -1.5340   21.8840 N   0  0  0  0  0  0  0  0  0  0  0  0
    5.7450   -2.7190   21.4200 C   0  0  0  0  0  0  0  0  0  0  0  0
    4.4980   -2.8990   21.6020 O   0  0  0  0  0  0  0  0  0  0  0  0
    5.8870   -0.1150   21.7360 C   0  0  1  0  0  0  0  0  0  0  0  0
    7.9240   -1.6770   22.4210 C   0  0  0  0  0  0  0  0  0  0  0  0
    6.3910   -3.8760   20.6810 C   0  0  0  0  0  0  0  0  0  0  0  0
    6.4010    1.0870   22.7060 C   0  0  1  0  0  0  0  0  0  0  0  0
    5.4920    0.3770   20.2800 C   0  0  0  0  0  0  0  0  0  0  0  0
    8.9030   -1.4900   21.4510 C   0  0  0  0  0  0  0  0  0  0  0  0
    8.0010   -1.9640   23.8600 C   0  0  0  0  0  0  0  0  0  0  0  0
    7.0060   -3.4620   19.3370 C   0  0  0  0  0  0  0  0  0  0  0  0
    5.5620    2.3550   22.4950 N   0  0  0  0  0  0  0  0  0  0  0  0
    6.4910    0.7760   23.9020 O   0  0  0  0  0  0  0  0  0  0  0  0
    7.7410    1.6400   22.4100 C   0  0  0  0  0  0  0  0  0  0  0  0
    4.1770    0.8350   19.9450 C   0  0  0  0  0  0  0  0  0  0  0  0
    6.4010    0.3950   19.2570 C   0  0  0  0  0  0  0  0  0  0  0  0
   10.3390   -1.5140   21.7020 C   0  0  0  0  0  0  0  0  0  0  0  0
    9.6920   -1.9410   23.9770 C   0  0  0  0  0  0  0  0  0  0  0  0
    8.0840   -2.2740   25.4130 C   0  0  0  0  0  0  0  0  0  0  0  0
    6.1030    0.8440   17.8730 N   0  0  0  0  0  0  0  0  0  0  0  0
    3.8800    1.2790   18.6340 C   0  0  0  0  0  0  0  0  0  0  0  0
    7.5870    3.1350   22.0550 C   0  0  1  0  0  0  0  0  0  0  0  0
    6.4310    3.5230   22.6730 C   0  0  1  0  0  0  0  0  0  0  0  0
   10.7740   -1.7400   23.0410 C   0  0  0  0  0  0  0  0  0  0  0  0
    8.2300   -3.6940   25.9530 N   0  0  0  0  0  0  0  0  0  0  0  0
   12.3220   -1.7630   23.4870 C   0  0  0  0  0  0  0  0  0  0  0  0
    4.8380    1.2910   17.5870 C   0  0  0  0  0  0  0  0  0  0  0  0
    8.6710    4.0580   22.3700 O   0  0  0  0  0  0  0  0  0  0  0  0
    5.9490    4.7960   22.2280 C   0  0  0  0  0  0  0  0  0  0  0  0
    8.2660   -3.8150   27.4640 C   0  0  0  0  0  0  0  0  0  0  0  0
    9.1100   -4.7370   25.2890 C   0  0  0  0  0  0  0  0  0  0  0  0
   12.6120   -0.5210   24.3800 C   0  0  0  0  0  0  0  0  0  0  0  0
   13.3060   -1.7040   22.2410 C   0  0  0  0  0  0  0  0  0  0  0  0
   12.6880   -3.0150   24.3570 C   0  0  0  0  0  0  0  0  0  0  0  0
    6.9410    5.7890   21.8090 C   0  0  0  0  0  0  0  0  0  0  0  0
    8.2790    5.4910   22.3030 C   0  0  0  0  0  0  0  0  0  0  0  0
    7.9310   -5.0700   27.9030 C   0  0  0  0  0  0  0  0  0  0  0  0
    8.9070   -6.0490   25.7450 C   0  0  0  0  0  0  0  0  0  0  0  0
    8.6540   -6.1740   27.1920 N   0  0  0  0  0  0  0  0  0  0  0  0
  1  2  1  0
  2  3  2  0
  4  1  1  6
  1  5  1  0
  2  6  1  0
  4  7  1  0
  4  8  1  0
  5  9  2  0
  5 10  1  0
  6 11  1  0
  7 12  1  0
  7 13  1  1
  7 14  1  0
  8 15  2  0
  8 16  1  0
  9 17  1  0
 10 18  2  0
 10 19  1  0
 16 20  2  0
 15 21  1  0
 22 14  1  1
 12 23  1  0
 22 23  1  0
 17 24  2  0
 18 24  1  0
 19 25  1  0
 24 26  1  0
 20 27  1  0
 21 27  2  0
 22 28  1  0
 23 29  1  6
 25 30  1  0
 25 31  1  0
 26 32  1  0
 26 33  1  0
 26 34  1  0
 29 35  1  0
 28 36  1  0
 35 36  1  0
 30 37  1  0
 31 38  1  0
 37 39  1  0
 38 39  1  0
M  END
