x2193-x3110-x0689-x3115
     RDKit          3D

 56 60  0  0  0  0  0  0  0  0999 V2000
    7.7710    1.3400   23.2970 N   0  0  0  0  0  0  0  0  0  0  0  0
    8.6330    2.5530   23.5170 C   0  0  1  0  0  0  0  0  0  0  0  0
   10.1480    2.1610   23.5140 C   0  0  0  0  0  0  0  0  0  0  0  0
    7.7360    0.6900   21.9870 C   0  0  0  0  0  0  0  0  0  0  0  0
    8.6020    0.9380   21.1530 O   0  0  0  0  0  0  0  0  0  0  0  0
    6.5340   -0.2710   21.6590 C   0  0  2  0  0  0  0  0  0  0  0  0
    8.3440    3.7060   22.5690 C   0  0  0  0  0  0  0  0  0  0  0  0
    6.8640   -1.5960   21.7370 N   0  0  0  0  0  0  0  0  0  0  0  0
   11.0560    3.2600   23.3830 C   0  0  0  0  0  0  0  0  0  0  0  0
    8.5020    4.8000   23.1390 O   0  0  0  0  0  0  0  0  0  0  0  0
    6.1080    0.2370   20.4720 C   0  0  0  0  0  0  0  0  0  0  0  0
   11.9200    3.1760   22.5140 O   0  0  0  0  0  0  0  0  0  0  0  0
   10.8560    4.1820   24.1790 O   0  0  0  0  0  0  0  0  0  0  0  0
    6.0700   -2.7770   21.2900 C   0  0  0  0  0  0  0  0  0  0  0  0
    8.1940    5.9110   22.3000 C   0  0  0  0  0  0  0  0  0  0  0  0
    4.9170    1.1620   20.1630 C   0  0  0  0  0  0  0  0  0  0  0  0
    6.6170    0.1230   19.1180 C   0  0  0  0  0  0  0  0  0  0  0  0
    8.2290   -1.7260   22.3900 C   0  0  0  0  0  0  0  0  0  0  0  0
   12.2740    4.4490   21.9460 C   0  0  0  0  0  0  0  0  0  0  0  0
    4.7870   -2.9940   21.2650 O   0  0  0  0  0  0  0  0  0  0  0  0
    6.7900   -4.0210   20.7550 C   0  0  1  0  0  0  0  0  0  0  0  0
    6.2920    0.6240   17.7700 N   0  0  0  0  0  0  0  0  0  0  0  0
    4.4860    1.7330   18.8700 C   0  0  0  0  0  0  0  0  0  0  0  0
    9.3350   -1.5030   21.6650 C   0  0  0  0  0  0  0  0  0  0  0  0
    8.5110   -2.0480   23.7330 C   0  0  0  0  0  0  0  0  0  0  0  0
   13.3820    5.1400   22.8370 C   0  0  0  0  0  0  0  0  0  0  0  0
    8.1920   -3.5900   20.3060 C   0  0  0  0  0  0  0  0  0  0  0  0
    5.2290    1.4360   17.6610 C   0  0  0  0  0  0  0  0  0  0  0  0
   10.8260   -1.5260   21.9830 C   0  0  0  0  0  0  0  0  0  0  0  0
    9.8050   -2.0890   24.1500 C   0  0  0  0  0  0  0  0  0  0  0  0
    6.6780   -5.1030   21.7840 N   0  0  0  0  0  0  0  0  0  0  0  0
   11.0270   -1.8700   23.5120 C   0  0  0  0  0  0  0  0  0  0  0  0
    5.5320   -6.0080   21.8660 C   0  0  0  0  0  0  0  0  0  0  0  0
    7.2390   -4.7700   23.0680 C   0  0  0  0  0  0  0  0  0  0  0  0
   12.3280   -1.9540   24.3150 C   0  0  0  0  0  0  0  0  0  0  0  0
    4.6360   -5.6630   22.8950 C   0  0  0  0  0  0  0  0  0  0  0  0
    6.2370   -4.2720   23.8890 C   0  0  0  0  0  0  0  0  0  0  0  0
   12.8140   -0.6280   24.5320 C   0  0  0  0  0  0  0  0  0  0  0  0
   13.4130   -1.6680   23.3410 C   0  0  0  0  0  0  0  0  0  0  0  0
   12.7780   -3.0670   25.2590 C   0  0  0  0  0  0  0  0  0  0  0  0
    5.2930   -5.3540   24.1840 N   0  0  0  0  0  0  0  0  0  0  0  0
    4.4040   -5.2760   25.6310 S   0  0  1  0  0  0  0  0  0  0  0  0
    3.5370   -6.4270   25.6560 O   0  0  0  0  0  0  0  0  0  0  0  0
    5.4640   -4.8640   26.8920 N   0  0  0  0  0  0  0  0  0  0  0  0
    3.3280   -3.8910   25.6660 C   0  0  0  0  0  0  0  0  0  0  0  0
    6.4620   -5.7690   27.3020 C   0  0  0  0  0  0  0  0  0  0  0  0
    3.8430   -2.2800   26.0400 S   0  0  0  0  0  0  0  0  0  0  0  0
    1.9620   -3.9410   25.4000 C   0  0  0  0  0  0  0  0  0  0  0  0
    7.6910   -5.5030   26.4150 C   0  0  2  0  0  0  0  0  0  0  0  0
    1.3580   -2.7180   25.5020 C   0  0  0  0  0  0  0  0  0  0  0  0
    2.2420   -1.7180   25.8410 C   0  0  0  0  0  0  0  0  0  0  0  0
    8.8170   -6.2080   26.5760 N   0  0  0  0  0  0  0  0  0  0  0  0
    8.3940   -4.2690   26.7790 C   0  0  0  0  0  0  0  0  0  0  0  0
    8.8280   -3.7500   25.6160 N   0  0  0  0  0  0  0  0  0  0  0  0
    9.6870   -5.9550   25.4820 C   0  0  0  0  0  0  0  0  0  0  0  0
    9.6500   -4.6390   24.9270 C   0  0  0  0  0  0  0  0  0  0  0  0
  1  2  1  0
  2  3  1  6
  1  4  1  0
  4  5  2  0
  6  4  1  6
  2  7  1  0
  6  8  1  0
  3  9  1  0
  7 10  1  0
  6 11  1  0
  9 12  1  0
  9 13  2  0
  8 14  1  0
 10 15  1  0
 11 16  2  0
 11 17  1  0
  8 18  1  0
 12 19  1  0
 14 20  2  0
 14 21  1  0
 17 22  2  0
 16 23  1  0
 18 24  2  0
 18 25  1  0
 19 26  1  0
 21 27  1  1
 22 28  1  0
 23 28  2  0
 24 29  1  0
 25 30  2  0
 21 31  1  0
 29 32  2  0
 30 32  1  0
 31 33  1  0
 31 34  1  0
 32 35  1  0
 33 36  1  0
 34 37  1  0
 35 38  1  0
 35 39  1  0
 35 40  1  0
 36 41  1  0
 37 41  1  0
 41 42  1  0
 42 43  2  0
 42 44  2  0
 42 45  1  6
 44 46  1  0
 45 47  1  0
 45 48  2  0
 49 46  1  1
 48 50  1  0
 47 51  1  0
 50 51  2  0
 49 52  1  0
 49 53  1  0
 53 54  1  0
 52 55  1  0
 54 56  1  0
 55 56  1  0
M  END
