x2193-x1425-x2694
     RDKit          3D

 54 59  0  0  0  0  0  0  0  0999 V2000
    7.7890   -0.7430   22.0720 N   0  0  0  0  0  0  0  0  0  0  0  0
    7.1700    0.4960   21.8290 C   0  0  1  0  0  0  0  0  0  0  0  0
    8.1480    1.6140   21.8400 C   0  0  0  0  0  0  0  0  0  0  0  0
    7.5900   -1.9730   21.3240 C   0  0  0  0  0  0  0  0  0  0  0  0
    8.9570   -0.7520   22.9080 C   0  0  1  0  0  0  0  0  0  0  0  0
    6.4560    0.6500   20.4800 C   0  0  0  0  0  0  0  0  0  0  0  0
    9.0310   -1.3660   24.1100 N   0  0  0  0  0  0  0  0  0  0  0  0
   10.1380   -0.9300   22.2230 C   0  0  0  0  0  0  0  0  0  0  0  0
    6.9620   -3.1290   22.1100 C   0  0  2  0  0  0  0  0  0  0  0  0
    7.8860    2.5530   22.6530 N   0  0  0  0  0  0  0  0  0  0  0  0
    9.1180    1.6370   21.1160 O   0  0  0  0  0  0  0  0  0  0  0  0
    5.2740    1.4000   20.3230 C   0  0  0  0  0  0  0  0  0  0  0  0
    7.0030    0.0100   19.2010 C   0  0  0  0  0  0  0  0  0  0  0  0
   10.2860   -1.8840   24.2430 O   0  0  0  0  0  0  0  0  0  0  0  0
   10.9560   -1.7520   23.0720 C   0  0  2  0  0  0  0  0  0  0  0  0
    6.7130   -4.3070   21.3000 N   0  0  0  0  0  0  0  0  0  0  0  0
    5.7040   -2.7470   22.5850 C   0  0  0  0  0  0  0  0  0  0  0  0
    8.0450   -2.2910   24.6290 C   0  0  0  0  0  0  0  0  0  0  0  0
   12.3420   -1.4450   23.2340 C   0  0  0  0  0  0  0  0  0  0  0  0
    6.2620   -4.0290   20.0260 C   0  0  0  0  0  0  0  0  0  0  0  0
    6.2920    0.2270   17.9490 N   0  0  0  0  0  0  0  0  0  0  0  0
    4.6520    1.5520   19.0770 C   0  0  0  0  0  0  0  0  0  0  0  0
    8.6200    3.6810   22.9810 C   0  0  0  0  0  0  0  0  0  0  0  0
    5.2450   -3.7910   23.5220 N   0  0  0  0  0  0  0  0  0  0  0  0
    6.1970   -5.4680   22.0790 C   0  0  0  0  0  0  0  0  0  0  0  0
    8.4540   -3.7850   25.0290 N   0  0  0  0  0  0  0  0  0  0  0  0
   12.5780   -0.1300   23.6190 C   0  0  0  0  0  0  0  0  0  0  0  0
   13.0450   -1.6970   21.9490 C   0  0  0  0  0  0  0  0  0  0  0  0
   12.9070   -2.1650   24.2280 C   0  0  0  0  0  0  0  0  0  0  0  0
    5.1280   -4.3450   19.7260 O   0  0  0  0  0  0  0  0  0  0  0  0
    7.2830   -3.3490   19.0590 C   0  0  0  0  0  0  0  0  0  0  0  0
    5.1850    0.9660   17.9520 C   0  0  0  0  0  0  0  0  0  0  0  0
    9.8200    3.5060   23.6530 C   0  0  0  0  0  0  0  0  0  0  0  0
    8.2520    5.0980   22.6740 C   0  0  0  0  0  0  0  0  0  0  0  0
    4.6570   -3.4180   24.6820 C   0  0  0  0  0  0  0  0  0  0  0  0
    5.1290   -5.1600   22.9630 C   0  0  0  0  0  0  0  0  0  0  0  0
    8.6650   -3.8390   26.4750 C   0  0  0  0  0  0  0  0  0  0  0  0
    9.5520   -4.4580   24.3190 C   0  0  0  0  0  0  0  0  0  0  0  0
   10.3330    2.1420   24.0300 C   0  0  0  0  0  0  0  0  0  0  0  0
   10.5750    4.6270   23.9880 C   0  0  0  0  0  0  0  0  0  0  0  0
    9.1210    6.2680   23.0710 C   0  0  0  0  0  0  0  0  0  0  0  0
    5.0850   -2.3580   25.4790 C   0  0  0  0  0  0  0  0  0  0  0  0
    3.4190   -4.1610   25.2390 C   0  0  0  0  0  0  0  0  0  0  0  0
    8.7690   -5.2620   26.9630 C   0  0  0  0  0  0  0  0  0  0  0  0
    9.5890   -5.7770   24.7840 C   0  0  0  0  0  0  0  0  0  0  0  0
   10.2520    5.9450   23.7210 C   0  0  0  0  0  0  0  0  0  0  0  0
    4.5030   -1.9560   26.6750 C   0  0  0  0  0  0  0  0  0  0  0  0
    2.8820   -3.7050   26.4450 C   0  0  0  0  0  0  0  0  0  0  0  0
    8.5670   -6.0780   25.7960 N   0  0  0  0  0  0  0  0  0  0  0  0
   11.0960    6.9350   24.1270 O   0  0  0  0  0  0  0  0  0  0  0  0
    3.3910   -2.6270   27.1740 C   0  0  0  0  0  0  0  0  0  0  0  0
   11.8840    6.6680   25.3020 C   0  0  0  0  0  0  0  0  0  0  0  0
    2.7270   -2.3370   28.3310 O   0  0  0  0  0  0  0  0  0  0  0  0
    1.3070   -2.3190   28.2590 C   0  0  0  0  0  0  0  0  0  0  0  0
  1  2  1  0
  2  3  1  6
  1  4  1  0
  5  1  1  6
  2  6  1  0
  5  7  1  0
  5  8  1  0
  9  4  1  6
  3 10  1  0
  3 11  2  0
  6 12  2  0
  6 13  1  0
  7 14  1  0
  8 15  1  0
 14 15  1  0
  9 16  1  0
  9 17  1  0
  7 18  1  0
 15 19  1  1
 16 20  1  0
 13 21  2  0
 12 22  1  0
 10 23  1  0
 17 24  1  0
 16 25  1  0
 18 26  1  0
 19 27  1  0
 19 28  1  0
 19 29  1  0
 20 30  2  0
 20 31  1  0
 21 32  1  0
 22 32  2  0
 23 33  2  0
 23 34  1  0
 24 35  1  0
 24 36  1  0
 25 36  1  0
 26 37  1  0
 26 38  1  0
 33 39  1  0
 33 40  1  0
 34 41  2  0
 35 42  2  0
 35 43  1  0
 37 44  1  0
 38 45  1  0
 40 46  2  0
 41 46  1  0
 42 47  1  0
 43 48  2  0
 44 49  1  0
 45 49  1  0
 46 50  1  0
 47 51  2  0
 48 51  1  0
 50 52  1  0
 51 53  1  0
 53 54  1  0
M  END
