x2193-x1308
     RDKit          3D

 35 38  0  0  0  0  0  0  0  0999 V2000
    7.4940   -3.4160   19.8350 C   0  0  0  0  0  0  0  0  0  0  0  0
    6.4210   -4.3150   20.4880 C   0  0  0  0  0  0  0  0  0  0  0  0
    5.3620   -4.5330   19.9140 O   0  0  0  0  0  0  0  0  0  0  0  0
    6.6510   -4.9310   21.7140 N   0  0  0  0  0  0  0  0  0  0  0  0
    7.1290   -4.1380   22.7560 C   0  0  0  0  0  0  0  0  0  0  0  0
    6.0640   -6.0410   22.0470 C   0  0  0  0  0  0  0  0  0  0  0  0
    6.3910   -4.2580   23.9490 C   0  0  0  0  0  0  0  0  0  0  0  0
    5.4180   -6.1820   23.2790 C   0  0  0  0  0  0  0  0  0  0  0  0
    6.0680   -5.5050   24.3670 N   0  0  0  0  0  0  0  0  0  0  0  0
    5.4640   -5.4820   25.8110 S   0  0  2  0  0  0  0  0  0  0  0  0
    6.5590   -5.3110   26.9090 N   0  0  0  0  0  0  0  0  0  0  0  0
    4.9100   -6.7980   26.0850 O   0  0  0  0  0  0  0  0  0  0  0  0
    4.1550   -4.3030   25.9760 C   0  0  0  0  0  0  0  0  0  0  0  0
    4.4030   -2.8580   26.4120 C   0  0  0  0  0  0  0  0  0  0  0  0
    2.8400   -4.6830   25.7090 C   0  0  0  0  0  0  0  0  0  0  0  0
    7.9910   -5.1670   26.7080 C   0  0  1  0  0  0  0  0  0  0  0  0
    3.3200   -2.0080   26.5250 C   0  0  0  0  0  0  0  0  0  0  0  0
    1.6900   -3.6790   25.8570 C   0  0  0  0  0  0  0  0  0  0  0  0
    8.7330   -6.1210   26.1130 N   0  0  0  0  0  0  0  0  0  0  0  0
    8.5380   -3.7510   26.2880 C   0  0  0  0  0  0  0  0  0  0  0  0
    1.9760   -2.3600   26.2690 C   0  0  0  0  0  0  0  0  0  0  0  0
    9.1340   -3.6770   24.9680 N   0  0  0  0  0  0  0  0  0  0  0  0
    9.1360   -5.9240   24.6910 C   0  0  0  0  0  0  0  0  0  0  0  0
    0.6560   -1.2790   26.4330 Cl  0  0  0  0  0  0  0  0  0  0  0  0
    9.2370   -2.3810   24.3290 C   0  0  0  0  0  0  0  0  0  0  0  0
    9.9620   -4.7830   24.6300 C   0  0  0  0  0  0  0  0  0  0  0  0
    8.7930   -1.2380   24.9620 C   0  0  0  0  0  0  0  0  0  0  0  0
    9.8260   -2.2570   22.9480 C   0  0  0  0  0  0  0  0  0  0  0  0
    8.8550    0.0280   24.4090 C   0  0  0  0  0  0  0  0  0  0  0  0
    9.8720   -0.8480   22.3700 C   0  0  0  0  0  0  0  0  0  0  0  0
    9.3800    0.2520   23.1250 C   0  0  0  0  0  0  0  0  0  0  0  0
    9.3910    1.9050   22.5060 S   0  0  0  0  0  0  0  0  0  0  0  0
   11.0320    2.5360   23.0070 C   0  0  0  0  0  0  0  0  0  0  0  0
    9.2720    1.7690   21.0850 O   0  0  0  0  0  0  0  0  0  0  0  0
    8.3450    2.6160   23.2050 O   0  0  0  0  0  0  0  0  0  0  0  0
  1  2  1  0
  2  3  2  0
  2  4  1  0
  4  5  1  0
  4  6  1  0
  5  7  1  0
  6  8  1  0
  7  9  1  0
  8  9  1  0
  9 10  1  0
 10 11  2  0
 10 12  2  0
 10 13  1  6
 13 14  2  0
 13 15  1  0
 16 11  1  6
 14 17  1  0
 15 18  2  0
 16 19  1  0
 16 20  1  0
 17 21  2  0
 18 21  1  0
 20 22  1  0
 19 23  1  0
 21 24  1  0
 22 25  1  0
 22 26  1  0
 23 26  1  0
 25 27  2  0
 25 28  1  0
 27 29  1  0
 28 30  2  0
 29 31  2  0
 30 31  1  0
 31 32  1  0
 32 33  1  0
 32 34  2  0
 32 35  2  0
M  END
