x2193-x0540-x2705
     RDKit          3D

 52 56  0  0  0  0  0  0  0  0999 V2000
    7.1560   -1.6730   21.7090 N   0  0  0  0  0  0  0  0  0  0  0  0
    6.2230   -2.8680   21.5260 C   0  0  0  0  0  0  0  0  0  0  0  0
    4.8990   -3.0700   21.1980 O   0  0  0  0  0  0  0  0  0  0  0  0
    6.7320   -0.2290   21.5470 C   0  0  1  0  0  0  0  0  0  0  0  0
    8.4380   -1.6850   22.4620 C   0  0  0  0  0  0  0  0  0  0  0  0
    6.9430   -4.1540   21.7400 C   0  0  0  0  0  0  0  0  0  0  0  0
    7.8050    0.9550   21.7840 C   0  0  0  0  0  0  0  0  0  0  0  0
    6.1290    0.1900   20.2130 C   0  0  0  0  0  0  0  0  0  0  0  0
    8.5920   -2.0530   23.7410 N   0  0  0  0  0  0  0  0  0  0  0  0
    9.7360   -1.3080   21.9910 C   0  0  0  0  0  0  0  0  0  0  0  0
    6.9140   -4.8860   20.4110 C   0  0  0  0  0  0  0  0  0  0  0  0
    7.6190    1.8690   22.8250 N   0  0  0  0  0  0  0  0  0  0  0  0
    8.7590    1.1030   21.0230 O   0  0  0  0  0  0  0  0  0  0  0  0
    4.9190    0.8130   20.2010 C   0  0  0  0  0  0  0  0  0  0  0  0
    6.8210   -0.0330   18.9840 C   0  0  0  0  0  0  0  0  0  0  0  0
    9.8940   -1.9280   24.1330 N   0  0  0  0  0  0  0  0  0  0  0  0
   10.6290   -1.4800   23.0750 C   0  0  0  0  0  0  0  0  0  0  0  0
    7.6360   -2.5440   24.7130 C   0  0  0  0  0  0  0  0  0  0  0  0
   12.1500   -1.2680   23.2260 C   0  0  0  0  0  0  0  0  0  0  0  0
    4.1700    1.0650   21.3850 C   0  0  0  0  0  0  0  0  0  0  0  0
    6.3760    0.3510   17.7580 N   0  0  0  0  0  0  0  0  0  0  0  0
    4.3550    1.2520   19.0240 C   0  0  0  0  0  0  0  0  0  0  0  0
    8.2650    3.1330   22.9710 C   0  0  0  0  0  0  0  0  0  0  0  0
    8.0940   -3.8830   25.1690 N   0  0  0  0  0  0  0  0  0  0  0  0
   12.4540    0.0480   23.5900 C   0  0  0  0  0  0  0  0  0  0  0  0
   12.7440   -2.1960   24.3160 C   0  0  0  0  0  0  0  0  0  0  0  0
   12.8970   -1.5510   21.9170 C   0  0  0  0  0  0  0  0  0  0  0  0
    4.7070    1.6130   22.5470 C   0  0  0  0  0  0  0  0  0  0  0  0
    5.1920    0.9740   17.7880 C   0  0  0  0  0  0  0  0  0  0  0  0
    9.5460    3.2640   23.5620 C   0  0  0  0  0  0  0  0  0  0  0  0
    7.6340    4.2960   22.5200 C   0  0  0  0  0  0  0  0  0  0  0  0
    8.4850   -3.8820   26.5820 C   0  0  0  0  0  0  0  0  0  0  0  0
    9.2280   -4.4840   24.4220 C   0  0  0  0  0  0  0  0  0  0  0  0
   10.1780    2.0500   24.0090 C   0  0  0  0  0  0  0  0  0  0  0  0
    6.2590    4.3820   21.8510 C   0  0  0  0  0  0  0  0  0  0  0  0
    3.8880    2.7330   22.9410 N   0  0  0  0  0  0  0  0  0  0  0  0
   10.2080    4.5050   23.7180 C   0  0  0  0  0  0  0  0  0  0  0  0
    8.3120    5.4850   22.6910 C   0  0  0  0  0  0  0  0  0  0  0  0
    8.7710   -5.3010   27.1210 C   0  0  0  0  0  0  0  0  0  0  0  0
    9.4180   -5.7800   24.8460 C   0  0  0  0  0  0  0  0  0  0  0  0
    9.3710    1.3320   24.9340 C   0  0  0  0  0  0  0  0  0  0  0  0
    2.6710    2.4810   23.5610 C   0  0  0  0  0  0  0  0  0  0  0  0
    9.5200    5.5850   23.2530 C   0  0  0  0  0  0  0  0  0  0  0  0
    8.8630   -6.2970   26.0670 N   0  0  0  0  0  0  0  0  0  0  0  0
    2.6170    1.6310   24.4570 O   0  0  0  0  0  0  0  0  0  0  0  0
    1.5830    3.1520   23.1760 N   0  0  0  0  0  0  0  0  0  0  0  0
    0.4670    3.3490   24.0840 C   0  0  0  0  0  0  0  0  0  0  0  0
    0.3650    4.6420   24.5550 C   0  0  0  0  0  0  0  0  0  0  0  0
   -0.6580    2.8060   23.4550 C   0  0  0  0  0  0  0  0  0  0  0  0
   -0.8630    4.9740   25.1540 C   0  0  0  0  0  0  0  0  0  0  0  0
   -1.9040    3.3810   23.7040 C   0  0  0  0  0  0  0  0  0  0  0  0
   -1.9770    4.6030   24.3780 C   0  0  0  0  0  0  0  0  0  0  0  0
  1  2  1  0
  2  3  2  0
  1  4  1  0
  1  5  1  0
  2  6  1  0
  4  7  1  6
  4  8  1  0
  5  9  1  0
  5 10  2  0
  6 11  1  0
  7 12  1  0
  7 13  2  0
  8 14  1  0
  8 15  2  0
  9 16  1  0
 10 17  1  0
 16 17  2  0
  9 18  1  0
 17 19  1  0
 14 20  1  0
 15 21  1  0
 14 22  2  0
 12 23  1  0
 18 24  1  0
 19 25  1  0
 19 26  1  0
 19 27  1  0
 20 28  1  0
 21 29  2  0
 22 29  1  0
 23 30  2  0
 23 31  1  0
 24 32  1  0
 24 33  1  0
 30 34  1  0
 31 35  1  0
 28 36  1  0
 30 37  1  0
 31 38  2  0
 32 39  1  0
 33 40  1  0
 34 41  1  0
 36 42  1  0
 37 43  2  0
 38 43  1  0
 39 44  1  0
 40 44  1  0
 42 45  2  0
 42 46  1  0
 46 47  1  0
 47 48  1  0
 47 49  1  0
 48 50  1  0
 49 51  1  0
 50 52  1  0
 51 52  1  0
M  END
