x2193-x3110-x0786-x2754
     RDKit          3D

 61 66  0  0  0  0  0  0  0  0999 V2000
    7.0370    1.6960   22.9330 N   0  0  0  0  0  0  0  0  0  0  0  0
    7.7530    2.8450   23.3400 C   0  0  0  0  0  0  0  0  0  0  0  0
    9.2910    2.6560   23.5480 C   0  0  0  0  0  0  0  0  0  0  0  0
    7.1990    0.9540   21.6360 C   0  0  0  0  0  0  0  0  0  0  0  0
    8.0260    1.3440   20.7950 O   0  0  0  0  0  0  0  0  0  0  0  0
    6.2640   -0.3260   21.4160 C   0  0  2  0  0  0  0  0  0  0  0  0
    6.7660   -1.5030   21.4990 N   0  0  0  0  0  0  0  0  0  0  0  0
   10.0840    3.8710   23.6300 C   0  0  0  0  0  0  0  0  0  0  0  0
    5.7510    0.0590   20.0100 C   0  0  0  0  0  0  0  0  0  0  0  0
   11.2150    3.8630   23.0740 O   0  0  0  0  0  0  0  0  0  0  0  0
    9.6250    4.8780   24.1810 O   0  0  0  0  0  0  0  0  0  0  0  0
    5.9280   -2.7830   21.3470 C   0  0  0  0  0  0  0  0  0  0  0  0
    4.4240    0.9210   19.8870 C   0  0  0  0  0  0  0  0  0  0  0  0
    6.5300   -0.3710   18.6800 C   0  0  0  0  0  0  0  0  0  0  0  0
    8.1740   -1.5330   22.0540 C   0  0  0  0  0  0  0  0  0  0  0  0
   11.4280    4.4060   21.9500 C   0  0  0  0  0  0  0  0  0  0  0  0
    4.8200   -2.9030   20.7630 O   0  0  0  0  0  0  0  0  0  0  0  0
    6.4190   -4.0790   21.9540 C   0  0  2  0  0  0  0  0  0  0  0  0
    5.9060    0.1890   17.4750 N   0  0  0  0  0  0  0  0  0  0  0  0
    3.9260    1.3310   18.6320 C   0  0  0  0  0  0  0  0  0  0  0  0
    9.2230   -1.9000   21.2180 C   0  0  0  0  0  0  0  0  0  0  0  0
    8.5480   -1.1720   23.4700 C   0  0  0  0  0  0  0  0  0  0  0  0
   12.7890    4.4660   21.3000 C   0  0  0  0  0  0  0  0  0  0  0  0
    6.7960   -5.1700   20.8420 C   0  0  0  0  0  0  0  0  0  0  0  0
    4.6120    1.0090   17.4740 C   0  0  0  0  0  0  0  0  0  0  0  0
   10.6050   -1.8910   21.6060 C   0  0  0  0  0  0  0  0  0  0  0  0
    9.8890   -1.1910   23.8950 C   0  0  0  0  0  0  0  0  0  0  0  0
    5.2470   -4.4270   23.0060 C   0  0  0  0  0  0  0  0  0  0  0  0
   10.9540   -1.5360   22.9850 C   0  0  0  0  0  0  0  0  0  0  0  0
    4.5250   -5.6060   22.9500 C   0  0  0  0  0  0  0  0  0  0  0  0
    4.8910   -3.5230   24.0300 C   0  0  0  0  0  0  0  0  0  0  0  0
   12.4330   -1.3950   23.6610 C   0  0  0  0  0  0  0  0  0  0  0  0
    3.5450   -5.8300   23.9200 C   0  0  0  0  0  0  0  0  0  0  0  0
    3.8530   -3.7460   25.0160 C   0  0  0  0  0  0  0  0  0  0  0  0
   12.6670   -0.2420   24.4660 C   0  0  0  0  0  0  0  0  0  0  0  0
   13.4150   -1.5450   22.5970 C   0  0  0  0  0  0  0  0  0  0  0  0
   12.6750   -2.6350   24.5960 C   0  0  0  0  0  0  0  0  0  0  0  0
    2.8920   -7.1290   23.7570 C   0  0  0  0  0  0  0  0  0  0  0  0
    3.7360   -2.5660   25.9830 N   0  0  0  0  0  0  0  0  0  0  0  0
    2.9360   -5.0450   25.1860 C   0  0  0  0  0  0  0  0  0  0  0  0
    3.6220   -8.1140   24.4060 O   0  0  0  0  0  0  0  0  0  0  0  0
    2.4140   -4.3710   26.2720 O   0  0  0  0  0  0  0  0  0  0  0  0
    2.9850   -1.3520   25.5370 C   0  0  0  0  0  0  0  0  0  0  0  0
    1.6670   -7.3970   23.0260 N   0  0  0  0  0  0  0  0  0  0  0  0
    4.6530   -2.3200   27.0870 C   0  0  0  0  0  0  0  0  0  0  0  0
    1.0070   -6.3640   22.1490 C   0  0  0  0  0  0  0  0  0  0  0  0
    0.8620   -8.6410   23.2650 C   0  0  0  0  0  0  0  0  0  0  0  0
    5.8220   -3.1710   27.1620 C   0  0  0  0  0  0  0  0  0  0  0  0
    4.6250   -1.3000   28.1080 C   0  0  0  0  0  0  0  0  0  0  0  0
   -0.2370   -5.7920   22.8700 C   0  0  0  0  0  0  0  0  0  0  0  0
   -0.3780   -8.3420   24.0010 C   0  0  0  0  0  0  0  0  0  0  0  0
    6.9370   -3.1300   28.0630 C   0  0  0  0  0  0  0  0  0  0  0  0
    5.8500   -1.2530   29.1230 C   0  0  0  0  0  0  0  0  0  0  0  0
    7.9020   -4.2010   27.6710 C   0  0  2  0  0  0  0  0  0  0  0  0
   -1.4670   -7.1120   23.1870 S   0  0  0  0  0  0  0  0  0  0  0  0
    6.9260   -2.1210   29.0720 C   0  0  0  0  0  0  0  0  0  0  0  0
    9.0490   -4.3400   28.6890 N   0  0  0  0  0  0  0  0  0  0  0  0
    8.6000   -3.8150   26.2880 C   0  0  0  0  0  0  0  0  0  0  0  0
    9.9350   -4.2890   26.0950 N   0  0  0  0  0  0  0  0  0  0  0  0
   10.0360   -5.3080   28.3320 C   0  0  0  0  0  0  0  0  0  0  0  0
   10.2870   -5.4590   26.8670 C   0  0  0  0  0  0  0  0  0  0  0  0
  1  2  1  0
  2  3  1  0
  1  4  1  0
  4  5  2  0
  6  4  1  6
  6  7  1  0
  3  8  1  0
  6  9  1  0
  8 10  1  0
  8 11  2  0
  7 12  1  0
  9 13  2  0
  9 14  1  0
  7 15  1  0
 10 16  1  0
 12 17  2  0
 12 18  1  0
 14 19  2  0
 13 20  1  0
 15 21  2  0
 15 22  1  0
 16 23  1  0
 18 24  1  6
 19 25  1  0
 20 25  2  0
 21 26  1  0
 22 27  2  0
 18 28  1  0
 26 29  2  0
 27 29  1  0
 28 30  2  0
 28 31  1  0
 29 32  1  0
 30 33  1  0
 31 34  2  0
 32 35  1  0
 32 36  1  0
 32 37  1  0
 33 38  1  0
 34 39  1  0
 33 40  2  0
 34 40  1  0
 38 41  2  0
 40 42  1  0
 39 43  1  0
 38 44  1  0
 39 45  1  0
 44 46  1  0
 44 47  1  0
 45 48  2  0
 45 49  1  0
 46 50  1  0
 47 51  1  0
 48 52  1  0
 49 53  2  0
 54 52  1  1
 50 55  1  0
 51 55  1  0
 52 56  2  0
 53 56  1  0
 54 57  1  0
 54 58  1  0
 58 59  1  0
 57 60  1  0
 59 61  1  0
 60 61  1  0
M  END
