x2193-x1348
     RDKit          3D

 30 33  0  0  0  0  0  0  0  0999 V2000
    6.8910   -3.6640   21.4050 N   0  0  0  0  0  0  0  0  0  0  0  0
    6.5220   -3.6720   20.0620 C   0  0  0  0  0  0  0  0  0  0  0  0
    5.4300   -4.1460   19.7560 O   0  0  0  0  0  0  0  0  0  0  0  0
    6.4050   -4.4040   22.4270 C   0  0  0  0  0  0  0  0  0  0  0  0
    7.5060   -3.1350   19.0190 C   0  0  0  0  0  0  0  0  0  0  0  0
    7.0120   -4.4640   23.6840 N   0  0  0  0  0  0  0  0  0  0  0  0
    4.9650   -5.3050   22.1820 S   0  0  0  0  0  0  0  0  0  0  0  0
    6.2520   -5.2740   24.5020 C   0  0  0  0  0  0  0  0  0  0  0  0
    5.0700   -5.8170   23.8230 C   0  0  0  0  0  0  0  0  0  0  0  0
    6.4730   -5.6130   25.8300 C   0  0  0  0  0  0  0  0  0  0  0  0
    4.1850   -6.6390   24.4910 C   0  0  0  0  0  0  0  0  0  0  0  0
    4.3730   -6.9790   25.8270 C   0  0  0  0  0  0  0  0  0  0  0  0
    5.5330   -6.4560   26.4920 C   0  0  0  0  0  0  0  0  0  0  0  0
    7.7230   -5.0160   26.3900 C   0  0  1  0  0  0  0  0  0  0  0  0
    7.5970   -5.0230   27.9370 C   0  0  0  0  0  0  0  0  0  0  0  0
    8.6810   -5.9220   26.1390 N   0  0  0  0  0  0  0  0  0  0  0  0
    8.0940   -3.5970   26.0720 C   0  0  0  0  0  0  0  0  0  0  0  0
    9.1570   -3.4440   25.0330 N   0  0  0  0  0  0  0  0  0  0  0  0
    9.0710   -5.9330   24.7370 C   0  0  0  0  0  0  0  0  0  0  0  0
    9.2560   -2.2730   24.4410 C   0  0  0  0  0  0  0  0  0  0  0  0
    9.6670   -4.7060   24.4150 C   0  0  0  0  0  0  0  0  0  0  0  0
    9.1200   -1.1240   25.2360 C   0  0  0  0  0  0  0  0  0  0  0  0
    9.4870   -2.1010   23.0760 C   0  0  0  0  0  0  0  0  0  0  0  0
    9.2020    0.1400   24.6630 C   0  0  0  0  0  0  0  0  0  0  0  0
    9.5750   -0.8580   22.4710 C   0  0  0  0  0  0  0  0  0  0  0  0
    9.4190    0.2750   23.2950 C   0  0  0  0  0  0  0  0  0  0  0  0
    9.4790    1.9130   22.6160 S   0  0  0  0  0  0  0  0  0  0  0  0
   11.0400    2.4540   22.9890 C   0  0  0  0  0  0  0  0  0  0  0  0
    9.3020    1.7410   21.1920 O   0  0  0  0  0  0  0  0  0  0  0  0
    8.5220    2.6980   23.3670 O   0  0  0  0  0  0  0  0  0  0  0  0
  1  2  1  0
  2  3  2  0
  1  4  1  0
  2  5  1  0
  4  6  2  0
  4  7  1  0
  6  8  1  0
  7  9  1  0
  8  9  2  0
  8 10  1  0
  9 11  1  0
 11 12  2  0
 10 13  2  0
 12 13  1  0
 10 14  1  0
 14 15  1  1
 14 16  1  0
 14 17  1  0
 17 18  1  0
 16 19  1  0
 18 20  1  0
 18 21  1  0
 19 21  1  0
 20 22  2  0
 20 23  1  0
 22 24  1  0
 23 25  2  0
 24 26  2  0
 25 26  1  0
 26 27  1  0
 27 28  1  0
 27 29  2  0
 27 30  2  0
M  END
