x2193-x3113
     RDKit          3D

 37 39  0  0  0  0  0  0  0  0999 V2000
    7.0100   -1.7040   21.7700 N   0  0  0  0  0  0  0  0  0  0  0  0
    6.1120   -2.8730   21.3920 C   0  0  0  0  0  0  0  0  0  0  0  0
    4.7930   -2.9770   21.2550 O   0  0  0  0  0  0  0  0  0  0  0  0
    6.6530   -0.3280   21.7150 C   0  0  1  0  0  0  0  0  0  0  0  0
    8.3400   -1.8310   22.3970 C   0  0  0  0  0  0  0  0  0  0  0  0
    6.6960   -4.2250   21.1090 C   0  0  0  0  0  0  0  0  0  0  0  0
    7.7650    0.5730   21.9590 C   0  0  0  0  0  0  0  0  0  0  0  0
    6.1680    0.1530   20.3660 C   0  0  0  0  0  0  0  0  0  0  0  0
    9.4680   -1.4020   21.6770 C   0  0  0  0  0  0  0  0  0  0  0  0
    8.6010   -2.3320   23.6870 C   0  0  0  0  0  0  0  0  0  0  0  0
    8.1960   -4.2670   20.8580 C   0  0  0  0  0  0  0  0  0  0  0  0
    7.9830    1.0540   23.3680 N   0  0  0  0  0  0  0  0  0  0  0  0
    8.4110    0.8870   20.9720 O   0  0  0  0  0  0  0  0  0  0  0  0
    5.0340    0.9820   20.3140 C   0  0  0  0  0  0  0  0  0  0  0  0
    6.8610   -0.1980   19.0630 C   0  0  0  0  0  0  0  0  0  0  0  0
   10.7580   -1.4380   22.1760 C   0  0  0  0  0  0  0  0  0  0  0  0
    9.9290   -2.3700   24.2280 C   0  0  0  0  0  0  0  0  0  0  0  0
    7.5700   -2.8370   24.5280 C   0  0  0  0  0  0  0  0  0  0  0  0
    8.9260    2.0680   23.7080 C   0  0  0  0  0  0  0  0  0  0  0  0
    6.4330    0.2620   17.8730 N   0  0  0  0  0  0  0  0  0  0  0  0
    4.5700    1.4720   19.0940 C   0  0  0  0  0  0  0  0  0  0  0  0
   11.0860   -1.9560   23.6060 C   0  0  0  0  0  0  0  0  0  0  0  0
    7.9030   -4.1450   25.0990 N   0  0  0  0  0  0  0  0  0  0  0  0
   10.2010    2.0760   22.8400 C   0  0  0  0  0  0  0  0  0  0  0  0
   12.5010   -1.9710   24.1920 C   0  0  0  0  0  0  0  0  0  0  0  0
    5.2420    1.1310   17.9250 C   0  0  0  0  0  0  0  0  0  0  0  0
    8.4750   -4.0000   26.4450 C   0  0  0  0  0  0  0  0  0  0  0  0
    8.7570   -4.9630   24.2030 C   0  0  0  0  0  0  0  0  0  0  0  0
   11.3310    2.6910   23.4110 C   0  0  0  0  0  0  0  0  0  0  0  0
   13.4280   -2.1330   23.1890 C   0  0  0  0  0  0  0  0  0  0  0  0
   12.8030   -3.0370   25.2610 C   0  0  0  0  0  0  0  0  0  0  0  0
   12.7110   -0.5660   24.7860 C   0  0  0  0  0  0  0  0  0  0  0  0
    8.5960   -5.2160   27.1060 C   0  0  0  0  0  0  0  0  0  0  0  0
    9.5700   -5.7940   24.9320 C   0  0  0  0  0  0  0  0  0  0  0  0
   11.5430    4.0100   22.8850 O   0  0  0  0  0  0  0  0  0  0  0  0
    8.9560   -6.3000   26.1600 N   0  0  0  0  0  0  0  0  0  0  0  0
   12.9230    4.3730   22.7800 C   0  0  0  0  0  0  0  0  0  0  0  0
  1  2  1  0
  2  3  2  0
  1  4  1  0
  1  5  1  0
  2  6  1  0
  4  7  1  6
  4  8  1  0
  5  9  2  0
  5 10  1  0
  6 11  1  0
  7 12  1  0
  7 13  2  0
  8 14  2  0
  8 15  1  0
  9 16  1  0
 10 17  2  0
 10 18  1  0
 12 19  1  0
 15 20  2  0
 14 21  1  0
 16 22  2  0
 17 22  1  0
 18 23  1  0
 19 24  1  0
 22 25  1  0
 20 26  1  0
 21 26  2  0
 23 27  1  0
 23 28  1  0
 24 29  1  0
 25 30  1  0
 25 31  1  0
 25 32  1  0
 27 33  1  0
 28 34  1  0
 29 35  1  0
 33 36  1  0
 34 36  1  0
 35 37  1  0
M  END
