x2193-x3113-x3110-x0786
     RDKit          3D

 53 57  0  0  0  0  0  0  0  0999 V2000
    7.9340    1.2430   23.3910 N   0  0  0  0  0  0  0  0  0  0  0  0
    8.8180    2.2550   23.9740 C   0  0  0  0  0  0  0  0  0  0  0  0
   10.3240    2.0100   23.6450 C   0  0  0  0  0  0  0  0  0  0  0  0
    7.8020    0.8810   21.9900 C   0  0  0  0  0  0  0  0  0  0  0  0
    8.6290    1.5000   21.0050 O   0  0  0  0  0  0  0  0  0  0  0  0
    6.6940   -0.1820   21.6740 C   0  0  2  0  0  0  0  0  0  0  0  0
    7.0750   -1.6240   21.6150 N   0  0  0  0  0  0  0  0  0  0  0  0
   11.0500    3.3130   23.4630 C   0  0  0  0  0  0  0  0  0  0  0  0
    6.1840    0.2780   20.2890 C   0  0  0  0  0  0  0  0  0  0  0  0
   11.9920    3.2240   22.4200 O   0  0  0  0  0  0  0  0  0  0  0  0
   10.8120    4.4730   24.2440 O   0  0  0  0  0  0  0  0  0  0  0  0
    6.1890   -2.8070   21.4090 C   0  0  0  0  0  0  0  0  0  0  0  0
    4.9430    1.1540   20.1980 C   0  0  0  0  0  0  0  0  0  0  0  0
    6.8060   -0.0410   19.1370 C   0  0  0  0  0  0  0  0  0  0  0  0
    8.4580   -1.7040   22.2920 C   0  0  0  0  0  0  0  0  0  0  0  0
   12.3840    4.5070   21.9170 C   0  0  0  0  0  0  0  0  0  0  0  0
    4.9240   -3.0370   20.9460 O   0  0  0  0  0  0  0  0  0  0  0  0
    6.8160   -4.0560   21.8630 C   0  0  2  0  0  0  0  0  0  0  0  0
    6.3330    0.4410   17.8170 N   0  0  0  0  0  0  0  0  0  0  0  0
    4.4400    1.6500   18.8990 C   0  0  0  0  0  0  0  0  0  0  0  0
    9.5790   -1.2730   21.6300 C   0  0  0  0  0  0  0  0  0  0  0  0
    8.7840   -2.2260   23.7380 C   0  0  0  0  0  0  0  0  0  0  0  0
   13.4060    5.1390   22.8910 C   0  0  0  0  0  0  0  0  0  0  0  0
    7.0550   -5.0220   20.6850 C   0  0  0  0  0  0  0  0  0  0  0  0
    5.2790    1.1930   17.7640 C   0  0  0  0  0  0  0  0  0  0  0  0
   10.9980   -1.3150   22.2620 C   0  0  0  0  0  0  0  0  0  0  0  0
   10.0260   -2.2650   24.3210 C   0  0  0  0  0  0  0  0  0  0  0  0
    5.7400   -4.4530   22.8720 C   0  0  0  0  0  0  0  0  0  0  0  0
    7.6960   -2.7130   24.5250 C   0  0  0  0  0  0  0  0  0  0  0  0
   11.1740   -1.7730   23.5030 C   0  0  0  0  0  0  0  0  0  0  0  0
    5.0000   -5.7890   23.0050 C   0  0  0  0  0  0  0  0  0  0  0  0
    5.3880   -3.4160   23.7760 C   0  0  0  0  0  0  0  0  0  0  0  0
    8.0490   -4.0420   25.0580 N   0  0  0  0  0  0  0  0  0  0  0  0
   12.5290   -1.7940   24.1070 C   0  0  0  0  0  0  0  0  0  0  0  0
    4.0430   -5.8560   24.0150 C   0  0  0  0  0  0  0  0  0  0  0  0
    4.4350   -3.5760   24.7620 C   0  0  0  0  0  0  0  0  0  0  0  0
    8.2870   -4.0930   26.4990 C   0  0  0  0  0  0  0  0  0  0  0  0
    9.1890   -4.6890   24.3490 C   0  0  0  0  0  0  0  0  0  0  0  0
   12.7260   -0.5650   24.7190 C   0  0  0  0  0  0  0  0  0  0  0  0
   13.4440   -1.9180   23.1140 C   0  0  0  0  0  0  0  0  0  0  0  0
   12.8750   -2.8840   25.1620 C   0  0  0  0  0  0  0  0  0  0  0  0
    3.2390   -7.0520   24.2340 C   0  0  0  0  0  0  0  0  0  0  0  0
    3.7950   -4.7760   24.8550 C   0  0  0  0  0  0  0  0  0  0  0  0
    8.3750   -5.4170   26.9130 C   0  0  0  0  0  0  0  0  0  0  0  0
    9.1440   -6.0000   24.6730 C   0  0  0  0  0  0  0  0  0  0  0  0
    3.8460   -8.1520   24.8650 O   0  0  0  0  0  0  0  0  0  0  0  0
    1.9910   -7.0180   23.8410 N   0  0  0  0  0  0  0  0  0  0  0  0
    9.3490   -6.1850   26.1220 N   0  0  0  0  0  0  0  0  0  0  0  0
    1.4250   -5.7550   23.3240 C   0  0  0  0  0  0  0  0  0  0  0  0
    1.0430   -8.0830   23.9690 C   0  0  0  0  0  0  0  0  0  0  0  0
    0.6630   -5.1220   24.3260 C   0  0  0  0  0  0  0  0  0  0  0  0
   -0.0220   -7.7110   24.8050 C   0  0  0  0  0  0  0  0  0  0  0  0
   -0.7790   -6.1390   24.2560 S   0  0  0  0  0  0  0  0  0  0  0  0
  1  2  1  0
  2  3  1  0
  1  4  1  0
  4  5  2  0
  6  4  1  6
  6  7  1  0
  3  8  1  0
  6  9  1  0
  8 10  1  0
  8 11  2  0
  7 12  1  0
  9 13  2  0
  9 14  1  0
  7 15  1  0
 10 16  1  0
 12 17  2  0
 12 18  1  0
 14 19  2  0
 13 20  1  0
 15 21  2  0
 15 22  1  0
 16 23  1  0
 18 24  1  6
 19 25  1  0
 20 25  2  0
 21 26  1  0
 22 27  2  0
 18 28  1  0
 22 29  1  0
 26 30  2  0
 27 30  1  0
 28 31  2  0
 28 32  1  0
 29 33  1  0
 30 34  1  0
 31 35  1  0
 32 36  2  0
 33 37  1  0
 33 38  1  0
 34 39  1  0
 34 40  1  0
 34 41  1  0
 35 42  1  0
 35 43  2  0
 36 43  1  0
 37 44  1  0
 38 45  1  0
 42 46  2  0
 42 47  1  0
 44 48  1  0
 45 48  1  0
 47 49  1  0
 47 50  1  0
 49 51  1  0
 50 52  1  0
 51 53  1  0
 52 53  1  0
M  END
