x2193-x3124
     RDKit          3D

 35 38  0  0  0  0  0  0  0  0999 V2000
    6.8550   -1.6810   21.8600 N   0  0  0  0  0  0  0  0  0  0  0  0
    6.0400   -2.8760   21.6020 C   0  0  0  0  0  0  0  0  0  0  0  0
    4.7830   -2.9930   21.2830 O   0  0  0  0  0  0  0  0  0  0  0  0
    6.4760   -0.3240   21.7180 C   0  0  1  0  0  0  0  0  0  0  0  0
    8.1810   -1.7670   22.4440 C   0  0  0  0  0  0  0  0  0  0  0  0
    6.7560   -4.1860   21.7060 C   0  0  0  0  0  0  0  0  0  0  0  0
    7.4980    0.5960   22.1200 C   0  0  0  0  0  0  0  0  0  0  0  0
    6.0620    0.1410   20.3290 C   0  0  0  0  0  0  0  0  0  0  0  0
    9.2620   -1.5860   21.5830 C   0  0  0  0  0  0  0  0  0  0  0  0
    8.5000   -2.0090   23.8040 C   0  0  0  0  0  0  0  0  0  0  0  0
    6.6730   -4.8550   20.3450 C   0  0  0  0  0  0  0  0  0  0  0  0
    7.0460    1.5750   23.1760 N   0  0  0  0  0  0  0  0  0  0  0  0
    8.8320    0.7650   21.7160 N   0  0  0  0  0  0  0  0  0  0  0  0
    4.9330    0.9640   20.1900 C   0  0  0  0  0  0  0  0  0  0  0  0
    6.7530   -0.1840   19.1720 C   0  0  0  0  0  0  0  0  0  0  0  0
   10.7210   -1.6200   22.0150 C   0  0  0  0  0  0  0  0  0  0  0  0
    9.7840   -2.0450   24.2940 C   0  0  0  0  0  0  0  0  0  0  0  0
    7.5150   -2.2720   24.8950 C   0  0  0  0  0  0  0  0  0  0  0  0
    8.0130    2.4700   23.5880 C   0  0  0  0  0  0  0  0  0  0  0  0
    9.3580    1.9560   22.5930 S   0  0  0  0  0  0  0  0  0  0  0  0
    6.3840    0.2850   17.8390 N   0  0  0  0  0  0  0  0  0  0  0  0
    4.4760    1.4760   18.9760 C   0  0  0  0  0  0  0  0  0  0  0  0
   11.0630   -1.8520   23.4670 C   0  0  0  0  0  0  0  0  0  0  0  0
    7.7410   -3.6460   25.4220 N   0  0  0  0  0  0  0  0  0  0  0  0
   12.3420   -1.9340   24.1990 C   0  0  0  0  0  0  0  0  0  0  0  0
   10.9590    2.7260   22.6720 C   0  0  0  0  0  0  0  0  0  0  0  0
    5.2110    1.1260   17.8570 C   0  0  0  0  0  0  0  0  0  0  0  0
    8.3830   -3.8320   26.5840 C   0  0  0  0  0  0  0  0  0  0  0  0
    8.4580   -4.5230   24.5180 C   0  0  0  0  0  0  0  0  0  0  0  0
   12.5740   -0.7680   24.9330 C   0  0  0  0  0  0  0  0  0  0  0  0
   13.4490   -2.1720   23.1860 C   0  0  0  0  0  0  0  0  0  0  0  0
   12.2230   -3.1330   25.1350 C   0  0  0  0  0  0  0  0  0  0  0  0
    8.5020   -5.1260   27.0840 C   0  0  0  0  0  0  0  0  0  0  0  0
    8.1280   -5.7760   24.9350 C   0  0  0  0  0  0  0  0  0  0  0  0
    8.7300   -6.1060   26.1330 N   0  0  0  0  0  0  0  0  0  0  0  0
  1  2  1  0
  2  3  2  0
  4  1  1  6
  1  5  1  0
  2  6  1  0
  4  7  1  0
  4  8  1  0
  5  9  2  0
  5 10  1  0
  6 11  1  0
  7 12  1  0
  7 13  2  0
  8 14  2  0
  8 15  1  0
  9 16  1  0
 10 17  2  0
 10 18  1  0
 12 19  1  0
 13 20  1  0
 19 20  2  0
 15 21  2  0
 14 22  1  0
 16 23  2  0
 17 23  1  0
 18 24  1  0
 23 25  1  0
 20 26  1  0
 21 27  1  0
 22 27  2  0
 24 28  1  0
 24 29  1  0
 25 30  1  0
 25 31  1  0
 25 32  1  0
 28 33  1  0
 29 34  1  0
 33 35  1  0
 34 35  1  0
M  END
