x2193-x2705-x2776-x1311
     RDKit          3D

 52 56  0  0  0  0  0  0  0  0999 V2000
    7.0630   -1.5830   21.7060 N   0  0  0  0  0  0  0  0  0  0  0  0
    6.2680   -2.8560   21.3740 C   0  0  0  0  0  0  0  0  0  0  0  0
    4.9600   -3.1160   21.1020 O   0  0  0  0  0  0  0  0  0  0  0  0
    6.6120   -0.1490   21.6030 C   0  0  1  0  0  0  0  0  0  0  0  0
    8.3450   -1.6330   22.4120 C   0  0  0  0  0  0  0  0  0  0  0  0
    7.1610   -4.1000   21.4130 C   0  0  0  0  0  0  0  0  0  0  0  0
    7.6910    0.8100   21.8160 C   0  0  0  0  0  0  0  0  0  0  0  0
    6.1380    0.2980   20.2290 C   0  0  0  0  0  0  0  0  0  0  0  0
    8.5910   -1.9590   23.8570 N   0  0  0  0  0  0  0  0  0  0  0  0
    9.7230   -1.3690   21.9100 C   0  0  0  0  0  0  0  0  0  0  0  0
    7.1510   -3.5960   19.9570 C   0  0  0  0  0  0  0  0  0  0  0  0
    7.3900    1.9380   22.7620 N   0  0  0  0  0  0  0  0  0  0  0  0
    8.7860    0.7890   21.2650 O   0  0  0  0  0  0  0  0  0  0  0  0
    4.8490    1.1620   20.1930 C   0  0  0  0  0  0  0  0  0  0  0  0
    6.8470   -0.0420   19.0860 C   0  0  0  0  0  0  0  0  0  0  0  0
    9.9080   -1.8830   24.1450 N   0  0  0  0  0  0  0  0  0  0  0  0
   10.7510   -1.5360   23.0110 C   0  0  0  0  0  0  0  0  0  0  0  0
    7.6850   -2.3400   24.9340 C   0  0  0  0  0  0  0  0  0  0  0  0
   12.2660   -1.4290   23.1270 C   0  0  0  0  0  0  0  0  0  0  0  0
    6.3930    0.4330   17.7960 N   0  0  0  0  0  0  0  0  0  0  0  0
    4.4900    1.5730   18.9110 C   0  0  0  0  0  0  0  0  0  0  0  0
    8.0570    3.2180   22.9040 C   0  0  0  0  0  0  0  0  0  0  0  0
    8.0490   -3.7380   25.2220 N   0  0  0  0  0  0  0  0  0  0  0  0
   12.6830   -0.2240   23.6930 C   0  0  0  0  0  0  0  0  0  0  0  0
   12.7550   -2.6850   23.9150 C   0  0  0  0  0  0  0  0  0  0  0  0
   12.8380   -1.5450   21.8670 C   0  0  0  0  0  0  0  0  0  0  0  0
    5.1810    1.2670   17.7510 C   0  0  0  0  0  0  0  0  0  0  0  0
    9.3480    3.4100   23.4800 C   0  0  0  0  0  0  0  0  0  0  0  0
    7.3590    4.3410   22.4370 C   0  0  0  0  0  0  0  0  0  0  0  0
    8.1200   -4.0320   26.6340 C   0  0  0  0  0  0  0  0  0  0  0  0
    9.2330   -4.3240   24.5620 C   0  0  0  0  0  0  0  0  0  0  0  0
   10.1490    2.1950   23.9820 C   0  0  0  0  0  0  0  0  0  0  0  0
    5.9930    4.2800   21.8010 C   0  0  0  0  0  0  0  0  0  0  0  0
   13.3220   -2.4560   25.2790 C   0  0  0  0  0  0  0  0  0  0  0  0
   10.0200    4.8210   23.6310 C   0  0  0  0  0  0  0  0  0  0  0  0
    7.9030    5.6200   22.5350 C   0  0  0  0  0  0  0  0  0  0  0  0
    7.8070   -5.3510   26.7980 C   0  0  2  0  0  0  0  0  0  0  0  0
    9.2090   -5.8310   24.7540 C   0  0  0  0  0  0  0  0  0  0  0  0
    9.3290    1.3510   24.7450 C   0  0  0  0  0  0  0  0  0  0  0  0
   11.2440    5.0380   24.1820 O   0  0  0  0  0  0  0  0  0  0  0  0
    9.1290    5.9680   23.0720 C   0  0  0  0  0  0  0  0  0  0  0  0
    8.9160   -6.1460   26.2000 N   0  0  0  0  0  0  0  0  0  0  0  0
    6.5360   -5.7880   25.9520 C   0  0  0  0  0  0  0  0  0  0  0  0
   11.5520    6.2960   24.7880 C   0  0  0  0  0  0  0  0  0  0  0  0
    5.4770   -4.8870   25.8750 C   0  0  0  0  0  0  0  0  0  0  0  0
    4.6400   -5.0970   24.5870 C   0  0  1  0  0  0  0  0  0  0  0  0
    5.4090   -5.3450   23.2850 C   0  0  0  0  0  0  0  0  0  0  0  0
    3.5790   -6.5200   24.5820 S   0  0  0  0  0  0  0  0  0  0  0  0
    4.1400   -7.6570   25.2860 O   0  0  0  0  0  0  0  0  0  0  0  0
    2.2250   -6.1280   24.8950 O   0  0  0  0  0  0  0  0  0  0  0  0
    4.7190   -6.1430   22.3770 C   0  0  0  0  0  0  0  0  0  0  0  0
    3.6790   -6.8390   22.8580 C   0  0  0  0  0  0  0  0  0  0  0  0
  1  2  1  0
  2  3  2  0
  1  4  1  0
  1  5  1  0
  2  6  1  0
  4  7  1  6
  4  8  1  0
  5  9  1  0
  5 10  2  0
  6 11  1  0
  7 12  1  0
  7 13  2  0
  8 14  2  0
  8 15  1  0
  9 16  1  0
 10 17  1  0
 16 17  2  0
  9 18  1  0
 17 19  1  0
 15 20  2  0
 14 21  1  0
 12 22  1  0
 18 23  1  0
 19 24  1  0
 19 25  1  0
 19 26  1  0
 20 27  1  0
 21 27  2  0
 22 28  2  0
 22 29  1  0
 23 30  1  0
 23 31  1  0
 28 32  1  0
 29 33  1  0
 25 34  1  0
 28 35  1  0
 29 36  2  0
 30 37  1  0
 31 38  1  0
 32 39  1  0
 35 40  1  0
 35 41  2  0
 36 41  1  0
 37 42  1  0
 38 42  1  0
 37 43  1  6
 40 44  1  0
 43 45  1  0
 46 45  1  1
 46 47  1  0
 46 48  1  0
 48 49  1  0
 48 50  1  0
 47 51  1  0
 48 52  1  0
 51 52  2  0
M  END
