x2193-x3110-x1358-x0786
     RDKit          3D

 66 73  0  0  0  0  0  0  0  0999 V2000
    8.0620    1.3390   23.2810 N   0  0  0  0  0  0  0  0  0  0  0  0
    9.0120    2.2160   23.7760 C   0  0  0  0  0  0  0  0  0  0  0  0
   10.3800    1.9800   23.6170 C   0  0  0  0  0  0  0  0  0  0  0  0
    7.7780    0.9030   21.9190 C   0  0  0  0  0  0  0  0  0  0  0  0
    8.5890    1.4340   20.9520 O   0  0  0  0  0  0  0  0  0  0  0  0
    6.8410    0.1520   21.6590 C   0  0  2  0  0  0  0  0  0  0  0  0
    7.2890   -1.3520   21.6100 C   0  0  1  0  0  0  0  0  0  0  0  0
   11.1330    3.2980   23.4600 C   0  0  0  0  0  0  0  0  0  0  0  0
    6.1710    0.6950   20.3480 C   0  0  0  0  0  0  0  0  0  0  0  0
   11.9380    3.2560   22.5360 O   0  0  0  0  0  0  0  0  0  0  0  0
   10.9480    4.2710   24.1810 O   0  0  0  0  0  0  0  0  0  0  0  0
    4.9810    1.3940   20.2590 C   0  0  0  0  0  0  0  0  0  0  0  0
    6.8280    0.4520   19.1640 C   0  0  0  0  0  0  0  0  0  0  0  0
    8.7130   -1.5050   22.3190 C   0  0  0  0  0  0  0  0  0  0  0  0
    6.3510   -2.5310   22.0940 C   0  0  1  0  0  0  0  0  0  0  0  0
    6.8340   -1.7990   20.1030 C   0  0  0  0  0  0  0  0  0  0  0  0
   12.2780    4.5330   21.9850 C   0  0  0  0  0  0  0  0  0  0  0  0
    6.0950   -3.1150   20.3180 C   0  0  0  0  0  0  0  0  0  0  0  0
    6.4090    0.8490   17.8120 N   0  0  0  0  0  0  0  0  0  0  0  0
    4.4610    1.8580   18.9010 C   0  0  0  0  0  0  0  0  0  0  0  0
    9.8460   -1.1090   21.6580 C   0  0  0  0  0  0  0  0  0  0  0  0
    8.9320   -2.0180   23.6140 C   0  0  0  0  0  0  0  0  0  0  0  0
    6.8770   -3.8270   21.2940 C   0  0  1  0  0  0  0  0  0  0  0  0
    5.4660   -2.6080   23.1900 C   0  0  0  0  0  0  0  0  0  0  0  0
   13.3540    5.1450   22.8480 C   0  0  0  0  0  0  0  0  0  0  0  0
    4.9850   -3.4830   19.8700 O   0  0  0  0  0  0  0  0  0  0  0  0
    8.3510   -4.2320   20.8980 C   0  0  0  0  0  0  0  0  0  0  0  0
    5.1540    1.5960   17.7230 C   0  0  0  0  0  0  0  0  0  0  0  0
   11.1060   -1.2110   22.2470 C   0  0  0  0  0  0  0  0  0  0  0  0
   10.1500   -2.1100   24.1850 C   0  0  0  0  0  0  0  0  0  0  0  0
    5.5300   -4.0090   23.8140 C   0  0  2  0  0  0  0  0  0  0  0  0
    6.1530   -5.1220   21.6090 C   0  0  0  0  0  0  0  0  0  0  0  0
    8.0160   -2.5500   24.6370 C   0  0  0  0  0  0  0  0  0  0  0  0
   11.2340   -1.7120   23.5240 C   0  0  0  0  0  0  0  0  0  0  0  0
    5.1300   -4.9080   22.6680 C   0  0  1  0  0  0  0  0  0  0  0  0
    4.6860   -4.0620   25.0970 C   0  0  2  0  0  0  0  0  0  0  0  0
    8.3540   -3.9240   25.0370 N   0  0  0  0  0  0  0  0  0  0  0  0
   12.5520   -1.7830   24.1450 C   0  0  0  0  0  0  0  0  0  0  0  0
    5.3810   -3.6620   26.3870 C   0  0  0  0  0  0  0  0  0  0  0  0
    4.7470   -6.2590   23.1280 C   0  0  0  0  0  0  0  0  0  0  0  0
    4.1610   -5.3350   25.3020 C   0  0  0  0  0  0  0  0  0  0  0  0
    8.6710   -4.1290   26.4600 C   0  0  0  0  0  0  0  0  0  0  0  0
    9.3320   -4.6530   24.2180 C   0  0  0  0  0  0  0  0  0  0  0  0
   12.7990   -0.5470   24.7290 C   0  0  0  0  0  0  0  0  0  0  0  0
   13.5180   -1.9750   23.0060 C   0  0  0  0  0  0  0  0  0  0  0  0
   12.7800   -2.8960   25.1880 C   0  0  0  0  0  0  0  0  0  0  0  0
    6.1770   -2.4660   26.2970 N   0  0  0  0  0  0  0  0  0  0  0  0
    3.7470   -5.9760   24.1670 C   0  0  2  0  0  0  0  0  0  0  0  0
    8.5660   -5.4700   26.8040 C   0  0  0  0  0  0  0  0  0  0  0  0
    9.2530   -5.9840   24.5290 C   0  0  0  0  0  0  0  0  0  0  0  0
    2.9180   -7.2110   24.3450 C   0  0  0  0  0  0  0  0  0  0  0  0
    6.0850   -1.3900   27.1640 C   0  0  0  0  0  0  0  0  0  0  0  0
    9.5060   -6.2090   25.9610 N   0  0  0  0  0  0  0  0  0  0  0  0
    3.4270   -8.1470   24.9560 O   0  0  0  0  0  0  0  0  0  0  0  0
    1.5980   -7.2080   23.7370 N   0  0  0  0  0  0  0  0  0  0  0  0
    5.8390    0.0020   26.5880 C   0  0  0  0  0  0  0  0  0  0  0  0
    6.2210   -1.5630   28.5480 C   0  0  0  0  0  0  0  0  0  0  0  0
    5.6940    0.1390   25.2360 O   0  0  0  0  0  0  0  0  0  0  0  0
    1.0290   -6.0130   23.1090 C   0  0  0  0  0  0  0  0  0  0  0  0
    0.6150   -8.2020   24.1630 C   0  0  0  0  0  0  0  0  0  0  0  0
    6.1560   -0.4710   29.4070 C   0  0  0  0  0  0  0  0  0  0  0  0
    5.7720    1.0910   27.4500 C   0  0  0  0  0  0  0  0  0  0  0  0
    0.2490   -5.1630   24.1420 C   0  0  0  0  0  0  0  0  0  0  0  0
   -0.3190   -7.5700   25.2280 C   0  0  0  0  0  0  0  0  0  0  0  0
    5.9470    0.8300   28.9590 C   0  0  0  0  0  0  0  0  0  0  0  0
   -1.2140   -6.1060   24.6610 S   0  0  0  0  0  0  0  0  0  0  0  0
  1  2  1  0
  2  3  1  0
  1  4  1  0
  4  5  2  0
  6  4  1  6
  6  7  1  0
  3  8  1  0
  6  9  1  0
  8 10  1  0
  8 11  2  0
  9 12  2  0
  9 13  1  0
  7 14  1  6
  7 15  1  0
  7 16  1  0
 10 17  1  0
 16 18  1  0
 13 19  2  0
 12 20  1  0
 14 21  2  0
 14 22  1  0
 15 23  1  0
 18 23  1  0
 15 24  1  1
 17 25  1  0
 18 26  2  0
 23 27  1  6
 19 28  1  0
 20 28  2  0
 21 29  1  0
 22 30  2  0
 31 24  1  6
 23 32  1  0
 22 33  1  0
 29 34  2  0
 30 34  1  0
 31 35  1  0
 35 32  1  6
 31 36  1  0
 33 37  1  0
 34 38  1  0
 36 39  1  1
 35 40  1  0
 36 41  1  0
 37 42  1  0
 37 43  1  0
 38 44  1  0
 38 45  1  0
 38 46  1  0
 39 47  1  0
 40 48  1  0
 41 48  1  0
 42 49  1  0
 43 50  1  0
 48 51  1  1
 47 52  1  0
 49 53  1  0
 50 53  1  0
 51 54  2  0
 51 55  1  0
 52 56  2  0
 52 57  1  0
 56 58  1  0
 55 59  1  0
 55 60  1  0
 57 61  2  0
 56 62  1  0
 59 63  1  0
 60 64  1  0
 61 65  1  0
 62 65  2  0
 63 66  1  0
 64 66  1  0
M  END
