x2193-x1374-x2694-x2052
     RDKit          3D

 67 73  0  0  0  0  0  0  0  0999 V2000
    7.8500   -1.0800   21.7710 N   0  0  0  0  0  0  0  0  0  0  0  0
    7.2630    0.3270   21.5890 C   0  0  1  0  0  0  0  0  0  0  0  0
    8.1670    1.5450   21.8000 C   0  0  0  0  0  0  0  0  0  0  0  0
    9.1290   -1.3850   22.2870 C   0  0  2  0  0  0  0  0  0  0  0  0
    7.0270   -2.0990   22.4080 C   0  0  2  0  0  0  0  0  0  0  0  0
    6.5390    0.5530   20.2760 C   0  0  0  0  0  0  0  0  0  0  0  0
    9.1530   -1.4050   23.6580 N   0  0  0  0  0  0  0  0  0  0  0  0
   10.2390   -0.8950   21.8260 C   0  0  0  0  0  0  0  0  0  0  0  0
    6.6280   -3.1790   21.6720 C   0  0  0  0  0  0  0  0  0  0  0  0
    6.0360   -1.5540   23.1260 C   0  0  0  0  0  0  0  0  0  0  0  0
    7.6820    2.4840   22.6980 N   0  0  0  0  0  0  0  0  0  0  0  0
    9.2100    1.7300   21.2090 O   0  0  0  0  0  0  0  0  0  0  0  0
    7.2090   -3.8180   20.4790 C   0  0  0  0  0  0  0  0  0  0  0  0
    5.3380   -2.8980   20.9970 C   0  0  0  0  0  0  0  0  0  0  0  0
    5.4070    1.3750   20.2920 C   0  0  0  0  0  0  0  0  0  0  0  0
    6.9490   -0.0010   19.0600 C   0  0  0  0  0  0  0  0  0  0  0  0
   10.2230   -0.4730   23.9700 O   0  0  0  0  0  0  0  0  0  0  0  0
   11.0500   -0.4220   22.8140 C   0  0  1  0  0  0  0  0  0  0  0  0
    5.3060   -2.4350   23.9120 C   0  0  2  0  0  0  0  0  0  0  0  0
    6.5060   -4.1760   22.5430 C   0  0  0  0  0  0  0  0  0  0  0  0
    9.8590   -2.6200   24.0900 C   0  0  0  0  0  0  0  0  0  0  0  0
   12.3850   -1.0420   23.0620 C   0  0  0  0  0  0  0  0  0  0  0  0
    6.3110   -4.2210   19.7210 O   0  0  0  0  0  0  0  0  0  0  0  0
    8.6540   -3.9570   20.3090 C   0  0  0  0  0  0  0  0  0  0  0  0
    5.0980   -1.7490   25.3000 C   0  0  0  0  0  0  0  0  0  0  0  0
    4.3840   -3.4810   21.4610 O   0  0  0  0  0  0  0  0  0  0  0  0
    5.2980   -2.1000   19.8320 C   0  0  0  0  0  0  0  0  0  0  0  0
    6.3410    0.2000   17.8690 N   0  0  0  0  0  0  0  0  0  0  0  0
    4.6960    1.6540   19.1400 C   0  0  0  0  0  0  0  0  0  0  0  0
    8.5190    3.6610   22.9960 C   0  0  0  0  0  0  0  0  0  0  0  0
    5.7560   -3.7620   23.7990 C   0  0  2  0  0  0  0  0  0  0  0  0
    8.9980   -3.6810   24.5100 N   0  0  0  0  0  0  0  0  0  0  0  0
   13.1820    0.1230   23.5440 C   0  0  0  0  0  0  0  0  0  0  0  0
   13.0550   -1.5990   21.8120 C   0  0  0  0  0  0  0  0  0  0  0  0
   12.5680   -1.9000   24.0810 C   0  0  0  0  0  0  0  0  0  0  0  0
    3.9860   -1.8430   25.7980 O   0  0  0  0  0  0  0  0  0  0  0  0
    6.0890   -1.0680   25.9190 N   0  0  0  0  0  0  0  0  0  0  0  0
    5.2630    0.9910   17.8920 C   0  0  0  0  0  0  0  0  0  0  0  0
    9.6960    3.4650   23.7280 C   0  0  0  0  0  0  0  0  0  0  0  0
    8.1860    4.9590   22.5770 C   0  0  0  0  0  0  0  0  0  0  0  0
    4.7560   -4.9430   24.0110 C   0  0  0  0  0  0  0  0  0  0  0  0
    9.1380   -3.9220   25.9440 C   0  0  2  0  0  0  0  0  0  0  0  0
    9.4450   -4.8500   23.8440 C   0  0  0  0  0  0  0  0  0  0  0  0
   10.0940    2.1030   24.2030 C   0  0  0  0  0  0  0  0  0  0  0  0
   10.5150    4.5400   24.0260 C   0  0  0  0  0  0  0  0  0  0  0  0
    9.0490    6.0110   22.9150 C   0  0  0  0  0  0  0  0  0  0  0  0
    4.2160   -5.4710   22.8570 C   0  0  0  0  0  0  0  0  0  0  0  0
    4.3670   -5.5620   25.2040 C   0  0  0  0  0  0  0  0  0  0  0  0
    5.9350   -0.3640   27.1530 C   0  0  0  0  0  0  0  0  0  0  0  0
   10.5490   -4.4100   26.2970 C   0  0  0  0  0  0  0  0  0  0  0  0
    8.2040   -5.0380   26.3940 C   0  0  0  0  0  0  0  0  0  0  0  0
    8.8930   -6.1630   24.3830 C   0  0  0  0  0  0  0  0  0  0  0  0
   10.2260    5.8420   23.6440 C   0  0  0  0  0  0  0  0  0  0  0  0
    4.0510   -6.7620   23.0510 C   0  0  0  0  0  0  0  0  0  0  0  0
    3.3980   -6.8110   24.6610 S   0  0  0  0  0  0  0  0  0  0  0  0
    6.3470    1.1310   27.2350 C   0  0  0  0  0  0  0  0  0  0  0  0
    5.4230   -0.9660   28.2940 C   0  0  0  0  0  0  0  0  0  0  0  0
    8.7610   -6.2440   25.8650 N   0  0  0  0  0  0  0  0  0  0  0  0
   10.9760    6.9520   23.9160 O   0  0  0  0  0  0  0  0  0  0  0  0
    2.0110   -6.4610   24.5130 O   0  0  0  0  0  0  0  0  0  0  0  0
    3.7820   -8.0820   25.2220 O   0  0  0  0  0  0  0  0  0  0  0  0
    6.2500    1.9530   28.3730 N   0  0  0  0  0  0  0  0  0  0  0  0
    5.2960   -0.0900   29.5770 C   0  0  0  0  0  0  0  0  0  0  0  0
   11.8890    6.8190   25.0060 C   0  0  0  0  0  0  0  0  0  0  0  0
    5.7500    1.3980   29.5000 C   0  0  0  0  0  0  0  0  0  0  0  0
    5.6120    2.1360   30.6600 O   0  0  0  0  0  0  0  0  0  0  0  0
    6.2970    3.3850   30.6320 C   0  0  0  0  0  0  0  0  0  0  0  0
  1  2  1  0
  2  3  1  6
  4  1  1  1
  5  1  1  6
  2  6  1  0
  4  7  1  0
  4  8  1  0
  5  9  1  0
  5 10  1  0
  3 11  1  0
  3 12  2  0
  9 13  1  0
  9 14  1  0
  6 15  2  0
  6 16  1  0
  7 17  1  0
  8 18  1  0
 17 18  1  0
 10 19  1  0
  9 20  1  0
  7 21  1  0
 18 22  1  1
 13 23  2  0
 13 24  1  0
 19 25  1  1
 14 26  2  0
 14 27  1  0
 16 28  2  0
 15 29  1  0
 11 30  1  0
 19 31  1  0
 20 31  1  0
 21 32  1  0
 22 33  1  0
 22 34  1  0
 22 35  1  0
 25 36  2  0
 25 37  1  0
 28 38  1  0
 29 38  2  0
 30 39  2  0
 30 40  1  0
 31 41  1  6
 32 42  1  0
 32 43  1  0
 39 44  1  0
 39 45  1  0
 40 46  2  0
 41 47  1  0
 41 48  2  0
 37 49  1  0
 42 50  1  6
 42 51  1  0
 43 52  1  0
 45 53  2  0
 46 53  1  0
 47 54  1  0
 48 55  1  0
 54 55  1  0
 49 56  2  0
 49 57  1  0
 51 58  1  0
 52 58  1  0
 53 59  1  0
 55 60  1  0
 55 61  1  0
 56 62  1  0
 57 63  2  0
 59 64  1  0
 62 65  2  0
 63 65  1  0
 65 66  1  0
 66 67  1  0
M  END
