x2193-x0771-x2705
     RDKit          3D

 57 62  0  0  0  0  0  0  0  0999 V2000
    7.8440   -0.7410   22.0570 N   0  0  0  0  0  0  0  0  0  0  0  0
    7.2400    0.4960   21.8020 C   0  0  1  0  0  0  0  0  0  0  0  0
    8.1710    1.7050   21.5760 C   0  0  0  0  0  0  0  0  0  0  0  0
    9.1460   -1.0920   22.5830 C   0  0  0  0  0  0  0  0  0  0  0  0
    6.3240    0.4190   20.5910 C   0  0  0  0  0  0  0  0  0  0  0  0
    9.6390   -1.6200   23.7530 N   0  0  0  0  0  0  0  0  0  0  0  0
   10.4020   -0.8970   21.7070 C   0  0  0  0  0  0  0  0  0  0  0  0
    7.9450    2.8720   22.3140 N   0  0  0  0  0  0  0  0  0  0  0  0
    9.0890    1.6390   20.7610 O   0  0  0  0  0  0  0  0  0  0  0  0
    4.9230    0.6210   20.6670 C   0  0  0  0  0  0  0  0  0  0  0  0
    6.7730    0.1420   19.2620 C   0  0  0  0  0  0  0  0  0  0  0  0
   11.0260   -1.7680   23.7940 N   0  0  0  0  0  0  0  0  0  0  0  0
   11.4830   -1.3480   22.6070 C   0  0  0  0  0  0  0  0  0  0  0  0
    8.8820   -2.0550   24.9730 C   0  0  0  0  0  0  0  0  0  0  0  0
   12.9250   -1.3690   22.3360 C   0  0  0  0  0  0  0  0  0  0  0  0
    6.0310    0.0570   18.1250 N   0  0  0  0  0  0  0  0  0  0  0  0
    4.0930    0.5460   19.5400 C   0  0  0  0  0  0  0  0  0  0  0  0
    8.9000    3.9810   22.5790 C   0  0  0  0  0  0  0  0  0  0  0  0
    8.7830   -3.5820   25.1880 N   0  0  0  0  0  0  0  0  0  0  0  0
   13.4650    0.0510   22.5760 C   0  0  0  0  0  0  0  0  0  0  0  0
   13.7080   -2.3680   23.2700 C   0  0  0  0  0  0  0  0  0  0  0  0
   13.2390   -1.7980   20.8300 C   0  0  0  0  0  0  0  0  0  0  0  0
    4.6480    0.2710   18.2750 C   0  0  0  0  0  0  0  0  0  0  0  0
   10.1400    3.7900   23.2600 C   0  0  0  0  0  0  0  0  0  0  0  0
    8.4330    5.4200   22.0240 C   0  0  0  0  0  0  0  0  0  0  0  0
    7.9280   -3.9800   26.2550 C   0  0  0  0  0  0  0  0  0  0  0  0
   10.0230   -4.4620   25.1530 C   0  0  0  0  0  0  0  0  0  0  0  0
   10.6340    2.4280   23.8240 C   0  0  0  0  0  0  0  0  0  0  0  0
    7.1360    5.7140   21.2870 C   0  0  0  0  0  0  0  0  0  0  0  0
   11.1360    4.9940   23.5040 C   0  0  0  0  0  0  0  0  0  0  0  0
    9.4010    6.5520   22.2780 C   0  0  0  0  0  0  0  0  0  0  0  0
    7.5170   -5.3320   26.3870 C   0  0  2  0  0  0  0  0  0  0  0  0
    9.8830   -5.8590   25.5680 C   0  0  0  0  0  0  0  0  0  0  0  0
    9.6580    1.8440   24.8620 C   0  0  0  0  0  0  0  0  0  0  0  0
   10.6920    6.3430   22.9810 C   0  0  0  0  0  0  0  0  0  0  0  0
    6.2350   -5.4160   27.3000 C   0  0  0  0  0  0  0  0  0  0  0  0
    8.8190   -6.0690   26.6790 N   0  0  0  0  0  0  0  0  0  0  0  0
    5.1440   -5.2950   25.6920 S   0  0  0  0  0  0  0  0  0  0  0  0
    7.0810   -5.5090   28.5460 C   0  0  0  0  0  0  0  0  0  0  0  0
    4.1330   -5.3240   26.7510 O   0  0  0  0  0  0  0  0  0  0  0  0
    3.3590   -5.2060   25.2770 C   0  0  0  0  0  0  0  0  0  0  0  0
    5.4370   -5.2220   23.9770 N   0  0  0  0  0  0  0  0  0  0  0  0
    2.4350   -6.3170   25.0850 C   0  0  0  0  0  0  0  0  0  0  0  0
    2.7560   -3.7750   25.0870 C   0  0  0  0  0  0  0  0  0  0  0  0
    5.1440   -6.3440   22.9920 C   0  0  0  0  0  0  0  0  0  0  0  0
    5.9720   -3.9960   23.3200 C   0  0  0  0  0  0  0  0  0  0  0  0
    2.7880   -7.8010   25.2040 C   0  0  0  0  0  0  0  0  0  0  0  0
    1.0500   -6.0700   24.7350 C   0  0  0  0  0  0  0  0  0  0  0  0
    1.2610   -3.6950   24.7220 C   0  0  0  0  0  0  0  0  0  0  0  0
    5.9750   -6.3610   21.6770 C   0  0  0  0  0  0  0  0  0  0  0  0
    7.0620   -4.3440   22.4760 C   0  0  0  0  0  0  0  0  0  0  0  0
    0.4430   -4.8270   24.5520 C   0  0  0  0  0  0  0  0  0  0  0  0
    6.5840   -5.0370   21.3050 N   0  0  0  0  0  0  0  0  0  0  0  0
   -1.0130   -4.6960   24.1910 C   0  0  0  0  0  0  0  0  0  0  0  0
    6.1360   -4.3280   20.1500 C   0  0  0  0  0  0  0  0  0  0  0  0
    4.9750   -4.3830   19.7680 O   0  0  0  0  0  0  0  0  0  0  0  0
    7.1890   -3.4800   19.3960 C   0  0  0  0  0  0  0  0  0  0  0  0
  2  1  1  6
  2  3  1  0
  1  4  1  0
  2  5  1  0
  4  6  1  0
  4  7  2  0
  3  8  1  0
  3  9  2  0
  5 10  2  0
  5 11  1  0
  6 12  1  0
  7 13  1  0
 12 13  2  0
  6 14  1  0
 13 15  1  0
 11 16  2  0
 10 17  1  0
  8 18  1  0
 14 19  1  0
 15 20  1  0
 15 21  1  0
 15 22  1  0
 16 23  1  0
 17 23  2  0
 18 24  2  0
 18 25  1  0
 19 26  1  0
 19 27  1  0
 24 28  1  0
 25 29  1  0
 24 30  1  0
 25 31  2  0
 26 32  1  0
 27 33  1  0
 28 34  1  0
 30 35  2  0
 31 35  1  0
 32 36  1  1
 32 37  1  0
 33 37  1  0
 36 38  2  0
 36 39  1  0
 38 40  2  0
 38 41  1  0
 38 42  1  0
 41 43  2  0
 41 44  1  0
 42 45  1  0
 42 46  1  0
 43 47  1  0
 43 48  1  0
 44 49  2  0
 45 50  1  0
 46 51  1  0
 48 52  2  0
 49 52  1  0
 50 53  1  0
 51 53  1  0
 52 54  1  0
 53 55  1  0
 55 56  2  0
 55 57  1  0
M  END
