x2193
     RDKit          3D

 16 17  0  0  0  0  0  0  0  0999 V2000
    9.1790   -3.7620   24.7490 N   0  0  0  0  0  0  0  0  0  0  0  0
   10.8650    2.6030   23.5950 C   0  0  0  0  0  0  0  0  0  0  0  0
   10.2730    1.6710   21.2470 O   0  0  0  0  0  0  0  0  0  0  0  0
    9.7140    0.0950   23.2390 C   0  0  0  0  0  0  0  0  0  0  0  0
    8.9410   -6.3890   25.7890 N   0  0  0  0  0  0  0  0  0  0  0  0
    8.4280    2.3060   22.7500 O   0  0  0  0  0  0  0  0  0  0  0  0
    9.8520   -0.9930   22.3930 C   0  0  0  0  0  0  0  0  0  0  0  0
    9.6990   -2.2710   22.9000 C   0  0  0  0  0  0  0  0  0  0  0  0
    9.4110   -2.4740   24.2510 C   0  0  0  0  0  0  0  0  0  0  0  0
    9.3140   -1.3660   25.0860 C   0  0  0  0  0  0  0  0  0  0  0  0
    9.4700   -0.0870   24.5890 C   0  0  0  0  0  0  0  0  0  0  0  0
    9.9680   -4.8650   24.1960 C   0  0  0  0  0  0  0  0  0  0  0  0
    9.2030   -6.1540   24.3580 C   0  0  0  0  0  0  0  0  0  0  0  0
    8.1570   -5.2840   26.3840 C   0  0  0  0  0  0  0  0  0  0  0  0
    8.8640   -3.9600   26.1710 C   0  0  0  0  0  0  0  0  0  0  0  0
    9.7350    1.7340   22.5750 S   0  0  1  0  0  0  0  0  0  0  0  0
  4  7  2  0
  7  8  1  0
  1  9  1  0
  8  9  2  0
  9 10  1  0
  4 11  1  0
 10 11  2  0
  1 12  1  0
  5 13  1  0
 12 13  1  0
  5 14  1  0
  1 15  1  0
 14 15  1  0
 16  2  1  1
  3 16  2  0
  4 16  1  0
  6 16  2  0
M  END
