x2193-x2694-x3115-x0769
     RDKit          3D

 58 63  0  0  0  0  0  0  0  0999 V2000
    6.8280   -1.2590   21.9150 N   0  0  0  0  0  0  0  0  0  0  0  0
    5.9660   -2.3200   21.2080 C   0  0  0  0  0  0  0  0  0  0  0  0
    4.7730   -3.0060   21.4280 O   0  0  0  0  0  0  0  0  0  0  0  0
    6.5890    0.1400   21.7790 C   0  0  1  0  0  0  0  0  0  0  0  0
    8.1660   -1.4150   22.5860 C   0  0  0  0  0  0  0  0  0  0  0  0
    6.5680   -2.7410   19.9670 C   0  0  0  0  0  0  0  0  0  0  0  0
    7.7400    1.0070   21.9160 C   0  0  0  0  0  0  0  0  0  0  0  0
    6.1010    0.5310   20.3900 C   0  0  0  0  0  0  0  0  0  0  0  0
    8.3050   -1.6540   23.9290 N   0  0  0  0  0  0  0  0  0  0  0  0
    9.4940   -1.3350   22.0720 C   0  0  0  0  0  0  0  0  0  0  0  0
    6.9850   -4.1640   20.1700 C   0  0  0  0  0  0  0  0  0  0  0  0
    7.5500    2.1520   22.8830 N   0  0  0  0  0  0  0  0  0  0  0  0
    8.7040    0.7600   21.2190 O   0  0  0  0  0  0  0  0  0  0  0  0
    4.9610    1.2850   20.1820 C   0  0  0  0  0  0  0  0  0  0  0  0
    6.8660    0.1250   19.1370 C   0  0  0  0  0  0  0  0  0  0  0  0
    9.6980   -1.7080   24.2090 O   0  0  0  0  0  0  0  0  0  0  0  0
   10.4560   -1.5090   23.0880 C   0  0  0  0  0  0  0  0  0  0  0  0
   12.0100   -1.5030   23.1340 C   0  0  0  0  0  0  0  0  0  0  0  0
    6.3510    0.5710   17.8080 N   0  0  0  0  0  0  0  0  0  0  0  0
    4.5500    1.6540   18.9190 C   0  0  0  0  0  0  0  0  0  0  0  0
    8.4510    3.2610   23.0680 C   0  0  0  0  0  0  0  0  0  0  0  0
    6.8000   -4.8620   21.5070 N   0  0  0  0  0  0  0  0  0  0  0  0
   12.4810   -0.3390   23.7370 C   0  0  0  0  0  0  0  0  0  0  0  0
   12.6620   -1.5890   21.7510 C   0  0  0  0  0  0  0  0  0  0  0  0
   12.6270   -2.7130   23.8770 C   0  0  0  0  0  0  0  0  0  0  0  0
    5.2400    1.3030   17.7770 C   0  0  0  0  0  0  0  0  0  0  0  0
    9.7200    3.1390   23.6650 C   0  0  0  0  0  0  0  0  0  0  0  0
    8.0510    4.5320   22.6400 C   0  0  0  0  0  0  0  0  0  0  0  0
    5.7010   -5.8520   21.6380 C   0  0  0  0  0  0  0  0  0  0  0  0
    7.5760   -4.4700   22.6590 C   0  0  0  0  0  0  0  0  0  0  0  0
   10.2330    1.8080   24.1440 C   0  0  0  0  0  0  0  0  0  0  0  0
   13.0020   -2.6090   25.2150 C   0  0  0  0  0  0  0  0  0  0  0  0
   10.5570    4.2640   23.8400 C   0  0  0  0  0  0  0  0  0  0  0  0
    8.8890    5.6520   22.8150 C   0  0  0  0  0  0  0  0  0  0  0  0
    4.9350   -5.6770   22.7650 C   0  0  0  0  0  0  0  0  0  0  0  0
    6.6790   -4.1700   23.6450 C   0  0  0  0  0  0  0  0  0  0  0  0
    8.4200    6.9870   22.3360 C   0  0  0  0  0  0  0  0  0  0  0  0
   10.1410    5.5140   23.4240 C   0  0  0  0  0  0  0  0  0  0  0  0
    5.6580   -5.1970   23.9710 N   0  0  0  0  0  0  0  0  0  0  0  0
   11.1000    6.5530   23.6850 O   0  0  0  0  0  0  0  0  0  0  0  0
    4.8630   -5.1110   25.5270 S   0  0  2  0  0  0  0  0  0  0  0  0
   11.8620    6.4830   24.8870 C   0  0  0  0  0  0  0  0  0  0  0  0
    6.0430   -4.7000   26.6490 N   0  0  0  0  0  0  0  0  0  0  0  0
    4.2810   -6.4050   25.8140 O   0  0  0  0  0  0  0  0  0  0  0  0
    3.6870   -3.8090   25.6930 C   0  0  0  0  0  0  0  0  0  0  0  0
    6.9310   -5.7270   27.2160 C   0  0  0  0  0  0  0  0  0  0  0  0
    4.1560   -2.5060   26.0250 C   0  0  0  0  0  0  0  0  0  0  0  0
    2.1980   -4.0740   25.4980 C   0  0  0  0  0  0  0  0  0  0  0  0
    5.4630   -2.2750   26.2000 F   0  0  0  0  0  0  0  0  0  0  0  0
    8.1530   -5.5200   26.7190 C   0  0  1  0  0  0  0  0  0  0  0  0
    1.3080   -3.0320   25.6500 C   0  0  0  0  0  0  0  0  0  0  0  0
    3.2550   -1.4440   26.1790 C   0  0  0  0  0  0  0  0  0  0  0  0
    8.1580   -5.8660   25.3130 N   0  0  0  0  0  0  0  0  0  0  0  0
    8.6520   -4.0690   26.7600 C   0  0  0  0  0  0  0  0  0  0  0  0
    1.8950   -1.6710   26.0080 C   0  0  0  0  0  0  0  0  0  0  0  0
    9.2460   -3.6010   25.4820 N   0  0  0  0  0  0  0  0  0  0  0  0
    9.5060   -5.8730   24.8340 C   0  0  0  0  0  0  0  0  0  0  0  0
    9.9760   -4.5810   24.8210 C   0  0  0  0  0  0  0  0  0  0  0  0
  1  2  1  0
  2  3  2  0
  1  4  1  0
  1  5  1  0
  2  6  1  0
  4  7  1  6
  4  8  1  0
  5  9  2  0
  5 10  1  0
  6 11  1  0
  7 12  1  0
  7 13  2  0
  8 14  2  0
  8 15  1  0
  9 16  1  0
 10 17  2  0
 16 17  1  0
 17 18  1  0
 15 19  2  0
 14 20  1  0
 12 21  1  0
 11 22  1  0
 18 23  1  0
 18 24  1  0
 18 25  1  0
 19 26  1  0
 20 26  2  0
 21 27  2  0
 21 28  1  0
 22 29  1  0
 22 30  1  0
 27 31  1  0
 25 32  1  0
 27 33  1  0
 28 34  2  0
 29 35  1  0
 30 36  1  0
 34 37  1  0
 33 38  2  0
 34 38  1  0
 35 39  1  0
 36 39  1  0
 38 40  1  0
 39 41  1  0
 40 42  1  0
 41 43  2  0
 41 44  2  0
 41 45  1  6
 43 46  1  0
 45 47  2  0
 45 48  1  0
 47 49  1  0
 50 46  1  6
 48 51  2  0
 47 52  1  0
 50 53  1  0
 50 54  1  0
 51 55  1  0
 52 55  2  0
 54 56  1  0
 53 57  1  0
 56 58  1  0
 57 58  1  0
M  END
