x2193-x3110-x3124-x1311
     RDKit          3D

 48 51  0  0  0  0  0  0  0  0999 V2000
    7.8840    1.3420   23.2670 N   0  0  0  0  0  0  0  0  0  0  0  0
    8.7590    2.4630   23.5310 C   0  0  0  0  0  0  0  0  0  0  0  0
   10.2900    2.1710   23.5500 C   0  0  0  0  0  0  0  0  0  0  0  0
    7.6440    0.8330   21.9300 C   0  0  0  0  0  0  0  0  0  0  0  0
    8.3220    1.2880   20.9780 O   0  0  0  0  0  0  0  0  0  0  0  0
    6.5300   -0.2440   21.6870 C   0  0  2  0  0  0  0  0  0  0  0  0
    6.8620   -1.5850   21.8370 N   0  0  0  0  0  0  0  0  0  0  0  0
   11.1890    3.3920   23.4030 C   0  0  0  0  0  0  0  0  0  0  0  0
    6.1310    0.2240   20.2910 C   0  0  0  0  0  0  0  0  0  0  0  0
   11.9560    3.2830   22.4600 O   0  0  0  0  0  0  0  0  0  0  0  0
   11.1350    4.3600   24.1440 O   0  0  0  0  0  0  0  0  0  0  0  0
    6.0430   -2.6820   21.2280 C   0  0  0  0  0  0  0  0  0  0  0  0
    5.0380    1.0830   20.1770 C   0  0  0  0  0  0  0  0  0  0  0  0
    6.8640   -0.1980   19.1590 C   0  0  0  0  0  0  0  0  0  0  0  0
    8.2250   -1.6750   22.4420 C   0  0  0  0  0  0  0  0  0  0  0  0
   12.4140    4.5320   21.9250 C   0  0  0  0  0  0  0  0  0  0  0  0
    4.8020   -3.1010   21.4720 O   0  0  0  0  0  0  0  0  0  0  0  0
    6.6250   -3.4620   20.1040 C   0  0  0  0  0  0  0  0  0  0  0  0
    6.4190    0.3260   17.8580 N   0  0  0  0  0  0  0  0  0  0  0  0
    4.5980    1.5870   18.9740 C   0  0  0  0  0  0  0  0  0  0  0  0
    9.3050   -1.3480   21.6350 C   0  0  0  0  0  0  0  0  0  0  0  0
    8.6260   -2.0540   23.8510 C   0  0  0  0  0  0  0  0  0  0  0  0
   13.4320    5.1930   22.8380 C   0  0  0  0  0  0  0  0  0  0  0  0
    8.0600   -3.9010   20.3440 C   0  0  0  0  0  0  0  0  0  0  0  0
    5.2700    1.2260   17.8350 C   0  0  0  0  0  0  0  0  0  0  0  0
   10.6440   -1.3600   22.0820 C   0  0  0  0  0  0  0  0  0  0  0  0
    9.9300   -2.0480   24.2920 C   0  0  0  0  0  0  0  0  0  0  0  0
    7.7950   -2.4940   24.9900 C   0  0  0  0  0  0  0  0  0  0  0  0
   11.0040   -1.7220   23.5120 C   0  0  0  0  0  0  0  0  0  0  0  0
    8.5710   -3.6340   25.5610 N   0  0  0  0  0  0  0  0  0  0  0  0
   12.4260   -1.7310   24.0930 C   0  0  0  0  0  0  0  0  0  0  0  0
    8.2810   -4.0870   26.9240 C   0  0  0  0  0  0  0  0  0  0  0  0
    9.4500   -4.4840   24.6960 C   0  0  0  0  0  0  0  0  0  0  0  0
   12.5740   -0.5440   24.7890 C   0  0  0  0  0  0  0  0  0  0  0  0
   13.3970   -1.8620   22.8960 C   0  0  0  0  0  0  0  0  0  0  0  0
   12.7970   -2.8360   25.1140 C   0  0  0  0  0  0  0  0  0  0  0  0
    7.8370   -5.3970   26.9670 C   0  0  2  0  0  0  0  0  0  0  0  0
    9.1730   -5.8250   24.8910 C   0  0  0  0  0  0  0  0  0  0  0  0
    8.7780   -6.2640   26.2410 N   0  0  0  0  0  0  0  0  0  0  0  0
    6.4180   -5.5280   26.3430 C   0  0  0  0  0  0  0  0  0  0  0  0
    6.4570   -5.3640   24.9380 C   0  0  0  0  0  0  0  0  0  0  0  0
    5.1920   -5.2570   24.1360 C   0  0  1  0  0  0  0  0  0  0  0  0
    5.6760   -5.5220   22.7220 C   0  0  0  0  0  0  0  0  0  0  0  0
    3.8150   -6.4290   24.5080 S   0  0  0  0  0  0  0  0  0  0  0  0
    4.2860   -7.6130   25.2030 O   0  0  0  0  0  0  0  0  0  0  0  0
    2.5360   -5.7970   24.7590 O   0  0  0  0  0  0  0  0  0  0  0  0
    4.7800   -6.3340   22.1060 C   0  0  0  0  0  0  0  0  0  0  0  0
    3.7430   -6.8750   22.8000 C   0  0  0  0  0  0  0  0  0  0  0  0
  1  2  1  0
  2  3  1  0
  1  4  1  0
  4  5  2  0
  6  4  1  6
  6  7  1  0
  3  8  1  0
  6  9  1  0
  8 10  1  0
  8 11  2  0
  7 12  1  0
  9 13  2  0
  9 14  1  0
  7 15  1  0
 10 16  1  0
 12 17  2  0
 12 18  1  0
 14 19  2  0
 13 20  1  0
 15 21  2  0
 15 22  1  0
 16 23  1  0
 18 24  1  0
 19 25  1  0
 20 25  2  0
 21 26  1  0
 22 27  2  0
 22 28  1  0
 26 29  2  0
 27 29  1  0
 28 30  1  0
 29 31  1  0
 30 32  1  0
 30 33  1  0
 31 34  1  0
 31 35  1  0
 31 36  1  0
 32 37  1  0
 33 38  1  0
 37 39  1  0
 38 39  1  0
 37 40  1  6
 40 41  1  0
 42 41  1  1
 42 43  1  0
 42 44  1  0
 44 45  1  0
 44 46  1  0
 43 47  1  0
 44 48  1  0
 47 48  2  0
M  END
