x2540-x0981-x0387
     RDKit          3D

 53 56  0  0  0  0  0  0  0  0999 V2000
    6.8890   -1.4460   21.8770 C   0  0  1  0  0  0  0  0  0  0  0  0
    6.0510   -2.6310   21.0840 C   0  0  0  0  0  0  0  0  0  0  0  0
    4.7680   -2.9150   21.1400 O   0  0  0  0  0  0  0  0  0  0  0  0
    6.5990   -0.0370   21.6110 C   0  0  1  0  0  0  0  0  0  0  0  0
    6.2640   -1.8740   23.2090 C   0  0  0  0  0  0  0  0  0  0  0  0
    8.4800   -1.7040   21.9000 C   0  0  2  0  0  0  0  0  0  0  0  0
    6.7680   -3.6600   20.2780 C   0  0  0  0  0  0  0  0  0  0  0  0
    7.5600    1.0280   21.6810 C   0  0  0  0  0  0  0  0  0  0  0  0
    5.8770   -3.2460   23.3250 C   0  0  0  0  0  0  0  0  0  0  0  0
    6.0460    0.4070   20.2730 C   0  0  0  0  0  0  0  0  0  0  0  0
    8.8340   -2.5750   23.0370 N   0  0  0  0  0  0  0  0  0  0  0  0
    9.6050   -0.6580   22.2010 C   0  0  0  0  0  0  0  0  0  0  0  0
    7.4670   -3.1560   19.0680 C   0  0  0  0  0  0  0  0  0  0  0  0
    7.3320    1.9860   22.6420 N   0  0  0  0  0  0  0  0  0  0  0  0
    8.5020    1.1480   20.8920 O   0  0  0  0  0  0  0  0  0  0  0  0
    6.8240   -4.2800   23.0120 C   0  0  0  0  0  0  0  0  0  0  0  0
    4.7700    1.1930   20.2320 C   0  0  0  0  0  0  0  0  0  0  0  0
    6.8170    0.0840   18.9790 C   0  0  0  0  0  0  0  0  0  0  0  0
    9.6440   -1.8570   24.0330 C   0  0  2  0  0  0  0  0  0  0  0  0
   10.5870   -1.2770   23.1570 C   0  0  2  0  0  0  0  0  0  0  0  0
    8.4110    2.6390   23.3720 C   0  0  0  0  0  0  0  0  0  0  0  0
    6.3910   -5.6180   22.3710 C   0  0  0  0  0  0  0  0  0  0  0  0
    6.3350    0.5480   17.6940 N   0  0  0  0  0  0  0  0  0  0  0  0
    4.4110    1.5950   18.8340 C   0  0  0  0  0  0  0  0  0  0  0  0
    9.7060   -2.7150   25.0540 N   0  0  0  0  0  0  0  0  0  0  0  0
   11.6890   -0.3120   23.7290 C   0  0  1  0  0  0  0  0  0  0  0  0
   11.3490   -2.2110   22.2450 C   0  0  0  0  0  0  0  0  0  0  0  0
    8.5190    1.9630   24.7570 C   0  0  0  0  0  0  0  0  0  0  0  0
    8.0960    4.1420   23.5300 C   0  0  0  0  0  0  0  0  0  0  0  0
    9.7290    2.5650   22.5420 C   0  0  0  0  0  0  0  0  0  0  0  0
   12.1860   -0.8550   25.0410 C   0  0  0  0  0  0  0  0  0  0  0  0
    4.9970   -6.1050   22.4580 N   0  0  0  0  0  0  0  0  0  0  0  0
    5.1970    1.2570   17.7120 C   0  0  0  0  0  0  0  0  0  0  0  0
    8.3250   -2.9500   25.5420 C   0  0  0  0  0  0  0  0  0  0  0  0
   10.4260   -3.9800   24.8590 C   0  0  0  0  0  0  0  0  0  0  0  0
   12.9640   -1.6250   21.7800 S   0  0  0  0  0  0  0  0  0  0  0  0
   12.8990   -0.2290   22.8510 C   0  0  0  0  0  0  0  0  0  0  0  0
   13.0040   -2.1820   24.8430 C   0  0  0  0  0  0  0  0  0  0  0  0
    4.1320   -5.6450   23.5610 C   0  0  0  0  0  0  0  0  0  0  0  0
    8.2520   -4.2610   26.2710 C   0  0  0  0  0  0  0  0  0  0  0  0
   10.5180   -4.7290   26.0340 C   0  0  0  0  0  0  0  0  0  0  0  0
    2.6920   -6.1100   23.5810 C   0  0  1  0  0  0  0  0  0  0  0  0
    4.5500   -4.8900   24.4950 O   0  0  0  0  0  0  0  0  0  0  0  0
    9.3670   -4.4970   27.0290 C   0  0  0  0  0  0  0  0  0  0  0  0
    2.5660   -7.1600   22.7450 N   0  0  0  0  0  0  0  0  0  0  0  0
    2.3350   -6.3430   24.9050 C   0  0  0  0  0  0  0  0  0  0  0  0
    9.2050   -5.5420   27.9330 O   0  0  0  0  0  0  0  0  0  0  0  0
    1.3040   -7.5090   22.0700 C   0  0  0  0  0  0  0  0  0  0  0  0
    2.8940   -7.7400   25.4120 C   0  0  0  0  0  0  0  0  0  0  0  0
    1.1470   -8.7370   21.3590 C   0  0  0  0  0  0  0  0  0  0  0  0
    0.2140   -6.6610   22.0620 O   0  0  0  0  0  0  0  0  0  0  0  0
    2.2980   -8.3060   26.4900 N   0  0  0  0  0  0  0  0  0  0  0  0
    3.9700   -8.2810   24.6920 O   0  0  0  0  0  0  0  0  0  0  0  0
  1  2  1  0
  2  3  2  0
  1  4  1  0
  1  5  1  1
  1  6  1  0
  2  7  1  0
  4  8  1  6
  5  9  1  0
  4 10  1  0
  6 11  1  0
  6 12  1  1
  7 13  1  0
  8 14  1  0
  8 15  2  0
  9 16  1  0
 10 17  2  0
 10 18  1  0
 11 19  1  0
 20 12  1  6
 19 20  1  0
 21 14  1  0
 16 22  1  0
 18 23  2  0
 17 24  1  0
 19 25  1  1
 20 26  1  0
 20 27  1  0
 21 28  1  0
 21 29  1  0
 21 30  1  0
 26 31  1  1
 22 32  1  0
 23 33  1  0
 24 33  2  0
 25 34  1  0
 25 35  1  0
 27 36  2  0
 26 37  1  0
 36 37  2  0
 31 38  1  0
 32 39  1  0
 34 40  1  0
 35 41  1  0
 39 42  1  0
 39 43  2  0
 40 44  1  0
 41 44  1  0
 42 45  1  0
 42 46  1  1
 44 47  1  0
 45 48  1  0
 46 49  1  0
 48 50  1  0
 48 51  2  0
 49 52  1  0
 49 53  2  0
M  END
