x2540-x1380
     RDKit          3D

 42 46  0  0  0  0  0  0  0  0999 V2000
    6.5920   -1.3650   21.9400 N   0  0  0  0  0  0  0  0  0  0  0  0
    5.6590   -2.2770   21.2180 C   0  0  0  0  0  0  0  0  0  0  0  0
    4.5660   -2.9060   21.5640 O   0  0  0  0  0  0  0  0  0  0  0  0
    6.5990    0.0700   21.7520 C   0  0  1  0  0  0  0  0  0  0  0  0
    7.7310   -2.1280   22.4100 C   0  0  1  0  0  0  0  0  0  0  0  0
    6.1110   -2.6800   19.9020 C   0  0  0  0  0  0  0  0  0  0  0  0
    7.8000    0.8760   21.8840 C   0  0  0  0  0  0  0  0  0  0  0  0
    6.0640    0.5050   20.4450 C   0  0  0  0  0  0  0  0  0  0  0  0
    8.4150   -1.6870   23.4890 N   0  0  0  0  0  0  0  0  0  0  0  0
    6.9900   -3.4690   22.6440 C   0  0  1  0  0  0  0  0  0  0  0  0
    6.7140   -4.0510   20.0840 C   0  0  0  0  0  0  0  0  0  0  0  0
    7.6990    2.0080   22.6770 N   0  0  0  0  0  0  0  0  0  0  0  0
    8.8360    0.5960   21.2900 O   0  0  0  0  0  0  0  0  0  0  0  0
    4.9010    1.2430   20.3380 C   0  0  0  0  0  0  0  0  0  0  0  0
    6.8170    0.1550   19.1750 C   0  0  0  0  0  0  0  0  0  0  0  0
    9.7550   -2.3000   23.5310 O   0  0  0  0  0  0  0  0  0  0  0  0
    8.5030   -0.4320   23.9640 C   0  0  0  0  0  0  0  0  0  0  0  0
    7.0500   -4.4530   21.5080 N   0  0  0  0  0  0  0  0  0  0  0  0
    7.0760   -4.2130   23.8000 C   0  0  1  0  0  0  0  0  0  0  0  0
    8.7430    2.8530   23.2340 C   0  0  0  0  0  0  0  0  0  0  0  0
    6.3100   -3.6650   25.0500 C   0  0  0  0  0  0  0  0  0  0  0  0
    6.4030    0.5470   17.8520 N   0  0  0  0  0  0  0  0  0  0  0  0
    4.4050    1.6940   18.9720 C   0  0  0  0  0  0  0  0  0  0  0  0
    9.8760   -0.2630   24.4380 C   0  0  0  0  0  0  0  0  0  0  0  0
   10.7100   -1.4620   24.2950 C   0  0  2  0  0  0  0  0  0  0  0  0
    6.4360   -5.6640   22.0820 C   0  0  0  0  0  0  0  0  0  0  0  0
    6.7120   -5.5070   23.4620 C   0  0  0  0  0  0  0  0  0  0  0  0
    8.7450    2.8200   24.6610 C   0  0  0  0  0  0  0  0  0  0  0  0
    8.4290    4.1940   22.6430 C   0  0  0  0  0  0  0  0  0  0  0  0
   10.0420    2.5560   22.5680 C   0  0  0  0  0  0  0  0  0  0  0  0
   12.1300   -1.3190   23.6880 C   0  0  0  0  0  0  0  0  0  0  0  0
    5.1790   -3.1840   24.9260 O   0  0  0  0  0  0  0  0  0  0  0  0
    5.2130    1.3120   17.7680 C   0  0  0  0  0  0  0  0  0  0  0  0
    6.8510   -3.6920   26.3450 N   0  0  0  0  0  0  0  0  0  0  0  0
   12.2330   -1.6640   22.1960 C   0  0  0  0  0  0  0  0  0  0  0  0
   12.6380    0.0190   24.1520 C   0  0  0  0  0  0  0  0  0  0  0  0
   13.0240   -2.3910   24.3960 C   0  0  0  0  0  0  0  0  0  0  0  0
    7.9700   -4.3210   26.5780 C   0  0  0  0  0  0  0  0  0  0  0  0
    6.0820   -3.3750   27.5760 C   0  0  0  0  0  0  0  0  0  0  0  0
    7.7420   -5.4790   27.3070 C   0  0  0  0  0  0  0  0  0  0  0  0
    5.8550   -4.5630   28.4890 C   0  0  0  0  0  0  0  0  0  0  0  0
    7.1940   -5.3060   28.7110 C   0  0  0  0  0  0  0  0  0  0  0  0
  1  2  1  0
  2  3  2  0
  1  4  1  0
  1  5  1  0
  2  6  1  0
  4  7  1  6
  4  8  1  0
  5  9  1  1
  5 10  1  0
  6 11  1  0
  7 12  1  0
  7 13  2  0
  8 14  2  0
  8 15  1  0
  9 16  1  0
  9 17  1  0
 10 18  1  6
 11 18  1  0
 10 19  1  0
 20 12  1  0
 19 21  1  1
 15 22  2  0
 14 23  1  0
 17 24  2  0
 16 25  1  0
 24 25  1  0
 18 26  1  0
 19 27  1  0
 26 27  1  0
 20 28  1  0
 20 29  1  0
 20 30  1  0
 25 31  1  6
 21 32  2  0
 22 33  1  0
 23 33  2  0
 21 34  1  0
 31 35  1  0
 31 36  1  0
 31 37  1  0
 34 38  1  0
 34 39  1  0
 38 40  1  0
 39 41  1  0
 40 42  1  0
 41 42  1  0
M  END
