x2540-x3117
     RDKit          3D

 33 35  0  0  0  0  0  0  0  0999 V2000
    6.8740   -1.3410   21.9280 N   0  0  0  0  0  0  0  0  0  0  0  0
    6.0420   -2.5600   21.4600 C   0  0  0  0  0  0  0  0  0  0  0  0
    4.7370   -2.9530   21.3770 O   0  0  0  0  0  0  0  0  0  0  0  0
    6.6300    0.0630   21.7020 C   0  0  1  0  0  0  0  0  0  0  0  0
    8.1730   -1.4550   22.6580 C   0  0  0  0  0  0  0  0  0  0  0  0
    6.9510   -3.6210   20.9830 C   0  0  0  0  0  0  0  0  0  0  0  0
    7.7630    0.9910   21.8270 C   0  0  0  0  0  0  0  0  0  0  0  0
    6.0710    0.4420   20.4090 C   0  0  0  0  0  0  0  0  0  0  0  0
    8.3770   -1.6580   23.9990 N   0  0  0  0  0  0  0  0  0  0  0  0
    9.4570   -1.3730   22.1560 C   0  0  0  0  0  0  0  0  0  0  0  0
    7.0770   -3.4010   19.4990 C   0  0  0  0  0  0  0  0  0  0  0  0
    7.9570    1.8140   22.9180 N   0  0  0  0  0  0  0  0  0  0  0  0
    8.5490    1.1200   20.8870 O   0  0  0  0  0  0  0  0  0  0  0  0
    4.9210    1.1970   20.2830 C   0  0  0  0  0  0  0  0  0  0  0  0
    6.7540    0.0400   19.2430 C   0  0  0  0  0  0  0  0  0  0  0  0
    9.7510   -1.6950   24.3260 O   0  0  0  0  0  0  0  0  0  0  0  0
   10.5730   -1.5220   23.1530 C   0  0  0  0  0  0  0  0  0  0  0  0
   12.0860   -1.5500   23.3110 C   0  0  0  0  0  0  0  0  0  0  0  0
    6.3770    0.3450   17.9800 N   0  0  0  0  0  0  0  0  0  0  0  0
    4.4670    1.5610   18.8860 C   0  0  0  0  0  0  0  0  0  0  0  0
    8.5150    3.1480   22.6440 C   0  0  2  0  0  0  0  0  0  0  0  0
   12.5910   -2.0490   22.1080 C   0  0  0  0  0  0  0  0  0  0  0  0
   12.6060   -0.1970   23.6580 C   0  0  0  0  0  0  0  0  0  0  0  0
   12.1420   -2.3530   24.5730 C   0  0  0  0  0  0  0  0  0  0  0  0
    5.1760    1.1500   17.8080 C   0  0  0  0  0  0  0  0  0  0  0  0
    9.5230    3.5640   23.6890 C   0  0  0  0  0  0  0  0  0  0  0  0
    7.4160    4.1020   22.3940 C   0  0  0  0  0  0  0  0  0  0  0  0
    9.0130    3.1420   25.0630 C   0  0  0  0  0  0  0  0  0  0  0  0
   10.8520    2.9560   23.2300 C   0  0  0  0  0  0  0  0  0  0  0  0
   13.5280   -2.7050   25.0860 C   0  0  0  0  0  0  0  0  0  0  0  0
    9.7020    4.9930   23.8590 O   0  0  0  0  0  0  0  0  0  0  0  0
    7.5540    5.3110   23.0880 C   0  0  0  0  0  0  0  0  0  0  0  0
    8.8450    5.8350   23.0980 C   0  0  0  0  0  0  0  0  0  0  0  0
  1  2  1  0
  2  3  2  0
  1  4  1  0
  1  5  1  0
  2  6  1  0
  4  7  1  6
  4  8  1  0
  5  9  2  0
  5 10  1  0
  6 11  1  0
  7 12  1  0
  7 13  2  0
  8 14  2  0
  8 15  1  0
  9 16  1  0
 10 17  2  0
 16 17  1  0
 17 18  1  0
 15 19  2  0
 14 20  1  0
 21 12  1  1
 18 22  1  0
 18 23  1  0
 18 24  1  0
 19 25  1  0
 20 25  2  0
 21 26  1  0
 21 27  1  0
 26 28  1  0
 26 29  1  0
 24 30  1  0
 26 31  1  0
 27 32  1  0
 31 33  1  0
 32 33  1  0
M  END
