x2540-x0978-x0397
     RDKit          3D

 46 49  0  0  0  0  0  0  0  0999 V2000
    7.3780   -0.9680   21.9160 N   0  0  0  0  0  0  0  0  0  0  0  0
    6.9060   -1.8530   21.0040 C   0  0  2  0  0  0  0  0  0  0  0  0
    5.4950   -1.9740   20.9310 O   0  0  0  0  0  0  0  0  0  0  0  0
    6.8430    0.4230   21.7990 C   0  0  1  0  0  0  0  0  0  0  0  0
    8.5560   -1.2150   22.7060 C   0  0  0  0  0  0  0  0  0  0  0  0
    7.6740   -3.1460   21.0470 C   0  0  0  0  0  0  0  0  0  0  0  0
    7.9030    1.5560   21.8620 C   0  0  0  0  0  0  0  0  0  0  0  0
    7.3530   -1.2060   19.6660 C   0  0  0  0  0  0  0  0  0  0  0  0
    6.1620    0.7110   20.4730 C   0  0  0  0  0  0  0  0  0  0  0  0
    8.5380   -1.7530   24.0880 N   0  0  0  0  0  0  0  0  0  0  0  0
   10.0030   -1.0080   22.3470 C   0  0  0  0  0  0  0  0  0  0  0  0
    7.2220   -3.9140   19.8490 C   0  0  0  0  0  0  0  0  0  0  0  0
    7.7660    2.5790   22.7500 N   0  0  0  0  0  0  0  0  0  0  0  0
    9.0320    1.6350   20.9970 O   0  0  0  0  0  0  0  0  0  0  0  0
    5.1650    1.8200   20.2770 C   0  0  0  0  0  0  0  0  0  0  0  0
    6.4610   -0.0580   19.4280 C   0  0  0  0  0  0  0  0  0  0  0  0
    9.9050   -1.8280   24.4590 O   0  0  0  0  0  0  0  0  0  0  0  0
   10.6660   -1.3850   23.4180 C   0  0  0  0  0  0  0  0  0  0  0  0
    8.9020    3.1700   23.4610 C   0  0  0  0  0  0  0  0  0  0  0  0
   12.1840   -1.3530   23.5900 C   0  0  0  0  0  0  0  0  0  0  0  0
    6.3010   -4.7860   19.9030 N   0  0  0  0  0  0  0  0  0  0  0  0
    5.9190    0.1820   18.1120 N   0  0  0  0  0  0  0  0  0  0  0  0
    4.5020    2.1340   18.9900 C   0  0  0  0  0  0  0  0  0  0  0  0
    8.7650    2.9160   24.9530 C   0  0  0  0  0  0  0  0  0  0  0  0
    8.8530    4.6460   23.2060 C   0  0  0  0  0  0  0  0  0  0  0  0
   10.2770    2.6690   22.9690 C   0  0  0  0  0  0  0  0  0  0  0  0
   12.8400   -1.2960   22.3550 C   0  0  0  0  0  0  0  0  0  0  0  0
   12.5820   -0.0830   24.3580 C   0  0  0  0  0  0  0  0  0  0  0  0
   12.7010   -2.5260   24.4620 C   0  0  0  0  0  0  0  0  0  0  0  0
    3.5150    3.2280   18.9580 C   0  0  0  0  0  0  0  0  0  0  0  0
    4.9610    1.2540   17.8720 C   0  0  0  0  0  0  0  0  0  0  0  0
    5.6190   -5.2820   21.0370 C   0  0  0  0  0  0  0  0  0  0  0  0
    6.5330   -5.7620   22.1400 C   0  0  0  0  0  0  0  0  0  0  0  0
    6.0430   -5.2770   23.3290 C   0  0  0  0  0  0  0  0  0  0  0  0
    4.9670   -6.0210   23.9340 N   0  0  0  0  0  0  0  0  0  0  0  0
    6.6600   -4.2190   24.0710 C   0  0  0  0  0  0  0  0  0  0  0  0
    5.5770   -3.7080   23.2780 C   0  0  0  0  0  0  0  0  0  0  0  0
    3.8200   -6.1120   23.0590 C   0  0  0  0  0  0  0  0  0  0  0  0
    2.7260   -6.8130   23.4170 C   0  0  2  0  0  0  0  0  0  0  0  0
    1.6740   -5.7890   23.4830 N   0  0  0  0  0  0  0  0  0  0  0  0
    2.9330   -7.6020   24.7120 C   0  0  1  0  0  0  0  0  0  0  0  0
    1.9660   -8.5380   25.0460 C   0  0  0  0  0  0  0  0  0  0  0  0
    4.2100   -8.0520   24.6300 O   0  0  0  0  0  0  0  0  0  0  0  0
    0.6360   -6.1590   22.6690 C   0  0  0  0  0  0  0  0  0  0  0  0
    0.6550   -7.2820   21.7900 O   0  0  0  0  0  0  0  0  0  0  0  0
   -0.6170   -5.2730   22.7520 C   0  0  0  0  0  0  0  0  0  0  0  0
  1  2  1  0
  2  3  1  6
  1  4  1  0
  1  5  1  0
  2  6  1  0
  4  7  1  6
  2  8  1  0
  4  9  1  0
  5 10  2  0
  5 11  1  0
  6 12  1  0
  7 13  1  0
  7 14  2  0
  9 15  2  0
  8 16  1  0
  9 16  1  0
 10 17  1  0
 11 18  2  0
 17 18  1  0
 19 13  1  0
 18 20  1  0
 12 21  2  3
 16 22  2  0
 15 23  1  0
 19 24  1  0
 19 25  1  0
 19 26  1  0
 20 27  1  0
 20 28  1  0
 20 29  1  0
 23 30  1  0
 22 31  1  0
 23 31  2  0
 21 32  1  0
 32 33  1  0
 33 34  1  0
 34 35  1  0
 34 36  1  0
 34 37  1  0
 36 37  1  0
 35 38  2  3
 39 38  1  1
 39 40  1  0
 39 41  1  0
 41 42  1  6
 41 43  1  0
 40 44  1  0
 44 45  2  0
 44 46  1  0
M  END
