x2540-x1311
     RDKit          3D

 44 47  0  0  0  0  0  0  0  0999 V2000
    6.6940   -1.2480   22.1360 C   0  0  1  0  0  0  0  0  0  0  0  0
    5.9250   -2.3400   21.1810 C   0  0  0  0  0  0  0  0  0  0  0  0
    4.8020   -3.0580   21.4090 O   0  0  0  0  0  0  0  0  0  0  0  0
    6.6470    0.2330   21.6430 C   0  0  1  0  0  0  0  0  0  0  0  0
    5.7040   -1.4760   23.2470 C   0  0  0  0  0  0  0  0  0  0  0  0
    8.1630   -1.4060   22.8380 C   0  0  0  0  0  0  0  0  0  0  0  0
    6.5420   -2.5850   19.8890 C   0  0  0  0  0  0  0  0  0  0  0  0
    7.8550    1.2210   21.7810 C   0  0  0  0  0  0  0  0  0  0  0  0
    5.5710   -2.7150   23.8980 C   0  0  0  0  0  0  0  0  0  0  0  0
    6.1000    0.5720   20.2720 C   0  0  0  0  0  0  0  0  0  0  0  0
    8.3360   -1.8100   24.2200 N   0  0  0  0  0  0  0  0  0  0  0  0
    9.4290   -1.1590   22.3200 C   0  0  0  0  0  0  0  0  0  0  0  0
    6.8920   -4.0130   19.9440 C   0  0  0  0  0  0  0  0  0  0  0  0
    8.0290    1.8080   23.0410 N   0  0  0  0  0  0  0  0  0  0  0  0
    8.6060    1.5200   20.8620 O   0  0  0  0  0  0  0  0  0  0  0  0
    5.9430   -3.9920   23.1830 N   0  0  0  0  0  0  0  0  0  0  0  0
    4.9160    1.3010   20.1280 C   0  0  0  0  0  0  0  0  0  0  0  0
    6.7960    0.1730   19.1290 C   0  0  0  0  0  0  0  0  0  0  0  0
    9.7310   -1.7690   24.4450 O   0  0  0  0  0  0  0  0  0  0  0  0
   10.4220   -1.3660   23.3130 C   0  0  0  0  0  0  0  0  0  0  0  0
    8.9150    2.8540   23.3120 C   0  0  0  0  0  0  0  0  0  0  0  0
   11.9790   -1.2580   23.4840 C   0  0  0  0  0  0  0  0  0  0  0  0
    6.4090    0.4500   17.8630 N   0  0  0  0  0  0  0  0  0  0  0  0
    4.4760    1.6150   18.8760 C   0  0  0  0  0  0  0  0  0  0  0  0
    7.1620   -4.5500   23.6840 C   0  0  0  0  0  0  0  0  0  0  0  0
    4.9330   -4.9620   23.3480 C   0  0  1  0  0  0  0  0  0  0  0  0
    8.9420    3.0290   24.6770 C   0  0  0  0  0  0  0  0  0  0  0  0
    8.4570    4.1810   22.6750 C   0  0  0  0  0  0  0  0  0  0  0  0
   10.1710    2.5500   22.8130 C   0  0  0  0  0  0  0  0  0  0  0  0
   12.6780   -1.2340   22.2790 C   0  0  0  0  0  0  0  0  0  0  0  0
   12.3140    0.0490   24.2420 C   0  0  0  0  0  0  0  0  0  0  0  0
   12.5440   -2.3880   24.3820 C   0  0  0  0  0  0  0  0  0  0  0  0
    5.1890    1.2140   17.7870 C   0  0  0  0  0  0  0  0  0  0  0  0
    7.9120   -5.5750   23.0800 C   0  0  0  0  0  0  0  0  0  0  0  0
    7.6800   -4.0640   24.8800 C   0  0  0  0  0  0  0  0  0  0  0  0
    4.5160   -5.8110   22.3490 C   0  0  0  0  0  0  0  0  0  0  0  0
    4.9600   -5.5000   24.6270 C   0  0  0  0  0  0  0  0  0  0  0  0
    9.1630   -6.0930   23.6870 C   0  0  0  0  0  0  0  0  0  0  0  0
    8.8520   -4.5430   25.4420 C   0  0  0  0  0  0  0  0  0  0  0  0
    3.5970   -6.6230   24.5010 S   0  0  0  0  0  0  0  0  0  0  0  0
    3.6850   -6.7810   22.7660 C   0  0  0  0  0  0  0  0  0  0  0  0
    3.9370   -7.8380   25.2030 O   0  0  0  0  0  0  0  0  0  0  0  0
    2.3600   -5.9350   24.7710 O   0  0  0  0  0  0  0  0  0  0  0  0
    9.5690   -5.5530   24.8280 C   0  0  0  0  0  0  0  0  0  0  0  0
  1  2  1  0
  2  3  2  0
  1  4  1  0
  1  5  1  1
  1  6  1  0
  2  7  1  0
  4  8  1  6
  5  9  1  0
  4 10  1  0
  6 11  2  0
  6 12  1  0
  7 13  1  0
  8 14  1  0
  8 15  2  0
  9 16  1  0
 10 17  2  0
 10 18  1  0
 11 19  1  0
 12 20  2  0
 19 20  1  0
 21 14  1  0
 20 22  1  0
 18 23  2  0
 17 24  1  0
 16 25  1  0
 26 16  1  6
 21 27  1  0
 21 28  1  0
 21 29  1  0
 22 30  1  0
 22 31  1  0
 22 32  1  0
 23 33  1  0
 24 33  2  0
 25 34  2  0
 25 35  1  0
 26 36  1  0
 26 37  1  0
 34 38  1  0
 35 39  2  0
 37 40  1  0
 36 41  2  0
 40 41  1  0
 40 42  1  0
 40 43  1  0
 38 44  2  0
 39 44  1  0
M  END
