x2540-x1374
     RDKit          3D

 44 47  0  0  0  0  0  0  0  0999 V2000
    6.9320   -1.2360   22.0250 N   0  0  0  0  0  0  0  0  0  0  0  0
    6.2120   -2.5040   21.4000 C   0  0  0  0  0  0  0  0  0  0  0  0
    4.8790   -3.0450   21.2760 O   0  0  0  0  0  0  0  0  0  0  0  0
    6.6150    0.2130   21.6660 C   0  0  1  0  0  0  0  0  0  0  0  0
    8.2840   -1.2210   22.8480 C   0  0  1  0  0  0  0  0  0  0  0  0
    7.2820   -3.3690   20.7930 C   0  0  0  0  0  0  0  0  0  0  0  0
    7.7650    1.3000   21.7920 C   0  0  0  0  0  0  0  0  0  0  0  0
    6.1390    0.5520   20.2740 C   0  0  0  0  0  0  0  0  0  0  0  0
    8.5150   -1.8610   24.0870 N   0  0  0  0  0  0  0  0  0  0  0  0
    9.5740   -1.2410   22.2650 C   0  0  0  0  0  0  0  0  0  0  0  0
    7.3390   -3.2580   19.3090 C   0  0  0  0  0  0  0  0  0  0  0  0
    7.7950    1.9640   23.0050 N   0  0  0  0  0  0  0  0  0  0  0  0
    8.5460    1.5420   20.8730 O   0  0  0  0  0  0  0  0  0  0  0  0
    5.0230    1.3570   20.0880 C   0  0  0  0  0  0  0  0  0  0  0  0
    6.8540    0.0590   19.1640 C   0  0  0  0  0  0  0  0  0  0  0  0
    9.8220   -1.5470   24.3680 O   0  0  0  0  0  0  0  0  0  0  0  0
   10.5630   -1.6660   23.2200 C   0  0  2  0  0  0  0  0  0  0  0  0
    8.3030   -3.2110   23.9540 C   0  0  0  0  0  0  0  0  0  0  0  0
    8.7760    3.0090   23.2350 C   0  0  0  0  0  0  0  0  0  0  0  0
   11.9960   -1.1750   23.5000 C   0  0  0  0  0  0  0  0  0  0  0  0
    6.3920    0.4270   17.8070 N   0  0  0  0  0  0  0  0  0  0  0  0
    4.5560    1.7270   18.8710 C   0  0  0  0  0  0  0  0  0  0  0  0
    9.1040   -4.3180   24.3580 C   0  0  0  0  0  0  0  0  0  0  0  0
    7.1140   -3.1180   23.2990 C   0  0  0  0  0  0  0  0  0  0  0  0
    8.9460    3.2140   24.7190 C   0  0  0  0  0  0  0  0  0  0  0  0
    8.3680    4.3140   22.6160 C   0  0  0  0  0  0  0  0  0  0  0  0
   10.1640    2.6160   22.6820 C   0  0  0  0  0  0  0  0  0  0  0  0
   12.7050   -1.2110   22.2480 C   0  0  0  0  0  0  0  0  0  0  0  0
   11.8890   -0.0670   24.2990 C   0  0  0  0  0  0  0  0  0  0  0  0
   12.5580   -2.1000   24.4040 C   0  0  0  0  0  0  0  0  0  0  0  0
   10.4060   -4.2350   25.1030 C   0  0  0  0  0  0  0  0  0  0  0  0
    5.2050    1.2920   17.7560 C   0  0  0  0  0  0  0  0  0  0  0  0
    6.8820   -4.5170   23.0570 C   0  0  0  0  0  0  0  0  0  0  0  0
    8.6270   -5.6590   23.9970 C   0  0  0  0  0  0  0  0  0  0  0  0
    7.4520   -5.6210   23.3000 C   0  0  0  0  0  0  0  0  0  0  0  0
    6.6100   -6.6930   22.6910 C   0  0  0  0  0  0  0  0  0  0  0  0
    5.5960   -6.0510   21.9570 C   0  0  0  0  0  0  0  0  0  0  0  0
    4.3820   -5.5910   22.8310 C   0  0  2  0  0  0  0  0  0  0  0  0
    4.6280   -4.9170   24.0480 C   0  0  0  0  0  0  0  0  0  0  0  0
    3.8900   -6.8220   23.0610 C   0  0  0  0  0  0  0  0  0  0  0  0
    3.1490   -6.8410   24.6630 S   0  0  0  0  0  0  0  0  0  0  0  0
    4.0610   -5.4150   25.1620 C   0  0  0  0  0  0  0  0  0  0  0  0
    1.7500   -6.6100   24.4340 O   0  0  0  0  0  0  0  0  0  0  0  0
    3.6700   -8.1900   25.3110 O   0  0  0  0  0  0  0  0  0  0  0  0
  1  2  1  0
  2  3  2  0
  1  4  1  0
  5  1  1  6
  2  6  1  0
  4  7  1  6
  4  8  1  0
  5  9  1  0
  5 10  1  0
  6 11  1  0
  7 12  1  0
  7 13  2  0
  8 14  2  0
  8 15  1  0
  9 16  1  0
 10 17  1  0
 16 17  1  0
  9 18  1  0
 19 12  1  0
 17 20  1  1
 15 21  2  0
 14 22  1  0
 18 23  2  0
 18 24  1  0
 19 25  1  0
 19 26  1  0
 19 27  1  0
 20 28  1  0
 20 29  1  0
 20 30  1  0
 23 31  1  0
 21 32  1  0
 22 32  2  0
 24 33  2  0
 23 34  1  0
 33 35  1  0
 34 35  2  0
 35 36  1  0
 36 37  1  0
 38 37  1  1
 38 39  1  0
 38 40  1  0
 40 41  1  0
 39 42  2  0
 41 42  1  0
 41 43  1  0
 41 44  1  0
M  END
