x2540-x0995
     RDKit          3D

 29 30  0  0  0  0  0  0  0  0999 V2000
    6.8690   -1.4130   21.9590 N   0  0  0  0  0  0  0  0  0  0  0  0
    6.0880   -2.6400   21.5090 C   0  0  0  0  0  0  0  0  0  0  0  0
    4.7840   -3.0300   21.4200 O   0  0  0  0  0  0  0  0  0  0  0  0
    6.6600    0.0610   21.5800 C   0  0  1  0  0  0  0  0  0  0  0  0
    8.2060   -1.5200   22.5750 C   0  0  0  0  0  0  0  0  0  0  0  0
    7.0180   -3.6780   21.0280 C   0  0  0  0  0  0  0  0  0  0  0  0
    7.8450    1.1000   21.8240 C   0  0  0  0  0  0  0  0  0  0  0  0
    6.1220    0.4320   20.2360 C   0  0  0  0  0  0  0  0  0  0  0  0
    8.2590   -2.1500   23.9040 N   0  0  0  0  0  0  0  0  0  0  0  0
    9.5360   -1.1720   22.2970 C   0  0  0  0  0  0  0  0  0  0  0  0
    7.1280   -3.4290   19.5580 C   0  0  0  0  0  0  0  0  0  0  0  0
    7.9130    1.6250   23.0990 N   0  0  0  0  0  0  0  0  0  0  0  0
    8.6160    1.4390   20.9240 O   0  0  0  0  0  0  0  0  0  0  0  0
    4.9900    1.2160   20.1770 C   0  0  0  0  0  0  0  0  0  0  0  0
    6.8140   -0.0160   19.1070 C   0  0  0  0  0  0  0  0  0  0  0  0
    9.6300   -2.0990   24.2770 O   0  0  0  0  0  0  0  0  0  0  0  0
   10.4380   -1.4990   23.3130 C   0  0  0  0  0  0  0  0  0  0  0  0
    8.7530    2.7850   23.3490 C   0  0  0  0  0  0  0  0  0  0  0  0
   11.9460   -1.3680   23.6110 C   0  0  0  0  0  0  0  0  0  0  0  0
    6.3710    0.3310   17.8960 N   0  0  0  0  0  0  0  0  0  0  0  0
    4.4920    1.6040   18.9540 C   0  0  0  0  0  0  0  0  0  0  0  0
    8.6500    3.1350   24.8210 C   0  0  0  0  0  0  0  0  0  0  0  0
    8.3550    3.9950   22.5510 C   0  0  0  0  0  0  0  0  0  0  0  0
   10.2300    2.4620   23.0130 C   0  0  0  0  0  0  0  0  0  0  0  0
   12.6010   -1.2930   22.3310 C   0  0  0  0  0  0  0  0  0  0  0  0
   12.0260   -0.3790   24.5580 C   0  0  0  0  0  0  0  0  0  0  0  0
   12.3510   -2.4960   24.3630 C   0  0  0  0  0  0  0  0  0  0  0  0
    3.3980    2.3700   18.8560 N   0  0  0  0  0  0  0  0  0  0  0  0
    5.1630    1.1810   17.8200 C   0  0  0  0  0  0  0  0  0  0  0  0
  1  2  1  0
  2  3  2  0
  1  4  1  0
  1  5  1  0
  2  6  1  0
  4  7  1  6
  4  8  1  0
  5  9  2  0
  5 10  1  0
  6 11  1  0
  7 12  1  0
  7 13  2  0
  8 14  2  0
  8 15  1  0
  9 16  1  0
 10 17  2  0
 16 17  1  0
 18 12  1  0
 17 19  1  0
 15 20  2  0
 14 21  1  0
 18 22  1  0
 18 23  1  0
 18 24  1  0
 19 25  1  0
 19 26  1  0
 19 27  1  0
 21 28  1  0
 20 29  1  0
 21 29  2  0
M  END
