x2540-x0786
     RDKit          3D

 44 47  0  0  0  0  0  0  0  0999 V2000
    6.8200   -1.2830   22.2670 C   0  0  2  0  0  0  0  0  0  0  0  0
    6.1050   -2.6110   21.5070 C   0  0  0  0  0  0  0  0  0  0  0  0
    4.8010   -3.0120   21.3490 O   0  0  0  0  0  0  0  0  0  0  0  0
    6.6710    0.1680   21.7010 C   0  0  1  0  0  0  0  0  0  0  0  0
    8.3260   -1.3710   22.7330 C   0  0  0  0  0  0  0  0  0  0  0  0
    6.0610   -1.3280   23.6480 C   0  0  0  0  0  0  0  0  0  0  0  0
    7.0730   -3.5790   20.9400 C   0  0  0  0  0  0  0  0  0  0  0  0
    7.8300    1.2370   21.8450 C   0  0  0  0  0  0  0  0  0  0  0  0
    6.1630    0.4750   20.3150 C   0  0  0  0  0  0  0  0  0  0  0  0
    8.5780   -1.4340   24.0510 N   0  0  0  0  0  0  0  0  0  0  0  0
    9.5800   -1.3760   22.1370 C   0  0  0  0  0  0  0  0  0  0  0  0
    6.4720   -2.4780   24.5690 C   0  0  0  0  0  0  0  0  0  0  0  0
    7.1760   -3.3510   19.4660 C   0  0  0  0  0  0  0  0  0  0  0  0
    7.9580    1.8720   23.1100 N   0  0  0  0  0  0  0  0  0  0  0  0
    8.5830    1.5530   20.9270 O   0  0  0  0  0  0  0  0  0  0  0  0
    5.0200    1.2430   20.1870 C   0  0  0  0  0  0  0  0  0  0  0  0
    6.7900    0.0520   19.1650 C   0  0  0  0  0  0  0  0  0  0  0  0
    9.9510   -1.4700   24.2620 O   0  0  0  0  0  0  0  0  0  0  0  0
   10.6200   -1.4340   23.0810 C   0  0  0  0  0  0  0  0  0  0  0  0
    5.6670   -3.6950   24.4440 C   0  0  0  0  0  0  0  0  0  0  0  0
    8.8380    2.9390   23.3900 C   0  0  0  0  0  0  0  0  0  0  0  0
   12.1370   -1.4560   23.1690 C   0  0  0  0  0  0  0  0  0  0  0  0
    6.3820    0.3340   17.9250 N   0  0  0  0  0  0  0  0  0  0  0  0
    4.5310    1.5820   18.9450 C   0  0  0  0  0  0  0  0  0  0  0  0
    6.0230   -4.7050   23.5280 C   0  0  0  0  0  0  0  0  0  0  0  0
    4.5630   -3.8000   25.2510 C   0  0  0  0  0  0  0  0  0  0  0  0
    8.8140    3.2440   24.7590 C   0  0  0  0  0  0  0  0  0  0  0  0
    8.4110    4.2140   22.6380 C   0  0  0  0  0  0  0  0  0  0  0  0
   10.1010    2.6120   22.9270 C   0  0  0  0  0  0  0  0  0  0  0  0
   12.7490   -1.8030   21.9690 C   0  0  0  0  0  0  0  0  0  0  0  0
   12.6860   -0.0630   23.5490 C   0  0  0  0  0  0  0  0  0  0  0  0
   12.6010   -2.4100   24.3020 C   0  0  0  0  0  0  0  0  0  0  0  0
    5.1840    1.1540   17.7880 C   0  0  0  0  0  0  0  0  0  0  0  0
    5.2380   -5.8550   23.4200 C   0  0  0  0  0  0  0  0  0  0  0  0
    3.7510   -4.9030   25.1990 C   0  0  0  0  0  0  0  0  0  0  0  0
    4.0490   -5.9260   24.3160 C   0  0  0  0  0  0  0  0  0  0  0  0
    3.1680   -7.0890   24.2790 C   0  0  0  0  0  0  0  0  0  0  0  0
    3.6400   -8.2230   24.8360 O   0  0  0  0  0  0  0  0  0  0  0  0
    1.8410   -6.9570   23.6740 N   0  0  0  0  0  0  0  0  0  0  0  0
    1.3930   -5.6630   23.3410 C   0  0  0  0  0  0  0  0  0  0  0  0
    0.8280   -8.0130   23.8230 C   0  0  0  0  0  0  0  0  0  0  0  0
    0.6060   -5.1660   24.3750 C   0  0  0  0  0  0  0  0  0  0  0  0
   -0.2380   -7.7090   24.7110 C   0  0  0  0  0  0  0  0  0  0  0  0
   -0.9740   -6.0670   24.4330 S   0  0  0  0  0  0  0  0  0  0  0  0
  1  2  1  0
  2  3  2  0
  1  4  1  0
  1  5  1  0
  1  6  1  1
  2  7  1  0
  4  8  1  6
  4  9  1  0
  5 10  2  0
  5 11  1  0
  6 12  1  0
  7 13  1  0
  8 14  1  0
  8 15  2  0
  9 16  2  0
  9 17  1  0
 10 18  1  0
 11 19  2  0
 18 19  1  0
 12 20  1  0
 21 14  1  0
 19 22  1  0
 17 23  2  0
 16 24  1  0
 20 25  2  0
 20 26  1  0
 21 27  1  0
 21 28  1  0
 21 29  1  0
 22 30  1  0
 22 31  1  0
 22 32  1  0
 23 33  1  0
 24 33  2  0
 25 34  1  0
 26 35  2  0
 34 36  2  0
 35 36  1  0
 36 37  1  0
 37 38  2  0
 37 39  1  0
 39 40  1  0
 39 41  1  0
 40 42  1  0
 41 43  1  0
 42 44  1  0
 43 44  1  0
M  END
