x2540-x0426
     RDKit          3D

 40 42  0  0  0  0  0  0  0  0999 V2000
    6.9980   -1.3250   21.7940 N   0  0  0  0  0  0  0  0  0  0  0  0
    5.8170   -2.2500   21.6100 C   0  0  0  0  0  0  0  0  0  0  0  0
    4.9570   -3.2590   21.3760 O   0  0  0  0  0  0  0  0  0  0  0  0
    6.7880    0.1670   21.5630 C   0  0  1  0  0  0  0  0  0  0  0  0
    8.2230   -1.5340   22.5820 C   0  0  0  0  0  0  0  0  0  0  0  0
    6.8610   -3.2870   21.2360 C   0  0  0  0  0  0  0  0  0  0  0  0
    7.9750    1.1790   21.8310 C   0  0  0  0  0  0  0  0  0  0  0  0
    6.2020    0.5350   20.2330 C   0  0  0  0  0  0  0  0  0  0  0  0
    8.2440   -2.1540   23.7750 N   0  0  0  0  0  0  0  0  0  0  0  0
    9.5300   -1.1390   22.2940 C   0  0  0  0  0  0  0  0  0  0  0  0
    6.6800   -3.7000   19.7890 C   0  0  0  0  0  0  0  0  0  0  0  0
    8.0660    1.6350   23.1270 N   0  0  0  0  0  0  0  0  0  0  0  0
    8.7310    1.5690   20.9440 O   0  0  0  0  0  0  0  0  0  0  0  0
    5.0270    1.3170   20.1030 C   0  0  0  0  0  0  0  0  0  0  0  0
    6.8590    0.1010   19.0960 C   0  0  0  0  0  0  0  0  0  0  0  0
    9.5940   -2.1230   24.2110 O   0  0  0  0  0  0  0  0  0  0  0  0
   10.4260   -1.4880   23.3080 C   0  0  0  0  0  0  0  0  0  0  0  0
    8.8420    2.8300   23.3900 C   0  0  0  0  0  0  0  0  0  0  0  0
   11.9570   -1.3500   23.6460 C   0  0  0  0  0  0  0  0  0  0  0  0
    4.1320    1.8960   20.9950 C   0  0  0  0  0  0  0  0  0  0  0  0
    6.3980    0.4420   17.7650 N   0  0  0  0  0  0  0  0  0  0  0  0
    4.5400    1.6740   18.8740 C   0  0  0  0  0  0  0  0  0  0  0  0
    8.6850    3.1940   24.8530 C   0  0  0  0  0  0  0  0  0  0  0  0
    8.4150    4.0090   22.5610 C   0  0  0  0  0  0  0  0  0  0  0  0
   10.3340    2.5560   23.0840 C   0  0  0  0  0  0  0  0  0  0  0  0
   12.6280   -1.2510   22.3730 C   0  0  0  0  0  0  0  0  0  0  0  0
   12.0400   -0.3870   24.6150 C   0  0  0  0  0  0  0  0  0  0  0  0
   12.3350   -2.5070   24.3650 C   0  0  0  0  0  0  0  0  0  0  0  0
    4.2200    1.6740   22.3810 C   0  0  0  0  0  0  0  0  0  0  0  0
    5.1730    1.2820   17.7280 C   0  0  0  0  0  0  0  0  0  0  0  0
    3.3170    2.3450   23.1500 N   0  0  0  0  0  0  0  0  0  0  0  0
    2.3080    1.7000   23.7770 C   0  0  0  0  0  0  0  0  0  0  0  0
    2.2150    0.4760   23.7910 O   0  0  0  0  0  0  0  0  0  0  0  0
    1.2480    2.5200   24.4990 C   0  0  0  0  0  0  0  0  0  0  0  0
    1.5510    3.7370   25.1570 C   0  0  0  0  0  0  0  0  0  0  0  0
   -0.0050    2.0650   24.5090 C   0  0  0  0  0  0  0  0  0  0  0  0
    2.8000    4.2200   25.1650 F   0  0  0  0  0  0  0  0  0  0  0  0
   -1.1040    2.7830   25.1850 C   0  0  0  0  0  0  0  0  0  0  0  0
    0.5570    4.5120   25.8430 C   0  0  0  0  0  0  0  0  0  0  0  0
   -0.7660    4.0750   25.8800 C   0  0  0  0  0  0  0  0  0  0  0  0
  1  2  1  0
  2  3  2  0
  1  4  1  0
  1  5  1  0
  2  6  1  0
  4  7  1  6
  4  8  1  0
  5  9  2  0
  5 10  1  0
  6 11  1  0
  7 12  1  0
  7 13  2  0
  8 14  1  0
  8 15  2  0
  9 16  1  0
 10 17  2  0
 16 17  1  0
 18 12  1  0
 17 19  1  0
 14 20  1  0
 15 21  1  0
 14 22  2  0
 18 23  1  0
 18 24  1  0
 18 25  1  0
 19 26  1  0
 19 27  1  0
 19 28  1  0
 20 29  1  0
 21 30  2  0
 22 30  1  0
 29 31  1  0
 31 32  1  0
 32 33  2  0
 32 34  1  0
 34 35  2  0
 34 36  1  0
 35 37  1  0
 36 38  2  0
 35 39  1  0
 38 40  1  0
 39 40  2  0
M  END
