x2540-x1348-x0387
     RDKit          3D

 46 51  0  0  0  0  0  0  0  0999 V2000
    6.9510   -1.3430   21.7580 N   0  0  0  0  0  0  0  0  0  0  0  0
    6.0950   -2.5790   21.4490 C   0  0  0  0  0  0  0  0  0  0  0  0
    4.7660   -2.9150   21.2500 O   0  0  0  0  0  0  0  0  0  0  0  0
    6.4710   -0.0020   21.5730 C   0  0  1  0  0  0  0  0  0  0  0  0
    8.2440   -1.5080   22.4750 C   0  0  2  0  0  0  0  0  0  0  0  0
    6.8750   -3.8180   21.3370 C   0  0  2  0  0  0  0  0  0  0  0  0
    7.5530    1.1630   21.6350 C   0  0  0  0  0  0  0  0  0  0  0  0
    6.0090    0.3800   20.2210 C   0  0  0  0  0  0  0  0  0  0  0  0
    8.2270   -1.4350   23.8080 N   0  0  0  0  0  0  0  0  0  0  0  0
    9.4190   -0.7200   22.3490 C   0  0  0  0  0  0  0  0  0  0  0  0
    6.6880   -4.2180   19.8990 C   0  0  0  0  0  0  0  0  0  0  0  0
    7.2630    2.1880   22.4840 N   0  0  0  0  0  0  0  0  0  0  0  0
    8.5580    1.2090   20.9270 O   0  0  0  0  0  0  0  0  0  0  0  0
    4.8820    1.1970   20.0940 C   0  0  0  0  0  0  0  0  0  0  0  0
    6.7260   -0.0350   18.9510 C   0  0  0  0  0  0  0  0  0  0  0  0
    9.5850   -1.7270   24.3010 C   0  0  2  0  0  0  0  0  0  0  0  0
   10.4330   -1.1980   23.2280 C   0  0  2  0  0  0  0  0  0  0  0  0
    6.2030   -4.6990   22.3860 C   0  0  0  0  0  0  0  0  0  0  0  0
    8.2700    2.9010   23.2310 C   0  0  0  0  0  0  0  0  0  0  0  0
    6.2210    0.4480   17.6910 N   0  0  0  0  0  0  0  0  0  0  0  0
    4.4570    1.6160   18.8500 C   0  0  0  0  0  0  0  0  0  0  0  0
    6.4430   -4.3660   23.7890 N   0  0  0  0  0  0  0  0  0  0  0  0
    5.1610   -6.0240   22.0570 S   0  0  0  0  0  0  0  0  0  0  0  0
    9.5390   -3.0110   24.6260 N   0  0  0  0  0  0  0  0  0  0  0  0
   11.5960   -0.2380   23.6430 C   0  0  1  0  0  0  0  0  0  0  0  0
   11.1210   -2.2320   22.3450 C   0  0  0  0  0  0  0  0  0  0  0  0
    8.0820    2.2590   24.6250 C   0  0  0  0  0  0  0  0  0  0  0  0
    7.9690    4.2390   23.3210 C   0  0  0  0  0  0  0  0  0  0  0  0
    9.6830    2.7320   22.6060 C   0  0  0  0  0  0  0  0  0  0  0  0
   12.2450   -0.7520   24.9170 C   0  0  0  0  0  0  0  0  0  0  0  0
    5.1420    1.2320   17.7300 C   0  0  0  0  0  0  0  0  0  0  0  0
    5.7300   -5.2240   24.4880 C   0  0  0  0  0  0  0  0  0  0  0  0
    5.0090   -6.1400   23.7560 C   0  0  0  0  0  0  0  0  0  0  0  0
    8.3530   -3.4230   25.3830 C   0  0  0  0  0  0  0  0  0  0  0  0
   10.6820   -3.6260   25.1460 C   0  0  0  0  0  0  0  0  0  0  0  0
   12.7180   -1.8440   21.7410 S   0  0  0  0  0  0  0  0  0  0  0  0
   12.7640   -0.3460   22.7090 C   0  0  0  0  0  0  0  0  0  0  0  0
   13.0880   -1.8640   24.7200 C   0  0  0  0  0  0  0  0  0  0  0  0
    5.6490   -5.2720   25.9000 C   0  0  0  0  0  0  0  0  0  0  0  0
    4.1970   -7.1100   24.2950 C   0  0  0  0  0  0  0  0  0  0  0  0
    8.3770   -4.8020   25.5200 C   0  0  0  0  0  0  0  0  0  0  0  0
   10.6340   -4.7480   26.0000 C   0  0  0  0  0  0  0  0  0  0  0  0
    4.0300   -7.2610   25.6490 C   0  0  0  0  0  0  0  0  0  0  0  0
    4.7980   -6.2950   26.5270 C   0  0  0  0  0  0  0  0  0  0  0  0
    9.2510   -5.2160   26.4650 C   0  0  0  0  0  0  0  0  0  0  0  0
    8.9380   -4.8320   27.9250 C   0  0  0  0  0  0  0  0  0  0  0  0
  1  2  1  0
  2  3  2  0
  1  4  1  0
  5  1  1  6
  2  6  1  0
  4  7  1  6
  4  8  1  0
  5  9  1  0
  5 10  1  0
  6 11  1  6
  7 12  1  0
  7 13  2  0
  8 14  2  0
  8 15  1  0
  9 16  1  0
 17 10  1  6
 16 17  1  0
  6 18  1  0
 19 12  1  0
 15 20  2  0
 14 21  1  0
 18 22  2  0
 18 23  1  0
 16 24  1  6
 17 25  1  0
 17 26  1  0
 19 27  1  0
 19 28  1  0
 19 29  1  0
 25 30  1  1
 20 31  1  0
 21 31  2  0
 22 32  1  0
 23 33  1  0
 32 33  2  0
 24 34  1  0
 24 35  1  0
 26 36  2  0
 25 37  1  0
 36 37  2  0
 30 38  1  0
 32 39  1  0
 33 40  1  0
 34 41  1  0
 35 42  1  0
 40 43  2  0
 39 44  2  0
 43 44  1  0
 41 45  1  0
 42 45  1  0
 45 46  1  0
M  END
