x2540-x0540
     RDKit          3D

 40 42  0  0  0  0  0  0  0  0999 V2000
    6.9510   -1.5270   21.9360 N   0  0  0  0  0  0  0  0  0  0  0  0
    6.1250   -2.7160   21.4780 C   0  0  0  0  0  0  0  0  0  0  0  0
    4.8120   -3.0660   21.4240 O   0  0  0  0  0  0  0  0  0  0  0  0
    6.7690   -0.0590   21.5700 C   0  0  1  0  0  0  0  0  0  0  0  0
    8.2210   -1.6610   22.6510 C   0  0  0  0  0  0  0  0  0  0  0  0
    7.0150   -3.7510   20.9290 C   0  0  0  0  0  0  0  0  0  0  0  0
    7.9310    1.0100   21.8330 C   0  0  0  0  0  0  0  0  0  0  0  0
    6.2190    0.3030   20.2300 C   0  0  0  0  0  0  0  0  0  0  0  0
    8.2920   -2.2510   23.8650 N   0  0  0  0  0  0  0  0  0  0  0  0
    9.5060   -1.2350   22.3070 C   0  0  0  0  0  0  0  0  0  0  0  0
    7.1630   -3.3870   19.4810 C   0  0  0  0  0  0  0  0  0  0  0  0
    8.0550    1.4790   23.1280 N   0  0  0  0  0  0  0  0  0  0  0  0
    8.6460    1.4360   20.9230 O   0  0  0  0  0  0  0  0  0  0  0  0
    4.9960    0.9310   20.1780 C   0  0  0  0  0  0  0  0  0  0  0  0
    6.8720    0.0670   19.0450 C   0  0  0  0  0  0  0  0  0  0  0  0
    9.6480   -2.1680   24.2550 O   0  0  0  0  0  0  0  0  0  0  0  0
   10.4380   -1.5370   23.3140 C   0  0  0  0  0  0  0  0  0  0  0  0
    8.8260    2.6900   23.3680 C   0  0  0  0  0  0  0  0  0  0  0  0
   11.9700   -1.3610   23.6280 C   0  0  0  0  0  0  0  0  0  0  0  0
    4.1690    1.2450   21.2190 C   0  0  0  0  0  0  0  0  0  0  0  0
    6.4450    0.4130   17.8300 N   0  0  0  0  0  0  0  0  0  0  0  0
    4.4680    1.3330   18.9750 C   0  0  0  0  0  0  0  0  0  0  0  0
    8.7200    3.0550   24.8380 C   0  0  0  0  0  0  0  0  0  0  0  0
    8.3560    3.8690   22.5570 C   0  0  0  0  0  0  0  0  0  0  0  0
   10.3160    2.4440   23.0270 C   0  0  0  0  0  0  0  0  0  0  0  0
   12.6210   -1.2730   22.3410 C   0  0  0  0  0  0  0  0  0  0  0  0
   12.0480   -0.3760   24.5780 C   0  0  0  0  0  0  0  0  0  0  0  0
   12.3760   -2.4960   24.3650 C   0  0  0  0  0  0  0  0  0  0  0  0
    4.7230    1.9460   22.3070 C   0  0  0  0  0  0  0  0  0  0  0  0
    5.1300    1.1200   17.7830 C   0  0  0  0  0  0  0  0  0  0  0  0
    3.9390    2.8680   22.8840 N   0  0  0  0  0  0  0  0  0  0  0  0
    2.8370    2.4860   23.5540 C   0  0  0  0  0  0  0  0  0  0  0  0
    2.8260    1.5700   24.3830 O   0  0  0  0  0  0  0  0  0  0  0  0
    1.7880    3.2560   23.1740 N   0  0  0  0  0  0  0  0  0  0  0  0
    0.5880    3.2880   23.9080 C   0  0  0  0  0  0  0  0  0  0  0  0
    0.5610    4.5430   24.5360 C   0  0  0  0  0  0  0  0  0  0  0  0
   -0.5490    3.0380   23.1510 C   0  0  0  0  0  0  0  0  0  0  0  0
   -0.7640    4.9560   25.1000 C   0  0  0  0  0  0  0  0  0  0  0  0
   -1.7430    3.2720   23.8350 C   0  0  0  0  0  0  0  0  0  0  0  0
   -1.8280    4.5490   24.3960 C   0  0  0  0  0  0  0  0  0  0  0  0
  1  2  1  0
  2  3  2  0
  1  4  1  0
  1  5  1  0
  2  6  1  0
  4  7  1  6
  4  8  1  0
  5  9  2  0
  5 10  1  0
  6 11  1  0
  7 12  1  0
  7 13  2  0
  8 14  1  0
  8 15  2  0
  9 16  1  0
 10 17  2  0
 16 17  1  0
 18 12  1  0
 17 19  1  0
 14 20  1  0
 15 21  1  0
 14 22  2  0
 18 23  1  0
 18 24  1  0
 18 25  1  0
 19 26  1  0
 19 27  1  0
 19 28  1  0
 20 29  1  0
 21 30  2  0
 22 30  1  0
 29 31  1  0
 31 32  1  0
 32 33  2  0
 32 34  1  0
 34 35  1  0
 35 36  1  0
 35 37  1  0
 36 38  1  0
 37 39  1  0
 38 40  1  0
 39 40  1  0
M  END
