x2540-x1358
     RDKit          3D

 44 48  0  0  0  0  0  0  0  0999 V2000
    7.0650   -1.3300   21.7040 C   0  0  2  0  0  0  0  0  0  0  0  0
    6.1090   -2.7200   21.3390 C   0  0  0  0  0  0  0  0  0  0  0  0
    4.8640   -2.9460   20.8750 O   0  0  0  0  0  0  0  0  0  0  0  0
    6.6600    0.1180   21.5530 C   0  0  1  0  0  0  0  0  0  0  0  0
    6.5360   -1.8510   22.9480 C   0  0  0  0  0  0  0  0  0  0  0  0
    8.5040   -1.3340   22.3430 C   0  0  0  0  0  0  0  0  0  0  0  0
    7.7960    1.2260   21.7730 C   0  0  0  0  0  0  0  0  0  0  0  0
    6.1360    0.5440   20.2150 C   0  0  0  0  0  0  0  0  0  0  0  0
    8.6860   -1.3670   23.8230 N   0  0  0  0  0  0  0  0  0  0  0  0
    9.8400   -1.3020   21.9420 C   0  0  0  0  0  0  0  0  0  0  0  0
    6.7420   -3.9900   21.7810 C   0  0  2  0  0  0  0  0  0  0  0  0
    7.3300   -3.2020   22.9480 C   0  0  2  0  0  0  0  0  0  0  0  0
    7.9170   -4.5590   21.0280 C   0  0  0  0  0  0  0  0  0  0  0  0
    7.8760    1.8410   23.0620 N   0  0  0  0  0  0  0  0  0  0  0  0
    8.5590    1.5630   20.8690 O   0  0  0  0  0  0  0  0  0  0  0  0
    5.0640    1.4100   20.1330 C   0  0  0  0  0  0  0  0  0  0  0  0
    6.7160    0.0960   19.0170 C   0  0  0  0  0  0  0  0  0  0  0  0
   10.0360   -1.3590   24.1310 O   0  0  0  0  0  0  0  0  0  0  0  0
   10.7760   -1.3230   22.9890 C   0  0  0  0  0  0  0  0  0  0  0  0
    7.1230   -3.7850   24.0990 C   0  0  0  0  0  0  0  0  0  0  0  0
    5.7210   -5.1040   22.2220 C   0  0  0  0  0  0  0  0  0  0  0  0
    8.8000    2.9570   23.3620 C   0  0  0  0  0  0  0  0  0  0  0  0
   12.2920   -1.3150   23.1450 C   0  0  0  0  0  0  0  0  0  0  0  0
    6.3170    0.4510   17.7940 N   0  0  0  0  0  0  0  0  0  0  0  0
    4.6570    1.7710   18.8820 C   0  0  0  0  0  0  0  0  0  0  0  0
    5.7990   -3.9220   24.2590 C   0  0  1  0  0  0  0  0  0  0  0  0
    5.2800   -5.0090   23.5670 C   0  0  0  0  0  0  0  0  0  0  0  0
    8.8450    3.3300   24.8540 C   0  0  0  0  0  0  0  0  0  0  0  0
    8.3370    4.1710   22.6070 C   0  0  0  0  0  0  0  0  0  0  0  0
   10.2350    2.6590   22.8710 C   0  0  0  0  0  0  0  0  0  0  0  0
   12.8050   -1.7970   21.9010 C   0  0  0  0  0  0  0  0  0  0  0  0
   12.6110   -0.0850   23.6180 C   0  0  0  0  0  0  0  0  0  0  0  0
   12.5920   -2.1520   24.2450 C   0  0  0  0  0  0  0  0  0  0  0  0
    5.2960   -3.5350   25.6520 C   0  0  0  0  0  0  0  0  0  0  0  0
    5.2480    1.3240   17.7340 C   0  0  0  0  0  0  0  0  0  0  0  0
    6.2740   -3.0590   26.4650 N   0  0  0  0  0  0  0  0  0  0  0  0
    4.1130   -3.6190   25.9230 O   0  0  0  0  0  0  0  0  0  0  0  0
    6.3630   -1.8480   27.2050 C   0  0  0  0  0  0  0  0  0  0  0  0
    5.7990   -0.6380   26.6900 C   0  0  0  0  0  0  0  0  0  0  0  0
    7.0400   -1.7760   28.5400 C   0  0  0  0  0  0  0  0  0  0  0  0
    5.1710   -0.6640   25.4670 O   0  0  0  0  0  0  0  0  0  0  0  0
    7.1020   -0.6300   29.1970 C   0  0  0  0  0  0  0  0  0  0  0  0
    5.8630    0.5820   27.3930 C   0  0  0  0  0  0  0  0  0  0  0  0
    6.5020    0.5990   28.6280 C   0  0  0  0  0  0  0  0  0  0  0  0
  1  2  1  0
  2  3  2  0
  1  4  1  0
  1  5  1  0
  1  6  1  1
  4  7  1  6
  4  8  1  0
  6  9  2  0
  6 10  1  0
  2 11  1  0
 12  5  1  1
 11 12  1  0
 11 13  1  6
  7 14  1  0
  7 15  2  0
  8 16  2  0
  8 17  1  0
  9 18  1  0
 10 19  2  0
 18 19  1  0
 12 20  1  0
 11 21  1  0
 22 14  1  0
 19 23  1  0
 17 24  2  0
 16 25  1  0
 20 26  1  0
 21 27  1  0
 26 27  1  0
 22 28  1  0
 22 29  1  0
 22 30  1  0
 23 31  1  0
 23 32  1  0
 23 33  1  0
 26 34  1  1
 24 35  1  0
 25 35  2  0
 34 36  1  0
 34 37  2  0
 36 38  1  0
 38 39  2  0
 38 40  1  0
 39 41  1  0
 40 42  2  0
 39 43  1  0
 42 44  1  0
 43 44  2  0
M  END
