x2540-x1458
     RDKit          3D

 42 45  0  0  0  0  0  0  0  0999 V2000
    6.6150   -1.4500   21.8330 N   0  0  0  0  0  0  0  0  0  0  0  0
    5.6590   -2.3680   21.2020 C   0  0  0  0  0  0  0  0  0  0  0  0
    4.6000   -2.9770   21.6210 O   0  0  0  0  0  0  0  0  0  0  0  0
    6.5440   -0.0320   21.6060 C   0  0  1  0  0  0  0  0  0  0  0  0
    7.8970   -2.0450   22.0970 C   0  0  1  0  0  0  0  0  0  0  0  0
    6.0470   -2.7400   19.8530 C   0  0  0  0  0  0  0  0  0  0  0  0
    7.7060    0.8150   21.7050 C   0  0  0  0  0  0  0  0  0  0  0  0
    5.9870    0.4730   20.2970 C   0  0  0  0  0  0  0  0  0  0  0  0
    8.5480   -1.5630   23.3340 N   0  0  0  0  0  0  0  0  0  0  0  0
    7.9330   -3.6020   22.3040 C   0  0  2  0  0  0  0  0  0  0  0  0
    6.7550   -4.0480   20.0010 C   0  0  0  0  0  0  0  0  0  0  0  0
    7.4710    2.0810   22.1790 N   0  0  0  0  0  0  0  0  0  0  0  0
    8.8260    0.4650   21.3420 O   0  0  0  0  0  0  0  0  0  0  0  0
    4.8100    1.2130   20.2100 C   0  0  0  0  0  0  0  0  0  0  0  0
    6.7260    0.1850   19.1220 C   0  0  0  0  0  0  0  0  0  0  0  0
    9.8240   -2.1540   23.5880 O   0  0  0  0  0  0  0  0  0  0  0  0
    8.6260   -0.2410   23.8500 C   0  0  0  0  0  0  0  0  0  0  0  0
    7.2120   -4.5030   21.3540 N   0  0  0  0  0  0  0  0  0  0  0  0
    7.4900   -3.6350   23.6200 C   0  0  0  0  0  0  0  0  0  0  0  0
    8.3250    2.8640   23.0150 C   0  0  0  0  0  0  0  0  0  0  0  0
    6.4140    0.5670   17.8670 N   0  0  0  0  0  0  0  0  0  0  0  0
    4.4180    1.6710   18.8190 C   0  0  0  0  0  0  0  0  0  0  0  0
   10.0840    0.1250   23.7750 C   0  0  0  0  0  0  0  0  0  0  0  0
   10.7550   -1.0790   23.1990 C   0  0  1  0  0  0  0  0  0  0  0  0
    6.7100   -4.7650   24.2650 C   0  0  1  0  0  0  0  0  0  0  0  0
    6.3440   -5.5550   21.9200 C   0  0  0  0  0  0  0  0  0  0  0  0
    8.0230    2.5330   24.3980 C   0  0  0  0  0  0  0  0  0  0  0  0
    8.0200    4.2810   22.6330 C   0  0  0  0  0  0  0  0  0  0  0  0
    9.6900    2.7730   22.3940 C   0  0  0  0  0  0  0  0  0  0  0  0
   12.2040   -1.2800   23.6920 C   0  0  0  0  0  0  0  0  0  0  0  0
    6.0740   -4.1450   25.5110 C   0  0  0  0  0  0  0  0  0  0  0  0
    5.2000    1.3520   17.7460 C   0  0  0  0  0  0  0  0  0  0  0  0
    5.8150   -5.2580   23.3080 C   0  0  0  0  0  0  0  0  0  0  0  0
   13.0960   -1.1360   22.4610 C   0  0  0  0  0  0  0  0  0  0  0  0
   12.3800   -0.3580   24.8720 C   0  0  0  0  0  0  0  0  0  0  0  0
   12.5020   -2.7100   24.2310 C   0  0  0  0  0  0  0  0  0  0  0  0
    6.9690   -3.6630   26.5770 N   0  0  0  0  0  0  0  0  0  0  0  0
    4.8500   -4.0250   25.6020 O   0  0  0  0  0  0  0  0  0  0  0  0
    7.6190   -4.5520   27.5660 C   0  0  0  0  0  0  0  0  0  0  0  0
    6.7240   -2.3360   26.9430 C   0  0  0  0  0  0  0  0  0  0  0  0
    9.0920   -4.7500   27.1440 C   0  0  0  0  0  0  0  0  0  0  0  0
    6.8970   -5.7120   27.8310 C   0  0  0  0  0  0  0  0  0  0  0  0
  1  2  1  0
  2  3  2  0
  1  4  1  0
  1  5  1  0
  2  6  1  0
  4  7  1  6
  4  8  1  0
  5  9  1  1
  5 10  1  0
  6 11  1  0
  7 12  1  0
  7 13  2  0
  8 14  2  0
  8 15  1  0
  9 16  1  0
  9 17  1  0
 10 18  1  0
 11 18  1  0
 10 19  1  1
 20 12  1  0
 15 21  2  0
 14 22  1  0
 17 23  2  0
 16 24  1  0
 23 24  1  0
 19 25  1  0
 18 26  1  0
 20 27  1  0
 20 28  1  0
 20 29  1  0
 24 30  1  1
 25 31  1  1
 21 32  1  0
 22 32  2  0
 25 33  1  0
 26 33  1  0
 30 34  1  0
 30 35  1  0
 30 36  1  0
 31 37  1  0
 31 38  2  0
 37 39  1  0
 37 40  1  0
 39 41  1  0
 39 42  1  0
M  END
