x2540-x1493
     RDKit          3D

 39 41  0  0  0  0  0  0  0  0999 V2000
    6.7610   -1.3670   22.1550 C   0  0  1  0  0  0  0  0  0  0  0  0
    6.1020   -2.6040   21.2690 C   0  0  0  0  0  0  0  0  0  0  0  0
    4.8130   -2.9720   21.1760 O   0  0  0  0  0  0  0  0  0  0  0  0
    6.7050    0.1200   21.6400 C   0  0  1  0  0  0  0  0  0  0  0  0
    5.9380   -1.5780   23.4900 C   0  0  0  0  0  0  0  0  0  0  0  0
    8.2820   -1.4040   22.6350 C   0  0  0  0  0  0  0  0  0  0  0  0
    7.0230   -3.5430   20.5690 C   0  0  0  0  0  0  0  0  0  0  0  0
    7.8780    1.1630   21.8520 C   0  0  0  0  0  0  0  0  0  0  0  0
    5.6080   -2.9120   23.8270 C   0  0  0  0  0  0  0  0  0  0  0  0
    6.1950    0.4660   20.2550 C   0  0  0  0  0  0  0  0  0  0  0  0
    8.5290   -1.5470   23.9730 N   0  0  0  0  0  0  0  0  0  0  0  0
    9.5650   -1.3180   22.0980 C   0  0  0  0  0  0  0  0  0  0  0  0
    7.4090   -3.1800   19.1810 C   0  0  0  0  0  0  0  0  0  0  0  0
    7.9890    1.7810   23.1280 N   0  0  0  0  0  0  0  0  0  0  0  0
    8.6600    1.4900   20.9620 O   0  0  0  0  0  0  0  0  0  0  0  0
    5.0330    1.2260   20.1810 C   0  0  0  0  0  0  0  0  0  0  0  0
    6.8090    0.1020   19.0630 C   0  0  0  0  0  0  0  0  0  0  0  0
    9.9140   -1.5370   24.2440 O   0  0  0  0  0  0  0  0  0  0  0  0
   10.6440   -1.4010   23.1020 C   0  0  0  0  0  0  0  0  0  0  0  0
    6.7000   -3.9650   24.1870 C   0  0  1  0  0  0  0  0  0  0  0  0
    8.8190    2.8950   23.3920 C   0  0  0  0  0  0  0  0  0  0  0  0
   12.1650   -1.3750   23.2050 C   0  0  0  0  0  0  0  0  0  0  0  0
    6.3480    0.4500   17.8480 N   0  0  0  0  0  0  0  0  0  0  0  0
    4.5230    1.6070   18.9550 C   0  0  0  0  0  0  0  0  0  0  0  0
    6.1560   -5.2400   24.6040 N   0  0  0  0  0  0  0  0  0  0  0  0
    7.6770   -4.3760   23.1260 C   0  0  0  0  0  0  0  0  0  0  0  0
    8.7730    3.2350   24.7540 C   0  0  0  0  0  0  0  0  0  0  0  0
    8.3570    4.1370   22.6050 C   0  0  0  0  0  0  0  0  0  0  0  0
   10.0980    2.6050   22.9440 C   0  0  0  0  0  0  0  0  0  0  0  0
   12.7630   -1.7020   21.9940 C   0  0  0  0  0  0  0  0  0  0  0  0
   12.6950    0.0240   23.5680 C   0  0  0  0  0  0  0  0  0  0  0  0
   12.6840   -2.3280   24.3140 C   0  0  0  0  0  0  0  0  0  0  0  0
    6.0760   -5.7660   25.9960 C   0  0  0  0  0  0  0  0  0  0  0  0
    5.1770    1.2260   17.7940 C   0  0  0  0  0  0  0  0  0  0  0  0
    7.2580   -5.5140   22.2600 N   0  0  0  0  0  0  0  0  0  0  0  0
    5.3290   -5.8360   23.6250 C   0  0  0  0  0  0  0  0  0  0  0  0
    4.8600   -6.2410   26.5080 C   0  0  0  0  0  0  0  0  0  0  0  0
    7.0840   -5.8070   26.6950 O   0  0  0  0  0  0  0  0  0  0  0  0
    5.8450   -5.9270   22.3390 C   0  0  0  0  0  0  0  0  0  0  0  0
  1  2  1  0
  2  3  2  0
  1  4  1  0
  1  5  1  1
  1  6  1  0
  2  7  1  0
  4  8  1  6
  5  9  1  0
  4 10  1  0
  6 11  2  0
  6 12  1  0
  7 13  1  0
  8 14  1  0
  8 15  2  0
 10 16  2  0
 10 17  1  0
 11 18  1  0
 12 19  2  0
 18 19  1  0
 20  9  1  6
 21 14  1  0
 19 22  1  0
 17 23  2  0
 16 24  1  0
 20 25  1  0
 20 26  1  0
 21 27  1  0
 21 28  1  0
 21 29  1  0
 22 30  1  0
 22 31  1  0
 22 32  1  0
 25 33  1  0
 23 34  1  0
 24 34  2  0
 26 35  1  0
 25 36  1  0
 33 37  1  0
 33 38  2  0
 35 39  1  0
 36 39  1  0
M  END
