x2540-x0734
     RDKit          3D

 43 47  0  0  0  0  0  0  0  0999 V2000
    7.0400   -1.4430   21.8320 C   0  0  2  0  0  0  0  0  0  0  0  0
    6.0080   -2.7190   21.3990 C   0  0  0  0  0  0  0  0  0  0  0  0
    4.7110   -2.8960   21.2710 O   0  0  0  0  0  0  0  0  0  0  0  0
    6.5600   -0.0110   21.7550 C   0  0  1  0  0  0  0  0  0  0  0  0
    6.8820   -2.4590   22.9330 C   0  0  0  0  0  0  0  0  0  0  0  0
    8.4980   -1.3700   22.4640 C   0  0  0  0  0  0  0  0  0  0  0  0
    7.6600    1.1470   21.8310 C   0  0  0  0  0  0  0  0  0  0  0  0
    6.0830    0.4180   20.3640 C   0  0  0  0  0  0  0  0  0  0  0  0
    8.5420   -1.4260   23.8220 N   0  0  0  0  0  0  0  0  0  0  0  0
    9.8080   -1.2620   22.0350 C   0  0  0  0  0  0  0  0  0  0  0  0
    6.7670   -3.9160   21.1640 C   0  0  2  0  0  0  0  0  0  0  0  0
    7.8030   -3.5420   22.1810 C   0  0  2  0  0  0  0  0  0  0  0  0
    6.8160   -3.6100   19.6790 C   0  0  0  0  0  0  0  0  0  0  0  0
    7.6960    1.8710   23.0420 N   0  0  0  0  0  0  0  0  0  0  0  0
    8.4210    1.4250   20.8930 O   0  0  0  0  0  0  0  0  0  0  0  0
    4.9840    1.2670   20.2170 C   0  0  0  0  0  0  0  0  0  0  0  0
    6.7800   -0.0470   19.2410 C   0  0  0  0  0  0  0  0  0  0  0  0
    9.8770   -1.3660   24.2130 O   0  0  0  0  0  0  0  0  0  0  0  0
   10.7000   -1.2630   23.1310 C   0  0  0  0  0  0  0  0  0  0  0  0
    6.0220   -5.2250   21.6000 C   0  0  0  0  0  0  0  0  0  0  0  0
    8.1520   -4.5830   22.9870 C   0  0  0  0  0  0  0  0  0  0  0  0
    8.7120    2.8720   23.3680 C   0  0  0  0  0  0  0  0  0  0  0  0
   12.1890   -1.1920   23.4520 C   0  0  0  0  0  0  0  0  0  0  0  0
    6.3710    0.3550   17.8930 N   0  0  0  0  0  0  0  0  0  0  0  0
    4.5380    1.6920   18.9740 C   0  0  0  0  0  0  0  0  0  0  0  0
    5.8050   -5.3330   23.0030 C   0  0  0  0  0  0  0  0  0  0  0  0
    6.9610   -4.8010   23.7690 N   0  0  0  0  0  0  0  0  0  0  0  0
    8.6860    3.1340   24.8620 C   0  0  0  0  0  0  0  0  0  0  0  0
    8.3990    4.1580   22.6540 C   0  0  0  0  0  0  0  0  0  0  0  0
   10.1450    2.4400   22.9640 C   0  0  0  0  0  0  0  0  0  0  0  0
   12.8840   -1.2000   22.2020 C   0  0  0  0  0  0  0  0  0  0  0  0
   12.2900   -0.1900   24.3850 C   0  0  0  0  0  0  0  0  0  0  0  0
   12.4860   -2.3340   24.2280 C   0  0  0  0  0  0  0  0  0  0  0  0
    5.2110    1.2550   17.8440 C   0  0  0  0  0  0  0  0  0  0  0  0
    7.3810   -5.2410   25.0890 C   0  0  0  0  0  0  0  0  0  0  0  0
    6.4380   -5.1480   26.1420 C   0  0  0  0  0  0  0  0  0  0  0  0
    8.6680   -5.7360   25.3360 C   0  0  0  0  0  0  0  0  0  0  0  0
    5.1670   -4.6930   26.0040 N   0  0  0  0  0  0  0  0  0  0  0  0
    9.0080   -6.1530   26.7240 C   0  0  0  0  0  0  0  0  0  0  0  0
    6.8450   -5.5780   27.5110 C   0  0  0  0  0  0  0  0  0  0  0  0
    4.3650   -5.4970   25.5050 O   0  0  0  0  0  0  0  0  0  0  0  0
    4.8380   -3.7410   26.7250 O   0  0  0  0  0  0  0  0  0  0  0  0
    8.1310   -6.0610   27.7220 C   0  0  0  0  0  0  0  0  0  0  0  0
  1  2  1  0
  2  3  2  0
  1  4  1  0
  1  5  1  0
  1  6  1  6
  4  7  1  6
  4  8  1  0
  6  9  2  0
  6 10  1  0
  2 11  1  0
 12  5  1  1
 11 12  1  0
 11 13  1  6
  7 14  1  0
  7 15  2  0
  8 16  2  0
  8 17  1  0
  9 18  1  0
 10 19  2  0
 18 19  1  0
 11 20  1  0
 12 21  1  0
 22 14  1  0
 19 23  1  0
 17 24  2  0
 16 25  1  0
 20 26  1  0
 21 27  1  0
 26 27  1  0
 22 28  1  0
 22 29  1  0
 22 30  1  0
 23 31  1  0
 23 32  1  0
 23 33  1  0
 24 34  1  0
 25 34  2  0
 27 35  1  0
 35 36  2  0
 35 37  1  0
 36 38  1  0
 37 39  2  0
 36 40  1  0
 38 41  2  0
 38 42  1  0
 39 43  1  0
 40 43  2  0
M  CHG  2  38   1  42  -1
M  END
