x2540-x0978-x0689-x1402-x3110
     RDKit          3D

 60 66  0  0  0  0  0  0  0  0999 V2000
    7.9540    1.3000   23.1420 N   0  0  0  0  0  0  0  0  0  0  0  0
    8.7900    2.4430   23.5940 C   0  0  0  0  0  0  0  0  0  0  0  0
   10.1190    2.1980   23.5060 C   0  0  0  0  0  0  0  0  0  0  0  0
    7.7890    0.8410   21.7600 C   0  0  0  0  0  0  0  0  0  0  0  0
    8.5240    1.3940   20.9250 O   0  0  0  0  0  0  0  0  0  0  0  0
    6.7270   -0.2360   21.4190 C   0  0  2  0  0  0  0  0  0  0  0  0
    8.3910    3.0450   24.9040 C   0  0  0  0  0  0  0  0  0  0  0  0
    8.5940    3.5940   22.6160 C   0  0  0  0  0  0  0  0  0  0  0  0
    7.0830   -1.6820   21.4520 N   0  0  0  0  0  0  0  0  0  0  0  0
   11.0670    3.3940   23.4130 C   0  0  0  0  0  0  0  0  0  0  0  0
    6.1810    0.2940   20.1570 C   0  0  0  0  0  0  0  0  0  0  0  0
   11.8890    3.2640   22.5150 O   0  0  0  0  0  0  0  0  0  0  0  0
   10.9920    4.3660   24.1540 O   0  0  0  0  0  0  0  0  0  0  0  0
    6.1700   -2.8710   21.1760 C   0  0  0  0  0  0  0  0  0  0  0  0
    4.9200    1.2080   20.1960 C   0  0  0  0  0  0  0  0  0  0  0  0
    6.8390   -0.0030   18.8390 C   0  0  0  0  0  0  0  0  0  0  0  0
    8.1170   -1.6870   22.4350 C   0  0  0  0  0  0  0  0  0  0  0  0
   12.2580    4.4460   21.9490 C   0  0  0  0  0  0  0  0  0  0  0  0
    4.8540   -3.0190   21.1650 O   0  0  0  0  0  0  0  0  0  0  0  0
    6.8540   -4.1630   20.7950 C   0  0  1  0  0  0  0  0  0  0  0  0
    6.2900    0.5930   17.6450 N   0  0  0  0  0  0  0  0  0  0  0  0
    4.4680    1.7440   18.8920 C   0  0  0  0  0  0  0  0  0  0  0  0
    9.5010   -1.7200   22.0830 C   0  0  0  0  0  0  0  0  0  0  0  0
    7.7660   -1.6240   23.7690 C   0  0  0  0  0  0  0  0  0  0  0  0
   13.3840    5.1190   22.8040 C   0  0  0  0  0  0  0  0  0  0  0  0
    8.3450   -3.9230   20.5140 C   0  0  0  0  0  0  0  0  0  0  0  0
    5.2000    1.4110   17.6270 C   0  0  0  0  0  0  0  0  0  0  0  0
   10.5330   -1.6870   23.2030 C   0  0  0  0  0  0  0  0  0  0  0  0
    8.7190   -1.5890   24.7590 C   0  0  0  0  0  0  0  0  0  0  0  0
    6.5720   -5.1990   21.7030 N   0  0  0  0  0  0  0  0  0  0  0  0
   12.0220   -1.7180   23.1380 C   0  0  1  0  0  0  0  0  0  0  0  0
   10.0050   -1.6220   24.4660 C   0  0  0  0  0  0  0  0  0  0  0  0
    7.2000   -5.0790   22.9240 C   0  0  0  0  0  0  0  0  0  0  0  0
    5.2450   -5.7870   21.7850 C   0  0  0  0  0  0  0  0  0  0  0  0
   12.4590   -1.8220   24.7620 C   0  0  2  0  0  0  0  0  0  0  0  0
   12.5180   -2.9780   23.7970 C   0  0  0  0  0  0  0  0  0  0  0  0
    6.3080   -4.4530   23.8500 C   0  0  0  0  0  0  0  0  0  0  0  0
    4.9640   -6.1690   23.0880 C   0  0  2  0  0  0  0  0  0  0  0  0
   12.5800   -0.1870   22.6590 C   0  0  0  0  0  0  0  0  0  0  0  0
   12.5010    0.3300   24.0310 C   0  0  0  0  0  0  0  0  0  0  0  0
   13.5910   -2.2080   25.3020 C   0  0  0  0  0  0  0  0  0  0  0  0
    3.5380   -6.5970   23.3370 C   0  0  2  0  0  0  0  0  0  0  0  0
    5.1200   -5.1540   24.0300 C   0  0  2  0  0  0  0  0  0  0  0  0
   12.5680   -0.8320   23.9190 C   0  0  0  0  0  0  0  0  0  0  0  0
    2.5150   -5.7030   23.1730 N   0  0  0  0  0  0  0  0  0  0  0  0
    3.7470   -7.0430   24.7510 C   0  0  1  0  0  0  0  0  0  0  0  0
    4.2910   -4.1390   23.4500 O   0  0  0  0  0  0  0  0  0  0  0  0
    4.5150   -5.7020   25.6610 S   0  0  0  0  0  0  0  0  0  0  0  0
    2.5780   -7.7900   25.3700 C   0  0  0  0  0  0  0  0  0  0  0  0
    4.5910   -8.1370   24.5100 O   0  0  0  0  0  0  0  0  0  0  0  0
    1.2170   -6.2680   22.6790 C   0  0  0  0  0  0  0  0  0  0  0  0
    2.9820   -5.5100   25.5220 O   0  0  0  0  0  0  0  0  0  0  0  0
    4.0160   -4.0310   25.9860 C   0  0  0  0  0  0  0  0  0  0  0  0
    1.0800   -7.3240   22.0200 O   0  0  0  0  0  0  0  0  0  0  0  0
   -0.0200   -5.4810   23.0040 C   0  0  0  0  0  0  0  0  0  0  0  0
    2.3070   -3.4230   25.9250 S   0  0  0  0  0  0  0  0  0  0  0  0
    4.7690   -2.7700   26.3430 C   0  0  0  0  0  0  0  0  0  0  0  0
    3.9200   -1.6750   26.4810 C   0  0  0  0  0  0  0  0  0  0  0  0
    2.5310   -1.7640   26.3060 C   0  0  0  0  0  0  0  0  0  0  0  0
    1.3210   -0.5010   26.4410 Cl  0  0  0  0  0  0  0  0  0  0  0  0
  2  1  1  0
  2  3  1  0
  1  4  1  0
  4  5  2  0
  6  4  1  6
  2  7  1  0
  2  8  1  0
  6  9  1  0
  3 10  1  0
  6 11  1  0
 10 12  1  0
 10 13  2  0
  9 14  1  0
 11 15  2  0
 11 16  1  0
  9 17  1  0
 12 18  1  0
 14 19  2  0
 14 20  1  0
 16 21  2  0
 15 22  1  0
 17 23  2  0
 17 24  1  0
 18 25  1  0
 20 26  1  1
 21 27  1  0
 22 27  2  0
 23 28  1  0
 24 29  2  0
 20 30  1  0
 31 28  1  1
 28 32  2  0
 29 32  1  0
 30 33  1  0
 30 34  1  0
 31 35  1  0
 31 36  1  0
 35 36  1  0
 33 37  1  0
 38 34  1  6
 31 39  1  0
 39 40  1  0
 35 41  1  6
 38 42  1  0
 37 43  1  0
 38 43  1  0
 35 44  1  0
 40 44  2  0
 42 45  1  1
 42 46  1  0
 43 47  1  6
 43 48  1  0
 46 48  1  0
 46 49  1  1
 46 50  1  0
 45 51  1  0
 48 52  2  0
 48 53  1  0
 51 54  2  0
 51 55  1  0
 53 56  1  0
 53 57  2  0
 57 58  1  0
 56 59  1  0
 58 59  2  0
 59 60  1  0
M  END
