x2540-x2193
     RDKit          3D

 35 37  0  0  0  0  0  0  0  0999 V2000
    6.8830   -1.4010   21.8810 N   0  0  0  0  0  0  0  0  0  0  0  0
    6.1540   -2.6660   21.4330 C   0  0  0  0  0  0  0  0  0  0  0  0
    4.8420   -3.0770   21.3730 O   0  0  0  0  0  0  0  0  0  0  0  0
    6.5140    0.0360   21.4870 C   0  0  1  0  0  0  0  0  0  0  0  0
    8.1810   -1.3390   22.6500 C   0  0  1  0  0  0  0  0  0  0  0  0
    7.1110   -3.6840   20.9130 C   0  0  0  0  0  0  0  0  0  0  0  0
    7.5720    1.1890   21.6580 C   0  0  0  0  0  0  0  0  0  0  0  0
    5.9850    0.4120   20.1520 C   0  0  0  0  0  0  0  0  0  0  0  0
    8.2890   -1.7860   23.9310 N   0  0  0  0  0  0  0  0  0  0  0  0
    9.5230   -1.5900   22.1900 C   0  0  0  0  0  0  0  0  0  0  0  0
    7.3720   -3.3410   19.4690 C   0  0  0  0  0  0  0  0  0  0  0  0
    7.3480    1.9480   22.7700 N   0  0  0  0  0  0  0  0  0  0  0  0
    8.4680    1.4050   20.8400 O   0  0  0  0  0  0  0  0  0  0  0  0
    4.8060    1.1300   20.0850 C   0  0  0  0  0  0  0  0  0  0  0  0
    6.7490    0.0380   19.0520 C   0  0  0  0  0  0  0  0  0  0  0  0
    9.6090   -1.5580   24.3140 O   0  0  0  0  0  0  0  0  0  0  0  0
   10.4500   -1.7590   23.2510 C   0  0  2  0  0  0  0  0  0  0  0  0
    8.1280   -3.2180   24.1680 C   0  0  0  0  0  0  0  0  0  0  0  0
    8.4520    2.5270   23.4490 C   0  0  0  0  0  0  0  0  0  0  0  0
   11.8910   -1.2600   23.5550 C   0  0  0  0  0  0  0  0  0  0  0  0
    6.2730    0.4550   17.7580 N   0  0  0  0  0  0  0  0  0  0  0  0
    4.3850    1.5080   18.8280 C   0  0  0  0  0  0  0  0  0  0  0  0
    9.1760   -3.5990   25.1610 N   0  0  0  0  0  0  0  0  0  0  0  0
    8.2790    2.1420   24.9370 C   0  0  0  0  0  0  0  0  0  0  0  0
    8.4260    4.0210   23.2200 C   0  0  0  0  0  0  0  0  0  0  0  0
    9.7920    1.9780   22.8560 C   0  0  0  0  0  0  0  0  0  0  0  0
   12.5760   -1.2260   22.2880 C   0  0  0  0  0  0  0  0  0  0  0  0
   11.7910   -0.1820   24.4030 C   0  0  0  0  0  0  0  0  0  0  0  0
   12.4720   -2.2210   24.4090 C   0  0  0  0  0  0  0  0  0  0  0  0
    5.1400    1.1600   17.7320 C   0  0  0  0  0  0  0  0  0  0  0  0
    8.6710   -3.9580   26.5080 C   0  0  0  0  0  0  0  0  0  0  0  0
    9.9850   -4.6860   24.6600 C   0  0  0  0  0  0  0  0  0  0  0  0
    8.6010   -5.3380   26.7170 C   0  0  0  0  0  0  0  0  0  0  0  0
    9.2170   -5.8240   24.5170 C   0  0  0  0  0  0  0  0  0  0  0  0
    8.1960   -5.8920   25.5840 N   0  0  0  0  0  0  0  0  0  0  0  0
  1  2  1  0
  2  3  2  0
  1  4  1  0
  5  1  1  6
  2  6  1  0
  4  7  1  6
  4  8  1  0
  5  9  1  0
  5 10  1  0
  6 11  1  0
  7 12  1  0
  7 13  2  0
  8 14  2  0
  8 15  1  0
  9 16  1  0
 10 17  1  0
 16 17  1  0
  9 18  1  0
 19 12  1  0
 17 20  1  6
 15 21  2  0
 14 22  1  0
 18 23  1  0
 19 24  1  0
 19 25  1  0
 19 26  1  0
 20 27  1  0
 20 28  1  0
 20 29  1  0
 21 30  1  0
 22 30  2  0
 23 31  1  0
 23 32  1  0
 31 33  1  0
 32 34  1  0
 33 35  1  0
 34 35  1  0
M  END
