x2540-x2643
     RDKit          3D

 28 29  0  0  0  0  0  0  0  0999 V2000
    7.0140   -1.3440   21.7820 N   0  0  0  0  0  0  0  0  0  0  0  0
    5.8570   -2.3060   21.7440 C   0  0  0  0  0  0  0  0  0  0  0  0
    4.9370   -3.2110   21.3470 O   0  0  0  0  0  0  0  0  0  0  0  0
    6.8050    0.1490   21.5100 C   0  0  1  0  0  0  0  0  0  0  0  0
    8.2450   -1.5450   22.5600 C   0  0  0  0  0  0  0  0  0  0  0  0
    6.3880   -2.5070   20.3450 C   0  0  0  0  0  0  0  0  0  0  0  0
    7.9720    1.1790   21.8020 C   0  0  0  0  0  0  0  0  0  0  0  0
    6.1970    0.5460   20.1930 C   0  0  0  0  0  0  0  0  0  0  0  0
    8.3220   -2.1630   23.7700 N   0  0  0  0  0  0  0  0  0  0  0  0
    9.5850   -1.1630   22.3070 C   0  0  0  0  0  0  0  0  0  0  0  0
    6.6930   -3.9690   20.0950 C   0  0  0  0  0  0  0  0  0  0  0  0
    8.0220    1.6430   23.0960 N   0  0  0  0  0  0  0  0  0  0  0  0
    8.7430    1.5720   20.9320 O   0  0  0  0  0  0  0  0  0  0  0  0
    5.0590    1.3410   20.1670 C   0  0  0  0  0  0  0  0  0  0  0  0
    6.8500    0.0900   19.0530 C   0  0  0  0  0  0  0  0  0  0  0  0
    9.6630   -2.1340   24.2080 O   0  0  0  0  0  0  0  0  0  0  0  0
   10.4810   -1.5070   23.3090 C   0  0  0  0  0  0  0  0  0  0  0  0
    8.8270    2.8150   23.3840 C   0  0  0  0  0  0  0  0  0  0  0  0
   11.9780   -1.3700   23.6300 C   0  0  0  0  0  0  0  0  0  0  0  0
    6.3100    0.4830   17.7700 N   0  0  0  0  0  0  0  0  0  0  0  0
    4.5700    1.6940   18.9140 C   0  0  0  0  0  0  0  0  0  0  0  0
    8.6880    3.1380   24.8590 C   0  0  0  0  0  0  0  0  0  0  0  0
    8.4160    4.0250   22.5920 C   0  0  0  0  0  0  0  0  0  0  0  0
   10.3120    2.5180   23.0610 C   0  0  0  0  0  0  0  0  0  0  0  0
   12.6420   -1.2580   22.3580 C   0  0  0  0  0  0  0  0  0  0  0  0
   12.0410   -0.4020   24.6010 C   0  0  0  0  0  0  0  0  0  0  0  0
   12.3820   -2.5190   24.3510 C   0  0  0  0  0  0  0  0  0  0  0  0
    5.2180    1.2540   17.7790 C   0  0  0  0  0  0  0  0  0  0  0  0
  1  2  1  0
  2  3  2  0
  1  4  1  0
  1  5  1  0
  2  6  1  0
  4  7  1  6
  4  8  1  0
  5  9  2  0
  5 10  1  0
  6 11  1  0
  7 12  1  0
  7 13  2  0
  8 14  2  0
  8 15  1  0
  9 16  1  0
 10 17  2  0
 16 17  1  0
 18 12  1  0
 17 19  1  0
 15 20  2  0
 14 21  1  0
 18 22  1  0
 18 23  1  0
 18 24  1  0
 19 25  1  0
 19 26  1  0
 19 27  1  0
 20 28  1  0
 21 28  2  0
M  END
