x2540-x2776
     RDKit          3D

 35 37  0  0  0  0  0  0  0  0999 V2000
    6.9720   -1.2170   21.8600 N   0  0  0  0  0  0  0  0  0  0  0  0
    5.7990   -2.1790   21.6250 C   0  0  0  0  0  0  0  0  0  0  0  0
    4.9440   -3.2100   21.3490 O   0  0  0  0  0  0  0  0  0  0  0  0
    6.8340    0.2970   21.6100 C   0  0  1  0  0  0  0  0  0  0  0  0
    8.2200   -1.4270   22.5960 C   0  0  0  0  0  0  0  0  0  0  0  0
    6.8740   -3.1930   21.2440 C   0  0  0  0  0  0  0  0  0  0  0  0
    8.0880    1.3030   21.6700 C   0  0  0  0  0  0  0  0  0  0  0  0
    6.2120    0.6170   20.2840 C   0  0  0  0  0  0  0  0  0  0  0  0
    8.3400   -1.7710   23.9110 N   0  0  0  0  0  0  0  0  0  0  0  0
    9.5590   -1.3080   22.1910 C   0  0  0  0  0  0  0  0  0  0  0  0
    6.6740   -3.6870   19.8210 C   0  0  0  0  0  0  0  0  0  0  0  0
    8.6590    1.8020   22.8970 N   0  0  0  0  0  0  0  0  0  0  0  0
    8.5180    1.6770   20.6080 O   0  0  0  0  0  0  0  0  0  0  0  0
    5.1290    1.4570   20.1370 C   0  0  0  0  0  0  0  0  0  0  0  0
    6.8070    0.0270   19.1500 C   0  0  0  0  0  0  0  0  0  0  0  0
    9.7220   -1.8260   24.2420 O   0  0  0  0  0  0  0  0  0  0  0  0
   10.5050   -1.5400   23.1490 C   0  0  0  0  0  0  0  0  0  0  0  0
   12.0270   -1.5550   23.2700 C   0  0  0  0  0  0  0  0  0  0  0  0
    6.2540    0.3390   17.8310 N   0  0  0  0  0  0  0  0  0  0  0  0
    4.6300    1.7340   18.8990 C   0  0  0  0  0  0  0  0  0  0  0  0
    9.2800    3.1520   23.0780 C   0  0  0  0  0  0  0  0  0  0  0  0
   12.6770   -1.8300   21.8980 C   0  0  0  0  0  0  0  0  0  0  0  0
   12.5850   -0.1870   23.6920 C   0  0  0  0  0  0  0  0  0  0  0  0
   12.4300   -2.6860   24.2410 C   0  0  0  0  0  0  0  0  0  0  0  0
    5.2020    1.1760   17.7870 C   0  0  0  0  0  0  0  0  0  0  0  0
    9.4580    4.2210   24.0780 C   0  0  0  0  0  0  0  0  0  0  0  0
    8.2130    2.6680   23.1330 C   0  0  0  0  0  0  0  0  0  0  0  0
    9.0930    4.0430   25.5290 C   0  0  0  0  0  0  0  0  0  0  0  0
    9.4500    1.6710   23.2060 C   0  0  0  0  0  0  0  0  0  0  0  0
   13.4900   -2.4540   25.3300 C   0  0  0  0  0  0  0  0  0  0  0  0
   10.0040    5.3480   23.8080 C   0  0  0  0  0  0  0  0  0  0  0  0
    8.1790    4.1420   22.8440 C   0  0  0  0  0  0  0  0  0  0  0  0
   10.7020    6.4490   24.2680 O   0  0  0  0  0  0  0  0  0  0  0  0
    9.0610    5.3650   22.8420 C   0  0  0  0  0  0  0  0  0  0  0  0
   11.8760    6.2300   25.0420 C   0  0  0  0  0  0  0  0  0  0  0  0
  1  2  1  0
  2  3  2  0
  1  4  1  0
  1  5  1  0
  2  6  1  0
  4  7  1  6
  4  8  1  0
  5  9  2  0
  5 10  1  0
  6 11  1  0
  7 12  1  0
  7 13  2  0
  8 14  2  0
  8 15  1  0
  9 16  1  0
 10 17  2  0
 16 17  1  0
 17 18  1  0
 15 19  2  0
 14 20  1  0
 12 21  1  0
 18 22  1  0
 18 23  1  0
 18 24  1  0
 19 25  1  0
 20 25  2  0
 21 26  2  0
 21 27  1  0
 26 28  1  0
 27 29  1  0
 24 30  1  0
 26 31  1  0
 27 32  2  0
 31 33  1  0
 31 34  2  0
 32 34  1  0
 33 35  1  0
M  END
