x2569-x1412
     RDKit          3D

 34 37  0  0  0  0  0  0  0  0999 V2000
    7.8530   -0.6530   21.6550 C   0  0  1  0  0  0  0  0  0  0  0  0
    8.9630   -0.4340   20.8410 O   0  0  0  0  0  0  0  0  0  0  0  0
    8.4200    0.0600   22.8650 C   0  0  0  0  0  0  0  0  0  0  0  0
    6.7000   -0.1770   21.3600 N   0  0  0  0  0  0  0  0  0  0  0  0
    7.6870   -2.1370   21.9680 C   0  0  1  0  0  0  0  0  0  0  0  0
    9.9770   -0.0230   22.9960 C   0  0  0  0  0  0  0  0  0  0  0  0
    6.2310    0.3580   20.0450 C   0  0  0  0  0  0  0  0  0  0  0  0
    6.7530   -2.9780   21.3640 N   0  0  0  0  0  0  0  0  0  0  0  0
    8.8570   -2.7510   22.3400 C   0  0  0  0  0  0  0  0  0  0  0  0
    6.5170   -3.3370   20.0320 C   0  0  0  0  0  0  0  0  0  0  0  0
   10.8270   -0.8650   22.1270 C   0  0  0  0  0  0  0  0  0  0  0  0
   10.5250    0.7820   24.0170 C   0  0  0  0  0  0  0  0  0  0  0  0
    6.8600    0.1940   18.8220 C   0  0  0  0  0  0  0  0  0  0  0  0
    4.9480    1.1230   20.2270 C   0  0  0  0  0  0  0  0  0  0  0  0
    8.2950   -3.5250   23.4310 N   0  0  0  0  0  0  0  0  0  0  0  0
    6.3630   -3.9920   22.3660 C   0  0  0  0  0  0  0  0  0  0  0  0
    7.4920   -2.9590   18.9320 C   0  0  0  0  0  0  0  0  0  0  0  0
    5.5160   -4.0190   19.7270 O   0  0  0  0  0  0  0  0  0  0  0  0
    8.3370   -2.9960   24.7300 C   0  0  0  0  0  0  0  0  0  0  0  0
   11.9870    0.7890   24.2120 N   0  0  0  0  0  0  0  0  0  0  0  0
   12.1800   -0.8340   22.3310 C   0  0  0  0  0  0  0  0  0  0  0  0
    6.4110    0.6680   17.8480 N   0  0  0  0  0  0  0  0  0  0  0  0
    4.4250    1.7010   18.9390 C   0  0  0  0  0  0  0  0  0  0  0  0
    7.4680   -4.5240   23.0570 C   0  0  0  0  0  0  0  0  0  0  0  0
   13.0190   -1.5900   21.5270 C   0  0  0  0  0  0  0  0  0  0  0  0
    8.2300   -1.8050   25.0230 O   0  0  0  0  0  0  0  0  0  0  0  0
   12.7680   -0.0290   23.3460 C   0  0  0  0  0  0  0  0  0  0  0  0
    5.1650    1.4650   17.7980 C   0  0  0  0  0  0  0  0  0  0  0  0
    8.5310   -4.0530   25.7270 C   0  0  0  0  0  0  0  0  0  0  0  0
   13.6230   -2.1560   20.7810 N   0  0  0  0  0  0  0  0  0  0  0  0
    9.4170   -5.3040   25.5280 C   0  0  0  0  0  0  0  0  0  0  0  0
    7.7670   -4.0660   27.3250 S   0  0  0  0  0  0  0  0  0  0  0  0
    8.5800   -5.6050   27.6510 C   0  0  0  0  0  0  0  0  0  0  0  0
    9.3920   -6.1330   26.6550 C   0  0  0  0  0  0  0  0  0  0  0  0
  1  2  1  6
  1  3  1  0
  1  4  1  0
  1  5  1  0
  3  6  1  0
  4  7  1  0
  5  8  1  0
  5  9  1  6
  8 10  1  0
  6 11  2  0
  6 12  1  0
  7 13  2  0
  7 14  1  0
  9 15  1  0
  8 16  1  0
 10 17  1  0
 10 18  2  0
 15 19  1  0
 12 20  2  0
 11 21  1  0
 13 22  1  0
 14 23  2  0
 15 24  1  0
 16 24  1  0
 21 25  1  0
 19 26  2  0
 20 27  1  0
 21 27  2  0
 22 28  2  0
 23 28  1  0
 19 29  1  0
 25 30  3  0
 29 31  2  0
 29 32  1  0
 32 33  1  0
 31 34  1  0
 33 34  2  0
M  END
