x2569-x0689
     RDKit          3D

 37 40  0  0  0  0  0  0  0  0999 V2000
    6.9400   -3.4810   19.9610 C   0  0  0  0  0  0  0  0  0  0  0  0
    6.2190   -4.5030   20.4330 C   0  0  0  0  0  0  0  0  0  0  0  0
    5.1470   -4.7190   19.9130 O   0  0  0  0  0  0  0  0  0  0  0  0
    6.6250   -5.3280   21.4920 N   0  0  0  0  0  0  0  0  0  0  0  0
    5.6460   -6.3360   21.9480 C   0  0  0  0  0  0  0  0  0  0  0  0
    7.4210   -4.8700   22.6120 C   0  0  0  0  0  0  0  0  0  0  0  0
    4.7410   -5.6980   23.0340 C   0  0  0  0  0  0  0  0  0  0  0  0
    6.7510   -4.2160   23.7780 C   0  0  1  0  0  0  0  0  0  0  0  0
    6.8370   -2.6700   23.5960 C   0  0  0  0  0  0  0  0  0  0  0  0
    5.3360   -4.7830   23.9370 N   0  0  0  0  0  0  0  0  0  0  0  0
    4.6700   -4.7440   25.4640 S   0  0  0  0  0  0  0  0  0  0  0  0
    8.2700   -2.2470   23.0660 C   0  0  0  0  0  0  0  0  0  0  0  0
    4.0350   -6.1140   25.7530 O   0  0  0  0  0  0  0  0  0  0  0  0
    5.6870   -4.2390   26.3520 O   0  0  0  0  0  0  0  0  0  0  0  0
    8.6040   -0.7360   23.0970 C   0  0  2  0  0  0  0  0  0  0  0  0
    3.3660   -3.6680   25.6170 C   0  0  0  0  0  0  0  0  0  0  0  0
    8.1090    0.0220   21.8940 C   0  0  0  0  0  0  0  0  0  0  0  0
    3.7260   -2.0250   26.0570 S   0  0  0  0  0  0  0  0  0  0  0  0
    1.8510   -3.8140   25.4330 C   0  0  0  0  0  0  0  0  0  0  0  0
   10.0610   -0.5360   23.1760 C   0  0  0  0  0  0  0  0  0  0  0  0
    8.7490    0.9670   21.4310 O   0  0  0  0  0  0  0  0  0  0  0  0
    6.8570   -0.4410   21.3590 N   0  0  0  0  0  0  0  0  0  0  0  0
    1.0810   -2.5660   25.6670 C   0  0  0  0  0  0  0  0  0  0  0  0
    2.0960   -1.4940   26.0290 C   0  0  0  0  0  0  0  0  0  0  0  0
   10.9030   -1.2360   22.3570 C   0  0  0  0  0  0  0  0  0  0  0  0
   10.5580    0.3770   24.0800 C   0  0  0  0  0  0  0  0  0  0  0  0
   12.0110    0.5910   24.1480 N   0  0  0  0  0  0  0  0  0  0  0  0
   12.2640   -1.0610   22.3940 C   0  0  0  0  0  0  0  0  0  0  0  0
    6.2550    0.1560   20.2380 C   0  0  0  0  0  0  0  0  0  0  0  0
   13.0150   -1.8290   21.5110 C   0  0  0  0  0  0  0  0  0  0  0  0
   12.8720   -0.1650   23.2610 C   0  0  0  0  0  0  0  0  0  0  0  0
    6.9000    0.0490   18.8360 C   0  0  0  0  0  0  0  0  0  0  0  0
    4.9560    0.9530   20.2650 C   0  0  0  0  0  0  0  0  0  0  0  0
   13.5430   -2.4880   20.7680 N   0  0  0  0  0  0  0  0  0  0  0  0
    6.3980    0.6070   17.7280 N   0  0  0  0  0  0  0  0  0  0  0  0
    4.5320    1.4790   19.0430 C   0  0  0  0  0  0  0  0  0  0  0  0
    5.2530    1.2890   17.8690 C   0  0  0  0  0  0  0  0  0  0  0  0
  1  2  1  0
  2  3  2  0
  2  4  1  0
  4  5  1  0
  4  6  1  0
  5  7  1  0
  6  8  1  0
  8  9  1  6
  7 10  1  0
  8 10  1  0
 10 11  1  0
  9 12  1  0
 11 13  2  0
 11 14  2  0
 15 12  1  6
 11 16  1  0
 15 17  1  0
 16 18  1  0
 16 19  2  0
 15 20  1  0
 17 21  2  0
 17 22  1  0
 19 23  1  0
 18 24  1  0
 23 24  2  0
 20 25  2  0
 20 26  1  0
 26 27  2  0
 25 28  1  0
 22 29  1  0
 28 30  1  0
 27 31  1  0
 28 31  2  0
 29 32  2  0
 29 33  1  0
 30 34  3  0
 32 35  1  0
 33 36  2  0
 35 37  2  0
 36 37  1  0
M  END
