x2562-x1334
     RDKit          3D

 39 43  0  0  0  0  0  0  0  0999 V2000
    7.9460   -0.4610   21.0280 C   0  0  1  0  0  0  0  0  0  0  0  0
    7.6440    0.6540   21.4550 O   0  0  0  0  0  0  0  0  0  0  0  0
    9.2880   -0.8030   21.2120 N   0  0  0  0  0  0  0  0  0  0  0  0
    7.4210   -1.7070   21.7900 C   0  0  1  0  0  0  0  0  0  0  0  0
    7.4860   -0.5680   19.4920 C   0  0  0  0  0  0  0  0  0  0  0  0
   10.4220   -0.2360   21.9220 C   0  0  0  0  0  0  0  0  0  0  0  0
    6.5050   -2.5690   21.2230 N   0  0  0  0  0  0  0  0  0  0  0  0
    8.4470   -2.3070   22.4620 C   0  0  0  0  0  0  0  0  0  0  0  0
    6.0990   -1.0550   19.1760 C   0  0  0  0  0  0  0  0  0  0  0  0
    6.4930   -3.3410   19.9980 C   0  0  0  0  0  0  0  0  0  0  0  0
   11.5640   -1.0550   22.1410 C   0  0  0  0  0  0  0  0  0  0  0  0
   10.4360    1.1230   22.3570 C   0  0  0  0  0  0  0  0  0  0  0  0
    8.0270   -3.1910   23.2900 N   0  0  0  0  0  0  0  0  0  0  0  0
    6.0810   -3.3510   22.2250 C   0  0  0  0  0  0  0  0  0  0  0  0
    5.5230    0.1030   19.0140 C   0  0  0  0  0  0  0  0  0  0  0  0
    7.5440   -3.0880   18.9020 C   0  0  0  0  0  0  0  0  0  0  0  0
    5.6310   -4.2190   19.8100 O   0  0  0  0  0  0  0  0  0  0  0  0
    9.2320   -3.8230   23.6730 C   0  0  0  0  0  0  0  0  0  0  0  0
   12.6920   -0.5440   22.7370 C   0  0  0  0  0  0  0  0  0  0  0  0
   11.6090    1.6580   22.9630 C   0  0  0  0  0  0  0  0  0  0  0  0
    7.1140   -4.0780   22.8270 C   0  0  0  0  0  0  0  0  0  0  0  0
    5.6090    0.7440   17.7360 N   0  0  0  0  0  0  0  0  0  0  0  0
    4.9010    0.5780   20.1240 C   0  0  0  0  0  0  0  0  0  0  0  0
   11.7290    2.9800   23.3840 O   0  0  0  0  0  0  0  0  0  0  0  0
   12.6700    0.7710   23.1090 C   0  0  0  0  0  0  0  0  0  0  0  0
    9.0330   -4.5120   24.9180 C   0  0  0  0  0  0  0  0  0  0  0  0
    4.8930    1.9720   17.8770 C   0  0  0  0  0  0  0  0  0  0  0  0
    4.2460    1.7840   20.1390 C   0  0  0  0  0  0  0  0  0  0  0  0
   12.8130    3.7380   22.7600 C   0  0  1  0  0  0  0  0  0  0  0  0
    9.7140   -5.6730   25.2410 C   0  0  0  0  0  0  0  0  0  0  0  0
    7.9230   -3.9990   26.1290 S   0  0  0  0  0  0  0  0  0  0  0  0
    4.2420    2.4960   18.9720 N   0  0  0  0  0  0  0  0  0  0  0  0
   12.4750    4.5920   21.7560 N   0  0  0  0  0  0  0  0  0  0  0  0
   13.4170    4.7860   23.4330 C   0  0  0  0  0  0  0  0  0  0  0  0
    8.3270   -5.3390   27.0820 C   0  0  0  0  0  0  0  0  0  0  0  0
    9.2900   -6.1280   26.4950 C   0  0  0  0  0  0  0  0  0  0  0  0
    7.5470   -5.5750   28.5700 Cl  0  0  0  0  0  0  0  0  0  0  0  0
   13.2790    5.5440   22.3110 C   0  0  2  0  0  0  0  0  0  0  0  0
   12.9960    6.7120   22.5340 O   0  0  0  0  0  0  0  0  0  0  0  0
  1  2  1  1
  1  3  1  0
  1  4  1  0
  1  5  1  0
  3  6  1  0
  4  7  1  0
  4  8  1  6
  5  9  1  0
  7 10  1  0
  6 11  2  0
  6 12  1  0
  8 13  1  0
  7 14  1  0
  9 15  1  0
 10 16  1  0
 10 17  2  0
 13 18  1  0
 11 19  1  0
 12 20  2  0
 13 21  1  0
 14 21  1  0
 15 22  2  0
 15 23  1  0
 20 24  1  0
 19 25  2  0
 20 25  1  0
 18 26  1  0
 22 27  1  0
 23 28  2  0
 29 24  1  1
 26 30  2  0
 26 31  1  0
 27 32  2  0
 28 32  1  0
 29 33  1  0
 29 34  1  0
 31 35  1  0
 30 36  1  0
 35 36  2  0
 35 37  1  0
 33 38  1  0
 34 38  1  0
 38 39  1  1
M  END
