x2569-x0736
     RDKit          3D

 34 37  0  0  0  0  0  0  0  0999 V2000
    7.9070   -0.6890   21.6550 C   0  0  1  0  0  0  0  0  0  0  0  0
    8.9910   -0.2640   20.8940 O   0  0  0  0  0  0  0  0  0  0  0  0
    8.4300   -0.0130   22.8770 C   0  0  0  0  0  0  0  0  0  0  0  0
    6.7100   -0.3130   21.3710 N   0  0  0  0  0  0  0  0  0  0  0  0
    7.9790   -2.2250   21.7420 C   0  0  2  0  0  0  0  0  0  0  0  0
   10.0000   -0.0850   22.9370 C   0  0  0  0  0  0  0  0  0  0  0  0
    6.2310    0.2650   20.0700 C   0  0  0  0  0  0  0  0  0  0  0  0
    6.7910   -2.8900   21.3480 N   0  0  0  0  0  0  0  0  0  0  0  0
    8.5940   -2.5440   22.9860 C   0  0  0  0  0  0  0  0  0  0  0  0
    6.5110   -3.3540   20.0540 C   0  0  0  0  0  0  0  0  0  0  0  0
   10.7600   -1.0870   22.1470 C   0  0  0  0  0  0  0  0  0  0  0  0
   10.6410    0.8590   23.7750 C   0  0  0  0  0  0  0  0  0  0  0  0
    6.8680    0.1480   18.8410 C   0  0  0  0  0  0  0  0  0  0  0  0
    4.9390    1.0130   20.2620 C   0  0  0  0  0  0  0  0  0  0  0  0
    7.6220   -3.2130   23.8770 N   0  0  0  0  0  0  0  0  0  0  0  0
    6.0580   -3.5640   22.4360 C   0  0  0  0  0  0  0  0  0  0  0  0
    7.4780   -3.0140   18.9470 C   0  0  0  0  0  0  0  0  0  0  0  0
    5.5290   -4.0750   19.7700 O   0  0  0  0  0  0  0  0  0  0  0  0
    7.0540   -2.4450   24.9130 C   0  0  0  0  0  0  0  0  0  0  0  0
   12.1180    0.8460   23.8590 N   0  0  0  0  0  0  0  0  0  0  0  0
   12.1350   -1.0800   22.2370 C   0  0  0  0  0  0  0  0  0  0  0  0
    6.4190    0.6470   17.8780 N   0  0  0  0  0  0  0  0  0  0  0  0
    4.4180    1.6260   18.9850 C   0  0  0  0  0  0  0  0  0  0  0  0
    6.9300   -4.1940   23.3080 C   0  0  0  0  0  0  0  0  0  0  0  0
   12.9000   -2.0030   21.4990 C   0  0  0  0  0  0  0  0  0  0  0  0
    5.8430   -2.5000   25.1170 O   0  0  0  0  0  0  0  0  0  0  0  0
   12.8160   -0.1310   23.0760 C   0  0  0  0  0  0  0  0  0  0  0  0
    5.1670    1.4320   17.8390 C   0  0  0  0  0  0  0  0  0  0  0  0
    7.9250   -1.5550   25.7700 C   0  0  0  0  0  0  0  0  0  0  0  0
   13.4400   -2.7780   20.8600 N   0  0  0  0  0  0  0  0  0  0  0  0
    8.5020   -0.4100   25.2810 O   0  0  0  0  0  0  0  0  0  0  0  0
    8.3350   -1.6660   27.2160 C   0  0  0  0  0  0  0  0  0  0  0  0
    9.1880   -0.4730   27.4610 C   0  0  0  0  0  0  0  0  0  0  0  0
    9.2220    0.1990   26.2580 C   0  0  0  0  0  0  0  0  0  0  0  0
  1  2  1  6
  1  3  1  0
  1  4  1  0
  1  5  1  0
  3  6  1  0
  4  7  1  0
  5  8  1  0
  5  9  1  1
  8 10  1  0
  6 11  2  0
  6 12  1  0
  7 13  2  0
  7 14  1  0
  9 15  1  0
  8 16  1  0
 10 17  1  0
 10 18  2  0
 15 19  1  0
 12 20  2  0
 11 21  1  0
 13 22  1  0
 14 23  2  0
 15 24  1  0
 16 24  1  0
 21 25  1  0
 19 26  2  0
 20 27  1  0
 21 27  2  0
 22 28  2  0
 23 28  1  0
 19 29  1  0
 25 30  3  0
 29 31  1  0
 29 32  2  0
 32 33  1  0
 31 34  1  0
 33 34  2  0
M  END
