x2569-x0946
     RDKit          3D

 27 29  0  0  0  0  0  0  0  0999 V2000
    8.1640    0.4490   21.7490 C   0  0  0  0  0  0  0  0  0  0  0  0
    8.9160   -0.1340   22.9060 C   0  0  0  0  0  0  0  0  0  0  0  0
   10.4040    0.0010   22.5400 C   0  0  2  0  0  0  0  0  0  0  0  0
    8.8210    1.6140   21.1940 O   0  0  0  0  0  0  0  0  0  0  0  0
    7.0590   -0.1090   21.3690 N   0  0  0  0  0  0  0  0  0  0  0  0
    6.4430    0.3380   20.2250 C   0  0  0  0  0  0  0  0  0  0  0  0
   10.9090   -1.4150   22.3450 C   0  0  0  0  0  0  0  0  0  0  0  0
   11.2840    0.9260   23.4470 C   0  0  1  0  0  0  0  0  0  0  0  0
    6.9230    0.1160   18.8700 C   0  0  0  0  0  0  0  0  0  0  0  0
    5.2800    1.0740   20.3630 C   0  0  0  0  0  0  0  0  0  0  0  0
   11.8970    0.3220   24.4720 N   0  0  0  0  0  0  0  0  0  0  0  0
   12.3010   -1.7430   22.8710 C   0  0  1  0  0  0  0  0  0  0  0  0
    6.4200    0.5390   17.6640 N   0  0  0  0  0  0  0  0  0  0  0  0
    4.6380    1.5730   19.2600 C   0  0  0  0  0  0  0  0  0  0  0  0
   12.6140    1.3230   22.8210 C   0  0  0  0  0  0  0  0  0  0  0  0
   10.4930    2.2710   23.8490 C   0  0  0  0  0  0  0  0  0  0  0  0
   13.1560   -1.6410   21.6980 C   0  0  0  0  0  0  0  0  0  0  0  0
   12.7040   -0.8300   24.0100 C   0  0  0  0  0  0  0  0  0  0  0  0
    5.1880    1.3340   17.8500 C   0  0  0  0  0  0  0  0  0  0  0  0
   12.9690    2.7640   22.5740 C   0  0  0  0  0  0  0  0  0  0  0  0
   10.8360    3.4440   23.0590 C   0  0  1  0  0  0  0  0  0  0  0  0
   13.7320   -1.5690   20.7180 N   0  0  0  0  0  0  0  0  0  0  0  0
   10.2160    4.9500   23.6880 S   0  0  0  0  0  0  0  0  0  0  0  0
   12.1600    3.7950   22.8120 C   0  0  0  0  0  0  0  0  0  0  0  0
    9.0750    5.4510   22.5770 N   0  0  0  0  0  0  0  0  0  0  0  0
    9.4200    4.8430   24.9850 O   0  0  0  0  0  0  0  0  0  0  0  0
   11.2650    5.9460   23.5870 O   0  0  0  0  0  0  0  0  0  0  0  0
  1  2  1  0
  3  2  1  1
  1  4  2  0
  1  5  1  0
  5  6  1  0
  3  7  1  0
  3  8  1  0
  6  9  2  0
  6 10  1  0
  8 11  1  0
  7 12  1  0
  9 13  1  0
 10 14  2  0
  8 15  1  6
  8 16  1  0
 12 17  1  6
 11 18  1  0
 12 18  1  0
 13 19  2  0
 14 19  1  0
 15 20  2  0
 16 21  1  0
 17 22  3  0
 21 23  1  1
 20 24  1  0
 21 24  1  0
 23 25  1  0
 23 26  2  0
 23 27  2  0
M  END
