x2563-x0978
     RDKit          3D

 37 39  0  0  0  0  0  0  0  0999 V2000
    1.9570   -5.6550   23.2680 N   0  0  0  0  0  0  0  0  0  0  0  0
    3.2390   -6.3440   23.3400 C   0  0  2  0  0  0  0  0  0  0  0  0
    3.3200   -7.2480   24.5830 C   0  0  1  0  0  0  0  0  0  0  0  0
    0.7720   -6.2450   22.5490 C   0  0  0  0  0  0  0  0  0  0  0  0
    0.7980   -7.3010   21.9320 O   0  0  0  0  0  0  0  0  0  0  0  0
   -0.3770   -5.4650   22.6510 C   0  0  0  0  0  0  0  0  0  0  0  0
    4.4160   -5.3220   23.2510 C   0  0  0  0  0  0  0  0  0  0  0  0
    2.0680   -8.1950   24.5970 C   0  0  0  0  0  0  0  0  0  0  0  0
    4.4280   -7.7470   24.6250 O   0  0  0  0  0  0  0  0  0  0  0  0
    5.4680   -5.6340   22.2510 N   0  0  0  0  0  0  0  0  0  0  0  0
    4.4670   -4.3220   23.9630 O   0  0  0  0  0  0  0  0  0  0  0  0
    6.1240   -4.4940   21.6550 C   0  0  1  0  0  0  0  0  0  0  0  0
    6.4150   -4.8850   20.2070 C   0  0  0  0  0  0  0  0  0  0  0  0
    5.4010   -3.2960   21.6440 C   0  0  0  0  0  0  0  0  0  0  0  0
    5.7310   -6.1690   19.8120 C   0  0  0  0  0  0  0  0  0  0  0  0
    6.0030   -2.2160   22.1270 C   0  0  0  0  0  0  0  0  0  0  0  0
    7.0020   -1.7700   21.2830 C   0  0  0  0  0  0  0  0  0  0  0  0
    7.1980   -0.2740   21.2970 C   0  0  1  0  0  0  0  0  0  0  0  0
    8.4990    0.1500   21.2710 C   0  0  0  0  0  0  0  0  0  0  0  0
    6.4160    0.3150   20.1600 C   0  0  0  0  0  0  0  0  0  0  0  0
    8.7140    1.3420   20.9860 O   0  0  0  0  0  0  0  0  0  0  0  0
    9.4470   -0.6830   21.5740 N   0  0  0  0  0  0  0  0  0  0  0  0
    5.2930    0.9670   20.3890 C   0  0  0  0  0  0  0  0  0  0  0  0
    6.9200    0.1700   18.7070 C   0  0  0  0  0  0  0  0  0  0  0  0
    6.3520    0.6540   17.6320 N   0  0  0  0  0  0  0  0  0  0  0  0
    4.5150    1.5810   19.2340 C   0  0  0  0  0  0  0  0  0  0  0  0
    4.7560    1.1350   21.6820 C   0  0  0  0  0  0  0  0  0  0  0  0
   10.2270   -0.5460   22.7110 C   0  0  0  0  0  0  0  0  0  0  0  0
    5.1160    1.3910   17.8560 C   0  0  0  0  0  0  0  0  0  0  0  0
    3.3120    2.2870   19.4190 C   0  0  0  0  0  0  0  0  0  0  0  0
    3.4380    1.9090   21.8710 C   0  0  0  0  0  0  0  0  0  0  0  0
   11.6130   -0.6820   22.6000 C   0  0  0  0  0  0  0  0  0  0  0  0
    9.6460   -0.2500   24.0650 C   0  0  0  0  0  0  0  0  0  0  0  0
    2.8030    2.4430   20.6420 C   0  0  0  0  0  0  0  0  0  0  0  0
   12.3800   -0.5400   23.7210 C   0  0  0  0  0  0  0  0  0  0  0  0
   10.4940   -0.1270   25.1550 C   0  0  0  0  0  0  0  0  0  0  0  0
   11.8720   -0.2780   24.9570 C   0  0  0  0  0  0  0  0  0  0  0  0
  2  1  1  1
  2  3  1  0
  1  4  1  0
  4  5  2  0
  4  6  1  0
  2  7  1  0
  3  8  1  6
  3  9  1  0
  7 10  1  0
  7 11  2  0
 10 12  1  0
 12 13  1  6
 12 14  1  0
 13 15  2  3
 14 16  1  0
 16 17  1  0
 18 17  1  6
 18 19  1  0
 18 20  1  0
 19 21  2  0
 19 22  1  0
 20 23  1  0
 20 24  2  0
 24 25  1  0
 23 26  2  0
 23 27  1  0
 22 28  1  0
 25 29  2  0
 26 29  1  0
 26 30  1  0
 27 31  2  0
 28 32  2  0
 28 33  1  0
 30 34  2  0
 31 34  1  0
 32 35  1  0
 33 36  2  0
 35 37  2  0
 36 37  1  0
M  END
