x2569-x2754
     RDKit          3D

 38 41  0  0  0  0  0  0  0  0999 V2000
    5.0230   -3.4050   25.3130 C   0  0  0  0  0  0  0  0  0  0  0  0
    5.4550   -3.2150   26.6130 N   0  0  0  0  0  0  0  0  0  0  0  0
    4.7880   -2.2800   27.5320 C   0  0  0  0  0  0  0  0  0  0  0  0
    3.7480   -2.9660   24.8100 O   0  0  0  0  0  0  0  0  0  0  0  0
    5.9650   -4.1520   24.3430 C   0  0  2  0  0  0  0  0  0  0  0  0
    7.1690   -3.2180   24.0590 C   0  0  0  0  0  0  0  0  0  0  0  0
    5.2010   -4.5570   23.2800 C   0  0  0  0  0  0  0  0  0  0  0  0
    6.6430   -3.7170   27.0730 C   0  0  0  0  0  0  0  0  0  0  0  0
    7.4380   -3.0270   22.6030 C   0  0  2  0  0  0  0  0  0  0  0  0
    6.1110   -5.0420   22.1690 C   0  0  0  0  0  0  0  0  0  0  0  0
    7.0720   -5.0340   26.8140 C   0  0  0  0  0  0  0  0  0  0  0  0
    7.4740   -2.9130   27.8330 C   0  0  0  0  0  0  0  0  0  0  0  0
    7.3850   -1.6190   22.7960 C   0  0  0  0  0  0  0  0  0  0  0  0
    6.6150   -3.7760   21.6450 N   0  0  0  0  0  0  0  0  0  0  0  0
    8.4020   -5.5590   27.3270 C   0  0  0  0  0  0  0  0  0  0  0  0
    8.6960   -3.3990   28.3140 C   0  0  0  0  0  0  0  0  0  0  0  0
    6.3240   -3.7250   20.2510 C   0  0  0  0  0  0  0  0  0  0  0  0
    8.5610   -1.0310   21.9590 C   0  0  1  0  0  0  0  0  0  0  0  0
    9.1280   -4.6860   28.0490 C   0  0  0  0  0  0  0  0  0  0  0  0
    5.3130   -4.2990   19.8280 O   0  0  0  0  0  0  0  0  0  0  0  0
    7.2520   -3.0680   19.2520 C   0  0  0  0  0  0  0  0  0  0  0  0
    8.0930    0.3330   21.5080 C   0  0  0  0  0  0  0  0  0  0  0  0
    9.9650   -0.8000   22.4400 C   0  0  0  0  0  0  0  0  0  0  0  0
    8.9300    1.2280   21.2730 O   0  0  0  0  0  0  0  0  0  0  0  0
    6.6910    0.5300   21.3490 N   0  0  0  0  0  0  0  0  0  0  0  0
   10.9570   -1.5390   21.9280 C   0  0  0  0  0  0  0  0  0  0  0  0
   10.4290    0.1530   23.3770 C   0  0  0  0  0  0  0  0  0  0  0  0
   11.7420    0.3440   23.7590 N   0  0  0  0  0  0  0  0  0  0  0  0
   12.4220   -1.4280   22.2490 C   0  0  0  0  0  0  0  0  0  0  0  0
    6.2140    0.7900   20.1180 C   0  0  0  0  0  0  0  0  0  0  0  0
   13.1650   -2.3520   21.5090 C   0  0  0  0  0  0  0  0  0  0  0  0
   12.8410   -0.4760   23.1800 C   0  0  0  0  0  0  0  0  0  0  0  0
    6.8160    0.3250   18.8000 C   0  0  0  0  0  0  0  0  0  0  0  0
    5.0820    1.5590   20.0850 C   0  0  0  0  0  0  0  0  0  0  0  0
   13.6970   -3.4150   20.6160 N   0  0  0  0  0  0  0  0  0  0  0  0
    6.2420    0.6940   17.6460 N   0  0  0  0  0  0  0  0  0  0  0  0
    4.5240    1.9070   18.8750 C   0  0  0  0  0  0  0  0  0  0  0  0
    5.1360    1.4640   17.7100 C   0  0  0  0  0  0  0  0  0  0  0  0
  1  2  1  0
  2  3  1  0
  1  4  2  0
  5  1  1  1
  5  6  1  0
  5  7  1  0
  2  8  1  0
  6  9  1  0
  7 10  1  0
  8 11  2  0
  8 12  1  0
  9 13  1  6
  9 14  1  0
 10 14  1  0
 11 15  1  0
 12 16  2  0
 14 17  1  0
 18 13  1  1
 15 19  2  0
 16 19  1  0
 17 20  2  0
 17 21  1  0
 18 22  1  0
 18 23  1  0
 22 24  2  0
 22 25  1  0
 23 26  2  0
 23 27  1  0
 27 28  2  0
 26 29  1  0
 25 30  1  0
 29 31  1  0
 28 32  1  0
 29 32  2  0
 30 33  2  0
 30 34  1  0
 31 35  3  0
 33 36  1  0
 34 37  2  0
 36 38  2  0
 37 38  1  0
M  END
