x2563-x1334
     RDKit          3D

 36 41  0  0  0  0  0  0  0  0999 V2000
    7.6720   -3.0410   18.6030 C   0  0  0  0  0  0  0  0  0  0  0  0
    6.7970   -3.1260   19.8210 C   0  0  0  0  0  0  0  0  0  0  0  0
    5.8990   -4.0220   19.7750 O   0  0  0  0  0  0  0  0  0  0  0  0
    6.9980   -2.1190   21.0200 C   0  0  2  0  0  0  0  0  0  0  0  0
    7.2170   -0.7570   20.3930 C   0  0  2  0  0  0  0  0  0  0  0  0
    8.2250   -1.9910   21.8740 C   0  0  2  0  0  0  0  0  0  0  0  0
    6.2120   -2.5890   22.2380 C   0  0  0  0  0  0  0  0  0  0  0  0
    8.1870   -0.0960   20.9490 C   0  0  0  0  0  0  0  0  0  0  0  0
    9.0970   -0.9140   21.5080 N   0  0  0  0  0  0  0  0  0  0  0  0
    8.8340   -3.0080   22.1560 C   0  0  0  0  0  0  0  0  0  0  0  0
    6.9400   -3.6970   22.7800 C   0  0  0  0  0  0  0  0  0  0  0  0
    6.2280    0.1550   19.7940 C   0  0  0  0  0  0  0  0  0  0  0  0
    8.2470    1.1350   20.9350 O   0  0  0  0  0  0  0  0  0  0  0  0
    8.2200   -3.3640   23.2070 N   0  0  0  0  0  0  0  0  0  0  0  0
    5.2040    0.7660   20.3310 C   0  0  0  0  0  0  0  0  0  0  0  0
    6.5520    0.3800   18.3210 C   0  0  0  0  0  0  0  0  0  0  0  0
   10.0100   -0.3720   22.4140 C   0  0  0  0  0  0  0  0  0  0  0  0
    9.0140   -4.3790   23.6320 C   0  0  0  0  0  0  0  0  0  0  0  0
    5.9150    1.1380   17.4810 N   0  0  0  0  0  0  0  0  0  0  0  0
    4.3910    1.6780   19.4260 C   0  0  0  0  0  0  0  0  0  0  0  0
    4.8020    0.6600   21.6640 C   0  0  0  0  0  0  0  0  0  0  0  0
   11.3680   -0.6330   22.3180 C   0  0  0  0  0  0  0  0  0  0  0  0
    9.5260    0.5110   23.4990 C   0  0  0  0  0  0  0  0  0  0  0  0
    8.8170   -4.8200   25.0210 C   0  0  0  0  0  0  0  0  0  0  0  0
    4.8780    1.7710   17.9950 C   0  0  0  0  0  0  0  0  0  0  0  0
    3.2700    2.4010   19.8540 C   0  0  0  0  0  0  0  0  0  0  0  0
    3.5710    1.4730   22.1040 C   0  0  0  0  0  0  0  0  0  0  0  0
   12.2870   -0.0780   23.1860 C   0  0  0  0  0  0  0  0  0  0  0  0
   10.4650    1.0310   24.3330 C   0  0  0  0  0  0  0  0  0  0  0  0
    9.6730   -5.6320   25.6680 C   0  0  0  0  0  0  0  0  0  0  0  0
    7.4050   -4.3110   25.9520 S   0  0  0  0  0  0  0  0  0  0  0  0
    2.8500    2.3290   21.1200 C   0  0  0  0  0  0  0  0  0  0  0  0
   11.8220    0.7500   24.1810 C   0  0  0  0  0  0  0  0  0  0  0  0
    8.0480   -5.2970   27.2410 C   0  0  0  0  0  0  0  0  0  0  0  0
    9.2430   -5.8890   26.8880 C   0  0  0  0  0  0  0  0  0  0  0  0
    7.1920   -5.4330   28.7190 Cl  0  0  0  0  0  0  0  0  0  0  0  0
  1  2  1  0
  2  3  2  0
  4  2  1  6
  4  5  1  0
  4  6  1  0
  4  7  1  0
  5  8  1  0
  6  9  1  0
  8  9  1  0
  6 10  1  6
  7 11  1  0
  5 12  1  1
  8 13  2  0
 10 14  1  0
 11 14  1  0
 12 15  1  0
 12 16  2  0
  9 17  1  0
 14 18  1  0
 16 19  1  0
 15 20  2  0
 15 21  1  0
 17 22  2  0
 17 23  1  0
 18 24  1  0
 19 25  2  0
 20 25  1  0
 20 26  1  0
 21 27  2  0
 22 28  1  0
 23 29  2  0
 24 30  2  0
 24 31  1  0
 26 32  2  0
 27 32  1  0
 28 33  2  0
 29 33  1  0
 31 34  1  0
 30 35  1  0
 34 35  2  0
 34 36  1  0
M  END
