x2562-x2119
     RDKit          3D

 29 32  0  0  0  0  0  0  0  0999 V2000
    8.4230   -0.1140   21.4300 C   0  0  0  0  0  0  0  0  0  0  0  0
    7.4230   -0.9330   20.7120 C   0  0  2  0  0  0  0  0  0  0  0  0
    6.5330   -0.0730   19.8510 C   0  0  0  0  0  0  0  0  0  0  0  0
    8.4250    1.1150   21.3100 O   0  0  0  0  0  0  0  0  0  0  0  0
    9.3230   -0.8030   22.1910 N   0  0  0  0  0  0  0  0  0  0  0  0
   10.6160   -0.3210   22.4160 C   0  0  0  0  0  0  0  0  0  0  0  0
    6.6350   -1.9360   21.4430 N   0  0  0  0  0  0  0  0  0  0  0  0
    6.8530    0.0280   18.5280 C   0  0  0  0  0  0  0  0  0  0  0  0
    5.2940    0.7060   20.3560 C   0  0  0  0  0  0  0  0  0  0  0  0
   11.7610   -1.1000   22.3610 C   0  0  0  0  0  0  0  0  0  0  0  0
   10.7950    1.0110   22.7070 C   0  0  0  0  0  0  0  0  0  0  0  0
    6.2220   -3.2460   21.1420 C   0  0  0  0  0  0  0  0  0  0  0  0
    6.1350   -1.6430   22.6850 C   0  0  0  0  0  0  0  0  0  0  0  0
    6.4010   -4.1460   20.0070 C   0  0  0  0  0  0  0  0  0  0  0  0
    4.5530    1.4640   19.5340 N   0  0  0  0  0  0  0  0  0  0  0  0
    6.1750    0.7530   17.6350 N   0  0  0  0  0  0  0  0  0  0  0  0
   13.0020   -0.5310   22.5820 C   0  0  0  0  0  0  0  0  0  0  0  0
   11.9980    1.6240   22.9340 C   0  0  0  0  0  0  0  0  0  0  0  0
    5.4880   -3.7330   22.1610 N   0  0  0  0  0  0  0  0  0  0  0  0
    5.4240   -2.7810   23.1000 C   0  0  0  0  0  0  0  0  0  0  0  0
   12.0850    2.9660   23.2190 O   0  0  0  0  0  0  0  0  0  0  0  0
    5.7760   -5.2670   20.0480 N   0  0  0  0  0  0  0  0  0  0  0  0
    5.0380    1.4620   18.1630 C   0  0  0  0  0  0  0  0  0  0  0  0
   13.1640    0.8410   22.8680 C   0  0  0  0  0  0  0  0  0  0  0  0
   13.0870    3.8310   22.6680 C   0  0  1  0  0  0  0  0  0  0  0  0
   12.6190    4.7400   21.7200 N   0  0  0  0  0  0  0  0  0  0  0  0
   13.3230    4.9370   23.4090 C   0  0  0  0  0  0  0  0  0  0  0  0
   12.6600    5.8680   22.6790 C   0  0  1  0  0  0  0  0  0  0  0  0
   13.4790    6.9560   22.3280 O   0  0  0  0  0  0  0  0  0  0  0  0
  2  1  1  1
  2  3  1  0
  1  4  2  0
  1  5  1  0
  5  6  1  0
  2  7  1  0
  3  8  2  0
  3  9  1  0
  6 10  2  0
  6 11  1  0
  7 12  1  0
  7 13  1  0
 12 14  1  0
  9 15  2  0
  8 16  1  0
 10 17  1  0
 11 18  2  0
 12 19  2  0
 13 20  2  0
 19 20  1  0
 18 21  1  0
 14 22  2  3
 15 23  1  0
 16 23  2  0
 17 24  2  0
 18 24  1  0
 25 21  1  1
 25 26  1  0
 25 27  1  0
 26 28  1  0
 27 28  1  0
 28 29  1  6
M  END
