x2563-x1385
     RDKit          3D

 37 42  0  0  0  0  0  0  0  0999 V2000
    7.4260   -2.9800   18.8490 C   0  0  0  0  0  0  0  0  0  0  0  0
    6.2890   -3.2850   19.8320 C   0  0  0  0  0  0  0  0  0  0  0  0
    5.2440   -3.7860   19.4420 O   0  0  0  0  0  0  0  0  0  0  0  0
    6.4260   -3.0600   21.1750 N   0  0  0  0  0  0  0  0  0  0  0  0
    6.1990   -4.1870   22.0590 C   0  0  0  0  0  0  0  0  0  0  0  0
    6.8260   -1.8600   21.8810 C   0  0  2  0  0  0  0  0  0  0  0  0
    7.0730   -0.4190   21.3020 C   0  0  2  0  0  0  0  0  0  0  0  0
    7.3140   -4.3950   23.0570 C   0  0  0  0  0  0  0  0  0  0  0  0
    8.1380   -2.1340   22.5990 C   0  0  2  0  0  0  0  0  0  0  0  0
    9.1760   -1.3500   21.8100 C   0  0  2  0  0  0  0  0  0  0  0  0
    8.4490   -3.4920   22.8920 N   0  0  0  0  0  0  0  0  0  0  0  0
    6.3810    0.1750   20.1470 C   0  0  0  0  0  0  0  0  0  0  0  0
    8.4750    0.0060   21.7420 C   0  0  0  0  0  0  0  0  0  0  0  0
    9.4700   -3.4960   23.8030 C   0  0  0  0  0  0  0  0  0  0  0  0
    9.2020   -1.5530   20.6490 O   0  0  0  0  0  0  0  0  0  0  0  0
   10.4340   -1.3300   22.4010 N   0  0  0  0  0  0  0  0  0  0  0  0
    5.1320    0.9000   20.3760 C   0  0  0  0  0  0  0  0  0  0  0  0
    6.9260    0.0800   18.7350 C   0  0  0  0  0  0  0  0  0  0  0  0
    9.0510   -4.3060   25.0590 C   0  0  0  0  0  0  0  0  0  0  0  0
    6.3110    0.6490   17.6750 N   0  0  0  0  0  0  0  0  0  0  0  0
    4.5030    1.5140   19.1450 C   0  0  0  0  0  0  0  0  0  0  0  0
    4.5320    1.0430   21.6340 C   0  0  0  0  0  0  0  0  0  0  0  0
   10.6170   -0.1130   23.0710 C   0  0  0  0  0  0  0  0  0  0  0  0
    9.6250   -5.5200   25.3490 C   0  0  0  0  0  0  0  0  0  0  0  0
    7.8610   -3.9100   26.2620 S   0  0  0  0  0  0  0  0  0  0  0  0
    5.1590    1.3280   17.9190 C   0  0  0  0  0  0  0  0  0  0  0  0
    3.3110    2.2360   19.2630 C   0  0  0  0  0  0  0  0  0  0  0  0
    3.2770    1.7920   21.8110 C   0  0  0  0  0  0  0  0  0  0  0  0
   11.8620    0.5830   22.7020 C   0  0  0  0  0  0  0  0  0  0  0  0
    9.6780    0.3770   23.9710 C   0  0  0  0  0  0  0  0  0  0  0  0
    8.1410   -5.3940   27.1070 C   0  0  0  0  0  0  0  0  0  0  0  0
    9.1010   -6.1380   26.5280 C   0  0  0  0  0  0  0  0  0  0  0  0
    2.6610    2.3950   20.6020 C   0  0  0  0  0  0  0  0  0  0  0  0
   12.1060    1.7520   23.1980 C   0  0  0  0  0  0  0  0  0  0  0  0
    9.8630    1.6010   24.5350 C   0  0  0  0  0  0  0  0  0  0  0  0
    7.1450   -5.8420   28.6540 Br  0  0  0  0  0  0  0  0  0  0  0  0
   11.1950    2.3240   24.0660 C   0  0  0  0  0  0  0  0  0  0  0  0
  1  2  1  0
  2  3  2  0
  2  4  1  0
  4  5  1  0
  6  4  1  6
  6  7  1  0
  5  8  1  0
  6  9  1  0
  9 10  1  0
  8 11  1  0
  9 11  1  6
  7 12  1  6
  7 13  1  0
 10 13  1  0
 11 14  1  0
 10 15  1  6
 10 16  1  0
 12 17  1  0
 12 18  2  0
 14 19  1  0
 18 20  1  0
 17 21  2  0
 17 22  1  0
 16 23  1  0
 19 24  2  0
 19 25  1  0
 20 26  2  0
 21 26  1  0
 21 27  1  0
 22 28  2  0
 23 29  2  0
 23 30  1  0
 25 31  1  0
 24 32  1  0
 31 32  2  0
 27 33  2  0
 28 33  1  0
 29 34  1  0
 30 35  2  0
 31 36  1  0
 34 37  2  0
 35 37  1  0
M  END
