x2569-x0755
     RDKit          3D

 41 44  0  0  0  0  0  0  0  0999 V2000
    4.4970   -6.3440   26.1980 O   0  0  0  0  0  0  0  0  0  0  0  0
    5.1400   -5.0800   25.9080 S   0  0  0  0  0  0  0  0  0  0  0  0
    6.2040   -4.6100   26.7670 O   0  0  0  0  0  0  0  0  0  0  0  0
    3.9460   -3.8740   25.8750 C   0  0  0  0  0  0  0  0  0  0  0  0
    5.7550   -5.2280   24.3160 N   0  0  0  0  0  0  0  0  0  0  0  0
    2.5860   -4.1460   25.7430 C   0  0  0  0  0  0  0  0  0  0  0  0
    4.3290   -2.5440   25.9910 C   0  0  0  0  0  0  0  0  0  0  0  0
    6.5700   -4.2690   23.7950 C   0  0  0  0  0  0  0  0  0  0  0  0
    4.8850   -5.8380   23.3020 C   0  0  0  0  0  0  0  0  0  0  0  0
    2.1650   -5.4160   25.6290 F   0  0  0  0  0  0  0  0  0  0  0  0
    5.6670   -2.2940   26.1230 O   0  0  0  0  0  0  0  0  0  0  0  0
    3.2990   -1.3960   25.9780 C   0  0  0  0  0  0  0  0  0  0  0  0
    1.5900   -3.1970   25.7210 C   0  0  0  0  0  0  0  0  0  0  0  0
    7.4020   -4.8280   22.7900 C   0  0  0  0  0  0  0  0  0  0  0  0
    5.6630   -6.2710   22.2440 C   0  0  0  0  0  0  0  0  0  0  0  0
    6.2690   -1.1270   25.5490 C   0  0  0  0  0  0  0  0  0  0  0  0
    1.8590   -1.8320   25.8330 C   0  0  0  0  0  0  0  0  0  0  0  0
    6.6220   -5.2990   21.7630 N   0  0  0  0  0  0  0  0  0  0  0  0
    6.3890   -4.5610   20.5870 C   0  0  0  0  0  0  0  0  0  0  0  0
    6.2360   -1.1040   23.9930 C   0  0  0  0  0  0  0  0  0  0  0  0
    5.3500   -4.7610   19.9700 O   0  0  0  0  0  0  0  0  0  0  0  0
    7.3900   -3.5280   20.0340 C   0  0  0  0  0  0  0  0  0  0  0  0
    7.7130   -1.3820   23.5620 C   0  0  0  0  0  0  0  0  0  0  0  0
    8.4970   -0.1020   23.1900 C   0  0  2  0  0  0  0  0  0  0  0  0
    8.1610    0.4050   21.7840 C   0  0  0  0  0  0  0  0  0  0  0  0
    9.9900   -0.1710   23.2400 C   0  0  0  0  0  0  0  0  0  0  0  0
    8.8490    1.2930   21.2410 O   0  0  0  0  0  0  0  0  0  0  0  0
    7.0540   -0.2020   21.2380 N   0  0  0  0  0  0  0  0  0  0  0  0
   10.8450   -0.9860   22.3000 C   0  0  0  0  0  0  0  0  0  0  0  0
   10.6870    0.5500   24.1840 C   0  0  0  0  0  0  0  0  0  0  0  0
   12.0110    0.6030   24.3460 N   0  0  0  0  0  0  0  0  0  0  0  0
   12.2160   -0.9190   22.4780 C   0  0  0  0  0  0  0  0  0  0  0  0
    6.3630    0.3380   20.1650 C   0  0  0  0  0  0  0  0  0  0  0  0
   12.9860   -1.6450   21.6170 C   0  0  0  0  0  0  0  0  0  0  0  0
   12.8420   -0.1730   23.4450 C   0  0  0  0  0  0  0  0  0  0  0  0
    6.9030    0.1650   18.7670 C   0  0  0  0  0  0  0  0  0  0  0  0
    5.1690    1.0640   20.2800 C   0  0  0  0  0  0  0  0  0  0  0  0
   13.6870   -2.3360   20.6630 N   0  0  0  0  0  0  0  0  0  0  0  0
    6.3350    0.6660   17.6640 N   0  0  0  0  0  0  0  0  0  0  0  0
    4.5640    1.6050   18.9920 C   0  0  0  0  0  0  0  0  0  0  0  0
    5.1940    1.3670   17.8040 C   0  0  0  0  0  0  0  0  0  0  0  0
  1  2  2  0
  2  3  2  0
  2  4  1  0
  2  5  1  0
  4  6  2  0
  4  7  1  0
  5  8  1  0
  5  9  1  0
  6 10  1  0
  7 11  1  0
  7 12  2  0
  6 13  1  0
  8 14  1  0
  9 15  1  0
 11 16  1  0
 12 17  1  0
 13 17  2  0
 14 18  1  0
 15 18  1  0
 18 19  1  0
 16 20  1  0
 19 21  2  0
 19 22  1  0
 20 23  1  0
 24 23  1  6
 24 25  1  0
 24 26  1  0
 25 27  2  0
 25 28  1  0
 26 29  2  0
 26 30  1  0
 30 31  2  0
 29 32  1  0
 28 33  1  0
 32 34  1  0
 31 35  1  0
 32 35  2  0
 33 36  2  0
 33 37  1  0
 34 38  3  0
 36 39  1  0
 37 40  2  0
 39 41  2  0
 40 41  1  0
M  END
