x2569-x1358
     RDKit          3D

 38 41  0  0  0  0  0  0  0  0999 V2000
    7.0570   -2.4940   25.9120 N   0  0  0  0  0  0  0  0  0  0  0  0
    6.0710   -3.3420   25.1710 C   0  0  0  0  0  0  0  0  0  0  0  0
    4.8500   -3.2580   25.2350 O   0  0  0  0  0  0  0  0  0  0  0  0
    6.8160   -1.4380   26.7900 C   0  0  0  0  0  0  0  0  0  0  0  0
    6.0120   -0.3140   26.5790 C   0  0  0  0  0  0  0  0  0  0  0  0
    7.4720   -1.5530   28.0120 C   0  0  0  0  0  0  0  0  0  0  0  0
    6.7690   -4.3870   24.3030 C   0  0  2  0  0  0  0  0  0  0  0  0
    5.3270   -0.1240   25.3960 O   0  0  0  0  0  0  0  0  0  0  0  0
    7.3690   -0.6110   29.0260 C   0  0  0  0  0  0  0  0  0  0  0  0
    5.8760    0.6650   27.5730 C   0  0  0  0  0  0  0  0  0  0  0  0
    7.8980   -3.8800   23.6290 C   0  0  0  0  0  0  0  0  0  0  0  0
    5.9470   -5.1130   23.4400 C   0  0  0  0  0  0  0  0  0  0  0  0
    6.5590    0.4950   28.7820 C   0  0  0  0  0  0  0  0  0  0  0  0
    7.5810   -3.1490   22.2990 C   0  0  2  0  0  0  0  0  0  0  0  0
    5.4840   -4.2340   22.4660 C   0  0  0  0  0  0  0  0  0  0  0  0
    7.5440   -1.6590   22.7900 C   0  0  0  0  0  0  0  0  0  0  0  0
    6.3580   -3.5620   21.6920 N   0  0  0  0  0  0  0  0  0  0  0  0
    6.2340   -3.7500   20.2820 C   0  0  0  0  0  0  0  0  0  0  0  0
    8.6260   -0.7550   22.1290 C   0  0  1  0  0  0  0  0  0  0  0  0
    5.3170   -4.4590   19.8630 O   0  0  0  0  0  0  0  0  0  0  0  0
    7.1900   -3.1180   19.2800 C   0  0  0  0  0  0  0  0  0  0  0  0
    8.0570    0.4790   21.5220 C   0  0  0  0  0  0  0  0  0  0  0  0
   10.0150   -0.5020   22.6480 C   0  0  0  0  0  0  0  0  0  0  0  0
    8.7650    1.4540   21.2210 O   0  0  0  0  0  0  0  0  0  0  0  0
    6.7270    0.3760   21.3330 N   0  0  0  0  0  0  0  0  0  0  0  0
   11.0790   -1.3070   21.9570 C   0  0  0  0  0  0  0  0  0  0  0  0
   10.4780    0.4730   23.7490 C   0  0  0  0  0  0  0  0  0  0  0  0
   11.8400    0.5190   23.9850 N   0  0  0  0  0  0  0  0  0  0  0  0
   12.3560   -1.1340   22.3040 C   0  0  0  0  0  0  0  0  0  0  0  0
    6.1460    0.7350   20.1510 C   0  0  0  0  0  0  0  0  0  0  0  0
   13.1500   -1.9540   21.5390 C   0  0  0  0  0  0  0  0  0  0  0  0
   12.7230   -0.2400   23.2910 C   0  0  0  0  0  0  0  0  0  0  0  0
    6.8210    0.3280   18.8650 C   0  0  0  0  0  0  0  0  0  0  0  0
    4.9900    1.4540   20.1500 C   0  0  0  0  0  0  0  0  0  0  0  0
   13.6950   -2.9070   20.6260 N   0  0  0  0  0  0  0  0  0  0  0  0
    6.3390    0.6620   17.6780 N   0  0  0  0  0  0  0  0  0  0  0  0
    4.4940    1.7930   18.9010 C   0  0  0  0  0  0  0  0  0  0  0  0
    5.1730    1.4010   17.7430 C   0  0  0  0  0  0  0  0  0  0  0  0
  1  2  1  0
  2  3  2  0
  1  4  1  0
  4  5  2  0
  4  6  1  0
  7  2  1  6
  5  8  1  0
  6  9  2  0
  5 10  1  0
  7 11  1  0
  7 12  1  0
  9 13  1  0
 10 13  2  0
 11 14  1  0
 12 15  1  0
 14 16  1  1
 14 17  1  0
 15 17  1  0
 17 18  1  0
 19 16  1  1
 18 20  2  0
 18 21  1  0
 19 22  1  0
 19 23  1  0
 22 24  2  0
 22 25  1  0
 23 26  2  0
 23 27  1  0
 27 28  2  0
 26 29  1  0
 25 30  1  0
 29 31  1  0
 28 32  1  0
 29 32  2  0
 30 33  2  0
 30 34  1  0
 31 35  3  0
 33 36  1  0
 34 37  2  0
 36 38  2  0
 37 38  1  0
M  END
