x2562-x0736
     RDKit          3D

 38 42  0  0  0  0  0  0  0  0999 V2000
    8.4220    0.2090   21.4040 C   0  0  0  0  0  0  0  0  0  0  0  0
    7.1270   -0.4960   21.4440 C   0  0  1  0  0  0  0  0  0  0  0  0
    6.3390    0.0380   20.2710 C   0  0  0  0  0  0  0  0  0  0  0  0
    8.5000    1.4310   21.1710 O   0  0  0  0  0  0  0  0  0  0  0  0
    9.4700   -0.6280   21.5890 N   0  0  0  0  0  0  0  0  0  0  0  0
   10.6690   -0.2110   22.1160 C   0  0  0  0  0  0  0  0  0  0  0  0
    7.4450   -2.0690   21.5850 C   0  0  2  0  0  0  0  0  0  0  0  0
    6.8330   -0.0530   18.9490 C   0  0  0  0  0  0  0  0  0  0  0  0
    5.1070    0.6700   20.4550 C   0  0  0  0  0  0  0  0  0  0  0  0
   11.7270   -1.1000   22.1380 C   0  0  0  0  0  0  0  0  0  0  0  0
   10.7570    1.1140   22.5720 C   0  0  0  0  0  0  0  0  0  0  0  0
    6.3700   -2.8750   21.2530 N   0  0  0  0  0  0  0  0  0  0  0  0
    8.2550   -2.3160   22.7370 C   0  0  0  0  0  0  0  0  0  0  0  0
    6.2530   -3.4260   19.9700 C   0  0  0  0  0  0  0  0  0  0  0  0
    4.3500    1.2120   19.4770 N   0  0  0  0  0  0  0  0  0  0  0  0
    6.1550    0.4490   17.9110 N   0  0  0  0  0  0  0  0  0  0  0  0
   12.9990   -0.5400   22.6450 C   0  0  0  0  0  0  0  0  0  0  0  0
   11.9490    1.6490   23.0470 C   0  0  0  0  0  0  0  0  0  0  0  0
    7.4880   -2.9840   23.6240 N   0  0  0  0  0  0  0  0  0  0  0  0
    5.8160   -3.5080   22.2950 C   0  0  0  0  0  0  0  0  0  0  0  0
   12.0510    2.9610   23.4700 O   0  0  0  0  0  0  0  0  0  0  0  0
    7.2480   -3.0600   18.8510 C   0  0  0  0  0  0  0  0  0  0  0  0
    5.3520   -4.2300   19.7480 O   0  0  0  0  0  0  0  0  0  0  0  0
    7.0770   -2.3830   24.8150 C   0  0  0  0  0  0  0  0  0  0  0  0
    4.9980    1.0430   18.1920 C   0  0  0  0  0  0  0  0  0  0  0  0
   13.0380    0.7630   23.0440 C   0  0  0  0  0  0  0  0  0  0  0  0
    6.7360   -4.0900   23.1310 C   0  0  0  0  0  0  0  0  0  0  0  0
    5.9630   -2.5950   25.2800 O   0  0  0  0  0  0  0  0  0  0  0  0
   12.9480    3.8200   22.7140 C   0  0  1  0  0  0  0  0  0  0  0  0
    8.0030   -1.4480   25.5390 C   0  0  0  0  0  0  0  0  0  0  0  0
   12.3880    4.6340   21.8050 N   0  0  0  0  0  0  0  0  0  0  0  0
   13.5000    4.7770   23.4170 C   0  0  0  0  0  0  0  0  0  0  0  0
    8.5330   -0.3090   24.9410 O   0  0  0  0  0  0  0  0  0  0  0  0
    8.5060   -1.4780   26.8290 C   0  0  0  0  0  0  0  0  0  0  0  0
   13.4140    5.5690   22.2940 C   0  0  2  0  0  0  0  0  0  0  0  0
    9.3140   -0.4170   27.0250 C   0  0  0  0  0  0  0  0  0  0  0  0
    9.3270    0.2980   25.8580 C   0  0  0  0  0  0  0  0  0  0  0  0
   12.9980    6.8750   22.5980 O   0  0  0  0  0  0  0  0  0  0  0  0
  2  1  1  6
  2  3  1  0
  1  4  2  0
  1  5  1  0
  5  6  1  0
  2  7  1  0
  3  8  2  0
  3  9  1  0
  6 10  2  0
  6 11  1  0
  7 12  1  0
  7 13  1  1
 12 14  1  0
  9 15  2  0
  8 16  1  0
 10 17  1  0
 11 18  2  0
 13 19  1  0
 12 20  1  0
 18 21  1  0
 14 22  1  0
 14 23  2  0
 19 24  1  0
 15 25  1  0
 16 25  2  0
 17 26  2  0
 18 26  1  0
 19 27  1  0
 20 27  1  0
 24 28  2  0
 29 21  1  1
 24 30  1  0
 29 31  1  0
 29 32  1  0
 30 33  1  0
 30 34  2  0
 31 35  1  0
 32 35  1  0
 34 36  1  0
 33 37  1  0
 36 37  2  0
 35 38  1  1
M  END
