x2563-x0749
     RDKit          3D

 39 45  0  0  0  0  0  0  0  0999 V2000
    8.5640   -0.0350   21.3640 C   0  0  0  0  0  0  0  0  0  0  0  0
    7.4900   -0.7950   20.6880 C   0  0  0  0  0  0  0  0  0  0  0  0
    6.6030    0.0160   19.7940 C   0  0  0  0  0  0  0  0  0  0  0  0
    8.8210    1.3610   21.1010 O   0  0  0  0  0  0  0  0  0  0  0  0
    9.3120   -0.8210   22.2640 N   0  0  0  0  0  0  0  0  0  0  0  0
    9.8930   -2.1380   21.9270 C   0  0  0  0  0  0  0  0  0  0  0  0
    9.9700   -0.2780   23.3300 C   0  0  1  0  0  0  0  0  0  0  0  0
    5.3670    0.7460   20.2910 C   0  0  0  0  0  0  0  0  0  0  0  0
    6.9540    0.0750   18.4760 C   0  0  0  0  0  0  0  0  0  0  0  0
   11.3660   -0.1500   22.9870 C   0  0  1  0  0  0  0  0  0  0  0  0
    9.2570    0.7660   24.0820 C   0  0  0  0  0  0  0  0  0  0  0  0
   10.2560   -2.9290   23.1410 N   0  0  0  0  0  0  0  0  0  0  0  0
    6.3130    0.7350   17.5300 N   0  0  0  0  0  0  0  0  0  0  0  0
    4.6970    1.4420   19.2680 C   0  0  0  0  0  0  0  0  0  0  0  0
    4.9170    0.7450   21.6250 C   0  0  0  0  0  0  0  0  0  0  0  0
   12.0440    1.2300   23.2410 C   0  0  0  0  0  0  0  0  0  0  0  0
    9.9590    2.0200   24.3170 C   0  0  0  0  0  0  0  0  0  0  0  0
    9.2200   -3.7000   23.8380 C   0  0  1  0  0  0  0  0  0  0  0  0
   10.9920   -2.2340   24.2310 C   0  0  2  0  0  0  0  0  0  0  0  0
   12.0960   -1.3570   23.6440 C   0  0  2  0  0  0  0  0  0  0  0  0
    5.1300    1.4560   17.9430 C   0  0  0  0  0  0  0  0  0  0  0  0
    3.4360    2.1950   19.7340 C   0  0  0  0  0  0  0  0  0  0  0  0
    3.7760    1.4400   22.0040 C   0  0  0  0  0  0  0  0  0  0  0  0
   11.1890    2.2580   23.9180 C   0  0  0  0  0  0  0  0  0  0  0  0
    8.3490   -4.6110   22.9200 C   0  0  2  0  0  0  0  0  0  0  0  0
   10.2690   -4.6070   25.0060 S   0  0  0  0  0  0  0  0  0  0  0  0
   11.3770   -3.1740   25.1680 C   0  0  1  0  0  0  0  0  0  0  0  0
   12.9540   -0.9920   24.6620 C   0  0  0  0  0  0  0  0  0  0  0  0
    3.0450    2.1540   21.0660 C   0  0  0  0  0  0  0  0  0  0  0  0
    7.3170   -3.7370   22.2930 C   0  0  0  0  0  0  0  0  0  0  0  0
    7.8540   -5.6830   23.5410 C   0  0  0  0  0  0  0  0  0  0  0  0
   13.4250   -1.9320   25.4900 C   0  0  0  0  0  0  0  0  0  0  0  0
   12.8810   -3.2830   25.1820 C   0  0  0  0  0  0  0  0  0  0  0  0
    6.6410   -4.4840   21.4130 N   0  0  0  0  0  0  0  0  0  0  0  0
    6.6980   -6.1600   23.0490 C   0  0  0  0  0  0  0  0  0  0  0  0
    6.3310   -3.9910   20.1460 C   0  0  0  0  0  0  0  0  0  0  0  0
    6.5500   -5.9050   21.7040 C   0  0  0  0  0  0  0  0  0  0  0  0
    7.3700   -3.2790   19.2540 C   0  0  0  0  0  0  0  0  0  0  0  0
    5.1990   -4.1770   19.7230 O   0  0  0  0  0  0  0  0  0  0  0  0
  1  2  1  0
  2  3  1  0
  1  4  2  0
  1  5  1  0
  5  6  1  0
  5  7  1  0
  3  8  1  0
  3  9  2  0
  7 10  1  0
  7 11  1  6
  6 12  1  0
  9 13  1  0
  8 14  2  0
  8 15  1  0
 10 16  1  1
 11 17  2  0
 12 18  1  0
 19 12  1  6
 10 20  1  0
 19 20  1  0
 13 21  2  0
 14 21  1  0
 14 22  1  0
 15 23  2  0
 16 24  2  0
 17 24  1  0
 18 25  1  0
 18 26  1  1
 19 27  1  0
 26 27  1  0
 20 28  1  1
 22 29  2  0
 23 29  1  0
 25 30  1  1
 25 31  1  0
 28 32  2  0
 27 33  1  6
 32 33  1  0
 30 34  1  0
 31 35  1  0
 34 36  1  0
 34 37  1  0
 35 37  1  0
 36 38  1  0
 36 39  2  0
M  END
