x2562-x3113
     RDKit          3D

 41 44  0  0  0  0  0  0  0  0999 V2000
    6.8870   -1.6580   21.9270 N   0  0  0  0  0  0  0  0  0  0  0  0
    6.0580   -2.8450   21.5870 C   0  0  0  0  0  0  0  0  0  0  0  0
    4.8020   -2.9870   21.2300 O   0  0  0  0  0  0  0  0  0  0  0  0
    6.5780   -0.2540   21.6990 C   0  0  1  0  0  0  0  0  0  0  0  0
    8.0310   -1.8560   22.7300 C   0  0  0  0  0  0  0  0  0  0  0  0
    6.7650   -4.1790   21.6810 C   0  0  0  0  0  0  0  0  0  0  0  0
    7.9130    0.6520   21.8080 C   0  0  2  0  0  0  0  0  0  0  0  0
    6.1180    0.1800   20.3320 C   0  0  0  0  0  0  0  0  0  0  0  0
    9.2400   -2.6100   22.2310 C   0  0  0  0  0  0  0  0  0  0  0  0
    8.1010   -1.3450   24.0080 C   0  0  0  0  0  0  0  0  0  0  0  0
    6.7390   -4.8180   20.2880 C   0  0  0  0  0  0  0  0  0  0  0  0
    8.2350    0.9680   23.1380 N   0  0  0  0  0  0  0  0  0  0  0  0
    7.9520    1.6670   21.0890 O   0  0  0  0  0  0  0  0  0  0  0  0
    8.7370   -0.0200   21.1450 N   0  0  0  0  0  0  0  0  0  0  0  0
    5.0030    1.0040   20.2170 C   0  0  0  0  0  0  0  0  0  0  0  0
    6.8380   -0.2080   19.0500 C   0  0  0  0  0  0  0  0  0  0  0  0
   10.3840   -2.7960   22.9860 C   0  0  0  0  0  0  0  0  0  0  0  0
    9.2610   -1.5630   24.6810 C   0  0  0  0  0  0  0  0  0  0  0  0
    9.1530    2.0540   23.6200 C   0  0  0  0  0  0  0  0  0  0  0  0
    6.3510    0.2920   17.8950 N   0  0  0  0  0  0  0  0  0  0  0  0
    4.5540    1.4800   18.9940 C   0  0  0  0  0  0  0  0  0  0  0  0
   10.3440   -2.2450   24.2190 C   0  0  0  0  0  0  0  0  0  0  0  0
    9.9570   -0.6680   21.5310 C   0  0  0  0  0  0  0  0  0  0  0  0
   10.6430    2.0360   23.0910 C   0  0  1  0  0  0  0  0  0  0  0  0
    5.1720    1.1780   17.7970 C   0  0  0  0  0  0  0  0  0  0  0  0
   10.8020   -0.1120   22.3760 C   0  0  0  0  0  0  0  0  0  0  0  0
   11.3900    3.0110   23.6660 C   0  0  0  0  0  0  0  0  0  0  0  0
   11.2780    0.7990   23.1890 C   0  0  1  0  0  0  0  0  0  0  0  0
   11.1620    4.3420   23.1910 O   0  0  0  0  0  0  0  0  0  0  0  0
   12.6750    0.5710   23.0580 C   0  0  0  0  0  0  0  0  0  0  0  0
   12.7460   -0.9820   22.7480 C   0  0  2  0  0  0  0  0  0  0  0  0
   12.0770    4.5550   22.0930 N   0  0  0  0  0  0  0  0  0  0  0  0
   13.2990   -2.0410   23.7570 C   0  0  0  0  0  0  0  0  0  0  0  0
   13.0680   -1.5510   21.4010 C   0  0  0  0  0  0  0  0  0  0  0  0
   12.7910    5.8970   22.0950 C   0  0  1  0  0  0  0  0  0  0  0  0
   13.4060    4.1280   22.6120 C   0  0  0  0  0  0  0  0  0  0  0  0
   13.4160   -1.7750   25.0860 C   0  0  0  0  0  0  0  0  0  0  0  0
   12.5570    6.7560   23.1280 O   0  0  0  0  0  0  0  0  0  0  0  0
   14.0780    5.1950   22.1980 C   0  0  0  0  0  0  0  0  0  0  0  0
   12.7690   -3.0880   24.9090 C   0  0  0  0  0  0  0  0  0  0  0  0
   12.6140   -0.6780   25.4110 C   0  0  0  0  0  0  0  0  0  0  0  0
  1  2  1  0
  2  3  2  0
  4  1  1  6
  1  5  1  0
  2  6  1  0
  4  7  1  0
  4  8  1  0
  5  9  2  0
  5 10  1  0
  6 11  1  0
  7 12  1  0
  7 13  1  6
  7 14  1  0
  8 15  2  0
  8 16  1  0
  9 17  1  0
 10 18  2  0
 12 19  1  0
 16 20  2  0
 15 21  1  0
 17 22  2  0
 18 22  1  0
 14 23  1  0
 19 24  1  0
 20 25  1  0
 21 25  2  0
 23 26  2  0
 24 27  1  1
 24 28  1  0
 26 28  1  0
 27 29  1  0
 28 30  1  6
 30 31  1  0
 29 32  1  0
 31 33  1  0
 31 34  1  6
 32 35  1  0
 32 36  1  0
 33 37  1  0
 35 38  1  1
 35 39  1  0
 36 39  1  0
 37 40  1  0
 37 41  1  0
M  END
