x2563-x0981
     RDKit          3D

 38 40  0  0  0  0  0  0  0  0999 V2000
    1.2220   -8.6540   21.4560 C   0  0  0  0  0  0  0  0  0  0  0  0
    1.4290   -7.3500   22.1900 C   0  0  0  0  0  0  0  0  0  0  0  0
    2.7060   -7.1330   22.6890 N   0  0  0  0  0  0  0  0  0  0  0  0
    0.5160   -6.5380   22.3040 O   0  0  0  0  0  0  0  0  0  0  0  0
    3.0540   -6.0000   23.5450 C   0  0  1  0  0  0  0  0  0  0  0  0
    2.7720   -6.3370   24.9950 C   0  0  0  0  0  0  0  0  0  0  0  0
    4.4700   -5.3500   23.3670 C   0  0  0  0  0  0  0  0  0  0  0  0
    5.3950   -5.7370   22.2940 N   0  0  0  0  0  0  0  0  0  0  0  0
    4.8680   -4.4720   24.1320 O   0  0  0  0  0  0  0  0  0  0  0  0
    3.0870   -7.6360   25.3250 C   0  0  0  0  0  0  0  0  0  0  0  0
    2.4110   -8.2090   26.3870 N   0  0  0  0  0  0  0  0  0  0  0  0
    3.9380   -8.2160   24.6800 O   0  0  0  0  0  0  0  0  0  0  0  0
    6.0170   -4.5330   21.6720 C   0  0  1  0  0  0  0  0  0  0  0  0
    6.3880   -4.9650   20.2530 C   0  0  0  0  0  0  0  0  0  0  0  0
    5.1110   -3.4590   21.5380 C   0  0  0  0  0  0  0  0  0  0  0  0
    5.7290   -6.2380   19.8060 C   0  0  0  0  0  0  0  0  0  0  0  0
    5.4110   -2.1700   21.6900 C   0  0  0  0  0  0  0  0  0  0  0  0
    6.7490   -1.9210   21.8690 C   0  0  0  0  0  0  0  0  0  0  0  0
    7.3500   -1.0810   20.7200 C   0  0  2  0  0  0  0  0  0  0  0  0
    8.3820   -0.4290   21.2570 C   0  0  0  0  0  0  0  0  0  0  0  0
    6.4650   -0.1480   19.9460 C   0  0  0  0  0  0  0  0  0  0  0  0
    8.4900    0.7940   21.1010 O   0  0  0  0  0  0  0  0  0  0  0  0
    9.2320   -1.1520   21.9510 N   0  0  0  0  0  0  0  0  0  0  0  0
    5.4320    0.5870   20.3620 C   0  0  0  0  0  0  0  0  0  0  0  0
    6.8270   -0.0530   18.4940 C   0  0  0  0  0  0  0  0  0  0  0  0
    6.1840    0.7540   17.4680 N   0  0  0  0  0  0  0  0  0  0  0  0
    4.6550    1.4950   19.3590 C   0  0  0  0  0  0  0  0  0  0  0  0
    4.9730    0.6100   21.6960 C   0  0  0  0  0  0  0  0  0  0  0  0
   10.1850   -0.5190   22.6420 C   0  0  0  0  0  0  0  0  0  0  0  0
    5.0580    1.5740   17.8790 C   0  0  0  0  0  0  0  0  0  0  0  0
    3.5490    2.2890   19.7540 C   0  0  0  0  0  0  0  0  0  0  0  0
    3.7710    1.4850   22.0930 C   0  0  0  0  0  0  0  0  0  0  0  0
   11.5380   -0.7030   22.4610 C   0  0  0  0  0  0  0  0  0  0  0  0
    9.6510    0.4350   23.6330 C   0  0  0  0  0  0  0  0  0  0  0  0
    3.1430    2.2790   21.0200 C   0  0  0  0  0  0  0  0  0  0  0  0
   12.4020    0.0330   23.2130 C   0  0  0  0  0  0  0  0  0  0  0  0
   10.5510    1.1380   24.3530 C   0  0  0  0  0  0  0  0  0  0  0  0
   11.9020    0.9220   24.1210 C   0  0  0  0  0  0  0  0  0  0  0  0
  1  2  1  0
  2  3  1  0
  2  4  2  0
  3  5  1  0
  5  6  1  1
  5  7  1  0
  7  8  1  0
  7  9  2  0
  6 10  1  0
 10 11  1  0
 10 12  2  0
  8 13  1  0
 13 14  1  6
 13 15  1  0
 14 16  2  3
 15 17  1  0
 17 18  1  0
 19 18  1  1
 19 20  1  0
 19 21  1  0
 20 22  2  0
 20 23  1  0
 21 24  1  0
 21 25  2  0
 25 26  1  0
 24 27  2  0
 24 28  1  0
 23 29  1  0
 26 30  2  0
 27 30  1  0
 27 31  1  0
 28 32  2  0
 29 33  2  0
 29 34  1  0
 31 35  2  0
 32 35  1  0
 33 36  1  0
 34 37  2  0
 36 38  2  0
 37 38  1  0
M  END
