x2563-x0734
     RDKit          3D

 39 43  0  0  0  0  0  0  0  0999 V2000
    5.1500   -4.7260   26.1460 N   0  0  0  0  0  0  0  0  0  0  0  0
    6.5840   -5.0340   26.2810 C   0  0  0  0  0  0  0  0  0  0  0  0
    7.1580   -5.5100   27.5110 C   0  0  0  0  0  0  0  0  0  0  0  0
    4.4610   -5.5460   25.5180 O   0  0  0  0  0  0  0  0  0  0  0  0
    4.7050   -3.7730   26.7960 O   0  0  0  0  0  0  0  0  0  0  0  0
    7.5460   -4.8720   25.1460 C   0  0  0  0  0  0  0  0  0  0  0  0
    8.8500   -5.1500   25.2430 C   0  0  0  0  0  0  0  0  0  0  0  0
    8.5150   -5.7780   27.5440 C   0  0  0  0  0  0  0  0  0  0  0  0
    6.8570   -4.3750   23.9680 N   0  0  0  0  0  0  0  0  0  0  0  0
    9.3350   -5.6160   26.4740 C   0  0  0  0  0  0  0  0  0  0  0  0
    6.0960   -5.2090   23.1960 C   0  0  0  0  0  0  0  0  0  0  0  0
    7.3220   -3.2470   23.4060 C   0  0  0  0  0  0  0  0  0  0  0  0
    6.5500   -5.1850   21.8660 C   0  0  0  0  0  0  0  0  0  0  0  0
    7.2340   -3.0590   21.9200 C   0  0  2  0  0  0  0  0  0  0  0  0
    6.5400   -1.7820   21.6260 C   0  0  0  0  0  0  0  0  0  0  0  0
    6.6100   -3.9670   21.2540 N   0  0  0  0  0  0  0  0  0  0  0  0
    6.2070   -3.8260   19.9440 C   0  0  0  0  0  0  0  0  0  0  0  0
    7.1970   -0.9540   20.8080 C   0  0  2  0  0  0  0  0  0  0  0  0
    5.0880   -4.1900   19.6310 O   0  0  0  0  0  0  0  0  0  0  0  0
    7.1900   -3.2390   18.9090 C   0  0  0  0  0  0  0  0  0  0  0  0
    8.3860   -0.2620   21.3090 C   0  0  0  0  0  0  0  0  0  0  0  0
    6.3840   -0.0810   19.8860 C   0  0  0  0  0  0  0  0  0  0  0  0
    8.5530    0.9510   21.1570 O   0  0  0  0  0  0  0  0  0  0  0  0
    9.2270   -1.1340   21.9380 N   0  0  0  0  0  0  0  0  0  0  0  0
    5.2040    0.7400   20.2500 C   0  0  0  0  0  0  0  0  0  0  0  0
    6.8220   -0.0440   18.5020 C   0  0  0  0  0  0  0  0  0  0  0  0
    6.1820    0.7400   17.4590 N   0  0  0  0  0  0  0  0  0  0  0  0
    4.5770    1.4900   19.2960 C   0  0  0  0  0  0  0  0  0  0  0  0
    4.7460    0.7360   21.5950 C   0  0  0  0  0  0  0  0  0  0  0  0
   10.1990   -0.5340   22.6340 C   0  0  0  0  0  0  0  0  0  0  0  0
    5.1150    1.4650   17.8700 C   0  0  0  0  0  0  0  0  0  0  0  0
    3.4550    2.2950   19.5520 C   0  0  0  0  0  0  0  0  0  0  0  0
    3.5790    1.5330   22.0290 C   0  0  0  0  0  0  0  0  0  0  0  0
   11.5480   -0.7410   22.3920 C   0  0  0  0  0  0  0  0  0  0  0  0
    9.6980    0.2900   23.5530 C   0  0  0  0  0  0  0  0  0  0  0  0
    2.9000    2.3590   20.9190 C   0  0  0  0  0  0  0  0  0  0  0  0
   12.4660   -0.0510   23.1180 C   0  0  0  0  0  0  0  0  0  0  0  0
   10.5940    1.0700   24.3810 C   0  0  0  0  0  0  0  0  0  0  0  0
   11.9390    0.8940   24.1500 C   0  0  0  0  0  0  0  0  0  0  0  0
  1  2  1  0
  2  3  2  0
  1  4  2  0
  1  5  1  0
  2  6  1  0
  6  7  2  0
  3  8  1  0
  6  9  1  0
  7 10  1  0
  8 10  2  0
  9 11  1  0
  9 12  1  0
 11 13  1  0
 12 14  1  0
 14 15  1  1
 13 16  1  0
 14 16  1  0
 16 17  1  0
 18 15  1  1
 17 19  2  0
 17 20  1  0
 18 21  1  0
 18 22  1  0
 21 23  2  0
 21 24  1  0
 22 25  1  0
 22 26  2  0
 26 27  1  0
 25 28  2  0
 25 29  1  0
 24 30  1  0
 27 31  2  0
 28 31  1  0
 28 32  1  0
 29 33  2  0
 30 34  2  0
 30 35  1  0
 32 36  2  0
 33 36  1  0
 34 37  1  0
 35 38  2  0
 37 39  2  0
 38 39  1  0
M  CHG  2   1   1   5  -1
M  END
