x2563-x1380
     RDKit          3D

 38 42  0  0  0  0  0  0  0  0999 V2000
    7.0010   -3.3880   19.2850 C   0  0  0  0  0  0  0  0  0  0  0  0
    6.2300   -4.1790   20.3230 C   0  0  0  0  0  0  0  0  0  0  0  0
    5.2420   -4.7940   19.9520 O   0  0  0  0  0  0  0  0  0  0  0  0
    6.7010   -4.2420   21.6290 N   0  0  0  0  0  0  0  0  0  0  0  0
    6.4730   -5.3670   22.4920 C   0  0  0  0  0  0  0  0  0  0  0  0
    7.3600   -3.0310   22.2150 C   0  0  1  0  0  0  0  0  0  0  0  0
    6.6690   -1.7780   21.7190 C   0  0  0  0  0  0  0  0  0  0  0  0
    6.2030   -5.0590   23.7770 C   0  0  0  0  0  0  0  0  0  0  0  0
    7.4040   -3.1400   23.5960 C   0  0  0  0  0  0  0  0  0  0  0  0
    7.4220   -0.8580   20.7860 C   0  0  2  0  0  0  0  0  0  0  0  0
    6.2330   -3.6770   23.9690 C   0  0  2  0  0  0  0  0  0  0  0  0
    5.9000   -3.3210   25.4430 C   0  0  0  0  0  0  0  0  0  0  0  0
    8.4340   -0.1180   21.1990 C   0  0  0  0  0  0  0  0  0  0  0  0
    6.5150   -0.0200   19.8680 C   0  0  0  0  0  0  0  0  0  0  0  0
    4.8200   -2.7530   25.5750 O   0  0  0  0  0  0  0  0  0  0  0  0
    8.3240    1.1050   21.2440 O   0  0  0  0  0  0  0  0  0  0  0  0
    9.6000   -0.7710   21.5170 N   0  0  0  0  0  0  0  0  0  0  0  0
    6.6950   -3.5910   26.5190 N   0  0  0  0  0  0  0  0  0  0  0  0
    5.3290    0.6990   20.3110 C   0  0  0  0  0  0  0  0  0  0  0  0
    6.8540    0.0310   18.5990 C   0  0  0  0  0  0  0  0  0  0  0  0
    7.8840   -4.3180   26.5590 C   0  0  0  0  0  0  0  0  0  0  0  0
    6.0340   -3.4070   27.8190 C   0  0  0  0  0  0  0  0  0  0  0  0
    6.2500    0.6740   17.6250 N   0  0  0  0  0  0  0  0  0  0  0  0
    4.6170    1.4470   19.2180 C   0  0  0  0  0  0  0  0  0  0  0  0
    4.8160    0.7540   21.6120 C   0  0  0  0  0  0  0  0  0  0  0  0
   10.4460   -0.5990   22.6750 C   0  0  0  0  0  0  0  0  0  0  0  0
    7.8150   -5.4590   27.2740 C   0  0  0  0  0  0  0  0  0  0  0  0
    6.0930   -4.7000   28.6110 C   0  0  0  0  0  0  0  0  0  0  0  0
    5.1450    1.3680   17.9840 C   0  0  0  0  0  0  0  0  0  0  0  0
    3.4550    2.1920   19.4890 C   0  0  0  0  0  0  0  0  0  0  0  0
    3.5980    1.5420   21.8760 C   0  0  0  0  0  0  0  0  0  0  0  0
   11.8150   -0.7860   22.5610 C   0  0  0  0  0  0  0  0  0  0  0  0
    9.8320   -0.2620   23.8310 C   0  0  0  0  0  0  0  0  0  0  0  0
    7.3660   -5.2620   28.5650 C   0  0  0  0  0  0  0  0  0  0  0  0
    2.9510    2.2540   20.7340 C   0  0  0  0  0  0  0  0  0  0  0  0
   12.6820   -0.6150   23.7730 C   0  0  0  0  0  0  0  0  0  0  0  0
   10.4960   -0.0870   24.9790 C   0  0  0  0  0  0  0  0  0  0  0  0
   11.9890   -0.2570   25.0500 C   0  0  0  0  0  0  0  0  0  0  0  0
  1  2  1  0
  2  3  2  0
  2  4  1  0
  4  5  1  0
  4  6  1  0
  6  7  1  1
  5  8  1  0
  6  9  1  0
 10  7  1  1
  8 11  1  0
  9 11  1  0
 11 12  1  1
 10 13  1  0
 10 14  1  0
 12 15  2  0
 13 16  2  0
 13 17  1  0
 12 18  1  0
 14 19  1  0
 14 20  2  0
 18 21  1  0
 18 22  1  0
 20 23  1  0
 19 24  2  0
 19 25  1  0
 17 26  1  0
 21 27  1  0
 22 28  1  0
 23 29  2  0
 24 29  1  0
 24 30  1  0
 25 31  2  0
 26 32  2  0
 26 33  1  0
 27 34  1  0
 28 34  1  0
 30 35  2  0
 31 35  1  0
 32 36  1  0
 33 37  2  0
 36 38  2  0
 37 38  1  0
M  END
