x2569-x0769
     RDKit          3D

 40 43  0  0  0  0  0  0  0  0999 V2000
    5.8340   -5.3170   26.6670 O   0  0  0  0  0  0  0  0  0  0  0  0
    4.8000   -5.2300   25.6660 S   0  0  0  0  0  0  0  0  0  0  0  0
    3.6020   -6.1830   25.6420 O   0  0  0  0  0  0  0  0  0  0  0  0
    3.9330   -3.8490   25.7850 C   0  0  0  0  0  0  0  0  0  0  0  0
    5.4970   -5.1190   24.1230 N   0  0  0  0  0  0  0  0  0  0  0  0
    4.4550   -2.4800   26.0080 C   0  0  0  0  0  0  0  0  0  0  0  0
    2.5330   -4.0530   25.6560 C   0  0  0  0  0  0  0  0  0  0  0  0
    4.8860   -5.8190   22.9840 C   0  0  0  0  0  0  0  0  0  0  0  0
    6.9430   -4.8610   24.0240 C   0  0  0  0  0  0  0  0  0  0  0  0
    5.8130   -2.3320   26.1290 O   0  0  0  0  0  0  0  0  0  0  0  0
    1.5800   -3.0430   25.7260 C   0  0  0  0  0  0  0  0  0  0  0  0
    3.5940   -1.3690   26.0970 C   0  0  0  0  0  0  0  0  0  0  0  0
    5.7750   -6.1770   21.9510 C   0  0  0  0  0  0  0  0  0  0  0  0
    7.5570   -4.8230   22.7650 C   0  0  0  0  0  0  0  0  0  0  0  0
    6.4730   -1.2100   25.5180 C   0  0  0  0  0  0  0  0  0  0  0  0
    2.0770   -1.6120   25.9580 C   0  0  0  0  0  0  0  0  0  0  0  0
    6.5860   -5.1780   21.6880 N   0  0  0  0  0  0  0  0  0  0  0  0
    6.3270   -4.4480   20.5070 C   0  0  0  0  0  0  0  0  0  0  0  0
    6.4570   -1.4320   23.9700 C   0  0  0  0  0  0  0  0  0  0  0  0
    5.2730   -4.6160   19.9190 O   0  0  0  0  0  0  0  0  0  0  0  0
    7.3360   -3.4250   19.9370 C   0  0  0  0  0  0  0  0  0  0  0  0
    7.8880   -1.5720   23.4100 C   0  0  0  0  0  0  0  0  0  0  0  0
    8.4860   -0.1920   23.1520 C   0  0  2  0  0  0  0  0  0  0  0  0
    8.1670    0.3770   21.7970 C   0  0  0  0  0  0  0  0  0  0  0  0
    9.9820   -0.2560   23.2360 C   0  0  0  0  0  0  0  0  0  0  0  0
    8.8590    1.2710   21.2720 O   0  0  0  0  0  0  0  0  0  0  0  0
    6.9860   -0.2270   21.2340 N   0  0  0  0  0  0  0  0  0  0  0  0
   10.8350   -1.0130   22.2010 C   0  0  0  0  0  0  0  0  0  0  0  0
   10.7350    0.4430   24.3560 C   0  0  0  0  0  0  0  0  0  0  0  0
   12.0970    0.3530   24.3650 N   0  0  0  0  0  0  0  0  0  0  0  0
   12.1910   -0.9800   22.3790 C   0  0  0  0  0  0  0  0  0  0  0  0
    6.3090    0.3270   20.1340 C   0  0  0  0  0  0  0  0  0  0  0  0
   13.0480   -1.6060   21.5010 C   0  0  0  0  0  0  0  0  0  0  0  0
   12.7700   -0.3170   23.4270 C   0  0  0  0  0  0  0  0  0  0  0  0
    6.9100    0.1420   18.7590 C   0  0  0  0  0  0  0  0  0  0  0  0
    5.1280    1.0400   20.2440 C   0  0  0  0  0  0  0  0  0  0  0  0
   13.6870   -2.0470   20.7090 N   0  0  0  0  0  0  0  0  0  0  0  0
    6.3840    0.6380   17.6420 N   0  0  0  0  0  0  0  0  0  0  0  0
    4.5790    1.5520   19.0630 C   0  0  0  0  0  0  0  0  0  0  0  0
    5.2220    1.3340   17.8480 C   0  0  0  0  0  0  0  0  0  0  0  0
  1  2  2  0
  2  3  2  0
  2  4  1  0
  2  5  1  0
  4  6  1  0
  4  7  2  0
  5  8  1  0
  5  9  1  0
  6 10  1  0
  7 11  1  0
  6 12  2  0
  8 13  1  0
  9 14  1  0
 10 15  1  0
 11 16  2  0
 12 16  1  0
 13 17  1  0
 14 17  1  0
 17 18  1  0
 15 19  1  0
 18 20  2  0
 18 21  1  0
 19 22  1  0
 23 22  1  6
 23 24  1  0
 23 25  1  0
 24 26  2  0
 24 27  1  0
 25 28  2  0
 25 29  1  0
 29 30  2  0
 28 31  1  0
 27 32  1  0
 31 33  1  0
 30 34  1  0
 31 34  2  0
 32 35  2  0
 32 36  1  0
 33 37  3  0
 35 38  1  0
 36 39  2  0
 38 40  2  0
 39 40  1  0
M  END
