x2562-x1402
     RDKit          3D

 43 47  0  0  0  0  0  0  0  0999 V2000
    7.4860   -3.3910   19.7640 C   0  0  0  0  0  0  0  0  0  0  0  0
    6.4390   -4.2420   20.4980 C   0  0  0  0  0  0  0  0  0  0  0  0
    5.4820   -4.7300   19.9290 O   0  0  0  0  0  0  0  0  0  0  0  0
    6.4510   -4.5060   22.0120 C   0  0  0  0  0  0  0  0  0  0  0  0
    7.7550   -4.6870   22.8030 C   0  0  0  0  0  0  0  0  0  0  0  0
    5.5550   -5.7880   22.1880 C   0  0  0  0  0  0  0  0  0  0  0  0
    5.6940   -3.2430   22.5730 C   0  0  0  0  0  0  0  0  0  0  0  0
    7.0030   -5.0960   24.0680 C   0  0  0  0  0  0  0  0  0  0  0  0
    4.8400   -5.8780   23.4130 C   0  0  0  0  0  0  0  0  0  0  0  0
    6.6190   -2.0680   22.9490 C   0  0  0  0  0  0  0  0  0  0  0  0
    5.7310   -5.6290   24.4830 N   0  0  0  0  0  0  0  0  0  0  0  0
    6.2630   -0.9010   22.2650 C   0  0  0  0  0  0  0  0  0  0  0  0
    5.0820   -5.3150   26.0410 S   0  0  0  0  0  0  0  0  0  0  0  0
    7.0980   -0.5990   20.9830 C   0  0  2  0  0  0  0  0  0  0  0  0
    4.1970   -6.4410   26.2390 O   0  0  0  0  0  0  0  0  0  0  0  0
    6.2000   -5.0270   26.9110 O   0  0  0  0  0  0  0  0  0  0  0  0
    4.1240   -3.9150   26.0470 C   0  0  0  0  0  0  0  0  0  0  0  0
    8.2840    0.0260   21.3600 C   0  0  0  0  0  0  0  0  0  0  0  0
    6.3730    0.1110   20.0270 C   0  0  0  0  0  0  0  0  0  0  0  0
    2.4070   -3.9150   26.1130 S   0  0  0  0  0  0  0  0  0  0  0  0
    4.6330   -2.6250   26.0040 C   0  0  0  0  0  0  0  0  0  0  0  0
    8.4650    1.4190   21.0180 O   0  0  0  0  0  0  0  0  0  0  0  0
    9.2780   -0.7100   22.0520 N   0  0  0  0  0  0  0  0  0  0  0  0
    6.7630    0.0480   18.7110 C   0  0  0  0  0  0  0  0  0  0  0  0
    5.2680    0.8870   20.3450 C   0  0  0  0  0  0  0  0  0  0  0  0
    3.6380   -1.6750   26.0340 C   0  0  0  0  0  0  0  0  0  0  0  0
    2.3510   -2.1960   26.1020 C   0  0  0  0  0  0  0  0  0  0  0  0
    4.5940    1.5670   19.4050 N   0  0  0  0  0  0  0  0  0  0  0  0
    6.1950    0.6670   17.6560 N   0  0  0  0  0  0  0  0  0  0  0  0
   10.5410   -0.2130   22.3580 C   0  0  0  0  0  0  0  0  0  0  0  0
    0.8470   -1.3760   26.1770 Cl  0  0  0  0  0  0  0  0  0  0  0  0
    5.1330    1.4080   18.0490 C   0  0  0  0  0  0  0  0  0  0  0  0
   11.6420   -1.0890   22.3070 C   0  0  0  0  0  0  0  0  0  0  0  0
   10.6870    1.1250   22.6960 C   0  0  0  0  0  0  0  0  0  0  0  0
   12.9090   -0.6120   22.5880 C   0  0  0  0  0  0  0  0  0  0  0  0
   11.9060    1.6700   22.9870 C   0  0  0  0  0  0  0  0  0  0  0  0
   12.0060    3.0140   23.3220 O   0  0  0  0  0  0  0  0  0  0  0  0
   13.0780    0.7260   22.9160 C   0  0  0  0  0  0  0  0  0  0  0  0
   12.9700    3.8440   22.6630 C   0  0  1  0  0  0  0  0  0  0  0  0
   12.4460    4.7070   21.7000 N   0  0  0  0  0  0  0  0  0  0  0  0
   13.5300    4.8080   23.3860 C   0  0  0  0  0  0  0  0  0  0  0  0
   13.3810    5.5640   22.2900 C   0  0  2  0  0  0  0  0  0  0  0  0
   12.9420    6.8660   22.6140 O   0  0  0  0  0  0  0  0  0  0  0  0
  1  2  1  0
  2  3  2  0
  4  2  1  0
  4  5  1  0
  4  6  1  0
  4  7  1  0
  5  8  1  0
  6  9  1  0
  7 10  1  0
  8 11  1  0
  9 11  1  0
 10 12  1  0
 11 13  1  0
 14 12  1  1
 13 15  2  0
 13 16  2  0
 13 17  1  0
 14 18  1  0
 14 19  1  0
 17 20  1  0
 17 21  2  0
 18 22  2  0
 18 23  1  0
 19 24  2  0
 19 25  1  0
 21 26  1  0
 20 27  1  0
 26 27  2  0
 25 28  2  0
 24 29  1  0
 23 30  1  0
 27 31  1  0
 28 32  1  0
 29 32  2  0
 30 33  2  0
 30 34  1  0
 33 35  1  0
 34 36  2  0
 36 37  1  0
 35 38  2  0
 36 38  1  0
 39 37  1  1
 39 40  1  0
 39 41  1  0
 40 42  1  0
 41 42  1  0
 42 43  1  1
M  END
