x2563-x0691
     RDKit          3D

 41 45  0  0  0  0  0  0  0  0999 V2000
    3.9300   -6.8600   25.8710 O   0  0  0  0  0  0  0  0  0  0  0  0
    4.6170   -5.5890   25.9610 S   0  0  0  0  0  0  0  0  0  0  0  0
    5.5400   -5.2970   27.0320 O   0  0  0  0  0  0  0  0  0  0  0  0
    3.4060   -4.2920   25.8980 C   0  0  0  0  0  0  0  0  0  0  0  0
    5.4480   -5.3010   24.5040 N   0  0  0  0  0  0  0  0  0  0  0  0
    3.8680   -2.8430   26.0760 C   0  0  0  0  0  0  0  0  0  0  0  0
    2.0600   -4.5930   25.6890 C   0  0  0  0  0  0  0  0  0  0  0  0
    5.0320   -6.0720   23.3100 C   0  0  0  0  0  0  0  0  0  0  0  0
    6.8760   -4.9620   24.5660 C   0  0  0  0  0  0  0  0  0  0  0  0
    2.8390   -1.8900   26.0140 C   0  0  0  0  0  0  0  0  0  0  0  0
    1.1110   -3.5730   25.6410 C   0  0  0  0  0  0  0  0  0  0  0  0
    5.0450   -5.1680   22.2560 C   0  0  0  0  0  0  0  0  0  0  0  0
    7.3730   -4.7880   23.1620 C   0  0  0  0  0  0  0  0  0  0  0  0
    3.1010   -0.5820   26.1520 F   0  0  0  0  0  0  0  0  0  0  0  0
    1.4970   -2.2400   25.8030 C   0  0  0  0  0  0  0  0  0  0  0  0
    6.2060   -4.3950   22.2330 C   0  0  0  0  0  0  0  0  0  0  0  0
    6.6880   -4.4500   20.8100 C   0  0  0  0  0  0  0  0  0  0  0  0
    5.9820   -2.8420   22.1950 C   0  0  0  0  0  0  0  0  0  0  0  0
    5.8530   -4.5210   19.9080 O   0  0  0  0  0  0  0  0  0  0  0  0
    8.2060   -4.3830   20.6630 C   0  0  0  0  0  0  0  0  0  0  0  0
    6.6780   -2.0920   21.0240 C   0  0  0  0  0  0  0  0  0  0  0  0
    6.7330   -0.7880   21.2110 C   0  0  1  0  0  0  0  0  0  0  0  0
    8.1420   -0.3060   21.3870 C   0  0  0  0  0  0  0  0  0  0  0  0
    6.1840   -0.0050   20.0180 C   0  0  0  0  0  0  0  0  0  0  0  0
    8.4590    0.8200   20.9930 O   0  0  0  0  0  0  0  0  0  0  0  0
    8.9720   -1.1640   22.0360 N   0  0  0  0  0  0  0  0  0  0  0  0
    5.0370    0.8190   20.2950 C   0  0  0  0  0  0  0  0  0  0  0  0
    6.7570   -0.0530   18.6520 C   0  0  0  0  0  0  0  0  0  0  0  0
    6.2710    0.6430   17.6080 N   0  0  0  0  0  0  0  0  0  0  0  0
    4.4780    1.5920   19.1710 C   0  0  0  0  0  0  0  0  0  0  0  0
    4.4240    0.9370   21.5420 C   0  0  0  0  0  0  0  0  0  0  0  0
   10.0460   -0.5970   22.6540 C   0  0  0  0  0  0  0  0  0  0  0  0
    5.1950    1.4190   17.8560 C   0  0  0  0  0  0  0  0  0  0  0  0
    3.3630    2.4290   19.3110 C   0  0  0  0  0  0  0  0  0  0  0  0
    3.1850    1.8640   21.7270 C   0  0  0  0  0  0  0  0  0  0  0  0
   11.3630   -0.9080   22.3920 C   0  0  0  0  0  0  0  0  0  0  0  0
    9.6830    0.3660   23.5860 C   0  0  0  0  0  0  0  0  0  0  0  0
    2.7380    2.5770   20.4900 C   0  0  0  0  0  0  0  0  0  0  0  0
   12.4360   -0.1600   23.1370 C   0  0  0  0  0  0  0  0  0  0  0  0
   10.5900    1.0430   24.2600 C   0  0  0  0  0  0  0  0  0  0  0  0
   11.9120    0.8640   24.1070 C   0  0  0  0  0  0  0  0  0  0  0  0
  1  2  2  0
  2  3  2  0
  2  4  1  0
  2  5  1  0
  4  6  2  0
  4  7  1  0
  5  8  1  0
  5  9  1  0
  6 10  1  0
  7 11  2  0
  8 12  1  0
  9 13  1  0
 10 14  1  0
 10 15  2  0
 11 15  1  0
 12 16  1  0
 13 16  1  0
 16 17  1  0
 16 18  1  0
 17 19  2  0
 17 20  1  0
 18 21  1  0
 22 21  1  6
 22 23  1  0
 22 24  1  0
 23 25  2  0
 23 26  1  0
 24 27  1  0
 24 28  2  0
 28 29  1  0
 27 30  2  0
 27 31  1  0
 26 32  1  0
 29 33  2  0
 30 33  1  0
 30 34  1  0
 31 35  2  0
 32 36  2  0
 32 37  1  0
 34 38  2  0
 35 38  1  0
 36 39  1  0
 37 40  2  0
 39 41  2  0
 40 41  1  0
M  END
