x2562-x1478
     RDKit          3D

 34 37  0  0  0  0  0  0  0  0999 V2000
    8.2960    0.3160   21.4640 C   0  0  0  0  0  0  0  0  0  0  0  0
    6.7730    0.1240   21.4430 C   0  0  2  0  0  0  0  0  0  0  0  0
    5.8590   -1.1920   20.9030 C   0  0  0  0  0  0  0  0  0  0  0  0
    8.6920    1.5890   20.9620 O   0  0  0  0  0  0  0  0  0  0  0  0
    9.2330   -0.6740   21.9950 N   0  0  0  0  0  0  0  0  0  0  0  0
    6.2640    0.5930   20.1460 C   0  0  0  0  0  0  0  0  0  0  0  0
   10.6040   -0.3240   22.3040 C   0  0  0  0  0  0  0  0  0  0  0  0
    6.3800   -2.5090   21.2280 N   0  0  0  0  0  0  0  0  0  0  0  0
    6.8260    0.2590   18.8760 C   0  0  0  0  0  0  0  0  0  0  0  0
    5.0270    1.5180   20.0730 C   0  0  0  0  0  0  0  0  0  0  0  0
   11.7150   -1.1730   22.2720 C   0  0  0  0  0  0  0  0  0  0  0  0
   10.7130    1.1600   22.6810 C   0  0  0  0  0  0  0  0  0  0  0  0
    6.4070   -3.3490   20.1780 C   0  0  0  0  0  0  0  0  0  0  0  0
    4.5500    1.9630   18.9150 N   0  0  0  0  0  0  0  0  0  0  0  0
    6.2280    0.7980   17.6690 N   0  0  0  0  0  0  0  0  0  0  0  0
   12.9620   -0.6720   22.5730 C   0  0  0  0  0  0  0  0  0  0  0  0
   11.9820    1.6390   22.9790 C   0  0  0  0  0  0  0  0  0  0  0  0
    5.8200   -2.9730   22.4670 C   0  0  0  0  0  0  0  0  0  0  0  0
   12.0940    2.9780   23.3200 O   0  0  0  0  0  0  0  0  0  0  0  0
    7.7190   -3.8810   19.8180 C   0  0  0  0  0  0  0  0  0  0  0  0
    5.4010   -3.6760   19.5330 O   0  0  0  0  0  0  0  0  0  0  0  0
    5.0990    1.6420   17.8110 C   0  0  0  0  0  0  0  0  0  0  0  0
   13.1340    0.6710   22.9100 C   0  0  0  0  0  0  0  0  0  0  0  0
    5.5500   -4.3730   23.1090 C   0  0  0  0  0  0  0  0  0  0  0  0
    5.3220   -1.8850   23.4910 C   0  0  0  0  0  0  0  0  0  0  0  0
    5.9820   -5.8020   22.2730 Cl  0  0  0  0  0  0  0  0  0  0  0  0
   12.7930    3.8870   22.4310 C   0  0  1  0  0  0  0  0  0  0  0  0
    5.0260   -4.8100   24.2320 N   0  0  0  0  0  0  0  0  0  0  0  0
    4.7970   -2.5100   24.6260 C   0  0  0  0  0  0  0  0  0  0  0  0
   12.0550    5.0230   22.1350 N   0  0  0  0  0  0  0  0  0  0  0  0
   13.8620    4.5710   22.8420 C   0  0  0  0  0  0  0  0  0  0  0  0
    4.6380   -3.8960   25.0120 C   0  0  0  0  0  0  0  0  0  0  0  0
   13.2400    5.7690   22.2210 C   0  0  2  0  0  0  0  0  0  0  0  0
   13.0690    6.9420   23.0110 O   0  0  0  0  0  0  0  0  0  0  0  0
  1  2  1  0
  2  3  1  6
  1  4  2  0
  1  5  1  0
  2  6  1  0
  5  7  1  0
  3  8  1  0
  6  9  2  0
  6 10  1  0
  7 11  2  0
  7 12  1  0
  8 13  1  0
 10 14  2  0
  9 15  1  0
 11 16  1  0
 12 17  2  0
  8 18  1  0
 17 19  1  0
 13 20  1  0
 13 21  2  0
 14 22  1  0
 15 22  2  0
 16 23  2  0
 17 23  1  0
 18 24  2  0
 18 25  1  0
 24 26  1  0
 27 19  1  1
 24 28  1  0
 25 29  2  0
 27 30  1  0
 27 31  1  0
 28 32  2  0
 29 32  1  0
 30 33  1  0
 31 33  1  0
 33 34  1  1
M  END
