x2562-x0759
     RDKit          3D

 31 34  0  0  0  0  0  0  0  0999 V2000
    8.4210    0.1480   21.4480 C   0  0  0  0  0  0  0  0  0  0  0  0
    7.0570   -0.4780   21.4750 C   0  0  1  0  0  0  0  0  0  0  0  0
    6.4510    0.0290   20.2060 C   0  0  0  0  0  0  0  0  0  0  0  0
    8.5360    1.5440   21.1380 O   0  0  0  0  0  0  0  0  0  0  0  0
    9.4690   -0.8100   21.7190 N   0  0  0  0  0  0  0  0  0  0  0  0
   10.7070   -0.3270   22.1640 C   0  0  0  0  0  0  0  0  0  0  0  0
    7.3370   -2.0120   21.6200 C   0  0  2  0  0  0  0  0  0  0  0  0
    6.9200   -0.0910   18.8610 C   0  0  0  0  0  0  0  0  0  0  0  0
    5.1410    0.8320   20.3490 C   0  0  0  0  0  0  0  0  0  0  0  0
   11.9170   -1.1610   22.1990 C   0  0  0  0  0  0  0  0  0  0  0  0
   10.7200    0.9870   22.5430 C   0  0  0  0  0  0  0  0  0  0  0  0
    6.4100   -2.9130   21.2470 N   0  0  0  0  0  0  0  0  0  0  0  0
    7.8750   -2.4440   23.0130 C   0  0  0  0  0  0  0  0  0  0  0  0
    6.2150   -3.4820   19.9780 C   0  0  0  0  0  0  0  0  0  0  0  0
    4.4820    1.3930   19.3360 N   0  0  0  0  0  0  0  0  0  0  0  0
    6.2050    0.5170   17.7720 N   0  0  0  0  0  0  0  0  0  0  0  0
   13.1210   -0.6600   22.5850 C   0  0  0  0  0  0  0  0  0  0  0  0
   12.0340    1.5120   22.9490 C   0  0  0  0  0  0  0  0  0  0  0  0
    8.1510   -3.8570   23.1100 O   0  0  0  0  0  0  0  0  0  0  0  0
    5.9480   -3.8270   22.3160 C   0  0  0  0  0  0  0  0  0  0  0  0
   12.0730    2.8220   23.3160 O   0  0  0  0  0  0  0  0  0  0  0  0
    5.3000   -4.2670   19.7660 O   0  0  0  0  0  0  0  0  0  0  0  0
    7.2400   -3.0840   18.9060 C   0  0  0  0  0  0  0  0  0  0  0  0
    5.0710    1.2150   18.0090 C   0  0  0  0  0  0  0  0  0  0  0  0
   13.1550    0.6950   22.9470 C   0  0  0  0  0  0  0  0  0  0  0  0
    6.9580   -4.6090   23.1310 C   0  0  0  0  0  0  0  0  0  0  0  0
   13.0010    3.7440   22.7160 C   0  0  1  0  0  0  0  0  0  0  0  0
   12.4970    4.5980   21.8170 N   0  0  0  0  0  0  0  0  0  0  0  0
   13.2650    4.9560   23.5540 C   0  0  0  0  0  0  0  0  0  0  0  0
   12.5640    5.7730   22.5370 C   0  0  1  0  0  0  0  0  0  0  0  0
   13.4500    6.7620   22.0850 O   0  0  0  0  0  0  0  0  0  0  0  0
  2  1  1  6
  2  3  1  0
  1  4  2  0
  1  5  1  0
  5  6  1  0
  2  7  1  0
  3  8  2  0
  3  9  1  0
  6 10  2  0
  6 11  1  0
  7 12  1  0
  7 13  1  1
 12 14  1  0
  9 15  2  0
  8 16  1  0
 10 17  1  0
 11 18  2  0
 13 19  1  0
 12 20  1  0
 18 21  1  0
 14 22  2  0
 14 23  1  0
 15 24  1  0
 16 24  2  0
 17 25  2  0
 18 25  1  0
 19 26  1  0
 20 26  1  0
 27 21  1  1
 27 28  1  0
 27 29  1  0
 28 30  1  0
 29 30  1  0
 30 31  1  6
M  END
