x2562-x1374
     RDKit          3D

 42 46  0  0  0  0  0  0  0  0999 V2000
   10.2900   -5.4170   25.0500 C   0  0  0  0  0  0  0  0  0  0  0  0
    8.9570   -4.9680   24.9650 C   0  0  0  0  0  0  0  0  0  0  0  0
    8.0690   -5.3560   25.8250 C   0  0  0  0  0  0  0  0  0  0  0  0
    8.7170   -4.0460   23.7990 C   0  0  0  0  0  0  0  0  0  0  0  0
    7.3210   -3.4810   23.5330 C   0  0  0  0  0  0  0  0  0  0  0  0
    6.9330   -4.8810   25.6070 C   0  0  0  0  0  0  0  0  0  0  0  0
    6.8510   -2.5980   22.4170 C   0  0  1  0  0  0  0  0  0  0  0  0
    6.6500   -4.0460   24.5700 C   0  0  0  0  0  0  0  0  0  0  0  0
    5.9740   -3.4990   21.8470 N   0  0  0  0  0  0  0  0  0  0  0  0
    6.2960   -1.2300   22.7590 C   0  0  0  0  0  0  0  0  0  0  0  0
    6.4140   -4.1460   20.7320 C   0  0  0  0  0  0  0  0  0  0  0  0
    6.7870    0.0170   21.9060 C   0  0  1  0  0  0  0  0  0  0  0  0
    4.8420   -4.2330   22.5080 C   0  0  2  0  0  0  0  0  0  0  0  0
    5.5820   -4.4970   19.9030 O   0  0  0  0  0  0  0  0  0  0  0  0
    7.9510   -4.3560   20.7060 C   0  0  0  0  0  0  0  0  0  0  0  0
    8.3170    0.1900   21.7260 C   0  0  0  0  0  0  0  0  0  0  0  0
    4.3540   -3.9160   23.7790 C   0  0  0  0  0  0  0  0  0  0  0  0
    5.1920   -5.7680   22.4660 C   0  0  0  0  0  0  0  0  0  0  0  0
    6.1990    0.3370   20.5630 C   0  0  0  0  0  0  0  0  0  0  0  0
    8.6770    1.2260   21.1310 O   0  0  0  0  0  0  0  0  0  0  0  0
    9.1950   -0.7310   22.2020 N   0  0  0  0  0  0  0  0  0  0  0  0
    3.9780   -6.5110   23.6520 S   0  0  0  0  0  0  0  0  0  0  0  0
    3.8420   -4.9050   24.5740 C   0  0  0  0  0  0  0  0  0  0  0  0
    6.6900    0.0550   19.1090 C   0  0  0  0  0  0  0  0  0  0  0  0
    4.9390    1.0910   20.1890 C   0  0  0  0  0  0  0  0  0  0  0  0
    2.7040   -6.7820   23.0220 O   0  0  0  0  0  0  0  0  0  0  0  0
    4.5190   -7.5110   24.5730 O   0  0  0  0  0  0  0  0  0  0  0  0
    4.3270    1.4800   18.9510 N   0  0  0  0  0  0  0  0  0  0  0  0
    6.1920    0.3770   17.9210 N   0  0  0  0  0  0  0  0  0  0  0  0
   10.5090   -0.3110   22.4110 C   0  0  0  0  0  0  0  0  0  0  0  0
    5.0560    1.0720   17.8680 C   0  0  0  0  0  0  0  0  0  0  0  0
   11.5660   -1.2050   22.2500 C   0  0  0  0  0  0  0  0  0  0  0  0
   10.7690    1.0140   22.7730 C   0  0  0  0  0  0  0  0  0  0  0  0
   12.9680   -0.7440   22.4550 C   0  0  0  0  0  0  0  0  0  0  0  0
   12.0170    1.5600   22.9910 C   0  0  0  0  0  0  0  0  0  0  0  0
   12.0000    2.9000   23.3410 O   0  0  0  0  0  0  0  0  0  0  0  0
   13.2410    0.6650   22.8290 C   0  0  0  0  0  0  0  0  0  0  0  0
   12.9740    3.7750   22.7490 C   0  0  1  0  0  0  0  0  0  0  0  0
   12.3340    4.8500   21.8850 N   0  0  0  0  0  0  0  0  0  0  0  0
   13.3720    4.8220   23.4160 C   0  0  0  0  0  0  0  0  0  0  0  0
   13.4240    5.7420   22.3100 C   0  0  2  0  0  0  0  0  0  0  0  0
   13.1300    7.0810   22.6490 O   0  0  0  0  0  0  0  0  0  0  0  0
  1  2  1  0
  2  3  2  0
  2  4  1  0
  4  5  2  0
  3  6  1  0
  5  7  1  0
  5  8  1  0
  6  8  2  0
  7  9  1  0
  7 10  1  1
  9 11  1  0
 12 10  1  6
 13  9  1  1
 11 14  2  0
 11 15  1  0
 12 16  1  0
 13 17  1  0
 13 18  1  0
 12 19  1  0
 16 20  2  0
 16 21  1  0
 18 22  1  0
 17 23  2  0
 22 23  1  0
 19 24  2  0
 19 25  1  0
 22 26  1  0
 22 27  1  0
 25 28  2  0
 24 29  1  0
 21 30  1  0
 28 31  1  0
 29 31  2  0
 30 32  2  0
 30 33  1  0
 32 34  1  0
 33 35  2  0
 35 36  1  0
 34 37  2  0
 35 37  1  0
 38 36  1  1
 38 39  1  0
 38 40  1  0
 39 41  1  0
 40 41  1  0
 41 42  1  1
M  END
