x2562-x1375
     RDKit          3D

 42 46  0  0  0  0  0  0  0  0999 V2000
    5.7430   -5.0740   20.0770 O   0  0  0  0  0  0  0  0  0  0  0  0
    6.4850   -4.2500   20.6560 C   0  0  0  0  0  0  0  0  0  0  0  0
    7.4960   -3.4070   19.8470 C   0  0  0  0  0  0  0  0  0  0  0  0
    6.2940   -3.9880   22.2130 C   0  0  2  0  0  0  0  0  0  0  0  0
    6.5850   -2.5220   22.5310 C   0  0  0  0  0  0  0  0  0  0  0  0
    7.3550   -4.4590   23.1860 C   0  0  0  0  0  0  0  0  0  0  0  0
    4.9810   -4.5700   22.7890 C   0  0  2  0  0  0  0  0  0  0  0  0
    6.0860   -1.4120   21.6590 C   0  0  0  0  0  0  0  0  0  0  0  0
    7.6000   -3.6910   24.2820 C   0  0  0  0  0  0  0  0  0  0  0  0
    8.0550   -5.5430   23.0870 C   0  0  0  0  0  0  0  0  0  0  0  0
    4.6200   -4.1290   24.0830 C   0  0  0  0  0  0  0  0  0  0  0  0
    5.0000   -6.1230   22.6770 C   0  0  0  0  0  0  0  0  0  0  0  0
    7.1970   -0.7520   20.7960 C   0  0  2  0  0  0  0  0  0  0  0  0
    8.5980   -4.0500   25.3300 C   0  0  0  0  0  0  0  0  0  0  0  0
    8.9890   -5.9490   24.0050 C   0  0  0  0  0  0  0  0  0  0  0  0
    3.8740   -6.6980   24.0060 S   0  0  0  0  0  0  0  0  0  0  0  0
    4.0340   -5.0700   24.8610 C   0  0  0  0  0  0  0  0  0  0  0  0
    2.5100   -6.8380   23.5520 O   0  0  0  0  0  0  0  0  0  0  0  0
    4.4410   -7.7090   24.8720 O   0  0  0  0  0  0  0  0  0  0  0  0
    8.1820    0.0690   21.6580 C   0  0  0  0  0  0  0  0  0  0  0  0
    9.4720   -5.3060   25.3420 C   0  0  0  0  0  0  0  0  0  0  0  0
    6.4640    0.0770   19.8420 C   0  0  0  0  0  0  0  0  0  0  0  0
   10.3350   -5.6940   26.2100 F   0  0  0  0  0  0  0  0  0  0  0  0
    8.0670    1.2850   21.7720 O   0  0  0  0  0  0  0  0  0  0  0  0
    9.1700   -0.7130   22.1960 N   0  0  0  0  0  0  0  0  0  0  0  0
    6.6750    0.3180   18.3850 C   0  0  0  0  0  0  0  0  0  0  0  0
    5.2440    0.9860   19.9450 C   0  0  0  0  0  0  0  0  0  0  0  0
    4.5480    1.7620   19.1080 N   0  0  0  0  0  0  0  0  0  0  0  0
    6.0930    1.0280   17.4460 N   0  0  0  0  0  0  0  0  0  0  0  0
   10.5020   -0.3110   22.3940 C   0  0  0  0  0  0  0  0  0  0  0  0
    5.0030    1.7610   17.8780 C   0  0  0  0  0  0  0  0  0  0  0  0
   11.5990   -1.1720   22.2680 C   0  0  0  0  0  0  0  0  0  0  0  0
   10.7150    1.0360   22.7340 C   0  0  0  0  0  0  0  0  0  0  0  0
   12.9800   -0.6440   22.4900 C   0  0  0  0  0  0  0  0  0  0  0  0
   11.9400    1.6380   22.9610 C   0  0  0  0  0  0  0  0  0  0  0  0
   11.9130    2.9930   23.2850 O   0  0  0  0  0  0  0  0  0  0  0  0
   13.1980    0.7860   22.8410 C   0  0  0  0  0  0  0  0  0  0  0  0
   12.9160    3.8550   22.6990 C   0  0  1  0  0  0  0  0  0  0  0  0
   12.3750    4.6660   21.6970 N   0  0  0  0  0  0  0  0  0  0  0  0
   13.4600    4.7740   23.4640 C   0  0  0  0  0  0  0  0  0  0  0  0
   13.3670    5.6030   22.2970 C   0  0  2  0  0  0  0  0  0  0  0  0
   12.9570    6.9150   22.5960 O   0  0  0  0  0  0  0  0  0  0  0  0
  1  2  2  0
  2  3  1  0
  4  2  1  0
  4  5  1  6
  4  6  1  0
  4  7  1  0
  5  8  1  0
  6  9  2  0
  6 10  1  0
  7 11  1  1
  7 12  1  0
 13  8  1  1
  9 14  1  0
 10 15  2  0
 12 16  1  0
 11 17  2  0
 16 17  1  0
 16 18  1  0
 16 19  1  0
 13 20  1  0
 14 21  2  0
 15 21  1  0
 13 22  1  0
 21 23  1  0
 20 24  2  0
 20 25  1  0
 22 26  2  0
 22 27  1  0
 27 28  2  0
 26 29  1  0
 25 30  1  0
 28 31  1  0
 29 31  2  0
 30 32  2  0
 30 33  1  0
 32 34  1  0
 33 35  2  0
 35 36  1  0
 34 37  2  0
 35 37  1  0
 38 36  1  1
 38 39  1  0
 38 40  1  0
 39 41  1  0
 40 41  1  0
 41 42  1  1
M  END
