x2563-x1358
     RDKit          3D

 40 44  0  0  0  0  0  0  0  0999 V2000
    7.1170   -2.5420   25.9380 N   0  0  0  0  0  0  0  0  0  0  0  0
    6.1240   -3.1560   25.2230 C   0  0  0  0  0  0  0  0  0  0  0  0
    4.9150   -3.1200   25.4380 O   0  0  0  0  0  0  0  0  0  0  0  0
    6.8770   -1.4940   26.8730 C   0  0  0  0  0  0  0  0  0  0  0  0
    6.0230   -0.4070   26.5850 C   0  0  0  0  0  0  0  0  0  0  0  0
    7.5190   -1.5510   28.1180 C   0  0  0  0  0  0  0  0  0  0  0  0
    6.7280   -3.9520   24.0560 C   0  0  2  0  0  0  0  0  0  0  0  0
    5.4220   -0.4040   25.3490 O   0  0  0  0  0  0  0  0  0  0  0  0
    7.3200   -0.5490   29.0660 C   0  0  0  0  0  0  0  0  0  0  0  0
    5.8310    0.5950   27.5450 C   0  0  0  0  0  0  0  0  0  0  0  0
    7.5000   -3.0860   23.2760 C   0  0  0  0  0  0  0  0  0  0  0  0
    5.6860   -4.8610   23.3950 C   0  0  0  0  0  0  0  0  0  0  0  0
    6.4750    0.5260   28.7800 C   0  0  0  0  0  0  0  0  0  0  0  0
    7.2670   -3.0380   21.8950 C   0  0  2  0  0  0  0  0  0  0  0  0
    6.3400   -5.3170   22.1280 C   0  0  0  0  0  0  0  0  0  0  0  0
    6.3670   -1.8080   21.6230 C   0  0  0  0  0  0  0  0  0  0  0  0
    6.7330   -4.1180   21.3410 N   0  0  0  0  0  0  0  0  0  0  0  0
    6.2660   -3.9020   20.0610 C   0  0  0  0  0  0  0  0  0  0  0  0
    7.0190   -0.5410   21.1070 C   0  0  1  0  0  0  0  0  0  0  0  0
    5.1580   -4.2920   19.7340 O   0  0  0  0  0  0  0  0  0  0  0  0
    7.1890   -3.1990   19.0680 C   0  0  0  0  0  0  0  0  0  0  0  0
    8.2990   -0.2370   21.2760 C   0  0  0  0  0  0  0  0  0  0  0  0
    6.4440    0.0260   20.0680 C   0  0  0  0  0  0  0  0  0  0  0  0
    8.6490    0.9190   21.0300 O   0  0  0  0  0  0  0  0  0  0  0  0
    9.0190   -1.0160   21.6930 N   0  0  0  0  0  0  0  0  0  0  0  0
    5.2320    0.7750   20.4160 C   0  0  0  0  0  0  0  0  0  0  0  0
    6.9770   -0.0700   18.6920 C   0  0  0  0  0  0  0  0  0  0  0  0
    6.3910    0.5410   17.6410 N   0  0  0  0  0  0  0  0  0  0  0  0
    4.5330    1.4740   19.3030 C   0  0  0  0  0  0  0  0  0  0  0  0
    4.6740    0.8970   21.6960 C   0  0  0  0  0  0  0  0  0  0  0  0
    9.9720   -0.5530   22.5670 C   0  0  0  0  0  0  0  0  0  0  0  0
    5.1650    1.3200   17.9510 C   0  0  0  0  0  0  0  0  0  0  0  0
    3.3680    2.2290   19.4830 C   0  0  0  0  0  0  0  0  0  0  0  0
    3.3770    1.7370   21.9180 C   0  0  0  0  0  0  0  0  0  0  0  0
   11.2870   -0.7990   22.2460 C   0  0  0  0  0  0  0  0  0  0  0  0
    9.6250    0.1490   23.7110 C   0  0  0  0  0  0  0  0  0  0  0  0
    2.8030    2.3710   20.6880 C   0  0  0  0  0  0  0  0  0  0  0  0
   12.3750   -0.2780   23.1410 C   0  0  0  0  0  0  0  0  0  0  0  0
   10.5410    0.6210   24.5320 C   0  0  0  0  0  0  0  0  0  0  0  0
   11.8740    0.4720   24.3420 C   0  0  0  0  0  0  0  0  0  0  0  0
  1  2  1  0
  2  3  2  0
  1  4  1  0
  4  5  2  0
  4  6  1  0
  7  2  1  1
  5  8  1  0
  6  9  2  0
  5 10  1  0
  7 11  1  0
  7 12  1  0
  9 13  1  0
 10 13  2  0
 11 14  1  0
 12 15  1  0
 14 16  1  1
 14 17  1  0
 15 17  1  0
 17 18  1  0
 19 16  1  6
 18 20  2  0
 18 21  1  0
 19 22  1  0
 19 23  1  0
 22 24  2  0
 22 25  1  0
 23 26  1  0
 23 27  2  0
 27 28  1  0
 26 29  2  0
 26 30  1  0
 25 31  1  0
 28 32  2  0
 29 32  1  0
 29 33  1  0
 30 34  2  0
 31 35  2  0
 31 36  1  0
 33 37  2  0
 34 37  1  0
 35 38  1  0
 36 39  2  0
 38 40  2  0
 39 40  1  0
M  END
