x2562-x0981
     RDKit          3D

 40 42  0  0  0  0  0  0  0  0999 V2000
    1.2740   -8.6470   21.4700 C   0  0  0  0  0  0  0  0  0  0  0  0
    1.4540   -7.3440   22.2110 C   0  0  0  0  0  0  0  0  0  0  0  0
    2.7110   -7.0850   22.7410 N   0  0  0  0  0  0  0  0  0  0  0  0
    0.5300   -6.5450   22.3110 O   0  0  0  0  0  0  0  0  0  0  0  0
    2.9190   -5.9280   23.5130 C   0  0  1  0  0  0  0  0  0  0  0  0
    2.6620   -6.2340   24.9880 C   0  0  0  0  0  0  0  0  0  0  0  0
    4.3330   -5.2890   23.3430 C   0  0  0  0  0  0  0  0  0  0  0  0
    5.2520   -5.8530   22.3520 N   0  0  0  0  0  0  0  0  0  0  0  0
    4.6550   -4.3300   24.0300 O   0  0  0  0  0  0  0  0  0  0  0  0
    3.0920   -7.7030   25.2740 C   0  0  0  0  0  0  0  0  0  0  0  0
    2.4200   -8.3490   26.3050 N   0  0  0  0  0  0  0  0  0  0  0  0
    3.9740   -8.2010   24.6080 O   0  0  0  0  0  0  0  0  0  0  0  0
    6.4920   -5.1580   21.8780 C   0  0  1  0  0  0  0  0  0  0  0  0
    6.4910   -5.1700   20.3350 C   0  0  0  0  0  0  0  0  0  0  0  0
    6.7420   -3.9250   22.5140 C   0  0  0  0  0  0  0  0  0  0  0  0
    5.6510   -6.2830   19.7950 C   0  0  0  0  0  0  0  0  0  0  0  0
    6.0130   -2.8190   22.0260 C   0  0  0  0  0  0  0  0  0  0  0  0
    6.9240   -1.9080   21.1680 C   0  0  0  0  0  0  0  0  0  0  0  0
    6.9260   -0.4060   21.4340 C   0  0  1  0  0  0  0  0  0  0  0  0
    8.2370    0.0840   21.3740 C   0  0  0  0  0  0  0  0  0  0  0  0
    6.2170    0.2810   20.1970 C   0  0  0  0  0  0  0  0  0  0  0  0
    8.3640    1.4170   21.0160 O   0  0  0  0  0  0  0  0  0  0  0  0
    9.3940   -0.7930   21.6640 N   0  0  0  0  0  0  0  0  0  0  0  0
    6.7550    0.1350   18.9140 C   0  0  0  0  0  0  0  0  0  0  0  0
    5.0790    1.0340   20.3040 C   0  0  0  0  0  0  0  0  0  0  0  0
    4.4810    1.6460   19.1360 N   0  0  0  0  0  0  0  0  0  0  0  0
    6.2750    0.6670   17.7590 N   0  0  0  0  0  0  0  0  0  0  0  0
   10.5450   -0.3060   22.1230 C   0  0  0  0  0  0  0  0  0  0  0  0
    5.1710    1.3990   17.9040 C   0  0  0  0  0  0  0  0  0  0  0  0
   11.6820   -1.1410   22.1860 C   0  0  0  0  0  0  0  0  0  0  0  0
   10.5680    1.0460   22.5010 C   0  0  0  0  0  0  0  0  0  0  0  0
   12.9000   -0.6620   22.6050 C   0  0  0  0  0  0  0  0  0  0  0  0
   11.8700    1.5910   22.9480 C   0  0  0  0  0  0  0  0  0  0  0  0
   11.9780    2.9150   23.3200 O   0  0  0  0  0  0  0  0  0  0  0  0
   13.0360    0.6570   22.9720 C   0  0  0  0  0  0  0  0  0  0  0  0
   13.0160    3.7360   22.7380 C   0  0  1  0  0  0  0  0  0  0  0  0
   12.5920    4.7220   21.6980 N   0  0  0  0  0  0  0  0  0  0  0  0
   13.3420    4.8770   23.4040 C   0  0  0  0  0  0  0  0  0  0  0  0
   12.6680    5.7570   22.6410 C   0  0  1  0  0  0  0  0  0  0  0  0
   13.4600    6.8650   22.2700 O   0  0  0  0  0  0  0  0  0  0  0  0
  1  2  1  0
  2  3  1  0
  2  4  2  0
  3  5  1  0
  5  6  1  1
  5  7  1  0
  7  8  1  0
  7  9  2  0
  6 10  1  0
 10 11  1  0
 10 12  2  0
  8 13  1  0
 13 14  1  6
 13 15  1  0
 14 16  2  3
 15 17  1  0
 17 18  1  0
 19 18  1  6
 19 20  1  0
 19 21  1  0
 20 22  2  0
 20 23  1  0
 21 24  2  0
 21 25  1  0
 25 26  2  0
 24 27  1  0
 23 28  1  0
 26 29  1  0
 27 29  2  0
 28 30  2  0
 28 31  1  0
 30 32  1  0
 31 33  2  0
 33 34  1  0
 32 35  2  0
 33 35  1  0
 36 34  1  1
 36 37  1  0
 36 38  1  0
 37 39  1  0
 38 39  1  0
 39 40  1  6
M  END
