x2562-x2097
     RDKit          3D

 30 33  0  0  0  0  0  0  0  0999 V2000
    8.3960    0.0540   21.3500 C   0  0  0  0  0  0  0  0  0  0  0  0
    7.0610   -0.5810   21.2500 C   0  0  1  0  0  0  0  0  0  0  0  0
    6.3570    0.0390   20.0600 C   0  0  0  0  0  0  0  0  0  0  0  0
    8.5380    1.2780   21.1290 O   0  0  0  0  0  0  0  0  0  0  0  0
    9.4080   -0.8110   21.6560 N   0  0  0  0  0  0  0  0  0  0  0  0
   10.6340   -0.3410   22.1300 C   0  0  0  0  0  0  0  0  0  0  0  0
    7.1470   -2.0640   21.3980 N   0  0  0  0  0  0  0  0  0  0  0  0
    6.8260   -0.0990   18.7620 C   0  0  0  0  0  0  0  0  0  0  0  0
    5.0840    0.8850   20.2830 C   0  0  0  0  0  0  0  0  0  0  0  0
   11.7580   -1.1460   22.1680 C   0  0  0  0  0  0  0  0  0  0  0  0
   10.7850    0.9710   22.5580 C   0  0  0  0  0  0  0  0  0  0  0  0
    6.1310   -2.9670   20.8240 C   0  0  1  0  0  0  0  0  0  0  0  0
    7.4050   -2.4940   22.6430 C   0  0  0  0  0  0  0  0  0  0  0  0
    6.6570   -4.2100   20.2500 C   0  0  0  0  0  0  0  0  0  0  0  0
    4.4420    1.4860   19.2820 N   0  0  0  0  0  0  0  0  0  0  0  0
    6.2370    0.4780   17.7050 N   0  0  0  0  0  0  0  0  0  0  0  0
   12.9630   -0.6360   22.5870 C   0  0  0  0  0  0  0  0  0  0  0  0
   11.9700    1.5230   22.9800 C   0  0  0  0  0  0  0  0  0  0  0  0
    6.3510   -2.7470   23.5170 C   0  0  0  0  0  0  0  0  0  0  0  0
    5.0500   -3.3620   21.7740 N   0  0  0  0  0  0  0  0  0  0  0  0
   12.1010    2.8380   23.3880 O   0  0  0  0  0  0  0  0  0  0  0  0
    5.8400   -5.1980   20.0480 N   0  0  0  0  0  0  0  0  0  0  0  0
    5.0690    1.2580   17.9970 C   0  0  0  0  0  0  0  0  0  0  0  0
   13.1030    0.7020   22.9880 C   0  0  0  0  0  0  0  0  0  0  0  0
    5.1040   -2.5500   22.9790 C   0  0  0  0  0  0  0  0  0  0  0  0
   13.0080    3.7130   22.7010 C   0  0  1  0  0  0  0  0  0  0  0  0
   12.3750    4.6930   21.9390 N   0  0  0  0  0  0  0  0  0  0  0  0
   13.5110    4.7980   23.3370 C   0  0  0  0  0  0  0  0  0  0  0  0
   13.4730    5.6240   22.2590 C   0  0  2  0  0  0  0  0  0  0  0  0
   13.1290    6.9550   22.5970 O   0  0  0  0  0  0  0  0  0  0  0  0
  2  1  1  6
  2  3  1  0
  1  4  2  0
  1  5  1  0
  5  6  1  0
  2  7  1  0
  3  8  2  0
  3  9  1  0
  6 10  2  0
  6 11  1  0
  7 12  1  0
  7 13  1  0
 12 14  1  1
  9 15  2  0
  8 16  1  0
 10 17  1  0
 11 18  2  0
 13 19  2  0
 12 20  1  0
 18 21  1  0
 14 22  2  3
 15 23  1  0
 16 23  2  0
 17 24  2  0
 18 24  1  0
 19 25  1  0
 20 25  1  0
 26 21  1  1
 26 27  1  0
 26 28  1  0
 27 29  1  0
 28 29  1  0
 29 30  1  1
M  END
