x2563-x2052
     RDKit          3D

 40 44  0  0  0  0  0  0  0  0999 V2000
    6.0190   -1.8500   25.2650 C   0  0  0  0  0  0  0  0  0  0  0  0
    6.8180   -1.1340   26.1820 N   0  0  0  0  0  0  0  0  0  0  0  0
    6.3720   -0.3960   27.2990 C   0  0  0  0  0  0  0  0  0  0  0  0
    4.5980   -1.8880   25.3340 O   0  0  0  0  0  0  0  0  0  0  0  0
    6.7800   -2.5560   24.1740 C   0  0  2  0  0  0  0  0  0  0  0  0
    6.6760   -1.5360   23.0610 C   0  0  0  0  0  0  0  0  0  0  0  0
    6.2620   -3.7950   23.7930 C   0  0  0  0  0  0  0  0  0  0  0  0
    7.2610   -1.8740   21.8250 C   0  0  2  0  0  0  0  0  0  0  0  0
    6.2730   -4.0930   22.4290 C   0  0  0  0  0  0  0  0  0  0  0  0
    6.6150    1.0010   27.3210 C   0  0  0  0  0  0  0  0  0  0  0  0
    5.7150   -0.9340   28.3820 C   0  0  0  0  0  0  0  0  0  0  0  0
    7.3250   -0.6040   21.1590 C   0  0  1  0  0  0  0  0  0  0  0  0
    6.3480   -2.9850   21.4460 N   0  0  0  0  0  0  0  0  0  0  0  0
    6.2700    1.9110   28.3230 N   0  0  0  0  0  0  0  0  0  0  0  0
    5.3100   -0.0260   29.4980 C   0  0  0  0  0  0  0  0  0  0  0  0
    6.2650   -3.4620   20.1310 C   0  0  0  0  0  0  0  0  0  0  0  0
    8.6180    0.1350   21.2420 C   0  0  0  0  0  0  0  0  0  0  0  0
    5.6230    1.4610   29.4300 C   0  0  0  0  0  0  0  0  0  0  0  0
    6.5260   -0.0280   20.0170 C   0  0  0  0  0  0  0  0  0  0  0  0
    5.3890   -4.2870   19.8290 O   0  0  0  0  0  0  0  0  0  0  0  0
    5.2710    2.3020   30.4330 O   0  0  0  0  0  0  0  0  0  0  0  0
    7.2670   -3.0440   19.0700 C   0  0  0  0  0  0  0  0  0  0  0  0
    8.6970    1.3640   21.0330 O   0  0  0  0  0  0  0  0  0  0  0  0
    9.6000   -0.7300   21.5700 N   0  0  0  0  0  0  0  0  0  0  0  0
    5.2850    0.7020   20.3410 C   0  0  0  0  0  0  0  0  0  0  0  0
    6.8990   -0.1070   18.7360 C   0  0  0  0  0  0  0  0  0  0  0  0
    6.2100    3.3530   30.6400 C   0  0  0  0  0  0  0  0  0  0  0  0
    6.2180    0.4500   17.7010 N   0  0  0  0  0  0  0  0  0  0  0  0
    4.5740    1.3000   19.1730 C   0  0  0  0  0  0  0  0  0  0  0  0
    4.7510    0.8720   21.6460 C   0  0  0  0  0  0  0  0  0  0  0  0
   10.4430   -0.6010   22.6610 C   0  0  0  0  0  0  0  0  0  0  0  0
    5.1180    1.1150   17.9710 C   0  0  0  0  0  0  0  0  0  0  0  0
    3.3950    2.0270   19.3530 C   0  0  0  0  0  0  0  0  0  0  0  0
    3.4960    1.6450   21.8190 C   0  0  0  0  0  0  0  0  0  0  0  0
   11.8070   -0.7900   22.5460 C   0  0  0  0  0  0  0  0  0  0  0  0
    9.8690   -0.2820   23.8490 C   0  0  0  0  0  0  0  0  0  0  0  0
    2.8900    2.1900   20.5730 C   0  0  0  0  0  0  0  0  0  0  0  0
   12.7120   -0.6510   23.7310 C   0  0  0  0  0  0  0  0  0  0  0  0
   10.5610   -0.1340   24.9910 C   0  0  0  0  0  0  0  0  0  0  0  0
   12.0580   -0.3100   25.0350 C   0  0  0  0  0  0  0  0  0  0  0  0
  1  2  1  0
  2  3  1  0
  1  4  2  0
  5  1  1  1
  5  6  1  0
  5  7  1  0
  8  6  1  1
  7  9  1  0
  3 10  2  0
  3 11  1  0
  8 12  1  0
  8 13  1  0
  9 13  1  0
 10 14  1  0
 11 15  2  0
 13 16  1  0
 12 17  1  6
 14 18  2  0
 15 18  1  0
 12 19  1  0
 16 20  2  0
 18 21  1  0
 16 22  1  0
 17 23  2  0
 17 24  1  0
 19 25  1  0
 19 26  2  0
 21 27  1  0
 26 28  1  0
 25 29  2  0
 25 30  1  0
 24 31  1  0
 28 32  2  0
 29 32  1  0
 29 33  1  0
 30 34  2  0
 31 35  2  0
 31 36  1  0
 33 37  2  0
 34 37  1  0
 35 38  1  0
 36 39  2  0
 38 40  2  0
 39 40  1  0
M  END
