x2563-x1351
     RDKit          3D

 39 43  0  0  0  0  0  0  0  0999 V2000
    6.9570   -3.3280   19.2840 C   0  0  0  0  0  0  0  0  0  0  0  0
    6.1600   -4.1420   20.3090 C   0  0  0  0  0  0  0  0  0  0  0  0
    5.2640   -4.8760   19.9460 O   0  0  0  0  0  0  0  0  0  0  0  0
    6.5190   -4.0300   21.6530 N   0  0  0  0  0  0  0  0  0  0  0  0
    7.1760   -2.8280   22.1340 C   0  0  1  0  0  0  0  0  0  0  0  0
    6.2800   -5.0380   22.5160 C   0  0  0  0  0  0  0  0  0  0  0  0
    6.3400   -1.7960   21.6280 C   0  0  0  0  0  0  0  0  0  0  0  0
    7.2190   -2.8210   23.4640 C   0  0  0  0  0  0  0  0  0  0  0  0
    5.5420   -4.4560   23.5700 C   0  0  0  0  0  0  0  0  0  0  0  0
    7.0400   -0.5600   21.0990 C   0  0  1  0  0  0  0  0  0  0  0  0
    5.9670   -3.2170   23.9690 C   0  0  1  0  0  0  0  0  0  0  0  0
    6.0390   -3.2300   25.4280 N   0  0  0  0  0  0  0  0  0  0  0  0
    8.3220   -0.2520   21.2510 C   0  0  0  0  0  0  0  0  0  0  0  0
    6.4590    0.0100   20.0660 C   0  0  0  0  0  0  0  0  0  0  0  0
    7.0060   -2.4600   26.1930 C   0  0  0  0  0  0  0  0  0  0  0  0
    8.6410    0.9160   21.0180 O   0  0  0  0  0  0  0  0  0  0  0  0
    9.0680   -1.0190   21.6370 N   0  0  0  0  0  0  0  0  0  0  0  0
    5.2410    0.7540   20.4190 C   0  0  0  0  0  0  0  0  0  0  0  0
    6.9910   -0.0800   18.6890 C   0  0  0  0  0  0  0  0  0  0  0  0
    8.1580   -2.8370   26.3610 O   0  0  0  0  0  0  0  0  0  0  0  0
    6.5510   -1.1720   26.8190 C   0  0  0  0  0  0  0  0  0  0  0  0
    6.4010    0.5320   17.6410 N   0  0  0  0  0  0  0  0  0  0  0  0
    4.5360    1.4510   19.3080 C   0  0  0  0  0  0  0  0  0  0  0  0
    4.6800    0.8750   21.6960 C   0  0  0  0  0  0  0  0  0  0  0  0
   10.0000   -0.5170   22.5100 C   0  0  0  0  0  0  0  0  0  0  0  0
    7.1010   -0.7350   28.0710 C   0  0  0  0  0  0  0  0  0  0  0  0
    5.5030   -0.2620   26.1900 C   0  0  0  0  0  0  0  0  0  0  0  0
    5.1690    1.3020   17.9560 C   0  0  0  0  0  0  0  0  0  0  0  0
    3.3640    2.2000   19.4870 C   0  0  0  0  0  0  0  0  0  0  0  0
    3.3780    1.7080   21.9180 C   0  0  0  0  0  0  0  0  0  0  0  0
   11.3240   -0.7840   22.2380 C   0  0  0  0  0  0  0  0  0  0  0  0
    9.6290    0.2510   23.6060 C   0  0  0  0  0  0  0  0  0  0  0  0
    6.7130    0.4250   28.6710 C   0  0  0  0  0  0  0  0  0  0  0  0
    5.1350    1.0070   26.9260 C   0  0  0  0  0  0  0  0  0  0  0  0
    2.7980    2.3390   20.6930 C   0  0  0  0  0  0  0  0  0  0  0  0
   12.3880   -0.2090   23.1280 C   0  0  0  0  0  0  0  0  0  0  0  0
   10.5260    0.7700   24.4240 C   0  0  0  0  0  0  0  0  0  0  0  0
    5.7590    1.2860   28.1310 C   0  0  0  0  0  0  0  0  0  0  0  0
   11.8600    0.6090   24.2680 C   0  0  0  0  0  0  0  0  0  0  0  0
  1  2  1  0
  2  3  2  0
  2  4  1  0
  4  5  1  0
  4  6  1  0
  5  7  1  1
  5  8  1  0
  6  9  1  0
 10  7  1  6
  8 11  1  0
  9 11  1  0
 11 12  1  1
 10 13  1  0
 10 14  1  0
 12 15  1  0
 13 16  2  0
 13 17  1  0
 14 18  1  0
 14 19  2  0
 15 20  2  0
 15 21  1  0
 19 22  1  0
 18 23  2  0
 18 24  1  0
 17 25  1  0
 21 26  2  0
 21 27  1  0
 22 28  2  0
 23 28  1  0
 23 29  1  0
 24 30  2  0
 25 31  2  0
 25 32  1  0
 26 33  1  0
 27 34  2  0
 29 35  2  0
 30 35  1  0
 31 36  1  0
 32 37  2  0
 33 38  2  0
 34 38  1  0
 36 39  2  0
 37 39  1  0
M  END
