x2569-x1380
     RDKit          3D

 36 39  0  0  0  0  0  0  0  0999 V2000
    8.1790    0.0820   21.8430 C   0  0  0  0  0  0  0  0  0  0  0  0
    8.7270   -0.5370   23.1340 C   0  0  1  0  0  0  0  0  0  0  0  0
    8.4330   -1.9990   23.6010 C   0  0  0  0  0  0  0  0  0  0  0  0
    8.9290    1.1910   21.2680 O   0  0  0  0  0  0  0  0  0  0  0  0
    6.9960   -0.3900   21.3130 N   0  0  0  0  0  0  0  0  0  0  0  0
   10.2010   -0.2960   23.0970 C   0  0  0  0  0  0  0  0  0  0  0  0
    6.4130    0.1460   20.2270 C   0  0  0  0  0  0  0  0  0  0  0  0
   10.9900   -1.1350   22.3740 C   0  0  0  0  0  0  0  0  0  0  0  0
   10.8940    0.8430   23.8210 C   0  0  0  0  0  0  0  0  0  0  0  0
    6.9500    0.0050   18.9470 C   0  0  0  0  0  0  0  0  0  0  0  0
    5.1270    0.9480   20.3400 C   0  0  0  0  0  0  0  0  0  0  0  0
    7.1140   -2.7210   23.2560 C   0  0  2  0  0  0  0  0  0  0  0  0
   12.3190    1.0900   23.7830 N   0  0  0  0  0  0  0  0  0  0  0  0
   12.3610   -0.9760   22.2890 C   0  0  0  0  0  0  0  0  0  0  0  0
    6.4410    0.5270   17.8180 N   0  0  0  0  0  0  0  0  0  0  0  0
    4.6030    1.4840   19.1440 C   0  0  0  0  0  0  0  0  0  0  0  0
    6.7020   -3.7180   24.1810 C   0  0  1  0  0  0  0  0  0  0  0  0
    7.4120   -3.1950   22.0050 C   0  0  0  0  0  0  0  0  0  0  0  0
   12.9840   -2.0870   21.4050 C   0  0  0  0  0  0  0  0  0  0  0  0
    5.8590   -3.3020   25.4320 C   0  0  0  0  0  0  0  0  0  0  0  0
   13.0800    0.1560   22.9910 C   0  0  0  0  0  0  0  0  0  0  0  0
    5.2110    1.3090   17.9000 C   0  0  0  0  0  0  0  0  0  0  0  0
    6.6610   -4.1870   21.5170 N   0  0  0  0  0  0  0  0  0  0  0  0
    6.0210   -4.8270   23.6650 C   0  0  0  0  0  0  0  0  0  0  0  0
   13.4150   -2.9380   20.7750 N   0  0  0  0  0  0  0  0  0  0  0  0
    6.2040   -4.0610   20.2130 C   0  0  0  0  0  0  0  0  0  0  0  0
    4.7050   -2.9140   25.2520 O   0  0  0  0  0  0  0  0  0  0  0  0
    6.3130   -5.1710   22.3570 C   0  0  0  0  0  0  0  0  0  0  0  0
    6.4070   -3.3620   26.7960 N   0  0  0  0  0  0  0  0  0  0  0  0
    7.0560   -3.2670   19.2160 C   0  0  0  0  0  0  0  0  0  0  0  0
    5.1720   -4.6090   19.8770 O   0  0  0  0  0  0  0  0  0  0  0  0
    7.8200   -3.7930   26.9470 C   0  0  0  0  0  0  0  0  0  0  0  0
    5.6920   -3.6870   27.8840 C   0  0  0  0  0  0  0  0  0  0  0  0
    7.9470   -5.2560   27.4380 C   0  0  0  0  0  0  0  0  0  0  0  0
    5.8650   -4.9800   28.4250 C   0  0  0  0  0  0  0  0  0  0  0  0
    7.1980   -5.3730   28.5940 C   0  0  0  0  0  0  0  0  0  0  0  0
  1  2  1  0
  2  3  1  6
  1  4  2  0
  1  5  1  0
  2  6  1  0
  5  7  1  0
  6  8  2  0
  6  9  1  0
  7 10  2  0
  7 11  1  0
 12  3  1  1
  9 13  2  0
  8 14  1  0
 10 15  1  0
 11 16  2  0
 12 17  1  0
 12 18  1  0
 14 19  1  0
 17 20  1  1
 13 21  1  0
 14 21  2  0
 15 22  2  0
 16 22  1  0
 18 23  1  0
 17 24  1  0
 19 25  3  0
 23 26  1  0
 20 27  2  0
 23 28  1  0
 24 28  1  0
 20 29  1  0
 26 30  1  0
 26 31  2  0
 29 32  1  0
 29 33  1  0
 32 34  1  0
 33 35  1  0
 34 36  1  0
 35 36  1  0
M  END
