x2562-x0786
     RDKit          3D

 42 46  0  0  0  0  0  0  0  0999 V2000
    8.2630    0.1430   21.5590 C   0  0  0  0  0  0  0  0  0  0  0  0
    6.7560   -0.0720   21.5960 C   0  0  2  0  0  0  0  0  0  0  0  0
    6.3060   -1.3030   22.3120 C   0  0  0  0  0  0  0  0  0  0  0  0
    8.6410    1.4150   21.0210 O   0  0  0  0  0  0  0  0  0  0  0  0
    9.2100   -0.8480   22.0410 N   0  0  0  0  0  0  0  0  0  0  0  0
    6.2550    0.3510   20.2950 C   0  0  0  0  0  0  0  0  0  0  0  0
   10.5130   -0.4360   22.3040 C   0  0  0  0  0  0  0  0  0  0  0  0
    7.0280   -2.5960   21.9940 C   0  0  0  0  0  0  0  0  0  0  0  0
    6.6780    0.1840   18.8340 C   0  0  0  0  0  0  0  0  0  0  0  0
    5.1430    1.1260   20.0790 C   0  0  0  0  0  0  0  0  0  0  0  0
   11.6500   -1.2550   22.2450 C   0  0  0  0  0  0  0  0  0  0  0  0
   10.6800    1.0180   22.6670 C   0  0  0  0  0  0  0  0  0  0  0  0
    6.1340   -3.5770   21.8170 N   0  0  0  0  0  0  0  0  0  0  0  0
    4.5630    1.6300   18.9420 N   0  0  0  0  0  0  0  0  0  0  0  0
    6.2040    0.6180   17.6800 N   0  0  0  0  0  0  0  0  0  0  0  0
   13.0280   -0.6520   22.5370 C   0  0  0  0  0  0  0  0  0  0  0  0
   12.0070    1.6190   22.9490 C   0  0  0  0  0  0  0  0  0  0  0  0
   12.1170    2.9420   23.2720 O   0  0  0  0  0  0  0  0  0  0  0  0
    6.1700   -4.3010   20.6620 C   0  0  0  0  0  0  0  0  0  0  0  0
    5.1350    1.3530   17.7940 C   0  0  0  0  0  0  0  0  0  0  0  0
   13.1980    0.6990   22.8610 C   0  0  0  0  0  0  0  0  0  0  0  0
    5.5530   -4.1230   23.0320 C   0  0  0  0  0  0  0  0  0  0  0  0
    7.5310   -4.8000   20.3730 C   0  0  0  0  0  0  0  0  0  0  0  0
    5.2060   -4.5040   19.9260 O   0  0  0  0  0  0  0  0  0  0  0  0
   13.1120    3.8000   22.6830 C   0  0  1  0  0  0  0  0  0  0  0  0
    4.7890   -5.2470   23.0890 C   0  0  0  0  0  0  0  0  0  0  0  0
    5.7340   -3.5370   24.1930 C   0  0  0  0  0  0  0  0  0  0  0  0
   12.5810    4.7990   21.6940 N   0  0  0  0  0  0  0  0  0  0  0  0
   13.3540    4.9550   23.3610 C   0  0  0  0  0  0  0  0  0  0  0  0
    4.2070   -5.7480   24.3660 C   0  0  0  0  0  0  0  0  0  0  0  0
    5.2080   -3.9800   25.4000 C   0  0  0  0  0  0  0  0  0  0  0  0
    3.3830   -6.9760   24.3070 C   0  0  0  0  0  0  0  0  0  0  0  0
   12.6980    5.8640   22.7180 C   0  0  1  0  0  0  0  0  0  0  0  0
    4.3260   -5.1760   25.7770 C   0  0  0  0  0  0  0  0  0  0  0  0
   13.4550    7.0090   22.3940 O   0  0  0  0  0  0  0  0  0  0  0  0
    3.8900   -8.0160   24.7130 O   0  0  0  0  0  0  0  0  0  0  0  0
    2.0190   -6.8820   23.7920 N   0  0  0  0  0  0  0  0  0  0  0  0
    1.4300   -5.6190   23.3410 C   0  0  0  0  0  0  0  0  0  0  0  0
    1.1200   -8.0260   24.0000 C   0  0  0  0  0  0  0  0  0  0  0  0
    0.4960   -5.1340   24.2660 C   0  0  0  0  0  0  0  0  0  0  0  0
    0.0710   -7.7530   24.8910 C   0  0  0  0  0  0  0  0  0  0  0  0
   -0.8980   -6.2880   24.3920 S   0  0  0  0  0  0  0  0  0  0  0  0
  1  2  1  0
  2  3  1  6
  1  4  2  0
  1  5  1  0
  2  6  1  0
  5  7  1  0
  3  8  1  0
  6  9  2  0
  6 10  1  0
  7 11  2  0
  7 12  1  0
  8 13  1  0
 10 14  2  0
  9 15  1  0
 11 16  1  0
 12 17  2  0
 17 18  1  0
 13 19  1  0
 14 20  1  0
 15 20  2  0
 16 21  2  0
 17 21  1  0
 13 22  1  0
 19 23  1  0
 19 24  2  0
 25 18  1  1
 22 26  2  0
 22 27  1  0
 25 28  1  0
 25 29  1  0
 26 30  1  0
 27 31  2  0
 30 32  1  0
 28 33  1  0
 29 33  1  0
 30 34  2  0
 31 34  1  0
 33 35  1  6
 32 36  2  0
 32 37  1  0
 37 38  1  0
 37 39  1  0
 38 40  1  0
 39 41  1  0
 40 42  1  0
 41 42  1  0
M  END
