x2563-x1311
     RDKit          3D

 40 44  0  0  0  0  0  0  0  0999 V2000
    5.7820   -4.7680   20.0480 O   0  0  0  0  0  0  0  0  0  0  0  0
    6.6210   -4.6350   20.9840 C   0  0  0  0  0  0  0  0  0  0  0  0
    8.1440   -4.5270   20.7610 C   0  0  0  0  0  0  0  0  0  0  0  0
    6.1800   -4.5230   22.4950 C   0  0  2  0  0  0  0  0  0  0  0  0
    5.3980   -3.2040   22.6270 C   0  0  0  0  0  0  0  0  0  0  0  0
    7.4070   -4.6160   23.3700 C   0  0  0  0  0  0  0  0  0  0  0  0
    5.4410   -5.6840   23.0280 C   0  0  2  0  0  0  0  0  0  0  0  0
    5.4910   -2.2990   21.4340 C   0  0  0  0  0  0  0  0  0  0  0  0
    8.1990   -5.7590   23.2740 C   0  0  0  0  0  0  0  0  0  0  0  0
    7.7660   -3.6490   24.2770 C   0  0  0  0  0  0  0  0  0  0  0  0
    4.5250   -6.4230   22.1840 C   0  0  0  0  0  0  0  0  0  0  0  0
    4.6940   -5.3860   24.3060 C   0  0  0  0  0  0  0  0  0  0  0  0
    6.7240   -2.0680   20.9800 C   0  0  0  0  0  0  0  0  0  0  0  0
    9.2960   -5.9100   24.0740 C   0  0  0  0  0  0  0  0  0  0  0  0
    8.8740   -3.8020   25.0840 C   0  0  0  0  0  0  0  0  0  0  0  0
    3.5080   -6.6330   24.4570 S   0  0  0  0  0  0  0  0  0  0  0  0
    3.4400   -6.9690   22.7340 C   0  0  0  0  0  0  0  0  0  0  0  0
    4.0410   -7.7370   25.2280 O   0  0  0  0  0  0  0  0  0  0  0  0
    2.2780   -6.0940   24.9810 O   0  0  0  0  0  0  0  0  0  0  0  0
    7.0060   -0.6090   21.0410 C   0  0  1  0  0  0  0  0  0  0  0  0
    9.6610   -4.9570   24.9930 C   0  0  0  0  0  0  0  0  0  0  0  0
    8.2510   -0.2430   21.1920 C   0  0  0  0  0  0  0  0  0  0  0  0
    6.3610    0.1170   19.9100 C   0  0  0  0  0  0  0  0  0  0  0  0
    8.5060    0.9450   20.9720 O   0  0  0  0  0  0  0  0  0  0  0  0
    9.2400   -1.1010   21.6330 N   0  0  0  0  0  0  0  0  0  0  0  0
    5.1820    0.9150   20.2380 C   0  0  0  0  0  0  0  0  0  0  0  0
    6.8290    0.0430   18.6710 C   0  0  0  0  0  0  0  0  0  0  0  0
    6.2670    0.7110   17.5530 N   0  0  0  0  0  0  0  0  0  0  0  0
    4.5370    1.6360   19.1260 C   0  0  0  0  0  0  0  0  0  0  0  0
    4.6420    1.0320   21.5280 C   0  0  0  0  0  0  0  0  0  0  0  0
   10.1180   -0.5310   22.5090 C   0  0  0  0  0  0  0  0  0  0  0  0
    5.1820    1.4600   17.8020 C   0  0  0  0  0  0  0  0  0  0  0  0
    3.4000    2.4250   19.3340 C   0  0  0  0  0  0  0  0  0  0  0  0
    3.5360    1.7830   21.8210 C   0  0  0  0  0  0  0  0  0  0  0  0
   11.4650   -0.7410   22.3170 C   0  0  0  0  0  0  0  0  0  0  0  0
    9.6870    0.2570   23.5480 C   0  0  0  0  0  0  0  0  0  0  0  0
    2.8560    2.5430   20.6160 C   0  0  0  0  0  0  0  0  0  0  0  0
   12.4460   -0.0740   23.2410 C   0  0  0  0  0  0  0  0  0  0  0  0
   10.5530    0.8640   24.4020 C   0  0  0  0  0  0  0  0  0  0  0  0
   11.8720    0.6910   24.2240 C   0  0  0  0  0  0  0  0  0  0  0  0
  1  2  2  0
  2  3  1  0
  4  2  1  0
  4  5  1  6
  4  6  1  0
  4  7  1  0
  5  8  1  0
  6  9  2  0
  6 10  1  0
  7 11  1  6
  7 12  1  0
  8 13  1  0
  9 14  1  0
 10 15  2  0
 12 16  1  0
 11 17  2  0
 16 17  1  0
 16 18  1  0
 16 19  1  0
 20 13  1  6
 14 21  2  0
 15 21  1  0
 20 22  1  0
 20 23  1  0
 22 24  2  0
 22 25  1  0
 23 26  1  0
 23 27  2  0
 27 28  1  0
 26 29  2  0
 26 30  1  0
 25 31  1  0
 28 32  2  0
 29 32  1  0
 29 33  1  0
 30 34  2  0
 31 35  2  0
 31 36  1  0
 33 37  2  0
 34 37  1  0
 35 38  1  0
 36 39  2  0
 38 40  2  0
 39 40  1  0
M  END
