x2569-x1351
     RDKit          3D

 37 40  0  0  0  0  0  0  0  0999 V2000
    6.9260   -3.2660   19.3510 C   0  0  0  0  0  0  0  0  0  0  0  0
    6.2320   -3.9600   20.2590 C   0  0  0  0  0  0  0  0  0  0  0  0
    5.2590   -4.6130   19.9000 O   0  0  0  0  0  0  0  0  0  0  0  0
    6.6290   -4.0000   21.6110 N   0  0  0  0  0  0  0  0  0  0  0  0
    7.5670   -3.2690   22.3650 C   0  0  1  0  0  0  0  0  0  0  0  0
    6.0400   -5.1200   22.3510 C   0  0  0  0  0  0  0  0  0  0  0  0
    8.4200   -2.1820   21.8240 C   0  0  0  0  0  0  0  0  0  0  0  0
    6.8150   -2.5220   23.4760 C   0  0  0  0  0  0  0  0  0  0  0  0
    5.9740   -4.8080   23.8720 C   0  0  0  0  0  0  0  0  0  0  0  0
    8.5980   -0.8390   22.6310 C   0  0  2  0  0  0  0  0  0  0  0  0
    5.7740   -3.2930   23.9930 C   0  0  1  0  0  0  0  0  0  0  0  0
    5.6550   -2.9820   25.4380 N   0  0  0  0  0  0  0  0  0  0  0  0
    8.0850    0.2390   21.6970 C   0  0  0  0  0  0  0  0  0  0  0  0
    9.9990   -0.5020   23.0020 C   0  0  0  0  0  0  0  0  0  0  0  0
    6.7670   -2.4030   26.2140 C   0  0  0  0  0  0  0  0  0  0  0  0
    8.8300    1.1630   21.2790 O   0  0  0  0  0  0  0  0  0  0  0  0
    6.7750    0.0670   21.3710 N   0  0  0  0  0  0  0  0  0  0  0  0
   11.0990   -1.0620   22.1310 C   0  0  0  0  0  0  0  0  0  0  0  0
   10.4220    0.3780   24.1850 C   0  0  0  0  0  0  0  0  0  0  0  0
    7.8750   -2.9140   26.3320 O   0  0  0  0  0  0  0  0  0  0  0  0
    6.4580   -1.1080   26.9050 C   0  0  0  0  0  0  0  0  0  0  0  0
   11.7730    0.5800   24.3270 N   0  0  0  0  0  0  0  0  0  0  0  0
   12.3590   -0.7430   22.4410 C   0  0  0  0  0  0  0  0  0  0  0  0
    6.1970    0.5140   20.1990 C   0  0  0  0  0  0  0  0  0  0  0  0
   13.2560   -1.2660   21.5860 C   0  0  0  0  0  0  0  0  0  0  0  0
    7.0890   -0.7890   28.1050 C   0  0  0  0  0  0  0  0  0  0  0  0
    5.5250   -0.2050   26.3430 C   0  0  0  0  0  0  0  0  0  0  0  0
   12.6730    0.0470   23.4960 C   0  0  0  0  0  0  0  0  0  0  0  0
    6.8620    0.2000   18.8790 C   0  0  0  0  0  0  0  0  0  0  0  0
    5.0360    1.2390   20.2340 C   0  0  0  0  0  0  0  0  0  0  0  0
   13.9810   -1.6800   20.4770 N   0  0  0  0  0  0  0  0  0  0  0  0
    6.7840    0.5080   28.8150 C   0  0  0  0  0  0  0  0  0  0  0  0
    5.1300    1.0500   26.8820 C   0  0  0  0  0  0  0  0  0  0  0  0
    6.3760    0.6180   17.7140 N   0  0  0  0  0  0  0  0  0  0  0  0
    4.5350    1.6640   19.0050 C   0  0  0  0  0  0  0  0  0  0  0  0
    5.7610    1.3810   28.0990 C   0  0  0  0  0  0  0  0  0  0  0  0
    5.2080    1.3520   17.8160 C   0  0  0  0  0  0  0  0  0  0  0  0
  1  2  1  0
  2  3  2  0
  2  4  1  0
  4  5  1  0
  4  6  1  0
  5  7  1  6
  5  8  1  0
  6  9  1  0
 10  7  1  6
  8 11  1  0
  9 11  1  0
 11 12  1  1
 10 13  1  0
 10 14  1  0
 12 15  1  0
 13 16  2  0
 13 17  1  0
 14 18  2  0
 14 19  1  0
 15 20  2  0
 15 21  1  0
 19 22  2  0
 18 23  1  0
 17 24  1  0
 23 25  1  0
 21 26  2  0
 21 27  1  0
 22 28  1  0
 23 28  2  0
 24 29  2  0
 24 30  1  0
 25 31  3  0
 26 32  1  0
 27 33  2  0
 29 34  1  0
 30 35  2  0
 32 36  2  0
 33 36  1  0
 34 37  2  0
 35 37  1  0
M  END
