x2562-x1336
     RDKit          3D

 42 46  0  0  0  0  0  0  0  0999 V2000
    6.0200   -5.2250   28.9220 C   0  0  0  0  0  0  0  0  0  0  0  0
    7.0180   -4.7490   27.9070 C   0  0  0  0  0  0  0  0  0  0  0  0
    8.2250   -5.3400   27.7820 C   0  0  0  0  0  0  0  0  0  0  0  0
    6.7470   -3.6050   26.9780 C   0  0  0  0  0  0  0  0  0  0  0  0
    7.8060   -3.1220   25.9320 C   0  0  0  0  0  0  0  0  0  0  0  0
    9.1490   -4.9090   26.8640 C   0  0  0  0  0  0  0  0  0  0  0  0
    7.2960   -1.7060   24.9070 S   0  0  0  0  0  0  0  0  0  0  0  0
    9.2390   -3.7840   25.7630 C   0  0  0  0  0  0  0  0  0  0  0  0
    8.4970   -0.9520   24.6520 O   0  0  0  0  0  0  0  0  0  0  0  0
    6.2220   -1.1210   25.6800 O   0  0  0  0  0  0  0  0  0  0  0  0
   10.3950   -3.5150   24.8870 C   0  0  0  0  0  0  0  0  0  0  0  0
    6.5790   -2.1720   23.3930 N   0  0  0  0  0  0  0  0  0  0  0  0
    5.8300   -3.4700   23.4880 C   0  0  0  0  0  0  0  0  0  0  0  0
    6.9910   -1.9220   22.0700 C   0  0  1  0  0  0  0  0  0  0  0  0
    7.4440   -0.6880   21.1360 C   0  0  2  0  0  0  0  0  0  0  0  0
    6.1780   -4.4740   22.5110 C   0  0  0  0  0  0  0  0  0  0  0  0
    7.9900   -2.9710   21.7570 C   0  0  0  0  0  0  0  0  0  0  0  0
    8.4920    0.2520   21.5520 C   0  0  0  0  0  0  0  0  0  0  0  0
    7.0400   -4.0000   21.4160 N   0  0  0  0  0  0  0  0  0  0  0  0
    6.5500   -0.0580   20.2490 C   0  0  0  0  0  0  0  0  0  0  0  0
    6.4770   -3.9080   20.1390 C   0  0  0  0  0  0  0  0  0  0  0  0
    8.5200    1.4580   21.2350 O   0  0  0  0  0  0  0  0  0  0  0  0
    9.3940   -0.4690   22.2610 N   0  0  0  0  0  0  0  0  0  0  0  0
    6.8740   -0.0880   18.7600 C   0  0  0  0  0  0  0  0  0  0  0  0
    5.2590    0.7090   20.5520 C   0  0  0  0  0  0  0  0  0  0  0  0
    5.3820   -4.4020   19.8710 O   0  0  0  0  0  0  0  0  0  0  0  0
    7.3310   -3.2380   19.0710 C   0  0  0  0  0  0  0  0  0  0  0  0
    4.4850    1.3080   19.6230 N   0  0  0  0  0  0  0  0  0  0  0  0
    6.0900    0.5150   17.8500 N   0  0  0  0  0  0  0  0  0  0  0  0
   10.6370   -0.0760   22.4990 C   0  0  0  0  0  0  0  0  0  0  0  0
    4.9890    1.1640   18.2610 C   0  0  0  0  0  0  0  0  0  0  0  0
   11.6850   -1.0140   22.3700 C   0  0  0  0  0  0  0  0  0  0  0  0
   10.7890    1.1960   22.8320 C   0  0  0  0  0  0  0  0  0  0  0  0
   13.1690   -0.8070   22.5590 C   0  0  0  0  0  0  0  0  0  0  0  0
   12.1390    1.6240   23.0580 C   0  0  0  0  0  0  0  0  0  0  0  0
   12.1750    2.9390   23.3820 O   0  0  0  0  0  0  0  0  0  0  0  0
   13.1740    0.6840   22.9150 C   0  0  0  0  0  0  0  0  0  0  0  0
   13.0630    3.7790   22.6870 C   0  0  1  0  0  0  0  0  0  0  0  0
   12.4140    4.6990   21.7490 N   0  0  0  0  0  0  0  0  0  0  0  0
   13.4970    4.8680   23.4350 C   0  0  0  0  0  0  0  0  0  0  0  0
   13.4340    5.7000   22.3430 C   0  0  2  0  0  0  0  0  0  0  0  0
   12.9730    6.9900   22.6670 O   0  0  0  0  0  0  0  0  0  0  0  0
  1  2  1  0
  2  3  2  0
  2  4  1  0
  4  5  2  0
  3  6  1  0
  7  5  1  0
  5  8  1  0
  6  8  2  0
  7  9  2  0
  7 10  2  0
  8 11  1  0
  7 12  1  0
 12 13  1  0
 12 14  1  0
 14 15  1  0
 13 16  1  0
 14 17  1  1
 15 18  1  1
 16 19  1  0
 17 19  1  0
 15 20  1  0
 19 21  1  0
 18 22  2  0
 18 23  1  0
 20 24  2  0
 20 25  1  0
 21 26  2  0
 21 27  1  0
 25 28  2  0
 24 29  1  0
 23 30  1  0
 28 31  1  0
 29 31  2  0
 30 32  2  0
 30 33  1  0
 32 34  1  0
 33 35  2  0
 35 36  1  0
 34 37  2  0
 35 37  1  0
 38 36  1  1
 38 39  1  0
 38 40  1  0
 39 41  1  0
 40 41  1  0
 41 42  1  1
M  END
