x2563-x2754
     RDKit          3D

 40 44  0  0  0  0  0  0  0  0999 V2000
    4.8430   -3.0900   25.1260 C   0  0  0  0  0  0  0  0  0  0  0  0
    5.6500   -2.9390   26.2970 N   0  0  0  0  0  0  0  0  0  0  0  0
    5.1330   -2.1560   27.4740 C   0  0  0  0  0  0  0  0  0  0  0  0
    3.4210   -3.0220   25.1900 O   0  0  0  0  0  0  0  0  0  0  0  0
    5.4440   -3.3390   23.7140 C   0  0  1  0  0  0  0  0  0  0  0  0
    6.1510   -2.2890   23.2560 C   0  0  0  0  0  0  0  0  0  0  0  0
    6.0100   -4.6180   23.6740 C   0  0  0  0  0  0  0  0  0  0  0  0
    6.9070   -3.5360   26.5530 C   0  0  0  0  0  0  0  0  0  0  0  0
    7.1020   -2.7050   22.1250 C   0  0  2  0  0  0  0  0  0  0  0  0
    6.3400   -5.0040   22.3640 C   0  0  0  0  0  0  0  0  0  0  0  0
    7.0520   -4.6680   27.4080 C   0  0  0  0  0  0  0  0  0  0  0  0
    7.9610   -2.9420   25.9210 C   0  0  0  0  0  0  0  0  0  0  0  0
    7.2090   -1.7430   21.0810 C   0  0  0  0  0  0  0  0  0  0  0  0
    6.6250   -3.9480   21.5320 N   0  0  0  0  0  0  0  0  0  0  0  0
    8.3010   -5.2370   27.6460 C   0  0  0  0  0  0  0  0  0  0  0  0
    9.3850   -3.4540   26.0810 C   0  0  0  0  0  0  0  0  0  0  0  0
    6.2180   -4.0030   20.2010 C   0  0  0  0  0  0  0  0  0  0  0  0
    7.1050   -0.3930   21.3710 C   0  0  1  0  0  0  0  0  0  0  0  0
    9.5140   -4.6450   26.9870 C   0  0  0  0  0  0  0  0  0  0  0  0
    5.2160   -4.6210   19.8780 O   0  0  0  0  0  0  0  0  0  0  0  0
    7.0620   -3.3320   19.1010 C   0  0  0  0  0  0  0  0  0  0  0  0
    8.4300    0.2960   21.2530 C   0  0  0  0  0  0  0  0  0  0  0  0
    6.5020    0.0820   20.2860 C   0  0  0  0  0  0  0  0  0  0  0  0
    8.5700    1.4850   20.9350 O   0  0  0  0  0  0  0  0  0  0  0  0
    9.3950   -0.6150   21.5720 N   0  0  0  0  0  0  0  0  0  0  0  0
    5.2440    0.8220   20.4860 C   0  0  0  0  0  0  0  0  0  0  0  0
    7.0030   -0.0810   19.0260 C   0  0  0  0  0  0  0  0  0  0  0  0
    6.4600    0.3950   17.8710 N   0  0  0  0  0  0  0  0  0  0  0  0
    4.5440    1.3960   19.3110 C   0  0  0  0  0  0  0  0  0  0  0  0
    4.6820    1.0070   21.7530 C   0  0  0  0  0  0  0  0  0  0  0  0
   10.1930   -0.4970   22.6970 C   0  0  0  0  0  0  0  0  0  0  0  0
    5.2030    1.1550   18.0170 C   0  0  0  0  0  0  0  0  0  0  0  0
    3.3480    2.1120   19.4390 C   0  0  0  0  0  0  0  0  0  0  0  0
    3.5160    1.6920   21.9680 C   0  0  0  0  0  0  0  0  0  0  0  0
   11.5560   -0.7250   22.5640 C   0  0  0  0  0  0  0  0  0  0  0  0
    9.7030   -0.1610   23.9370 C   0  0  0  0  0  0  0  0  0  0  0  0
    2.7900    2.2940   20.6990 C   0  0  0  0  0  0  0  0  0  0  0  0
   12.4690   -0.5960   23.7650 C   0  0  0  0  0  0  0  0  0  0  0  0
   10.5100   -0.0460   25.0390 C   0  0  0  0  0  0  0  0  0  0  0  0
   11.8420   -0.2600   24.9460 C   0  0  0  0  0  0  0  0  0  0  0  0
  1  2  1  0
  2  3  1  0
  1  4  2  0
  5  1  1  1
  5  6  1  0
  5  7  1  0
  2  8  1  0
  6  9  1  0
  7 10  1  0
  8 11  2  0
  8 12  1  0
  9 13  1  6
  9 14  1  0
 10 14  1  0
 11 15  1  0
 12 16  2  0
 14 17  1  0
 18 13  1  6
 15 19  2  0
 16 19  1  0
 17 20  2  0
 17 21  1  0
 18 22  1  0
 18 23  1  0
 22 24  2  0
 22 25  1  0
 23 26  1  0
 23 27  2  0
 27 28  1  0
 26 29  2  0
 26 30  1  0
 25 31  1  0
 28 32  2  0
 29 32  1  0
 29 33  1  0
 30 34  2  0
 31 35  2  0
 31 36  1  0
 33 37  2  0
 34 37  1  0
 35 38  1  0
 36 39  2  0
 38 40  2  0
 39 40  1  0
M  END
