x2563-x1412
     RDKit          3D

 36 40  0  0  0  0  0  0  0  0999 V2000
    7.4730   -3.0700   18.8370 C   0  0  0  0  0  0  0  0  0  0  0  0
    6.5290   -3.3970   20.0080 C   0  0  0  0  0  0  0  0  0  0  0  0
    5.5210   -4.0800   19.7360 O   0  0  0  0  0  0  0  0  0  0  0  0
    6.7650   -3.0260   21.3640 N   0  0  0  0  0  0  0  0  0  0  0  0
    7.6240   -1.8950   21.9150 C   0  0  2  0  0  0  0  0  0  0  0  0
    6.3620   -3.9410   22.4200 C   0  0  0  0  0  0  0  0  0  0  0  0
    7.9900   -0.7640   21.2480 C   0  0  2  0  0  0  0  0  0  0  0  0
    8.8680   -2.5520   22.4620 C   0  0  0  0  0  0  0  0  0  0  0  0
    7.5840   -4.4880   23.1640 C   0  0  0  0  0  0  0  0  0  0  0  0
    7.3460    0.1410   21.7520 O   0  0  0  0  0  0  0  0  0  0  0  0
    7.3250   -0.8110   20.0850 C   0  0  0  0  0  0  0  0  0  0  0  0
    9.3590   -0.6400   21.2480 N   0  0  0  0  0  0  0  0  0  0  0  0
    8.5140   -3.4270   23.5240 N   0  0  0  0  0  0  0  0  0  0  0  0
    8.3330   -2.9050   24.7800 C   0  0  0  0  0  0  0  0  0  0  0  0
    6.3610    0.1570   19.6340 C   0  0  0  0  0  0  0  0  0  0  0  0
   10.1260   -0.1560   22.3650 C   0  0  0  0  0  0  0  0  0  0  0  0
    8.1080   -1.7170   25.0210 O   0  0  0  0  0  0  0  0  0  0  0  0
    8.4700   -4.0130   25.8630 C   0  0  0  0  0  0  0  0  0  0  0  0
    5.2290    0.8330   20.2900 C   0  0  0  0  0  0  0  0  0  0  0  0
    6.6560    0.4280   18.2360 C   0  0  0  0  0  0  0  0  0  0  0  0
   11.5680   -0.5400   22.3280 C   0  0  0  0  0  0  0  0  0  0  0  0
    9.5710    0.6070   23.3870 C   0  0  0  0  0  0  0  0  0  0  0  0
    9.2900   -5.1080   25.5740 C   0  0  0  0  0  0  0  0  0  0  0  0
    7.7620   -4.1790   27.4690 S   0  0  0  0  0  0  0  0  0  0  0  0
    5.9690    1.2480   17.4470 N   0  0  0  0  0  0  0  0  0  0  0  0
    4.4840    1.7590   19.3340 C   0  0  0  0  0  0  0  0  0  0  0  0
    4.8230    0.6910   21.6280 C   0  0  0  0  0  0  0  0  0  0  0  0
   12.3920   -0.1530   23.2490 C   0  0  0  0  0  0  0  0  0  0  0  0
   10.3950    1.0290   24.3920 C   0  0  0  0  0  0  0  0  0  0  0  0
    8.5880   -5.6960   27.6800 C   0  0  0  0  0  0  0  0  0  0  0  0
    9.3310   -6.0490   26.6360 C   0  0  0  0  0  0  0  0  0  0  0  0
    4.9180    1.8820   18.0040 C   0  0  0  0  0  0  0  0  0  0  0  0
    3.3770    2.4840   19.7650 C   0  0  0  0  0  0  0  0  0  0  0  0
    3.6480    1.4580   22.1290 C   0  0  0  0  0  0  0  0  0  0  0  0
   11.9200    0.6000   24.2760 C   0  0  0  0  0  0  0  0  0  0  0  0
    2.9300    2.3510   21.1810 C   0  0  0  0  0  0  0  0  0  0  0  0
  1  2  1  0
  2  3  2  0
  2  4  1  0
  4  5  1  0
  4  6  1  0
  5  7  1  0
  5  8  1  6
  6  9  1  0
  7 10  1  1
  7 11  1  0
  7 12  1  0
  8 13  1  0
  9 13  1  0
 13 14  1  0
 11 15  1  0
 12 16  1  0
 14 17  2  0
 14 18  1  0
 15 19  1  0
 15 20  2  0
 16 21  2  0
 16 22  1  0
 18 23  2  0
 18 24  1  0
 20 25  1  0
 19 26  2  0
 19 27  1  0
 21 28  1  0
 22 29  2  0
 24 30  1  0
 23 31  1  0
 30 31  2  0
 25 32  2  0
 26 32  1  0
 26 33  1  0
 27 34  2  0
 28 35  2  0
 29 35  1  0
 33 36  2  0
 34 36  1  0
M  END
