x2562
     RDKit          3D

 22 24  0  0  0  0  0  0  0  0999 V2000
    4.7890    1.4410   19.1670 N   0  0  0  0  0  0  0  0  0  0  0  0
    8.6090    0.1690   21.0660 C   0  0  0  0  0  0  0  0  0  0  0  0
    8.5600    1.3920   20.9710 O   0  0  0  0  0  0  0  0  0  0  0  0
    7.3900   -0.6990   20.8310 C   0  0  0  0  0  0  0  0  0  0  0  0
    6.2850    0.6270   17.4960 N   0  0  0  0  0  0  0  0  0  0  0  0
   12.3990    2.9370   23.4980 O   0  0  0  0  0  0  0  0  0  0  0  0
    6.4770   -0.1610   19.7540 C   0  0  0  0  0  0  0  0  0  0  0  0
    9.7270   -0.5210   21.3780 N   0  0  0  0  0  0  0  0  0  0  0  0
   13.7620    6.9660   22.5120 O   0  0  0  0  0  0  0  0  0  0  0  0
    5.4160    0.6730   20.0650 C   0  0  0  0  0  0  0  0  0  0  0  0
   12.6360    4.9370   22.1490 N   0  0  0  0  0  0  0  0  0  0  0  0
    5.2610    1.3670   17.9220 C   0  0  0  0  0  0  0  0  0  0  0  0
    6.8780   -0.1250   18.4290 C   0  0  0  0  0  0  0  0  0  0  0  0
   10.9150   -0.0480   21.9840 C   0  0  0  0  0  0  0  0  0  0  0  0
   11.9530   -0.9570   22.1520 C   0  0  0  0  0  0  0  0  0  0  0  0
   13.1440   -0.5460   22.7290 C   0  0  0  0  0  0  0  0  0  0  0  0
   13.3010    0.7580   23.1680 C   0  0  0  0  0  0  0  0  0  0  0  0
   12.2540    1.6530   23.0220 C   0  0  0  0  0  0  0  0  0  0  0  0
   13.3170    3.7340   22.7050 C   0  0  1  0  0  0  0  0  0  0  0  0
   14.0570    4.7030   23.6400 C   0  0  0  0  0  0  0  0  0  0  0  0
   13.5030    5.7860   22.7280 C   0  0  0  0  0  0  0  0  0  0  0  0
   11.0630    1.2650   22.4260 C   0  0  0  0  0  0  0  0  0  0  0  0
  2  3  2  0
  2  4  1  0
  4  7  1  0
  2  8  1  0
  1 10  2  0
  7 10  1  0
  1 12  1  0
  5 12  2  0
  5 13  1  0
  7 13  2  0
  8 14  1  0
 14 15  2  0
 15 16  1  0
 16 17  2  0
  6 18  1  0
 17 18  1  0
 19  6  1  1
 11 19  1  0
 19 20  1  0
  9 21  2  0
 11 21  1  0
 20 21  1  0
 14 22  1  0
 18 22  2  0
M  END
