x2563-x0769
     RDKit          3D

 41 45  0  0  0  0  0  0  0  0999 V2000
    5.8200   -5.0340   26.9970 O   0  0  0  0  0  0  0  0  0  0  0  0
    4.8090   -5.2300   25.9810 S   0  0  0  0  0  0  0  0  0  0  0  0
    3.9700   -6.4080   25.9520 O   0  0  0  0  0  0  0  0  0  0  0  0
    3.7510   -3.8340   25.9850 C   0  0  0  0  0  0  0  0  0  0  0  0
    5.5410   -5.0440   24.4520 N   0  0  0  0  0  0  0  0  0  0  0  0
    4.2400   -2.5310   26.1430 C   0  0  0  0  0  0  0  0  0  0  0  0
    2.3750   -4.0330   25.8250 C   0  0  0  0  0  0  0  0  0  0  0  0
    5.1750   -6.0020   23.3970 C   0  0  0  0  0  0  0  0  0  0  0  0
    6.8970   -4.4930   24.3230 C   0  0  0  0  0  0  0  0  0  0  0  0
    5.5460   -2.2710   26.3000 F   0  0  0  0  0  0  0  0  0  0  0  0
    1.5020   -2.9380   25.8240 C   0  0  0  0  0  0  0  0  0  0  0  0
    3.3700   -1.4390   26.1430 C   0  0  0  0  0  0  0  0  0  0  0  0
    4.9210   -5.2250   22.2850 C   0  0  0  0  0  0  0  0  0  0  0  0
    7.2340   -4.4690   22.8500 C   0  0  0  0  0  0  0  0  0  0  0  0
    2.0010   -1.6430   25.9840 C   0  0  0  0  0  0  0  0  0  0  0  0
    5.9550   -4.3330   21.9920 C   0  0  0  0  0  0  0  0  0  0  0  0
    6.2300   -4.5830   20.5080 C   0  0  0  0  0  0  0  0  0  0  0  0
    5.4500   -2.8320   21.8870 C   0  0  0  0  0  0  0  0  0  0  0  0
    5.7180   -5.5460   19.9820 O   0  0  0  0  0  0  0  0  0  0  0  0
    7.0500   -3.5680   19.7040 C   0  0  0  0  0  0  0  0  0  0  0  0
    6.4260   -1.6430   22.0840 C   0  0  0  0  0  0  0  0  0  0  0  0
    7.0340   -1.1740   20.9310 C   0  0  2  0  0  0  0  0  0  0  0  0
    8.2220   -0.4000   21.3620 C   0  0  0  0  0  0  0  0  0  0  0  0
    6.2730   -0.2330   19.9680 C   0  0  0  0  0  0  0  0  0  0  0  0
    8.3520    0.8040   21.1180 O   0  0  0  0  0  0  0  0  0  0  0  0
    9.1000   -1.1850   22.0310 N   0  0  0  0  0  0  0  0  0  0  0  0
    5.1930    0.6640   20.3950 C   0  0  0  0  0  0  0  0  0  0  0  0
    6.6700   -0.2420   18.5480 C   0  0  0  0  0  0  0  0  0  0  0  0
    6.1220    0.5150   17.5790 N   0  0  0  0  0  0  0  0  0  0  0  0
    4.5680    1.5050   19.3310 C   0  0  0  0  0  0  0  0  0  0  0  0
    4.6840    0.8230   21.6850 C   0  0  0  0  0  0  0  0  0  0  0  0
   10.1330   -0.5840   22.6480 C   0  0  0  0  0  0  0  0  0  0  0  0
    5.1330    1.3350   17.9490 C   0  0  0  0  0  0  0  0  0  0  0  0
    3.5230    2.4050   19.5660 C   0  0  0  0  0  0  0  0  0  0  0  0
    3.5160    1.8250   21.9770 C   0  0  0  0  0  0  0  0  0  0  0  0
   11.4560   -0.8540   22.3870 C   0  0  0  0  0  0  0  0  0  0  0  0
    9.7300    0.3650   23.5760 C   0  0  0  0  0  0  0  0  0  0  0  0
    3.0060    2.5770   20.7900 C   0  0  0  0  0  0  0  0  0  0  0  0
   12.4970   -0.0780   23.1280 C   0  0  0  0  0  0  0  0  0  0  0  0
   10.6070    1.0680   24.2490 C   0  0  0  0  0  0  0  0  0  0  0  0
   11.9330    0.9240   24.0930 C   0  0  0  0  0  0  0  0  0  0  0  0
  1  2  2  0
  2  3  2  0
  2  4  1  0
  2  5  1  0
  4  6  2  0
  4  7  1  0
  5  8  1  0
  5  9  1  0
  6 10  1  0
  7 11  2  0
  6 12  1  0
  8 13  1  0
  9 14  1  0
 11 15  1  0
 12 15  2  0
 13 16  1  0
 14 16  1  0
 16 17  1  0
 16 18  1  0
 17 19  2  0
 17 20  1  0
 18 21  1  0
 22 21  1  1
 22 23  1  0
 22 24  1  0
 23 25  2  0
 23 26  1  0
 24 27  1  0
 24 28  2  0
 28 29  1  0
 27 30  2  0
 27 31  1  0
 26 32  1  0
 29 33  2  0
 30 33  1  0
 30 34  1  0
 31 35  2  0
 32 36  2  0
 32 37  1  0
 34 38  2  0
 35 38  1  0
 36 39  1  0
 37 40  2  0
 39 41  2  0
 40 41  1  0
M  END
