x2562-x0691
     RDKit          3D

 43 47  0  0  0  0  0  0  0  0999 V2000
    4.1830   -6.8110   25.7660 O   0  0  0  0  0  0  0  0  0  0  0  0
    4.7800   -5.4920   25.7750 S   0  0  0  0  0  0  0  0  0  0  0  0
    5.6470   -5.1090   26.8670 O   0  0  0  0  0  0  0  0  0  0  0  0
    3.3660   -4.3300   25.7520 C   0  0  0  0  0  0  0  0  0  0  0  0
    5.5670   -5.0290   24.4010 N   0  0  0  0  0  0  0  0  0  0  0  0
    4.0270   -3.0290   25.8650 C   0  0  0  0  0  0  0  0  0  0  0  0
    1.8520   -4.7690   25.6360 C   0  0  0  0  0  0  0  0  0  0  0  0
    5.0770   -5.7560   23.2440 C   0  0  0  0  0  0  0  0  0  0  0  0
    6.9930   -4.6640   24.4170 C   0  0  0  0  0  0  0  0  0  0  0  0
    3.0160   -2.0350   25.8660 C   0  0  0  0  0  0  0  0  0  0  0  0
    1.2070   -3.6030   25.6700 C   0  0  0  0  0  0  0  0  0  0  0  0
    5.1250   -4.9600   22.1260 C   0  0  0  0  0  0  0  0  0  0  0  0
    7.4790   -4.7510   23.0920 C   0  0  0  0  0  0  0  0  0  0  0  0
    3.3890   -0.7500   25.9640 F   0  0  0  0  0  0  0  0  0  0  0  0
    1.6900   -2.2970   25.7770 C   0  0  0  0  0  0  0  0  0  0  0  0
    6.3500   -4.2460   22.1600 C   0  0  0  0  0  0  0  0  0  0  0  0
    6.7480   -4.2010   20.6640 C   0  0  0  0  0  0  0  0  0  0  0  0
    6.1150   -2.7500   22.4400 C   0  0  0  0  0  0  0  0  0  0  0  0
    5.8520   -4.4620   19.8680 O   0  0  0  0  0  0  0  0  0  0  0  0
    8.2090   -3.7690   20.3140 C   0  0  0  0  0  0  0  0  0  0  0  0
    6.9690   -1.9520   21.5830 C   0  0  0  0  0  0  0  0  0  0  0  0
    6.9790   -0.4340   21.5920 C   0  0  1  0  0  0  0  0  0  0  0  0
    8.2850    0.1630   21.5250 C   0  0  0  0  0  0  0  0  0  0  0  0
    6.3640    0.1290   20.3760 C   0  0  0  0  0  0  0  0  0  0  0  0
    8.4300    1.3680   21.2260 O   0  0  0  0  0  0  0  0  0  0  0  0
    9.3040   -0.7280   21.7690 N   0  0  0  0  0  0  0  0  0  0  0  0
    6.7200    0.0770   18.8620 C   0  0  0  0  0  0  0  0  0  0  0  0
    5.1310    1.0060   20.2080 C   0  0  0  0  0  0  0  0  0  0  0  0
    4.4420    1.6390   19.1020 N   0  0  0  0  0  0  0  0  0  0  0  0
    6.1810    0.6060   17.7610 N   0  0  0  0  0  0  0  0  0  0  0  0
   10.5770   -0.3370   22.1800 C   0  0  0  0  0  0  0  0  0  0  0  0
    5.0830    1.3640   17.9130 C   0  0  0  0  0  0  0  0  0  0  0  0
   11.6390   -1.2410   22.1990 C   0  0  0  0  0  0  0  0  0  0  0  0
   10.7330    1.0180   22.5450 C   0  0  0  0  0  0  0  0  0  0  0  0
   12.9870   -0.7650   22.5930 C   0  0  0  0  0  0  0  0  0  0  0  0
   11.9580    1.5510   22.9170 C   0  0  0  0  0  0  0  0  0  0  0  0
   11.9550    2.9070   23.2290 O   0  0  0  0  0  0  0  0  0  0  0  0
   13.1800    0.6570   22.9510 C   0  0  0  0  0  0  0  0  0  0  0  0
   13.0380    3.7560   22.7650 C   0  0  1  0  0  0  0  0  0  0  0  0
   12.6350    4.7120   21.6620 N   0  0  0  0  0  0  0  0  0  0  0  0
   13.2640    4.8680   23.4380 C   0  0  0  0  0  0  0  0  0  0  0  0
   12.6130    5.8480   22.6070 C   0  0  1  0  0  0  0  0  0  0  0  0
   13.4590    6.9270   22.2890 O   0  0  0  0  0  0  0  0  0  0  0  0
  1  2  2  0
  2  3  2  0
  2  4  1  0
  2  5  1  0
  4  6  2  0
  4  7  1  0
  5  8  1  0
  5  9  1  0
  6 10  1  0
  7 11  2  0
  8 12  1  0
  9 13  1  0
 10 14  1  0
 10 15  2  0
 11 15  1  0
 12 16  1  0
 13 16  1  0
 16 17  1  0
 16 18  1  0
 17 19  2  0
 17 20  1  0
 18 21  1  0
 22 21  1  6
 22 23  1  0
 22 24  1  0
 23 25  2  0
 23 26  1  0
 24 27  2  0
 24 28  1  0
 28 29  2  0
 27 30  1  0
 26 31  1  0
 29 32  1  0
 30 32  2  0
 31 33  2  0
 31 34  1  0
 33 35  1  0
 34 36  2  0
 36 37  1  0
 35 38  2  0
 36 38  1  0
 39 37  1  1
 39 40  1  0
 39 41  1  0
 40 42  1  0
 41 42  1  0
 42 43  1  6
M  END
