x2563-x1374
     RDKit          3D

 40 44  0  0  0  0  0  0  0  0999 V2000
   10.7650   -3.5720   25.7450 C   0  0  0  0  0  0  0  0  0  0  0  0
    9.7200   -4.0570   24.8270 C   0  0  0  0  0  0  0  0  0  0  0  0
    9.7140   -5.3910   24.5110 C   0  0  0  0  0  0  0  0  0  0  0  0
    8.7390   -3.2280   24.2710 C   0  0  0  0  0  0  0  0  0  0  0  0
    7.7630   -3.7160   23.4050 C   0  0  0  0  0  0  0  0  0  0  0  0
    8.7890   -5.9010   23.6620 C   0  0  0  0  0  0  0  0  0  0  0  0
    6.5950   -2.9670   22.7480 C   0  0  2  0  0  0  0  0  0  0  0  0
    7.8470   -5.1000   23.1220 C   0  0  0  0  0  0  0  0  0  0  0  0
    5.8410   -3.9830   22.1260 N   0  0  0  0  0  0  0  0  0  0  0  0
    6.4740   -1.5540   22.1410 C   0  0  0  0  0  0  0  0  0  0  0  0
    6.4170   -4.2710   20.8600 C   0  0  0  0  0  0  0  0  0  0  0  0
    7.2840   -0.9850   20.9090 C   0  0  2  0  0  0  0  0  0  0  0  0
    5.3970   -4.9990   23.0680 C   0  0  1  0  0  0  0  0  0  0  0  0
    5.6530   -4.5060   19.9200 O   0  0  0  0  0  0  0  0  0  0  0  0
    8.0040   -4.2570   20.7720 C   0  0  0  0  0  0  0  0  0  0  0  0
    8.4140   -0.3430   21.2520 C   0  0  0  0  0  0  0  0  0  0  0  0
    4.7200   -4.4970   24.1850 C   0  0  0  0  0  0  0  0  0  0  0  0
    4.9770   -6.4020   22.5750 C   0  0  0  0  0  0  0  0  0  0  0  0
    6.5560   -0.2780   20.0370 C   0  0  0  0  0  0  0  0  0  0  0  0
    8.5020    0.8830   21.1320 O   0  0  0  0  0  0  0  0  0  0  0  0
    9.2540   -0.9990   21.6440 N   0  0  0  0  0  0  0  0  0  0  0  0
    3.7600   -6.8350   23.8720 S   0  0  0  0  0  0  0  0  0  0  0  0
    3.8370   -5.3270   24.7400 C   0  0  0  0  0  0  0  0  0  0  0  0
    5.3850    0.5230   20.4980 C   0  0  0  0  0  0  0  0  0  0  0  0
    6.9240   -0.2840   18.6100 C   0  0  0  0  0  0  0  0  0  0  0  0
    2.4310   -6.9530   23.3230 O   0  0  0  0  0  0  0  0  0  0  0  0
    4.1820   -7.9040   24.7560 O   0  0  0  0  0  0  0  0  0  0  0  0
    6.2710    0.3970   17.6440 N   0  0  0  0  0  0  0  0  0  0  0  0
    4.6590    1.2720   19.4160 C   0  0  0  0  0  0  0  0  0  0  0  0
    4.8690    0.6720   21.8030 C   0  0  0  0  0  0  0  0  0  0  0  0
   10.1090   -0.7130   22.7000 C   0  0  0  0  0  0  0  0  0  0  0  0
    5.2100    1.1260   18.0250 C   0  0  0  0  0  0  0  0  0  0  0  0
    3.5270    2.0790   19.6340 C   0  0  0  0  0  0  0  0  0  0  0  0
    3.6060    1.5680   22.0600 C   0  0  0  0  0  0  0  0  0  0  0  0
   11.4570   -0.8950   22.4400 C   0  0  0  0  0  0  0  0  0  0  0  0
    9.6810   -0.2760   23.9470 C   0  0  0  0  0  0  0  0  0  0  0  0
    3.0130    2.2340   20.8580 C   0  0  0  0  0  0  0  0  0  0  0  0
   12.4710   -0.6160   23.5230 C   0  0  0  0  0  0  0  0  0  0  0  0
   10.5370   -0.0320   24.9380 C   0  0  0  0  0  0  0  0  0  0  0  0
   11.8920   -0.1660   24.8400 C   0  0  0  0  0  0  0  0  0  0  0  0
  1  2  1  0
  2  3  2  0
  2  4  1  0
  4  5  2  0
  3  6  1  0
  5  7  1  0
  5  8  1  0
  6  8  2  0
  7  9  1  0
  7 10  1  6
  9 11  1  0
 12 10  1  1
 13  9  1  6
 11 14  2  0
 11 15  1  0
 12 16  1  0
 13 17  1  0
 13 18  1  0
 12 19  1  0
 16 20  2  0
 16 21  1  0
 18 22  1  0
 17 23  2  0
 22 23  1  0
 19 24  1  0
 19 25  2  0
 22 26  1  0
 22 27  1  0
 25 28  1  0
 24 29  2  0
 24 30  1  0
 21 31  1  0
 28 32  2  0
 29 32  1  0
 29 33  1  0
 30 34  2  0
 31 35  2  0
 31 36  1  0
 33 37  2  0
 34 37  1  0
 35 38  1  0
 36 39  2  0
 38 40  2  0
 39 40  1  0
M  END
