x2563-x0771
     RDKit          3D

 42 46  0  0  0  0  0  0  0  0999 V2000
    0.6150   -1.4040   26.0460 C   0  0  0  0  0  0  0  0  0  0  0  0
    1.6960   -2.4400   26.0100 C   0  0  0  0  0  0  0  0  0  0  0  0
    2.9920   -2.1210   26.4090 C   0  0  0  0  0  0  0  0  0  0  0  0
    1.4150   -3.7500   25.5700 C   0  0  0  0  0  0  0  0  0  0  0  0
    2.4080   -4.7420   25.5300 C   0  0  0  0  0  0  0  0  0  0  0  0
    3.9530   -3.1180   26.3600 C   0  0  0  0  0  0  0  0  0  0  0  0
    1.9820   -6.1290   25.0340 C   0  0  0  0  0  0  0  0  0  0  0  0
    3.7050   -4.4170   25.9370 C   0  0  0  0  0  0  0  0  0  0  0  0
    5.0870   -5.5500   25.9570 S   0  0  0  0  0  0  0  0  0  0  0  0
    4.5460   -6.8910   25.9450 O   0  0  0  0  0  0  0  0  0  0  0  0
    6.0850   -5.1630   26.9250 O   0  0  0  0  0  0  0  0  0  0  0  0
    5.7650   -5.2510   24.4240 N   0  0  0  0  0  0  0  0  0  0  0  0
    5.2830   -6.1110   23.3400 C   0  0  0  0  0  0  0  0  0  0  0  0
    7.2090   -4.9150   24.3850 C   0  0  0  0  0  0  0  0  0  0  0  0
    5.3290   -5.3350   22.0620 C   0  0  0  0  0  0  0  0  0  0  0  0
    7.7160   -4.6740   22.9340 C   0  0  0  0  0  0  0  0  0  0  0  0
    6.4830   -4.3320   22.0600 C   0  0  0  0  0  0  0  0  0  0  0  0
    6.8580   -4.1910   20.6070 C   0  0  0  0  0  0  0  0  0  0  0  0
    6.1780   -2.8200   22.3190 C   0  0  0  0  0  0  0  0  0  0  0  0
    5.9530   -4.4330   19.8170 O   0  0  0  0  0  0  0  0  0  0  0  0
    8.2610   -3.6790   20.2480 C   0  0  0  0  0  0  0  0  0  0  0  0
    6.0730   -2.1290   21.1520 C   0  0  0  0  0  0  0  0  0  0  0  0
    6.7280   -0.7370   21.0820 C   0  0  1  0  0  0  0  0  0  0  0  0
    8.1630   -0.4090   21.3000 C   0  0  0  0  0  0  0  0  0  0  0  0
    6.1630    0.0390   19.9560 C   0  0  0  0  0  0  0  0  0  0  0  0
    8.5050    0.7250   20.9450 O   0  0  0  0  0  0  0  0  0  0  0  0
    9.0690   -1.3430   21.9940 N   0  0  0  0  0  0  0  0  0  0  0  0
    4.9590    0.8860   20.2140 C   0  0  0  0  0  0  0  0  0  0  0  0
    6.6960    0.0080   18.7390 C   0  0  0  0  0  0  0  0  0  0  0  0
    6.2680    0.6830   17.6460 N   0  0  0  0  0  0  0  0  0  0  0  0
    4.4320    1.6430   19.0880 C   0  0  0  0  0  0  0  0  0  0  0  0
    4.3330    0.9840   21.4550 C   0  0  0  0  0  0  0  0  0  0  0  0
   10.0010   -0.6350   22.7050 C   0  0  0  0  0  0  0  0  0  0  0  0
    5.1700    1.4790   17.8010 C   0  0  0  0  0  0  0  0  0  0  0  0
    3.3090    2.4440   19.2780 C   0  0  0  0  0  0  0  0  0  0  0  0
    3.2260    1.7860   21.6160 C   0  0  0  0  0  0  0  0  0  0  0  0
   11.3490   -0.8160   22.4620 C   0  0  0  0  0  0  0  0  0  0  0  0
    9.5630    0.3440   23.7140 C   0  0  0  0  0  0  0  0  0  0  0  0
    2.7140    2.5090   20.5420 C   0  0  0  0  0  0  0  0  0  0  0  0
   12.2230   -0.0430   23.1860 C   0  0  0  0  0  0  0  0  0  0  0  0
   10.5140    1.0570   24.3750 C   0  0  0  0  0  0  0  0  0  0  0  0
   11.8720    0.8560   24.0960 C   0  0  0  0  0  0  0  0  0  0  0  0
  1  2  1  0
  2  3  2  0
  2  4  1  0
  4  5  2  0
  3  6  1  0
  5  7  1  0
  5  8  1  0
  6  8  2  0
  9  8  1  0
  9 10  2  0
  9 11  2  0
  9 12  1  0
 12 13  1  0
 12 14  1  0
 13 15  1  0
 14 16  1  0
 15 17  1  0
 16 17  1  0
 17 18  1  0
 17 19  1  0
 18 20  2  0
 18 21  1  0
 19 22  1  0
 23 22  1  6
 23 24  1  0
 23 25  1  0
 24 26  2  0
 24 27  1  0
 25 28  1  0
 25 29  2  0
 29 30  1  0
 28 31  2  0
 28 32  1  0
 27 33  1  0
 30 34  2  0
 31 34  1  0
 31 35  1  0
 32 36  2  0
 33 37  2  0
 33 38  1  0
 35 39  2  0
 36 39  1  0
 37 40  1  0
 38 41  2  0
 40 42  2  0
 41 42  1  0
M  END
