x2572-x2754
     RDKit          3D

 39 42  0  0  0  0  0  0  0  0999 V2000
    4.9590   -3.3250   25.2250 C   0  0  0  0  0  0  0  0  0  0  0  0
    5.5270   -3.1200   26.4850 N   0  0  0  0  0  0  0  0  0  0  0  0
    5.0450   -2.1250   27.3010 C   0  0  0  0  0  0  0  0  0  0  0  0
    3.7900   -3.0300   24.9190 O   0  0  0  0  0  0  0  0  0  0  0  0
    5.9040   -3.9880   24.1990 C   0  0  2  0  0  0  0  0  0  0  0  0
    6.8820   -2.9780   23.6120 C   0  0  0  0  0  0  0  0  0  0  0  0
    5.2520   -4.7280   23.2590 C   0  0  0  0  0  0  0  0  0  0  0  0
    6.8310   -3.6400   26.7600 C   0  0  0  0  0  0  0  0  0  0  0  0
    6.8350   -2.8680   22.2040 C   0  0  2  0  0  0  0  0  0  0  0  0
    6.0940   -4.9820   22.1800 C   0  0  0  0  0  0  0  0  0  0  0  0
    7.0410   -4.7340   27.6070 C   0  0  0  0  0  0  0  0  0  0  0  0
    8.1040   -3.0380   26.1220 C   0  0  0  0  0  0  0  0  0  0  0  0
    6.1550   -1.6700   21.8510 C   0  0  0  0  0  0  0  0  0  0  0  0
    6.3190   -3.9880   21.5940 N   0  0  0  0  0  0  0  0  0  0  0  0
    8.3250   -5.2330   27.8420 C   0  0  0  0  0  0  0  0  0  0  0  0
    9.3570   -3.5730   26.3860 C   0  0  0  0  0  0  0  0  0  0  0  0
    6.0550   -3.9310   20.2290 C   0  0  0  0  0  0  0  0  0  0  0  0
    7.0240   -0.6660   21.1590 N   0  0  0  0  0  0  0  0  0  0  0  0
    9.4570   -4.6730   27.2510 C   0  0  0  0  0  0  0  0  0  0  0  0
    5.0770   -4.4940   19.8100 O   0  0  0  0  0  0  0  0  0  0  0  0
    7.0340   -3.2060   19.3000 C   0  0  0  0  0  0  0  0  0  0  0  0
    8.1300   -0.0440   21.7790 C   0  0  0  0  0  0  0  0  0  0  0  0
    6.3890    0.0270   20.0910 C   0  0  0  0  0  0  0  0  0  0  0  0
    8.6180    0.9980   21.3250 O   0  0  0  0  0  0  0  0  0  0  0  0
    8.7310   -0.6740   23.0340 C   0  0  0  0  0  0  0  0  0  0  0  0
    6.9390   -0.0450   18.8230 C   0  0  0  0  0  0  0  0  0  0  0  0
    5.2210    0.7900   20.2580 C   0  0  0  0  0  0  0  0  0  0  0  0
    4.5340    0.9380   21.5810 C   0  0  0  0  0  0  0  0  0  0  0  0
    6.3750    0.6340   17.6670 N   0  0  0  0  0  0  0  0  0  0  0  0
    4.6630    1.4490   19.1430 C   0  0  0  0  0  0  0  0  0  0  0  0
   10.2150   -0.5090   22.9980 C   0  0  0  0  0  0  0  0  0  0  0  0
    5.2620    1.3450   17.9000 C   0  0  0  0  0  0  0  0  0  0  0  0
   10.8430    0.5090   23.6990 C   0  0  0  0  0  0  0  0  0  0  0  0
   10.9780   -1.3880   22.2460 C   0  0  0  0  0  0  0  0  0  0  0  0
   12.2190    0.6650   23.6510 C   0  0  0  0  0  0  0  0  0  0  0  0
   12.3500   -1.2400   22.2000 C   0  0  0  0  0  0  0  0  0  0  0  0
   13.0340   -2.1860   21.4100 C   0  0  0  0  0  0  0  0  0  0  0  0
   12.9850   -0.2130   22.8960 C   0  0  0  0  0  0  0  0  0  0  0  0
   13.5590   -3.1700   20.6700 N   0  0  0  0  0  0  0  0  0  0  0  0
  1  2  1  0
  2  3  1  0
  1  4  2  0
  5  1  1  6
  5  6  1  0
  5  7  1  0
  2  8  1  0
  6  9  1  0
  7 10  1  0
  8 11  2  0
  8 12  1  0
  9 13  1  1
  9 14  1  0
 10 14  1  0
 11 15  1  0
 12 16  2  0
 14 17  1  0
 13 18  1  0
 15 19  2  0
 16 19  1  0
 17 20  2  0
 17 21  1  0
 18 22  1  0
 18 23  1  0
 22 24  2  0
 22 25  1  0
 23 26  2  0
 23 27  1  0
 27 28  1  0
 26 29  1  0
 27 30  2  0
 25 31  1  0
 29 32  2  0
 30 32  1  0
 31 33  2  0
 31 34  1  0
 33 35  1  0
 34 36  2  0
 36 37  1  0
 35 38  2  0
 36 38  1  0
 37 39  3  0
M  END
