x2572-x1380
     RDKit          3D

 37 40  0  0  0  0  0  0  0  0999 V2000
    4.5110    1.5040   21.4810 C   0  0  0  0  0  0  0  0  0  0  0  0
    5.2240    1.1120   20.2250 C   0  0  0  0  0  0  0  0  0  0  0  0
    6.3340    0.2650   20.2230 C   0  0  0  0  0  0  0  0  0  0  0  0
    4.7250    1.6410   19.0420 C   0  0  0  0  0  0  0  0  0  0  0  0
    6.8870   -0.3030   21.4080 N   0  0  0  0  0  0  0  0  0  0  0  0
    6.8620    0.0230   18.9420 C   0  0  0  0  0  0  0  0  0  0  0  0
    5.3410    1.3270   17.8540 C   0  0  0  0  0  0  0  0  0  0  0  0
    8.1120    0.1230   21.8500 C   0  0  0  0  0  0  0  0  0  0  0  0
    6.4100    0.5210   17.7880 N   0  0  0  0  0  0  0  0  0  0  0  0
    8.6180    1.2270   21.6450 O   0  0  0  0  0  0  0  0  0  0  0  0
    8.8500   -0.9410   22.6360 C   0  0  2  0  0  0  0  0  0  0  0  0
    8.0830   -1.5730   23.8430 C   0  0  0  0  0  0  0  0  0  0  0  0
   10.2630   -0.5810   22.8550 C   0  0  0  0  0  0  0  0  0  0  0  0
   10.7490    0.4500   23.6820 C   0  0  0  0  0  0  0  0  0  0  0  0
   11.1170   -1.3690   22.1350 C   0  0  0  0  0  0  0  0  0  0  0  0
    7.0720   -2.6710   23.3780 C   0  0  2  0  0  0  0  0  0  0  0  0
   12.1250    0.6480   23.7350 C   0  0  0  0  0  0  0  0  0  0  0  0
   12.4550   -1.1800   22.1890 C   0  0  0  0  0  0  0  0  0  0  0  0
    6.8920   -3.7230   24.2970 C   0  0  1  0  0  0  0  0  0  0  0  0
    7.4460   -3.1180   22.1250 C   0  0  0  0  0  0  0  0  0  0  0  0
   13.1530   -2.0840   21.3860 C   0  0  0  0  0  0  0  0  0  0  0  0
    6.0440   -3.3610   25.5230 C   0  0  0  0  0  0  0  0  0  0  0  0
   12.9580   -0.1640   22.9890 C   0  0  0  0  0  0  0  0  0  0  0  0
    6.6120   -4.1860   21.6310 N   0  0  0  0  0  0  0  0  0  0  0  0
    6.1390   -4.8460   23.8600 C   0  0  0  0  0  0  0  0  0  0  0  0
   13.5790   -2.9000   20.7210 N   0  0  0  0  0  0  0  0  0  0  0  0
    6.1560   -4.2080   20.3160 C   0  0  0  0  0  0  0  0  0  0  0  0
    4.8970   -2.9550   25.3380 O   0  0  0  0  0  0  0  0  0  0  0  0
    6.3250   -5.3180   22.5490 C   0  0  0  0  0  0  0  0  0  0  0  0
    6.5920   -3.4930   26.7620 N   0  0  0  0  0  0  0  0  0  0  0  0
    6.9380   -3.3390   19.3230 C   0  0  0  0  0  0  0  0  0  0  0  0
    5.2330   -4.9070   19.9630 O   0  0  0  0  0  0  0  0  0  0  0  0
    7.8480   -3.8770   27.0380 C   0  0  0  0  0  0  0  0  0  0  0  0
    5.6950   -3.5650   27.9150 C   0  0  0  0  0  0  0  0  0  0  0  0
    7.8850   -5.1900   27.5100 C   0  0  0  0  0  0  0  0  0  0  0  0
    5.7210   -4.8660   28.4400 C   0  0  0  0  0  0  0  0  0  0  0  0
    7.0330   -5.3190   28.6090 C   0  0  0  0  0  0  0  0  0  0  0  0
  1  2  1  0
  2  3  2  0
  2  4  1  0
  3  5  1  0
  3  6  1  0
  4  7  2  0
  5  8  1  0
  6  9  2  0
  7  9  1  0
  8 10  2  0
  8 11  1  0
 11 12  1  1
 11 13  1  0
 13 14  2  0
 13 15  1  0
 16 12  1  1
 14 17  1  0
 15 18  2  0
 16 19  1  0
 16 20  1  0
 18 21  1  0
 19 22  1  1
 17 23  2  0
 18 23  1  0
 20 24  1  0
 19 25  1  0
 21 26  3  0
 24 27  1  0
 22 28  2  0
 24 29  1  0
 25 29  1  0
 22 30  1  0
 27 31  1  0
 27 32  2  0
 30 33  1  0
 30 34  1  0
 33 35  1  0
 34 36  1  0
 35 37  1  0
 36 37  1  0
M  END
