x2572-x0734
     RDKit          3D

 38 41  0  0  0  0  0  0  0  0999 V2000
    4.6660    1.3870   21.6390 C   0  0  0  0  0  0  0  0  0  0  0  0
    5.2930    1.0720   20.3170 C   0  0  0  0  0  0  0  0  0  0  0  0
    6.4160    0.2560   20.1380 C   0  0  0  0  0  0  0  0  0  0  0  0
    4.7700    1.5930   19.1350 C   0  0  0  0  0  0  0  0  0  0  0  0
    6.9270   -0.2750   21.4150 N   0  0  0  0  0  0  0  0  0  0  0  0
    6.9930   -0.0350   18.8840 C   0  0  0  0  0  0  0  0  0  0  0  0
    5.3680    1.2890   17.9210 C   0  0  0  0  0  0  0  0  0  0  0  0
    8.2750   -0.1430   21.9280 C   0  0  0  0  0  0  0  0  0  0  0  0
    6.4470    0.5040   17.7870 N   0  0  0  0  0  0  0  0  0  0  0  0
    8.9300    0.8830   21.7450 O   0  0  0  0  0  0  0  0  0  0  0  0
    8.8700   -1.3670   22.6900 C   0  0  2  0  0  0  0  0  0  0  0  0
    7.9230   -1.9180   23.7970 C   0  0  0  0  0  0  0  0  0  0  0  0
   10.2970   -1.3560   23.0560 C   0  0  0  0  0  0  0  0  0  0  0  0
   10.7520   -1.3940   24.3730 C   0  0  0  0  0  0  0  0  0  0  0  0
   11.2340   -1.3290   22.0400 C   0  0  0  0  0  0  0  0  0  0  0  0
    6.8870   -2.9240   23.2230 C   0  0  2  0  0  0  0  0  0  0  0  0
   12.2450   -1.4130   24.6710 C   0  0  0  0  0  0  0  0  0  0  0  0
   12.5940   -1.3370   22.2540 C   0  0  0  0  0  0  0  0  0  0  0  0
    6.7830   -4.2300   23.9010 N   0  0  0  0  0  0  0  0  0  0  0  0
    7.3370   -3.2450   21.9590 C   0  0  0  0  0  0  0  0  0  0  0  0
   13.4400   -1.3000   21.1770 C   0  0  0  0  0  0  0  0  0  0  0  0
   13.1250   -1.3770   23.4890 C   0  0  0  0  0  0  0  0  0  0  0  0
    7.3950   -4.5620   25.0640 C   0  0  0  0  0  0  0  0  0  0  0  0
    6.4730   -4.1060   21.3590 N   0  0  0  0  0  0  0  0  0  0  0  0
    6.0180   -5.2380   23.3260 C   0  0  0  0  0  0  0  0  0  0  0  0
   14.2310   -1.0640   20.0140 N   0  0  0  0  0  0  0  0  0  0  0  0
    6.0640   -3.9170   20.0700 C   0  0  0  0  0  0  0  0  0  0  0  0
    6.6560   -4.8820   26.2260 C   0  0  0  0  0  0  0  0  0  0  0  0
    8.9430   -4.6300   25.2300 C   0  0  0  0  0  0  0  0  0  0  0  0
    6.4130   -5.4230   21.9860 C   0  0  0  0  0  0  0  0  0  0  0  0
    5.2960   -4.8480   26.1980 N   0  0  0  0  0  0  0  0  0  0  0  0
    4.9970   -4.3400   19.7020 O   0  0  0  0  0  0  0  0  0  0  0  0
    6.9960   -3.1940   19.1100 C   0  0  0  0  0  0  0  0  0  0  0  0
    9.5840   -5.0230   26.5520 C   0  0  0  0  0  0  0  0  0  0  0  0
    7.2650   -5.2430   27.4440 C   0  0  0  0  0  0  0  0  0  0  0  0
    4.6980   -5.7430   25.5830 O   0  0  0  0  0  0  0  0  0  0  0  0
    4.7500   -3.8630   26.7240 O   0  0  0  0  0  0  0  0  0  0  0  0
    8.7730   -5.3230   27.6300 C   0  0  0  0  0  0  0  0  0  0  0  0
  1  2  1  0
  2  3  2  0
  2  4  1  0
  3  5  1  0
  3  6  1  0
  4  7  2  0
  5  8  1  0
  6  9  2  0
  7  9  1  0
  8 10  2  0
  8 11  1  0
 11 12  1  1
 11 13  1  0
 13 14  2  0
 13 15  1  0
 16 12  1  1
 14 17  1  0
 15 18  2  0
 16 19  1  0
 16 20  1  0
 18 21  1  0
 17 22  2  0
 18 22  1  0
 19 23  1  0
 20 24  1  0
 19 25  1  0
 21 26  3  0
 24 27  1  0
 23 28  2  0
 23 29  1  0
 24 30  1  0
 25 30  1  0
 28 31  1  0
 27 32  2  0
 27 33  1  0
 29 34  2  0
 28 35  1  0
 31 36  2  0
 31 37  1  0
 34 38  1  0
 35 38  2  0
M  CHG  2  31   1  37  -1
M  END
