x2572-x0736
     RDKit          3D

 35 39  0  0  0  0  0  0  0  0999 V2000
    4.8370    1.0920   21.6830 C   0  0  0  0  0  0  0  0  0  0  0  0
    5.3610    0.9150   20.2900 C   0  0  0  0  0  0  0  0  0  0  0  0
    6.4860    0.1460   20.0090 C   0  0  0  0  0  0  0  0  0  0  0  0
    4.6900    1.5620   19.2220 C   0  0  0  0  0  0  0  0  0  0  0  0
    7.1100   -0.4510   21.1810 N   0  0  0  0  0  0  0  0  0  0  0  0
    6.9640   -0.0070   18.7420 C   0  0  0  0  0  0  0  0  0  0  0  0
    5.1280    1.4600   17.8750 C   0  0  0  0  0  0  0  0  0  0  0  0
    8.2190    0.2230   21.7100 C   0  0  0  0  0  0  0  0  0  0  0  0
    6.3460    0.6170   17.6110 N   0  0  0  0  0  0  0  0  0  0  0  0
    7.5060   -1.8660   21.4140 C   0  0  2  0  0  0  0  0  0  0  0  0
    8.6810    1.3120   21.3050 O   0  0  0  0  0  0  0  0  0  0  0  0
    8.8050   -0.6000   22.8310 C   0  0  1  0  0  0  0  0  0  0  0  0
    6.5190   -2.7560   21.1280 N   0  0  0  0  0  0  0  0  0  0  0  0
    8.2570   -2.0110   22.6390 C   0  0  1  0  0  0  0  0  0  0  0  0
    6.3080   -3.3340   19.8880 C   0  0  0  0  0  0  0  0  0  0  0  0
   10.2620   -0.4190   22.8660 C   0  0  0  0  0  0  0  0  0  0  0  0
    7.5750   -2.7150   23.5870 N   0  0  0  0  0  0  0  0  0  0  0  0
    6.1670   -3.6460   22.1340 C   0  0  0  0  0  0  0  0  0  0  0  0
    7.3230   -3.0400   18.7960 C   0  0  0  0  0  0  0  0  0  0  0  0
    5.3570   -4.0960   19.6870 O   0  0  0  0  0  0  0  0  0  0  0  0
    7.1230   -2.1510   24.7900 C   0  0  0  0  0  0  0  0  0  0  0  0
   10.8160    0.6520   23.5660 C   0  0  0  0  0  0  0  0  0  0  0  0
   11.0910   -1.2990   22.1920 C   0  0  0  0  0  0  0  0  0  0  0  0
    7.0470   -3.8570   23.1750 C   0  0  0  0  0  0  0  0  0  0  0  0
    5.9790   -2.3960   25.1640 O   0  0  0  0  0  0  0  0  0  0  0  0
   12.3230    0.8570   23.5750 C   0  0  0  0  0  0  0  0  0  0  0  0
   12.4600   -1.2150   22.1350 C   0  0  0  0  0  0  0  0  0  0  0  0
    7.9700   -1.2940   25.5720 C   0  0  0  0  0  0  0  0  0  0  0  0
   13.0920   -2.2230   21.3850 C   0  0  0  0  0  0  0  0  0  0  0  0
   13.1290   -0.1820   22.7860 C   0  0  0  0  0  0  0  0  0  0  0  0
    8.4980   -0.0860   25.1440 O   0  0  0  0  0  0  0  0  0  0  0  0
    8.4000   -1.5010   26.8690 C   0  0  0  0  0  0  0  0  0  0  0  0
   13.6110   -3.3470   20.6170 N   0  0  0  0  0  0  0  0  0  0  0  0
    9.1780   -0.5060   27.3170 C   0  0  0  0  0  0  0  0  0  0  0  0
    9.2520    0.4600   26.1370 C   0  0  0  0  0  0  0  0  0  0  0  0
  1  2  1  0
  2  3  2  0
  2  4  1  0
  3  5  1  0
  3  6  1  0
  4  7  2  0
  5  8  1  0
  6  9  2  0
  7  9  1  0
 10  5  1  1
  8 11  2  0
  8 12  1  0
 10 13  1  0
 10 14  1  0
 12 14  1  0
 13 15  1  0
 12 16  1  6
 14 17  1  1
 13 18  1  0
 15 19  1  0
 15 20  2  0
 17 21  1  0
 16 22  2  0
 16 23  1  0
 17 24  1  0
 18 24  1  0
 21 25  2  0
 22 26  1  0
 23 27  2  0
 21 28  1  0
 27 29  1  0
 26 30  2  0
 27 30  1  0
 28 31  1  0
 28 32  2  0
 29 33  3  0
 32 34  1  0
 31 35  1  0
 34 35  2  0
M  END
