x2572-x1425
     RDKit          3D

 37 40  0  0  0  0  0  0  0  0999 V2000
    4.4910    1.0090   21.6760 C   0  0  0  0  0  0  0  0  0  0  0  0
    5.2090    0.8210   20.3090 C   0  0  0  0  0  0  0  0  0  0  0  0
    6.3690    0.0550   20.0770 C   0  0  0  0  0  0  0  0  0  0  0  0
    4.6750    1.4700   19.1780 C   0  0  0  0  0  0  0  0  0  0  0  0
    6.9520   -0.6160   21.2300 N   0  0  0  0  0  0  0  0  0  0  0  0
    6.9400   -0.0540   18.8120 C   0  0  0  0  0  0  0  0  0  0  0  0
    5.2110    1.3950   17.9140 C   0  0  0  0  0  0  0  0  0  0  0  0
    8.0650    0.0490   21.8550 C   0  0  0  0  0  0  0  0  0  0  0  0
    6.2300   -1.7120   21.9090 C   0  0  0  0  0  0  0  0  0  0  0  0
    6.4160    0.6060   17.6280 N   0  0  0  0  0  0  0  0  0  0  0  0
    8.5450    1.0630   21.3490 O   0  0  0  0  0  0  0  0  0  0  0  0
    8.6660   -0.5030   23.1550 C   0  0  0  0  0  0  0  0  0  0  0  0
    7.0390   -2.9850   22.1910 C   0  0  2  0  0  0  0  0  0  0  0  0
   10.1350   -0.3540   23.0880 C   0  0  0  0  0  0  0  0  0  0  0  0
    6.6240   -4.1800   21.4610 N   0  0  0  0  0  0  0  0  0  0  0  0
    6.9550   -3.1500   23.5670 C   0  0  0  0  0  0  0  0  0  0  0  0
    6.1710   -4.0130   20.1730 C   0  0  0  0  0  0  0  0  0  0  0  0
   10.8390    0.6730   23.7090 C   0  0  0  0  0  0  0  0  0  0  0  0
   10.9560   -1.3420   22.2980 C   0  0  0  0  0  0  0  0  0  0  0  0
    5.7190   -3.8740   23.9090 N   0  0  0  0  0  0  0  0  0  0  0  0
    6.3770   -5.4030   22.2370 C   0  0  0  0  0  0  0  0  0  0  0  0
    5.1210   -4.5070   19.8170 O   0  0  0  0  0  0  0  0  0  0  0  0
    7.0500   -3.2300   19.2090 C   0  0  0  0  0  0  0  0  0  0  0  0
   12.3630    0.7640   23.5620 C   0  0  0  0  0  0  0  0  0  0  0  0
   12.3260   -1.1980   22.2140 C   0  0  0  0  0  0  0  0  0  0  0  0
    4.9520   -3.4850   24.9640 C   0  0  0  0  0  0  0  0  0  0  0  0
    5.4710   -5.1720   23.2590 C   0  0  0  0  0  0  0  0  0  0  0  0
   13.0200   -2.1590   21.4520 C   0  0  0  0  0  0  0  0  0  0  0  0
   13.0470   -0.1690   22.8240 C   0  0  0  0  0  0  0  0  0  0  0  0
    5.5190   -2.6010   26.0260 C   0  0  0  0  0  0  0  0  0  0  0  0
    3.6210   -3.8980   25.0850 C   0  0  0  0  0  0  0  0  0  0  0  0
   13.5890   -3.2360   20.6570 N   0  0  0  0  0  0  0  0  0  0  0  0
    4.7420   -2.2030   27.1010 C   0  0  0  0  0  0  0  0  0  0  0  0
    2.8740   -3.4660   26.2010 C   0  0  0  0  0  0  0  0  0  0  0  0
    3.4100   -2.6440   27.1840 C   0  0  0  0  0  0  0  0  0  0  0  0
    2.7440   -2.1910   28.2900 O   0  0  0  0  0  0  0  0  0  0  0  0
    1.3310   -2.3340   28.2880 C   0  0  0  0  0  0  0  0  0  0  0  0
  1  2  1  0
  2  3  2  0
  2  4  1  0
  3  5  1  0
  3  6  1  0
  4  7  2  0
  5  8  1  0
  5  9  1  0
  6 10  2  0
  7 10  1  0
  8 11  2  0
  8 12  1  0
 13  9  1  6
 12 14  1  0
 13 15  1  0
 13 16  1  0
 15 17  1  0
 14 18  2  0
 14 19  1  0
 16 20  1  0
 15 21  1  0
 17 22  2  0
 17 23  1  0
 18 24  1  0
 19 25  2  0
 20 26  1  0
 20 27  1  0
 21 27  1  0
 25 28  1  0
 24 29  2  0
 25 29  1  0
 26 30  2  0
 26 31  1  0
 28 32  3  0
 30 33  1  0
 31 34  2  0
 33 35  2  0
 34 35  1  0
 35 36  1  0
 36 37  1  0
M  END
