x2572-x1348
     RDKit          3D

 36 39  0  0  0  0  0  0  0  0999 V2000
    4.2870    1.8310   21.5110 C   0  0  0  0  0  0  0  0  0  0  0  0
    5.0130    1.3810   20.2820 C   0  0  0  0  0  0  0  0  0  0  0  0
    6.2790    0.5220   20.2330 C   0  0  0  0  0  0  0  0  0  0  0  0
    4.5560    1.7430   19.0590 C   0  0  0  0  0  0  0  0  0  0  0  0
    6.7930    0.1370   21.5380 N   0  0  0  0  0  0  0  0  0  0  0  0
    6.8950    0.1430   19.0230 C   0  0  0  0  0  0  0  0  0  0  0  0
    5.2820    1.3030   17.8170 C   0  0  0  0  0  0  0  0  0  0  0  0
    8.1820    0.3560   21.7270 C   0  0  0  0  0  0  0  0  0  0  0  0
    6.0880   -0.8320   22.3890 C   0  0  0  0  0  0  0  0  0  0  0  0
    6.3970    0.5420   17.7450 N   0  0  0  0  0  0  0  0  0  0  0  0
    8.8230    1.2730   21.1860 O   0  0  0  0  0  0  0  0  0  0  0  0
    8.8300   -0.6450   22.6760 C   0  0  0  0  0  0  0  0  0  0  0  0
    5.4680   -2.0040   21.4830 C   0  0  0  0  0  0  0  0  0  0  0  0
    6.2890   -3.2210   21.4450 N   0  0  0  0  0  0  0  0  0  0  0  0
   10.2840   -0.4930   22.6280 C   0  0  0  0  0  0  0  0  0  0  0  0
    6.2910   -3.7530   20.1820 C   0  0  0  0  0  0  0  0  0  0  0  0
   10.9560    0.7510   23.1940 C   0  0  0  0  0  0  0  0  0  0  0  0
   11.0650   -1.4740   22.0610 C   0  0  0  0  0  0  0  0  0  0  0  0
    6.0400   -4.0690   22.5140 C   0  0  0  0  0  0  0  0  0  0  0  0
    5.5260   -4.6720   19.9190 O   0  0  0  0  0  0  0  0  0  0  0  0
    7.1970   -3.1500   19.1120 C   0  0  0  0  0  0  0  0  0  0  0  0
   12.3010    0.9070   23.1690 C   0  0  0  0  0  0  0  0  0  0  0  0
   12.5540   -1.3110   22.0090 C   0  0  0  0  0  0  0  0  0  0  0  0
    6.6140   -4.1330   23.8570 N   0  0  0  0  0  0  0  0  0  0  0  0
    4.7450   -5.3390   22.3440 S   0  0  0  0  0  0  0  0  0  0  0  0
   13.1780   -2.3910   21.3670 C   0  0  0  0  0  0  0  0  0  0  0  0
   13.1640   -0.1730   22.5470 C   0  0  0  0  0  0  0  0  0  0  0  0
    5.9580   -5.0980   24.6400 C   0  0  0  0  0  0  0  0  0  0  0  0
    4.9230   -5.8180   23.9630 C   0  0  0  0  0  0  0  0  0  0  0  0
   13.6850   -3.5340   20.6160 N   0  0  0  0  0  0  0  0  0  0  0  0
    6.2270   -5.3790   25.9910 C   0  0  0  0  0  0  0  0  0  0  0  0
    4.1350   -6.8040   24.5710 C   0  0  0  0  0  0  0  0  0  0  0  0
    7.1930   -4.7850   26.7950 O   0  0  0  0  0  0  0  0  0  0  0  0
    4.3720   -7.0780   25.9030 C   0  0  0  0  0  0  0  0  0  0  0  0
    5.4760   -6.3400   26.6850 C   0  0  0  0  0  0  0  0  0  0  0  0
    7.8470   -5.5960   27.7800 C   0  0  0  0  0  0  0  0  0  0  0  0
  1  2  1  0
  2  3  2  0
  2  4  1  0
  3  5  1  0
  3  6  1  0
  4  7  2  0
  5  8  1  0
  5  9  1  0
  6 10  2  0
  7 10  1  0
  8 11  2  0
  8 12  1  0
  9 13  1  0
 13 14  1  0
 12 15  1  0
 14 16  1  0
 15 17  2  0
 15 18  1  0
 14 19  1  0
 16 20  2  0
 16 21  1  0
 17 22  1  0
 18 23  2  0
 19 24  2  0
 19 25  1  0
 23 26  1  0
 22 27  2  0
 23 27  1  0
 24 28  1  0
 25 29  1  0
 28 29  2  0
 26 30  3  0
 28 31  1  0
 29 32  1  0
 31 33  1  0
 32 34  2  0
 31 35  2  0
 34 35  1  0
 33 36  1  0
M  END
