x2572-x1374
     RDKit          3D

 40 43  0  0  0  0  0  0  0  0999 V2000
   10.3500   -3.8930   26.0430 C   0  0  0  0  0  0  0  0  0  0  0  0
    9.4280   -4.3460   24.9690 C   0  0  0  0  0  0  0  0  0  0  0  0
    9.4240   -5.6770   24.6080 C   0  0  0  0  0  0  0  0  0  0  0  0
    8.5870   -3.4230   24.3510 C   0  0  0  0  0  0  0  0  0  0  0  0
    7.7210   -3.8280   23.3450 C   0  0  0  0  0  0  0  0  0  0  0  0
    8.5740   -6.0860   23.5970 C   0  0  0  0  0  0  0  0  0  0  0  0
    6.7240   -2.9840   22.5710 C   0  0  1  0  0  0  0  0  0  0  0  0
    7.7610   -5.1660   23.0010 C   0  0  0  0  0  0  0  0  0  0  0  0
    5.9290   -3.9080   21.8670 N   0  0  0  0  0  0  0  0  0  0  0  0
    6.1970   -1.8530   23.1770 C   0  0  0  0  0  0  0  0  0  0  0  0
    6.1110   -4.1540   20.4880 C   0  0  0  0  0  0  0  0  0  0  0  0
    5.8800   -0.7560   22.3580 C   0  0  0  0  0  0  0  0  0  0  0  0
    4.9660   -4.8320   22.6220 C   0  0  2  0  0  0  0  0  0  0  0  0
    5.4270   -5.0390   20.0130 O   0  0  0  0  0  0  0  0  0  0  0  0
    7.0920   -3.3340   19.5810 C   0  0  0  0  0  0  0  0  0  0  0  0
    6.8820   -0.3090   21.3610 N   0  0  0  0  0  0  0  0  0  0  0  0
    4.7920   -4.4080   23.9530 C   0  0  0  0  0  0  0  0  0  0  0  0
    5.0820   -6.3630   22.6230 C   0  0  0  0  0  0  0  0  0  0  0  0
    8.1240    0.1780   21.7900 C   0  0  0  0  0  0  0  0  0  0  0  0
    3.9080   -6.6960   23.9460 S   0  0  0  0  0  0  0  0  0  0  0  0
    4.2180   -5.2890   24.7980 C   0  0  0  0  0  0  0  0  0  0  0  0
    6.3640    0.2610   20.1640 C   0  0  0  0  0  0  0  0  0  0  0  0
    2.5940   -6.7200   23.3290 O   0  0  0  0  0  0  0  0  0  0  0  0
    4.3920   -7.8290   24.7110 O   0  0  0  0  0  0  0  0  0  0  0  0
    8.7690    1.1300   21.2680 O   0  0  0  0  0  0  0  0  0  0  0  0
    8.6310   -0.4660   22.9050 C   0  0  0  0  0  0  0  0  0  0  0  0
    6.8980   -0.1200   18.9300 C   0  0  0  0  0  0  0  0  0  0  0  0
    5.3160    1.1990   20.2120 C   0  0  0  0  0  0  0  0  0  0  0  0
    4.6880    1.6670   21.4860 C   0  0  0  0  0  0  0  0  0  0  0  0
    6.3410    0.4850   17.7060 N   0  0  0  0  0  0  0  0  0  0  0  0
    4.8120    1.7450   19.0310 C   0  0  0  0  0  0  0  0  0  0  0  0
   10.0880   -0.3450   23.0410 C   0  0  0  0  0  0  0  0  0  0  0  0
    5.3430    1.3690   17.8300 C   0  0  0  0  0  0  0  0  0  0  0  0
   10.6450    0.4680   24.0030 C   0  0  0  0  0  0  0  0  0  0  0  0
   10.8970   -1.0440   22.1950 C   0  0  0  0  0  0  0  0  0  0  0  0
   12.0190    0.5870   24.0960 C   0  0  0  0  0  0  0  0  0  0  0  0
   12.2460   -0.8840   22.3450 C   0  0  0  0  0  0  0  0  0  0  0  0
   13.0670   -1.5310   21.5220 C   0  0  0  0  0  0  0  0  0  0  0  0
   12.8260   -0.0890   23.2660 C   0  0  0  0  0  0  0  0  0  0  0  0
   13.8690   -2.0450   20.5410 N   0  0  0  0  0  0  0  0  0  0  0  0
  1  2  1  0
  2  3  2  0
  2  4  1  0
  4  5  2  0
  3  6  1  0
  5  7  1  0
  5  8  1  0
  6  8  2  0
  7  9  1  0
  7 10  1  1
  9 11  1  0
 10 12  1  0
 13  9  1  1
 11 14  2  0
 11 15  1  0
 12 16  1  0
 13 17  1  0
 13 18  1  0
 16 19  1  0
 18 20  1  0
 17 21  2  0
 20 21  1  0
 16 22  1  0
 20 23  1  0
 20 24  1  0
 19 25  2  0
 19 26  1  0
 22 27  2  0
 22 28  1  0
 28 29  1  0
 27 30  1  0
 28 31  2  0
 26 32  1  0
 30 33  2  0
 31 33  1  0
 32 34  2  0
 32 35  1  0
 34 36  1  0
 35 37  2  0
 37 38  1  0
 36 39  2  0
 37 39  1  0
 38 40  3  0
M  END
