x2572-x0981
     RDKit          3D

 37 38  0  0  0  0  0  0  0  0999 V2000
    1.2380   -8.6840   21.4280 C   0  0  0  0  0  0  0  0  0  0  0  0
    1.3970   -7.3810   22.1690 C   0  0  0  0  0  0  0  0  0  0  0  0
    2.6510   -7.1170   22.7060 N   0  0  0  0  0  0  0  0  0  0  0  0
    0.4800   -6.5730   22.2790 O   0  0  0  0  0  0  0  0  0  0  0  0
    2.8590   -5.9730   23.5960 C   0  0  1  0  0  0  0  0  0  0  0  0
    2.7610   -6.4040   25.0630 C   0  0  0  0  0  0  0  0  0  0  0  0
    4.2280   -5.2590   23.3320 C   0  0  0  0  0  0  0  0  0  0  0  0
    5.1780   -5.8540   22.3650 N   0  0  0  0  0  0  0  0  0  0  0  0
    4.5000   -4.2190   23.9240 O   0  0  0  0  0  0  0  0  0  0  0  0
    3.1070   -7.7110   25.3150 C   0  0  0  0  0  0  0  0  0  0  0  0
    2.4390   -8.3380   26.3510 N   0  0  0  0  0  0  0  0  0  0  0  0
    3.9680   -8.2020   24.6150 O   0  0  0  0  0  0  0  0  0  0  0  0
    6.4110   -5.1510   21.8640 C   0  0  1  0  0  0  0  0  0  0  0  0
    6.4460   -5.1960   20.3320 C   0  0  0  0  0  0  0  0  0  0  0  0
    6.7270   -3.7970   22.5140 C   0  0  0  0  0  0  0  0  0  0  0  0
    5.7230   -6.1900   19.8490 C   0  0  0  0  0  0  0  0  0  0  0  0
    6.1160   -2.4850   21.9250 C   0  0  0  0  0  0  0  0  0  0  0  0
    6.9430   -1.7500   21.0790 C   0  0  0  0  0  0  0  0  0  0  0  0
    7.0180   -0.4080   21.1680 N   0  0  0  0  0  0  0  0  0  0  0  0
    8.2170    0.2950   21.7230 C   0  0  0  0  0  0  0  0  0  0  0  0
    6.4000    0.2210   20.1050 C   0  0  0  0  0  0  0  0  0  0  0  0
    8.7970    1.3140   21.2650 O   0  0  0  0  0  0  0  0  0  0  0  0
    8.6510   -0.3560   22.8900 C   0  0  0  0  0  0  0  0  0  0  0  0
    6.8800    0.0250   18.8130 C   0  0  0  0  0  0  0  0  0  0  0  0
    5.2890    1.0590   20.2890 C   0  0  0  0  0  0  0  0  0  0  0  0
    4.7270    1.3170   21.6530 C   0  0  0  0  0  0  0  0  0  0  0  0
    6.3410    0.6150   17.6200 N   0  0  0  0  0  0  0  0  0  0  0  0
    4.6350    1.7140   19.2160 C   0  0  0  0  0  0  0  0  0  0  0  0
   10.1390   -0.2790   22.9560 C   0  0  0  0  0  0  0  0  0  0  0  0
    5.2930    1.3970   17.8550 C   0  0  0  0  0  0  0  0  0  0  0  0
   10.7850    0.6840   23.7290 C   0  0  0  0  0  0  0  0  0  0  0  0
   10.9380   -1.1520   22.2550 C   0  0  0  0  0  0  0  0  0  0  0  0
   12.1810    0.6850   23.7190 C   0  0  0  0  0  0  0  0  0  0  0  0
   12.3130   -1.1670   22.2390 C   0  0  0  0  0  0  0  0  0  0  0  0
   12.9760   -2.1340   21.4620 C   0  0  0  0  0  0  0  0  0  0  0  0
   12.9580   -0.2120   22.9970 C   0  0  0  0  0  0  0  0  0  0  0  0
   13.5390   -3.1240   20.7020 N   0  0  0  0  0  0  0  0  0  0  0  0
  1  2  1  0
  2  3  1  0
  2  4  2  0
  3  5  1  0
  5  6  1  1
  5  7  1  0
  7  8  1  0
  7  9  2  0
  6 10  1  0
 10 11  1  0
 10 12  2  0
  8 13  1  0
 13 14  1  6
 13 15  1  0
 14 16  2  3
 15 17  1  0
 17 18  1  0
 18 19  1  0
 19 20  1  0
 19 21  1  0
 20 22  2  0
 20 23  1  0
 21 24  2  0
 21 25  1  0
 25 26  1  0
 24 27  1  0
 25 28  2  0
 23 29  1  0
 27 30  2  0
 28 30  1  0
 29 31  2  0
 29 32  1  0
 31 33  1  0
 32 34  2  0
 34 35  1  0
 33 36  2  0
 34 36  1  0
 35 37  3  0
M  END
