x2572-x0731
     RDKit          3D

 40 43  0  0  0  0  0  0  0  0999 V2000
    1.0240   -1.0040   26.1550 C   0  0  0  0  0  0  0  0  0  0  0  0
    2.0720   -2.0680   26.0630 C   0  0  0  0  0  0  0  0  0  0  0  0
    3.3390   -1.8070   26.6010 C   0  0  0  0  0  0  0  0  0  0  0  0
    1.7900   -3.3130   25.4520 C   0  0  0  0  0  0  0  0  0  0  0  0
    2.8080   -4.2930   25.4060 C   0  0  0  0  0  0  0  0  0  0  0  0
    4.3880   -2.9320   26.5080 C   0  0  0  0  0  0  0  0  0  0  0  0
    4.0890   -4.1140   25.9300 C   0  0  0  0  0  0  0  0  0  0  0  0
    5.3160   -5.3950   25.8580 S   0  0  0  0  0  0  0  0  0  0  0  0
    6.4060   -4.9790   26.7120 O   0  0  0  0  0  0  0  0  0  0  0  0
    4.6540   -6.6630   26.0560 O   0  0  0  0  0  0  0  0  0  0  0  0
    5.8630   -5.3020   24.2790 N   0  0  0  0  0  0  0  0  0  0  0  0
    6.1730   -4.0820   23.8240 C   0  0  0  0  0  0  0  0  0  0  0  0
    5.3730   -6.1680   23.2980 C   0  0  0  0  0  0  0  0  0  0  0  0
    7.1510   -4.2010   22.8300 C   0  0  2  0  0  0  0  0  0  0  0  0
    6.1480   -6.2470   22.1480 C   0  0  0  0  0  0  0  0  0  0  0  0
    7.4340   -2.8060   22.3050 C   0  0  0  0  0  0  0  0  0  0  0  0
    6.7660   -5.1240   21.7260 N   0  0  0  0  0  0  0  0  0  0  0  0
    6.2540   -4.6200   20.5000 C   0  0  0  0  0  0  0  0  0  0  0  0
    8.0130   -1.6670   23.2810 C   0  0  0  0  0  0  0  0  0  0  0  0
    5.2600   -5.1150   20.0040 O   0  0  0  0  0  0  0  0  0  0  0  0
    6.9060   -3.5230   19.6490 C   0  0  0  0  0  0  0  0  0  0  0  0
    8.8760   -0.7460   22.4090 C   0  0  1  0  0  0  0  0  0  0  0  0
    8.2000    0.2990   21.5710 C   0  0  0  0  0  0  0  0  0  0  0  0
   10.2690   -0.4900   22.7540 C   0  0  0  0  0  0  0  0  0  0  0  0
    8.7160    1.4050   21.3250 O   0  0  0  0  0  0  0  0  0  0  0  0
    7.0010   -0.1630   21.1230 N   0  0  0  0  0  0  0  0  0  0  0  0
   10.7200    0.5020   23.6440 C   0  0  0  0  0  0  0  0  0  0  0  0
   11.1270   -1.3340   22.0850 C   0  0  0  0  0  0  0  0  0  0  0  0
    6.3590    0.3560   20.0390 C   0  0  0  0  0  0  0  0  0  0  0  0
   12.2270    0.6180   23.8320 C   0  0  0  0  0  0  0  0  0  0  0  0
   12.4570   -1.2760   22.2150 C   0  0  0  0  0  0  0  0  0  0  0  0
   13.1420   -2.2210   21.4390 C   0  0  0  0  0  0  0  0  0  0  0  0
    6.8670    0.1380   18.7510 C   0  0  0  0  0  0  0  0  0  0  0  0
    5.0990    1.1870   20.1560 C   0  0  0  0  0  0  0  0  0  0  0  0
   13.0640   -0.2380   23.1410 C   0  0  0  0  0  0  0  0  0  0  0  0
    4.4830    1.4630   21.5020 C   0  0  0  0  0  0  0  0  0  0  0  0
   13.6110   -3.2490   20.6370 N   0  0  0  0  0  0  0  0  0  0  0  0
    6.2880    0.6440   17.6670 N   0  0  0  0  0  0  0  0  0  0  0  0
    4.5700    1.6690   18.9770 C   0  0  0  0  0  0  0  0  0  0  0  0
    5.1870    1.3840   17.7830 C   0  0  0  0  0  0  0  0  0  0  0  0
  1  2  1  0
  2  3  2  0
  2  4  1  0
  4  5  2  0
  3  6  1  0
  5  7  1  0
  6  7  2  0
  8  7  1  0
  8  9  2  0
  8 10  2  0
  8 11  1  0
 11 12  1  0
 11 13  1  0
 12 14  1  0
 13 15  1  0
 14 16  1  6
 14 17  1  0
 15 17  1  0
 17 18  1  0
 16 19  1  0
 18 20  2  0
 18 21  1  0
 22 19  1  1
 22 23  1  0
 22 24  1  0
 23 25  2  0
 23 26  1  0
 24 27  2  0
 24 28  1  0
 26 29  1  0
 27 30  1  0
 28 31  2  0
 31 32  1  0
 29 33  2  0
 29 34  1  0
 30 35  2  0
 31 35  1  0
 34 36  1  0
 32 37  3  0
 33 38  1  0
 34 39  2  0
 38 40  2  0
 39 40  1  0
M  END
