x2572-x1478
     RDKit          3D

 31 33  0  0  0  0  0  0  0  0999 V2000
    4.7010    1.4930   21.5640 C   0  0  0  0  0  0  0  0  0  0  0  0
    5.3410    1.1000   20.2710 C   0  0  0  0  0  0  0  0  0  0  0  0
    6.5120    0.3320   20.1320 C   0  0  0  0  0  0  0  0  0  0  0  0
    4.6840    1.5650   19.1340 C   0  0  0  0  0  0  0  0  0  0  0  0
    7.3010   -0.1920   21.2030 N   0  0  0  0  0  0  0  0  0  0  0  0
    6.9070    0.0980   18.8110 C   0  0  0  0  0  0  0  0  0  0  0  0
    5.1980    1.2640   17.8880 C   0  0  0  0  0  0  0  0  0  0  0  0
    8.2870    0.5380   21.7890 C   0  0  0  0  0  0  0  0  0  0  0  0
    7.6400   -1.5980   21.0730 C   0  0  0  0  0  0  0  0  0  0  0  0
    6.2980    0.5330   17.7050 N   0  0  0  0  0  0  0  0  0  0  0  0
    8.8100    1.5690   21.3320 O   0  0  0  0  0  0  0  0  0  0  0  0
    8.7580   -0.0510   23.1050 C   0  0  0  0  0  0  0  0  0  0  0  0
    6.4900   -2.4880   21.1040 N   0  0  0  0  0  0  0  0  0  0  0  0
    6.3550   -3.2930   20.0310 C   0  0  0  0  0  0  0  0  0  0  0  0
   10.2430   -0.1020   23.0480 C   0  0  0  0  0  0  0  0  0  0  0  0
    5.8770   -2.8690   22.3540 C   0  0  0  0  0  0  0  0  0  0  0  0
    7.6390   -3.8270   19.5750 C   0  0  0  0  0  0  0  0  0  0  0  0
    5.3160   -3.6220   19.4570 O   0  0  0  0  0  0  0  0  0  0  0  0
   10.9770    0.8460   23.7310 C   0  0  0  0  0  0  0  0  0  0  0  0
   10.9040   -1.0800   22.3010 C   0  0  0  0  0  0  0  0  0  0  0  0
    5.6330   -4.3190   22.9310 C   0  0  0  0  0  0  0  0  0  0  0  0
    5.3610   -1.7280   23.2930 C   0  0  0  0  0  0  0  0  0  0  0  0
    6.0480   -5.8440   22.2440 Cl  0  0  0  0  0  0  0  0  0  0  0  0
   12.3420    0.8310   23.6650 C   0  0  0  0  0  0  0  0  0  0  0  0
   12.2890   -1.0810   22.2480 C   0  0  0  0  0  0  0  0  0  0  0  0
    5.0260   -4.5450   24.1180 N   0  0  0  0  0  0  0  0  0  0  0  0
    4.7590   -2.1340   24.4840 C   0  0  0  0  0  0  0  0  0  0  0  0
   12.9470   -2.0570   21.4810 C   0  0  0  0  0  0  0  0  0  0  0  0
   13.0080   -0.1200   22.9320 C   0  0  0  0  0  0  0  0  0  0  0  0
    4.6120   -3.4860   24.8480 C   0  0  0  0  0  0  0  0  0  0  0  0
   13.4360   -2.8480   20.8280 N   0  0  0  0  0  0  0  0  0  0  0  0
  1  2  1  0
  2  3  2  0
  2  4  1  0
  3  5  1  0
  3  6  1  0
  4  7  2  0
  5  8  1  0
  5  9  1  0
  6 10  2  0
  7 10  1  0
  8 11  2  0
  8 12  1  0
  9 13  1  0
 13 14  1  0
 12 15  1  0
 13 16  1  0
 14 17  1  0
 14 18  2  0
 15 19  2  0
 15 20  1  0
 16 21  2  0
 16 22  1  0
 21 23  1  0
 19 24  1  0
 20 25  2  0
 21 26  1  0
 22 27  2  0
 25 28  1  0
 24 29  2  0
 25 29  1  0
 26 30  2  0
 27 30  1  0
 28 31  3  0
M  END
