x2572-x1375
     RDKit          3D

 40 43  0  0  0  0  0  0  0  0999 V2000
    5.7370   -4.7040   20.0330 O   0  0  0  0  0  0  0  0  0  0  0  0
    6.5760   -4.4170   20.9270 C   0  0  0  0  0  0  0  0  0  0  0  0
    8.1060   -4.3160   20.7320 C   0  0  0  0  0  0  0  0  0  0  0  0
    6.0990   -4.1240   22.4010 C   0  0  2  0  0  0  0  0  0  0  0  0
    5.6070   -2.6610   22.2860 C   0  0  0  0  0  0  0  0  0  0  0  0
    7.3150   -4.2590   23.3350 C   0  0  0  0  0  0  0  0  0  0  0  0
    4.8990   -4.8530   22.9600 C   0  0  2  0  0  0  0  0  0  0  0  0
    5.8910   -2.0130   21.1110 C   0  0  0  0  0  0  0  0  0  0  0  0
    7.8170   -3.2140   24.1270 C   0  0  0  0  0  0  0  0  0  0  0  0
    7.9880   -5.4990   23.4200 C   0  0  0  0  0  0  0  0  0  0  0  0
    4.5380   -4.4450   24.2540 C   0  0  0  0  0  0  0  0  0  0  0  0
    4.9260   -6.3690   22.8690 C   0  0  0  0  0  0  0  0  0  0  0  0
    7.2230   -1.6030   20.9910 C   0  0  0  0  0  0  0  0  0  0  0  0
    8.9170   -3.3790   24.9550 C   0  0  0  0  0  0  0  0  0  0  0  0
    9.1110   -5.6480   24.2720 C   0  0  0  0  0  0  0  0  0  0  0  0
    3.7910   -6.7610   24.2020 S   0  0  0  0  0  0  0  0  0  0  0  0
    3.9350   -5.3320   25.0540 C   0  0  0  0  0  0  0  0  0  0  0  0
    2.4730   -6.9080   23.6140 O   0  0  0  0  0  0  0  0  0  0  0  0
    4.4040   -7.8410   24.9320 O   0  0  0  0  0  0  0  0  0  0  0  0
    7.2720   -0.1910   21.0650 N   0  0  0  0  0  0  0  0  0  0  0  0
    9.5810   -4.5820   25.0480 C   0  0  0  0  0  0  0  0  0  0  0  0
   10.6380   -4.7110   25.8600 F   0  0  0  0  0  0  0  0  0  0  0  0
    8.3110    0.4750   21.7150 C   0  0  0  0  0  0  0  0  0  0  0  0
    6.5520    0.3850   20.0120 C   0  0  0  0  0  0  0  0  0  0  0  0
    8.9490    1.4340   21.2330 O   0  0  0  0  0  0  0  0  0  0  0  0
    8.6290    0.0300   22.9980 C   0  0  0  0  0  0  0  0  0  0  0  0
    6.9060    0.2100   18.6880 C   0  0  0  0  0  0  0  0  0  0  0  0
    5.4180    1.1620   20.2700 C   0  0  0  0  0  0  0  0  0  0  0  0
    4.8940    1.4350   21.6510 C   0  0  0  0  0  0  0  0  0  0  0  0
    6.2830    0.7160   17.6200 N   0  0  0  0  0  0  0  0  0  0  0  0
    4.7380    1.7080   19.1670 C   0  0  0  0  0  0  0  0  0  0  0  0
   10.0990   -0.2310   23.2270 C   0  0  0  0  0  0  0  0  0  0  0  0
    5.2070    1.4620   17.8870 C   0  0  0  0  0  0  0  0  0  0  0  0
   10.6890    0.0490   24.4690 C   0  0  0  0  0  0  0  0  0  0  0  0
   10.9210   -0.7540   22.2300 C   0  0  0  0  0  0  0  0  0  0  0  0
   12.0470   -0.2040   24.6300 C   0  0  0  0  0  0  0  0  0  0  0  0
   12.2830   -0.9780   22.4540 C   0  0  0  0  0  0  0  0  0  0  0  0
   13.1110   -1.4790   21.4670 C   0  0  0  0  0  0  0  0  0  0  0  0
   12.8630   -0.7030   23.6630 C   0  0  0  0  0  0  0  0  0  0  0  0
   13.7670   -1.7920   20.6300 N   0  0  0  0  0  0  0  0  0  0  0  0
  1  2  2  0
  2  3  1  0
  4  2  1  0
  4  5  1  6
  4  6  1  0
  4  7  1  0
  5  8  1  0
  6  9  2  0
  6 10  1  0
  7 11  1  1
  7 12  1  0
  8 13  1  0
  9 14  1  0
 10 15  2  0
 12 16  1  0
 11 17  2  0
 16 17  1  0
 16 18  1  0
 16 19  1  0
 13 20  1  0
 14 21  2  0
 15 21  1  0
 21 22  1  0
 20 23  1  0
 20 24  1  0
 23 25  2  0
 23 26  1  0
 24 27  2  0
 24 28  1  0
 28 29  1  0
 27 30  1  0
 28 31  2  0
 26 32  1  0
 30 33  2  0
 31 33  1  0
 32 34  2  0
 32 35  1  0
 34 36  1  0
 35 37  2  0
 37 38  1  0
 36 39  2  0
 37 39  1  0
 38 40  3  0
M  END
