x2572-x1392
     RDKit          3D

 32 36  0  0  0  0  0  0  0  0999 V2000
    4.7970    1.2420   21.6960 C   0  0  0  0  0  0  0  0  0  0  0  0
    5.3740    0.9620   20.3330 C   0  0  0  0  0  0  0  0  0  0  0  0
    6.5370    0.1960   20.1320 C   0  0  0  0  0  0  0  0  0  0  0  0
    4.6970    1.5130   19.2220 C   0  0  0  0  0  0  0  0  0  0  0  0
    7.2450   -0.3570   21.2260 N   0  0  0  0  0  0  0  0  0  0  0  0
    6.9560    0.0210   18.8180 C   0  0  0  0  0  0  0  0  0  0  0  0
    5.1780    1.3020   17.9360 C   0  0  0  0  0  0  0  0  0  0  0  0
    8.3520    0.2110   21.7540 C   0  0  0  0  0  0  0  0  0  0  0  0
    6.2750    0.5810   17.6630 N   0  0  0  0  0  0  0  0  0  0  0  0
    7.6700   -1.7850   21.2270 C   0  0  2  0  0  0  0  0  0  0  0  0
    8.8740    1.3060   21.4580 O   0  0  0  0  0  0  0  0  0  0  0  0
    8.9240   -0.7640   22.7740 C   0  0  1  0  0  0  0  0  0  0  0  0
    6.5510   -2.7310   21.2100 N   0  0  0  0  0  0  0  0  0  0  0  0
    8.7390   -2.1790   22.2530 C   0  0  1  0  0  0  0  0  0  0  0  0
    6.3990   -3.4620   20.0130 C   0  0  0  0  0  0  0  0  0  0  0  0
   10.3130   -0.4080   22.9630 C   0  0  0  0  0  0  0  0  0  0  0  0
    8.4600   -3.1900   23.1690 C   0  0  0  0  0  0  0  0  0  0  0  0
    6.0210   -3.1470   22.5310 C   0  0  0  0  0  0  0  0  0  0  0  0
    5.5440   -4.3400   19.8660 O   0  0  0  0  0  0  0  0  0  0  0  0
    7.3810   -3.1020   18.8730 C   0  0  0  0  0  0  0  0  0  0  0  0
   10.7450    0.5630   23.8390 C   0  0  0  0  0  0  0  0  0  0  0  0
   11.2000   -1.0890   22.2000 C   0  0  0  0  0  0  0  0  0  0  0  0
    7.0070   -3.7150   23.3500 C   0  0  0  0  0  0  0  0  0  0  0  0
    9.4490   -3.7770   23.9650 C   0  0  0  0  0  0  0  0  0  0  0  0
   12.0830    0.8370   23.9140 C   0  0  0  0  0  0  0  0  0  0  0  0
   12.5010   -0.8140   22.2840 C   0  0  0  0  0  0  0  0  0  0  0  0
    6.7600   -4.7120   24.3020 C   0  0  0  0  0  0  0  0  0  0  0  0
    9.1480   -4.7770   24.9040 C   0  0  0  0  0  0  0  0  0  0  0  0
   13.2630   -1.5610   21.4410 C   0  0  0  0  0  0  0  0  0  0  0  0
   12.9790    0.1460   23.1290 C   0  0  0  0  0  0  0  0  0  0  0  0
    7.8310   -5.2310   25.0740 C   0  0  0  0  0  0  0  0  0  0  0  0
   13.7530   -2.1510   20.6650 N   0  0  0  0  0  0  0  0  0  0  0  0
  1  2  1  0
  2  3  2  0
  2  4  1  0
  3  5  1  0
  3  6  1  0
  4  7  2  0
  5  8  1  0
  6  9  2  0
  7  9  1  0
 10  5  1  1
  8 11  2  0
  8 12  1  0
 10 13  1  0
 10 14  1  0
 12 14  1  0
 13 15  1  0
 12 16  1  6
 14 17  1  1
 13 18  1  0
 15 19  2  0
 15 20  1  0
 16 21  2  0
 16 22  1  0
 17 23  2  0
 18 23  1  0
 17 24  1  0
 21 25  1  0
 22 26  2  0
 23 27  1  0
 24 28  2  0
 26 29  1  0
 25 30  2  0
 26 30  1  0
 27 31  2  0
 28 31  1  0
 29 32  3  0
M  END
