x2572-x0770
     RDKit          3D

 29 32  0  0  0  0  0  0  0  0999 V2000
    4.5630    1.4620   21.5060 C   0  0  0  0  0  0  0  0  0  0  0  0
    5.2400    1.1330   20.2170 C   0  0  0  0  0  0  0  0  0  0  0  0
    6.4170    0.3930   20.0870 C   0  0  0  0  0  0  0  0  0  0  0  0
    4.6230    1.6280   19.0720 C   0  0  0  0  0  0  0  0  0  0  0  0
    7.1700   -0.1590   21.1480 N   0  0  0  0  0  0  0  0  0  0  0  0
    6.8510    0.2240   18.7770 C   0  0  0  0  0  0  0  0  0  0  0  0
    5.1830    1.3820   17.8280 C   0  0  0  0  0  0  0  0  0  0  0  0
    8.2730    0.4490   21.6330 C   0  0  0  0  0  0  0  0  0  0  0  0
    6.2960    0.6790   17.6510 N   0  0  0  0  0  0  0  0  0  0  0  0
    7.4880   -1.5700   21.1710 C   0  0  2  0  0  0  0  0  0  0  0  0
    8.8240    1.4950   21.2520 O   0  0  0  0  0  0  0  0  0  0  0  0
    8.7960   -0.3790   22.7460 C   0  0  1  0  0  0  0  0  0  0  0  0
    6.3830   -2.5880   21.0840 N   0  0  0  0  0  0  0  0  0  0  0  0
    8.3630   -1.7840   22.2660 C   0  0  1  0  0  0  0  0  0  0  0  0
    6.1990   -3.3130   19.8930 C   0  0  0  0  0  0  0  0  0  0  0  0
   10.2700   -0.2560   22.8730 C   0  0  0  0  0  0  0  0  0  0  0  0
    8.0390   -2.5010   23.3570 N   0  0  0  0  0  0  0  0  0  0  0  0
    6.1030   -3.2740   22.3490 C   0  0  0  0  0  0  0  0  0  0  0  0
    7.2020   -3.0350   18.7730 C   0  0  0  0  0  0  0  0  0  0  0  0
    5.3170   -4.1660   19.7450 O   0  0  0  0  0  0  0  0  0  0  0  0
    9.2920   -2.8860   23.9920 C   0  0  0  0  0  0  0  0  0  0  0  0
   10.8780    0.7040   23.6710 C   0  0  0  0  0  0  0  0  0  0  0  0
   11.0480   -1.1370   22.1520 C   0  0  0  0  0  0  0  0  0  0  0  0
    7.2580   -3.6790   23.0220 C   0  0  0  0  0  0  0  0  0  0  0  0
   12.2550    0.7640   23.7180 C   0  0  0  0  0  0  0  0  0  0  0  0
   12.4090   -1.0710   22.2090 C   0  0  0  0  0  0  0  0  0  0  0  0
   13.0840   -2.0120   21.4260 C   0  0  0  0  0  0  0  0  0  0  0  0
   13.0280   -0.1180   22.9910 C   0  0  0  0  0  0  0  0  0  0  0  0
   13.5300   -2.8130   20.7610 N   0  0  0  0  0  0  0  0  0  0  0  0
  1  2  1  0
  2  3  2  0
  2  4  1  0
  3  5  1  0
  3  6  1  0
  4  7  2  0
  5  8  1  0
  6  9  2  0
  7  9  1  0
 10  5  1  1
  8 11  2  0
  8 12  1  0
 10 13  1  0
 10 14  1  0
 12 14  1  0
 13 15  1  0
 12 16  1  6
 14 17  1  1
 13 18  1  0
 15 19  1  0
 15 20  2  0
 17 21  1  0
 16 22  2  0
 16 23  1  0
 17 24  1  0
 18 24  1  0
 22 25  1  0
 23 26  2  0
 26 27  1  0
 25 28  2  0
 26 28  1  0
 27 29  3  0
M  END
