x2572-x1311
     RDKit          3D

 39 42  0  0  0  0  0  0  0  0999 V2000
    4.6700    1.4760   21.5540 C   0  0  0  0  0  0  0  0  0  0  0  0
    5.2500    1.2130   20.1980 C   0  0  0  0  0  0  0  0  0  0  0  0
    6.3420    0.3950   19.9900 C   0  0  0  0  0  0  0  0  0  0  0  0
    4.6780    1.8070   19.0710 C   0  0  0  0  0  0  0  0  0  0  0  0
    7.0180   -0.2710   20.9900 N   0  0  0  0  0  0  0  0  0  0  0  0
    6.8130    0.2130   18.5860 C   0  0  0  0  0  0  0  0  0  0  0  0
    5.1990    1.5740   17.7970 C   0  0  0  0  0  0  0  0  0  0  0  0
    8.1100    0.2830   21.6030 C   0  0  0  0  0  0  0  0  0  0  0  0
    6.7440   -1.6260   20.8550 C   0  0  0  0  0  0  0  0  0  0  0  0
    6.2540    0.7850   17.5300 N   0  0  0  0  0  0  0  0  0  0  0  0
    8.7420    1.2890   21.2220 O   0  0  0  0  0  0  0  0  0  0  0  0
    8.5410   -0.4650   22.8590 C   0  0  0  0  0  0  0  0  0  0  0  0
    5.5720   -2.1290   21.3380 C   0  0  0  0  0  0  0  0  0  0  0  0
    5.7320   -2.7200   22.5810 C   0  0  0  0  0  0  0  0  0  0  0  0
   10.0330   -0.2710   22.9940 C   0  0  0  0  0  0  0  0  0  0  0  0
    6.1800   -4.1920   22.4280 C   0  0  1  0  0  0  0  0  0  0  0  0
   10.5630    0.6540   23.9040 C   0  0  0  0  0  0  0  0  0  0  0  0
   10.8810   -0.9920   22.1940 C   0  0  0  0  0  0  0  0  0  0  0  0
    6.6520   -4.3870   20.9300 C   0  0  0  0  0  0  0  0  0  0  0  0
   11.9210    0.8460   23.9840 C   0  0  0  0  0  0  0  0  0  0  0  0
   12.3940   -0.7990   22.2600 C   0  0  0  0  0  0  0  0  0  0  0  0
    7.3290   -4.5630   23.3370 C   0  0  0  0  0  0  0  0  0  0  0  0
    4.9870   -5.0680   22.9540 C   0  0  1  0  0  0  0  0  0  0  0  0
   13.2040   -1.4990   21.4220 C   0  0  0  0  0  0  0  0  0  0  0  0
    5.8210   -4.5870   20.0090 O   0  0  0  0  0  0  0  0  0  0  0  0
    8.2010   -4.2730   20.7560 C   0  0  0  0  0  0  0  0  0  0  0  0
   12.8850    0.0980   23.1370 C   0  0  0  0  0  0  0  0  0  0  0  0
    8.0790   -5.7280   23.1210 C   0  0  0  0  0  0  0  0  0  0  0  0
    7.6570   -3.7540   24.4180 C   0  0  0  0  0  0  0  0  0  0  0  0
    4.4960   -6.1380   22.2660 C   0  0  0  0  0  0  0  0  0  0  0  0
    4.9740   -5.4290   24.4540 C   0  0  0  0  0  0  0  0  0  0  0  0
   13.8040   -1.9500   20.6330 N   0  0  0  0  0  0  0  0  0  0  0  0
    9.1420   -6.0720   23.9700 C   0  0  0  0  0  0  0  0  0  0  0  0
    8.6980   -4.0950   25.2500 C   0  0  0  0  0  0  0  0  0  0  0  0
    3.5750   -6.4960   24.5000 S   0  0  0  0  0  0  0  0  0  0  0  0
    3.6400   -6.9500   22.9280 C   0  0  0  0  0  0  0  0  0  0  0  0
    3.9510   -7.6510   25.3080 O   0  0  0  0  0  0  0  0  0  0  0  0
    2.3890   -5.7220   24.7750 O   0  0  0  0  0  0  0  0  0  0  0  0
    9.4530   -5.2410   25.0500 C   0  0  0  0  0  0  0  0  0  0  0  0
  1  2  1  0
  2  3  2  0
  2  4  1  0
  3  5  1  0
  3  6  1  0
  4  7  2  0
  5  8  1  0
  5  9  1  0
  6 10  2  0
  7 10  1  0
  8 11  2  0
  8 12  1  0
  9 13  1  0
 13 14  1  0
 12 15  1  0
 16 14  1  6
 15 17  2  0
 15 18  1  0
 16 19  1  0
 17 20  1  0
 18 21  2  0
 16 22  1  0
 16 23  1  0
 21 24  1  0
 19 25  2  0
 19 26  1  0
 20 27  2  0
 21 27  1  0
 22 28  2  0
 22 29  1  0
 23 30  1  6
 23 31  1  0
 24 32  3  0
 28 33  1  0
 29 34  2  0
 31 35  1  0
 30 36  2  0
 35 36  1  0
 35 37  1  0
 35 38  1  0
 33 39  2  0
 34 39  1  0
M  END
