x2581-x1308
     RDKit          3D

 43 47  0  0  0  0  0  0  0  0999 V2000
    7.4570   -3.4690   19.8800 C   0  0  0  0  0  0  0  0  0  0  0  0
    6.4990   -4.4350   20.6100 C   0  0  0  0  0  0  0  0  0  0  0  0
    5.4600   -4.7420   20.0050 O   0  0  0  0  0  0  0  0  0  0  0  0
    6.7730   -5.0030   21.8760 N   0  0  0  0  0  0  0  0  0  0  0  0
    7.4320   -4.4430   23.0700 C   0  0  1  0  0  0  0  0  0  0  0  0
    5.9480   -6.2260   22.1870 C   0  0  0  0  0  0  0  0  0  0  0  0
    8.0960   -3.0730   22.8880 C   0  0  0  0  0  0  0  0  0  0  0  0
    6.3810   -4.2600   24.1530 C   0  0  0  0  0  0  0  0  0  0  0  0
    5.0580   -6.0590   23.3200 C   0  0  0  0  0  0  0  0  0  0  0  0
    9.4360   -3.1870   22.5010 C   0  0  0  0  0  0  0  0  0  0  0  0
    5.8110   -5.4430   24.4440 N   0  0  0  0  0  0  0  0  0  0  0  0
    5.1970   -5.6210   25.7950 S   0  0  0  0  0  0  0  0  0  0  0  0
   10.5020   -2.5540   23.3840 C   0  0  0  0  0  0  0  0  0  0  0  0
    6.3350   -5.2090   26.5670 O   0  0  0  0  0  0  0  0  0  0  0  0
    4.5680   -6.9090   25.9230 O   0  0  0  0  0  0  0  0  0  0  0  0
   10.1000   -1.2750   23.8590 O   0  0  0  0  0  0  0  0  0  0  0  0
    4.0150   -4.4080   25.9690 C   0  0  0  0  0  0  0  0  0  0  0  0
    4.3630   -3.1070   26.3860 C   0  0  0  0  0  0  0  0  0  0  0  0
    2.5560   -4.7180   25.6800 C   0  0  0  0  0  0  0  0  0  0  0  0
    9.7260   -0.2840   22.9900 C   0  0  0  0  0  0  0  0  0  0  0  0
    3.2620   -2.0400   26.5450 C   0  0  0  0  0  0  0  0  0  0  0  0
    1.4830   -3.6510   25.8440 C   0  0  0  0  0  0  0  0  0  0  0  0
   10.3560    0.9300   22.9920 C   0  0  0  0  0  0  0  0  0  0  0  0
    8.6530   -0.6560   22.1490 C   0  0  0  0  0  0  0  0  0  0  0  0
    1.7880   -2.3610   26.2610 C   0  0  0  0  0  0  0  0  0  0  0  0
    9.9900    2.0660   22.1370 C   0  0  0  0  0  0  0  0  0  0  0  0
    8.4110    0.5290   21.3640 C   0  0  0  0  0  0  0  0  0  0  0  0
    0.6390   -1.1130   26.4880 Cl  0  0  0  0  0  0  0  0  0  0  0  0
   10.5960    3.3100   22.1210 N   0  0  0  0  0  0  0  0  0  0  0  0
    9.0040    1.8880   21.2980 N   0  0  0  0  0  0  0  0  0  0  0  0
   11.2060    4.0650   23.0620 C   0  0  0  0  0  0  0  0  0  0  0  0
   11.1190    3.7630   24.2340 O   0  0  0  0  0  0  0  0  0  0  0  0
   11.9360    5.2960   22.6640 C   0  0  0  0  0  0  0  0  0  0  0  0
   11.1460    6.4170   23.2670 C   0  0  0  0  0  0  0  0  0  0  0  0
    9.8890    6.8270   22.7710 C   0  0  0  0  0  0  0  0  0  0  0  0
   11.7010    7.1390   24.4630 C   0  0  0  0  0  0  0  0  0  0  0  0
    9.1110    7.8640   23.3070 C   0  0  0  0  0  0  0  0  0  0  0  0
   10.9310    8.2460   25.0660 C   0  0  0  0  0  0  0  0  0  0  0  0
    9.5920    8.5790   24.4230 C   0  0  0  0  0  0  0  0  0  0  0  0
   11.4320    8.9470   26.1750 C   0  0  0  0  0  0  0  0  0  0  0  0
    8.8100    9.6260   24.9360 C   0  0  0  0  0  0  0  0  0  0  0  0
   10.6360   10.0940   26.7770 C   0  0  0  0  0  0  0  0  0  0  0  0
    9.2880   10.4470   26.1420 C   0  0  0  0  0  0  0  0  0  0  0  0
  1  2  1  0
  2  3  2  0
  2  4  1  0
  4  5  1  0
  4  6  1  0
  5  7  1  6
  5  8  1  0
  6  9  1  0
  7 10  1  0
  8 11  1  0
  9 11  1  0
 11 12  1  0
 10 13  1  0
 12 14  2  0
 12 15  2  0
 13 16  1  0
 12 17  1  0
 17 18  2  0
 17 19  1  0
 16 20  1  0
 18 21  1  0
 19 22  2  0
 20 23  2  0
 20 24  1  0
 21 25  2  0
 22 25  1  0
 23 26  1  0
 24 27  2  0
 25 28  1  0
 26 29  1  0
 26 30  2  0
 27 30  1  0
 29 31  1  0
 31 32  2  0
 31 33  1  0
 33 34  1  0
 34 35  2  0
 34 36  1  0
 35 37  1  0
 36 38  2  0
 37 39  2  0
 38 39  1  0
 38 40  1  0
 39 41  1  0
 40 42  2  0
 41 43  2  0
 42 43  1  0
M  END
