x2581-x0705
     RDKit          3D

 40 44  0  0  0  0  0  0  0  0999 V2000
    9.3110   -1.9720   24.3030 C   0  0  0  0  0  0  0  0  0  0  0  0
   10.1430   -1.4080   23.5710 O   0  0  0  0  0  0  0  0  0  0  0  0
    9.6720   -0.4010   22.7960 C   0  0  0  0  0  0  0  0  0  0  0  0
    7.9580   -2.1150   23.5930 C   0  0  2  0  0  0  0  0  0  0  0  0
    6.8210   -2.5020   24.5000 N   0  0  0  0  0  0  0  0  0  0  0  0
    7.9550   -3.2000   22.5300 C   0  0  0  0  0  0  0  0  0  0  0  0
    6.6150   -1.8660   25.7220 C   0  0  0  0  0  0  0  0  0  0  0  0
   10.1820    1.0600   23.0300 C   0  0  0  0  0  0  0  0  0  0  0  0
    8.6350   -0.4730   21.6500 C   0  0  0  0  0  0  0  0  0  0  0  0
    6.7110   -3.1300   21.7240 N   0  0  0  0  0  0  0  0  0  0  0  0
    5.5170   -2.7320   23.8090 C   0  0  0  0  0  0  0  0  0  0  0  0
    7.5840   -1.0910   26.4140 O   0  0  0  0  0  0  0  0  0  0  0  0
    6.8300   -3.7130   20.4910 C   0  0  0  0  0  0  0  0  0  0  0  0
    9.6950    2.2700   22.2070 C   0  0  0  0  0  0  0  0  0  0  0  0
    8.1730    0.7570   20.8750 C   0  0  0  0  0  0  0  0  0  0  0  0
    5.2000   -2.0300   26.2870 C   0  0  0  0  0  0  0  0  0  0  0  0
    5.6120   -3.5720   22.5410 C   0  0  0  0  0  0  0  0  0  0  0  0
   10.1830    3.6300   22.4270 N   0  0  0  0  0  0  0  0  0  0  0  0
    6.0100   -3.5630   19.5480 O   0  0  0  0  0  0  0  0  0  0  0  0
    8.0020   -4.5840   20.3970 C   0  0  0  0  0  0  0  0  0  0  0  0
    8.7100    2.0790   21.1580 N   0  0  0  0  0  0  0  0  0  0  0  0
    4.0860   -1.1880   25.7720 C   0  0  0  0  0  0  0  0  0  0  0  0
    4.8710   -3.0680   27.3820 C   0  0  0  0  0  0  0  0  0  0  0  0
   11.4640    3.8690   23.0030 C   0  0  0  0  0  0  0  0  0  0  0  0
    2.7190   -1.4000   26.3470 C   0  0  0  0  0  0  0  0  0  0  0  0
    3.5540   -3.1970   27.8630 C   0  0  0  0  0  0  0  0  0  0  0  0
   11.9340    2.9200   23.5960 O   0  0  0  0  0  0  0  0  0  0  0  0
   12.0990    5.1070   22.8650 C   0  0  0  0  0  0  0  0  0  0  0  0
    2.4900   -2.3850   27.3600 C   0  0  0  0  0  0  0  0  0  0  0  0
    1.0970   -2.5560   27.8980 C   0  0  0  0  0  0  0  0  0  0  0  0
   11.2620    6.2500   23.3980 C   0  0  0  0  0  0  0  0  0  0  0  0
   10.0170    6.5830   22.8230 C   0  0  0  0  0  0  0  0  0  0  0  0
   11.7310    7.0200   24.5060 C   0  0  0  0  0  0  0  0  0  0  0  0
    9.1490    7.7360   23.3180 C   0  0  0  0  0  0  0  0  0  0  0  0
   10.9620    8.1920   25.0890 C   0  0  0  0  0  0  0  0  0  0  0  0
    9.6180    8.6240   24.5230 C   0  0  0  0  0  0  0  0  0  0  0  0
   11.4590    8.9160   26.1530 C   0  0  0  0  0  0  0  0  0  0  0  0
    8.9050    9.7120   25.0420 C   0  0  0  0  0  0  0  0  0  0  0  0
   10.6180   10.1100   26.6790 C   0  0  0  0  0  0  0  0  0  0  0  0
    9.3910   10.4690   26.1200 C   0  0  0  0  0  0  0  0  0  0  0  0
  1  2  1  0
  2  3  1  0
  4  1  1  1
  4  5  1  0
  4  6  1  0
  5  7  1  0
  3  8  2  0
  3  9  1  0
  6 10  1  0
  5 11  1  0
  7 12  2  0
 10 13  1  0
  8 14  1  0
  9 15  2  0
  7 16  1  0
 10 17  1  0
 11 17  1  0
 14 18  1  0
 13 19  2  0
 13 20  1  0
 14 21  2  0
 15 21  1  0
 16 22  2  0
 16 23  1  0
 18 24  1  0
 22 25  1  0
 23 26  2  0
 24 27  2  0
 24 28  1  0
 25 29  2  0
 26 29  1  0
 29 30  1  0
 28 31  1  0
 31 32  2  0
 31 33  1  0
 32 34  1  0
 33 35  2  0
 34 36  2  0
 35 36  1  0
 35 37  1  0
 36 38  1  0
 37 39  2  0
 38 40  2  0
 39 40  1  0
M  END
