x2581-x3108
     RDKit          3D

 39 44  0  0  0  0  0  0  0  0999 V2000
    5.4190    1.0820   22.0810 C   0  0  0  0  0  0  0  0  0  0  0  0
    5.6820    0.7140   20.6130 C   0  0  0  0  0  0  0  0  0  0  0  0
    6.7510   -0.3480   20.3330 C   0  0  0  0  0  0  0  0  0  0  0  0
    4.9180    1.3990   19.6570 C   0  0  0  0  0  0  0  0  0  0  0  0
    7.4880   -0.9580   21.4460 N   0  0  0  0  0  0  0  0  0  0  0  0
    6.9770   -0.6530   18.8820 C   0  0  0  0  0  0  0  0  0  0  0  0
    5.1980    1.0370   18.1560 C   0  0  0  0  0  0  0  0  0  0  0  0
    6.2180    0.0270   17.8610 N   0  0  0  0  0  0  0  0  0  0  0  0
    8.4350   -0.0600   21.8970 C   0  0  0  0  0  0  0  0  0  0  0  0
    9.3030   -0.1300   22.9840 C   0  0  0  0  0  0  0  0  0  0  0  0
    8.4300    1.0260   21.1060 C   0  0  0  0  0  0  0  0  0  0  0  0
    9.3160   -1.1620   23.8480 N   0  0  0  0  0  0  0  0  0  0  0  0
    9.1370    2.0910   21.1590 N   0  0  0  0  0  0  0  0  0  0  0  0
   10.2350    1.1260   23.1230 C   0  0  0  0  0  0  0  0  0  0  0  0
    8.4370   -0.8810   24.8570 C   0  0  0  0  0  0  0  0  0  0  0  0
    9.4790   -2.4870   23.4330 C   0  0  0  0  0  0  0  0  0  0  0  0
   10.1320    2.2350   22.1770 C   0  0  0  0  0  0  0  0  0  0  0  0
    8.4810    0.3870   25.5040 O   0  0  0  0  0  0  0  0  0  0  0  0
    7.4530   -1.7660   25.2760 C   0  0  0  0  0  0  0  0  0  0  0  0
   10.8350    3.3780   22.0860 N   0  0  0  0  0  0  0  0  0  0  0  0
    9.1530   -3.5140   24.5360 C   0  0  0  0  0  0  0  0  0  0  0  0
   11.3510    3.8100   23.3010 C   0  0  0  0  0  0  0  0  0  0  0  0
    9.8420   -4.8040   24.6610 N   0  0  0  0  0  0  0  0  0  0  0  0
    8.0690   -3.0900   25.4950 C   0  0  0  0  0  0  0  0  0  0  0  0
   11.1710    3.2390   24.3160 O   0  0  0  0  0  0  0  0  0  0  0  0
   12.0850    4.9900   23.1690 C   0  0  0  0  0  0  0  0  0  0  0  0
    7.7060   -4.0510   26.6190 C   0  0  0  0  0  0  0  0  0  0  0  0
    9.5040   -5.6630   25.6830 C   0  0  0  0  0  0  0  0  0  0  0  0
    8.4480   -5.4170   26.7450 C   0  0  0  0  0  0  0  0  0  0  0  0
   11.2630    6.1740   23.5940 C   0  0  0  0  0  0  0  0  0  0  0  0
   10.0670    6.5120   22.9560 C   0  0  0  0  0  0  0  0  0  0  0  0
   11.7210    7.0120   24.7230 C   0  0  0  0  0  0  0  0  0  0  0  0
    9.2300    7.7360   23.4080 C   0  0  0  0  0  0  0  0  0  0  0  0
   10.9290    8.1940   25.1620 C   0  0  0  0  0  0  0  0  0  0  0  0
    9.6100    8.5750   24.4630 C   0  0  0  0  0  0  0  0  0  0  0  0
   11.3900    8.9730   26.2210 C   0  0  0  0  0  0  0  0  0  0  0  0
    8.8510    9.6910   24.8580 C   0  0  0  0  0  0  0  0  0  0  0  0
   10.5730   10.1910   26.6560 C   0  0  0  0  0  0  0  0  0  0  0  0
    9.2590   10.5090   25.9030 C   0  0  0  0  0  0  0  0  0  0  0  0
  1  2  1  0
  2  3  2  0
  2  4  1  0
  3  5  1  0
  3  6  1  0
  4  7  2  0
  6  8  2  0
  7  8  1  0
  5  9  1  0
  9 10  1  0
  9 11  2  0
 10 12  1  0
 11 13  1  0
 10 14  2  0
 12 15  1  0
 12 16  1  0
 13 17  2  0
 14 17  1  0
 15 18  2  0
 15 19  1  0
 17 20  1  0
 16 21  1  0
 20 22  1  0
 21 23  1  0
 19 24  1  0
 21 24  2  0
 22 25  2  0
 22 26  1  0
 24 27  1  0
 23 28  2  0
 27 29  2  0
 28 29  1  0
 26 30  1  0
 30 31  2  0
 30 32  1  0
 31 33  1  0
 32 34  2  0
 33 35  2  0
 34 35  1  0
 34 36  1  0
 35 37  1  0
 36 38  2  0
 37 39  2  0
 38 39  1  0
M  END
