x2581-x0434
     RDKit          3D

 34 38  0  0  0  0  0  0  0  0999 V2000
    9.0640   -2.9160   23.4120 C   0  0  0  0  0  0  0  0  0  0  0  0
    9.9760   -2.2840   23.9280 O   0  0  0  0  0  0  0  0  0  0  0  0
    9.7130   -0.8920   24.0940 C   0  0  2  0  0  0  0  0  0  0  0  0
    9.8810   -0.2010   22.8590 C   0  0  2  0  0  0  0  0  0  0  0  0
   10.7700   -0.5240   24.9720 C   0  0  0  0  0  0  0  0  0  0  0  0
   10.2480    1.1910   23.4350 C   0  0  0  0  0  0  0  0  0  0  0  0
    8.9320   -0.1840   21.7420 C   0  0  1  0  0  0  0  0  0  0  0  0
   12.2790   -0.5180   24.5630 C   0  0  0  0  0  0  0  0  0  0  0  0
   11.1830   -0.8230   22.2610 C   0  0  0  0  0  0  0  0  0  0  0  0
    7.6130   -0.8700   21.6030 N   0  0  0  0  0  0  0  0  0  0  0  0
   10.2760    2.3480   22.5160 C   0  0  2  0  0  0  0  0  0  0  0  0
    8.4820    1.2420   21.3890 C   0  0  0  0  0  0  0  0  0  0  0  0
   12.4240   -0.9590   23.1200 C   0  0  0  0  0  0  0  0  0  0  0  0
   10.4320    3.6340   22.9520 N   0  0  0  0  0  0  0  0  0  0  0  0
    9.2940    2.4250   21.5670 N   0  0  0  0  0  0  0  0  0  0  0  0
    6.7790   -0.3080   20.4880 C   0  0  0  0  0  0  0  0  0  0  0  0
   11.7400    4.1850   22.9920 C   0  0  0  0  0  0  0  0  0  0  0  0
    5.5740    0.4080   20.7030 C   0  0  0  0  0  0  0  0  0  0  0  0
    7.1100   -0.4160   19.1400 C   0  0  0  0  0  0  0  0  0  0  0  0
   12.5920    3.3860   23.3110 O   0  0  0  0  0  0  0  0  0  0  0  0
   12.0410    5.4880   22.6540 C   0  0  0  0  0  0  0  0  0  0  0  0
    4.8080    0.9560   19.6540 C   0  0  0  0  0  0  0  0  0  0  0  0
    6.3470    0.1410   18.0150 N   0  0  0  0  0  0  0  0  0  0  0  0
   11.1780    6.5370   23.2890 C   0  0  0  0  0  0  0  0  0  0  0  0
    5.2300    0.8020   18.3460 C   0  0  0  0  0  0  0  0  0  0  0  0
    9.9120    6.8330   22.7650 C   0  0  0  0  0  0  0  0  0  0  0  0
   11.6230    7.2540   24.4180 C   0  0  0  0  0  0  0  0  0  0  0  0
    9.0380    7.7970   23.2640 C   0  0  0  0  0  0  0  0  0  0  0  0
   10.9160    8.2450   25.0500 C   0  0  0  0  0  0  0  0  0  0  0  0
    9.5910    8.5690   24.5040 C   0  0  0  0  0  0  0  0  0  0  0  0
   11.4480    8.9110   26.1530 C   0  0  0  0  0  0  0  0  0  0  0  0
    8.7790    9.6640   25.1480 C   0  0  0  0  0  0  0  0  0  0  0  0
   10.7160    9.9370   26.7750 C   0  0  0  0  0  0  0  0  0  0  0  0
    9.3520   10.3070   26.2430 C   0  0  0  0  0  0  0  0  0  0  0  0
  1  2  1  0
  3  2  1  6
  3  4  1  0
  3  5  1  0
  4  6  1  1
  4  7  1  0
  5  8  2  0
  4  9  1  0
  7 10  1  1
  6 11  1  0
  7 12  1  0
  8 13  1  0
  9 13  2  0
 11 14  1  1
 11 15  1  0
 12 15  1  0
 10 16  1  0
 14 17  1  0
 16 18  2  0
 16 19  1  0
 17 20  2  0
 17 21  1  0
 18 22  1  0
 19 23  2  0
 21 24  1  0
 22 25  2  0
 23 25  1  0
 24 26  2  0
 24 27  1  0
 26 28  1  0
 27 29  2  0
 28 30  2  0
 29 30  1  0
 29 31  1  0
 30 32  1  0
 31 33  2  0
 32 34  2  0
 33 34  1  0
M  END
