x2581-x2912
     RDKit          3D

 39 44  0  0  0  0  0  0  0  0999 V2000
    7.1790   -0.1680   21.5580 N   0  0  0  0  0  0  0  0  0  0  0  0
    7.3950   -1.5800   21.7660 C   0  0  0  0  0  0  0  0  0  0  0  0
    8.1620   -1.5790   23.1020 C   0  0  0  0  0  0  0  0  0  0  0  0
    6.5030    0.2920   20.3930 C   0  0  0  0  0  0  0  0  0  0  0  0
    8.4420    0.3500   22.0170 C   0  0  1  0  0  0  0  0  0  0  0  0
    5.3310    1.1360   20.4720 C   0  0  0  0  0  0  0  0  0  0  0  0
    6.9580   -0.0600   18.9820 C   0  0  0  0  0  0  0  0  0  0  0  0
    8.5160    1.7480   22.4460 N   0  0  0  0  0  0  0  0  0  0  0  0
    8.9320   -0.2820   23.1340 C   0  0  2  0  0  0  0  0  0  0  0  0
    7.1840   -1.5270   24.2590 C   0  0  0  0  0  0  0  0  0  0  0  0
    4.7920    1.5360   21.7890 C   0  0  0  0  0  0  0  0  0  0  0  0
    9.0580   -2.8050   23.1190 C   0  0  0  0  0  0  0  0  0  0  0  0
    6.3730    0.3550   17.7280 N   0  0  0  0  0  0  0  0  0  0  0  0
    4.6300    1.6300   19.3110 C   0  0  0  0  0  0  0  0  0  0  0  0
   10.4050   -0.1350   23.2400 C   0  0  1  0  0  0  0  0  0  0  0  0
    9.7560    2.0510   22.1340 C   0  0  1  0  0  0  0  0  0  0  0  0
    9.9190    3.4030   22.2180 N   0  0  0  0  0  0  0  0  0  0  0  0
    5.2170    1.1990   17.9340 C   0  0  0  0  0  0  0  0  0  0  0  0
   10.8300   -0.2190   24.5380 C   0  0  0  0  0  0  0  0  0  0  0  0
   11.1320   -1.0790   22.2790 C   0  0  0  0  0  0  0  0  0  0  0  0
   10.7000    1.3750   22.9340 C   0  0  0  0  0  0  0  0  0  0  0  0
   10.9680    3.9560   23.0780 C   0  0  0  0  0  0  0  0  0  0  0  0
   12.3420   -0.4750   24.8220 C   0  0  0  0  0  0  0  0  0  0  0  0
   12.5310   -0.8290   22.3400 C   0  0  2  0  0  0  0  0  0  0  0  0
   13.0670   -1.8820   21.5100 C   0  0  0  0  0  0  0  0  0  0  0  0
   11.3480    3.4790   24.0970 O   0  0  0  0  0  0  0  0  0  0  0  0
   11.6460    5.2740   22.6820 C   0  0  0  0  0  0  0  0  0  0  0  0
   13.1440   -0.6070   23.7000 C   0  0  0  0  0  0  0  0  0  0  0  0
   13.5010   -3.0120   20.6990 N   0  0  0  0  0  0  0  0  0  0  0  0
   11.0200    6.3080   23.2440 C   0  0  0  0  0  0  0  0  0  0  0  0
    9.7640    6.7260   22.7240 C   0  0  0  0  0  0  0  0  0  0  0  0
   11.6550    7.0340   24.4500 C   0  0  0  0  0  0  0  0  0  0  0  0
    9.0780    7.7940   23.2790 C   0  0  0  0  0  0  0  0  0  0  0  0
   10.9260    8.2170   25.0800 C   0  0  0  0  0  0  0  0  0  0  0  0
    9.5940    8.6130   24.4780 C   0  0  0  0  0  0  0  0  0  0  0  0
   11.4840    8.9160   26.1830 C   0  0  0  0  0  0  0  0  0  0  0  0
    8.8930    9.6890   25.0080 C   0  0  0  0  0  0  0  0  0  0  0  0
   10.8300   10.0130   26.7650 C   0  0  0  0  0  0  0  0  0  0  0  0
    9.4950   10.4280   26.1730 C   0  0  0  0  0  0  0  0  0  0  0  0
  1  2  1  0
  2  3  1  0
  1  4  1  0
  1  5  1  0
  4  6  2  0
  4  7  1  0
  5  8  1  1
  9  3  1  6
  5  9  1  0
  3 10  1  0
  6 11  1  0
  3 12  1  0
  7 13  2  0
  6 14  1  0
  9 15  1  0
  8 16  1  0
 16 17  1  1
 13 18  1  0
 14 18  2  0
 15 19  1  1
 15 20  1  0
 15 21  1  0
 16 21  1  0
 17 22  1  0
 19 23  2  0
 20 24  1  0
 24 25  1  1
 22 26  2  0
 22 27  1  0
 23 28  1  0
 24 28  1  0
 25 29  3  0
 27 30  1  0
 30 31  2  0
 30 32  1  0
 31 33  1  0
 32 34  2  0
 33 35  2  0
 34 35  1  0
 34 36  1  0
 35 37  1  0
 36 38  2  0
 37 39  2  0
 38 39  1  0
M  END
