x2581-x0395
     RDKit          3D

 33 37  0  0  0  0  0  0  0  0999 V2000
    9.2300   -1.8330   23.7050 C   0  0  0  0  0  0  0  0  0  0  0  0
   10.6520   -1.7060   23.8010 O   0  0  0  0  0  0  0  0  0  0  0  0
   11.1090   -1.4820   22.4970 C   0  0  1  0  0  0  0  0  0  0  0  0
    8.8860   -2.8100   24.7630 C   0  0  0  0  0  0  0  0  0  0  0  0
    7.7290   -2.8600   25.4200 N   0  0  0  0  0  0  0  0  0  0  0  0
   10.0880   -4.0270   25.2400 S   0  0  0  0  0  0  0  0  0  0  0  0
   10.2580   -0.3400   22.1380 C   0  0  0  0  0  0  0  0  0  0  0  0
    8.9590   -4.5770   26.3210 C   0  0  0  0  0  0  0  0  0  0  0  0
    7.7800   -3.9120   26.3450 N   0  0  0  0  0  0  0  0  0  0  0  0
   12.5470   -1.1080   22.4610 C   0  0  0  0  0  0  0  0  0  0  0  0
    9.2780   -5.7290   27.1780 C   0  0  0  0  0  0  0  0  0  0  0  0
   13.4730   -1.9720   22.0850 F   0  0  0  0  0  0  0  0  0  0  0  0
   10.6190    0.9740   22.4300 C   0  0  0  0  0  0  0  0  0  0  0  0
    8.9500   -0.5620   21.4110 C   0  0  0  0  0  0  0  0  0  0  0  0
   12.9290    0.1640   22.8050 C   0  0  0  0  0  0  0  0  0  0  0  0
    9.7610    2.2260   22.0140 C   0  0  0  0  0  0  0  0  0  0  0  0
    8.0610    0.5860   20.9940 C   0  0  0  0  0  0  0  0  0  0  0  0
   12.0060    1.1280   23.1960 C   0  0  0  0  0  0  0  0  0  0  0  0
   10.1940    3.5110   22.2750 N   0  0  0  0  0  0  0  0  0  0  0  0
    8.4870    1.9520   21.2880 N   0  0  0  0  0  0  0  0  0  0  0  0
   11.0570    3.8850   23.1040 C   0  0  0  0  0  0  0  0  0  0  0  0
   11.1030    3.0250   24.1990 O   0  0  0  0  0  0  0  0  0  0  0  0
   11.9270    5.1240   23.0230 C   0  0  0  0  0  0  0  0  0  0  0  0
   11.1600    6.3150   23.5370 C   0  0  0  0  0  0  0  0  0  0  0  0
    9.9440    6.6720   22.9310 C   0  0  0  0  0  0  0  0  0  0  0  0
   11.6440    7.0510   24.6070 C   0  0  0  0  0  0  0  0  0  0  0  0
    9.2060    7.7620   23.3900 C   0  0  0  0  0  0  0  0  0  0  0  0
   10.9170    8.1460   25.0700 C   0  0  0  0  0  0  0  0  0  0  0  0
    9.6840    8.5130   24.4640 C   0  0  0  0  0  0  0  0  0  0  0  0
   11.3990    8.9040   26.1420 C   0  0  0  0  0  0  0  0  0  0  0  0
    8.9600    9.6240   24.9330 C   0  0  0  0  0  0  0  0  0  0  0  0
   10.6470    9.9820   26.5580 C   0  0  0  0  0  0  0  0  0  0  0  0
    9.4440   10.3720   25.9910 C   0  0  0  0  0  0  0  0  0  0  0  0
  1  2  1  0
  3  2  1  1
  1  4  1  0
  4  5  2  0
  4  6  1  0
  3  7  1  0
  6  8  1  0
  5  9  1  0
  8  9  2  0
  3 10  1  0
  8 11  1  0
 10 12  1  0
  7 13  2  0
  7 14  1  0
 10 15  2  0
 13 16  1  0
 14 17  2  0
 13 18  1  0
 15 18  1  0
 16 19  1  0
 16 20  2  0
 17 20  1  0
 19 21  1  0
 21 22  2  0
 21 23  1  0
 23 24  1  0
 24 25  2  0
 24 26  1  0
 25 27  1  0
 26 28  2  0
 27 29  2  0
 28 29  1  0
 28 30  1  0
 29 31  1  0
 30 32  2  0
 31 33  2  0
 32 33  1  0
M  END
