x2581-x1334
     RDKit          3D

 37 42  0  0  0  0  0  0  0  0999 V2000
    9.6150   -2.5150   23.5940 C   0  0  2  0  0  0  0  0  0  0  0  0
   10.1520   -1.4960   24.1260 O   0  0  0  0  0  0  0  0  0  0  0  0
    9.9060   -0.3540   23.2840 C   0  0  0  0  0  0  0  0  0  0  0  0
    8.3360   -1.9900   22.7990 C   0  0  1  0  0  0  0  0  0  0  0  0
    9.2790   -3.5840   24.7160 C   0  0  0  0  0  0  0  0  0  0  0  0
    8.7450   -0.6100   22.4280 C   0  0  0  0  0  0  0  0  0  0  0  0
    8.2230   -2.6890   21.4610 C   0  0  0  0  0  0  0  0  0  0  0  0
    7.1290   -2.1230   23.5790 N   0  0  0  0  0  0  0  0  0  0  0  0
    9.8610   -4.9890   24.9200 C   0  0  0  0  0  0  0  0  0  0  0  0
    8.1010   -3.3040   25.9850 S   0  0  0  0  0  0  0  0  0  0  0  0
   10.5520    0.9990   23.1040 C   0  0  0  0  0  0  0  0  0  0  0  0
    8.2700    0.3510   21.5140 C   0  0  0  0  0  0  0  0  0  0  0  0
    6.8260   -2.9980   21.1130 N   0  0  0  0  0  0  0  0  0  0  0  0
    6.5550   -3.4500   23.4160 C   0  0  0  0  0  0  0  0  0  0  0  0
    8.4340   -4.9220   26.6500 C   0  0  0  0  0  0  0  0  0  0  0  0
    9.3510   -5.7180   26.0410 C   0  0  0  0  0  0  0  0  0  0  0  0
    6.4950   -3.3890   19.8390 C   0  0  0  0  0  0  0  0  0  0  0  0
    7.5700   -5.4070   28.0530 Cl  0  0  0  0  0  0  0  0  0  0  0  0
    8.9390    1.6810   21.4070 N   0  0  0  0  0  0  0  0  0  0  0  0
    9.9730    2.0150   22.1190 C   0  0  0  0  0  0  0  0  0  0  0  0
    5.9610   -3.5400   22.1680 C   0  0  0  0  0  0  0  0  0  0  0  0
   10.6000    3.2530   22.0290 N   0  0  0  0  0  0  0  0  0  0  0  0
    7.4960   -3.0920   18.7510 C   0  0  0  0  0  0  0  0  0  0  0  0
    5.4410   -3.9970   19.6190 O   0  0  0  0  0  0  0  0  0  0  0  0
   11.2100    4.0240   23.0840 C   0  0  0  0  0  0  0  0  0  0  0  0
   11.0430    3.6310   24.2250 O   0  0  0  0  0  0  0  0  0  0  0  0
   11.9220    5.1890   22.8070 C   0  0  0  0  0  0  0  0  0  0  0  0
   11.1250    6.3430   23.3560 C   0  0  0  0  0  0  0  0  0  0  0  0
    9.9050    6.6760   22.7980 C   0  0  0  0  0  0  0  0  0  0  0  0
   11.6310    7.1600   24.5300 C   0  0  0  0  0  0  0  0  0  0  0  0
    9.0760    7.8470   23.3480 C   0  0  0  0  0  0  0  0  0  0  0  0
   10.9440    8.2370   25.0850 C   0  0  0  0  0  0  0  0  0  0  0  0
    9.6600    8.6320   24.5380 C   0  0  0  0  0  0  0  0  0  0  0  0
   11.4800    8.9430   26.1590 C   0  0  0  0  0  0  0  0  0  0  0  0
    8.9690    9.6750   25.0440 C   0  0  0  0  0  0  0  0  0  0  0  0
   10.7870   10.0220   26.6960 C   0  0  0  0  0  0  0  0  0  0  0  0
    9.4210   10.4390   26.1050 C   0  0  0  0  0  0  0  0  0  0  0  0
  1  2  1  0
  2  3  1  0
  1  4  1  0
  1  5  1  1
  3  6  2  0
  4  6  1  0
  4  7  1  6
  4  8  1  0
  5  9  2  0
  5 10  1  0
  3 11  1  0
  6 12  1  0
  7 13  1  0
  8 14  1  0
 10 15  1  0
  9 16  1  0
 15 16  2  0
 13 17  1  0
 15 18  1  0
 12 19  2  0
 11 20  2  0
 19 20  1  0
 13 21  1  0
 14 21  1  0
 20 22  1  0
 17 23  1  0
 17 24  2  0
 22 25  1  0
 25 26  2  0
 25 27  1  0
 27 28  1  0
 28 29  2  0
 28 30  1  0
 29 31  1  0
 30 32  2  0
 31 33  2  0
 32 33  1  0
 32 34  1  0
 33 35  1  0
 34 36  2  0
 35 37  2  0
 36 37  1  0
M  END
