x2581-x1458
     RDKit          3D

 39 42  0  0  0  0  0  0  0  0999 V2000
    7.1900   -3.6190   26.4000 N   0  0  0  0  0  0  0  0  0  0  0  0
    7.6090   -4.7770   27.1880 C   0  0  0  0  0  0  0  0  0  0  0  0
    8.9160   -5.4490   26.7830 C   0  0  0  0  0  0  0  0  0  0  0  0
    7.2290   -2.4410   27.0830 C   0  0  0  0  0  0  0  0  0  0  0  0
    6.0260   -3.7410   25.5140 C   0  0  0  0  0  0  0  0  0  0  0  0
    4.8940   -3.6290   25.9720 O   0  0  0  0  0  0  0  0  0  0  0  0
    6.5900   -5.6600   27.5580 C   0  0  0  0  0  0  0  0  0  0  0  0
    6.1020   -3.9670   23.9960 C   0  0  1  0  0  0  0  0  0  0  0  0
    7.1140   -3.1440   23.4310 C   0  0  0  0  0  0  0  0  0  0  0  0
    6.1430   -5.5210   23.6750 C   0  0  0  0  0  0  0  0  0  0  0  0
    7.9880   -3.7790   22.5780 C   0  0  2  0  0  0  0  0  0  0  0  0
    6.4370   -5.6870   22.3110 C   0  0  0  0  0  0  0  0  0  0  0  0
    9.0440   -3.0190   21.9840 C   0  0  0  0  0  0  0  0  0  0  0  0
    7.1880   -4.5890   21.6130 N   0  0  0  0  0  0  0  0  0  0  0  0
    6.6740   -4.1670   20.3460 C   0  0  0  0  0  0  0  0  0  0  0  0
   10.1220   -2.6040   23.0220 C   0  0  0  0  0  0  0  0  0  0  0  0
    5.5630   -4.5940   19.9710 O   0  0  0  0  0  0  0  0  0  0  0  0
    7.4750   -3.3060   19.3980 C   0  0  0  0  0  0  0  0  0  0  0  0
    9.8300   -1.4380   23.6780 O   0  0  0  0  0  0  0  0  0  0  0  0
    9.6140   -0.3140   22.9500 C   0  0  0  0  0  0  0  0  0  0  0  0
   10.4670    0.9490   22.9940 C   0  0  0  0  0  0  0  0  0  0  0  0
    8.5290   -0.3140   22.1050 C   0  0  0  0  0  0  0  0  0  0  0  0
   10.1080    2.0660   22.1900 C   0  0  0  0  0  0  0  0  0  0  0  0
    8.2450    0.7780   21.3450 C   0  0  0  0  0  0  0  0  0  0  0  0
   10.8000    3.3290   22.1240 N   0  0  0  0  0  0  0  0  0  0  0  0
    8.9320    1.9400   21.3190 N   0  0  0  0  0  0  0  0  0  0  0  0
   11.2900    4.1810   23.1810 C   0  0  0  0  0  0  0  0  0  0  0  0
   11.0450    3.9050   24.4730 O   0  0  0  0  0  0  0  0  0  0  0  0
   11.9490    5.3060   22.7660 C   0  0  0  0  0  0  0  0  0  0  0  0
   11.1420    6.4310   23.3220 C   0  0  0  0  0  0  0  0  0  0  0  0
    9.9010    6.8020   22.8100 C   0  0  0  0  0  0  0  0  0  0  0  0
   11.6710    7.1750   24.4800 C   0  0  0  0  0  0  0  0  0  0  0  0
    9.0830    7.9660   23.4260 C   0  0  0  0  0  0  0  0  0  0  0  0
   10.9180    8.3000   25.0930 C   0  0  0  0  0  0  0  0  0  0  0  0
    9.5320    8.7170   24.5210 C   0  0  0  0  0  0  0  0  0  0  0  0
   11.4330    9.0020   26.1800 C   0  0  0  0  0  0  0  0  0  0  0  0
    8.7780    9.7870   25.0580 C   0  0  0  0  0  0  0  0  0  0  0  0
   10.6280   10.1500   26.7570 C   0  0  0  0  0  0  0  0  0  0  0  0
    9.2700   10.5060   26.1350 C   0  0  0  0  0  0  0  0  0  0  0  0
  1  2  1  0
  2  3  1  0
  1  4  1  0
  1  5  1  0
  5  6  2  0
  2  7  1  0
  8  5  1  1
  8  9  1  0
  8 10  1  0
  9 11  1  0
 10 12  1  0
 11 13  1  6
 11 14  1  0
 12 14  1  0
 14 15  1  0
 13 16  1  0
 15 17  2  0
 15 18  1  0
 16 19  1  0
 19 20  1  0
 20 21  2  0
 20 22  1  0
 21 23  1  0
 22 24  2  0
 23 25  1  0
 23 26  2  0
 24 26  1  0
 25 27  1  0
 27 28  2  0
 27 29  1  0
 29 30  1  0
 30 31  2  0
 30 32  1  0
 31 33  1  0
 32 34  2  0
 33 35  2  0
 34 35  1  0
 34 36  1  0
 35 37  1  0
 36 38  2  0
 37 39  2  0
 38 39  1  0
M  END
