x2581-x0749
     RDKit          3D

 39 44  0  0  0  0  0  0  0  0999 V2000
    9.4420   -1.3510   23.9240 O   0  0  0  0  0  0  0  0  0  0  0  0
    9.2780   -0.2480   23.0300 C   0  0  0  0  0  0  0  0  0  0  0  0
   10.1580    0.9980   23.2950 C   0  0  0  0  0  0  0  0  0  0  0  0
   10.0630   -2.5180   23.3220 N   0  0  0  0  0  0  0  0  0  0  0  0
    8.2710   -0.4000   21.9150 C   0  0  0  0  0  0  0  0  0  0  0  0
    9.6850   -3.9160   23.5380 C   0  0  2  0  0  0  0  0  0  0  0  0
   11.3430   -2.5640   23.7790 C   0  0  2  0  0  0  0  0  0  0  0  0
    9.8000    2.0620   22.1920 C   0  0  0  0  0  0  0  0  0  0  0  0
    8.0300    0.7100   20.9330 C   0  0  0  0  0  0  0  0  0  0  0  0
    8.4430   -4.5330   22.8600 C   0  0  2  0  0  0  0  0  0  0  0  0
   10.1840   -4.4300   25.0750 S   0  0  0  0  0  0  0  0  0  0  0  0
   11.3530   -3.1880   25.1380 C   0  0  1  0  0  0  0  0  0  0  0  0
   11.9750   -1.3500   23.7930 C   0  0  0  0  0  0  0  0  0  0  0  0
   10.4190    3.2040   22.1900 N   0  0  0  0  0  0  0  0  0  0  0  0
    8.7820    1.8160   21.1340 N   0  0  0  0  0  0  0  0  0  0  0  0
    7.6400   -3.6020   22.2920 C   0  0  0  0  0  0  0  0  0  0  0  0
    7.7760   -5.4060   23.6840 C   0  0  0  0  0  0  0  0  0  0  0  0
   13.0970   -1.1570   24.5400 C   0  0  0  0  0  0  0  0  0  0  0  0
   12.6980   -3.4570   25.6920 C   0  0  0  0  0  0  0  0  0  0  0  0
   11.2570    3.8500   23.0740 C   0  0  0  0  0  0  0  0  0  0  0  0
    6.7460   -4.2620   21.5110 N   0  0  0  0  0  0  0  0  0  0  0  0
    6.6660   -6.1990   22.9490 C   0  0  0  0  0  0  0  0  0  0  0  0
   13.6670   -2.3360   25.3740 C   0  0  0  0  0  0  0  0  0  0  0  0
   11.2580    3.0190   24.1830 O   0  0  0  0  0  0  0  0  0  0  0  0
   11.9120    5.0590   22.8990 C   0  0  0  0  0  0  0  0  0  0  0  0
    6.4440   -3.8860   20.1980 C   0  0  0  0  0  0  0  0  0  0  0  0
    5.9490   -5.3720   22.0830 C   0  0  0  0  0  0  0  0  0  0  0  0
    7.4960   -3.2300   19.3290 C   0  0  0  0  0  0  0  0  0  0  0  0
    5.3260   -4.1340   19.7420 O   0  0  0  0  0  0  0  0  0  0  0  0
   11.0970    6.2330   23.4050 C   0  0  0  0  0  0  0  0  0  0  0  0
    9.8730    6.5550   22.8150 C   0  0  0  0  0  0  0  0  0  0  0  0
   11.6150    6.9810   24.4880 C   0  0  0  0  0  0  0  0  0  0  0  0
    9.0590    7.7330   23.3240 C   0  0  0  0  0  0  0  0  0  0  0  0
   10.8900    8.1220   25.0230 C   0  0  0  0  0  0  0  0  0  0  0  0
    9.6510    8.5160   24.4850 C   0  0  0  0  0  0  0  0  0  0  0  0
   11.4660    8.8340   26.0980 C   0  0  0  0  0  0  0  0  0  0  0  0
    8.8950    9.7340   25.0510 C   0  0  0  0  0  0  0  0  0  0  0  0
   10.8050   10.0740   26.7500 C   0  0  0  0  0  0  0  0  0  0  0  0
    9.5450   10.5340   26.2520 C   0  0  0  0  0  0  0  0  0  0  0  0
  1  2  1  0
  2  3  2  0
  1  4  1  0
  2  5  1  0
  4  6  1  0
  4  7  1  0
  3  8  1  0
  5  9  2  0
  6 10  1  0
  6 11  1  1
  7 12  1  0
 11 12  1  0
  7 13  1  1
  8 14  1  0
  8 15  2  0
  9 15  1  0
 10 16  1  1
 10 17  1  0
 13 18  2  0
 12 19  1  6
 14 20  1  0
 16 21  1  0
 17 22  1  0
 18 23  1  0
 19 23  2  0
 20 24  2  0
 20 25  1  0
 21 26  1  0
 21 27  1  0
 22 27  1  0
 26 28  1  0
 26 29  2  0
 25 30  1  0
 30 31  2  0
 30 32  1  0
 31 33  1  0
 32 34  2  0
 33 35  2  0
 34 35  1  0
 34 36  1  0
 35 37  1  0
 36 38  2  0
 37 39  2  0
 38 39  1  0
M  END
