x2581-x0770
     RDKit          3D

 37 41  0  0  0  0  0  0  0  0999 V2000
    9.1310   -2.5720   24.0900 C   0  0  0  0  0  0  0  0  0  0  0  0
    8.2040   -2.6390   22.9500 N   0  0  0  0  0  0  0  0  0  0  0  0
    7.5020   -1.3720   22.6710 C   0  0  1  0  0  0  0  0  0  0  0  0
   10.4290   -1.8500   23.8820 C   0  0  0  0  0  0  0  0  0  0  0  0
    7.3110   -3.8050   23.0910 C   0  0  0  0  0  0  0  0  0  0  0  0
   10.9310   -0.9090   24.7950 C   0  0  0  0  0  0  0  0  0  0  0  0
   11.2310   -2.1440   22.6050 C   0  0  0  0  0  0  0  0  0  0  0  0
    8.2910   -0.1350   22.4820 C   0  0  0  0  0  0  0  0  0  0  0  0
    6.7690   -1.4920   21.3320 C   0  0  0  0  0  0  0  0  0  0  0  0
    6.0720   -3.5480   22.4750 C   0  0  0  0  0  0  0  0  0  0  0  0
   12.2380   -0.1560   24.5410 C   0  0  0  0  0  0  0  0  0  0  0  0
   12.5330   -1.4230   22.3340 C   0  0  0  0  0  0  0  0  0  0  0  0
   13.3790   -1.7910   20.9450 Cl  0  0  0  0  0  0  0  0  0  0  0  0
    9.1370    0.3170   23.6440 C   0  0  0  0  0  0  0  0  0  0  0  0
    8.2790    0.6400   21.3180 C   0  0  0  0  0  0  0  0  0  0  0  0
    6.2320   -2.8210   21.1930 N   0  0  0  0  0  0  0  0  0  0  0  0
   13.0460   -0.4070   23.2970 C   0  0  0  0  0  0  0  0  0  0  0  0
    6.1150   -3.4290   19.9550 C   0  0  0  0  0  0  0  0  0  0  0  0
    9.0580    1.8730   21.1920 N   0  0  0  0  0  0  0  0  0  0  0  0
    9.9140    1.5720   23.4250 C   0  0  0  0  0  0  0  0  0  0  0  0
    7.0890   -3.0520   18.8710 C   0  0  0  0  0  0  0  0  0  0  0  0
    5.2530   -4.2860   19.7600 O   0  0  0  0  0  0  0  0  0  0  0  0
    9.8200    2.3340   22.1090 C   0  0  0  0  0  0  0  0  0  0  0  0
   10.5460    3.4830   21.9400 N   0  0  0  0  0  0  0  0  0  0  0  0
   11.3440    4.1120   22.9220 C   0  0  0  0  0  0  0  0  0  0  0  0
   11.3510    3.4830   24.1540 O   0  0  0  0  0  0  0  0  0  0  0  0
   12.0260    5.2930   22.6870 C   0  0  0  0  0  0  0  0  0  0  0  0
   11.1910    6.3980   23.2710 C   0  0  0  0  0  0  0  0  0  0  0  0
    9.9560    6.7220   22.7460 C   0  0  0  0  0  0  0  0  0  0  0  0
   11.6510    7.2170   24.4700 C   0  0  0  0  0  0  0  0  0  0  0  0
    9.1270    7.8560   23.3600 C   0  0  0  0  0  0  0  0  0  0  0  0
   10.9550    8.2610   25.0770 C   0  0  0  0  0  0  0  0  0  0  0  0
    9.6570    8.6490   24.5640 C   0  0  0  0  0  0  0  0  0  0  0  0
   11.4530    8.9630   26.1600 C   0  0  0  0  0  0  0  0  0  0  0  0
    8.9350    9.6650   25.1010 C   0  0  0  0  0  0  0  0  0  0  0  0
   10.7610   10.0050   26.7440 C   0  0  0  0  0  0  0  0  0  0  0  0
    9.3800   10.4170   26.1880 C   0  0  0  0  0  0  0  0  0  0  0  0
  1  2  1  0
  2  3  1  0
  1  4  1  0
  2  5  1  0
  4  6  2  0
  4  7  1  0
  3  8  1  6
  3  9  1  0
  5 10  1  0
  6 11  1  0
  7 12  2  0
 12 13  1  0
  8 14  2  0
  8 15  1  0
  9 16  1  0
 10 16  1  0
 11 17  2  0
 12 17  1  0
 16 18  1  0
 15 19  2  0
 14 20  1  0
 18 21  1  0
 18 22  2  0
 19 23  1  0
 20 23  2  0
 23 24  1  0
 24 25  1  0
 25 26  2  0
 25 27  1  0
 27 28  1  0
 28 29  2  0
 28 30  1  0
 29 31  1  0
 30 32  2  0
 31 33  2  0
 32 33  1  0
 32 34  1  0
 33 35  1  0
 34 36  2  0
 35 37  2  0
 36 37  1  0
M  END
