x2581-x1386
     RDKit          3D

 34 38  0  0  0  0  0  0  0  0999 V2000
    9.8270   -2.3400   23.8810 C   0  0  0  0  0  0  0  0  0  0  0  0
    8.7340   -2.2610   22.9130 N   0  0  0  0  0  0  0  0  0  0  0  0
    7.6310   -2.9420   23.4410 C   0  0  0  0  0  0  0  0  0  0  0  0
   11.0470   -1.5730   23.4390 C   0  0  0  0  0  0  0  0  0  0  0  0
    8.4540   -1.0390   22.3420 C   0  0  1  0  0  0  0  0  0  0  0  0
   12.2030   -2.0380   22.6570 C   0  0  0  0  0  0  0  0  0  0  0  0
   11.1970   -0.2900   23.7390 C   0  0  0  0  0  0  0  0  0  0  0  0
    8.4260   -0.3130   23.5460 C   0  0  0  0  0  0  0  0  0  0  0  0
    9.3500   -0.2910   21.4420 C   0  0  0  0  0  0  0  0  0  0  0  0
    7.1350   -1.1620   21.4850 C   0  0  0  0  0  0  0  0  0  0  0  0
    6.6310   -3.3140   22.4670 C   0  0  0  0  0  0  0  0  0  0  0  0
   12.6320    0.4610   23.1810 S   0  0  0  0  0  0  0  0  0  0  0  0
   13.1250   -1.0060   22.4560 C   0  0  0  0  0  0  0  0  0  0  0  0
    9.2000    1.0860   21.3350 N   0  0  0  0  0  0  0  0  0  0  0  0
    8.8260    1.0810   23.5680 C   0  0  0  0  0  0  0  0  0  0  0  0
    6.7090   -2.5860   21.2140 N   0  0  0  0  0  0  0  0  0  0  0  0
    6.4280   -3.1370   19.9130 C   0  0  0  0  0  0  0  0  0  0  0  0
    9.2320    1.8340   22.4460 C   0  0  1  0  0  0  0  0  0  0  0  0
   10.4880    2.5390   22.5250 N   0  0  0  0  0  0  0  0  0  0  0  0
    7.3980   -2.8990   18.7810 C   0  0  0  0  0  0  0  0  0  0  0  0
    5.4500   -3.8830   19.6750 O   0  0  0  0  0  0  0  0  0  0  0  0
   10.7510    3.5630   23.3110 C   0  0  0  0  0  0  0  0  0  0  0  0
   10.3940    3.6820   24.4730 O   0  0  0  0  0  0  0  0  0  0  0  0
   11.5630    4.7580   22.7740 C   0  0  0  0  0  0  0  0  0  0  0  0
   10.9260    6.0890   23.3650 C   0  0  0  0  0  0  0  0  0  0  0  0
    9.7200    6.5700   22.8280 C   0  0  0  0  0  0  0  0  0  0  0  0
   11.5430    6.7870   24.4340 C   0  0  0  0  0  0  0  0  0  0  0  0
    9.1240    7.7110   23.3310 C   0  0  0  0  0  0  0  0  0  0  0  0
   10.9140    7.9570   24.9330 C   0  0  0  0  0  0  0  0  0  0  0  0
    9.6990    8.4140   24.3770 C   0  0  0  0  0  0  0  0  0  0  0  0
   11.4880    8.6920   25.9950 C   0  0  0  0  0  0  0  0  0  0  0  0
    9.1120    9.5220   24.8510 C   0  0  0  0  0  0  0  0  0  0  0  0
   10.8440    9.8330   26.4510 C   0  0  0  0  0  0  0  0  0  0  0  0
    9.6510   10.2700   25.8920 C   0  0  0  0  0  0  0  0  0  0  0  0
  1  2  1  0
  2  3  1  0
  1  4  1  0
  2  5  1  0
  4  6  1  0
  4  7  2  0
  5  8  1  1
  5  9  1  0
  5 10  1  0
  3 11  1  0
  7 12  1  0
  6 13  2  0
 12 13  1  0
  9 14  1  0
  8 15  2  0
 10 16  1  0
 11 16  1  0
 16 17  1  0
 14 18  1  0
 15 18  1  0
 18 19  1  1
 17 20  1  0
 17 21  2  0
 19 22  1  0
 22 23  2  0
 22 24  1  0
 24 25  1  0
 25 26  2  0
 25 27  1  0
 26 28  1  0
 27 29  2  0
 28 30  2  0
 29 30  1  0
 29 31  1  0
 30 32  1  0
 31 33  2  0
 32 34  2  0
 33 34  1  0
M  END
