x2581-x0689
     RDKit          3D

 41 45  0  0  0  0  0  0  0  0999 V2000
    9.4310   -2.5630   23.7640 C   0  0  0  0  0  0  0  0  0  0  0  0
   10.0300   -1.4690   23.8600 O   0  0  0  0  0  0  0  0  0  0  0  0
    9.6140   -0.4960   23.0040 C   0  0  0  0  0  0  0  0  0  0  0  0
    8.0190   -2.3110   24.2860 C   0  0  0  0  0  0  0  0  0  0  0  0
    6.9000   -2.9570   23.7060 C   0  0  0  0  0  0  0  0  0  0  0  0
   10.3630    0.8730   22.9710 C   0  0  0  0  0  0  0  0  0  0  0  0
    8.4270   -0.5730   22.0120 C   0  0  0  0  0  0  0  0  0  0  0  0
    6.9100   -4.4830   23.8920 C   0  0  1  0  0  0  0  0  0  0  0  0
    9.9720    2.0450   22.0870 C   0  0  0  0  0  0  0  0  0  0  0  0
    8.0790    0.6490   21.1240 C   0  0  0  0  0  0  0  0  0  0  0  0
    5.5340   -5.0270   24.0710 N   0  0  0  0  0  0  0  0  0  0  0  0
    7.5880   -5.0930   22.6350 C   0  0  0  0  0  0  0  0  0  0  0  0
   10.7060    3.3270   22.0660 N   0  0  0  0  0  0  0  0  0  0  0  0
    4.7820   -5.0420   25.5600 S   0  0  0  0  0  0  0  0  0  0  0  0
    8.8460    1.8970   21.1910 N   0  0  0  0  0  0  0  0  0  0  0  0
    6.6130   -5.3280   21.5750 N   0  0  0  0  0  0  0  0  0  0  0  0
    4.8760   -5.5430   22.9990 C   0  0  0  0  0  0  0  0  0  0  0  0
   11.2480    4.0380   23.1830 C   0  0  0  0  0  0  0  0  0  0  0  0
    6.3490   -4.4700   20.4770 C   0  0  0  0  0  0  0  0  0  0  0  0
    4.0750   -6.2970   25.7090 O   0  0  0  0  0  0  0  0  0  0  0  0
    5.6980   -4.5760   26.5700 O   0  0  0  0  0  0  0  0  0  0  0  0
    5.6350   -6.1690   21.9510 C   0  0  0  0  0  0  0  0  0  0  0  0
    3.4670   -3.8430   25.5710 C   0  0  0  0  0  0  0  0  0  0  0  0
   10.9790    3.6420   24.3020 O   0  0  0  0  0  0  0  0  0  0  0  0
   12.0150    5.1730   22.9560 C   0  0  0  0  0  0  0  0  0  0  0  0
    7.3550   -3.4560   19.9500 C   0  0  0  0  0  0  0  0  0  0  0  0
    5.2640   -4.5420   19.9040 O   0  0  0  0  0  0  0  0  0  0  0  0
    3.8870   -2.2040   25.9670 S   0  0  0  0  0  0  0  0  0  0  0  0
    2.1030   -3.9480   25.3200 C   0  0  0  0  0  0  0  0  0  0  0  0
   11.2240    6.3330   23.4660 C   0  0  0  0  0  0  0  0  0  0  0  0
    1.4050   -2.7890   25.4360 C   0  0  0  0  0  0  0  0  0  0  0  0
    2.2810   -1.6100   25.8190 C   0  0  0  0  0  0  0  0  0  0  0  0
    9.9920    6.6610   22.8580 C   0  0  0  0  0  0  0  0  0  0  0  0
   11.7010    7.1000   24.5650 C   0  0  0  0  0  0  0  0  0  0  0  0
    9.1240    7.8210   23.3240 C   0  0  0  0  0  0  0  0  0  0  0  0
   10.9300    8.2820   25.1180 C   0  0  0  0  0  0  0  0  0  0  0  0
    9.5940    8.7110   24.5260 C   0  0  0  0  0  0  0  0  0  0  0  0
   11.4190    9.0140   26.1800 C   0  0  0  0  0  0  0  0  0  0  0  0
    8.8980    9.8060   25.0350 C   0  0  0  0  0  0  0  0  0  0  0  0
   10.6040   10.2270   26.7100 C   0  0  0  0  0  0  0  0  0  0  0  0
    9.3890   10.5560   26.1070 C   0  0  0  0  0  0  0  0  0  0  0  0
  1  2  1  0
  2  3  1  0
  1  4  1  0
  4  5  1  0
  3  6  2  0
  3  7  1  0
  8  5  1  6
  6  9  1  0
  7 10  2  0
  8 11  1  0
  8 12  1  0
  9 13  1  0
 11 14  1  0
  9 15  2  0
 10 15  1  0
 12 16  1  0
 11 17  1  0
 13 18  1  0
 16 19  1  0
 14 20  2  0
 14 21  2  0
 16 22  1  0
 17 22  1  0
 14 23  1  0
 18 24  2  0
 18 25  1  0
 19 26  1  0
 19 27  2  0
 23 28  1  0
 23 29  2  0
 25 30  1  0
 29 31  1  0
 28 32  1  0
 31 32  2  0
 30 33  2  0
 30 34  1  0
 33 35  1  0
 34 36  2  0
 35 37  2  0
 36 37  1  0
 36 38  1  0
 37 39  1  0
 38 40  2  0
 39 41  2  0
 40 41  1  0
M  END
