x2581-x3303-x0769
     RDKit          3D

 65 74  0  0  0  0  0  0  0  0999 V2000
    5.4680   -4.5200   27.1120 O   0  0  0  0  0  0  0  0  0  0  0  0
    4.4200   -4.7670   26.1330 S   0  0  0  0  0  0  0  0  0  0  0  0
    3.6550   -5.9650   26.4000 O   0  0  0  0  0  0  0  0  0  0  0  0
    3.2880   -3.4590   26.3220 C   0  0  0  0  0  0  0  0  0  0  0  0
    5.0590   -4.5610   24.6680 N   0  0  0  0  0  0  0  0  0  0  0  0
    3.5810   -2.1790   26.8790 C   0  0  0  0  0  0  0  0  0  0  0  0
    1.9360   -3.6660   25.9170 C   0  0  0  0  0  0  0  0  0  0  0  0
    4.2320   -4.7580   23.5300 C   0  0  0  0  0  0  0  0  0  0  0  0
    6.4680   -4.7870   24.3810 C   0  0  2  0  0  0  0  0  0  0  0  0
    4.8150   -1.8510   27.3210 F   0  0  0  0  0  0  0  0  0  0  0  0
    7.1820   -3.5430   23.9650 C   0  0  2  0  0  0  0  0  0  0  0  0
    0.8560   -2.5660   26.0450 C   0  0  0  0  0  0  0  0  0  0  0  0
    2.6600   -1.1420   27.0350 C   0  0  0  0  0  0  0  0  0  0  0  0
    4.5830   -5.7030   22.5070 C   0  0  0  0  0  0  0  0  0  0  0  0
    6.6900   -5.8640   23.4190 C   0  0  0  0  0  0  0  0  0  0  0  0
    8.7420   -3.6070   24.1210 C   0  0  0  0  0  0  0  0  0  0  0  0
    1.3010   -1.2520   26.6450 C   0  0  0  0  0  0  0  0  0  0  0  0
    5.9800   -5.8180   22.2110 N   0  0  0  0  0  0  0  0  0  0  0  0
    7.1740   -2.0360   24.4990 C   0  0  1  0  0  0  0  0  0  0  0  0
    6.5210   -5.3950   20.9270 C   0  0  0  0  0  0  0  0  0  0  0  0
    9.4090   -2.5140   23.5360 C   0  0  1  0  0  0  0  0  0  0  0  0
    8.5470   -1.4810   24.0020 N   0  0  0  0  0  0  0  0  0  0  0  0
    5.9450   -1.1040   24.0810 C   0  0  0  0  0  0  0  0  0  0  0  0
    5.8470   -5.6870   19.9540 O   0  0  0  0  0  0  0  0  0  0  0  0
    7.8650   -4.5560   20.7750 C   0  0  0  0  0  0  0  0  0  0  0  0
    8.5260   -0.2060   23.4580 C   0  0  0  0  0  0  0  0  0  0  0  0
    6.1810   -0.3400   22.7770 N   0  0  0  0  0  0  0  0  0  0  0  0
   10.8940   -2.5920   24.0770 C   0  0  0  0  0  0  0  0  0  0  0  0
    5.4610   -0.7970   21.5420 C   0  0  0  0  0  0  0  0  0  0  0  0
    9.6580    0.6790   23.4540 C   0  0  0  0  0  0  0  0  0  0  0  0
    7.3610    0.3400   22.8620 C   0  0  0  0  0  0  0  0  0  0  0  0
   12.2730   -2.6640   24.5800 C   0  0  0  0  0  0  0  0  0  0  0  0
   11.3310   -1.9860   22.6970 C   0  0  0  0  0  0  0  0  0  0  0  0
    5.2070   -1.9810   21.3020 O   0  0  0  0  0  0  0  0  0  0  0  0
    9.7220    2.0000   22.9170 C   0  0  0  0  0  0  0  0  0  0  0  0
    7.3990    1.6760   22.3170 C   0  0  0  0  0  0  0  0  0  0  0  0
    4.9890    0.1450   20.4790 C   0  0  0  0  0  0  0  0  0  0  0  0
   12.7010   -1.6140   22.1120 C   0  0  0  0  0  0  0  0  0  0  0  0
   13.5720   -2.3410   24.1040 C   0  0  0  0  0  0  0  0  0  0  0  0
   10.9420    2.7480   22.9730 N   0  0  0  0  0  0  0  0  0  0  0  0
    8.5190    2.4890   22.3260 N   0  0  0  0  0  0  0  0  0  0  0  0
    3.9030    1.1110   20.5960 C   0  0  0  0  0  0  0  0  0  0  0  0
    5.7920    0.0160   19.1520 C   0  0  0  0  0  0  0  0  0  0  0  0
   13.7720   -1.8300   22.8880 C   0  0  0  0  0  0  0  0  0  0  0  0
   11.1930    3.9730   23.7600 C   0  0  0  0  0  0  0  0  0  0  0  0
    3.5740    1.9170   19.4800 C   0  0  0  0  0  0  0  0  0  0  0  0
    5.3050    0.9750   18.0720 C   0  0  0  0  0  0  0  0  0  0  0  0
    3.1190    1.2870   21.8110 C   0  0  0  0  0  0  0  0  0  0  0  0
   11.0230    4.0300   24.9780 O   0  0  0  0  0  0  0  0  0  0  0  0
   11.6750    5.2200   22.9500 C   0  0  0  0  0  0  0  0  0  0  0  0
    5.8540    1.0140   16.8490 O   0  0  0  0  0  0  0  0  0  0  0  0
    4.1970    1.9000   18.2790 N   0  0  0  0  0  0  0  0  0  0  0  0
    2.0520    2.2180   21.9240 C   0  0  0  0  0  0  0  0  0  0  0  0
    2.5150    2.8530   19.5610 C   0  0  0  0  0  0  0  0  0  0  0  0
   11.1170    6.3820   23.4090 C   0  0  0  0  0  0  0  0  0  0  0  0
    1.7170    3.0150   20.8380 C   0  0  0  0  0  0  0  0  0  0  0  0
    9.8730    6.8680   22.8970 C   0  0  0  0  0  0  0  0  0  0  0  0
   11.7830    7.2120   24.4920 C   0  0  0  0  0  0  0  0  0  0  0  0
    9.2930    8.0490   23.3700 C   0  0  0  0  0  0  0  0  0  0  0  0
   11.1850    8.3890   24.9560 C   0  0  0  0  0  0  0  0  0  0  0  0
    9.9050    8.8350   24.3920 C   0  0  0  0  0  0  0  0  0  0  0  0
   11.8750    9.1580   26.0030 C   0  0  0  0  0  0  0  0  0  0  0  0
    9.3780   10.1450   24.9960 C   0  0  0  0  0  0  0  0  0  0  0  0
   11.3230   10.3480   26.5050 C   0  0  0  0  0  0  0  0  0  0  0  0
   10.1260   10.9140   26.0870 C   0  0  0  0  0  0  0  0  0  0  0  0
  1  2  2  0
  2  3  2  0
  2  4  1  0
  2  5  1  0
  4  6  2  0
  4  7  1  0
  5  8  1  0
  5  9  1  0
  6 10  1  0
  9 11  1  0
  7 12  2  0
  6 13  1  0
  8 14  1  0
  9 15  1  6
 11 16  1  1
 12 17  1  0
 13 17  2  0
 14 18  1  0
 15 18  1  0
 11 19  1  0
 18 20  1  0
 16 21  1  0
 19 22  1  0
 21 22  1  0
 19 23  1  6
 20 24  2  0
 20 25  1  0
 22 26  1  0
 23 27  1  0
 21 28  1  1
 27 29  1  0
 26 30  1  0
 26 31  2  0
 27 31  1  0
 28 32  2  0
 28 33  1  0
 29 34  2  0
 30 35  2  0
 31 36  1  0
 29 37  1  0
 33 38  2  0
 32 39  1  0
 35 40  1  0
 35 41  1  0
 36 41  2  0
 37 42  1  0
 37 43  2  0
 38 44  1  0
 39 44  2  0
 40 45  1  0
 42 46  2  0
 43 47  1  0
 42 48  1  0
 45 49  2  0
 45 50  1  0
 47 51  1  0
 46 52  1  0
 47 52  2  0
 48 53  2  0
 46 54  1  0
 50 55  1  0
 53 56  1  0
 54 56  2  0
 55 57  2  0
 55 58  1  0
 57 59  1  0
 58 60  2  0
 59 61  2  0
 60 61  1  0
 60 62  1  0
 61 63  1  0
 62 64  2  0
 63 65  2  0
 64 65  1  0
M  END
