x2581-x0426
     RDKit          3D

 43 47  0  0  0  0  0  0  0  0999 V2000
   11.2060   -3.6100   24.6310 C   0  0  0  0  0  0  0  0  0  0  0  0
   11.1850   -2.2030   24.9910 O   0  0  0  0  0  0  0  0  0  0  0  0
   11.0870   -1.1710   24.0980 C   0  0  1  0  0  0  0  0  0  0  0  0
   12.1870   -0.6960   23.3380 C   0  0  0  0  0  0  0  0  0  0  0  0
    9.8000   -1.2400   23.2150 C   0  0  0  0  0  0  0  0  0  0  0  0
   11.9530    0.3860   22.4610 C   0  0  0  0  0  0  0  0  0  0  0  0
    9.5530    0.1340   22.5110 C   0  0  2  0  0  0  0  0  0  0  0  0
    8.8480   -0.1080   21.1360 C   0  0  0  0  0  0  0  0  0  0  0  0
   10.6720    1.0030   22.3150 N   0  0  0  0  0  0  0  0  0  0  0  0
   10.4330    2.4230   22.4870 C   0  0  0  0  0  0  0  0  0  0  0  0
    7.4490   -0.8510   20.9730 C   0  0  0  0  0  0  0  0  0  0  0  0
   11.6130    3.1840   22.3380 N   0  0  0  0  0  0  0  0  0  0  0  0
    6.1160   -0.1170   20.5700 C   0  0  0  0  0  0  0  0  0  0  0  0
   11.8080    4.3400   22.8960 C   0  0  0  0  0  0  0  0  0  0  0  0
    6.7560    0.0160   19.0170 C   0  0  0  0  0  0  0  0  0  0  0  0
    4.8360    0.5880   20.1820 C   0  0  0  0  0  0  0  0  0  0  0  0
   11.8190    4.2780   24.3230 O   0  0  0  0  0  0  0  0  0  0  0  0
   12.0010    5.6970   22.2130 C   0  0  0  0  0  0  0  0  0  0  0  0
    3.7780    0.7500   21.2900 C   0  0  0  0  0  0  0  0  0  0  0  0
    6.3610    0.5420   17.8120 N   0  0  0  0  0  0  0  0  0  0  0  0
    4.3400    1.1710   18.9530 C   0  0  0  0  0  0  0  0  0  0  0  0
   11.2460    6.8310   23.0160 C   0  0  0  0  0  0  0  0  0  0  0  0
    4.0380    1.8550   22.1510 C   0  0  0  0  0  0  0  0  0  0  0  0
    5.1960    1.1170   17.7360 C   0  0  0  0  0  0  0  0  0  0  0  0
    9.9270    7.2510   22.6480 C   0  0  0  0  0  0  0  0  0  0  0  0
   11.8890    7.4420   24.1320 C   0  0  0  0  0  0  0  0  0  0  0  0
    2.9680    2.3840   22.8240 N   0  0  0  0  0  0  0  0  0  0  0  0
    9.2620    8.2650   23.3910 C   0  0  0  0  0  0  0  0  0  0  0  0
   11.2440    8.4510   24.8840 C   0  0  0  0  0  0  0  0  0  0  0  0
    2.2770    1.6170   23.8780 C   0  0  0  0  0  0  0  0  0  0  0  0
    9.9090    8.8710   24.5100 C   0  0  0  0  0  0  0  0  0  0  0  0
   11.8880    9.0600   26.0030 C   0  0  0  0  0  0  0  0  0  0  0  0
    2.6690    0.3640   24.2440 O   0  0  0  0  0  0  0  0  0  0  0  0
    1.0600    2.2560   24.5950 C   0  0  0  0  0  0  0  0  0  0  0  0
    9.2860    9.8530   25.2380 C   0  0  0  0  0  0  0  0  0  0  0  0
   11.2340   10.0620   26.7340 C   0  0  0  0  0  0  0  0  0  0  0  0
    1.5170    3.1290   25.7610 C   0  0  0  0  0  0  0  0  0  0  0  0
   -0.2880    2.0850   24.2550 C   0  0  0  0  0  0  0  0  0  0  0  0
    9.9330   10.4580   26.3500 C   0  0  0  0  0  0  0  0  0  0  0  0
    2.7900    3.3330   26.1380 F   0  0  0  0  0  0  0  0  0  0  0  0
   -1.2730    2.7220   24.9920 C   0  0  0  0  0  0  0  0  0  0  0  0
    0.3490    3.7770   26.5000 C   0  0  0  0  0  0  0  0  0  0  0  0
   -0.9860    3.5600   26.1010 C   0  0  0  0  0  0  0  0  0  0  0  0
  1  2  1  0
  3  2  1  6
  3  4  1  0
  3  5  1  0
  4  6  2  0
  5  7  1  0
  7  8  1  6
  6  9  1  0
  7  9  1  0
  9 10  1  0
  8 11  1  0
 10 12  1  0
 11 13  1  0
 12 14  1  0
 13 15  2  0
 13 16  1  0
 14 17  2  0
 14 18  1  0
 16 19  1  0
 15 20  1  0
 16 21  2  0
 18 22  1  0
 19 23  1  0
 20 24  2  0
 21 24  1  0
 22 25  2  0
 22 26  1  0
 23 27  1  0
 25 28  1  0
 26 29  2  0
 27 30  1  0
 28 31  2  0
 29 31  1  0
 29 32  1  0
 30 33  2  0
 30 34  1  0
 31 35  1  0
 32 36  2  0
 34 37  2  0
 34 38  1  0
 35 39  2  0
 36 39  1  0
 37 40  1  0
 38 41  2  0
 37 42  1  0
 41 43  1  0
 42 43  2  0
M  END
