x2581-x1412
     RDKit          3D

 38 43  0  0  0  0  0  0  0  0999 V2000
    8.5030   -1.7390   24.0810 C   0  0  1  0  0  0  0  0  0  0  0  0
    9.7010   -1.4050   24.2500 O   0  0  0  0  0  0  0  0  0  0  0  0
    9.6730   -0.2750   23.3690 C   0  0  0  0  0  0  0  0  0  0  0  0
    7.7860   -0.5620   24.4730 O   0  0  0  0  0  0  0  0  0  0  0  0
    8.2590   -1.9520   22.5380 C   0  0  2  0  0  0  0  0  0  0  0  0
    7.8220   -2.7010   25.0860 C   0  0  0  0  0  0  0  0  0  0  0  0
    8.7450   -0.5890   22.2440 C   0  0  0  0  0  0  0  0  0  0  0  0
    6.7870   -1.9160   22.0540 C   0  0  0  0  0  0  0  0  0  0  0  0
    8.9160   -3.1800   22.1410 N   0  0  0  0  0  0  0  0  0  0  0  0
    8.3540   -3.8870   25.8360 C   0  0  0  0  0  0  0  0  0  0  0  0
   10.3140    1.0920   23.3270 C   0  0  0  0  0  0  0  0  0  0  0  0
    8.4690    0.3130   21.2330 C   0  0  0  0  0  0  0  0  0  0  0  0
    6.4890   -3.1980   21.3950 N   0  0  0  0  0  0  0  0  0  0  0  0
    8.1550   -4.3590   22.6160 C   0  0  0  0  0  0  0  0  0  0  0  0
    7.8650   -3.9790   27.2790 C   0  0  0  0  0  0  0  0  0  0  0  0
    9.2160   -4.9730   25.4900 C   0  0  0  0  0  0  0  0  0  0  0  0
    6.3320   -3.4520   20.0290 C   0  0  0  0  0  0  0  0  0  0  0  0
    9.1110    1.6450   21.2520 N   0  0  0  0  0  0  0  0  0  0  0  0
    9.9440    2.0410   22.1590 C   0  0  0  0  0  0  0  0  0  0  0  0
    6.8360   -4.3800   22.1720 C   0  0  0  0  0  0  0  0  0  0  0  0
    8.4580   -5.3480   28.0960 S   0  0  0  0  0  0  0  0  0  0  0  0
    9.3720   -5.9070   26.6830 C   0  0  0  0  0  0  0  0  0  0  0  0
   10.5120    3.2960   22.0890 N   0  0  0  0  0  0  0  0  0  0  0  0
    7.3710   -3.0230   18.9960 C   0  0  0  0  0  0  0  0  0  0  0  0
    5.3290   -4.0740   19.6770 O   0  0  0  0  0  0  0  0  0  0  0  0
   11.2820    3.9600   23.0760 C   0  0  0  0  0  0  0  0  0  0  0  0
   11.2930    3.4000   24.1390 O   0  0  0  0  0  0  0  0  0  0  0  0
   11.9310    5.1680   22.8270 C   0  0  0  0  0  0  0  0  0  0  0  0
   11.1260    6.3190   23.3750 C   0  0  0  0  0  0  0  0  0  0  0  0
    9.9010    6.6440   22.8160 C   0  0  0  0  0  0  0  0  0  0  0  0
   11.6270    7.1410   24.5470 C   0  0  0  0  0  0  0  0  0  0  0  0
    9.0690    7.8160   23.3680 C   0  0  0  0  0  0  0  0  0  0  0  0
   10.9380    8.2170   25.1010 C   0  0  0  0  0  0  0  0  0  0  0  0
    9.6510    8.6060   24.5540 C   0  0  0  0  0  0  0  0  0  0  0  0
   11.4730    8.9280   26.1700 C   0  0  0  0  0  0  0  0  0  0  0  0
    8.9600    9.6500   25.0570 C   0  0  0  0  0  0  0  0  0  0  0  0
   10.7790   10.0070   26.7040 C   0  0  0  0  0  0  0  0  0  0  0  0
    9.4110   10.4200   26.1150 C   0  0  0  0  0  0  0  0  0  0  0  0
  1  2  1  0
  2  3  1  0
  1  4  1  1
  1  5  1  0
  1  6  1  0
  3  7  2  0
  5  7  1  0
  5  8  1  1
  5  9  1  0
  6 10  1  0
  3 11  1  0
  7 12  1  0
  8 13  1  0
  9 14  1  0
 10 15  2  0
 10 16  1  0
 13 17  1  0
 12 18  2  0
 11 19  2  0
 18 19  1  0
 13 20  1  0
 14 20  1  0
 15 21  1  0
 16 22  2  0
 21 22  1  0
 19 23  1  0
 17 24  1  0
 17 25  2  0
 23 26  1  0
 26 27  2  0
 26 28  1  0
 28 29  1  0
 29 30  2  0
 29 31  1  0
 30 32  1  0
 31 33  2  0
 32 34  2  0
 33 34  1  0
 33 35  1  0
 34 36  1  0
 35 37  2  0
 36 38  2  0
 37 38  1  0
M  END
