x2581-x0755
     RDKit          3D

 44 48  0  0  0  0  0  0  0  0999 V2000
    4.1380   -6.4280   26.1670 O   0  0  0  0  0  0  0  0  0  0  0  0
    4.9510   -5.0830   25.7290 S   0  0  0  0  0  0  0  0  0  0  0  0
    5.9970   -4.6330   26.5970 O   0  0  0  0  0  0  0  0  0  0  0  0
    3.8500   -3.7950   25.7920 C   0  0  0  0  0  0  0  0  0  0  0  0
    5.4730   -5.0780   24.2680 N   0  0  0  0  0  0  0  0  0  0  0  0
    2.3630   -4.1970   25.7100 C   0  0  0  0  0  0  0  0  0  0  0  0
    4.2890   -2.4700   25.9150 C   0  0  0  0  0  0  0  0  0  0  0  0
    6.8440   -5.3730   23.9790 C   0  0  0  0  0  0  0  0  0  0  0  0
    4.5990   -5.5620   23.1910 C   0  0  0  0  0  0  0  0  0  0  0  0
    1.9890   -5.4780   25.5940 F   0  0  0  0  0  0  0  0  0  0  0  0
    5.5680   -2.0870   25.9910 F   0  0  0  0  0  0  0  0  0  0  0  0
    3.1460   -1.4260   25.9650 C   0  0  0  0  0  0  0  0  0  0  0  0
    1.3600   -3.2100   25.7600 C   0  0  0  0  0  0  0  0  0  0  0  0
    7.4360   -4.8300   22.8560 C   0  0  2  0  0  0  0  0  0  0  0  0
    5.5260   -5.9630   21.9580 C   0  0  0  0  0  0  0  0  0  0  0  0
    7.9840   -3.4250   23.0810 C   0  0  0  0  0  0  0  0  0  0  0  0
    1.6730   -1.8670   25.8830 C   0  0  0  0  0  0  0  0  0  0  0  0
    6.5260   -4.9220   21.8290 N   0  0  0  0  0  0  0  0  0  0  0  0
    6.6680   -4.2890   20.5920 C   0  0  0  0  0  0  0  0  0  0  0  0
    9.3950   -3.4500   23.1750 C   0  0  0  0  0  0  0  0  0  0  0  0
    5.6890   -4.2540   19.8260 O   0  0  0  0  0  0  0  0  0  0  0  0
    8.0380   -3.6840   20.3160 C   0  0  0  0  0  0  0  0  0  0  0  0
   10.0470   -2.4300   24.0850 C   0  0  0  0  0  0  0  0  0  0  0  0
   10.8480   -1.5240   23.3450 O   0  0  0  0  0  0  0  0  0  0  0  0
   10.2730   -0.4400   22.7550 C   0  0  0  0  0  0  0  0  0  0  0  0
   10.7150    0.8660   22.8920 C   0  0  0  0  0  0  0  0  0  0  0  0
    9.1690   -0.6740   21.9580 C   0  0  0  0  0  0  0  0  0  0  0  0
    9.9730    1.9920   22.1730 C   0  0  0  0  0  0  0  0  0  0  0  0
    8.5080    0.3720   21.3100 C   0  0  0  0  0  0  0  0  0  0  0  0
   10.3560    3.3140   22.2520 N   0  0  0  0  0  0  0  0  0  0  0  0
    8.8930    1.7920   21.3900 N   0  0  0  0  0  0  0  0  0  0  0  0
   11.0950    4.0360   23.1250 C   0  0  0  0  0  0  0  0  0  0  0  0
   11.1170    3.7180   24.2950 O   0  0  0  0  0  0  0  0  0  0  0  0
   11.8260    5.2440   22.6520 C   0  0  0  0  0  0  0  0  0  0  0  0
   11.0780    6.3890   23.2560 C   0  0  0  0  0  0  0  0  0  0  0  0
    9.8290    6.8230   22.7650 C   0  0  0  0  0  0  0  0  0  0  0  0
   11.6710    7.1020   24.4510 C   0  0  0  0  0  0  0  0  0  0  0  0
    9.1000    7.8800   23.3150 C   0  0  0  0  0  0  0  0  0  0  0  0
   10.9260    8.2330   25.0560 C   0  0  0  0  0  0  0  0  0  0  0  0
    9.5820    8.5990   24.4200 C   0  0  0  0  0  0  0  0  0  0  0  0
   11.4460    8.9350   26.1640 C   0  0  0  0  0  0  0  0  0  0  0  0
    8.8180    9.6690   24.9300 C   0  0  0  0  0  0  0  0  0  0  0  0
   10.6870   10.0990   26.7700 C   0  0  0  0  0  0  0  0  0  0  0  0
    9.3590   10.4510   26.1260 C   0  0  0  0  0  0  0  0  0  0  0  0
  1  2  2  0
  2  3  2  0
  2  4  1  0
  2  5  1  0
  4  6  2  0
  4  7  1  0
  5  8  1  0
  5  9  1  0
  6 10  1  0
  7 11  1  0
  7 12  2  0
  6 13  1  0
  8 14  1  0
  9 15  1  0
 14 16  1  1
 12 17  1  0
 13 17  2  0
 14 18  1  0
 15 18  1  0
 18 19  1  0
 16 20  1  0
 19 21  2  0
 19 22  1  0
 20 23  1  0
 23 24  1  0
 24 25  1  0
 25 26  2  0
 25 27  1  0
 26 28  1  0
 27 29  2  0
 28 30  1  0
 28 31  2  0
 29 31  1  0
 30 32  1  0
 32 33  2  0
 32 34  1  0
 34 35  1  0
 35 36  2  0
 35 37  1  0
 36 38  1  0
 37 39  2  0
 38 40  2  0
 39 40  1  0
 39 41  1  0
 40 42  1  0
 41 43  2  0
 42 44  2  0
 43 44  1  0
M  END
