x2608-x0995-x1458-x2776
     RDKit          3D

 51 54  0  0  0  0  0  0  0  0999 V2000
    8.1720   -0.9000   21.9160 N   0  0  0  0  0  0  0  0  0  0  0  0
    7.2430    0.2530   21.6990 C   0  0  1  0  0  0  0  0  0  0  0  0
    8.0920    1.5070   21.8110 C   0  0  0  0  0  0  0  0  0  0  0  0
    7.7550   -2.1620   21.3870 C   0  0  0  0  0  0  0  0  0  0  0  0
    8.7730   -1.0810   23.1840 C   0  0  1  0  0  0  0  0  0  0  0  0
    6.5390    0.4190   20.3560 C   0  0  0  0  0  0  0  0  0  0  0  0
   10.1360   -1.7200   23.4860 C   0  0  2  0  0  0  0  0  0  0  0  0
    8.5160   -0.0840   24.0270 C   0  0  0  0  0  0  0  0  0  0  0  0
    7.8040   -3.4400   22.1220 C   0  0  2  0  0  0  0  0  0  0  0  0
    7.4430    2.6760   22.0930 N   0  0  0  0  0  0  0  0  0  0  0  0
    5.3440    1.1520   20.3370 C   0  0  0  0  0  0  0  0  0  0  0  0
    7.0050   -0.0880   19.1290 C   0  0  0  0  0  0  0  0  0  0  0  0
    9.9410   -1.6160   24.9820 C   0  0  0  0  0  0  0  0  0  0  0  0
   11.4310   -1.5230   22.8940 C   0  0  2  0  0  0  0  0  0  0  0  0
    6.8530   -4.3690   21.4120 N   0  0  0  0  0  0  0  0  0  0  0  0
    7.3570   -3.4870   23.3910 C   0  0  0  0  0  0  0  0  0  0  0  0
    9.0240   -0.6940   25.2590 C   0  0  0  0  0  0  0  0  0  0  0  0
   12.5110   -2.2320   23.7510 C   0  0  0  0  0  0  0  0  0  0  0  0
    6.3450   -4.1100   20.1450 C   0  0  0  0  0  0  0  0  0  0  0  0
    6.3920    0.0990   17.9690 N   0  0  0  0  0  0  0  0  0  0  0  0
    4.6480    1.3620   19.0290 C   0  0  0  0  0  0  0  0  0  0  0  0
    8.1210    3.9040   22.2100 C   0  0  0  0  0  0  0  0  0  0  0  0
   12.0270   -0.3300   22.7440 C   0  0  1  0  0  0  0  0  0  0  0  0
    6.0170   -4.1380   23.7360 C   0  0  2  0  0  0  0  0  0  0  0  0
    6.7090   -5.7040   21.9700 C   0  0  0  0  0  0  0  0  0  0  0  0
   12.0720   -2.9510   24.9070 O   0  0  0  0  0  0  0  0  0  0  0  0
   13.4020   -0.4050   22.0980 C   0  0  0  0  0  0  0  0  0  0  0  0
    3.5010    2.0720   19.0410 N   0  0  0  0  0  0  0  0  0  0  0  0
    5.2290   -4.5140   19.8440 O   0  0  0  0  0  0  0  0  0  0  0  0
    5.8500   -3.9730   25.1920 C   0  0  0  0  0  0  0  0  0  0  0  0
    7.2410   -3.3570   19.1190 C   0  0  0  0  0  0  0  0  0  0  0  0
    5.1400    0.8630   17.8450 C   0  0  0  0  0  0  0  0  0  0  0  0
    7.7310    5.0800   22.7170 C   0  0  0  0  0  0  0  0  0  0  0  0
   11.1510    1.1070   22.7830 S   0  0  0  0  0  0  0  0  0  0  0  0
    6.1050   -5.6090   23.3840 C   0  0  0  0  0  0  0  0  0  0  0  0
   10.5470    2.2350   22.1220 O   0  0  0  0  0  0  0  0  0  0  0  0
   10.4130    2.2040   23.9530 C   0  0  0  0  0  0  0  0  0  0  0  0
   13.2280   -3.2590   25.6050 C   0  0  0  0  0  0  0  0  0  0  0  0
    6.8080   -3.8060   26.1270 N   0  0  0  0  0  0  0  0  0  0  0  0
    4.6950   -3.9390   25.6270 O   0  0  0  0  0  0  0  0  0  0  0  0
    8.5030    6.1870   22.7930 C   0  0  0  0  0  0  0  0  0  0  0  0
   11.0970    0.9050   24.4330 C   0  0  0  0  0  0  0  0  0  0  0  0
    7.3350   -5.0150   26.8040 C   0  0  0  0  0  0  0  0  0  0  0  0
    6.7110   -2.6970   26.8710 C   0  0  0  0  0  0  0  0  0  0  0  0
    9.7020    3.4910   23.9970 C   0  0  0  0  0  0  0  0  0  0  0  0
    9.5920    5.9920   23.8450 C   0  0  2  0  0  0  0  0  0  0  0  0
   10.5820    6.9300   24.0170 O   0  0  0  0  0  0  0  0  0  0  0  0
    8.8050   -4.5740   26.8030 C   0  0  0  0  0  0  0  0  0  0  0  0
    6.9570   -5.5190   28.1740 C   0  0  0  0  0  0  0  0  0  0  0  0
   10.3080    4.6610   23.7610 C   0  0  0  0  0  0  0  0  0  0  0  0
   11.6280    6.6510   24.9780 C   0  0  0  0  0  0  0  0  0  0  0  0
  1  2  1  0
  2  3  1  0
  1  4  1  0
  1  5  1  0
  2  6  1  6
  5  7  1  0
  5  8  1  6
  9  4  1  6
  3 10  1  0
  6 11  2  0
  6 12  1  0
  7 13  1  1
  7 14  1  0
  9 15  1  0
  9 16  1  0
  8 17  1  0
 13 17  2  0
 14 18  1  1
 15 19  1  0
 12 20  2  0
 11 21  1  0
 10 22  1  0
 14 23  1  0
 16 24  1  0
 15 25  1  0
 18 26  1  0
 23 27  1  6
 21 28  1  0
 19 29  2  0
 24 30  1  1
 19 31  1  0
 20 32  1  0
 21 32  2  0
 22 33  2  0
 23 34  1  0
 24 35  1  0
 25 35  1  0
 34 36  1  0
 34 37  2  0
 26 38  1  0
 30 39  1  0
 30 40  2  0
 33 41  1  0
 34 42  1  0
 39 43  1  0
 39 44  1  0
 37 45  1  0
 41 46  1  0
 46 47  1  6
 43 48  1  0
 43 49  1  0
 45 50  2  0
 46 50  1  0
 47 51  1  0
M  END
