x2600-x2754
     RDKit          3D

 38 41  0  0  0  0  0  0  0  0999 V2000
    4.8730   -3.4140   25.4750 C   0  0  0  0  0  0  0  0  0  0  0  0
    5.4830   -3.1890   26.7820 N   0  0  0  0  0  0  0  0  0  0  0  0
    5.1080   -2.0140   27.5740 C   0  0  0  0  0  0  0  0  0  0  0  0
    3.6780   -3.2560   25.2500 O   0  0  0  0  0  0  0  0  0  0  0  0
    5.8190   -3.8520   24.3370 C   0  0  2  0  0  0  0  0  0  0  0  0
    6.0030   -2.5090   23.6050 C   0  0  0  0  0  0  0  0  0  0  0  0
    5.0540   -4.8020   23.3930 C   0  0  0  0  0  0  0  0  0  0  0  0
    6.8490   -3.6810   26.9090 C   0  0  0  0  0  0  0  0  0  0  0  0
    6.8120   -2.6770   22.3270 C   0  0  2  0  0  0  0  0  0  0  0  0
    6.0380   -4.9760   22.2620 C   0  0  0  0  0  0  0  0  0  0  0  0
    7.1570   -4.7700   27.6870 C   0  0  0  0  0  0  0  0  0  0  0  0
    7.9680   -2.9850   26.1480 C   0  0  0  0  0  0  0  0  0  0  0  0
    6.4950   -1.5060   21.6300 C   0  0  0  0  0  0  0  0  0  0  0  0
    6.4790   -3.7870   21.5410 N   0  0  0  0  0  0  0  0  0  0  0  0
    8.5860   -5.2940   27.7980 C   0  0  0  0  0  0  0  0  0  0  0  0
    9.4630   -3.4390   26.1880 C   0  0  0  0  0  0  0  0  0  0  0  0
    6.1730   -3.8200   20.1820 C   0  0  0  0  0  0  0  0  0  0  0  0
    7.3470   -0.6490   21.0210 N   0  0  0  0  0  0  0  0  0  0  0  0
    9.6850   -4.5620   27.0070 C   0  0  0  0  0  0  0  0  0  0  0  0
    5.1670   -4.4070   19.8040 O   0  0  0  0  0  0  0  0  0  0  0  0
    7.1200   -3.1830   19.1790 C   0  0  0  0  0  0  0  0  0  0  0  0
    8.2980    0.1450   21.7490 C   0  0  0  0  0  0  0  0  0  0  0  0
    6.6360    0.0710   19.9780 C   0  0  0  0  0  0  0  0  0  0  0  0
    8.9970    1.3360   21.2950 O   0  0  0  0  0  0  0  0  0  0  0  0
    8.5770   -0.2450   23.0760 C   0  0  0  0  0  0  0  0  0  0  0  0
    6.9770   -0.0260   18.6550 C   0  0  0  0  0  0  0  0  0  0  0  0
    5.4540    0.9700   20.3250 C   0  0  0  0  0  0  0  0  0  0  0  0
    6.2680    0.6920   17.5640 N   0  0  0  0  0  0  0  0  0  0  0  0
    4.7610    1.6580   19.3440 C   0  0  0  0  0  0  0  0  0  0  0  0
   10.0680   -0.4250   23.3040 C   0  0  0  0  0  0  0  0  0  0  0  0
    5.2270    1.4820   17.9130 C   0  0  0  0  0  0  0  0  0  0  0  0
   10.6220   -0.1680   24.5780 C   0  0  0  0  0  0  0  0  0  0  0  0
   10.9040   -0.8420   22.2870 C   0  0  0  0  0  0  0  0  0  0  0  0
   11.9840   -0.3270   24.8280 C   0  0  0  0  0  0  0  0  0  0  0  0
   12.2530   -0.9840   22.5520 C   0  0  0  0  0  0  0  0  0  0  0  0
   13.1070   -1.3740   21.5570 C   0  0  0  0  0  0  0  0  0  0  0  0
   12.7480   -0.7310   23.7870 C   0  0  0  0  0  0  0  0  0  0  0  0
   13.9430   -1.6050   20.4670 N   0  0  0  0  0  0  0  0  0  0  0  0
  1  2  1  0
  2  3  1  0
  1  4  2  0
  5  1  1  1
  5  6  1  0
  5  7  1  0
  2  8  1  0
  6  9  1  0
  7 10  1  0
  8 11  2  0
  8 12  1  0
  9 13  1  6
  9 14  1  0
 10 14  1  0
 11 15  1  0
 12 16  2  0
 14 17  1  0
 13 18  1  0
 15 19  2  0
 16 19  1  0
 17 20  2  0
 17 21  1  0
 18 22  1  0
 18 23  1  0
 22 24  2  0
 22 25  1  0
 23 26  2  0
 23 27  1  0
 26 28  1  0
 27 29  2  0
 25 30  1  0
 28 31  2  0
 29 31  1  0
 30 32  2  0
 30 33  1  0
 32 34  1  0
 33 35  2  0
 35 36  1  0
 34 37  2  0
 35 37  1  0
 36 38  3  0
M  END
