x2600-x1336
     RDKit          3D

 39 43  0  0  0  0  0  0  0  0999 V2000
    6.0250   -5.5150   28.9840 C   0  0  0  0  0  0  0  0  0  0  0  0
    7.0340   -4.9920   28.0130 C   0  0  0  0  0  0  0  0  0  0  0  0
    8.3010   -5.5500   27.8550 C   0  0  0  0  0  0  0  0  0  0  0  0
    6.7680   -3.8060   27.1090 C   0  0  0  0  0  0  0  0  0  0  0  0
    7.7320   -3.3100   26.1830 C   0  0  0  0  0  0  0  0  0  0  0  0
    9.2280   -5.0860   26.9800 C   0  0  0  0  0  0  0  0  0  0  0  0
    7.1780   -1.9120   25.2370 S   0  0  2  0  0  0  0  0  0  0  0  0
    9.1020   -3.9590   26.0590 C   0  0  0  0  0  0  0  0  0  0  0  0
    8.3980   -0.8020   25.1920 N   0  0  0  0  0  0  0  0  0  0  0  0
    5.8470   -1.5850   25.6930 O   0  0  0  0  0  0  0  0  0  0  0  0
   10.1820   -3.5080   25.1260 C   0  0  0  0  0  0  0  0  0  0  0  0
    6.9900   -2.3640   23.6280 N   0  0  0  0  0  0  0  0  0  0  0  0
    8.0620    0.3870   24.5610 C   0  0  0  0  0  0  0  0  0  0  0  0
    6.1910   -3.4720   23.3490 C   0  0  0  0  0  0  0  0  0  0  0  0
    7.4770   -1.8410   22.4470 C   0  0  1  0  0  0  0  0  0  0  0  0
    8.0700   -0.3350   22.1770 C   0  0  1  0  0  0  0  0  0  0  0  0
    8.7270    0.3630   23.1960 C   0  0  2  0  0  0  0  0  0  0  0  0
    6.7530   -4.4570   22.5260 C   0  0  0  0  0  0  0  0  0  0  0  0
    8.0280   -2.8000   21.6490 C   0  0  0  0  0  0  0  0  0  0  0  0
    8.8500   -0.1990   20.9950 O   0  0  0  0  0  0  0  0  0  0  0  0
    6.8590    0.3710   21.7680 N   0  0  0  0  0  0  0  0  0  0  0  0
    7.1860   -3.8030   21.2640 N   0  0  0  0  0  0  0  0  0  0  0  0
   10.1870   -0.0850   23.3800 C   0  0  0  0  0  0  0  0  0  0  0  0
    6.5720   -3.7400   20.0290 C   0  0  0  0  0  0  0  0  0  0  0  0
    6.3450    0.6360   20.4360 C   0  0  0  0  0  0  0  0  0  0  0  0
   10.7640    0.0080   24.6530 C   0  0  0  0  0  0  0  0  0  0  0  0
   10.9520   -0.5620   22.3540 C   0  0  0  0  0  0  0  0  0  0  0  0
    5.4510   -4.2050   19.7930 O   0  0  0  0  0  0  0  0  0  0  0  0
    7.4110   -3.1350   18.9200 C   0  0  0  0  0  0  0  0  0  0  0  0
    6.8800    0.1890   19.2350 C   0  0  0  0  0  0  0  0  0  0  0  0
    5.1910    1.4280   20.3360 C   0  0  0  0  0  0  0  0  0  0  0  0
   12.1190   -0.3630   24.9670 C   0  0  0  0  0  0  0  0  0  0  0  0
   12.3980   -0.9630   22.5820 C   0  0  0  0  0  0  0  0  0  0  0  0
   13.1780   -1.4020   21.5620 C   0  0  0  0  0  0  0  0  0  0  0  0
    6.3570    0.4770   17.8990 N   0  0  0  0  0  0  0  0  0  0  0  0
    4.6560    1.7270   19.0910 C   0  0  0  0  0  0  0  0  0  0  0  0
   12.8830   -0.8270   23.9440 C   0  0  0  0  0  0  0  0  0  0  0  0
   13.9590   -1.6390   20.4470 N   0  0  0  0  0  0  0  0  0  0  0  0
    5.2440    1.2560   17.9250 C   0  0  0  0  0  0  0  0  0  0  0  0
  1  2  1  0
  2  3  2  0
  2  4  1  0
  4  5  2  0
  3  6  1  0
  7  5  1  1
  5  8  1  0
  6  8  2  0
  7  9  2  0
  7 10  2  0
  8 11  1  0
  7 12  1  0
  9 13  1  0
 12 14  1  0
 12 15  1  0
 15 16  1  0
 13 17  1  0
 16 17  1  0
 14 18  1  0
 15 19  1  1
 16 20  1  6
 16 21  1  0
 18 22  1  0
 19 22  1  0
 17 23  1  1
 22 24  1  0
 21 25  1  0
 23 26  2  0
 23 27  1  0
 24 28  2  0
 24 29  1  0
 25 30  2  0
 25 31  1  0
 26 32  1  0
 27 33  2  0
 33 34  1  0
 30 35  1  0
 31 36  2  0
 32 37  2  0
 33 37  1  0
 34 38  3  0
 35 39  2  0
 36 39  1  0
M  END
