x2600-x0749
     RDKit          3D

 36 41  0  0  0  0  0  0  0  0999 V2000
   13.5790   -1.7700   21.1540 N   0  0  0  0  0  0  0  0  0  0  0  0
   13.0460   -0.6520   21.9190 C   0  0  0  0  0  0  0  0  0  0  0  0
   12.2980    0.5270   22.5200 C   0  0  2  0  0  0  0  0  0  0  0  0
   12.3010    0.7340   23.7700 C   0  0  0  0  0  0  0  0  0  0  0  0
   10.8080    0.5130   22.2670 C   0  0  0  0  0  0  0  0  0  0  0  0
   11.2430   -0.0350   24.3280 C   0  0  1  0  0  0  0  0  0  0  0  0
   10.3040   -0.1800   23.2030 C   0  0  1  0  0  0  0  0  0  0  0  0
    8.8490   -0.0870   23.3620 C   0  0  1  0  0  0  0  0  0  0  0  0
   11.7620   -1.3640   24.4070 C   0  0  2  0  0  0  0  0  0  0  0  0
    8.1870    0.2660   21.9870 C   0  0  0  0  0  0  0  0  0  0  0  0
    8.3420   -1.2680   24.1580 C   0  0  0  0  0  0  0  0  0  0  0  0
   10.8660   -2.3880   24.4280 C   0  0  2  0  0  0  0  0  0  0  0  0
   12.9230   -1.3730   25.1050 C   0  0  0  0  0  0  0  0  0  0  0  0
    8.7700    1.4310   21.3080 O   0  0  0  0  0  0  0  0  0  0  0  0
    7.1480   -0.4720   21.5050 N   0  0  0  0  0  0  0  0  0  0  0  0
    9.3170   -2.3210   24.6150 N   0  0  0  0  0  0  0  0  0  0  0  0
   11.4940   -3.6250   24.8840 C   0  0  2  0  0  0  0  0  0  0  0  0
   13.4160   -2.4560   25.7270 C   0  0  0  0  0  0  0  0  0  0  0  0
    6.4810    0.1060   20.3540 C   0  0  0  0  0  0  0  0  0  0  0  0
    8.8660   -3.6020   24.6790 C   0  0  2  0  0  0  0  0  0  0  0  0
   10.1690   -4.3910   25.6500 S   0  0  0  0  0  0  0  0  0  0  0  0
   12.6930   -3.6050   25.7090 C   0  0  0  0  0  0  0  0  0  0  0  0
    6.9650   -0.1210   18.9410 C   0  0  0  0  0  0  0  0  0  0  0  0
    5.2520    0.9920   20.5150 C   0  0  0  0  0  0  0  0  0  0  0  0
    8.4960   -4.5220   23.4280 C   0  0  2  0  0  0  0  0  0  0  0  0
    6.3210    0.4720   17.7830 N   0  0  0  0  0  0  0  0  0  0  0  0
    4.6620    1.5570   19.2130 C   0  0  0  0  0  0  0  0  0  0  0  0
    8.0990   -3.7860   22.2390 C   0  0  0  0  0  0  0  0  0  0  0  0
    7.5230   -5.3840   23.9470 C   0  0  0  0  0  0  0  0  0  0  0  0
    5.2040    1.2890   17.9170 C   0  0  0  0  0  0  0  0  0  0  0  0
    6.9430   -4.2870   21.6240 N   0  0  0  0  0  0  0  0  0  0  0  0
    7.1010   -6.2640   22.9420 C   0  0  0  0  0  0  0  0  0  0  0  0
    6.6080   -3.9460   20.3160 C   0  0  0  0  0  0  0  0  0  0  0  0
    6.3700   -5.5490   22.0350 C   0  0  0  0  0  0  0  0  0  0  0  0
    7.6060   -3.2270   19.4050 C   0  0  0  0  0  0  0  0  0  0  0  0
    5.5050   -4.2660   19.8460 O   0  0  0  0  0  0  0  0  0  0  0  0
  1  2  3  0
  3  2  1  1
  3  4  1  0
  3  5  1  0
  6  4  1  6
  7  5  1  6
  6  7  1  0
  7  8  1  0
  6  9  1  0
  8 10  1  6
  8 11  1  0
  9 12  1  0
  9 13  1  1
 10 14  2  0
 10 15  1  0
 11 16  1  0
 12 16  1  1
 12 17  1  0
 13 18  2  0
 15 19  1  0
 16 20  1  0
 17 21  1  0
 20 21  1  6
 17 22  1  1
 18 22  1  0
 19 23  2  0
 19 24  1  0
 20 25  1  0
 23 26  1  0
 24 27  2  0
 25 28  1  6
 25 29  1  0
 26 30  2  0
 27 30  1  0
 28 31  1  0
 29 32  1  0
 31 33  1  0
 31 34  1  0
 32 34  1  0
 33 35  1  0
 33 36  2  0
M  END
