x2608-x1308
     RDKit          3D

 37 40  0  0  0  0  0  0  0  0999 V2000
    8.1330   -3.6510   20.2850 C   0  0  0  0  0  0  0  0  0  0  0  0
    6.9130   -4.1170   20.6240 C   0  0  0  0  0  0  0  0  0  0  0  0
    5.9900   -4.3500   19.8300 O   0  0  0  0  0  0  0  0  0  0  0  0
    6.6180   -4.3610   22.1180 C   0  0  0  0  0  0  0  0  0  0  0  0
    6.3850   -2.9360   22.7510 C   0  0  0  0  0  0  0  0  0  0  0  0
    7.6860   -5.0040   22.7630 C   0  0  0  0  0  0  0  0  0  0  0  0
    5.4610   -5.3330   22.2040 C   0  0  0  0  0  0  0  0  0  0  0  0
    5.8720   -1.9230   21.9180 C   0  0  0  0  0  0  0  0  0  0  0  0
    7.3270   -5.0340   24.3310 C   0  0  0  0  0  0  0  0  0  0  0  0
    5.3330   -5.9840   23.4510 C   0  0  0  0  0  0  0  0  0  0  0  0
    6.7740   -1.0480   21.0560 N   0  0  0  0  0  0  0  0  0  0  0  0
    5.8910   -5.2430   24.4310 N   0  0  0  0  0  0  0  0  0  0  0  0
    5.3110   -5.4930   25.9840 S   0  0  0  0  0  0  0  0  0  0  0  0
    7.9740   -0.4950   21.5460 C   0  0  0  0  0  0  0  0  0  0  0  0
    6.1510   -0.2030   20.0010 C   0  0  0  0  0  0  0  0  0  0  0  0
    6.3580   -5.1180   26.9070 O   0  0  0  0  0  0  0  0  0  0  0  0
    4.6900   -6.8000   26.0000 O   0  0  0  0  0  0  0  0  0  0  0  0
    8.7760   -1.2500   22.3780 N   0  0  0  0  0  0  0  0  0  0  0  0
    8.2550    0.6560   21.1820 O   0  0  0  0  0  0  0  0  0  0  0  0
    4.0460   -4.3410   26.0750 C   0  0  0  0  0  0  0  0  0  0  0  0
    6.7430   -0.0920   18.6190 C   0  0  0  0  0  0  0  0  0  0  0  0
    4.9940    0.4650   20.4180 C   0  0  0  0  0  0  0  0  0  0  0  0
    4.3470   -3.0020   26.4310 C   0  0  0  0  0  0  0  0  0  0  0  0
    2.7140   -4.6990   25.8070 C   0  0  0  0  0  0  0  0  0  0  0  0
   10.0820   -0.7980   22.5870 C   0  0  0  0  0  0  0  0  0  0  0  0
    6.1280    0.7090   17.7110 N   0  0  0  0  0  0  0  0  0  0  0  0
    4.3590    1.2820   19.5050 C   0  0  0  0  0  0  0  0  0  0  0  0
    3.3500   -2.0090   26.5360 C   0  0  0  0  0  0  0  0  0  0  0  0
    1.6540   -3.8100   25.8770 C   0  0  0  0  0  0  0  0  0  0  0  0
   11.2660   -1.4960   22.8040 C   0  0  0  0  0  0  0  0  0  0  0  0
   10.3370    0.8910   22.5810 S   0  0  0  0  0  0  0  0  0  0  0  0
    5.0020    1.3690   18.1130 C   0  0  0  0  0  0  0  0  0  0  0  0
    1.8680   -2.3350   26.2650 C   0  0  0  0  0  0  0  0  0  0  0  0
   12.0160    0.6670   22.8350 C   0  0  0  0  0  0  0  0  0  0  0  0
   12.3680   -0.6860   22.9510 C   0  0  0  0  0  0  0  0  0  0  0  0
    0.6040   -1.1800   26.3850 Cl  0  0  0  0  0  0  0  0  0  0  0  0
   12.8350    1.8690   22.8880 C   0  0  0  0  0  0  0  0  0  0  0  0
  1  2  1  0
  2  3  2  0
  4  2  1  0
  4  5  1  0
  4  6  1  0
  4  7  1  0
  5  8  1  0
  6  9  1  0
  7 10  1  0
  8 11  1  0
  9 12  1  0
 10 12  1  0
 12 13  1  0
 11 14  1  0
 11 15  1  0
 13 16  2  0
 13 17  2  0
 14 18  1  0
 14 19  2  0
 13 20  1  0
 15 21  2  0
 15 22  1  0
 20 23  2  0
 20 24  1  0
 18 25  1  0
 21 26  1  0
 22 27  2  0
 23 28  1  0
 24 29  2  0
 25 30  2  0
 25 31  1  0
 26 32  2  0
 27 32  1  0
 28 33  2  0
 29 33  1  0
 31 34  1  0
 30 35  1  0
 34 35  2  0
 33 36  1  0
 34 37  1  0
M  END
