x2600-x0736
     RDKit          3D

 34 37  0  0  0  0  0  0  0  0999 V2000
   13.5450   -3.2330   20.6810 N   0  0  0  0  0  0  0  0  0  0  0  0
   12.9480   -2.1600   21.4490 C   0  0  0  0  0  0  0  0  0  0  0  0
   12.2770   -1.1650   22.1900 C   0  0  0  0  0  0  0  0  0  0  0  0
   12.9280   -0.2490   23.0090 C   0  0  0  0  0  0  0  0  0  0  0  0
   10.7270   -1.0830   22.0830 C   0  0  0  0  0  0  0  0  0  0  0  0
   12.1370    0.7830   23.7660 C   0  0  0  0  0  0  0  0  0  0  0  0
    9.9640   -0.0290   22.8580 C   0  0  0  0  0  0  0  0  0  0  0  0
    8.4480    0.0640   22.7510 C   0  0  0  0  0  0  0  0  0  0  0  0
   10.6470    0.8580   23.6640 C   0  0  0  0  0  0  0  0  0  0  0  0
    7.8560   -0.7290   21.5940 C   0  0  2  0  0  0  0  0  0  0  0  0
    8.5500   -0.3070   20.7100 O   0  0  0  0  0  0  0  0  0  0  0  0
    6.5510   -0.2750   21.2570 N   0  0  0  0  0  0  0  0  0  0  0  0
    7.9130   -2.2760   21.7010 C   0  0  2  0  0  0  0  0  0  0  0  0
    6.1750    0.2620   20.0740 C   0  0  0  0  0  0  0  0  0  0  0  0
    6.7430   -2.9150   21.3090 N   0  0  0  0  0  0  0  0  0  0  0  0
    8.4820   -2.5760   22.9540 C   0  0  0  0  0  0  0  0  0  0  0  0
    6.4950   -3.3720   19.9860 C   0  0  0  0  0  0  0  0  0  0  0  0
    6.8020    0.1460   18.8550 C   0  0  0  0  0  0  0  0  0  0  0  0
    5.0170    1.0160   20.1400 C   0  0  0  0  0  0  0  0  0  0  0  0
    7.7830   -3.1730   23.9320 N   0  0  0  0  0  0  0  0  0  0  0  0
    6.1890   -3.7360   22.3910 C   0  0  0  0  0  0  0  0  0  0  0  0
    7.4560   -3.0020   18.8770 C   0  0  0  0  0  0  0  0  0  0  0  0
    5.5100   -4.1010   19.7560 O   0  0  0  0  0  0  0  0  0  0  0  0
    7.1910   -2.4690   24.9820 C   0  0  0  0  0  0  0  0  0  0  0  0
    6.3190    0.7770   17.6250 N   0  0  0  0  0  0  0  0  0  0  0  0
    4.4950    1.6470   19.0110 C   0  0  0  0  0  0  0  0  0  0  0  0
    7.0270   -4.1830   23.4040 C   0  0  0  0  0  0  0  0  0  0  0  0
    5.9900   -2.6000   25.2080 O   0  0  0  0  0  0  0  0  0  0  0  0
    5.1880    1.4910   17.8010 C   0  0  0  0  0  0  0  0  0  0  0  0
    7.9870   -1.5820   25.7890 C   0  0  0  0  0  0  0  0  0  0  0  0
    8.5620   -0.3830   25.2180 O   0  0  0  0  0  0  0  0  0  0  0  0
    8.3620   -1.6240   27.1270 C   0  0  0  0  0  0  0  0  0  0  0  0
    9.2010   -0.4590   27.4930 C   0  0  0  0  0  0  0  0  0  0  0  0
    9.2620    0.2820   26.1590 C   0  0  0  0  0  0  0  0  0  0  0  0
  1  2  3  0
  2  3  1  0
  3  4  2  0
  3  5  1  0
  4  6  1  0
  5  7  2  0
  7  8  1  0
  6  9  2  0
  7  9  1  0
  8 10  1  0
 10 11  1  6
 10 12  1  0
 10 13  1  0
 12 14  1  0
 13 15  1  0
 13 16  1  1
 15 17  1  0
 14 18  2  0
 14 19  1  0
 16 20  1  0
 15 21  1  0
 17 22  1  0
 17 23  2  0
 20 24  1  0
 18 25  1  0
 19 26  2  0
 20 27  1  0
 21 27  1  0
 24 28  2  0
 25 29  2  0
 26 29  1  0
 24 30  1  0
 30 31  1  0
 30 32  2  0
 32 33  1  0
 31 34  1  0
 33 34  2  0
M  END
