x2608-x1348
     RDKit          3D

 33 36  0  0  0  0  0  0  0  0999 V2000
    6.2600   -3.4810   21.4870 N   0  0  0  0  0  0  0  0  0  0  0  0
    6.1870   -3.8370   20.1890 C   0  0  0  0  0  0  0  0  0  0  0  0
    5.3310   -4.6350   19.8800 O   0  0  0  0  0  0  0  0  0  0  0  0
    5.4080   -2.3950   21.6320 C   0  0  0  0  0  0  0  0  0  0  0  0
    6.0050   -4.3040   22.5760 C   0  0  0  0  0  0  0  0  0  0  0  0
    7.1600   -3.1800   19.2090 C   0  0  0  0  0  0  0  0  0  0  0  0
    6.0360   -1.0960   22.1320 C   0  0  0  0  0  0  0  0  0  0  0  0
    6.6690   -4.2330   23.7550 N   0  0  0  0  0  0  0  0  0  0  0  0
    4.6990   -5.4960   22.4740 S   0  0  0  0  0  0  0  0  0  0  0  0
    6.8480   -0.5140   21.0860 N   0  0  0  0  0  0  0  0  0  0  0  0
    6.1210   -5.0830   24.6260 C   0  0  0  0  0  0  0  0  0  0  0  0
    5.0620   -5.8040   24.0700 C   0  0  0  0  0  0  0  0  0  0  0  0
    8.0980   -0.1490   21.4710 C   0  0  0  0  0  0  0  0  0  0  0  0
    6.4160   -5.3460   25.9510 C   0  0  0  0  0  0  0  0  0  0  0  0
    4.3040   -6.7290   24.7370 C   0  0  0  0  0  0  0  0  0  0  0  0
    6.1590    0.1750   20.0140 C   0  0  0  0  0  0  0  0  0  0  0  0
    7.4670   -4.6430   26.5100 O   0  0  0  0  0  0  0  0  0  0  0  0
    8.8800   -1.0580   22.3330 N   0  0  0  0  0  0  0  0  0  0  0  0
    8.5520    0.9410   21.1050 O   0  0  0  0  0  0  0  0  0  0  0  0
    4.6190   -6.9560   26.0730 C   0  0  0  0  0  0  0  0  0  0  0  0
    5.6790   -6.2730   26.6980 C   0  0  0  0  0  0  0  0  0  0  0  0
    6.7280    0.0520   18.7650 C   0  0  0  0  0  0  0  0  0  0  0  0
    5.0310    0.9020   20.2320 C   0  0  0  0  0  0  0  0  0  0  0  0
    7.9670   -5.2820   27.6890 C   0  0  0  0  0  0  0  0  0  0  0  0
   10.2100   -0.7220   22.4910 C   0  0  0  0  0  0  0  0  0  0  0  0
    6.1330    0.7050   17.6910 N   0  0  0  0  0  0  0  0  0  0  0  0
    4.3840    1.5790   19.2230 C   0  0  0  0  0  0  0  0  0  0  0  0
   11.3560   -1.4750   22.5240 C   0  0  0  0  0  0  0  0  0  0  0  0
   10.5040    0.9240   22.6690 S   0  0  0  0  0  0  0  0  0  0  0  0
    4.9760    1.4610   17.9530 C   0  0  0  0  0  0  0  0  0  0  0  0
   12.1690    0.6240   22.7580 C   0  0  0  0  0  0  0  0  0  0  0  0
   12.4710   -0.6990   22.6800 C   0  0  0  0  0  0  0  0  0  0  0  0
   13.0090    1.7760   22.8920 C   0  0  0  0  0  0  0  0  0  0  0  0
  1  2  1  0
  2  3  2  0
  1  4  1  0
  1  5  1  0
  2  6  1  0
  4  7  1  0
  5  8  2  0
  5  9  1  0
  7 10  1  0
  8 11  1  0
  9 12  1  0
 11 12  2  0
 10 13  1  0
 11 14  1  0
 12 15  1  0
 10 16  1  0
 14 17  1  0
 13 18  1  0
 13 19  2  0
 15 20  2  0
 14 21  2  0
 20 21  1  0
 16 22  2  0
 16 23  1  0
 17 24  1  0
 18 25  1  0
 22 26  1  0
 23 27  2  0
 25 28  2  0
 25 29  1  0
 26 30  2  0
 27 30  1  0
 29 31  1  0
 28 32  1  0
 31 32  2  0
 31 33  1  0
M  END
