x2608-x1458-x2776
     RDKit          3D

 50 53  0  0  0  0  0  0  0  0999 V2000
    6.8840   -1.1620   22.5600 N   0  0  0  0  0  0  0  0  0  0  0  0
    6.2990    0.1600   22.1960 C   0  0  1  0  0  0  0  0  0  0  0  0
    6.9790    1.4630   22.6610 C   0  0  0  0  0  0  0  0  0  0  0  0
    5.8710   -2.2670   22.6790 C   0  0  0  0  0  0  0  0  0  0  0  0
    8.2020   -1.2370   23.4240 C   0  0  2  0  0  0  0  0  0  0  0  0
    5.9030    0.3220   20.6550 C   0  0  0  0  0  0  0  0  0  0  0  0
    9.3500   -2.3600   23.3300 C   0  0  2  0  0  0  0  0  0  0  0  0
    8.0490   -0.9880   24.8080 C   0  0  0  0  0  0  0  0  0  0  0  0
    5.8740   -3.7460   22.8760 C   0  0  2  0  0  0  0  0  0  0  0  0
    6.2960    2.6870   22.4000 N   0  0  0  0  0  0  0  0  0  0  0  0
    4.6070    0.5820   20.2780 C   0  0  0  0  0  0  0  0  0  0  0  0
    6.9220    0.2150   19.6320 C   0  0  0  0  0  0  0  0  0  0  0  0
    8.9240   -3.0460   24.5130 C   0  0  0  0  0  0  0  0  0  0  0  0
   10.8550   -1.9730   23.4790 C   0  0  1  0  0  0  0  0  0  0  0  0
    6.2730   -4.5940   21.6520 N   0  0  0  0  0  0  0  0  0  0  0  0
    4.7830   -4.5080   23.4560 C   0  0  0  0  0  0  0  0  0  0  0  0
    8.2170   -2.3390   25.3760 C   0  0  0  0  0  0  0  0  0  0  0  0
   11.7000   -3.2970   23.6010 C   0  0  0  0  0  0  0  0  0  0  0  0
    5.9340   -4.2760   20.3070 C   0  0  0  0  0  0  0  0  0  0  0  0
    6.4790    0.4000   18.1910 N   0  0  0  0  0  0  0  0  0  0  0  0
    4.1610    0.7570   18.9530 C   0  0  0  0  0  0  0  0  0  0  0  0
    6.9200    3.9530   22.5540 C   0  0  0  0  0  0  0  0  0  0  0  0
   11.5300   -0.9170   22.6440 C   0  0  2  0  0  0  0  0  0  0  0  0
    5.0880   -5.8310   23.9170 C   0  0  2  0  0  0  0  0  0  0  0  0
    6.7720   -5.9680   21.8590 C   0  0  0  0  0  0  0  0  0  0  0  0
   11.9100   -3.6840   24.8020 O   0  0  0  0  0  0  0  0  0  0  0  0
   12.9850   -0.9300   21.9830 C   0  0  0  0  0  0  0  0  0  0  0  0
    4.8810   -4.6940   19.8470 O   0  0  0  0  0  0  0  0  0  0  0  0
    4.9590   -6.1460   25.3730 C   0  0  0  0  0  0  0  0  0  0  0  0
    6.8890   -3.4480   19.4220 C   0  0  0  0  0  0  0  0  0  0  0  0
    5.0680    0.6750   17.9000 C   0  0  0  0  0  0  0  0  0  0  0  0
    8.0540    4.3840   21.8100 C   0  0  0  0  0  0  0  0  0  0  0  0
   11.1230    0.8040   23.0770 S   0  0  0  0  0  0  0  0  0  0  0  0
    6.2560   -6.5880   23.1850 C   0  0  0  0  0  0  0  0  0  0  0  0
   10.3660    1.6150   22.1950 O   0  0  0  0  0  0  0  0  0  0  0  0
   11.1260    2.2960   24.1370 C   0  0  0  0  0  0  0  0  0  0  0  0
   13.1730   -3.4720   25.4680 C   0  0  0  0  0  0  0  0  0  0  0  0
    5.6730   -5.5090   26.4000 N   0  0  0  0  0  0  0  0  0  0  0  0
    4.1350   -7.0200   25.6650 O   0  0  0  0  0  0  0  0  0  0  0  0
    8.6240    5.6590   22.0480 C   0  0  0  0  0  0  0  0  0  0  0  0
   12.1890    0.4970   24.5390 C   0  0  0  0  0  0  0  0  0  0  0  0
    6.5070   -6.2150   27.3080 C   0  0  0  0  0  0  0  0  0  0  0  0
    5.2140   -4.2600   26.7920 C   0  0  0  0  0  0  0  0  0  0  0  0
   10.3630    3.6550   23.8650 C   0  0  0  0  0  0  0  0  0  0  0  0
    9.9150    5.7430   22.7040 C   0  0  1  0  0  0  0  0  0  0  0  0
    9.7520    6.3530   23.9800 O   0  0  0  0  0  0  0  0  0  0  0  0
    7.8270   -5.6840   27.5090 C   0  0  0  0  0  0  0  0  0  0  0  0
    5.8950   -6.7810   28.4720 C   0  0  0  0  0  0  0  0  0  0  0  0
   10.6480    4.4910   22.8620 C   0  0  0  0  0  0  0  0  0  0  0  0
   10.7130    7.2890   24.4780 C   0  0  0  0  0  0  0  0  0  0  0  0
  1  2  1  0
  2  3  1  0
  1  4  1  0
  1  5  1  0
  2  6  1  6
  5  7  1  0
  5  8  1  1
  9  4  1  6
  3 10  1  0
  6 11  2  0
  6 12  1  0
  7 13  1  1
  7 14  1  0
  9 15  1  0
  9 16  1  0
  8 17  1  0
 13 17  2  0
 14 18  1  6
 15 19  1  0
 12 20  2  0
 11 21  1  0
 10 22  1  0
 14 23  1  0
 16 24  1  0
 15 25  1  0
 18 26  1  0
 23 27  1  1
 19 28  2  0
 24 29  1  1
 19 30  1  0
 20 31  1  0
 21 31  2  0
 22 32  2  0
 23 33  1  0
 24 34  1  0
 25 34  1  0
 33 35  1  0
 33 36  2  0
 26 37  1  0
 29 38  1  0
 29 39  2  0
 32 40  1  0
 33 41  1  0
 38 42  1  0
 38 43  1  0
 36 44  1  0
 40 45  1  0
 45 46  1  1
 42 47  1  0
 42 48  1  0
 44 49  2  0
 45 49  1  0
 46 50  1  0
M  END
