x2608-x1380
     RDKit          3D

 34 37  0  0  0  0  0  0  0  0999 V2000
    7.1580   -3.3810   19.3980 C   0  0  0  0  0  0  0  0  0  0  0  0
    6.4980   -4.1420   20.2890 C   0  0  0  0  0  0  0  0  0  0  0  0
    5.4400   -4.6850   19.9570 O   0  0  0  0  0  0  0  0  0  0  0  0
    7.0340   -4.3690   21.5650 N   0  0  0  0  0  0  0  0  0  0  0  0
    6.4890   -5.4470   22.4110 C   0  0  0  0  0  0  0  0  0  0  0  0
    7.8850   -3.5210   22.1690 C   0  0  0  0  0  0  0  0  0  0  0  0
    6.1630   -5.0950   23.7330 C   0  0  0  0  0  0  0  0  0  0  0  0
    7.6640   -3.1910   23.5160 C   0  0  1  0  0  0  0  0  0  0  0  0
    7.9370   -1.7900   23.6140 C   0  0  0  0  0  0  0  0  0  0  0  0
    6.3250   -3.4780   23.8930 C   0  0  2  0  0  0  0  0  0  0  0  0
    5.9490   -3.0610   25.3970 C   0  0  0  0  0  0  0  0  0  0  0  0
    8.6130   -1.1100   22.4570 N   0  0  0  0  0  0  0  0  0  0  0  0
    5.0990   -2.1800   25.5240 O   0  0  0  0  0  0  0  0  0  0  0  0
    7.9440   -0.3130   21.5150 C   0  0  0  0  0  0  0  0  0  0  0  0
    6.4940   -3.6650   26.5500 N   0  0  0  0  0  0  0  0  0  0  0  0
    9.9390   -0.6900   22.5890 C   0  0  0  0  0  0  0  0  0  0  0  0
    8.4150    0.7690   21.1520 O   0  0  0  0  0  0  0  0  0  0  0  0
    6.7540   -0.7560   21.0060 N   0  0  0  0  0  0  0  0  0  0  0  0
    7.8160   -3.8800   26.6740 C   0  0  0  0  0  0  0  0  0  0  0  0
    5.8580   -3.5660   27.7400 C   0  0  0  0  0  0  0  0  0  0  0  0
   11.0170   -1.5340   22.5840 C   0  0  0  0  0  0  0  0  0  0  0  0
   10.3740    0.9840   22.7540 S   0  0  0  0  0  0  0  0  0  0  0  0
    8.0530   -5.1770   27.1140 C   0  0  0  0  0  0  0  0  0  0  0  0
    6.0170   -4.7720   28.4490 C   0  0  0  0  0  0  0  0  0  0  0  0
   12.0510    0.6200   22.8110 C   0  0  0  0  0  0  0  0  0  0  0  0
   12.2730   -0.7400   22.7200 C   0  0  0  0  0  0  0  0  0  0  0  0
    6.1600   -0.0410   20.0180 C   0  0  0  0  0  0  0  0  0  0  0  0
   13.0010    1.6180   22.9320 C   0  0  0  0  0  0  0  0  0  0  0  0
    7.4810   -5.3060   28.5230 C   0  0  0  0  0  0  0  0  0  0  0  0
    6.6720    0.0100   18.7190 C   0  0  0  0  0  0  0  0  0  0  0  0
    4.9980    0.7100   20.2410 C   0  0  0  0  0  0  0  0  0  0  0  0
    6.1610    0.7090   17.6930 N   0  0  0  0  0  0  0  0  0  0  0  0
    4.3790    1.4730   19.2600 C   0  0  0  0  0  0  0  0  0  0  0  0
    4.9600    1.4790   17.9980 C   0  0  0  0  0  0  0  0  0  0  0  0
  1  2  1  0
  2  3  2  0
  2  4  1  0
  4  5  1  0
  4  6  1  0
  5  7  1  0
  6  8  1  0
  8  9  1  6
  7 10  1  0
  8 10  1  0
 10 11  1  1
  9 12  1  0
 11 13  2  0
 12 14  1  0
 11 15  1  0
 12 16  1  0
 14 17  2  0
 14 18  1  0
 15 19  1  0
 15 20  1  0
 16 21  2  0
 16 22  1  0
 19 23  1  0
 20 24  1  0
 22 25  1  0
 21 26  1  0
 25 26  2  0
 18 27  1  0
 25 28  1  0
 23 29  1  0
 24 29  1  0
 27 30  2  0
 27 31  1  0
 30 32  1  0
 31 33  2  0
 32 34  2  0
 33 34  1  0
M  END
