x2608-x0705
     RDKit          3D

 34 37  0  0  0  0  0  0  0  0999 V2000
    1.1980   -2.7640   27.9650 C   0  0  0  0  0  0  0  0  0  0  0  0
    2.5020   -2.4730   27.2800 C   0  0  0  0  0  0  0  0  0  0  0  0
    3.6480   -3.2310   27.5500 C   0  0  0  0  0  0  0  0  0  0  0  0
    2.5180   -1.4090   26.3580 C   0  0  0  0  0  0  0  0  0  0  0  0
    3.8860   -1.0250   25.5700 C   0  0  0  0  0  0  0  0  0  0  0  0
    4.9680   -2.8990   26.8200 C   0  0  0  0  0  0  0  0  0  0  0  0
    5.1190   -1.8750   25.8870 C   0  0  0  0  0  0  0  0  0  0  0  0
    6.4910   -1.7950   25.3590 C   0  0  0  0  0  0  0  0  0  0  0  0
    7.4490   -1.7180   26.0910 O   0  0  0  0  0  0  0  0  0  0  0  0
    6.5890   -1.7890   23.9800 N   0  0  0  0  0  0  0  0  0  0  0  0
    5.3350   -2.1690   23.2360 C   0  0  0  0  0  0  0  0  0  0  0  0
    7.9330   -1.9820   23.3040 C   0  0  2  0  0  0  0  0  0  0  0  0
    8.6750   -0.8420   22.7930 N   0  0  0  0  0  0  0  0  0  0  0  0
    5.4650   -3.3770   22.6810 C   0  0  0  0  0  0  0  0  0  0  0  0
    7.9030   -3.1510   22.5920 C   0  0  0  0  0  0  0  0  0  0  0  0
    8.0450   -0.1620   21.6510 C   0  0  0  0  0  0  0  0  0  0  0  0
    6.6420   -3.2590   21.8310 N   0  0  0  0  0  0  0  0  0  0  0  0
    9.9980   -0.4170   22.9150 C   0  0  0  0  0  0  0  0  0  0  0  0
    6.7550   -3.8590   20.6060 C   0  0  0  0  0  0  0  0  0  0  0  0
    8.4390    0.9310   21.2220 O   0  0  0  0  0  0  0  0  0  0  0  0
    6.8950   -0.8410   21.0140 N   0  0  0  0  0  0  0  0  0  0  0  0
   11.0680   -1.2200   23.2200 C   0  0  0  0  0  0  0  0  0  0  0  0
   10.4310    1.2300   22.6690 S   0  0  0  0  0  0  0  0  0  0  0  0
    5.8930   -3.8070   19.6940 O   0  0  0  0  0  0  0  0  0  0  0  0
    8.0000   -4.6520   20.4350 C   0  0  0  0  0  0  0  0  0  0  0  0
   12.1040    0.9470   22.9350 C   0  0  0  0  0  0  0  0  0  0  0  0
   12.3290   -0.4040   23.2340 C   0  0  0  0  0  0  0  0  0  0  0  0
    6.2400   -0.1270   20.0450 C   0  0  0  0  0  0  0  0  0  0  0  0
   12.9720    2.1000   22.8080 C   0  0  0  0  0  0  0  0  0  0  0  0
    6.7170   -0.0840   18.7200 C   0  0  0  0  0  0  0  0  0  0  0  0
    5.0760    0.6050   20.3520 C   0  0  0  0  0  0  0  0  0  0  0  0
    6.1160    0.6370   17.7440 N   0  0  0  0  0  0  0  0  0  0  0  0
    4.4330    1.3580   19.3790 C   0  0  0  0  0  0  0  0  0  0  0  0
    4.9270    1.3940   18.0950 C   0  0  0  0  0  0  0  0  0  0  0  0
  1  2  1  0
  2  3  2  0
  2  4  1  0
  4  5  2  0
  3  6  1  0
  5  7  1  0
  6  7  2  0
  7  8  1  0
  8  9  2  0
  8 10  1  0
 10 11  1  0
 10 12  1  0
 12 13  1  6
 11 14  1  0
 12 15  1  0
 13 16  1  0
 14 17  1  0
 15 17  1  0
 13 18  1  0
 17 19  1  0
 16 20  2  0
 16 21  1  0
 18 22  2  0
 18 23  1  0
 19 24  2  0
 19 25  1  0
 23 26  1  0
 22 27  1  0
 26 27  2  0
 21 28  1  0
 26 29  1  0
 28 30  2  0
 28 31  1  0
 30 32  1  0
 31 33  2  0
 32 34  2  0
 33 34  1  0
M  END
