x2600-x1425
     RDKit          3D

 36 39  0  0  0  0  0  0  0  0999 V2000
   14.0140   -1.4820   20.3740 N   0  0  0  0  0  0  0  0  0  0  0  0
   13.2230   -1.3270   21.5160 C   0  0  0  0  0  0  0  0  0  0  0  0
   12.3760   -0.9560   22.6150 C   0  0  0  0  0  0  0  0  0  0  0  0
   12.9200   -0.7950   23.8700 C   0  0  0  0  0  0  0  0  0  0  0  0
   10.9150   -0.7360   22.3760 C   0  0  0  0  0  0  0  0  0  0  0  0
   12.1810   -0.4280   24.9530 C   0  0  0  0  0  0  0  0  0  0  0  0
   10.1050   -0.3590   23.4080 C   0  0  0  0  0  0  0  0  0  0  0  0
    8.6440   -0.1190   23.2130 C   0  0  0  0  0  0  0  0  0  0  0  0
   10.7050   -0.1890   24.7510 C   0  0  0  0  0  0  0  0  0  0  0  0
    8.2330    0.2610   21.7830 C   0  0  0  0  0  0  0  0  0  0  0  0
    8.8490    1.1900   21.2160 O   0  0  0  0  0  0  0  0  0  0  0  0
    7.1290   -0.4070   21.1280 N   0  0  0  0  0  0  0  0  0  0  0  0
    6.3420   -1.4820   21.7860 C   0  0  0  0  0  0  0  0  0  0  0  0
    6.4930    0.1600   20.0780 C   0  0  0  0  0  0  0  0  0  0  0  0
    6.9650   -0.0070   18.7960 C   0  0  0  0  0  0  0  0  0  0  0  0
    5.3640    0.9030   20.4150 C   0  0  0  0  0  0  0  0  0  0  0  0
    7.1090   -2.7870   22.1980 C   0  0  2  0  0  0  0  0  0  0  0  0
    6.3980    0.5410   17.7100 N   0  0  0  0  0  0  0  0  0  0  0  0
    4.6510    1.5370   19.3950 C   0  0  0  0  0  0  0  0  0  0  0  0
    6.6450   -3.9940   21.4600 N   0  0  0  0  0  0  0  0  0  0  0  0
    6.9580   -3.0470   23.5390 C   0  0  0  0  0  0  0  0  0  0  0  0
    6.1800   -4.0040   20.1680 C   0  0  0  0  0  0  0  0  0  0  0  0
    5.1990    1.3510   17.9600 C   0  0  0  0  0  0  0  0  0  0  0  0
    5.6400   -3.7180   23.7360 N   0  0  0  0  0  0  0  0  0  0  0  0
    6.4970   -5.2480   22.2330 C   0  0  0  0  0  0  0  0  0  0  0  0
    5.1680   -4.6050   19.8560 O   0  0  0  0  0  0  0  0  0  0  0  0
    7.0320   -3.2490   19.1670 C   0  0  0  0  0  0  0  0  0  0  0  0
    4.8430   -3.3640   24.9160 C   0  0  0  0  0  0  0  0  0  0  0  0
    5.4720   -5.0610   23.1570 C   0  0  0  0  0  0  0  0  0  0  0  0
    5.4070   -2.5670   25.9110 C   0  0  0  0  0  0  0  0  0  0  0  0
    3.5370   -3.8390   25.0040 C   0  0  0  0  0  0  0  0  0  0  0  0
    4.6450   -2.2360   27.0170 C   0  0  0  0  0  0  0  0  0  0  0  0
    2.7540   -3.4390   26.2480 C   0  0  0  0  0  0  0  0  0  0  0  0
    3.3690   -2.6320   27.2200 C   0  0  0  0  0  0  0  0  0  0  0  0
    2.7930   -2.2000   28.3750 O   0  0  0  0  0  0  0  0  0  0  0  0
    1.3760   -2.2920   28.4350 C   0  0  0  0  0  0  0  0  0  0  0  0
  1  2  3  0
  2  3  1  0
  3  4  2  0
  3  5  1  0
  4  6  1  0
  5  7  2  0
  7  8  1  0
  6  9  2  0
  7  9  1  0
  8 10  1  0
 10 11  2  0
 10 12  1  0
 12 13  1  0
 12 14  1  0
 14 15  2  0
 14 16  1  0
 17 13  1  6
 15 18  1  0
 16 19  2  0
 17 20  1  0
 17 21  1  0
 20 22  1  0
 18 23  2  0
 19 23  1  0
 21 24  1  0
 20 25  1  0
 22 26  2  0
 22 27  1  0
 24 28  1  0
 24 29  1  0
 25 29  1  0
 28 30  2  0
 28 31  1  0
 30 32  1  0
 31 33  2  0
 32 34  2  0
 33 34  1  0
 34 35  1  0
 35 36  1  0
M  END
