x2608-x1351
     RDKit          3D

 35 38  0  0  0  0  0  0  0  0999 V2000
    6.7920   -3.3440   19.3430 C   0  0  0  0  0  0  0  0  0  0  0  0
    6.0930   -4.0370   20.2460 C   0  0  0  0  0  0  0  0  0  0  0  0
    5.2440   -4.8410   19.9160 O   0  0  0  0  0  0  0  0  0  0  0  0
    6.3420   -3.8600   21.5970 N   0  0  0  0  0  0  0  0  0  0  0  0
    6.9940   -2.6820   22.1440 C   0  0  1  0  0  0  0  0  0  0  0  0
    6.1180   -5.0510   22.4890 C   0  0  0  0  0  0  0  0  0  0  0  0
    6.0320   -1.6370   22.0260 C   0  0  0  0  0  0  0  0  0  0  0  0
    7.2510   -3.0180   23.4730 C   0  0  0  0  0  0  0  0  0  0  0  0
    5.5880   -4.7270   23.7560 C   0  0  0  0  0  0  0  0  0  0  0  0
    6.8350   -0.7930   21.1050 N   0  0  0  0  0  0  0  0  0  0  0  0
    5.8050   -3.3850   24.1190 C   0  0  1  0  0  0  0  0  0  0  0  0
    5.8100   -3.2640   25.5900 N   0  0  0  0  0  0  0  0  0  0  0  0
    8.0160   -0.2170   21.5120 C   0  0  0  0  0  0  0  0  0  0  0  0
    6.2550   -0.0890   20.0910 C   0  0  0  0  0  0  0  0  0  0  0  0
    6.8030   -2.4910   26.3140 C   0  0  0  0  0  0  0  0  0  0  0  0
    8.7540   -0.9150   22.4500 N   0  0  0  0  0  0  0  0  0  0  0  0
    8.3910    0.8700   21.0670 O   0  0  0  0  0  0  0  0  0  0  0  0
    6.7910   -0.1150   18.6810 C   0  0  0  0  0  0  0  0  0  0  0  0
    5.1240    0.6740   20.4480 C   0  0  0  0  0  0  0  0  0  0  0  0
    7.9590   -2.8880   26.4700 O   0  0  0  0  0  0  0  0  0  0  0  0
    6.3860   -1.1590   26.9150 C   0  0  0  0  0  0  0  0  0  0  0  0
   10.0730   -0.4650   22.5860 C   0  0  0  0  0  0  0  0  0  0  0  0
    6.1250    0.6870   17.6400 N   0  0  0  0  0  0  0  0  0  0  0  0
    4.4570    1.4490   19.5140 C   0  0  0  0  0  0  0  0  0  0  0  0
    6.8220   -0.8130   28.2250 C   0  0  0  0  0  0  0  0  0  0  0  0
    5.5750   -0.2370   26.2090 C   0  0  0  0  0  0  0  0  0  0  0  0
   11.2270   -1.2450   22.6390 C   0  0  0  0  0  0  0  0  0  0  0  0
   10.4370    1.2030   22.6980 S   0  0  0  0  0  0  0  0  0  0  0  0
    4.9770    1.4580   18.0770 C   0  0  0  0  0  0  0  0  0  0  0  0
    6.5060    0.3970   28.8760 C   0  0  0  0  0  0  0  0  0  0  0  0
    5.1870    0.9920   26.7340 C   0  0  0  0  0  0  0  0  0  0  0  0
   12.0820    0.8440   22.7870 C   0  0  0  0  0  0  0  0  0  0  0  0
   12.3850   -0.5150   22.7580 C   0  0  0  0  0  0  0  0  0  0  0  0
   12.9910    1.8790   22.8700 C   0  0  0  0  0  0  0  0  0  0  0  0
    5.6290    1.4260   28.1410 C   0  0  0  0  0  0  0  0  0  0  0  0
  1  2  1  0
  2  3  2  0
  2  4  1  0
  4  5  1  0
  4  6  1  0
  5  7  1  1
  5  8  1  0
  6  9  1  0
  7 10  1  0
  8 11  1  0
  9 11  1  0
 11 12  1  1
 10 13  1  0
 10 14  1  0
 12 15  1  0
 13 16  1  0
 13 17  2  0
 14 18  2  0
 14 19  1  0
 15 20  2  0
 15 21  1  0
 16 22  1  0
 18 23  1  0
 19 24  2  0
 21 25  2  0
 21 26  1  0
 22 27  2  0
 22 28  1  0
 23 29  2  0
 24 29  1  0
 25 30  1  0
 26 31  2  0
 28 32  1  0
 27 33  1  0
 32 33  2  0
 32 34  1  0
 30 35  2  0
 31 35  1  0
M  END
