x2600-x0769
     RDKit          3D

 40 43  0  0  0  0  0  0  0  0999 V2000
    5.8500   -5.1220   26.6670 O   0  0  0  0  0  0  0  0  0  0  0  0
    4.7310   -5.2400   25.7630 S   0  0  0  0  0  0  0  0  0  0  0  0
    3.8650   -6.4010   25.8170 O   0  0  0  0  0  0  0  0  0  0  0  0
    3.7200   -3.8850   25.8510 C   0  0  0  0  0  0  0  0  0  0  0  0
    5.3400   -5.1050   24.1650 N   0  0  0  0  0  0  0  0  0  0  0  0
    4.3530   -2.4830   25.9220 C   0  0  0  0  0  0  0  0  0  0  0  0
    2.3380   -4.1200   25.8550 C   0  0  0  0  0  0  0  0  0  0  0  0
    5.0400   -6.0740   23.2780 C   0  0  0  0  0  0  0  0  0  0  0  0
    6.5820   -4.6060   24.0860 C   0  0  0  0  0  0  0  0  0  0  0  0
    5.7170   -2.3300   25.9080 O   0  0  0  0  0  0  0  0  0  0  0  0
    1.3620   -2.9270   25.9390 C   0  0  0  0  0  0  0  0  0  0  0  0
    3.5240   -1.3630   26.0000 C   0  0  0  0  0  0  0  0  0  0  0  0
    5.9640   -6.2410   22.2410 C   0  0  0  0  0  0  0  0  0  0  0  0
    7.0620   -4.2070   22.8510 C   0  0  0  0  0  0  0  0  0  0  0  0
    6.1970   -1.2540   25.0720 C   0  0  0  0  0  0  0  0  0  0  0  0
    2.0060   -1.5550   26.0120 C   0  0  0  0  0  0  0  0  0  0  0  0
    6.6470   -5.1470   21.8040 N   0  0  0  0  0  0  0  0  0  0  0  0
    6.2700   -4.6090   20.5750 C   0  0  0  0  0  0  0  0  0  0  0  0
    7.5540   -1.5000   24.7880 C   0  0  0  0  0  0  0  0  0  0  0  0
    5.3040   -5.0580   19.9900 O   0  0  0  0  0  0  0  0  0  0  0  0
    7.0470   -3.4680   19.9230 C   0  0  0  0  0  0  0  0  0  0  0  0
    7.8450   -1.3860   23.4060 C   0  0  0  0  0  0  0  0  0  0  0  0
    8.6650   -0.1090   23.0810 C   0  0  2  0  0  0  0  0  0  0  0  0
    8.4200    0.4400   21.6730 C   0  0  0  0  0  0  0  0  0  0  0  0
   10.1460   -0.3900   23.2890 C   0  0  0  0  0  0  0  0  0  0  0  0
    9.0000    1.4520   21.2550 O   0  0  0  0  0  0  0  0  0  0  0  0
    7.4860   -0.3040   20.9630 N   0  0  0  0  0  0  0  0  0  0  0  0
   10.7600    0.0160   24.4690 C   0  0  0  0  0  0  0  0  0  0  0  0
   10.8890   -1.0500   22.3150 C   0  0  0  0  0  0  0  0  0  0  0  0
    6.6530    0.2890   20.0250 C   0  0  0  0  0  0  0  0  0  0  0  0
   12.2630   -0.2860   24.6650 C   0  0  0  0  0  0  0  0  0  0  0  0
   12.2460   -1.3120   22.5080 C   0  0  0  0  0  0  0  0  0  0  0  0
   12.9550   -1.9920   21.5100 C   0  0  0  0  0  0  0  0  0  0  0  0
    6.9470    0.0650   18.7380 C   0  0  0  0  0  0  0  0  0  0  0  0
    5.4840    1.1480   20.3570 C   0  0  0  0  0  0  0  0  0  0  0  0
   12.9110   -0.9360   23.6570 C   0  0  0  0  0  0  0  0  0  0  0  0
   13.5190   -2.5940   20.7460 N   0  0  0  0  0  0  0  0  0  0  0  0
    6.2920    0.5550   17.6760 N   0  0  0  0  0  0  0  0  0  0  0  0
    4.7290    1.7170   19.1810 C   0  0  0  0  0  0  0  0  0  0  0  0
    5.1480    1.4170   17.8990 C   0  0  0  0  0  0  0  0  0  0  0  0
  1  2  2  0
  2  3  2  0
  2  4  1  0
  2  5  1  0
  4  6  1  0
  4  7  2  0
  5  8  1  0
  5  9  1  0
  6 10  1  0
  7 11  1  0
  6 12  2  0
  8 13  1  0
  9 14  1  0
 10 15  1  0
 11 16  2  0
 12 16  1  0
 13 17  1  0
 14 17  1  0
 17 18  1  0
 15 19  1  0
 18 20  2  0
 18 21  1  0
 19 22  1  0
 23 22  1  6
 23 24  1  0
 23 25  1  0
 24 26  2  0
 24 27  1  0
 25 28  2  0
 25 29  1  0
 27 30  1  0
 28 31  1  0
 29 32  2  0
 32 33  1  0
 30 34  2  0
 30 35  1  0
 31 36  2  0
 32 36  1  0
 33 37  3  0
 34 38  1  0
 35 39  2  0
 38 40  2  0
 39 40  1  0
M  END
