x2600-x1308
     RDKit          3D

 39 42  0  0  0  0  0  0  0  0999 V2000
    7.3990   -3.3690   19.7510 C   0  0  0  0  0  0  0  0  0  0  0  0
    6.5110   -4.3580   20.5280 C   0  0  0  0  0  0  0  0  0  0  0  0
    5.4630   -4.7130   19.9850 O   0  0  0  0  0  0  0  0  0  0  0  0
    6.8660   -4.8790   21.7770 N   0  0  0  0  0  0  0  0  0  0  0  0
    7.5750   -4.3040   22.9690 C   0  0  1  0  0  0  0  0  0  0  0  0
    6.2100   -6.1050   22.0730 C   0  0  0  0  0  0  0  0  0  0  0  0
    8.4540   -3.0430   22.8040 C   0  0  0  0  0  0  0  0  0  0  0  0
    6.5330   -4.0370   24.0310 C   0  0  0  0  0  0  0  0  0  0  0  0
    5.2070   -6.0010   23.2650 C   0  0  0  0  0  0  0  0  0  0  0  0
    7.8890   -1.8370   23.3080 C   0  0  0  0  0  0  0  0  0  0  0  0
    5.8780   -5.3320   24.3740 N   0  0  0  0  0  0  0  0  0  0  0  0
    5.2560   -5.5210   25.9380 S   0  0  0  0  0  0  0  0  0  0  0  0
    8.6260   -0.5200   23.1360 C   0  0  2  0  0  0  0  0  0  0  0  0
    6.2510   -5.1380   26.9060 O   0  0  0  0  0  0  0  0  0  0  0  0
    4.6190   -6.8150   26.0170 O   0  0  0  0  0  0  0  0  0  0  0  0
    8.2870    0.1690   21.8190 C   0  0  0  0  0  0  0  0  0  0  0  0
    4.0320   -4.3510   26.0560 C   0  0  0  0  0  0  0  0  0  0  0  0
   10.0740   -0.5990   23.3440 C   0  0  0  0  0  0  0  0  0  0  0  0
    8.9500    1.1640   21.4200 O   0  0  0  0  0  0  0  0  0  0  0  0
    7.1650   -0.4050   21.1030 N   0  0  0  0  0  0  0  0  0  0  0  0
    4.3060   -3.0240   26.4280 C   0  0  0  0  0  0  0  0  0  0  0  0
    2.6890   -4.6610   25.7930 C   0  0  0  0  0  0  0  0  0  0  0  0
   10.6590   -0.3230   24.5830 C   0  0  0  0  0  0  0  0  0  0  0  0
   10.9010   -0.9970   22.1660 C   0  0  0  0  0  0  0  0  0  0  0  0
    3.2550   -2.1050   26.5240 C   0  0  0  0  0  0  0  0  0  0  0  0
    1.6680   -3.7240   25.8980 C   0  0  0  0  0  0  0  0  0  0  0  0
    6.4280    0.2420   20.0350 C   0  0  0  0  0  0  0  0  0  0  0  0
   12.0410   -0.3980   24.8220 C   0  0  0  0  0  0  0  0  0  0  0  0
   12.3120   -1.0380   22.5070 C   0  0  0  0  0  0  0  0  0  0  0  0
   13.2530   -1.3860   21.4800 C   0  0  0  0  0  0  0  0  0  0  0  0
    1.9190   -2.4120   26.2730 C   0  0  0  0  0  0  0  0  0  0  0  0
    6.8740    0.0610   18.7430 C   0  0  0  0  0  0  0  0  0  0  0  0
    5.3010    1.0320   20.2920 C   0  0  0  0  0  0  0  0  0  0  0  0
   12.8960   -0.7650   23.7470 C   0  0  0  0  0  0  0  0  0  0  0  0
    0.6670   -1.2470   26.4260 Cl  0  0  0  0  0  0  0  0  0  0  0  0
   13.9930   -1.5340   20.4360 N   0  0  0  0  0  0  0  0  0  0  0  0
    6.2800    0.6210   17.6730 N   0  0  0  0  0  0  0  0  0  0  0  0
    4.6940    1.6060   19.1720 C   0  0  0  0  0  0  0  0  0  0  0  0
    5.2000    1.3870   17.9090 C   0  0  0  0  0  0  0  0  0  0  0  0
  1  2  1  0
  2  3  2  0
  2  4  1  0
  4  5  1  0
  4  6  1  0
  5  7  1  6
  5  8  1  0
  6  9  1  0
  7 10  1  0
  8 11  1  0
  9 11  1  0
 11 12  1  0
 13 10  1  6
 12 14  2  0
 12 15  2  0
 13 16  1  0
 12 17  1  0
 13 18  1  0
 16 19  2  0
 16 20  1  0
 17 21  2  0
 17 22  1  0
 18 23  2  0
 18 24  1  0
 21 25  1  0
 22 26  2  0
 20 27  1  0
 23 28  1  0
 24 29  2  0
 29 30  1  0
 25 31  2  0
 26 31  1  0
 27 32  2  0
 27 33  1  0
 28 34  2  0
 29 34  1  0
 31 35  1  0
 30 36  3  0
 32 37  1  0
 33 38  2  0
 37 39  2  0
 38 39  1  0
M  END
