x2608-x1458
     RDKit          3D

 33 35  0  0  0  0  0  0  0  0999 V2000
    7.3290   -3.6490   26.5210 N   0  0  0  0  0  0  0  0  0  0  0  0
    7.7780   -4.7320   27.3720 C   0  0  0  0  0  0  0  0  0  0  0  0
    8.9660   -5.5500   26.9070 C   0  0  0  0  0  0  0  0  0  0  0  0
    7.8150   -2.2780   26.8800 C   0  0  0  0  0  0  0  0  0  0  0  0
    6.2140   -3.8520   25.6820 C   0  0  0  0  0  0  0  0  0  0  0  0
    5.0640   -3.8820   26.1220 O   0  0  0  0  0  0  0  0  0  0  0  0
    6.6820   -5.7160   27.8380 C   0  0  0  0  0  0  0  0  0  0  0  0
    6.4310   -3.9900   24.2000 C   0  0  1  0  0  0  0  0  0  0  0  0
    7.7460   -3.9090   23.8050 C   0  0  0  0  0  0  0  0  0  0  0  0
    5.7900   -5.2490   23.6620 C   0  0  0  0  0  0  0  0  0  0  0  0
    7.8460   -3.3850   22.3740 C   0  0  2  0  0  0  0  0  0  0  0  0
    6.5580   -5.3710   22.3200 C   0  0  0  0  0  0  0  0  0  0  0  0
    7.7820   -2.0060   22.6220 C   0  0  0  0  0  0  0  0  0  0  0  0
    6.8330   -4.1500   21.7210 N   0  0  0  0  0  0  0  0  0  0  0  0
    6.4020   -4.0110   20.3690 C   0  0  0  0  0  0  0  0  0  0  0  0
    8.5640   -1.2340   21.8130 N   0  0  0  0  0  0  0  0  0  0  0  0
    5.3880   -4.6030   19.9530 O   0  0  0  0  0  0  0  0  0  0  0  0
    7.1970   -3.2060   19.3580 C   0  0  0  0  0  0  0  0  0  0  0  0
    7.8350   -0.2500   21.1870 C   0  0  0  0  0  0  0  0  0  0  0  0
    9.8690   -0.9920   22.1520 C   0  0  0  0  0  0  0  0  0  0  0  0
    8.3400    1.0800   20.9590 O   0  0  0  0  0  0  0  0  0  0  0  0
    6.5180   -0.6350   20.7570 N   0  0  0  0  0  0  0  0  0  0  0  0
   11.1740   -1.7440   22.3340 C   0  0  0  0  0  0  0  0  0  0  0  0
   10.2250    0.9230   22.5010 S   0  0  0  0  0  0  0  0  0  0  0  0
   11.8690    0.5920   22.7560 C   0  0  0  0  0  0  0  0  0  0  0  0
   12.2180   -0.8870   22.6490 C   0  0  0  0  0  0  0  0  0  0  0  0
    5.9310    0.1000   19.8410 C   0  0  0  0  0  0  0  0  0  0  0  0
   12.9520    1.5780   23.0500 C   0  0  0  0  0  0  0  0  0  0  0  0
    6.5200    0.2350   18.6010 C   0  0  0  0  0  0  0  0  0  0  0  0
    4.6390    0.8550   20.0340 C   0  0  0  0  0  0  0  0  0  0  0  0
    6.1080    0.9380   17.5800 N   0  0  0  0  0  0  0  0  0  0  0  0
    4.2100    1.6010   18.9440 C   0  0  0  0  0  0  0  0  0  0  0  0
    4.9680    1.6140   17.7670 C   0  0  0  0  0  0  0  0  0  0  0  0
  1  2  1  0
  2  3  1  0
  1  4  1  0
  1  5  1  0
  5  6  2  0
  2  7  1  0
  8  5  1  1
  8  9  1  0
  8 10  1  0
  9 11  1  0
 10 12  1  0
 11 13  1  1
 11 14  1  0
 12 14  1  0
 14 15  1  0
 13 16  1  0
 15 17  2  0
 15 18  1  0
 16 19  1  0
 16 20  1  0
 19 21  2  0
 19 22  1  0
 20 23  2  0
 20 24  1  0
 24 25  1  0
 23 26  1  0
 25 26  2  0
 22 27  1  0
 25 28  1  0
 27 29  2  0
 27 30  1  0
 29 31  1  0
 30 32  2  0
 31 33  2  0
 32 33  1  0
M  END
