x2608-x1374-x2776-x0769
     RDKit          3D

 67 73  0  0  0  0  0  0  0  0999 V2000
    8.8310    0.3100   21.8180 N   0  0  0  0  0  0  0  0  0  0  0  0
    7.3580    0.3560   21.7400 C   0  0  1  0  0  0  0  0  0  0  0  0
    7.0000    1.3940   22.8230 C   0  0  0  0  0  0  0  0  0  0  0  0
    9.4330   -0.9520   21.8740 C   0  0  1  0  0  0  0  0  0  0  0  0
    6.6770    0.5690   20.3750 C   0  0  0  0  0  0  0  0  0  0  0  0
   10.9340   -1.0310   22.0940 C   0  0  2  0  0  0  0  0  0  0  0  0
    9.1500   -1.8350   22.8400 C   0  0  0  0  0  0  0  0  0  0  0  0
    7.0800    2.7390   22.5990 N   0  0  0  0  0  0  0  0  0  0  0  0
    5.5080    1.5240   20.3290 C   0  0  0  0  0  0  0  0  0  0  0  0
    7.0690   -0.0660   19.1850 C   0  0  0  0  0  0  0  0  0  0  0  0
   10.9400   -2.3820   21.5510 C   0  0  0  0  0  0  0  0  0  0  0  0
   11.8700   -1.0320   23.1410 C   0  0  2  0  0  0  0  0  0  0  0  0
    9.8290   -2.9270   22.0620 C   0  0  0  0  0  0  0  0  0  0  0  0
   11.7460   -2.1060   24.1710 C   0  0  0  0  0  0  0  0  0  0  0  0
    6.3730    0.1910   17.9080 N   0  0  0  0  0  0  0  0  0  0  0  0
    4.8290    1.7870   19.1580 C   0  0  0  0  0  0  0  0  0  0  0  0
    8.1570    3.5430   21.9820 C   0  0  0  0  0  0  0  0  0  0  0  0
   12.2380    0.1470   23.6340 C   0  0  1  0  0  0  0  0  0  0  0  0
   12.7010   -2.8760   24.1860 O   0  0  0  0  0  0  0  0  0  0  0  0
   13.1800    0.7390   22.6450 C   0  0  0  0  0  0  0  0  0  0  0  0
    5.2970    1.0830   17.8980 C   0  0  0  0  0  0  0  0  0  0  0  0
    7.7310    5.0270   21.9690 C   0  0  0  0  0  0  0  0  0  0  0  0
   11.2120    1.3090   23.7240 S   0  0  0  0  0  0  0  0  0  0  0  0
   10.9220    2.8760   22.9550 O   0  0  0  0  0  0  0  0  0  0  0  0
    9.7390    2.0100   24.3820 C   0  0  0  0  0  0  0  0  0  0  0  0
   12.8270   -3.4820   25.4560 C   0  0  0  0  0  0  0  0  0  0  0  0
    8.3600    6.0130   22.7880 C   0  0  0  0  0  0  0  0  0  0  0  0
   10.1560    0.5570   24.7570 C   0  0  0  0  0  0  0  0  0  0  0  0
   11.6290   -3.9890   26.0860 C   0  0  0  0  0  0  0  0  0  0  0  0
    9.1080    3.3940   24.1820 C   0  0  0  0  0  0  0  0  0  0  0  0
    9.5080    5.8700   23.8160 C   0  0  2  0  0  0  0  0  0  0  0  0
   10.4350    6.8880   23.9100 O   0  0  0  0  0  0  0  0  0  0  0  0
   10.4850   -4.8880   25.5760 C   0  0  0  0  0  0  0  0  0  0  0  0
   10.0050    4.6140   23.9760 C   0  0  0  0  0  0  0  0  0  0  0  0
   11.5630    6.6750   24.7720 C   0  0  0  0  0  0  0  0  0  0  0  0
    9.8560   -4.6570   24.4510 C   0  0  2  0  0  0  0  0  0  0  0  0
    9.0730   -3.5200   24.3970 C   0  0  0  0  0  0  0  0  0  0  0  0
    9.2540   -5.8590   24.0530 C   0  0  0  0  0  0  0  0  0  0  0  0
    7.8170   -3.4650   23.8440 C   0  0  0  0  0  0  0  0  0  0  0  0
    7.9700   -5.7570   23.5360 C   0  0  0  0  0  0  0  0  0  0  0  0
    7.2390   -4.5910   23.3930 C   0  0  2  0  0  0  0  0  0  0  0  0
    6.1080   -4.5570   22.1500 C   0  0  0  0  0  0  0  0  0  0  0  0
    6.4800   -4.6120   24.6070 C   0  0  0  0  0  0  0  0  0  0  0  0
    6.3860   -4.0490   20.7280 C   0  0  0  0  0  0  0  0  0  0  0  0
    6.4970   -5.7470   21.5860 C   0  0  0  0  0  0  0  0  0  0  0  0
    4.7980   -4.8470   22.7390 C   0  0  1  0  0  0  0  0  0  0  0  0
    5.4860   -3.5730   24.5020 N   0  0  0  0  0  0  0  0  0  0  0  0
    5.4880   -4.3850   19.9330 O   0  0  0  0  0  0  0  0  0  0  0  0
    7.5400   -3.2390   20.0340 C   0  0  0  0  0  0  0  0  0  0  0  0
    5.7280   -6.2030   20.7130 O   0  0  0  0  0  0  0  0  0  0  0  0
    7.6340   -6.3150   21.9030 C   0  0  0  0  0  0  0  0  0  0  0  0
    4.2910   -6.5950   22.9140 S   0  0  0  0  0  0  0  0  0  0  0  0
    4.4800   -4.3900   24.0280 C   0  0  2  0  0  0  0  0  0  0  0  0
    2.7820   -7.3500   22.4730 O   0  0  0  0  0  0  0  0  0  0  0  0
    5.6010   -7.6430   22.9250 O   0  0  0  0  0  0  0  0  0  0  0  0
    4.2760   -5.3410   25.0460 C   0  0  0  0  0  0  0  0  0  0  0  0
    4.1070   -6.5620   24.7590 C   0  0  0  0  0  0  0  0  0  0  0  0
    4.2580   -4.9370   26.7480 S   0  0  0  0  0  0  0  0  0  0  0  0
    5.7360   -4.6680   27.2740 O   0  0  0  0  0  0  0  0  0  0  0  0
    3.3670   -5.8670   27.3840 O   0  0  0  0  0  0  0  0  0  0  0  0
    3.4510   -3.4170   26.5180 C   0  0  0  0  0  0  0  0  0  0  0  0
    4.0460   -2.1470   26.4460 C   0  0  0  0  0  0  0  0  0  0  0  0
    2.0880   -3.5840   26.3890 C   0  0  0  0  0  0  0  0  0  0  0  0
    5.3830   -1.9530   26.5590 F   0  0  0  0  0  0  0  0  0  0  0  0
    1.1700   -2.4060   26.1730 C   0  0  0  0  0  0  0  0  0  0  0  0
    3.1910   -0.8650   26.2280 C   0  0  0  0  0  0  0  0  0  0  0  0
    1.6950   -1.1290   26.1020 C   0  0  0  0  0  0  0  0  0  0  0  0
  1  2  1  0
  2  3  1  0
  1  4  1  0
  2  5  1  6
  4  6  1  0
  4  7  1  1
  3  8  1  0
  5  9  2  0
  5 10  1  0
  6 11  1  1
  6 12  1  0
  7 13  1  0
 11 13  2  0
 12 14  1  1
 10 15  2  0
  9 16  1  0
  8 17  1  0
 12 18  1  0
 14 19  1  0
 18 20  1  6
 15 21  1  0
 16 21  2  0
 17 22  1  0
 18 23  1  0
 23 24  1  0
 23 25  2  0
 19 26  1  0
 22 27  2  0
 23 28  1  0
 26 29  1  0
 25 30  1  0
 27 31  1  0
 31 32  1  6
 29 33  1  0
 30 34  2  0
 31 34  1  0
 32 35  1  0
 36 33  1  1
 36 37  1  0
 36 38  1  0
 37 39  2  0
 38 40  2  0
 41 39  1  1
 40 41  1  0
 41 42  1  0
 41 43  1  0
 42 44  1  0
 42 45  1  0
 46 42  1  1
 43 47  1  0
 44 48  2  0
 44 49  1  0
 45 50  2  0
 45 51  1  0
 46 52  1  0
 46 53  1  0
 53 47  1  1
 52 54  1  0
 52 55  1  0
 53 56  1  0
 52 57  1  0
 56 57  2  0
 58 56  1  0
 58 59  2  0
 58 60  2  0
 58 61  1  0
 61 62  2  0
 61 63  1  0
 62 64  1  0
 63 65  2  0
 62 66  1  0
 65 67  1  0
 66 67  2  0
M  END
