x2608-x1374
     RDKit          3D

 36 39  0  0  0  0  0  0  0  0999 V2000
    8.6440   -4.7180   27.0870 C   0  0  0  0  0  0  0  0  0  0  0  0
    8.4530   -4.6950   25.6130 C   0  0  0  0  0  0  0  0  0  0  0  0
    8.9190   -5.7940   24.9680 C   0  0  0  0  0  0  0  0  0  0  0  0
    7.6990   -3.4340   24.8590 C   0  0  0  0  0  0  0  0  0  0  0  0
    7.5540   -3.6980   23.3370 C   0  0  0  0  0  0  0  0  0  0  0  0
    8.7680   -5.9600   23.6320 C   0  0  0  0  0  0  0  0  0  0  0  0
    6.9520   -2.9620   22.3160 C   0  0  1  0  0  0  0  0  0  0  0  0
    8.0710   -4.8840   22.8350 C   0  0  0  0  0  0  0  0  0  0  0  0
    5.9620   -3.8710   21.7500 N   0  0  0  0  0  0  0  0  0  0  0  0
    6.3690   -1.6560   22.3600 C   0  0  0  0  0  0  0  0  0  0  0  0
    6.1460   -4.1520   20.4240 C   0  0  0  0  0  0  0  0  0  0  0  0
    6.8970   -0.8750   21.3350 N   0  0  0  0  0  0  0  0  0  0  0  0
    5.1110   -4.7140   22.5720 C   0  0  2  0  0  0  0  0  0  0  0  0
    5.4440   -5.0270   19.9740 O   0  0  0  0  0  0  0  0  0  0  0  0
    7.1720   -3.3840   19.5210 C   0  0  0  0  0  0  0  0  0  0  0  0
    8.1330   -0.3830   21.5660 C   0  0  0  0  0  0  0  0  0  0  0  0
    5.0290   -4.4010   24.1040 C   0  0  0  0  0  0  0  0  0  0  0  0
    5.1820   -6.1160   22.5280 C   0  0  0  0  0  0  0  0  0  0  0  0
    6.2070   -0.2160   20.3240 C   0  0  0  0  0  0  0  0  0  0  0  0
    8.9470   -1.2240   22.2780 N   0  0  0  0  0  0  0  0  0  0  0  0
    8.4730    0.7310   21.1640 O   0  0  0  0  0  0  0  0  0  0  0  0
    3.9810   -6.6110   23.8320 S   0  0  0  0  0  0  0  0  0  0  0  0
    4.4470   -5.3350   24.8650 C   0  0  0  0  0  0  0  0  0  0  0  0
    6.7220   -0.2150   18.8800 C   0  0  0  0  0  0  0  0  0  0  0  0
    5.0330    0.4710   20.6610 C   0  0  0  0  0  0  0  0  0  0  0  0
    2.6330   -6.3970   23.3550 O   0  0  0  0  0  0  0  0  0  0  0  0
    4.3660   -7.8850   24.3730 O   0  0  0  0  0  0  0  0  0  0  0  0
   10.2280   -0.6980   22.4610 C   0  0  0  0  0  0  0  0  0  0  0  0
    6.0610    0.4580   17.8960 N   0  0  0  0  0  0  0  0  0  0  0  0
    4.3780    1.1460   19.6480 C   0  0  0  0  0  0  0  0  0  0  0  0
   11.4080   -1.4350   22.4750 C   0  0  0  0  0  0  0  0  0  0  0  0
   10.4870    0.9810   22.6820 S   0  0  0  0  0  0  0  0  0  0  0  0
    4.9270    1.1360   18.2170 C   0  0  0  0  0  0  0  0  0  0  0  0
   12.1590    0.7040   22.7630 C   0  0  0  0  0  0  0  0  0  0  0  0
   12.4880   -0.6310   22.6490 C   0  0  0  0  0  0  0  0  0  0  0  0
   13.0330    1.7510   22.9210 C   0  0  0  0  0  0  0  0  0  0  0  0
  1  2  1  0
  2  3  2  0
  2  4  1  0
  4  5  2  0
  3  6  1  0
  5  7  1  0
  5  8  1  0
  6  8  2  0
  7  9  1  0
  7 10  1  1
  9 11  1  0
 10 12  1  0
 13  9  1  1
 11 14  2  0
 11 15  1  0
 12 16  1  0
 13 17  1  0
 13 18  1  0
 12 19  1  0
 16 20  1  0
 16 21  2  0
 18 22  1  0
 17 23  2  0
 22 23  1  0
 19 24  2  0
 19 25  1  0
 22 26  1  0
 22 27  1  0
 20 28  1  0
 24 29  1  0
 25 30  2  0
 28 31  2  0
 28 32  1  0
 29 33  2  0
 30 33  1  0
 32 34  1  0
 31 35  1  0
 34 35  2  0
 34 36  1  0
M  END
