x2608-x2776-x3115-x1311
     RDKit          3D

 52 56  0  0  0  0  0  0  0  0999 V2000
    6.9720   -1.4190   22.1360 N   0  0  0  0  0  0  0  0  0  0  0  0
    6.1920   -2.7030   21.7100 C   0  0  0  0  0  0  0  0  0  0  0  0
    4.8830   -3.0690   21.2970 O   0  0  0  0  0  0  0  0  0  0  0  0
    6.4600   -0.0890   21.8660 C   0  0  1  0  0  0  0  0  0  0  0  0
    8.1560   -1.5070   23.2650 C   0  0  1  0  0  0  0  0  0  0  0  0
    7.2370   -3.7740   21.7930 C   0  0  2  0  0  0  0  0  0  0  0  0
    7.2790    1.0140   22.3220 C   0  0  0  0  0  0  0  0  0  0  0  0
    6.1240    0.2820   20.4250 C   0  0  0  0  0  0  0  0  0  0  0  0
    9.7390   -2.0370   23.2620 C   0  0  2  0  0  0  0  0  0  0  0  0
    8.0560   -0.9160   24.4980 C   0  0  0  0  0  0  0  0  0  0  0  0
    7.0870   -4.7340   20.6260 C   0  0  0  0  0  0  0  0  0  0  0  0
    6.6740    2.1830   22.7030 N   0  0  0  0  0  0  0  0  0  0  0  0
    4.9280    1.2090   20.1950 C   0  0  0  0  0  0  0  0  0  0  0  0
    6.8510   -0.1640   19.3040 C   0  0  0  0  0  0  0  0  0  0  0  0
    9.4450   -2.7400   24.4400 C   0  0  0  0  0  0  0  0  0  0  0  0
   11.1120   -1.3820   23.5310 C   0  0  2  0  0  0  0  0  0  0  0  0
    7.6100   -4.3790   23.1950 C   0  0  0  0  0  0  0  0  0  0  0  0
    8.5060   -2.1790   25.1760 C   0  0  0  0  0  0  0  0  0  0  0  0
   11.4560   -1.5210   24.9150 C   0  0  0  0  0  0  0  0  0  0  0  0
    6.4930    0.2370   18.0550 N   0  0  0  0  0  0  0  0  0  0  0  0
    4.5330    1.6330   18.9710 C   0  0  0  0  0  0  0  0  0  0  0  0
    7.4210    3.2860   23.3390 C   0  0  0  0  0  0  0  0  0  0  0  0
   11.5650   -0.1660   22.9710 C   0  0  2  0  0  0  0  0  0  0  0  0
    8.8750   -4.9000   23.2550 C   0  0  0  0  0  0  0  0  0  0  0  0
    6.8650   -4.4630   24.4060 C   0  0  0  0  0  0  0  0  0  0  0  0
   12.8710   -1.7200   25.0020 O   0  0  0  0  0  0  0  0  0  0  0  0
   12.6640    0.7510   23.4780 C   0  0  0  0  0  0  0  0  0  0  0  0
    5.3510    1.1320   17.8390 C   0  0  0  0  0  0  0  0  0  0  0  0
    8.0930    4.3690   22.4450 C   0  0  0  0  0  0  0  0  0  0  0  0
   10.1800    0.5480   22.4230 S   0  0  0  0  0  0  0  0  0  0  0  0
    9.4390   -5.4730   24.3870 C   0  0  0  0  0  0  0  0  0  0  0  0
    7.4790   -5.0370   25.5320 C   0  0  0  0  0  0  0  0  0  0  0  0
    5.5090   -4.0200   24.5720 C   0  0  0  0  0  0  0  0  0  0  0  0
    9.5100    1.8060   22.5510 O   0  0  0  0  0  0  0  0  0  0  0  0
   10.7760    1.7860   23.4550 C   0  0  0  0  0  0  0  0  0  0  0  0
   13.2640   -3.0030   25.3120 C   0  0  0  0  0  0  0  0  0  0  0  0
    8.8470    5.5400   22.7700 C   0  0  1  0  0  0  0  0  0  0  0  0
    9.1790   -0.2700   21.3310 C   0  0  0  0  0  0  0  0  0  0  0  0
    8.7560   -5.5470   25.5530 C   0  0  0  0  0  0  0  0  0  0  0  0
    4.5920   -4.6270   23.7100 C   0  0  1  0  0  0  0  0  0  0  0  0
    8.0140    6.4480   23.6890 C   0  0  0  0  0  0  0  0  0  0  0  0
   10.1720    3.1400   23.7290 C   0  0  0  0  0  0  0  0  0  0  0  0
   10.2090    5.4790   23.1520 C   0  0  1  0  0  0  0  0  0  0  0  0
    5.0930   -5.4610   22.7160 C   0  0  0  0  0  0  0  0  0  0  0  0
    3.7140   -6.1650   24.7350 S   0  0  0  0  0  0  0  0  0  0  0  0
   10.2610    6.1220   24.4310 O   0  0  0  0  0  0  0  0  0  0  0  0
   10.7200    4.1920   23.0020 C   0  0  0  0  0  0  0  0  0  0  0  0
    4.3400   -6.5300   25.9780 O   0  0  0  0  0  0  0  0  0  0  0  0
    2.3600   -5.6620   24.7330 O   0  0  0  0  0  0  0  0  0  0  0  0
    4.4360   -6.5550   22.3700 C   0  0  0  0  0  0  0  0  0  0  0  0
    3.6160   -7.1180   23.1980 C   0  0  0  0  0  0  0  0  0  0  0  0
   11.5640    6.4270   24.9440 C   0  0  0  0  0  0  0  0  0  0  0  0
  1  2  1  0
  2  3  2  0
  1  4  1  0
  1  5  1  0
  2  6  1  0
  4  7  1  0
  4  8  1  6
  5  9  1  0
  5 10  1  6
  6 11  1  6
  7 12  1  0
  8 13  2  0
  8 14  1  0
  9 15  1  1
  9 16  1  0
  6 17  1  0
 10 18  1  0
 15 18  2  0
 16 19  1  1
 14 20  2  0
 13 21  1  0
 12 22  1  0
 16 23  1  0
 17 24  2  0
 17 25  1  0
 19 26  1  0
 23 27  1  1
 20 28  1  0
 21 28  2  0
 22 29  2  0
 23 30  1  0
 24 31  1  0
 25 32  2  0
 25 33  1  0
 30 34  1  0
 30 35  2  0
 26 36  1  0
 29 37  1  0
 30 38  1  0
 31 39  2  0
 32 39  1  0
 40 33  1  1
 37 41  1  1
 35 42  1  0
 37 43  1  0
 40 44  1  0
 40 45  1  0
 43 46  1  1
 42 47  2  0
 43 47  1  0
 45 48  1  0
 45 49  1  0
 44 50  1  0
 45 51  1  0
 50 51  2  0
 46 52  1  0
M  END
