x2600-x1358
     RDKit          3D

 38 41  0  0  0  0  0  0  0  0999 V2000
    6.9330   -2.6200   25.9910 N   0  0  0  0  0  0  0  0  0  0  0  0
    5.7260   -3.1790   25.2730 C   0  0  0  0  0  0  0  0  0  0  0  0
    4.5570   -3.3960   25.8100 O   0  0  0  0  0  0  0  0  0  0  0  0
    6.8720   -1.6320   26.9460 C   0  0  0  0  0  0  0  0  0  0  0  0
    6.0940   -0.5160   26.5380 C   0  0  0  0  0  0  0  0  0  0  0  0
    7.5100   -1.6880   28.2140 C   0  0  0  0  0  0  0  0  0  0  0  0
    5.9830   -3.4890   23.8050 C   0  0  1  0  0  0  0  0  0  0  0  0
    5.5120   -0.5380   25.2940 O   0  0  0  0  0  0  0  0  0  0  0  0
    7.4040   -0.6430   29.1320 C   0  0  0  0  0  0  0  0  0  0  0  0
    5.9010    0.6000   27.3550 C   0  0  0  0  0  0  0  0  0  0  0  0
    7.2640   -3.2180   23.3510 C   0  0  0  0  0  0  0  0  0  0  0  0
    5.8300   -4.9250   23.3790 C   0  0  0  0  0  0  0  0  0  0  0  0
    6.5690    0.5770   28.7250 C   0  0  0  0  0  0  0  0  0  0  0  0
    7.2120   -2.9320   21.9990 C   0  0  2  0  0  0  0  0  0  0  0  0
    6.3130   -5.0890   22.0810 C   0  0  0  0  0  0  0  0  0  0  0  0
    6.4340   -1.5330   21.8020 C   0  0  0  0  0  0  0  0  0  0  0  0
    6.5580   -3.9240   21.4130 N   0  0  0  0  0  0  0  0  0  0  0  0
    6.1780   -3.8030   20.0830 C   0  0  0  0  0  0  0  0  0  0  0  0
    7.1920   -0.4870   21.0450 N   0  0  0  0  0  0  0  0  0  0  0  0
    5.1060   -4.2390   19.7060 O   0  0  0  0  0  0  0  0  0  0  0  0
    7.1680   -3.1730   19.1200 C   0  0  0  0  0  0  0  0  0  0  0  0
    8.2850    0.2540   21.6560 C   0  0  0  0  0  0  0  0  0  0  0  0
    6.4400    0.1970   20.0020 C   0  0  0  0  0  0  0  0  0  0  0  0
    8.8130    1.3130   21.2100 O   0  0  0  0  0  0  0  0  0  0  0  0
    8.7030   -0.3460   22.8390 C   0  0  0  0  0  0  0  0  0  0  0  0
    6.8800    0.1200   18.7530 C   0  0  0  0  0  0  0  0  0  0  0  0
    5.2140    0.9690   20.3090 C   0  0  0  0  0  0  0  0  0  0  0  0
    6.3580    0.6810   17.6650 N   0  0  0  0  0  0  0  0  0  0  0  0
    4.5570    1.6370   19.1160 C   0  0  0  0  0  0  0  0  0  0  0  0
   10.1800   -0.2760   22.9000 C   0  0  0  0  0  0  0  0  0  0  0  0
    5.1430    1.4780   17.8550 C   0  0  0  0  0  0  0  0  0  0  0  0
   10.8080    0.7140   23.6270 C   0  0  0  0  0  0  0  0  0  0  0  0
   10.9330   -1.1970   22.2240 C   0  0  0  0  0  0  0  0  0  0  0  0
   12.3450    0.7590   23.6560 C   0  0  0  0  0  0  0  0  0  0  0  0
   12.3070   -1.1790   22.2360 C   0  0  0  0  0  0  0  0  0  0  0  0
   12.9600   -2.1810   21.4910 C   0  0  0  0  0  0  0  0  0  0  0  0
   13.0150   -0.2160   22.9410 C   0  0  0  0  0  0  0  0  0  0  0  0
   13.5220   -3.2600   20.6800 N   0  0  0  0  0  0  0  0  0  0  0  0
  1  2  1  0
  2  3  2  0
  1  4  1  0
  4  5  2  0
  4  6  1  0
  7  2  1  1
  5  8  1  0
  6  9  2  0
  5 10  1  0
  7 11  1  0
  7 12  1  0
  9 13  1  0
 10 13  2  0
 11 14  1  0
 12 15  1  0
 14 16  1  1
 14 17  1  0
 15 17  1  0
 17 18  1  0
 16 19  1  0
 18 20  2  0
 18 21  1  0
 19 22  1  0
 19 23  1  0
 22 24  2  0
 22 25  1  0
 23 26  2  0
 23 27  1  0
 26 28  1  0
 27 29  2  0
 25 30  1  0
 28 31  2  0
 29 31  1  0
 30 32  2  0
 30 33  1  0
 32 34  1  0
 33 35  2  0
 35 36  1  0
 34 37  2  0
 35 37  1  0
 36 38  3  0
M  END
