x2600-x1402
     RDKit          3D

 39 42  0  0  0  0  0  0  0  0999 V2000
    7.2420   -3.4040   19.6940 C   0  0  0  0  0  0  0  0  0  0  0  0
    6.2830   -4.4470   20.4130 C   0  0  0  0  0  0  0  0  0  0  0  0
    5.2050   -4.7060   19.9190 O   0  0  0  0  0  0  0  0  0  0  0  0
    6.6120   -5.1470   21.6070 N   0  0  0  0  0  0  0  0  0  0  0  0
    7.2900   -4.4400   22.7040 C   0  0  2  0  0  0  0  0  0  0  0  0
    5.9320   -6.2580   21.9570 C   0  0  0  0  0  0  0  0  0  0  0  0
    6.9000   -4.9950   24.0940 C   0  0  0  0  0  0  0  0  0  0  0  0
    4.9980   -5.8650   23.1100 C   0  0  0  0  0  0  0  0  0  0  0  0
    7.1290   -2.9490   22.6870 C   0  0  0  0  0  0  0  0  0  0  0  0
    5.7830   -5.3010   24.2270 N   0  0  0  0  0  0  0  0  0  0  0  0
    5.8010   -2.3140   22.2030 C   0  0  0  0  0  0  0  0  0  0  0  0
    5.1100   -5.3090   25.8020 S   0  0  0  0  0  0  0  0  0  0  0  0
    5.9130   -0.7690   22.3030 C   0  0  0  0  0  0  0  0  0  0  0  0
    4.1620   -6.4010   25.8940 O   0  0  0  0  0  0  0  0  0  0  0  0
    6.2050   -5.1730   26.7380 O   0  0  0  0  0  0  0  0  0  0  0  0
    4.0880   -3.8180   25.9470 C   0  0  0  0  0  0  0  0  0  0  0  0
    6.8460   -0.2940   21.2350 N   0  0  0  0  0  0  0  0  0  0  0  0
    2.3730   -3.8680   26.0030 S   0  0  0  0  0  0  0  0  0  0  0  0
    4.5550   -2.5010   26.0260 C   0  0  0  0  0  0  0  0  0  0  0  0
    8.0610    0.3550   21.7270 C   0  0  0  0  0  0  0  0  0  0  0  0
    6.2900    0.2520   20.1430 C   0  0  0  0  0  0  0  0  0  0  0  0
    3.5390   -1.5810   26.1310 C   0  0  0  0  0  0  0  0  0  0  0  0
    2.2670   -2.1520   26.1400 C   0  0  0  0  0  0  0  0  0  0  0  0
    8.6680    1.3050   21.1750 O   0  0  0  0  0  0  0  0  0  0  0  0
    8.5910   -0.2080   23.0520 C   0  0  0  0  0  0  0  0  0  0  0  0
    6.8380    0.0500   18.8870 C   0  0  0  0  0  0  0  0  0  0  0  0
    5.1620    1.0470   20.1970 C   0  0  0  0  0  0  0  0  0  0  0  0
    0.7490   -1.3720   26.2710 Cl  0  0  0  0  0  0  0  0  0  0  0  0
    6.3850    0.5540   17.7500 N   0  0  0  0  0  0  0  0  0  0  0  0
    4.6530    1.5920   19.0230 C   0  0  0  0  0  0  0  0  0  0  0  0
   10.0640   -0.1680   23.0820 C   0  0  0  0  0  0  0  0  0  0  0  0
    5.2690    1.3450   17.8060 C   0  0  0  0  0  0  0  0  0  0  0  0
   10.6730    0.7320   23.9220 C   0  0  0  0  0  0  0  0  0  0  0  0
   10.8180   -1.0070   22.2760 C   0  0  0  0  0  0  0  0  0  0  0  0
   12.1650    0.8070   23.9560 C   0  0  0  0  0  0  0  0  0  0  0  0
   12.1980   -0.9360   22.3110 C   0  0  0  0  0  0  0  0  0  0  0  0
   12.9520   -1.7410   21.5070 C   0  0  0  0  0  0  0  0  0  0  0  0
   12.9190    0.0020   23.1790 C   0  0  0  0  0  0  0  0  0  0  0  0
   13.6660   -2.4130   20.6750 N   0  0  0  0  0  0  0  0  0  0  0  0
  1  2  1  0
  2  3  2  0
  2  4  1  0
  4  5  1  0
  4  6  1  0
  5  7  1  0
  6  8  1  0
  5  9  1  1
  7 10  1  0
  8 10  1  0
  9 11  1  0
 10 12  1  0
 11 13  1  0
 12 14  2  0
 12 15  2  0
 12 16  1  0
 13 17  1  0
 16 18  1  0
 16 19  2  0
 17 20  1  0
 17 21  1  0
 19 22  1  0
 18 23  1  0
 22 23  2  0
 20 24  2  0
 20 25  1  0
 21 26  2  0
 21 27  1  0
 23 28  1  0
 26 29  1  0
 27 30  2  0
 25 31  1  0
 29 32  2  0
 30 32  1  0
 31 33  2  0
 31 34  1  0
 33 35  1  0
 34 36  2  0
 36 37  1  0
 35 38  2  0
 36 38  1  0
 37 39  3  0
M  END
