x2600-x0734
     RDKit          3D

 37 40  0  0  0  0  0  0  0  0999 V2000
    5.0180   -4.5610   26.0400 N   0  0  0  0  0  0  0  0  0  0  0  0
    6.4610   -4.8070   25.9970 C   0  0  0  0  0  0  0  0  0  0  0  0
    7.0240   -5.4030   27.1620 C   0  0  0  0  0  0  0  0  0  0  0  0
    4.2780   -5.4840   25.6690 O   0  0  0  0  0  0  0  0  0  0  0  0
    4.6450   -3.6180   26.7550 O   0  0  0  0  0  0  0  0  0  0  0  0
    7.2610   -4.4620   24.8300 C   0  0  0  0  0  0  0  0  0  0  0  0
    8.6640   -4.7180   24.8000 C   0  0  0  0  0  0  0  0  0  0  0  0
    8.5150   -5.6760   27.1360 C   0  0  0  0  0  0  0  0  0  0  0  0
    6.4930   -3.8710   23.7850 N   0  0  0  0  0  0  0  0  0  0  0  0
    9.3000   -5.3060   25.8900 C   0  0  0  0  0  0  0  0  0  0  0  0
    5.5810   -4.8710   23.1530 C   0  0  0  0  0  0  0  0  0  0  0  0
    7.0310   -2.9440   22.8910 C   0  0  2  0  0  0  0  0  0  0  0  0
    6.1270   -1.7880   22.3750 C   0  0  0  0  0  0  0  0  0  0  0  0
    6.2960   -5.5600   21.9750 C   0  0  0  0  0  0  0  0  0  0  0  0
    7.8350   -3.8120   21.9520 C   0  0  0  0  0  0  0  0  0  0  0  0
    6.7980   -0.8060   21.5640 N   0  0  0  0  0  0  0  0  0  0  0  0
    7.0440   -4.5930   21.1920 N   0  0  0  0  0  0  0  0  0  0  0  0
    6.4340   -4.0180   20.0590 C   0  0  0  0  0  0  0  0  0  0  0  0
    7.9980   -0.1040   22.0180 C   0  0  0  0  0  0  0  0  0  0  0  0
    6.2220   -0.1800   20.4740 C   0  0  0  0  0  0  0  0  0  0  0  0
    5.2550   -4.2340   19.7690 O   0  0  0  0  0  0  0  0  0  0  0  0
    7.3280   -3.2010   19.1440 C   0  0  0  0  0  0  0  0  0  0  0  0
    8.5210    0.8360   21.3910 O   0  0  0  0  0  0  0  0  0  0  0  0
    8.6320   -0.5460   23.3440 C   0  0  0  0  0  0  0  0  0  0  0  0
    6.9100   -0.2190   19.0760 C   0  0  0  0  0  0  0  0  0  0  0  0
    5.0160    0.5410   20.5350 C   0  0  0  0  0  0  0  0  0  0  0  0
    6.3750    0.4400   17.8770 N   0  0  0  0  0  0  0  0  0  0  0  0
    4.5120    1.1660   19.3860 C   0  0  0  0  0  0  0  0  0  0  0  0
   10.1020   -0.2650   23.2470 C   0  0  0  0  0  0  0  0  0  0  0  0
    5.2260    1.0910   18.0800 C   0  0  0  0  0  0  0  0  0  0  0  0
   10.7670    0.8720   23.9250 C   0  0  0  0  0  0  0  0  0  0  0  0
   10.8800   -1.0860   22.4820 C   0  0  0  0  0  0  0  0  0  0  0  0
   12.0990    1.0930   23.7870 C   0  0  0  0  0  0  0  0  0  0  0  0
   12.2320   -0.8350   22.3670 C   0  0  0  0  0  0  0  0  0  0  0  0
   13.0300   -1.6810   21.5540 C   0  0  0  0  0  0  0  0  0  0  0  0
   12.9370    0.1940   22.9560 C   0  0  0  0  0  0  0  0  0  0  0  0
   13.7050   -2.4630   20.6230 N   0  0  0  0  0  0  0  0  0  0  0  0
  1  2  1  0
  2  3  2  0
  1  4  2  0
  1  5  1  0
  2  6  1  0
  6  7  2  0
  3  8  1  0
  6  9  1  0
  7 10  1  0
  8 10  2  0
  9 11  1  0
  9 12  1  0
 12 13  1  6
 11 14  1  0
 12 15  1  0
 13 16  1  0
 14 17  1  0
 15 17  1  0
 17 18  1  0
 16 19  1  0
 16 20  1  0
 18 21  2  0
 18 22  1  0
 19 23  2  0
 19 24  1  0
 20 25  2  0
 20 26  1  0
 25 27  1  0
 26 28  2  0
 24 29  1  0
 27 30  2  0
 28 30  1  0
 29 31  2  0
 29 32  1  0
 31 33  1  0
 32 34  2  0
 34 35  1  0
 33 36  2  0
 34 36  1  0
 35 37  3  0
M  CHG  2   1   1   5  -1
M  END
