x2600-x0771
     RDKit          3D

 40 43  0  0  0  0  0  0  0  0999 V2000
    0.6100   -1.2950   26.2380 C   0  0  0  0  0  0  0  0  0  0  0  0
    1.6250   -2.3850   26.1000 C   0  0  0  0  0  0  0  0  0  0  0  0
    3.1030   -2.1600   26.4850 C   0  0  0  0  0  0  0  0  0  0  0  0
    1.2950   -3.6950   25.6070 C   0  0  0  0  0  0  0  0  0  0  0  0
    2.3770   -4.7960   25.4870 C   0  0  0  0  0  0  0  0  0  0  0  0
    4.0100   -3.1660   26.3590 C   0  0  0  0  0  0  0  0  0  0  0  0
    2.0090   -6.1600   24.9720 C   0  0  0  0  0  0  0  0  0  0  0  0
    3.6770   -4.3920   25.8990 C   0  0  0  0  0  0  0  0  0  0  0  0
    5.0970   -5.5020   25.8660 S   0  0  0  0  0  0  0  0  0  0  0  0
    4.6380   -6.8700   25.7650 O   0  0  0  0  0  0  0  0  0  0  0  0
    6.0600   -5.1110   26.8690 O   0  0  0  0  0  0  0  0  0  0  0  0
    5.7790   -5.1490   24.3440 N   0  0  0  0  0  0  0  0  0  0  0  0
    5.3650   -5.8920   23.1460 C   0  0  0  0  0  0  0  0  0  0  0  0
    7.0790   -4.5160   24.2680 C   0  0  0  0  0  0  0  0  0  0  0  0
    5.1740   -4.9040   22.1740 C   0  0  0  0  0  0  0  0  0  0  0  0
    7.4940   -4.5130   22.9150 C   0  0  0  0  0  0  0  0  0  0  0  0
    6.2880   -4.0330   22.0500 C   0  0  0  0  0  0  0  0  0  0  0  0
    6.6660   -4.0550   20.5620 C   0  0  0  0  0  0  0  0  0  0  0  0
    5.9660   -2.5100   22.2960 C   0  0  0  0  0  0  0  0  0  0  0  0
    5.7670   -4.4080   19.8200 O   0  0  0  0  0  0  0  0  0  0  0  0
    8.0720   -3.5650   20.1200 C   0  0  0  0  0  0  0  0  0  0  0  0
    6.7570   -1.6930   21.2860 C   0  0  0  0  0  0  0  0  0  0  0  0
    6.7990   -0.2370   21.3440 N   0  0  0  0  0  0  0  0  0  0  0  0
    8.0380    0.2600   21.7240 C   0  0  0  0  0  0  0  0  0  0  0  0
    6.2340    0.3450   20.2020 C   0  0  0  0  0  0  0  0  0  0  0  0
    8.5640    1.2430   21.1390 O   0  0  0  0  0  0  0  0  0  0  0  0
    8.6580   -0.3960   22.7860 C   0  0  0  0  0  0  0  0  0  0  0  0
    6.8360    0.0950   18.9840 C   0  0  0  0  0  0  0  0  0  0  0  0
    5.1100    1.1430   20.2740 C   0  0  0  0  0  0  0  0  0  0  0  0
    6.4110    0.5840   17.8250 N   0  0  0  0  0  0  0  0  0  0  0  0
    4.5480    1.7260   19.1280 C   0  0  0  0  0  0  0  0  0  0  0  0
   10.1470   -0.3280   22.6950 C   0  0  0  0  0  0  0  0  0  0  0  0
    5.2230    1.4330   17.8940 C   0  0  0  0  0  0  0  0  0  0  0  0
   10.8020    0.7690   23.2210 C   0  0  0  0  0  0  0  0  0  0  0  0
   10.9010   -1.2980   22.1090 C   0  0  0  0  0  0  0  0  0  0  0  0
   12.2010    0.9130   23.2020 C   0  0  0  0  0  0  0  0  0  0  0  0
   12.3990   -1.1500   22.0620 C   0  0  0  0  0  0  0  0  0  0  0  0
   13.1050   -2.1460   21.4090 C   0  0  0  0  0  0  0  0  0  0  0  0
   13.0090   -0.0450   22.6270 C   0  0  0  0  0  0  0  0  0  0  0  0
   13.5910   -2.9270   20.7570 N   0  0  0  0  0  0  0  0  0  0  0  0
  1  2  1  0
  2  3  2  0
  2  4  1  0
  4  5  2  0
  3  6  1  0
  5  7  1  0
  5  8  1  0
  6  8  2  0
  9  8  1  0
  9 10  2  0
  9 11  2  0
  9 12  1  0
 12 13  1  0
 12 14  1  0
 13 15  1  0
 14 16  1  0
 15 17  1  0
 16 17  1  0
 17 18  1  0
 17 19  1  0
 18 20  2  0
 18 21  1  0
 19 22  1  0
 22 23  1  0
 23 24  1  0
 23 25  1  0
 24 26  2  0
 24 27  1  0
 25 28  2  0
 25 29  1  0
 28 30  1  0
 29 31  2  0
 27 32  1  0
 30 33  2  0
 31 33  1  0
 32 34  2  0
 32 35  1  0
 34 36  1  0
 35 37  2  0
 37 38  1  0
 36 39  2  0
 37 39  1  0
 38 40  3  0
M  END
