x2608-x0734
     RDKit          3D

 35 38  0  0  0  0  0  0  0  0999 V2000
    5.1220   -4.7020   26.1470 N   0  0  0  0  0  0  0  0  0  0  0  0
    6.5300   -5.0230   26.3130 C   0  0  0  0  0  0  0  0  0  0  0  0
    7.0330   -5.4950   27.5150 C   0  0  0  0  0  0  0  0  0  0  0  0
    4.4220   -5.5200   25.5340 O   0  0  0  0  0  0  0  0  0  0  0  0
    4.6970   -3.7220   26.7700 O   0  0  0  0  0  0  0  0  0  0  0  0
    7.3310   -4.8230   25.1850 C   0  0  0  0  0  0  0  0  0  0  0  0
    8.6950   -5.1160   25.2610 C   0  0  0  0  0  0  0  0  0  0  0  0
    8.3810   -5.8110   27.6850 C   0  0  0  0  0  0  0  0  0  0  0  0
    6.8540   -4.3430   23.9840 N   0  0  0  0  0  0  0  0  0  0  0  0
    9.3020   -5.6700   26.6440 C   0  0  0  0  0  0  0  0  0  0  0  0
    6.0690   -5.2330   23.1000 C   0  0  0  0  0  0  0  0  0  0  0  0
    7.6490   -3.2590   23.3680 C   0  0  0  0  0  0  0  0  0  0  0  0
    6.6030   -5.2810   21.8200 C   0  0  0  0  0  0  0  0  0  0  0  0
    7.1740   -3.0560   21.9330 C   0  0  2  0  0  0  0  0  0  0  0  0
    6.2580   -1.8000   21.8150 C   0  0  0  0  0  0  0  0  0  0  0  0
    6.5900   -4.0580   21.2580 N   0  0  0  0  0  0  0  0  0  0  0  0
    6.1830   -3.8280   19.9650 C   0  0  0  0  0  0  0  0  0  0  0  0
    6.8910   -0.8100   20.9720 N   0  0  0  0  0  0  0  0  0  0  0  0
    5.0640   -4.1530   19.6190 O   0  0  0  0  0  0  0  0  0  0  0  0
    7.1950   -3.1710   19.0120 C   0  0  0  0  0  0  0  0  0  0  0  0
    8.0360   -0.2130   21.4750 C   0  0  0  0  0  0  0  0  0  0  0  0
    6.2250   -0.0840   20.0450 C   0  0  0  0  0  0  0  0  0  0  0  0
    8.9110   -0.9400   22.4070 N   0  0  0  0  0  0  0  0  0  0  0  0
    8.3320    0.9400   21.1460 O   0  0  0  0  0  0  0  0  0  0  0  0
    6.6890    0.0380   18.7410 C   0  0  0  0  0  0  0  0  0  0  0  0
    4.9450    0.6790   20.2840 C   0  0  0  0  0  0  0  0  0  0  0  0
   10.1950   -0.5530   22.5580 C   0  0  0  0  0  0  0  0  0  0  0  0
    6.1310    0.7470   17.7390 N   0  0  0  0  0  0  0  0  0  0  0  0
    4.3980    1.4010   19.2250 C   0  0  0  0  0  0  0  0  0  0  0  0
   11.5750   -1.1240   22.6960 C   0  0  0  0  0  0  0  0  0  0  0  0
   10.3730    1.3950   22.6060 S   0  0  0  0  0  0  0  0  0  0  0  0
    4.9960    1.4410   17.9490 C   0  0  0  0  0  0  0  0  0  0  0  0
   12.0800    1.3250   22.7330 C   0  0  0  0  0  0  0  0  0  0  0  0
   12.5630   -0.1520   22.7920 C   0  0  0  0  0  0  0  0  0  0  0  0
   12.7850    2.6140   22.7410 C   0  0  0  0  0  0  0  0  0  0  0  0
  1  2  1  0
  2  3  2  0
  1  4  2  0
  1  5  1  0
  2  6  1  0
  6  7  2  0
  3  8  1  0
  6  9  1  0
  7 10  1  0
  8 10  2  0
  9 11  1  0
  9 12  1  0
 11 13  1  0
 12 14  1  0
 14 15  1  1
 13 16  1  0
 14 16  1  0
 16 17  1  0
 15 18  1  0
 17 19  2  0
 17 20  1  0
 18 21  1  0
 18 22  1  0
 21 23  1  0
 21 24  2  0
 22 25  2  0
 22 26  1  0
 23 27  1  0
 25 28  1  0
 26 29  2  0
 27 30  2  0
 27 31  1  0
 28 32  2  0
 29 32  1  0
 31 33  1  0
 30 34  1  0
 33 34  2  0
 33 35  1  0
M  CHG  2   1   1   5  -1
M  END
