x2608-x1392
     RDKit          3D

 29 33  0  0  0  0  0  0  0  0999 V2000
    8.7400   -1.1430   22.2910 N   0  0  0  0  0  0  0  0  0  0  0  0
    7.8100   -0.2520   21.7420 C   0  0  0  0  0  0  0  0  0  0  0  0
    7.9300    0.9690   21.7260 O   0  0  0  0  0  0  0  0  0  0  0  0
   10.0490   -0.5730   22.5460 C   0  0  0  0  0  0  0  0  0  0  0  0
    8.5490   -2.2870   21.5810 C   0  0  2  0  0  0  0  0  0  0  0  0
    6.7630   -0.9660   21.1680 N   0  0  0  0  0  0  0  0  0  0  0  0
   11.2540   -1.2000   22.8300 C   0  0  0  0  0  0  0  0  0  0  0  0
   10.2750    1.1830   22.5030 S   0  0  0  0  0  0  0  0  0  0  0  0
    7.0080   -2.3550   21.3120 C   0  0  1  0  0  0  0  0  0  0  0  0
    9.0950   -3.4360   22.0080 C   0  0  0  0  0  0  0  0  0  0  0  0
    6.7750   -3.2360   19.9930 C   0  0  0  0  0  0  0  0  0  0  0  0
   12.0130    0.9840   22.8150 C   0  0  0  0  0  0  0  0  0  0  0  0
   12.3480   -0.3600   22.9850 C   0  0  0  0  0  0  0  0  0  0  0  0
    6.0690   -0.1700   20.0960 C   0  0  0  0  0  0  0  0  0  0  0  0
    8.4070   -4.0310   23.2110 C   0  0  0  0  0  0  0  0  0  0  0  0
    6.1890   -2.9620   22.4310 C   0  0  0  0  0  0  0  0  0  0  0  0
   12.7900    2.2120   22.8320 C   0  0  0  0  0  0  0  0  0  0  0  0
    5.8750   -4.1200   19.8570 O   0  0  0  0  0  0  0  0  0  0  0  0
    7.6620   -3.0430   18.7790 C   0  0  0  0  0  0  0  0  0  0  0  0
    6.7400   -0.0800   18.8830 C   0  0  0  0  0  0  0  0  0  0  0  0
    4.8450    0.4900   20.2500 C   0  0  0  0  0  0  0  0  0  0  0  0
    7.0420   -3.8120   23.4180 C   0  0  0  0  0  0  0  0  0  0  0  0
    9.1810   -4.8070   24.0830 C   0  0  0  0  0  0  0  0  0  0  0  0
    6.2450    0.6780   17.7520 N   0  0  0  0  0  0  0  0  0  0  0  0
    4.3010    1.2490   19.1980 C   0  0  0  0  0  0  0  0  0  0  0  0
    6.4750   -4.4570   24.6400 C   0  0  0  0  0  0  0  0  0  0  0  0
    8.6180   -5.4670   25.3140 C   0  0  0  0  0  0  0  0  0  0  0  0
    4.9540    1.3700   17.9700 C   0  0  0  0  0  0  0  0  0  0  0  0
    7.2660   -5.3170   25.6380 C   0  0  0  0  0  0  0  0  0  0  0  0
  1  2  1  0
  2  3  2  0
  1  4  1  0
  1  5  1  0
  2  6  1  0
  4  7  2  0
  4  8  1  0
  5  9  1  0
  6  9  1  0
  5 10  1  1
  9 11  1  6
  8 12  1  0
  7 13  1  0
 12 13  2  0
  6 14  1  0
 10 15  1  0
  9 16  1  0
 12 17  1  0
 11 18  2  0
 11 19  1  0
 14 20  2  0
 14 21  1  0
 15 22  2  0
 16 22  1  0
 15 23  1  0
 20 24  1  0
 21 25  2  0
 22 26  1  0
 23 27  2  0
 24 28  2  0
 25 28  1  0
 26 29  2  0
 27 29  1  0
M  END
