x2600-x0705
     RDKit          3D

 36 39  0  0  0  0  0  0  0  0999 V2000
    1.2250   -2.7490   27.9600 C   0  0  0  0  0  0  0  0  0  0  0  0
    2.5420   -2.4520   27.2770 C   0  0  0  0  0  0  0  0  0  0  0  0
    3.6510   -3.2670   27.5120 C   0  0  0  0  0  0  0  0  0  0  0  0
    2.6770   -1.2770   26.3370 C   0  0  0  0  0  0  0  0  0  0  0  0
    4.0630   -1.1100   25.7310 C   0  0  0  0  0  0  0  0  0  0  0  0
    4.9270   -3.0060   26.8680 C   0  0  0  0  0  0  0  0  0  0  0  0
    5.1560   -1.9960   26.0200 C   0  0  0  0  0  0  0  0  0  0  0  0
    6.4620   -1.7670   25.3870 C   0  0  0  0  0  0  0  0  0  0  0  0
    7.3800   -1.5490   26.1570 O   0  0  0  0  0  0  0  0  0  0  0  0
    6.6350   -1.7790   23.9740 N   0  0  0  0  0  0  0  0  0  0  0  0
    5.5060   -2.0310   23.2600 C   0  0  0  0  0  0  0  0  0  0  0  0
    7.9210   -2.0550   23.2790 C   0  0  2  0  0  0  0  0  0  0  0  0
    8.6600   -1.0470   22.3350 C   0  0  1  0  0  0  0  0  0  0  0  0
    5.4640   -3.3030   22.7190 C   0  0  0  0  0  0  0  0  0  0  0  0
    7.8720   -3.3370   22.6170 C   0  0  0  0  0  0  0  0  0  0  0  0
    7.9350    0.1650   21.8380 C   0  0  0  0  0  0  0  0  0  0  0  0
    6.6090   -3.4700   21.8880 N   0  0  0  0  0  0  0  0  0  0  0  0
   10.0600   -0.6600   22.7480 C   0  0  0  0  0  0  0  0  0  0  0  0
    6.5720   -3.7160   20.4970 C   0  0  0  0  0  0  0  0  0  0  0  0
    8.5950    1.4440   21.8350 O   0  0  0  0  0  0  0  0  0  0  0  0
    6.6340   -0.2620   21.3830 N   0  0  0  0  0  0  0  0  0  0  0  0
   10.4520    0.2840   23.6990 C   0  0  0  0  0  0  0  0  0  0  0  0
   11.0370   -1.4360   21.9540 C   0  0  0  0  0  0  0  0  0  0  0  0
    5.5530   -3.9960   19.8170 O   0  0  0  0  0  0  0  0  0  0  0  0
    7.8340   -3.7470   19.7450 C   0  0  0  0  0  0  0  0  0  0  0  0
    6.1480    0.3260   20.1540 C   0  0  0  0  0  0  0  0  0  0  0  0
   11.8030    0.5780   23.9690 C   0  0  0  0  0  0  0  0  0  0  0  0
   12.3810   -1.0730   22.2840 C   0  0  0  0  0  0  0  0  0  0  0  0
   13.1930   -1.8250   21.4760 C   0  0  0  0  0  0  0  0  0  0  0  0
    6.7970    0.1000   18.9410 C   0  0  0  0  0  0  0  0  0  0  0  0
    5.0220    1.1300   20.1600 C   0  0  0  0  0  0  0  0  0  0  0  0
   12.8260   -0.1290   23.2300 C   0  0  0  0  0  0  0  0  0  0  0  0
   13.6780   -2.4710   20.7180 N   0  0  0  0  0  0  0  0  0  0  0  0
    6.3730    0.6440   17.7630 N   0  0  0  0  0  0  0  0  0  0  0  0
    4.5940    1.6760   18.9710 C   0  0  0  0  0  0  0  0  0  0  0  0
    5.2650    1.4320   17.8020 C   0  0  0  0  0  0  0  0  0  0  0  0
  1  2  1  0
  2  3  2  0
  2  4  1  0
  4  5  2  0
  3  6  1  0
  5  7  1  0
  6  7  2  0
  7  8  1  0
  8  9  2  0
  8 10  1  0
 10 11  1  0
 10 12  1  0
 12 13  1  0
 11 14  1  0
 12 15  1  6
 13 16  1  1
 14 17  1  0
 15 17  1  0
 13 18  1  0
 17 19  1  0
 16 20  2  0
 16 21  1  0
 18 22  2  0
 18 23  1  0
 19 24  2  0
 19 25  1  0
 21 26  1  0
 22 27  1  0
 23 28  2  0
 28 29  1  0
 26 30  2  0
 26 31  1  0
 27 32  2  0
 28 32  1  0
 29 33  3  0
 30 34  1  0
 31 35  2  0
 34 36  2  0
 35 36  1  0
M  END
