x2608-x1493
     RDKit          3D

 30 32  0  0  0  0  0  0  0  0999 V2000
    4.8790   -6.2650   26.2080 C   0  0  0  0  0  0  0  0  0  0  0  0
    6.1490   -5.5950   25.6510 C   0  0  0  0  0  0  0  0  0  0  0  0
    7.1450   -5.3980   26.3350 O   0  0  0  0  0  0  0  0  0  0  0  0
    6.1180   -5.2240   24.3080 N   0  0  0  0  0  0  0  0  0  0  0  0
    7.1120   -4.2800   23.8180 C   0  0  0  0  0  0  0  0  0  0  0  0
    5.4920   -5.9990   23.2450 C   0  0  0  0  0  0  0  0  0  0  0  0
    6.8590   -3.7030   22.5620 C   0  0  2  0  0  0  0  0  0  0  0  0
    6.2610   -5.9130   22.0810 C   0  0  0  0  0  0  0  0  0  0  0  0
    5.6820   -2.9500   22.5120 C   0  0  0  0  0  0  0  0  0  0  0  0
    6.7390   -4.7010   21.6380 N   0  0  0  0  0  0  0  0  0  0  0  0
    6.4170   -4.2360   20.3730 C   0  0  0  0  0  0  0  0  0  0  0  0
    5.8140   -1.4480   22.2000 C   0  0  0  0  0  0  0  0  0  0  0  0
    5.3430   -4.5510   19.8920 O   0  0  0  0  0  0  0  0  0  0  0  0
    7.4090   -3.3440   19.6410 C   0  0  0  0  0  0  0  0  0  0  0  0
    6.6320   -1.0230   21.0340 N   0  0  0  0  0  0  0  0  0  0  0  0
    7.8560   -0.3770   21.3590 C   0  0  0  0  0  0  0  0  0  0  0  0
    6.0750   -0.2680   19.9760 C   0  0  0  0  0  0  0  0  0  0  0  0
    8.8640   -0.9350   22.0010 N   0  0  0  0  0  0  0  0  0  0  0  0
    8.0620    0.9170   20.9760 O   0  0  0  0  0  0  0  0  0  0  0  0
    6.4880   -0.2410   18.6650 C   0  0  0  0  0  0  0  0  0  0  0  0
    5.0120    0.5540   20.3250 C   0  0  0  0  0  0  0  0  0  0  0  0
   10.1680   -0.8250   22.3850 C   0  0  0  0  0  0  0  0  0  0  0  0
    5.9440    0.5230   17.7100 N   0  0  0  0  0  0  0  0  0  0  0  0
    4.3940    1.3760   19.3900 C   0  0  0  0  0  0  0  0  0  0  0  0
   11.3410   -1.7430   22.7110 C   0  0  0  0  0  0  0  0  0  0  0  0
   10.5760    0.9240   22.4940 S   0  0  0  0  0  0  0  0  0  0  0  0
    4.9210    1.3030   18.1240 C   0  0  0  0  0  0  0  0  0  0  0  0
   12.1870    0.5540   22.8430 C   0  0  0  0  0  0  0  0  0  0  0  0
   12.4390   -0.9550   22.9610 C   0  0  0  0  0  0  0  0  0  0  0  0
   13.0290    1.7120   22.9500 C   0  0  0  0  0  0  0  0  0  0  0  0
  1  2  1  0
  2  3  2  0
  2  4  1  0
  4  5  1  0
  4  6  1  0
  5  7  1  0
  6  8  1  0
  7  9  1  1
  7 10  1  0
  8 10  1  0
 10 11  1  0
  9 12  1  0
 11 13  2  0
 11 14  1  0
 12 15  1  0
 15 16  1  0
 15 17  1  0
 16 18  1  0
 16 19  2  0
 17 20  2  0
 17 21  1  0
 18 22  1  0
 20 23  1  0
 21 24  2  0
 22 25  2  0
 22 26  1  0
 23 27  2  0
 24 27  1  0
 26 28  1  0
 25 29  1  0
 28 29  2  0
 28 30  1  0
M  END
