x2608-x1385
     RDKit          3D

 32 36  0  0  0  0  0  0  0  0999 V2000
    7.3680   -3.0910   18.7230 C   0  0  0  0  0  0  0  0  0  0  0  0
    6.3010   -3.3640   19.7980 C   0  0  0  0  0  0  0  0  0  0  0  0
    5.3280   -4.0780   19.6210 O   0  0  0  0  0  0  0  0  0  0  0  0
    6.4700   -2.7880   21.0330 N   0  0  0  0  0  0  0  0  0  0  0  0
    6.2310   -3.5280   22.2500 C   0  0  0  0  0  0  0  0  0  0  0  0
    7.5890   -1.8820   21.1410 C   0  0  1  0  0  0  0  0  0  0  0  0
    7.1660   -0.5790   21.1790 N   0  0  0  0  0  0  0  0  0  0  0  0
    7.4560   -3.8850   23.0820 C   0  0  0  0  0  0  0  0  0  0  0  0
    8.6570   -1.9900   22.0540 C   0  0  1  0  0  0  0  0  0  0  0  0
    8.9920   -0.7290   22.5590 N   0  0  0  0  0  0  0  0  0  0  0  0
    8.2220    0.1980   21.7580 C   0  0  0  0  0  0  0  0  0  0  0  0
    8.4120   -2.7760   23.1930 N   0  0  0  0  0  0  0  0  0  0  0  0
    6.3940    0.0310   20.1540 C   0  0  0  0  0  0  0  0  0  0  0  0
    9.4710   -3.0250   24.0710 C   0  0  0  0  0  0  0  0  0  0  0  0
    8.3660    1.3930   21.5150 O   0  0  0  0  0  0  0  0  0  0  0  0
   10.2410   -0.2230   22.6810 C   0  0  0  0  0  0  0  0  0  0  0  0
    6.8120    0.0490   18.8350 C   0  0  0  0  0  0  0  0  0  0  0  0
    5.1990    0.6290   20.5250 C   0  0  0  0  0  0  0  0  0  0  0  0
    9.1290   -4.0450   25.1130 C   0  0  0  0  0  0  0  0  0  0  0  0
   11.4090   -0.9540   22.8140 C   0  0  0  0  0  0  0  0  0  0  0  0
   10.4890    1.4660   22.6590 S   0  0  0  0  0  0  0  0  0  0  0  0
    6.1240    0.6390   17.8230 N   0  0  0  0  0  0  0  0  0  0  0  0
    4.5000    1.2340   19.5070 C   0  0  0  0  0  0  0  0  0  0  0  0
    9.6580   -5.3440   25.3010 C   0  0  0  0  0  0  0  0  0  0  0  0
    7.9240   -3.6760   26.3120 S   0  0  0  0  0  0  0  0  0  0  0  0
   12.1750    1.3430   22.7730 C   0  0  0  0  0  0  0  0  0  0  0  0
   12.5770    0.0160   22.8750 C   0  0  0  0  0  0  0  0  0  0  0  0
    4.9310    1.2590   18.1840 C   0  0  0  0  0  0  0  0  0  0  0  0
   12.9610    2.5110   22.7320 C   0  0  0  0  0  0  0  0  0  0  0  0
    8.1830   -5.2750   27.0000 C   0  0  0  0  0  0  0  0  0  0  0  0
    9.1260   -6.0490   26.3810 C   0  0  0  0  0  0  0  0  0  0  0  0
    7.1760   -5.8370   28.5110 Br  0  0  0  0  0  0  0  0  0  0  0  0
  1  2  1  0
  2  3  2  0
  2  4  1  0
  4  5  1  0
  6  4  1  1
  6  7  1  0
  5  8  1  0
  6  9  1  0
  9 10  1  1
  7 11  1  0
 10 11  1  0
  8 12  1  0
  9 12  1  0
  7 13  1  0
 12 14  1  0
 11 15  2  0
 10 16  1  0
 13 17  2  0
 13 18  1  0
 14 19  1  0
 16 20  2  0
 16 21  1  0
 17 22  1  0
 18 23  2  0
 19 24  2  0
 19 25  1  0
 21 26  1  0
 20 27  1  0
 26 27  2  0
 22 28  2  0
 23 28  1  0
 26 29  1  0
 25 30  1  0
 24 31  1  0
 30 31  2  0
 30 32  1  0
M  END
