x2649-x1425
     RDKit          3D

 37 40  0  0  0  0  0  0  0  0999 V2000
    6.8910   -0.4180   21.0930 N   0  0  0  0  0  0  0  0  0  0  0  0
    8.1440    0.0340   21.6670 C   0  0  0  0  0  0  0  0  0  0  0  0
    8.5810    1.1680   21.4830 O   0  0  0  0  0  0  0  0  0  0  0  0
    6.2920    0.2450   20.0160 C   0  0  0  0  0  0  0  0  0  0  0  0
    8.8600   -1.0250   22.4810 C   0  0  2  0  0  0  0  0  0  0  0  0
    5.2190    1.1050   20.1860 C   0  0  0  0  0  0  0  0  0  0  0  0
    6.7860    0.0420   18.7400 C   0  0  0  0  0  0  0  0  0  0  0  0
    8.1760   -1.5690   23.7170 C   0  0  0  0  0  0  0  0  0  0  0  0
    4.6200    1.3890   21.5280 C   0  0  0  0  0  0  0  0  0  0  0  0
    6.2760    0.6430   17.6430 N   0  0  0  0  0  0  0  0  0  0  0  0
    4.6690    1.7370   19.0690 C   0  0  0  0  0  0  0  0  0  0  0  0
   10.3030   -0.7940   22.5620 C   0  0  0  0  0  0  0  0  0  0  0  0
    7.8140   -3.0270   23.4420 C   0  0  0  0  0  0  0  0  0  0  0  0
    5.2350    1.4710   17.8410 C   0  0  0  0  0  0  0  0  0  0  0  0
   10.8250    0.3040   23.2370 C   0  0  0  0  0  0  0  0  0  0  0  0
   11.1100   -1.6720   21.9530 C   0  0  0  0  0  0  0  0  0  0  0  0
   12.1480    0.5010   23.2950 C   0  0  0  0  0  0  0  0  0  0  0  0
   12.4320   -1.4820   21.9980 C   0  0  0  0  0  0  0  0  0  0  0  0
    6.8090   -3.0960   22.2740 C   0  0  1  0  0  0  0  0  0  0  0  0
   13.2700   -2.6650   21.1600 Cl  0  0  0  0  0  0  0  0  0  0  0  0
   12.9920   -0.4020   22.6660 C   0  0  0  0  0  0  0  0  0  0  0  0
    6.7430   -4.3910   21.5880 N   0  0  0  0  0  0  0  0  0  0  0  0
    5.6110   -2.8360   22.7590 C   0  0  0  0  0  0  0  0  0  0  0  0
    6.2320   -4.2340   20.2980 C   0  0  0  0  0  0  0  0  0  0  0  0
    5.4200   -3.8470   23.7900 N   0  0  0  0  0  0  0  0  0  0  0  0
    6.3420   -5.5320   22.4330 C   0  0  0  0  0  0  0  0  0  0  0  0
    5.2370   -4.8330   19.9420 O   0  0  0  0  0  0  0  0  0  0  0  0
    7.0030   -3.3360   19.3350 C   0  0  0  0  0  0  0  0  0  0  0  0
    4.7270   -3.4410   24.9890 C   0  0  0  0  0  0  0  0  0  0  0  0
    5.2740   -5.2310   23.2870 C   0  0  0  0  0  0  0  0  0  0  0  0
    5.2830   -2.5940   25.9450 C   0  0  0  0  0  0  0  0  0  0  0  0
    3.4770   -3.8940   25.1930 C   0  0  0  0  0  0  0  0  0  0  0  0
    4.5910   -2.2200   27.0700 C   0  0  0  0  0  0  0  0  0  0  0  0
    2.7470   -3.5230   26.3440 C   0  0  0  0  0  0  0  0  0  0  0  0
    3.3070   -2.6760   27.2950 C   0  0  0  0  0  0  0  0  0  0  0  0
    2.7150   -2.2400   28.4430 O   0  0  0  0  0  0  0  0  0  0  0  0
    1.2940   -2.2810   28.4740 C   0  0  0  0  0  0  0  0  0  0  0  0
  1  2  1  0
  2  3  2  0
  1  4  1  0
  2  5  1  0
  4  6  2  0
  4  7  1  0
  5  8  1  1
  6  9  1  0
  7 10  2  0
  6 11  1  0
  5 12  1  0
  8 13  1  0
 10 14  1  0
 11 14  2  0
 12 15  2  0
 12 16  1  0
 15 17  1  0
 16 18  2  0
 19 13  1  1
 18 20  1  0
 17 21  2  0
 18 21  1  0
 19 22  1  0
 19 23  1  0
 22 24  1  0
 23 25  1  0
 22 26  1  0
 24 27  2  0
 24 28  1  0
 25 29  1  0
 25 30  1  0
 26 30  1  0
 29 31  2  0
 29 32  1  0
 31 33  1  0
 32 34  2  0
 33 35  2  0
 34 35  1  0
 35 36  1  0
 36 37  1  0
M  END
