x2646-x0771
     RDKit          3D

 40 43  0  0  0  0  0  0  0  0999 V2000
    0.4230   -1.4270   26.1070 C   0  0  0  0  0  0  0  0  0  0  0  0
    1.5720   -2.3850   26.0190 C   0  0  0  0  0  0  0  0  0  0  0  0
    2.9590   -1.9800   26.3830 C   0  0  0  0  0  0  0  0  0  0  0  0
    1.3350   -3.6720   25.5890 C   0  0  0  0  0  0  0  0  0  0  0  0
    2.3360   -4.6390   25.4690 C   0  0  0  0  0  0  0  0  0  0  0  0
    3.9500   -2.9530   26.2600 C   0  0  0  0  0  0  0  0  0  0  0  0
    1.9570   -6.0130   24.9850 C   0  0  0  0  0  0  0  0  0  0  0  0
    3.6470   -4.2520   25.8120 C   0  0  0  0  0  0  0  0  0  0  0  0
    5.0920   -5.3130   25.7250 S   0  0  0  0  0  0  0  0  0  0  0  0
    4.6580   -6.6940   25.7280 O   0  0  0  0  0  0  0  0  0  0  0  0
    6.0370   -4.8160   26.6910 O   0  0  0  0  0  0  0  0  0  0  0  0
    5.6210   -4.9150   24.1650 N   0  0  0  0  0  0  0  0  0  0  0  0
    4.9450   -5.6510   23.0550 C   0  0  0  0  0  0  0  0  0  0  0  0
    6.7640   -3.9840   23.8090 C   0  0  2  0  0  0  0  0  0  0  0  0
    6.4900   -2.5410   23.3690 C   0  0  0  0  0  0  0  0  0  0  0  0
    5.8120   -6.1430   22.1110 C   0  0  0  0  0  0  0  0  0  0  0  0
    7.4720   -4.5490   22.7530 C   0  0  0  0  0  0  0  0  0  0  0  0
    7.4800   -1.6340   23.6960 C   0  0  0  0  0  0  0  0  0  0  0  0
    6.6200   -5.0350   21.6630 N   0  0  0  0  0  0  0  0  0  0  0  0
    6.3350   -4.3470   20.4720 C   0  0  0  0  0  0  0  0  0  0  0  0
    8.5270   -1.3850   22.5530 C   0  0  1  0  0  0  0  0  0  0  0  0
    5.2760   -4.6020   19.9260 O   0  0  0  0  0  0  0  0  0  0  0  0
    7.2800   -3.3520   19.8250 C   0  0  0  0  0  0  0  0  0  0  0  0
    7.9880   -0.3990   21.7470 C   0  0  0  0  0  0  0  0  0  0  0  0
    9.9460   -0.9250   22.8760 C   0  0  0  0  0  0  0  0  0  0  0  0
    8.5950    0.6540   21.5660 O   0  0  0  0  0  0  0  0  0  0  0  0
    6.8040   -0.6050   21.1480 N   0  0  0  0  0  0  0  0  0  0  0  0
   10.3360    0.0500   23.8360 C   0  0  0  0  0  0  0  0  0  0  0  0
   10.9210   -1.5500   22.1090 C   0  0  0  0  0  0  0  0  0  0  0  0
    6.2950    0.0750   20.0280 C   0  0  0  0  0  0  0  0  0  0  0  0
   11.6510    0.3560   23.9770 C   0  0  0  0  0  0  0  0  0  0  0  0
   12.2340   -1.2650   22.2320 C   0  0  0  0  0  0  0  0  0  0  0  0
   13.2660   -2.1110   21.2040 Cl  0  0  0  0  0  0  0  0  0  0  0  0
    6.8810   -0.0030   18.7720 C   0  0  0  0  0  0  0  0  0  0  0  0
    5.1650    0.8530   20.1880 C   0  0  0  0  0  0  0  0  0  0  0  0
   12.6710   -0.3250   23.1440 C   0  0  0  0  0  0  0  0  0  0  0  0
    4.4370    1.0180   21.4900 C   0  0  0  0  0  0  0  0  0  0  0  0
    6.4170    0.6450   17.6900 N   0  0  0  0  0  0  0  0  0  0  0  0
    4.6680    1.5310   19.0680 C   0  0  0  0  0  0  0  0  0  0  0  0
    5.3210    1.3960   17.8610 C   0  0  0  0  0  0  0  0  0  0  0  0
  1  2  1  0
  2  3  2  0
  2  4  1  0
  4  5  2  0
  3  6  1  0
  5  7  1  0
  5  8  1  0
  6  8  2  0
  9  8  1  0
  9 10  2  0
  9 11  2  0
  9 12  1  0
 12 13  1  0
 12 14  1  0
 14 15  1  6
 13 16  1  0
 14 17  1  0
 15 18  1  0
 16 19  1  0
 17 19  1  0
 19 20  1  0
 21 18  1  1
 20 22  2  0
 20 23  1  0
 21 24  1  0
 21 25  1  0
 24 26  2  0
 24 27  1  0
 25 28  2  0
 25 29  1  0
 27 30  1  0
 28 31  1  0
 29 32  2  0
 32 33  1  0
 30 34  2  0
 30 35  1  0
 31 36  2  0
 32 36  1  0
 35 37  1  0
 34 38  1  0
 35 39  2  0
 38 40  2  0
 39 40  1  0
M  END
