x2649-x1358
     RDKit          3D

 39 43  0  0  0  0  0  0  0  0999 V2000
    7.2190   -2.2220   25.8610 N   0  0  0  0  0  0  0  0  0  0  0  0
    6.2430   -3.0660   25.2880 C   0  0  0  0  0  0  0  0  0  0  0  0
    5.0640   -3.1720   25.6640 O   0  0  0  0  0  0  0  0  0  0  0  0
    8.2850   -1.7820   25.0440 C   0  0  0  0  0  0  0  0  0  0  0  0
    6.9190   -1.3310   26.8930 C   0  0  0  0  0  0  0  0  0  0  0  0
    7.8100   -1.7750   23.6330 C   0  0  1  0  0  0  0  0  0  0  0  0
    6.0080   -0.2940   26.6670 C   0  0  0  0  0  0  0  0  0  0  0  0
    7.5350   -1.4560   28.1620 C   0  0  0  0  0  0  0  0  0  0  0  0
    6.7170   -3.9220   24.0960 C   0  0  2  0  0  0  0  0  0  0  0  0
    5.3930   -0.1420   25.4490 O   0  0  0  0  0  0  0  0  0  0  0  0
    8.6950   -1.1290   22.5460 C   0  0  1  0  0  0  0  0  0  0  0  0
    7.2450   -0.5580   29.1880 C   0  0  0  0  0  0  0  0  0  0  0  0
    5.7000    0.6210   27.6780 C   0  0  0  0  0  0  0  0  0  0  0  0
    7.6550   -3.2670   23.2950 C   0  0  1  0  0  0  0  0  0  0  0  0
    5.5980   -4.4070   23.4110 C   0  0  0  0  0  0  0  0  0  0  0  0
    8.0020   -0.0870   21.6850 C   0  0  0  0  0  0  0  0  0  0  0  0
    6.3340    0.4480   28.8970 C   0  0  0  0  0  0  0  0  0  0  0  0
    7.6070   -3.3500   21.9190 C   0  0  0  0  0  0  0  0  0  0  0  0
    6.0040   -5.1960   22.3230 C   0  0  0  0  0  0  0  0  0  0  0  0
   10.1040   -0.7350   22.8300 C   0  0  0  0  0  0  0  0  0  0  0  0
    6.7630   -0.3950   21.1800 N   0  0  0  0  0  0  0  0  0  0  0  0
    8.5070    1.0050   21.4240 O   0  0  0  0  0  0  0  0  0  0  0  0
    6.7050   -4.3410   21.3820 N   0  0  0  0  0  0  0  0  0  0  0  0
   10.5490    0.2370   23.7380 C   0  0  0  0  0  0  0  0  0  0  0  0
   11.0250   -1.4130   22.0840 C   0  0  0  0  0  0  0  0  0  0  0  0
    6.2200   -4.0260   20.1110 C   0  0  0  0  0  0  0  0  0  0  0  0
    6.2410    0.2340   20.0490 C   0  0  0  0  0  0  0  0  0  0  0  0
   11.9060    0.4800   23.8390 C   0  0  0  0  0  0  0  0  0  0  0  0
   12.3380   -1.1480   22.2060 C   0  0  0  0  0  0  0  0  0  0  0  0
    5.1140   -4.3990   19.7720 O   0  0  0  0  0  0  0  0  0  0  0  0
    7.1290   -3.2270   19.1550 C   0  0  0  0  0  0  0  0  0  0  0  0
   13.3170   -2.0620   21.1970 Cl  0  0  0  0  0  0  0  0  0  0  0  0
    5.0800    0.9980   20.1080 C   0  0  0  0  0  0  0  0  0  0  0  0
    6.8120    0.1470   18.8370 C   0  0  0  0  0  0  0  0  0  0  0  0
   12.7750   -0.2120   23.0710 C   0  0  0  0  0  0  0  0  0  0  0  0
    4.3300    1.1750   21.3990 C   0  0  0  0  0  0  0  0  0  0  0  0
    6.3650    0.7350   17.7000 N   0  0  0  0  0  0  0  0  0  0  0  0
    4.5740    1.6210   18.9820 C   0  0  0  0  0  0  0  0  0  0  0  0
    5.2490    1.4660   17.7950 C   0  0  0  0  0  0  0  0  0  0  0  0
  1  2  1  0
  2  3  2  0
  1  4  1  0
  1  5  1  0
  6  4  1  1
  5  7  2  0
  5  8  1  0
  2  9  1  0
  7 10  1  0
  6 11  1  0
  8 12  2  0
  7 13  1  0
  6 14  1  0
  9 14  1  0
  9 15  1  6
 11 16  1  1
 12 17  1  0
 13 17  2  0
 14 18  1  6
 15 19  1  0
 11 20  1  0
 16 21  1  0
 16 22  2  0
 18 23  1  0
 19 23  1  0
 20 24  2  0
 20 25  1  0
 23 26  1  0
 21 27  1  0
 24 28  1  0
 25 29  2  0
 26 30  2  0
 26 31  1  0
 29 32  1  0
 27 33  2  0
 27 34  1  0
 28 35  2  0
 29 35  1  0
 33 36  1  0
 34 37  2  0
 33 38  1  0
 37 39  1  0
 38 39  2  0
M  END
