x2643-x0786
     RDKit          3D

 36 39  0  0  0  0  0  0  0  0999 V2000
    6.4590   -3.7690   21.9500 N   0  0  0  0  0  0  0  0  0  0  0  0
    6.2010   -4.3330   20.6730 C   0  0  0  0  0  0  0  0  0  0  0  0
    7.3200   -5.1100   20.1330 C   0  0  0  0  0  0  0  0  0  0  0  0
    7.9060   -3.6070   22.3310 C   0  0  0  0  0  0  0  0  0  0  0  0
    5.6060   -4.1440   23.0000 C   0  0  0  0  0  0  0  0  0  0  0  0
    5.2350   -4.2690   19.8880 O   0  0  0  0  0  0  0  0  0  0  0  0
    8.1870   -2.6150   23.4520 C   0  0  0  0  0  0  0  0  0  0  0  0
    4.9260   -5.3600   23.0300 C   0  0  0  0  0  0  0  0  0  0  0  0
    5.4420   -3.2350   24.0570 C   0  0  0  0  0  0  0  0  0  0  0  0
    8.0560   -1.1530   23.0780 C   0  0  2  0  0  0  0  0  0  0  0  0
    4.1000   -5.6450   24.1050 C   0  0  0  0  0  0  0  0  0  0  0  0
    4.6270   -3.5010   25.1450 C   0  0  0  0  0  0  0  0  0  0  0  0
    3.3170   -6.9180   24.2150 C   0  0  0  0  0  0  0  0  0  0  0  0
    7.7980   -0.7240   21.5810 C   0  0  0  0  0  0  0  0  0  0  0  0
    3.9620   -4.7220   25.1450 C   0  0  0  0  0  0  0  0  0  0  0  0
    9.4590   -0.5210   23.0530 C   0  0  0  0  0  0  0  0  0  0  0  0
    3.9540   -8.0410   24.7990 O   0  0  0  0  0  0  0  0  0  0  0  0
    6.6430   -1.0680   20.9300 N   0  0  0  0  0  0  0  0  0  0  0  0
    8.6590   -0.0180   21.0660 O   0  0  0  0  0  0  0  0  0  0  0  0
    2.0010   -6.9100   23.7500 N   0  0  0  0  0  0  0  0  0  0  0  0
    9.7290    0.8320   23.0730 C   0  0  0  0  0  0  0  0  0  0  0  0
   10.9010   -1.4490   22.9620 S   0  0  0  0  0  0  0  0  0  0  0  0
    1.4190   -5.6700   23.4280 C   0  0  0  0  0  0  0  0  0  0  0  0
    1.0990   -7.8890   23.9890 C   0  0  0  0  0  0  0  0  0  0  0  0
   11.7880   -0.0310   22.9540 C   0  0  0  0  0  0  0  0  0  0  0  0
   11.0520    1.1200   23.0080 C   0  0  0  0  0  0  0  0  0  0  0  0
    6.1120   -0.2270   19.9270 C   0  0  0  0  0  0  0  0  0  0  0  0
   13.4430   -0.1090   22.8740 Cl  0  0  0  0  0  0  0  0  0  0  0  0
    0.5100   -5.1600   24.3590 C   0  0  0  0  0  0  0  0  0  0  0  0
   -0.0890   -7.6240   24.6950 C   0  0  0  0  0  0  0  0  0  0  0  0
    6.8000   -0.1060   18.7330 C   0  0  0  0  0  0  0  0  0  0  0  0
    4.9290    0.5040   20.0580 C   0  0  0  0  0  0  0  0  0  0  0  0
   -0.8950   -6.1470   24.3780 S   0  0  0  0  0  0  0  0  0  0  0  0
    6.3930    0.6730   17.7000 N   0  0  0  0  0  0  0  0  0  0  0  0
    4.4930    1.3150   19.0090 C   0  0  0  0  0  0  0  0  0  0  0  0
    5.2560    1.3650   17.8610 C   0  0  0  0  0  0  0  0  0  0  0  0
  1  2  1  0
  2  3  1  0
  1  4  1  0
  1  5  1  0
  2  6  2  0
  4  7  1  0
  5  8  2  0
  5  9  1  0
 10  7  1  6
  8 11  1  0
  9 12  2  0
 11 13  1  0
 10 14  1  0
 11 15  2  0
 12 15  1  0
 10 16  1  0
 13 17  2  0
 14 18  1  0
 14 19  2  0
 13 20  1  0
 16 21  2  0
 16 22  1  0
 20 23  1  0
 20 24  1  0
 22 25  1  0
 21 26  1  0
 25 26  2  0
 18 27  1  0
 25 28  1  0
 23 29  1  0
 24 30  1  0
 27 31  2  0
 27 32  1  0
 29 33  1  0
 30 33  1  0
 31 34  1  0
 32 35  2  0
 34 36  2  0
 35 36  1  0
M  END
