x2643-x2581
     RDKit          3D

 36 40  0  0  0  0  0  0  0  0999 V2000
   10.6830   -2.9620   24.1480 C   0  0  0  0  0  0  0  0  0  0  0  0
   10.9520   -2.1240   25.0090 O   0  0  0  0  0  0  0  0  0  0  0  0
   11.2820   -0.8300   24.5480 C   0  0  1  0  0  0  0  0  0  0  0  0
   12.2730   -0.9240   23.5630 C   0  0  2  0  0  0  0  0  0  0  0  0
   10.0380   -0.2970   24.2350 C   0  0  0  0  0  0  0  0  0  0  0  0
   13.1560    0.4490   23.2240 Cl  0  0  0  0  0  0  0  0  0  0  0  0
   10.0730   -0.0130   22.7170 C   0  0  2  0  0  0  0  0  0  0  0  0
   11.3520   -1.2260   22.1610 S   0  0  0  0  0  0  0  0  0  0  0  0
   10.5100    1.3220   22.6710 C   0  0  0  0  0  0  0  0  0  0  0  0
    8.8600   -0.2450   22.0800 C   0  0  1  0  0  0  0  0  0  0  0  0
    8.0910   -1.5050   22.5340 C   0  0  0  0  0  0  0  0  0  0  0  0
    9.6940    2.2780   22.0620 C   0  0  2  0  0  0  0  0  0  0  0  0
    7.9710    0.8170   21.9310 C   0  0  0  0  0  0  0  0  0  0  0  0
   10.0180    3.6460   22.2470 N   0  0  0  0  0  0  0  0  0  0  0  0
    6.7840   -1.6090   21.7230 C   0  0  0  0  0  0  0  0  0  0  0  0
    8.4160    2.0360   22.5920 N   0  0  0  0  0  0  0  0  0  0  0  0
   11.1410    3.9800   23.0680 C   0  0  0  0  0  0  0  0  0  0  0  0
    7.0080   -1.2180   20.4390 N   0  0  0  0  0  0  0  0  0  0  0  0
   11.4840    3.3070   23.9840 O   0  0  0  0  0  0  0  0  0  0  0  0
   11.8440    5.2770   22.7050 C   0  0  0  0  0  0  0  0  0  0  0  0
    6.2490   -0.3040   19.7290 C   0  0  0  0  0  0  0  0  0  0  0  0
   11.0700    6.4140   23.3120 C   0  0  0  0  0  0  0  0  0  0  0  0
    6.8380    0.1210   18.4460 C   0  0  0  0  0  0  0  0  0  0  0  0
    5.0290    0.2470   20.0670 C   0  0  0  0  0  0  0  0  0  0  0  0
    9.8310    6.7960   22.7960 C   0  0  0  0  0  0  0  0  0  0  0  0
   11.6050    7.0880   24.4110 C   0  0  0  0  0  0  0  0  0  0  0  0
    6.2970    0.9850   17.5810 N   0  0  0  0  0  0  0  0  0  0  0  0
    4.4190    1.2370   19.0770 C   0  0  0  0  0  0  0  0  0  0  0  0
    9.1200    7.8390   23.3580 C   0  0  0  0  0  0  0  0  0  0  0  0
   10.8810    8.1510   24.9750 C   0  0  0  0  0  0  0  0  0  0  0  0
    5.1070    1.5250   17.9110 C   0  0  0  0  0  0  0  0  0  0  0  0
    9.6320    8.5370   24.4530 C   0  0  0  0  0  0  0  0  0  0  0  0
   11.4050    8.8540   26.0750 C   0  0  0  0  0  0  0  0  0  0  0  0
    8.9530    9.6050   25.0360 C   0  0  0  0  0  0  0  0  0  0  0  0
   10.7500    9.9240   26.6760 C   0  0  0  0  0  0  0  0  0  0  0  0
    9.4890   10.2670   26.0960 C   0  0  0  0  0  0  0  0  0  0  0  0
  1  2  1  0
  3  2  1  6
  3  4  1  0
  3  5  1  0
  4  6  1  6
  7  5  1  1
  4  8  1  0
  7  8  1  0
  7  9  1  0
  7 10  1  0
 10 11  1  1
  9 12  1  0
 10 13  1  0
 12 14  1  1
 11 15  1  0
 12 16  1  0
 13 16  1  0
 14 17  1  0
 15 18  1  0
 17 19  2  0
 17 20  1  0
 18 21  1  0
 20 22  1  0
 21 23  2  0
 21 24  1  0
 22 25  2  0
 22 26  1  0
 23 27  1  0
 24 28  2  0
 25 29  1  0
 26 30  2  0
 27 31  2  0
 28 31  1  0
 29 32  2  0
 30 32  1  0
 30 33  1  0
 32 34  1  0
 33 35  2  0
 34 36  2  0
 35 36  1  0
M  END
