x2646-x1311
     RDKit          3D

 38 41  0  0  0  0  0  0  0  0999 V2000
    5.7940   -4.6690   20.0430 O   0  0  0  0  0  0  0  0  0  0  0  0
    6.6450   -4.5360   20.9740 C   0  0  0  0  0  0  0  0  0  0  0  0
    8.1670   -4.3210   20.8030 C   0  0  0  0  0  0  0  0  0  0  0  0
    6.2260   -4.5540   22.5110 C   0  0  2  0  0  0  0  0  0  0  0  0
    5.3110   -3.3210   22.7240 C   0  0  0  0  0  0  0  0  0  0  0  0
    7.4460   -4.7230   23.3930 C   0  0  0  0  0  0  0  0  0  0  0  0
    5.4970   -5.8010   22.9730 C   0  0  2  0  0  0  0  0  0  0  0  0
    5.8350   -1.9090   22.5060 C   0  0  0  0  0  0  0  0  0  0  0  0
    8.3250   -5.7700   23.2780 C   0  0  0  0  0  0  0  0  0  0  0  0
    7.5820   -3.7400   24.3610 C   0  0  0  0  0  0  0  0  0  0  0  0
    4.6410   -6.3770   22.1520 C   0  0  0  0  0  0  0  0  0  0  0  0
    4.8370   -5.5320   24.1900 C   0  0  0  0  0  0  0  0  0  0  0  0
    6.2370   -1.7450   21.2560 C   0  0  0  0  0  0  0  0  0  0  0  0
    9.3600   -5.9070   24.1010 C   0  0  0  0  0  0  0  0  0  0  0  0
    8.6240   -3.7120   25.3210 C   0  0  0  0  0  0  0  0  0  0  0  0
    3.5840   -6.6990   24.4510 S   0  0  0  0  0  0  0  0  0  0  0  0
    3.4750   -6.9450   22.7450 C   0  0  0  0  0  0  0  0  0  0  0  0
    4.1130   -7.8520   25.1330 O   0  0  0  0  0  0  0  0  0  0  0  0
    2.4060   -5.9970   24.8870 O   0  0  0  0  0  0  0  0  0  0  0  0
    6.7670   -0.4580   21.0940 N   0  0  0  0  0  0  0  0  0  0  0  0
    9.5150   -4.9480   25.0710 C   0  0  0  0  0  0  0  0  0  0  0  0
    8.0370   -0.0300   21.6680 C   0  0  0  0  0  0  0  0  0  0  0  0
    6.2740    0.1960   19.9650 C   0  0  0  0  0  0  0  0  0  0  0  0
    8.6210    1.0010   21.2960 O   0  0  0  0  0  0  0  0  0  0  0  0
    8.6390   -0.9110   22.7740 C   0  0  0  0  0  0  0  0  0  0  0  0
    6.8970    0.0680   18.7290 C   0  0  0  0  0  0  0  0  0  0  0  0
    5.1430    0.9680   20.1330 C   0  0  0  0  0  0  0  0  0  0  0  0
    4.4270    1.1340   21.4450 C   0  0  0  0  0  0  0  0  0  0  0  0
    6.3950    0.7190   17.6450 N   0  0  0  0  0  0  0  0  0  0  0  0
    4.6420    1.6270   19.0120 C   0  0  0  0  0  0  0  0  0  0  0  0
   10.0780   -0.5690   22.9500 C   0  0  0  0  0  0  0  0  0  0  0  0
    5.3030    1.4650   17.8240 C   0  0  0  0  0  0  0  0  0  0  0  0
   10.5130    0.3820   23.8940 C   0  0  0  0  0  0  0  0  0  0  0  0
   11.0300   -1.1720   22.1600 C   0  0  0  0  0  0  0  0  0  0  0  0
   11.8260    0.6710   23.9840 C   0  0  0  0  0  0  0  0  0  0  0  0
   12.3520   -0.9130   22.2170 C   0  0  0  0  0  0  0  0  0  0  0  0
   13.3970   -1.6920   21.1800 Cl  0  0  0  0  0  0  0  0  0  0  0  0
   12.8080    0.0040   23.1150 C   0  0  0  0  0  0  0  0  0  0  0  0
  1  2  2  0
  2  3  1  0
  4  2  1  0
  4  5  1  1
  4  6  1  0
  4  7  1  0
  5  8  1  0
  6  9  2  0
  6 10  1  0
  7 11  1  6
  7 12  1  0
  8 13  1  0
  9 14  1  0
 10 15  2  0
 12 16  1  0
 11 17  2  0
 16 17  1  0
 16 18  1  0
 16 19  1  0
 13 20  1  0
 14 21  2  0
 15 21  1  0
 20 22  1  0
 20 23  1  0
 22 24  2  0
 22 25  1  0
 23 26  2  0
 23 27  1  0
 27 28  1  0
 26 29  1  0
 27 30  2  0
 25 31  1  0
 29 32  2  0
 30 32  1  0
 31 33  2  0
 31 34  1  0
 33 35  1  0
 34 36  2  0
 36 37  1  0
 35 38  2  0
 36 38  1  0
M  END
