x2643-x1412
     RDKit          3D

 32 35  0  0  0  0  0  0  0  0999 V2000
    7.3990   -3.0330   18.8480 C   0  0  0  0  0  0  0  0  0  0  0  0
    6.3790   -3.4050   19.9170 C   0  0  0  0  0  0  0  0  0  0  0  0
    5.3410   -4.0030   19.6340 O   0  0  0  0  0  0  0  0  0  0  0  0
    6.6620   -3.1420   21.2370 N   0  0  0  0  0  0  0  0  0  0  0  0
    6.6000   -1.8320   21.7150 C   0  0  2  0  0  0  0  0  0  0  0  0
    6.6270   -4.1060   22.1570 C   0  0  0  0  0  0  0  0  0  0  0  0
    7.1730   -0.9520   20.8260 N   0  0  0  0  0  0  0  0  0  0  0  0
    6.9220   -1.7290   23.0700 C   0  0  0  0  0  0  0  0  0  0  0  0
    7.6080   -4.0760   23.1340 C   0  0  0  0  0  0  0  0  0  0  0  0
    8.4760   -0.5540   21.1010 C   0  0  0  0  0  0  0  0  0  0  0  0
    7.8380   -2.7860   23.6130 N   0  0  0  0  0  0  0  0  0  0  0  0
    6.3940   -0.1350   19.8770 C   0  0  0  0  0  0  0  0  0  0  0  0
    8.2800   -2.7050   24.9450 C   0  0  0  0  0  0  0  0  0  0  0  0
    8.7930    0.6050   21.3550 O   0  0  0  0  0  0  0  0  0  0  0  0
    6.8900    0.1120   18.6130 C   0  0  0  0  0  0  0  0  0  0  0  0
    5.1580    0.4020   20.2450 C   0  0  0  0  0  0  0  0  0  0  0  0
    8.5840   -1.7450   25.5360 N   0  0  0  0  0  0  0  0  0  0  0  0
    8.4830   -3.9010   25.8090 C   0  0  0  0  0  0  0  0  0  0  0  0
    6.3360    0.8390   17.6260 N   0  0  0  0  0  0  0  0  0  0  0  0
    4.4250    1.2520   19.1950 C   0  0  0  0  0  0  0  0  0  0  0  0
    9.2960   -5.0130   25.4840 C   0  0  0  0  0  0  0  0  0  0  0  0
    7.7170   -4.0250   27.3650 S   0  0  0  0  0  0  0  0  0  0  0  0
    5.1560    1.4010   17.8730 C   0  0  0  0  0  0  0  0  0  0  0  0
    8.6260   -0.3910   25.0390 C   0  0  0  0  0  0  0  0  0  0  0  0
    8.5340   -5.5780   27.5100 C   0  0  0  0  0  0  0  0  0  0  0  0
    9.3310   -6.0110   26.4920 C   0  0  0  0  0  0  0  0  0  0  0  0
    9.8210   -0.4030   24.1370 C   0  0  0  0  0  0  0  0  0  0  0  0
   10.7980    0.5390   24.1910 C   0  0  0  0  0  0  0  0  0  0  0  0
   10.0560   -1.3910   23.1650 C   0  0  0  0  0  0  0  0  0  0  0  0
   11.7950    0.2440   23.2470 C   0  0  0  0  0  0  0  0  0  0  0  0
   11.5190   -1.1540   22.3190 S   0  0  0  0  0  0  0  0  0  0  0  0
   13.1810    1.1050   22.9550 Cl  0  0  0  0  0  0  0  0  0  0  0  0
  1  2  1  0
  2  3  2  0
  2  4  1  0
  4  5  1  0
  4  6  1  0
  5  7  1  6
  5  8  1  0
  6  9  1  0
  7 10  1  0
  8 11  1  0
  9 11  1  0
  7 12  1  0
 11 13  1  0
 10 14  2  0
 12 15  2  0
 12 16  1  0
 13 17  2  3
 13 18  1  0
 15 19  1  0
 16 20  2  0
 18 21  2  0
 18 22  1  0
 19 23  2  0
 20 23  1  0
 17 24  1  0
 22 25  1  0
 21 26  1  0
 25 26  2  0
 24 27  1  0
 27 28  1  0
 27 29  2  0
 28 30  2  0
 29 31  1  0
 30 31  1  0
 30 32  1  0
M  END
