x2649-x0705
     RDKit          3D

 36 39  0  0  0  0  0  0  0  0999 V2000
    7.5410   -0.8000   20.4850 N   0  0  0  0  0  0  0  0  0  0  0  0
    8.2400   -0.3810   21.4190 C   0  0  0  0  0  0  0  0  0  0  0  0
    8.7350    0.7260   21.6480 O   0  0  0  0  0  0  0  0  0  0  0  0
    6.6000    0.0930   19.8000 C   0  0  0  0  0  0  0  0  0  0  0  0
    8.5260   -1.4420   22.4470 C   0  0  1  0  0  0  0  0  0  0  0  0
    5.5680    0.9080   20.3030 C   0  0  0  0  0  0  0  0  0  0  0  0
    6.8460    0.0500   18.5060 C   0  0  0  0  0  0  0  0  0  0  0  0
    5.1950    1.0430   21.7520 C   0  0  0  0  0  0  0  0  0  0  0  0
    6.1040    0.8100   17.5120 N   0  0  0  0  0  0  0  0  0  0  0  0
    4.8370    1.6540   19.3760 C   0  0  0  0  0  0  0  0  0  0  0  0
    9.9380   -1.0570   22.8690 C   0  0  0  0  0  0  0  0  0  0  0  0
    7.2210   -1.5400   23.3130 C   0  0  2  0  0  0  0  0  0  0  0  0
    5.1300    1.5830   18.0110 C   0  0  0  0  0  0  0  0  0  0  0  0
   10.4030   -0.2080   23.8910 C   0  0  0  0  0  0  0  0  0  0  0  0
   10.9190   -1.5970   22.1130 C   0  0  0  0  0  0  0  0  0  0  0  0
    7.1330   -2.4990   24.4400 N   0  0  0  0  0  0  0  0  0  0  0  0
    6.1210   -1.7920   22.4690 C   0  0  0  0  0  0  0  0  0  0  0  0
    6.7690   -1.9330   25.6030 C   0  0  0  0  0  0  0  0  0  0  0  0
   11.7770    0.0470   24.0830 C   0  0  0  0  0  0  0  0  0  0  0  0
   12.2360   -1.3660   22.2800 C   0  0  0  0  0  0  0  0  0  0  0  0
    6.1610   -3.1480   21.8640 N   0  0  0  0  0  0  0  0  0  0  0  0
    6.3150   -3.6920   24.1000 C   0  0  0  0  0  0  0  0  0  0  0  0
   13.2500   -2.1560   21.1880 Cl  0  0  0  0  0  0  0  0  0  0  0  0
    7.5310   -1.2290   26.2480 O   0  0  0  0  0  0  0  0  0  0  0  0
    6.3190   -3.5040   20.4970 C   0  0  0  0  0  0  0  0  0  0  0  0
   12.6990   -0.5230   23.2870 C   0  0  0  0  0  0  0  0  0  0  0  0
    5.3830   -2.1330   26.1240 C   0  0  0  0  0  0  0  0  0  0  0  0
    6.6050   -4.1510   22.8200 C   0  0  0  0  0  0  0  0  0  0  0  0
    5.4110   -3.7140   19.6490 O   0  0  0  0  0  0  0  0  0  0  0  0
    7.6850   -3.7810   20.0070 C   0  0  0  0  0  0  0  0  0  0  0  0
    4.3190   -1.3790   25.5990 C   0  0  0  0  0  0  0  0  0  0  0  0
    5.0650   -3.0880   27.1750 C   0  0  0  0  0  0  0  0  0  0  0  0
    3.0060   -1.5100   26.0420 C   0  0  0  0  0  0  0  0  0  0  0  0
    3.7790   -3.1820   27.5740 C   0  0  0  0  0  0  0  0  0  0  0  0
    2.7300   -2.4150   27.0360 C   0  0  0  0  0  0  0  0  0  0  0  0
    1.3220   -2.5930   27.5550 C   0  0  0  0  0  0  0  0  0  0  0  0
  1  2  1  0
  2  3  2  0
  1  4  1  0
  5  2  1  6
  4  6  2  0
  4  7  1  0
  6  8  1  0
  7  9  2  0
  6 10  1  0
  5 11  1  0
  5 12  1  0
  9 13  1  0
 10 13  2  0
 11 14  2  0
 11 15  1  0
 12 16  1  0
 12 17  1  6
 16 18  1  0
 14 19  1  0
 15 20  2  0
 17 21  1  0
 16 22  1  0
 20 23  1  0
 18 24  2  0
 21 25  1  0
 19 26  2  0
 20 26  1  0
 18 27  1  0
 21 28  1  0
 22 28  1  0
 25 29  2  0
 25 30  1  0
 27 31  2  0
 27 32  1  0
 31 33  1  0
 32 34  2  0
 33 35  2  0
 34 35  1  0
 35 36  1  0
M  END
