x2646-x0981
     RDKit          3D

 36 37  0  0  0  0  0  0  0  0999 V2000
    1.2490   -8.6930   21.4110 C   0  0  0  0  0  0  0  0  0  0  0  0
    1.3940   -7.3610   22.1780 C   0  0  0  0  0  0  0  0  0  0  0  0
    2.6530   -7.0970   22.6960 N   0  0  0  0  0  0  0  0  0  0  0  0
    0.4490   -6.5850   22.2940 O   0  0  0  0  0  0  0  0  0  0  0  0
    2.8850   -5.9430   23.5470 C   0  0  1  0  0  0  0  0  0  0  0  0
    2.6500   -6.3160   25.0080 C   0  0  0  0  0  0  0  0  0  0  0  0
    4.3460   -5.4120   23.4340 C   0  0  0  0  0  0  0  0  0  0  0  0
    5.1210   -5.7080   22.2340 N   0  0  0  0  0  0  0  0  0  0  0  0
    4.8860   -4.6640   24.4290 O   0  0  0  0  0  0  0  0  0  0  0  0
    3.0560   -7.7380   25.3510 C   0  0  0  0  0  0  0  0  0  0  0  0
    2.3670   -8.3870   26.4910 N   0  0  0  0  0  0  0  0  0  0  0  0
    3.9220   -8.2320   24.6590 O   0  0  0  0  0  0  0  0  0  0  0  0
    6.0220   -4.6780   21.6880 C   0  0  1  0  0  0  0  0  0  0  0  0
    6.3610   -5.0010   20.2530 C   0  0  0  0  0  0  0  0  0  0  0  0
    5.3210   -3.3150   21.7710 C   0  0  0  0  0  0  0  0  0  0  0  0
    5.7280   -6.2640   19.7520 C   0  0  0  0  0  0  0  0  0  0  0  0
    6.2420   -2.2960   22.4280 C   0  0  0  0  0  0  0  0  0  0  0  0
    5.9860   -0.9750   22.0740 C   0  0  0  0  0  0  0  0  0  0  0  0
    6.8700   -0.4290   21.2030 N   0  0  0  0  0  0  0  0  0  0  0  0
    8.1100   -0.0120   21.6880 C   0  0  0  0  0  0  0  0  0  0  0  0
    6.3260    0.1820   20.1430 C   0  0  0  0  0  0  0  0  0  0  0  0
    8.6500    1.0230   21.2760 O   0  0  0  0  0  0  0  0  0  0  0  0
    8.7160   -0.7990   22.6570 C   0  0  0  0  0  0  0  0  0  0  0  0
    6.8410   -0.1030   18.8920 C   0  0  0  0  0  0  0  0  0  0  0  0
    5.2590    1.1060   20.2300 C   0  0  0  0  0  0  0  0  0  0  0  0
    4.5870    1.5320   21.5050 C   0  0  0  0  0  0  0  0  0  0  0  0
    6.3240    0.5190   17.6620 N   0  0  0  0  0  0  0  0  0  0  0  0
    4.7560    1.6980   19.0680 C   0  0  0  0  0  0  0  0  0  0  0  0
   10.1870   -0.6030   22.6720 C   0  0  0  0  0  0  0  0  0  0  0  0
    5.3150    1.3740   17.8500 C   0  0  0  0  0  0  0  0  0  0  0  0
   10.7490    0.4890   23.2480 C   0  0  0  0  0  0  0  0  0  0  0  0
   10.9760   -1.5520   22.0790 C   0  0  0  0  0  0  0  0  0  0  0  0
   12.1230    0.6880   23.2720 C   0  0  0  0  0  0  0  0  0  0  0  0
   12.3190   -1.3780   22.0820 C   0  0  0  0  0  0  0  0  0  0  0  0
   13.1920   -2.5830   21.3040 Cl  0  0  0  0  0  0  0  0  0  0  0  0
   12.9230   -0.2760   22.6730 C   0  0  0  0  0  0  0  0  0  0  0  0
  1  2  1  0
  2  3  1  0
  2  4  2  0
  3  5  1  0
  5  6  1  1
  5  7  1  0
  7  8  1  0
  7  9  2  0
  6 10  1  0
 10 11  1  0
 10 12  2  0
  8 13  1  0
 13 14  1  6
 13 15  1  0
 14 16  2  3
 15 17  1  0
 17 18  1  0
 18 19  1  0
 19 20  1  0
 19 21  1  0
 20 22  2  0
 20 23  1  0
 21 24  2  0
 21 25  1  0
 25 26  1  0
 24 27  1  0
 25 28  2  0
 23 29  1  0
 27 30  2  0
 28 30  1  0
 29 31  2  0
 29 32  1  0
 31 33  1  0
 32 34  2  0
 34 35  1  0
 33 36  2  0
 34 36  1  0
M  END
