x2643-x0705
     RDKit          3D

 34 37  0  0  0  0  0  0  0  0999 V2000
    1.3220   -2.6330   27.7550 C   0  0  0  0  0  0  0  0  0  0  0  0
    2.6690   -2.4330   27.1490 C   0  0  0  0  0  0  0  0  0  0  0  0
    3.7380   -3.2860   27.4450 C   0  0  0  0  0  0  0  0  0  0  0  0
    2.8440   -1.3680   26.2750 C   0  0  0  0  0  0  0  0  0  0  0  0
    4.0740   -1.1390   25.6900 C   0  0  0  0  0  0  0  0  0  0  0  0
    4.9980   -3.0730   26.8600 C   0  0  0  0  0  0  0  0  0  0  0  0
    5.1450   -1.9890   25.9790 C   0  0  0  0  0  0  0  0  0  0  0  0
    6.4420   -1.7230   25.3450 C   0  0  0  0  0  0  0  0  0  0  0  0
    7.3180   -1.3840   26.1280 O   0  0  0  0  0  0  0  0  0  0  0  0
    6.6740   -1.8490   23.9550 N   0  0  0  0  0  0  0  0  0  0  0  0
    5.4840   -1.9450   23.1680 C   0  0  0  0  0  0  0  0  0  0  0  0
    7.7950   -2.3780   23.4050 C   0  0  2  0  0  0  0  0  0  0  0  0
    8.5480   -1.5810   22.3160 C   0  0  1  0  0  0  0  0  0  0  0  0
    5.2290   -3.1730   22.5520 C   0  0  0  0  0  0  0  0  0  0  0  0
    7.5510   -3.7260   22.8050 C   0  0  0  0  0  0  0  0  0  0  0  0
    7.8950   -0.5730   21.6380 C   0  0  0  0  0  0  0  0  0  0  0  0
    6.4120   -3.6580   21.8970 N   0  0  0  0  0  0  0  0  0  0  0  0
    9.6410   -0.8170   22.9040 C   0  0  0  0  0  0  0  0  0  0  0  0
    6.4110   -3.7920   20.4980 C   0  0  0  0  0  0  0  0  0  0  0  0
    6.7980   -0.8790   20.8110 N   0  0  0  0  0  0  0  0  0  0  0  0
    8.2680    0.6030   21.6770 O   0  0  0  0  0  0  0  0  0  0  0  0
    9.6790    0.1350   23.8890 C   0  0  0  0  0  0  0  0  0  0  0  0
   11.1660   -1.1160   22.2430 S   0  0  0  0  0  0  0  0  0  0  0  0
    5.4080   -4.0040   19.7860 O   0  0  0  0  0  0  0  0  0  0  0  0
    7.7250   -3.7820   19.8130 C   0  0  0  0  0  0  0  0  0  0  0  0
   11.8180    0.0490   23.2400 C   0  0  0  0  0  0  0  0  0  0  0  0
   10.9610    0.6610   24.0950 C   0  0  0  0  0  0  0  0  0  0  0  0
    6.1340   -0.0660   19.8330 C   0  0  0  0  0  0  0  0  0  0  0  0
   13.4360    0.3000   23.0280 Cl  0  0  0  0  0  0  0  0  0  0  0  0
    6.7760    0.0770   18.6270 C   0  0  0  0  0  0  0  0  0  0  0  0
    4.9300    0.5730   20.0200 C   0  0  0  0  0  0  0  0  0  0  0  0
    6.3350    0.8040   17.5920 N   0  0  0  0  0  0  0  0  0  0  0  0
    4.4370    1.3430   18.9600 C   0  0  0  0  0  0  0  0  0  0  0  0
    5.1660    1.4310   17.7820 C   0  0  0  0  0  0  0  0  0  0  0  0
  1  2  1  0
  2  3  2  0
  2  4  1  0
  4  5  2  0
  3  6  1  0
  5  7  1  0
  6  7  2  0
  7  8  1  0
  8  9  2  0
  8 10  1  0
 10 11  1  0
 10 12  1  0
 12 13  1  0
 11 14  1  0
 12 15  1  6
 13 16  1  1
 14 17  1  0
 15 17  1  0
 13 18  1  0
 17 19  1  0
 16 20  1  0
 16 21  2  0
 18 22  2  0
 18 23  1  0
 19 24  2  0
 19 25  1  0
 23 26  1  0
 22 27  1  0
 26 27  2  0
 20 28  1  0
 26 29  1  0
 28 30  2  0
 28 31  1  0
 30 32  1  0
 31 33  2  0
 32 34  2  0
 33 34  1  0
M  END
