x2649-x3110
     RDKit          3D

 36 37  0  0  0  0  0  0  0  0999 V2000
    7.8600    1.1870   23.2960 N   0  0  0  0  0  0  0  0  0  0  0  0
    8.7140    2.3280   23.5750 C   0  0  0  0  0  0  0  0  0  0  0  0
   10.2610    2.1050   23.5360 C   0  0  0  0  0  0  0  0  0  0  0  0
    7.7180    0.6200   21.9670 C   0  0  0  0  0  0  0  0  0  0  0  0
    8.4610    1.0490   21.0740 O   0  0  0  0  0  0  0  0  0  0  0  0
    6.6490   -0.4670   21.6140 C   0  0  2  0  0  0  0  0  0  0  0  0
    7.0530   -1.8050   21.6790 N   0  0  0  0  0  0  0  0  0  0  0  0
   11.1180    3.3590   23.3880 C   0  0  0  0  0  0  0  0  0  0  0  0
    6.2020    0.0730   20.2570 C   0  0  0  0  0  0  0  0  0  0  0  0
   11.9250    3.2670   22.4740 O   0  0  0  0  0  0  0  0  0  0  0  0
   11.0000    4.3470   24.1010 O   0  0  0  0  0  0  0  0  0  0  0  0
    6.2070   -3.0100   21.4610 C   0  0  0  0  0  0  0  0  0  0  0  0
    5.1740    1.0300   20.2120 C   0  0  0  0  0  0  0  0  0  0  0  0
    6.7910   -0.3390   19.0720 C   0  0  0  0  0  0  0  0  0  0  0  0
    8.2870   -1.8150   22.4210 C   0  0  0  0  0  0  0  0  0  0  0  0
   12.3720    4.5240   21.9470 C   0  0  0  0  0  0  0  0  0  0  0  0
    4.9400   -3.1120   21.0720 O   0  0  0  0  0  0  0  0  0  0  0  0
    6.8520   -4.3690   21.7390 C   0  0  0  0  0  0  0  0  0  0  0  0
    4.4670    1.5630   21.4200 C   0  0  0  0  0  0  0  0  0  0  0  0
    6.3770    0.1970   17.7710 N   0  0  0  0  0  0  0  0  0  0  0  0
    4.7050    1.5960   19.0290 C   0  0  0  0  0  0  0  0  0  0  0  0
    9.4840   -2.1400   21.7840 C   0  0  0  0  0  0  0  0  0  0  0  0
    8.3660   -1.4950   23.7740 C   0  0  0  0  0  0  0  0  0  0  0  0
   13.4000    5.1880   22.8510 C   0  0  0  0  0  0  0  0  0  0  0  0
    8.2040   -4.6300   21.0200 C   0  0  0  0  0  0  0  0  0  0  0  0
    7.1710   -1.1340   24.5960 C   0  0  0  0  0  0  0  0  0  0  0  0
    5.2760    1.2070   17.8470 C   0  0  0  0  0  0  0  0  0  0  0  0
   10.7960   -2.1680   22.3890 C   0  0  0  0  0  0  0  0  0  0  0  0
    9.5970   -1.4930   24.4110 C   0  0  0  0  0  0  0  0  0  0  0  0
   10.8500   -1.8420   23.6790 C   0  0  0  0  0  0  0  0  0  0  0  0
   12.2210   -1.8140   24.4030 C   0  0  0  0  0  0  0  0  0  0  0  0
   12.2590   -0.6880   25.1960 C   0  0  0  0  0  0  0  0  0  0  0  0
   13.3270   -1.6750   23.4090 C   0  0  0  0  0  0  0  0  0  0  0  0
   12.6740   -3.0530   25.1680 C   0  0  0  0  0  0  0  0  0  0  0  0
   13.1780   -0.7140   22.2870 C   0  0  0  0  0  0  0  0  0  0  0  0
   13.4390   -1.6410   20.9030 Cl  0  0  0  0  0  0  0  0  0  0  0  0
  1  2  1  0
  2  3  1  0
  1  4  1  0
  4  5  2  0
  6  4  1  6
  6  7  1  0
  3  8  1  0
  6  9  1  0
  8 10  1  0
  8 11  2  0
  7 12  1  0
  9 13  2  0
  9 14  1  0
  7 15  1  0
 10 16  1  0
 12 17  2  0
 12 18  1  0
 13 19  1  0
 14 20  2  0
 13 21  1  0
 15 22  2  0
 15 23  1  0
 16 24  1  0
 18 25  1  0
 23 26  1  0
 20 27  1  0
 21 27  2  0
 22 28  1  0
 23 29  2  0
 28 30  2  0
 29 30  1  0
 30 31  1  0
 31 32  1  0
 31 33  1  0
 31 34  1  0
 33 35  1  0
 35 36  1  0
M  END
