x2643-x3110-x1358-x0786
     RDKit          3D

 61 67  0  0  0  0  0  0  0  0999 V2000
    7.6780    1.4880   23.2510 N   0  0  0  0  0  0  0  0  0  0  0  0
    8.8320    2.2580   23.7750 C   0  0  0  0  0  0  0  0  0  0  0  0
    9.9930    2.6450   22.8860 C   0  0  0  0  0  0  0  0  0  0  0  0
    7.6730    1.0300   21.8500 C   0  0  0  0  0  0  0  0  0  0  0  0
    8.5520    1.6110   20.8890 O   0  0  0  0  0  0  0  0  0  0  0  0
    6.7640    0.0350   21.5830 C   0  0  2  0  0  0  0  0  0  0  0  0
    7.3080   -1.4030   21.4950 C   0  0  1  0  0  0  0  0  0  0  0  0
   10.8730    3.5210   23.3940 C   0  0  0  0  0  0  0  0  0  0  0  0
    6.1770    0.5810   20.2750 C   0  0  0  0  0  0  0  0  0  0  0  0
   12.0070    3.2840   23.0160 O   0  0  0  0  0  0  0  0  0  0  0  0
   10.5190    4.4290   24.1300 O   0  0  0  0  0  0  0  0  0  0  0  0
    4.8940    1.3090   20.1960 C   0  0  0  0  0  0  0  0  0  0  0  0
    6.8220    0.4150   19.1000 C   0  0  0  0  0  0  0  0  0  0  0  0
    8.5850   -1.5460   22.2310 C   0  0  0  0  0  0  0  0  0  0  0  0
    6.7280   -2.6980   22.2150 C   0  0  2  0  0  0  0  0  0  0  0  0
    6.8900   -1.8570   20.0120 C   0  0  0  0  0  0  0  0  0  0  0  0
   12.5540    4.2350   22.2150 C   0  0  0  0  0  0  0  0  0  0  0  0
    6.0870   -3.0970   20.2620 C   0  0  0  0  0  0  0  0  0  0  0  0
    6.4490    0.8230   17.8690 N   0  0  0  0  0  0  0  0  0  0  0  0
    4.4350    1.7900   18.8610 C   0  0  0  0  0  0  0  0  0  0  0  0
    9.7630   -2.0670   21.7660 C   0  0  0  0  0  0  0  0  0  0  0  0
    8.5320   -1.1070   23.5570 C   0  0  0  0  0  0  0  0  0  0  0  0
    6.8070   -3.9190   21.2040 C   0  0  1  0  0  0  0  0  0  0  0  0
    5.5100   -2.6080   22.7820 C   0  0  0  0  0  0  0  0  0  0  0  0
   13.7180    5.2350   22.4810 C   0  0  0  0  0  0  0  0  0  0  0  0
    4.9400   -3.4010   19.8740 O   0  0  0  0  0  0  0  0  0  0  0  0
    8.2610   -4.3850   20.8630 C   0  0  0  0  0  0  0  0  0  0  0  0
    5.1730    1.5600   17.7700 C   0  0  0  0  0  0  0  0  0  0  0  0
   10.9060   -2.1960   22.4000 C   0  0  0  0  0  0  0  0  0  0  0  0
    9.8640   -1.2500   24.3550 C   0  0  0  0  0  0  0  0  0  0  0  0
    5.4740   -3.9180   23.5060 C   0  0  2  0  0  0  0  0  0  0  0  0
    5.9570   -5.1240   21.5560 C   0  0  0  0  0  0  0  0  0  0  0  0
   11.0380   -1.8180   23.6460 C   0  0  0  0  0  0  0  0  0  0  0  0
    4.9400   -4.8380   22.6340 C   0  0  1  0  0  0  0  0  0  0  0  0
    4.9770   -3.7960   24.7700 C   0  0  2  0  0  0  0  0  0  0  0  0
   12.3760   -1.9260   24.3430 C   0  0  0  0  0  0  0  0  0  0  0  0
    6.2220   -3.1940   25.4600 C   0  0  0  0  0  0  0  0  0  0  0  0
    4.7030   -6.1620   23.2410 C   0  0  0  0  0  0  0  0  0  0  0  0
    4.5560   -5.0620   25.2670 C   0  0  0  0  0  0  0  0  0  0  0  0
   12.3820   -0.6930   24.9750 C   0  0  0  0  0  0  0  0  0  0  0  0
   13.4630   -1.8970   23.2740 C   0  0  0  0  0  0  0  0  0  0  0  0
   12.6960   -2.9990   25.0370 C   0  0  0  0  0  0  0  0  0  0  0  0
    6.0870   -3.0430   26.8730 N   0  0  0  0  0  0  0  0  0  0  0  0
    3.9450   -5.7870   24.2970 C   0  0  2  0  0  0  0  0  0  0  0  0
    3.1080   -7.0180   24.5950 C   0  0  0  0  0  0  0  0  0  0  0  0
    6.3070   -1.7600   27.4090 C   0  0  0  0  0  0  0  0  0  0  0  0
   12.0020    0.4780   24.0540 C   0  0  0  0  0  0  0  0  0  0  0  0
    3.6300   -8.0000   25.1030 O   0  0  0  0  0  0  0  0  0  0  0  0
    1.8470   -6.9240   24.2010 N   0  0  0  0  0  0  0  0  0  0  0  0
    5.8050   -0.5720   26.8120 C   0  0  0  0  0  0  0  0  0  0  0  0
    7.1060   -1.5550   28.6980 C   0  0  0  0  0  0  0  0  0  0  0  0
   13.1860    0.7630   22.8130 Cl  0  0  0  0  0  0  0  0  0  0  0  0
    5.0800   -0.6500   25.6480 O   0  0  0  0  0  0  0  0  0  0  0  0
    1.2590   -5.8580   23.3650 C   0  0  0  0  0  0  0  0  0  0  0  0
    0.9310   -8.0570   24.4180 C   0  0  0  0  0  0  0  0  0  0  0  0
    7.2790   -0.2830   29.1920 C   0  0  0  0  0  0  0  0  0  0  0  0
    6.0420    0.6820   27.4050 C   0  0  0  0  0  0  0  0  0  0  0  0
    0.2870   -5.1340   24.1130 C   0  0  0  0  0  0  0  0  0  0  0  0
   -0.1420   -7.6220   25.2070 C   0  0  0  0  0  0  0  0  0  0  0  0
    6.7590    0.8220   28.5710 C   0  0  0  0  0  0  0  0  0  0  0  0
   -1.0750   -6.3090   24.3450 S   0  0  0  0  0  0  0  0  0  0  0  0
  1  2  1  0
  2  3  1  0
  1  4  1  0
  4  5  2  0
  6  4  1  6
  6  7  1  0
  3  8  1  0
  6  9  1  0
  8 10  1  0
  8 11  2  0
  9 12  2  0
  9 13  1  0
  7 14  1  6
  7 15  1  0
  7 16  1  0
 10 17  1  0
 16 18  1  0
 13 19  2  0
 12 20  1  0
 14 21  2  0
 14 22  1  0
 15 23  1  0
 18 23  1  0
 15 24  1  6
 17 25  1  0
 18 26  2  0
 23 27  1  6
 19 28  1  0
 20 28  2  0
 21 29  1  0
 22 30  2  0
 31 24  1  6
 23 32  1  0
 29 33  2  0
 30 33  1  0
 31 34  1  0
 34 32  1  6
 31 35  1  0
 33 36  1  0
 35 37  1  1
 34 38  1  0
 35 39  1  0
 36 40  1  0
 36 41  1  0
 36 42  1  0
 37 43  1  0
 38 44  1  0
 39 44  1  0
 44 45  1  1
 43 46  1  0
 40 47  1  0
 45 48  2  0
 45 49  1  0
 46 50  2  0
 46 51  1  0
 47 52  1  0
 50 53  1  0
 49 54  1  0
 49 55  1  0
 51 56  2  0
 50 57  1  0
 54 58  1  0
 55 59  1  0
 56 60  1  0
 57 60  2  0
 58 61  1  0
 59 61  1  0
M  END
