x2649-x2694-x0978-x0387-x0426
     RDKit          3D

 65 70  0  0  0  0  0  0  0  0999 V2000
    7.0640   -1.2610   21.5970 N   0  0  0  0  0  0  0  0  0  0  0  0
    6.1810   -2.5730   21.5580 C   0  0  0  0  0  0  0  0  0  0  0  0
    4.8910   -2.9840   21.0820 O   0  0  0  0  0  0  0  0  0  0  0  0
    6.6090    0.1200   21.6520 C   0  0  1  0  0  0  0  0  0  0  0  0
    8.3940   -1.4270   22.1510 C   0  0  2  0  0  0  0  0  0  0  0  0
    6.9650   -3.7210   22.1920 C   0  0  0  0  0  0  0  0  0  0  0  0
    7.6690    1.1420   21.6990 C   0  0  0  0  0  0  0  0  0  0  0  0
    5.9670    0.6460   20.3440 C   0  0  0  0  0  0  0  0  0  0  0  0
    8.3400   -1.4290   23.6200 N   0  0  0  0  0  0  0  0  0  0  0  0
    9.6580   -0.7820   22.0530 C   0  0  0  0  0  0  0  0  0  0  0  0
    7.0100   -4.9020   21.2310 C   0  0  0  0  0  0  0  0  0  0  0  0
    7.5890    2.2450   22.7260 N   0  0  0  0  0  0  0  0  0  0  0  0
    8.5080    1.0760   20.8250 O   0  0  0  0  0  0  0  0  0  0  0  0
    4.7250    1.3440   20.3270 C   0  0  0  0  0  0  0  0  0  0  0  0
    6.7290    0.3920   19.1840 C   0  0  0  0  0  0  0  0  0  0  0  0
    9.5830   -1.7360   24.0610 C   0  0  2  0  0  0  0  0  0  0  0  0
   10.4780   -1.2840   23.0750 C   0  0  2  0  0  0  0  0  0  0  0  0
    5.5930   -5.5200   21.3090 N   0  0  0  0  0  0  0  0  0  0  0  0
    3.8780    1.5660   21.5020 C   0  0  1  0  0  0  0  0  0  0  0  0
    6.3670    0.8000   17.9370 N   0  0  0  0  0  0  0  0  0  0  0  0
    4.2880    1.8080   19.0870 C   0  0  0  0  0  0  0  0  0  0  0  0
    8.4580    3.4070   22.8480 C   0  0  0  0  0  0  0  0  0  0  0  0
    9.4030   -3.0590   24.6060 N   0  0  0  0  0  0  0  0  0  0  0  0
   11.6750   -0.3740   23.5580 C   0  0  1  0  0  0  0  0  0  0  0  0
   11.2170   -2.2890   22.2500 C   0  0  0  0  0  0  0  0  0  0  0  0
   12.2750   -0.8610   24.8590 C   0  0  0  0  0  0  0  0  0  0  0  0
    4.6850   -5.3110   22.4020 C   0  0  0  0  0  0  0  0  0  0  0  0
    3.7740    2.6980   22.2710 N   0  0  0  0  0  0  0  0  0  0  0  0
    2.5000    1.5050   20.9790 C   0  0  0  0  0  0  0  0  0  0  0  0
    5.1110    1.5630   17.7790 C   0  0  0  0  0  0  0  0  0  0  0  0
    9.8350    3.2210   23.0330 C   0  0  0  0  0  0  0  0  0  0  0  0
    8.0170    4.7290   22.8110 C   0  0  0  0  0  0  0  0  0  0  0  0
    8.1700   -3.3000   25.3430 C   0  0  0  0  0  0  0  0  0  0  0  0
   10.6140   -3.5980   25.2140 C   0  0  0  0  0  0  0  0  0  0  0  0
   12.8290   -1.8350   21.7020 S   0  0  0  0  0  0  0  0  0  0  0  0
   12.8390   -0.3990   22.6460 C   0  0  0  0  0  0  0  0  0  0  0  0
   10.4000    1.9410   23.1030 C   0  0  0  0  0  0  0  0  0  0  0  0
   13.0480   -2.0130   24.6940 C   0  0  0  0  0  0  0  0  0  0  0  0
    3.5370   -6.3330   22.8810 C   0  0  2  0  0  0  0  0  0  0  0  0
    4.7200   -4.2550   23.0220 O   0  0  0  0  0  0  0  0  0  0  0  0
    2.9800    2.2340   23.4940 C   0  0  0  0  0  0  0  0  0  0  0  0
   10.8560    4.3960   23.2120 C   0  0  0  0  0  0  0  0  0  0  0  0
    8.8400    5.8510   22.9660 C   0  0  0  0  0  0  0  0  0  0  0  0
    8.0810   -4.5790   25.7140 C   0  0  0  0  0  0  0  0  0  0  0  0
   10.4400   -4.8870   26.0140 C   0  0  0  0  0  0  0  0  0  0  0  0
    2.3880   -5.5970   22.9660 N   0  0  0  0  0  0  0  0  0  0  0  0
    3.7320   -7.0480   24.2340 C   0  0  1  0  0  0  0  0  0  0  0  0
    3.3060    1.2180   24.0910 O   0  0  0  0  0  0  0  0  0  0  0  0
   10.2350    5.8200   23.1780 C   0  0  0  0  0  0  0  0  0  0  0  0
    1.7650    2.9150   24.1210 C   0  0  0  0  0  0  0  0  0  0  0  0
    9.0700   -5.0610   26.6260 C   0  0  0  0  0  0  0  0  0  0  0  0
   10.9020    7.0010   23.3400 O   0  0  0  0  0  0  0  0  0  0  0  0
    2.6110   -7.7810   24.6830 C   0  0  0  0  0  0  0  0  0  0  0  0
    4.6560   -7.8330   24.1580 O   0  0  0  0  0  0  0  0  0  0  0  0
    1.1940   -6.3090   22.5940 C   0  0  0  0  0  0  0  0  0  0  0  0
    9.0060   -4.3490   27.8580 O   0  0  0  0  0  0  0  0  0  0  0  0
    1.8910    3.9280   25.1060 C   0  0  0  0  0  0  0  0  0  0  0  0
    0.4730    2.5300   23.7540 C   0  0  0  0  0  0  0  0  0  0  0  0
   11.9390    7.0130   24.3270 C   0  0  0  0  0  0  0  0  0  0  0  0
    1.2050   -7.4030   22.0470 O   0  0  0  0  0  0  0  0  0  0  0  0
   -0.0270   -5.6830   22.8760 C   0  0  0  0  0  0  0  0  0  0  0  0
    3.1060    4.3340   25.4930 F   0  0  0  0  0  0  0  0  0  0  0  0
   -0.7060    3.2160   24.4460 C   0  0  0  0  0  0  0  0  0  0  0  0
    0.7930    4.5580   25.7360 C   0  0  0  0  0  0  0  0  0  0  0  0
   -0.5230    4.1960   25.4050 C   0  0  0  0  0  0  0  0  0  0  0  0
  1  2  1  0
  2  3  2  0
  1  4  1  0
  5  1  1  6
  2  6  1  0
  4  7  1  6
  4  8  1  0
  5  9  1  0
  5 10  1  0
  6 11  1  0
  7 12  1  0
  7 13  2  0
  8 14  1  0
  8 15  2  0
  9 16  1  0
 17 10  1  6
 16 17  1  0
 11 18  1  0
 14 19  1  0
 15 20  1  0
 14 21  2  0
 12 22  1  0
 16 23  1  6
 17 24  1  0
 17 25  1  0
 24 26  1  1
 18 27  1  0
 19 28  1  0
 19 29  1  6
 20 30  2  0
 21 30  1  0
 22 31  2  0
 22 32  1  0
 23 33  1  0
 23 34  1  0
 25 35  2  0
 24 36  1  0
 35 36  2  0
 31 37  1  0
 26 38  1  0
 27 39  1  0
 27 40  2  0
 28 41  1  0
 31 42  1  0
 32 43  2  0
 33 44  1  0
 34 45  1  0
 39 46  1  1
 39 47  1  0
 41 48  2  0
 42 49  2  0
 43 49  1  0
 41 50  1  0
 44 51  1  0
 45 51  1  0
 49 52  1  0
 47 53  1  6
 47 54  1  0
 46 55  1  0
 51 56  1  0
 50 57  2  0
 50 58  1  0
 52 59  1  0
 55 60  2  0
 55 61  1  0
 57 62  1  0
 58 63  2  0
 57 64  1  0
 63 65  1  0
 64 65  2  0
M  END
