x2649-x3117
     RDKit          3D

 34 36  0  0  0  0  0  0  0  0999 V2000
    6.9010   -1.5940   21.8830 N   0  0  0  0  0  0  0  0  0  0  0  0
    6.0690   -2.8220   21.6140 C   0  0  0  0  0  0  0  0  0  0  0  0
    4.8020   -2.9890   21.2510 O   0  0  0  0  0  0  0  0  0  0  0  0
    6.5790   -0.1540   21.5920 C   0  0  1  0  0  0  0  0  0  0  0  0
    8.2190   -1.6830   22.5120 C   0  0  0  0  0  0  0  0  0  0  0  0
    6.7670   -4.1440   21.7720 C   0  0  0  0  0  0  0  0  0  0  0  0
    7.7330    0.9140   21.8260 C   0  0  0  0  0  0  0  0  0  0  0  0
    6.0450    0.2820   20.2470 C   0  0  0  0  0  0  0  0  0  0  0  0
    9.2860   -2.1710   21.8250 C   0  0  0  0  0  0  0  0  0  0  0  0
    8.4350   -1.2610   23.8040 C   0  0  0  0  0  0  0  0  0  0  0  0
    6.6640   -4.8890   20.4390 C   0  0  0  0  0  0  0  0  0  0  0  0
    7.7210    1.7270   23.0960 N   0  0  0  0  0  0  0  0  0  0  0  0
    8.6150    1.1550   20.9920 O   0  0  0  0  0  0  0  0  0  0  0  0
    4.8860    1.0260   20.1660 C   0  0  0  0  0  0  0  0  0  0  0  0
    6.7020   -0.0250   19.1290 C   0  0  0  0  0  0  0  0  0  0  0  0
   10.6810   -2.2600   22.4120 C   0  0  0  0  0  0  0  0  0  0  0  0
    9.7850   -1.3140   24.4300 C   0  0  0  0  0  0  0  0  0  0  0  0
    4.0590    1.4260   21.3490 C   0  0  0  0  0  0  0  0  0  0  0  0
    6.2790    0.3950   17.8060 N   0  0  0  0  0  0  0  0  0  0  0  0
    4.4490    1.4470   18.9230 C   0  0  0  0  0  0  0  0  0  0  0  0
    8.3090    2.9220   23.4430 C   0  0  0  0  0  0  0  0  0  0  0  0
   10.9000   -1.7920   23.7650 C   0  0  0  0  0  0  0  0  0  0  0  0
   12.2930   -1.8050   24.4210 C   0  0  0  0  0  0  0  0  0  0  0  0
    5.1610    1.1250   17.7790 C   0  0  0  0  0  0  0  0  0  0  0  0
    9.6580    2.6710   23.6440 C   0  0  0  0  0  0  0  0  0  0  0  0
    8.0430    4.0950   22.6940 C   0  0  0  0  0  0  0  0  0  0  0  0
   12.3730   -0.5890   25.2830 C   0  0  0  0  0  0  0  0  0  0  0  0
   13.3710   -1.5260   23.4160 C   0  0  0  0  0  0  0  0  0  0  0  0
   12.7600   -3.0360   25.1750 C   0  0  0  0  0  0  0  0  0  0  0  0
   10.4800    3.7820   23.5660 C   0  0  0  0  0  0  0  0  0  0  0  0
    8.6830    5.2680   23.1950 C   0  0  0  0  0  0  0  0  0  0  0  0
    9.8160    4.9580   24.0210 O   0  0  0  0  0  0  0  0  0  0  0  0
   13.0430   -0.8330   22.1520 C   0  0  0  0  0  0  0  0  0  0  0  0
   13.2510   -1.9900   20.9390 Cl  0  0  0  0  0  0  0  0  0  0  0  0
  1  2  1  0
  2  3  2  0
  1  4  1  0
  1  5  1  0
  2  6  1  0
  4  7  1  6
  4  8  1  0
  5  9  2  0
  5 10  1  0
  6 11  1  0
  7 12  1  0
  7 13  2  0
  8 14  2  0
  8 15  1  0
  9 16  1  0
 10 17  2  0
 14 18  1  0
 15 19  2  0
 14 20  1  0
 12 21  1  0
 16 22  2  0
 17 22  1  0
 22 23  1  0
 19 24  1  0
 20 24  2  0
 21 25  1  0
 21 26  1  0
 23 27  1  0
 23 28  1  0
 23 29  1  0
 25 30  1  0
 26 31  1  0
 30 32  1  0
 31 32  1  0
 28 33  1  0
 33 34  1  0
M  END
