x2643-x2694
     RDKit          3D

 33 35  0  0  0  0  0  0  0  0999 V2000
    7.0740   -1.2740   21.7720 N   0  0  0  0  0  0  0  0  0  0  0  0
    5.8550   -2.1810   21.5230 C   0  0  0  0  0  0  0  0  0  0  0  0
    4.9660   -3.2040   21.2710 O   0  0  0  0  0  0  0  0  0  0  0  0
    6.7950    0.1290   21.5770 C   0  0  1  0  0  0  0  0  0  0  0  0
    8.3240   -1.4770   22.5240 C   0  0  0  0  0  0  0  0  0  0  0  0
    6.8360   -3.3380   21.3590 C   0  0  0  0  0  0  0  0  0  0  0  0
    7.9400    1.2250   21.8680 C   0  0  0  0  0  0  0  0  0  0  0  0
    6.2240    0.5140   20.2450 C   0  0  0  0  0  0  0  0  0  0  0  0
    8.4500   -1.8370   23.8340 N   0  0  0  0  0  0  0  0  0  0  0  0
    9.6780   -1.3090   22.0530 C   0  0  0  0  0  0  0  0  0  0  0  0
    6.6520   -3.9460   19.9560 C   0  0  0  0  0  0  0  0  0  0  0  0
    7.6790    2.1210   22.9100 N   0  0  0  0  0  0  0  0  0  0  0  0
    8.9640    1.3230   21.1870 O   0  0  0  0  0  0  0  0  0  0  0  0
    5.0790    1.3030   20.1740 C   0  0  0  0  0  0  0  0  0  0  0  0
    6.8170    0.1220   18.9130 C   0  0  0  0  0  0  0  0  0  0  0  0
    9.8090   -1.8840   24.1600 O   0  0  0  0  0  0  0  0  0  0  0  0
   10.5810   -1.5630   23.0860 C   0  0  0  0  0  0  0  0  0  0  0  0
   12.1030   -1.5520   23.2550 C   0  0  0  0  0  0  0  0  0  0  0  0
    6.2980    0.5120   17.7480 N   0  0  0  0  0  0  0  0  0  0  0  0
    4.5770    1.6790   18.9400 C   0  0  0  0  0  0  0  0  0  0  0  0
    8.4890    3.2830   23.1100 C   0  0  0  0  0  0  0  0  0  0  0  0
   12.5550   -0.2600   23.5550 C   0  0  0  0  0  0  0  0  0  0  0  0
   12.7930   -2.0110   21.9520 C   0  0  0  0  0  0  0  0  0  0  0  0
   12.5700   -2.4850   24.3980 C   0  0  0  0  0  0  0  0  0  0  0  0
    5.2110    1.2720   17.7850 C   0  0  0  0  0  0  0  0  0  0  0  0
    9.7560    3.1280   23.6810 C   0  0  0  0  0  0  0  0  0  0  0  0
    8.0260    4.6890   22.7310 C   0  0  0  0  0  0  0  0  0  0  0  0
   10.2930    1.7860   24.0840 C   0  0  0  0  0  0  0  0  0  0  0  0
   10.5500    4.2380   23.8930 C   0  0  0  0  0  0  0  0  0  0  0  0
    8.8730    5.7320   22.9830 C   0  0  0  0  0  0  0  0  0  0  0  0
   10.1320    5.5190   23.5660 C   0  0  0  0  0  0  0  0  0  0  0  0
   10.8820    6.6510   23.7760 O   0  0  0  0  0  0  0  0  0  0  0  0
   11.8610    6.5920   24.8180 C   0  0  0  0  0  0  0  0  0  0  0  0
  1  2  1  0
  2  3  2  0
  1  4  1  0
  1  5  1  0
  2  6  1  0
  4  7  1  6
  4  8  1  0
  5  9  2  0
  5 10  1  0
  6 11  1  0
  7 12  1  0
  7 13  2  0
  8 14  2  0
  8 15  1  0
  9 16  1  0
 10 17  2  0
 16 17  1  0
 17 18  1  0
 15 19  2  0
 14 20  1  0
 12 21  1  0
 18 22  1  0
 18 23  1  0
 18 24  1  0
 19 25  1  0
 20 25  2  0
 21 26  2  0
 21 27  1  0
 26 28  1  0
 26 29  1  0
 27 30  2  0
 29 31  2  0
 30 31  1  0
 31 32  1  0
 32 33  1  0
M  END
