x2646-x1358
     RDKit          3D

 38 41  0  0  0  0  0  0  0  0999 V2000
    6.9970   -2.3930   25.7950 N   0  0  0  0  0  0  0  0  0  0  0  0
    5.9300   -3.2360   25.1830 C   0  0  0  0  0  0  0  0  0  0  0  0
    4.7280   -3.1070   25.3580 O   0  0  0  0  0  0  0  0  0  0  0  0
    6.8700   -1.4290   26.8160 C   0  0  0  0  0  0  0  0  0  0  0  0
    6.0610   -0.3270   26.5940 C   0  0  0  0  0  0  0  0  0  0  0  0
    7.5300   -1.5320   28.0660 C   0  0  0  0  0  0  0  0  0  0  0  0
    6.4790   -4.3500   24.2870 C   0  0  2  0  0  0  0  0  0  0  0  0
    5.4190   -0.2260   25.3850 O   0  0  0  0  0  0  0  0  0  0  0  0
    7.4060   -0.5860   29.0750 C   0  0  0  0  0  0  0  0  0  0  0  0
    5.8760    0.6720   27.5410 C   0  0  0  0  0  0  0  0  0  0  0  0
    7.8110   -3.9900   23.5900 C   0  0  0  0  0  0  0  0  0  0  0  0
    5.4760   -4.6990   23.4100 C   0  0  0  0  0  0  0  0  0  0  0  0
    6.5930    0.5360   28.8690 C   0  0  0  0  0  0  0  0  0  0  0  0
    7.7160   -3.3130   22.3670 C   0  0  2  0  0  0  0  0  0  0  0  0
    5.9880   -5.0740   22.1790 C   0  0  0  0  0  0  0  0  0  0  0  0
    7.7100   -1.8030   22.7790 C   0  0  0  0  0  0  0  0  0  0  0  0
    6.5740   -3.9080   21.5410 N   0  0  0  0  0  0  0  0  0  0  0  0
    6.2880   -3.7440   20.1850 C   0  0  0  0  0  0  0  0  0  0  0  0
    8.6500   -1.0810   22.0760 C   0  0  1  0  0  0  0  0  0  0  0  0
    5.2460   -4.2360   19.7680 O   0  0  0  0  0  0  0  0  0  0  0  0
    7.2530   -3.0470   19.2330 C   0  0  0  0  0  0  0  0  0  0  0  0
    8.0960    0.1760   21.3790 C   0  0  0  0  0  0  0  0  0  0  0  0
   10.0260   -0.7280   22.6060 C   0  0  0  0  0  0  0  0  0  0  0  0
    8.7830    1.2130   21.1940 O   0  0  0  0  0  0  0  0  0  0  0  0
    6.7280   -0.0670   20.9880 N   0  0  0  0  0  0  0  0  0  0  0  0
   10.4080    0.1780   23.5900 C   0  0  0  0  0  0  0  0  0  0  0  0
   10.9850   -1.3990   21.9730 C   0  0  0  0  0  0  0  0  0  0  0  0
    6.1910    0.4890   19.8720 C   0  0  0  0  0  0  0  0  0  0  0  0
   11.7870    0.3710   23.8750 C   0  0  0  0  0  0  0  0  0  0  0  0
   12.2960   -1.2360   22.2180 C   0  0  0  0  0  0  0  0  0  0  0  0
   13.2830   -2.1920   21.2620 Cl  0  0  0  0  0  0  0  0  0  0  0  0
    6.7140    0.2990   18.6230 C   0  0  0  0  0  0  0  0  0  0  0  0
    5.0990    1.2690   20.0220 C   0  0  0  0  0  0  0  0  0  0  0  0
   12.7130   -0.3320   23.1860 C   0  0  0  0  0  0  0  0  0  0  0  0
    4.4810    1.5130   21.3660 C   0  0  0  0  0  0  0  0  0  0  0  0
    6.2510    0.8280   17.4960 N   0  0  0  0  0  0  0  0  0  0  0  0
    4.5550    1.8560   18.9090 C   0  0  0  0  0  0  0  0  0  0  0  0
    5.1750    1.6000   17.6900 C   0  0  0  0  0  0  0  0  0  0  0  0
  1  2  1  0
  2  3  2  0
  1  4  1  0
  4  5  2  0
  4  6  1  0
  7  2  1  6
  5  8  1  0
  6  9  2  0
  5 10  1  0
  7 11  1  0
  7 12  1  0
  9 13  1  0
 10 13  2  0
 11 14  1  0
 12 15  1  0
 14 16  1  1
 14 17  1  0
 15 17  1  0
 17 18  1  0
 19 16  1  1
 18 20  2  0
 18 21  1  0
 19 22  1  0
 19 23  1  0
 22 24  2  0
 22 25  1  0
 23 26  2  0
 23 27  1  0
 25 28  1  0
 26 29  1  0
 27 30  2  0
 30 31  1  0
 28 32  2  0
 28 33  1  0
 29 34  2  0
 30 34  1  0
 33 35  1  0
 32 36  1  0
 33 37  2  0
 36 38  2  0
 37 38  1  0
M  END
