x2646-x1348
     RDKit          3D

 35 38  0  0  0  0  0  0  0  0999 V2000
    6.8940   -3.8710   21.3740 N   0  0  0  0  0  0  0  0  0  0  0  0
    6.3700   -3.8380   20.1100 C   0  0  0  0  0  0  0  0  0  0  0  0
    5.2810   -4.3050   19.8080 O   0  0  0  0  0  0  0  0  0  0  0  0
    7.4900   -2.6450   21.8670 C   0  0  0  0  0  0  0  0  0  0  0  0
    6.3450   -4.5940   22.3700 C   0  0  0  0  0  0  0  0  0  0  0  0
    7.3180   -3.1980   19.1180 C   0  0  0  0  0  0  0  0  0  0  0  0
    6.5450   -1.4570   21.7180 C   0  0  0  0  0  0  0  0  0  0  0  0
    6.8670   -4.5000   23.7270 N   0  0  0  0  0  0  0  0  0  0  0  0
    5.0270   -5.6430   22.2080 S   0  0  0  0  0  0  0  0  0  0  0  0
    7.1670   -0.3370   21.0220 N   0  0  0  0  0  0  0  0  0  0  0  0
    6.1170   -5.2930   24.5500 C   0  0  0  0  0  0  0  0  0  0  0  0
    5.0760   -5.9810   23.8970 C   0  0  0  0  0  0  0  0  0  0  0  0
    8.2460    0.3510   21.6910 C   0  0  0  0  0  0  0  0  0  0  0  0
    6.3390   -5.4230   25.9210 C   0  0  0  0  0  0  0  0  0  0  0  0
    4.2340   -6.8180   24.6460 C   0  0  0  0  0  0  0  0  0  0  0  0
    6.4640    0.2960   19.9860 C   0  0  0  0  0  0  0  0  0  0  0  0
    7.3980   -4.6960   26.4360 O   0  0  0  0  0  0  0  0  0  0  0  0
    8.7440    1.3810   21.1830 O   0  0  0  0  0  0  0  0  0  0  0  0
    8.7820   -0.1880   23.0150 C   0  0  0  0  0  0  0  0  0  0  0  0
    4.3820   -7.0000   26.0220 C   0  0  0  0  0  0  0  0  0  0  0  0
    5.5260   -6.2400   26.7020 C   0  0  0  0  0  0  0  0  0  0  0  0
    6.8910    0.1390   18.7040 C   0  0  0  0  0  0  0  0  0  0  0  0
    5.3400    1.0930   20.2180 C   0  0  0  0  0  0  0  0  0  0  0  0
    8.1150   -5.2900   27.5240 C   0  0  0  0  0  0  0  0  0  0  0  0
    4.8040    1.3150   21.5900 C   0  0  0  0  0  0  0  0  0  0  0  0
    6.3040    0.7300   17.5200 N   0  0  0  0  0  0  0  0  0  0  0  0
    4.6870    1.7170   19.1430 C   0  0  0  0  0  0  0  0  0  0  0  0
   10.2550   -0.2440   22.9830 C   0  0  0  0  0  0  0  0  0  0  0  0
    5.1440    1.5550   17.8420 C   0  0  0  0  0  0  0  0  0  0  0  0
   10.9640    0.6850   23.6830 C   0  0  0  0  0  0  0  0  0  0  0  0
   10.9150   -1.2150   22.2410 C   0  0  0  0  0  0  0  0  0  0  0  0
   12.3250    0.6800   23.6540 C   0  0  0  0  0  0  0  0  0  0  0  0
   12.2730   -1.2420   22.1990 C   0  0  0  0  0  0  0  0  0  0  0  0
   13.0600   -2.4330   21.2780 Cl  0  0  0  0  0  0  0  0  0  0  0  0
   12.9910   -0.2890   22.9070 C   0  0  0  0  0  0  0  0  0  0  0  0
  1  2  1  0
  2  3  2  0
  1  4  1  0
  1  5  1  0
  2  6  1  0
  4  7  1  0
  5  8  2  0
  5  9  1  0
  7 10  1  0
  8 11  1  0
  9 12  1  0
 11 12  2  0
 10 13  1  0
 11 14  1  0
 12 15  1  0
 10 16  1  0
 14 17  1  0
 13 18  2  0
 13 19  1  0
 15 20  2  0
 14 21  2  0
 20 21  1  0
 16 22  2  0
 16 23  1  0
 17 24  1  0
 23 25  1  0
 22 26  1  0
 23 27  2  0
 19 28  1  0
 26 29  2  0
 27 29  1  0
 28 30  2  0
 28 31  1  0
 30 32  1  0
 31 33  2  0
 33 34  1  0
 32 35  2  0
 33 35  1  0
M  END
