x2646-x1425
     RDKit          3D

 36 39  0  0  0  0  0  0  0  0999 V2000
    4.6030    1.1370   21.5680 C   0  0  0  0  0  0  0  0  0  0  0  0
    5.2780    0.8930   20.2570 C   0  0  0  0  0  0  0  0  0  0  0  0
    6.4030    0.0620   20.1010 C   0  0  0  0  0  0  0  0  0  0  0  0
    4.7180    1.5580   19.1630 C   0  0  0  0  0  0  0  0  0  0  0  0
    7.0470   -0.6390   21.1530 N   0  0  0  0  0  0  0  0  0  0  0  0
    6.8810   -0.0360   18.8310 C   0  0  0  0  0  0  0  0  0  0  0  0
    5.2420    1.4360   17.8780 C   0  0  0  0  0  0  0  0  0  0  0  0
    8.1400   -0.0300   21.7460 C   0  0  0  0  0  0  0  0  0  0  0  0
    6.2950   -1.7090   21.8680 C   0  0  0  0  0  0  0  0  0  0  0  0
    6.3930    0.6040   17.6300 N   0  0  0  0  0  0  0  0  0  0  0  0
    8.6560    0.9990   21.3110 O   0  0  0  0  0  0  0  0  0  0  0  0
    8.6810   -0.7080   23.0090 C   0  0  0  0  0  0  0  0  0  0  0  0
    7.1140   -3.0130   22.2010 C   0  0  2  0  0  0  0  0  0  0  0  0
   10.1500   -0.5400   23.0210 C   0  0  0  0  0  0  0  0  0  0  0  0
    6.5490   -4.1580   21.4530 N   0  0  0  0  0  0  0  0  0  0  0  0
    6.9850   -3.2630   23.5200 C   0  0  0  0  0  0  0  0  0  0  0  0
    6.1170   -4.0640   20.1800 C   0  0  0  0  0  0  0  0  0  0  0  0
   10.7020    0.4600   23.7750 C   0  0  0  0  0  0  0  0  0  0  0  0
   10.9170   -1.4040   22.2500 C   0  0  0  0  0  0  0  0  0  0  0  0
    5.6090   -3.7440   23.7450 N   0  0  0  0  0  0  0  0  0  0  0  0
    6.2330   -5.3930   22.2000 C   0  0  0  0  0  0  0  0  0  0  0  0
    5.1070   -4.6260   19.8460 O   0  0  0  0  0  0  0  0  0  0  0  0
    7.0010   -3.2520   19.2410 C   0  0  0  0  0  0  0  0  0  0  0  0
   12.2080    0.6390   23.7630 C   0  0  0  0  0  0  0  0  0  0  0  0
   12.2840   -1.3000   22.1960 C   0  0  0  0  0  0  0  0  0  0  0  0
    4.9570   -3.3820   24.8720 C   0  0  0  0  0  0  0  0  0  0  0  0
    5.4390   -5.1580   23.3210 C   0  0  0  0  0  0  0  0  0  0  0  0
   13.1350   -2.3950   21.2200 Cl  0  0  0  0  0  0  0  0  0  0  0  0
   12.9850   -0.2030   23.0010 C   0  0  0  0  0  0  0  0  0  0  0  0
    5.5280   -2.6110   25.8680 C   0  0  0  0  0  0  0  0  0  0  0  0
    3.6250   -3.8130   25.0380 C   0  0  0  0  0  0  0  0  0  0  0  0
    4.8300   -2.2540   27.0140 C   0  0  0  0  0  0  0  0  0  0  0  0
    2.9210   -3.4580   26.1880 C   0  0  0  0  0  0  0  0  0  0  0  0
    3.5180   -2.6720   27.1890 C   0  0  0  0  0  0  0  0  0  0  0  0
    2.7340   -2.3850   28.2760 O   0  0  0  0  0  0  0  0  0  0  0  0
    1.3250   -2.3150   28.0830 C   0  0  0  0  0  0  0  0  0  0  0  0
  1  2  1  0
  2  3  2  0
  2  4  1  0
  3  5  1  0
  3  6  1  0
  4  7  2  0
  5  8  1  0
  5  9  1  0
  6 10  2  0
  7 10  1  0
  8 11  2  0
  8 12  1  0
 13  9  1  6
 12 14  1  0
 13 15  1  0
 13 16  1  0
 15 17  1  0
 14 18  2  0
 14 19  1  0
 16 20  1  0
 15 21  1  0
 17 22  2  0
 17 23  1  0
 18 24  1  0
 19 25  2  0
 20 26  1  0
 20 27  1  0
 21 27  1  0
 25 28  1  0
 24 29  2  0
 25 29  1  0
 26 30  2  0
 26 31  1  0
 30 32  1  0
 31 33  2  0
 32 34  2  0
 33 34  1  0
 34 35  1  0
 35 36  1  0
M  END
