x2649-x1412
     RDKit          3D

 34 37  0  0  0  0  0  0  0  0999 V2000
    7.3630   -0.2840   21.1830 N   0  0  0  0  0  0  0  0  0  0  0  0
    8.4570    0.3650   21.2710 C   0  0  0  0  0  0  0  0  0  0  0  0
    8.6250    1.5880   21.1970 O   0  0  0  0  0  0  0  0  0  0  0  0
    6.5760    0.2470   20.1290 C   0  0  0  0  0  0  0  0  0  0  0  0
    7.5700   -1.6910   21.2500 C   0  0  2  0  0  0  0  0  0  0  0  0
    5.3980    0.9360   20.3750 C   0  0  0  0  0  0  0  0  0  0  0  0
    6.9450    0.1250   18.7840 C   0  0  0  0  0  0  0  0  0  0  0  0
    6.4690   -2.5130   21.0280 N   0  0  0  0  0  0  0  0  0  0  0  0
    8.4160   -2.2440   22.2560 C   0  0  1  0  0  0  0  0  0  0  0  0
    8.0220   -2.3180   23.7360 C   0  0  0  0  0  0  0  0  0  0  0  0
    4.8640    1.1510   21.7600 C   0  0  0  0  0  0  0  0  0  0  0  0
    6.3120   -3.2310   19.8260 C   0  0  0  0  0  0  0  0  0  0  0  0
    6.2770    0.6160   17.7250 N   0  0  0  0  0  0  0  0  0  0  0  0
    4.6580    1.4700   19.3200 C   0  0  0  0  0  0  0  0  0  0  0  0
    8.1010   -3.6950   22.0130 N   0  0  0  0  0  0  0  0  0  0  0  0
    6.0070   -3.1470   22.2750 C   0  0  0  0  0  0  0  0  0  0  0  0
    9.9860   -2.2970   22.0730 C   0  0  0  0  0  0  0  0  0  0  0  0
    7.3070   -3.0090   18.6960 C   0  0  0  0  0  0  0  0  0  0  0  0
    5.4060   -4.0690   19.6880 O   0  0  0  0  0  0  0  0  0  0  0  0
    8.5640   -3.4800   24.5280 C   0  0  0  0  0  0  0  0  0  0  0  0
    5.1320    1.2950   18.0120 C   0  0  0  0  0  0  0  0  0  0  0  0
    6.8560   -4.2110   22.5470 C   0  0  0  0  0  0  0  0  0  0  0  0
   10.8570   -1.1920   22.5840 C   0  0  0  0  0  0  0  0  0  0  0  0
    8.4710   -4.0550   25.8600 C   0  0  0  0  0  0  0  0  0  0  0  0
   12.1920   -1.0460   22.2860 C   0  0  0  0  0  0  0  0  0  0  0  0
   10.2060   -0.2810   23.4190 C   0  0  0  0  0  0  0  0  0  0  0  0
    9.1230   -5.1800   26.2510 C   0  0  0  0  0  0  0  0  0  0  0  0
    7.4900   -3.4630   27.2660 S   0  0  0  0  0  0  0  0  0  0  0  0
   13.0760   -2.1160   21.2790 Cl  0  0  0  0  0  0  0  0  0  0  0  0
   10.8930    0.7840   23.9490 C   0  0  0  0  0  0  0  0  0  0  0  0
   12.8750    0.0260   22.8220 C   0  0  0  0  0  0  0  0  0  0  0  0
    8.0390   -4.7640   28.2030 C   0  0  0  0  0  0  0  0  0  0  0  0
    8.9190   -5.6200   27.5430 C   0  0  0  0  0  0  0  0  0  0  0  0
   12.2310    0.9300   23.6380 C   0  0  0  0  0  0  0  0  0  0  0  0
  1  2  1  0
  2  3  2  0
  1  4  1  0
  5  1  1  1
  4  6  2  0
  4  7  1  0
  5  8  1  0
  5  9  1  0
  9 10  1  1
  6 11  1  0
  8 12  1  0
  7 13  2  0
  6 14  1  0
  9 15  1  0
  8 16  1  0
  9 17  1  0
 12 18  1  0
 12 19  2  0
 10 20  2  3
 13 21  1  0
 14 21  2  0
 15 22  1  0
 16 22  1  0
 17 23  1  0
 20 24  1  0
 23 25  2  0
 23 26  1  0
 24 27  2  0
 24 28  1  0
 25 29  1  0
 26 30  2  0
 25 31  1  0
 28 32  1  0
 27 33  1  0
 32 33  2  0
 30 34  1  0
 31 34  2  0
M  END
