x2649-x1402
     RDKit          3D

 39 42  0  0  0  0  0  0  0  0999 V2000
    7.1900   -3.4230   19.8330 C   0  0  0  0  0  0  0  0  0  0  0  0
    6.3930   -4.3270   20.4570 C   0  0  0  0  0  0  0  0  0  0  0  0
    5.3400   -4.6460   19.9260 O   0  0  0  0  0  0  0  0  0  0  0  0
    6.6910   -4.9380   21.6900 N   0  0  0  0  0  0  0  0  0  0  0  0
    7.1380   -4.3060   22.7850 C   0  0  1  0  0  0  0  0  0  0  0  0
    5.8330   -6.1140   21.9840 C   0  0  0  0  0  0  0  0  0  0  0  0
    6.4030   -2.9340   22.9020 C   0  0  0  0  0  0  0  0  0  0  0  0
    6.8810   -5.0040   24.1000 C   0  0  0  0  0  0  0  0  0  0  0  0
    4.9040   -5.8970   23.0230 C   0  0  0  0  0  0  0  0  0  0  0  0
    6.7140   -2.0750   24.1520 C   0  0  0  0  0  0  0  0  0  0  0  0
    5.6710   -5.5620   24.2600 N   0  0  0  0  0  0  0  0  0  0  0  0
    4.9320   -5.4800   25.7740 S   0  0  0  0  0  0  0  0  0  0  0  0
    7.9030   -1.1640   24.0020 C   0  0  0  0  0  0  0  0  0  0  0  0
    3.8830   -6.4670   25.8270 O   0  0  0  0  0  0  0  0  0  0  0  0
    5.9740   -5.4290   26.7680 O   0  0  0  0  0  0  0  0  0  0  0  0
    8.6360   -1.2360   22.6550 C   0  0  1  0  0  0  0  0  0  0  0  0
    4.1030   -3.9180   25.9400 C   0  0  0  0  0  0  0  0  0  0  0  0
    8.1250   -0.2000   21.6500 C   0  0  0  0  0  0  0  0  0  0  0  0
    2.3770   -3.9610   25.8270 S   0  0  0  0  0  0  0  0  0  0  0  0
    4.5230   -2.6060   26.1520 C   0  0  0  0  0  0  0  0  0  0  0  0
   10.0810   -0.8760   22.8270 C   0  0  0  0  0  0  0  0  0  0  0  0
    6.9190   -0.5250   21.0630 N   0  0  0  0  0  0  0  0  0  0  0  0
    8.7760    0.8240   21.4300 O   0  0  0  0  0  0  0  0  0  0  0  0
    3.5690   -1.6930   26.2270 C   0  0  0  0  0  0  0  0  0  0  0  0
    2.2890   -2.1980   26.0850 C   0  0  0  0  0  0  0  0  0  0  0  0
   10.5280    0.0920   23.7560 C   0  0  0  0  0  0  0  0  0  0  0  0
   10.9750   -1.5330   22.0120 C   0  0  0  0  0  0  0  0  0  0  0  0
    0.7840   -1.3690   26.1390 Cl  0  0  0  0  0  0  0  0  0  0  0  0
    6.3480    0.1570   19.9770 C   0  0  0  0  0  0  0  0  0  0  0  0
   11.9220    0.4440   23.8890 C   0  0  0  0  0  0  0  0  0  0  0  0
   12.2940   -1.2080   22.1270 C   0  0  0  0  0  0  0  0  0  0  0  0
   13.3540   -1.9990   21.1060 Cl  0  0  0  0  0  0  0  0  0  0  0  0
    5.2440    0.9690   20.2200 C   0  0  0  0  0  0  0  0  0  0  0  0
    6.8610    0.0350   18.6950 C   0  0  0  0  0  0  0  0  0  0  0  0
   12.7610   -0.1890   23.0970 C   0  0  0  0  0  0  0  0  0  0  0  0
    4.6390    1.1490   21.5760 C   0  0  0  0  0  0  0  0  0  0  0  0
    6.3760    0.6630   17.6040 N   0  0  0  0  0  0  0  0  0  0  0  0
    4.6920    1.6390   19.1420 C   0  0  0  0  0  0  0  0  0  0  0  0
    5.2150    1.5090   17.8880 C   0  0  0  0  0  0  0  0  0  0  0  0
  1  2  1  0
  2  3  2  0
  2  4  1  0
  4  5  1  0
  4  6  1  0
  5  7  1  1
  5  8  1  0
  6  9  1  0
  7 10  1  0
  8 11  1  0
  9 11  1  0
 11 12  1  0
 10 13  1  0
 12 14  2  0
 12 15  2  0
 16 13  1  1
 12 17  1  0
 16 18  1  0
 17 19  1  0
 17 20  2  0
 16 21  1  0
 18 22  1  0
 18 23  2  0
 20 24  1  0
 19 25  1  0
 24 25  2  0
 21 26  2  0
 21 27  1  0
 25 28  1  0
 22 29  1  0
 26 30  1  0
 27 31  2  0
 31 32  1  0
 29 33  2  0
 29 34  1  0
 30 35  2  0
 31 35  1  0
 33 36  1  0
 34 37  2  0
 33 38  1  0
 37 39  1  0
 38 39  2  0
M  END
