x2646-x0104
     RDKit          3D

 28 30  0  0  0  0  0  0  0  0999 V2000
    9.0100    6.5090   22.6530 C   0  0  0  0  0  0  0  0  0  0  0  0
   10.3160    6.1500   23.3840 C   0  0  0  0  0  0  0  0  0  0  0  0
   10.4600    6.2210   24.6030 O   0  0  0  0  0  0  0  0  0  0  0  0
   11.3050    5.7380   22.5270 N   0  0  0  0  0  0  0  0  0  0  0  0
   12.5070    5.0940   22.9960 C   0  0  0  0  0  0  0  0  0  0  0  0
   12.6930    3.7030   22.3800 C   0  0  0  0  0  0  0  0  0  0  0  0
   12.0560    2.4810   23.0620 C   0  0  0  0  0  0  0  0  0  0  0  0
   10.7980    2.6950   23.8920 C   0  0  0  0  0  0  0  0  0  0  0  0
   12.1950    1.1270   23.1940 C   0  0  0  0  0  0  0  0  0  0  0  0
   10.3190    1.6800   24.4540 N   0  0  0  0  0  0  0  0  0  0  0  0
   11.2520    0.6490   24.0810 C   0  0  1  0  0  0  0  0  0  0  0  0
   13.1010    0.1810   22.6450 C   0  0  0  0  0  0  0  0  0  0  0  0
   10.5920   -0.3370   23.4850 C   0  0  0  0  0  0  0  0  0  0  0  0
   12.5480   -1.0680   22.3340 C   0  0  0  0  0  0  0  0  0  0  0  0
   13.2820   -2.0520   21.7930 F   0  0  0  0  0  0  0  0  0  0  0  0
   11.1750   -1.2310   22.6150 C   0  0  0  0  0  0  0  0  0  0  0  0
   10.3000   -2.2880   22.0590 C   0  0  0  0  0  0  0  0  0  0  0  0
    8.8020   -1.9240   22.2280 C   0  0  0  0  0  0  0  0  0  0  0  0
    8.4430   -0.7010   21.6060 C   0  0  0  0  0  0  0  0  0  0  0  0
    9.2430    0.4130   21.4830 O   0  0  0  0  0  0  0  0  0  0  0  0
    7.0440   -0.7700   21.1360 N   0  0  0  0  0  0  0  0  0  0  0  0
    6.4550   -0.0140   20.0090 C   0  0  0  0  0  0  0  0  0  0  0  0
    6.8860   -0.1550   18.7180 C   0  0  0  0  0  0  0  0  0  0  0  0
    5.4120    0.8700   20.3310 C   0  0  0  0  0  0  0  0  0  0  0  0
    4.9450    1.0510   21.6040 C   0  0  0  0  0  0  0  0  0  0  0  0
    6.2940    0.5970   17.6090 N   0  0  0  0  0  0  0  0  0  0  0  0
    4.7960    1.6240   19.3150 C   0  0  0  0  0  0  0  0  0  0  0  0
    5.2120    1.5010   18.0000 C   0  0  0  0  0  0  0  0  0  0  0  0
  1  2  1  0
  2  3  2  0
  2  4  1  0
  4  5  1  0
  5  6  1  0
  6  7  1  0
  7  8  1  0
  7  9  2  0
  8 10  2  0
  9 11  1  0
 10 11  1  0
  9 12  1  0
 11 13  1  6
 12 14  2  0
 14 15  1  0
 13 16  2  0
 14 16  1  0
 16 17  1  0
 17 18  1  0
 18 19  1  0
 19 20  2  0
 19 21  1  0
 21 22  1  0
 22 23  2  0
 22 24  1  0
 24 25  1  0
 23 26  1  0
 24 27  2  0
 26 28  2  0
 27 28  1  0
M  END
