x2646-x0978
     RDKit          3D

 35 36  0  0  0  0  0  0  0  0999 V2000
    2.0090   -5.6810   23.3150 N   0  0  0  0  0  0  0  0  0  0  0  0
    3.2570   -6.4150   23.2570 C   0  0  2  0  0  0  0  0  0  0  0  0
    3.3830   -7.3290   24.4920 C   0  0  1  0  0  0  0  0  0  0  0  0
    0.8440   -6.2250   22.5910 C   0  0  0  0  0  0  0  0  0  0  0  0
    0.8730   -7.2750   21.9560 O   0  0  0  0  0  0  0  0  0  0  0  0
   -0.4500   -5.4030   22.6650 C   0  0  0  0  0  0  0  0  0  0  0  0
    4.4090   -5.3730   23.1850 C   0  0  0  0  0  0  0  0  0  0  0  0
    2.1040   -8.1240   24.6220 C   0  0  0  0  0  0  0  0  0  0  0  0
    4.4440   -7.9070   24.3600 O   0  0  0  0  0  0  0  0  0  0  0  0
    5.3630   -5.5820   22.3260 N   0  0  0  0  0  0  0  0  0  0  0  0
    4.3940   -4.2880   23.9940 O   0  0  0  0  0  0  0  0  0  0  0  0
    6.1390   -4.4870   21.6870 C   0  0  1  0  0  0  0  0  0  0  0  0
    6.3770   -4.8690   20.2130 C   0  0  0  0  0  0  0  0  0  0  0  0
    5.3370   -3.1720   21.8750 C   0  0  0  0  0  0  0  0  0  0  0  0
    5.6980   -6.1570   19.8430 C   0  0  0  0  0  0  0  0  0  0  0  0
    5.6450   -2.1630   20.7670 C   0  0  0  0  0  0  0  0  0  0  0  0
    6.9260   -1.6200   20.8610 C   0  0  0  0  0  0  0  0  0  0  0  0
    6.9640   -0.2030   21.0880 N   0  0  0  0  0  0  0  0  0  0  0  0
    8.1990    0.2970   21.6750 C   0  0  0  0  0  0  0  0  0  0  0  0
    6.3700    0.4230   19.9300 C   0  0  0  0  0  0  0  0  0  0  0  0
    8.7890    1.3130   21.2430 O   0  0  0  0  0  0  0  0  0  0  0  0
    8.7010   -0.4390   22.7490 C   0  0  0  0  0  0  0  0  0  0  0  0
    6.8700    0.2050   18.6790 C   0  0  0  0  0  0  0  0  0  0  0  0
    5.2710    1.2350   20.1730 C   0  0  0  0  0  0  0  0  0  0  0  0
    4.7150    1.4660   21.5460 C   0  0  0  0  0  0  0  0  0  0  0  0
    6.2870    0.8190   17.5050 N   0  0  0  0  0  0  0  0  0  0  0  0
    4.6510    1.8670   19.0920 C   0  0  0  0  0  0  0  0  0  0  0  0
   10.1860   -0.4060   22.6970 C   0  0  0  0  0  0  0  0  0  0  0  0
    5.1370    1.6740   17.8060 C   0  0  0  0  0  0  0  0  0  0  0  0
   10.8350    0.6750   23.1780 C   0  0  0  0  0  0  0  0  0  0  0  0
   10.9130   -1.4460   22.1610 C   0  0  0  0  0  0  0  0  0  0  0  0
   12.2060    0.8170   23.1910 C   0  0  0  0  0  0  0  0  0  0  0  0
   12.2760   -1.3390   22.1430 C   0  0  0  0  0  0  0  0  0  0  0  0
   13.1170   -2.6220   21.4500 Cl  0  0  0  0  0  0  0  0  0  0  0  0
   12.9450   -0.2280   22.6560 C   0  0  0  0  0  0  0  0  0  0  0  0
  2  1  1  1
  2  3  1  0
  1  4  1  0
  4  5  2  0
  4  6  1  0
  2  7  1  0
  3  8  1  6
  3  9  1  0
  7 10  1  0
  7 11  2  0
 10 12  1  0
 12 13  1  6
 12 14  1  0
 13 15  2  3
 14 16  1  0
 16 17  1  0
 17 18  1  0
 18 19  1  0
 18 20  1  0
 19 21  2  0
 19 22  1  0
 20 23  2  0
 20 24  1  0
 24 25  1  0
 23 26  1  0
 24 27  2  0
 22 28  1  0
 26 29  2  0
 27 29  1  0
 28 30  2  0
 28 31  1  0
 30 32  1  0
 31 33  2  0
 33 34  1  0
 32 35  2  0
 33 35  1  0
M  END
