x2643-x2052
     RDKit          3D

 36 40  0  0  0  0  0  0  0  0999 V2000
    6.1320   -1.6390   25.1300 C   0  0  0  0  0  0  0  0  0  0  0  0
    6.8670   -0.9850   26.0930 N   0  0  0  0  0  0  0  0  0  0  0  0
    6.3960   -0.2860   27.2360 C   0  0  0  0  0  0  0  0  0  0  0  0
    4.9050   -1.7290   25.1710 O   0  0  0  0  0  0  0  0  0  0  0  0
    6.9070   -2.2800   23.9410 C   0  0  2  0  0  0  0  0  0  0  0  0
    6.9000   -1.2950   22.9120 C   0  0  1  0  0  0  0  0  0  0  0  0
    6.2790   -3.4590   23.5610 C   0  0  0  0  0  0  0  0  0  0  0  0
    7.9080   -0.1080   22.9080 C   0  0  2  0  0  0  0  0  0  0  0  0
    7.2370   -1.8190   21.6480 C   0  0  2  0  0  0  0  0  0  0  0  0
    6.7990   -3.9130   22.3540 C   0  0  0  0  0  0  0  0  0  0  0  0
    6.6370    1.0790   27.2950 C   0  0  0  0  0  0  0  0  0  0  0  0
    5.6450   -0.9160   28.4220 C   0  0  0  0  0  0  0  0  0  0  0  0
    7.3860   -0.7980   20.7590 N   0  0  0  0  0  0  0  0  0  0  0  0
    8.1010    0.1760   21.5540 C   0  0  0  0  0  0  0  0  0  0  0  0
    6.5100   -2.9630   21.4130 N   0  0  0  0  0  0  0  0  0  0  0  0
    6.2880    1.9300   28.2930 N   0  0  0  0  0  0  0  0  0  0  0  0
    5.2660   -0.0730   29.4720 C   0  0  0  0  0  0  0  0  0  0  0  0
    9.2990   -0.2740   23.4450 C   0  0  0  0  0  0  0  0  0  0  0  0
    6.2870   -3.4770   20.0890 C   0  0  0  0  0  0  0  0  0  0  0  0
    8.7590    1.1530   21.1570 O   0  0  0  0  0  0  0  0  0  0  0  0
    5.6340    1.4050   29.3460 C   0  0  0  0  0  0  0  0  0  0  0  0
    9.7660   -0.2560   24.7420 C   0  0  0  0  0  0  0  0  0  0  0  0
   10.5760   -0.4850   22.3260 S   0  0  0  0  0  0  0  0  0  0  0  0
    6.4860   -0.1510   19.8700 C   0  0  0  0  0  0  0  0  0  0  0  0
    5.3870   -4.2950   19.8430 O   0  0  0  0  0  0  0  0  0  0  0  0
    5.2580    2.2180   30.3990 O   0  0  0  0  0  0  0  0  0  0  0  0
    7.2420   -3.0260   18.9690 C   0  0  0  0  0  0  0  0  0  0  0  0
   11.7010   -0.5160   23.5570 C   0  0  0  0  0  0  0  0  0  0  0  0
   11.1780   -0.4000   24.7980 C   0  0  0  0  0  0  0  0  0  0  0  0
    6.9390    0.1040   18.5990 C   0  0  0  0  0  0  0  0  0  0  0  0
    5.2060    0.2700   20.1920 C   0  0  0  0  0  0  0  0  0  0  0  0
    6.1610    3.3000   30.6390 C   0  0  0  0  0  0  0  0  0  0  0  0
   13.3190   -0.6820   23.1340 Cl  0  0  0  0  0  0  0  0  0  0  0  0
    6.2780    0.7420   17.6340 N   0  0  0  0  0  0  0  0  0  0  0  0
    4.4760    0.9420   19.2010 C   0  0  0  0  0  0  0  0  0  0  0  0
    5.0550    1.1550   17.9550 C   0  0  0  0  0  0  0  0  0  0  0  0
  1  2  1  0
  2  3  1  0
  1  4  2  0
  5  1  1  1
  6  5  1  1
  5  7  1  0
  6  8  1  0
  6  9  1  0
  7 10  1  0
  3 11  2  0
  3 12  1  0
  9 13  1  6
  8 14  1  0
 13 14  1  0
  9 15  1  0
 10 15  1  0
 11 16  1  0
 12 17  2  0
  8 18  1  6
 15 19  1  0
 14 20  2  0
 16 21  2  0
 17 21  1  0
 18 22  2  0
 18 23  1  0
 13 24  1  0
 19 25  2  0
 21 26  1  0
 19 27  1  0
 23 28  1  0
 22 29  1  0
 28 29  2  0
 24 30  2  0
 24 31  1  0
 26 32  1  0
 28 33  1  0
 30 34  1  0
 31 35  2  0
 34 36  2  0
 35 36  1  0
M  END
