x2649-x2694-x0978-x0072-x0731
     RDKit          3D

 62 69  0  0  0  0  0  0  0  0999 V2000
    6.8160   -1.4390   21.9510 N   0  0  0  0  0  0  0  0  0  0  0  0
    5.7930   -2.4320   21.3370 C   0  0  0  0  0  0  0  0  0  0  0  0
    4.5840   -2.9170   21.6080 O   0  0  0  0  0  0  0  0  0  0  0  0
    6.5870    0.0100   21.7070 C   0  0  1  0  0  0  0  0  0  0  0  0
    8.1060   -1.8870   22.5520 C   0  0  2  0  0  0  0  0  0  0  0  0
    6.0880   -3.1450   20.1260 C   0  0  0  0  0  0  0  0  0  0  0  0
    7.7080    1.1900   21.8010 C   0  0  0  0  0  0  0  0  0  0  0  0
    8.4360   -3.1970   22.3640 C   0  0  0  0  0  0  0  0  0  0  0  0
    6.0540    0.4570   20.3540 C   0  0  0  0  0  0  0  0  0  0  0  0
    8.1980   -1.6310   23.9960 N   0  0  0  0  0  0  0  0  0  0  0  0
    9.3970   -1.0460   22.2050 C   0  0  0  0  0  0  0  0  0  0  0  0
    6.5870   -4.5580   20.4590 C   0  0  0  0  0  0  0  0  0  0  0  0
    7.4770    2.2380   22.7140 N   0  0  0  0  0  0  0  0  0  0  0  0
    8.6910    1.2590   21.0500 O   0  0  0  0  0  0  0  0  0  0  0  0
    7.5550   -4.2120   22.7750 N   0  0  0  0  0  0  0  0  0  0  0  0
    4.9820    1.2800   20.1830 C   0  0  0  0  0  0  0  0  0  0  0  0
    6.7140    0.0250   19.2520 C   0  0  0  0  0  0  0  0  0  0  0  0
    9.6220   -1.9140   24.3100 O   0  0  0  0  0  0  0  0  0  0  0  0
   10.4340   -1.3320   23.2930 C   0  0  1  0  0  0  0  0  0  0  0  0
    6.5890   -4.9530   22.0560 N   0  0  0  0  0  0  0  0  0  0  0  0
    4.1830    1.8190   21.3340 C   0  0  0  0  0  0  0  0  0  0  0  0
    7.9190   -4.4970   24.3890 S   0  0  0  0  0  0  0  0  0  0  0  0
    6.3280    0.4110   17.9080 N   0  0  0  0  0  0  0  0  0  0  0  0
    4.6260    1.6410   18.8960 C   0  0  0  0  0  0  0  0  0  0  0  0
    8.3760    3.3210   23.0110 C   0  0  0  0  0  0  0  0  0  0  0  0
   11.6630   -2.1960   22.8810 C   0  0  1  0  0  0  0  0  0  0  0  0
   10.9540   -0.0820   23.9550 C   0  0  0  0  0  0  0  0  0  0  0  0
    5.2630   -5.3200   22.9530 C   0  0  2  0  0  0  0  0  0  0  0  0
    6.5740   -4.0790   25.2770 C   0  0  0  0  0  0  0  0  0  0  0  0
    9.0230   -3.6750   24.5440 O   0  0  0  0  0  0  0  0  0  0  0  0
    8.0840   -5.8620   24.7430 O   0  0  0  0  0  0  0  0  0  0  0  0
    5.2390    1.2650   17.7060 C   0  0  0  0  0  0  0  0  0  0  0  0
    9.6840    2.9370   23.3660 C   0  0  0  0  0  0  0  0  0  0  0  0
    7.8430    4.6300   22.9100 C   0  0  0  0  0  0  0  0  0  0  0  0
   12.6930   -1.4700   22.2910 C   0  0  0  0  0  0  0  0  0  0  0  0
   12.2220    0.4330   23.6390 C   0  0  0  0  0  0  0  0  0  0  0  0
   12.3930   -2.8990   24.0280 C   0  0  0  0  0  0  0  0  0  0  0  0
   11.0930    2.8100   23.7600 C   0  0  0  0  0  0  0  0  0  0  0  0
    3.9850   -6.3890   23.1070 C   0  0  2  0  0  0  0  0  0  0  0  0
    4.3700   -4.3460   22.4140 O   0  0  0  0  0  0  0  0  0  0  0  0
    5.1910   -4.6760   24.5710 S   0  0  2  0  0  0  0  0  0  0  0  0
   10.3430    4.3380   23.6200 C   0  0  0  0  0  0  0  0  0  0  0  0
    8.5690    5.7820   23.1690 C   0  0  0  0  0  0  0  0  0  0  0  0
   12.9650   -0.1900   22.6920 C   0  0  0  0  0  0  0  0  0  0  0  0
   12.9580   -1.9180   25.0290 C   0  0  0  0  0  0  0  0  0  0  0  0
    2.7030   -5.9280   22.5230 N   0  0  0  0  0  0  0  0  0  0  0  0
    3.5810   -4.9390   24.6650 N   0  0  0  0  0  0  0  0  0  0  0  0
    3.5350   -6.2240   24.3620 C   0  0  2  0  0  0  0  0  0  0  0  0
    9.8700    5.6230   23.5440 C   0  0  0  0  0  0  0  0  0  0  0  0
    4.1350   -3.7390   25.5630 C   0  0  0  0  0  0  0  0  0  0  0  0
   10.7640    6.6410   23.8490 O   0  0  0  0  0  0  0  0  0  0  0  0
    3.9430   -7.0760   25.4150 C   0  0  0  0  0  0  0  0  0  0  0  0
    1.4390   -6.4740   22.5230 C   0  0  0  0  0  0  0  0  0  0  0  0
    2.7480   -3.6800   24.9010 C   0  0  0  0  0  0  0  0  0  0  0  0
    4.3630   -2.9770   26.8440 C   0  0  0  0  0  0  0  0  0  0  0  0
   11.7390    6.4480   24.8830 C   0  0  0  0  0  0  0  0  0  0  0  0
    1.2150   -7.6110   22.1210 O   0  0  0  0  0  0  0  0  0  0  0  0
    0.3370   -5.7260   22.9480 C   0  0  0  0  0  0  0  0  0  0  0  0
    1.6420   -2.8450   25.5370 C   0  0  0  0  0  0  0  0  0  0  0  0
    3.2370   -2.1670   27.4160 C   0  0  0  0  0  0  0  0  0  0  0  0
    1.9570   -2.0860   26.8120 C   0  0  0  0  0  0  0  0  0  0  0  0
    0.8690   -1.2540   27.3980 C   0  0  0  0  0  0  0  0  0  0  0  0
  1  2  1  0
  2  3  2  0
  1  4  1  0
  5  1  1  0
  2  6  1  0
  4  7  1  6
  5  8  1  1
  4  9  1  0
  5 10  1  0
  5 11  1  0
  6 12  1  0
  7 13  1  0
  7 14  2  0
  8 15  1  0
  9 16  2  0
  9 17  1  0
 10 18  1  0
 19 11  1  6
 19 18  1  0
 12 20  1  0
 15 20  1  0
 16 21  1  0
 15 22  1  0
 17 23  2  0
 16 24  1  0
 13 25  1  0
 19 26  1  0
 19 27  1  0
 20 28  1  0
 22 29  1  0
 22 30  2  0
 22 31  2  0
 23 32  1  0
 24 32  2  0
 25 33  2  0
 25 34  1  0
 26 35  1  0
 27 36  2  0
 26 37  1  1
 33 38  1  0
 28 39  1  0
 28 40  1  6
 28 41  1  0
 29 41  2  0
 33 42  1  0
 34 43  2  0
 35 44  2  0
 36 44  1  0
 37 45  1  0
 39 46  1  6
 41 47  2  0
 39 48  1  0
 47 48  1  0
 42 49  2  0
 43 49  1  0
 41 50  1  1
 49 51  1  0
 48 52  1  1
 46 53  1  0
 50 54  2  0
 50 55  1  0
 51 56  1  0
 53 57  2  0
 53 58  1  0
 54 59  1  0
 55 60  2  0
 59 61  2  0
 60 61  1  0
 61 62  1  0
M  END
