x2643-x0734
     RDKit          3D

 35 38  0  0  0  0  0  0  0  0999 V2000
    5.1920   -4.7640   26.0920 N   0  0  0  0  0  0  0  0  0  0  0  0
    6.6370   -5.0520   26.2480 C   0  0  0  0  0  0  0  0  0  0  0  0
    7.1280   -5.3880   27.4990 C   0  0  0  0  0  0  0  0  0  0  0  0
    4.5070   -5.6050   25.5000 O   0  0  0  0  0  0  0  0  0  0  0  0
    4.7320   -3.7970   26.7230 O   0  0  0  0  0  0  0  0  0  0  0  0
    7.5390   -4.9670   25.0090 C   0  0  0  0  0  0  0  0  0  0  0  0
    8.8880   -5.2500   25.2140 C   0  0  0  0  0  0  0  0  0  0  0  0
    8.4870   -5.6570   27.6160 C   0  0  0  0  0  0  0  0  0  0  0  0
    7.2060   -4.6490   23.6970 N   0  0  0  0  0  0  0  0  0  0  0  0
    9.3050   -5.5830   26.4930 C   0  0  0  0  0  0  0  0  0  0  0  0
    6.2900   -5.6260   23.0440 C   0  0  0  0  0  0  0  0  0  0  0  0
    7.0480   -3.2420   23.3000 C   0  0  1  0  0  0  0  0  0  0  0  0
    8.3490   -2.6460   22.7430 C   0  0  0  0  0  0  0  0  0  0  0  0
    6.4440   -5.5090   21.6650 C   0  0  0  0  0  0  0  0  0  0  0  0
    6.1050   -3.1800   22.3300 C   0  0  0  0  0  0  0  0  0  0  0  0
    8.2820   -1.1200   22.8100 C   0  0  2  0  0  0  0  0  0  0  0  0
    6.4060   -4.0980   21.2540 N   0  0  0  0  0  0  0  0  0  0  0  0
    6.0740   -3.7970   19.9350 C   0  0  0  0  0  0  0  0  0  0  0  0
    7.9450   -0.3550   21.5390 C   0  0  0  0  0  0  0  0  0  0  0  0
    9.5770   -0.5130   23.1490 C   0  0  0  0  0  0  0  0  0  0  0  0
    4.9630   -4.0660   19.5370 O   0  0  0  0  0  0  0  0  0  0  0  0
    7.1640   -3.1360   19.0500 C   0  0  0  0  0  0  0  0  0  0  0  0
    6.8110   -0.7340   20.8770 N   0  0  0  0  0  0  0  0  0  0  0  0
    8.6730    0.5710   21.1930 O   0  0  0  0  0  0  0  0  0  0  0  0
    9.7840    0.5320   24.0940 C   0  0  0  0  0  0  0  0  0  0  0  0
   10.9760   -1.0720   22.3270 S   0  0  0  0  0  0  0  0  0  0  0  0
   11.8740    0.0490   23.1590 C   0  0  0  0  0  0  0  0  0  0  0  0
   11.0960    0.8830   24.1180 C   0  0  0  0  0  0  0  0  0  0  0  0
    6.2680   -0.0220   19.8510 C   0  0  0  0  0  0  0  0  0  0  0  0
   13.4890    0.1330   22.8410 Cl  0  0  0  0  0  0  0  0  0  0  0  0
    6.8700    0.0910   18.6260 C   0  0  0  0  0  0  0  0  0  0  0  0
    5.0520    0.6240   20.0610 C   0  0  0  0  0  0  0  0  0  0  0  0
    6.3560    0.8020   17.6080 N   0  0  0  0  0  0  0  0  0  0  0  0
    4.4940    1.3630   19.0300 C   0  0  0  0  0  0  0  0  0  0  0  0
    5.1890    1.4230   17.8230 C   0  0  0  0  0  0  0  0  0  0  0  0
  1  2  1  0
  2  3  2  0
  1  4  2  0
  1  5  1  0
  2  6  1  0
  6  7  2  0
  3  8  1  0
  6  9  1  0
  7 10  1  0
  8 10  2  0
  9 11  1  0
  9 12  1  0
 12 13  1  6
 11 14  1  0
 12 15  1  0
 16 13  1  6
 14 17  1  0
 15 17  1  0
 17 18  1  0
 16 19  1  0
 16 20  1  0
 18 21  2  0
 18 22  1  0
 19 23  1  0
 19 24  2  0
 20 25  2  0
 20 26  1  0
 26 27  1  0
 25 28  1  0
 27 28  2  0
 23 29  1  0
 27 30  1  0
 29 31  2  0
 29 32  1  0
 31 33  1  0
 32 34  2  0
 33 35  2  0
 34 35  1  0
M  CHG  2   1   1   5  -1
M  END
