x2649-x0820
     RDKit          3D

 34 37  0  0  0  0  0  0  0  0999 V2000
    6.6530   -0.8020   21.0200 N   0  0  0  0  0  0  0  0  0  0  0  0
    7.8940   -0.6150   21.7270 C   0  0  0  0  0  0  0  0  0  0  0  0
    8.6480    0.3190   21.4280 O   0  0  0  0  0  0  0  0  0  0  0  0
    6.1310    0.0580   19.9370 C   0  0  0  0  0  0  0  0  0  0  0  0
    8.2000   -1.6160   22.8650 C   0  0  1  0  0  0  0  0  0  0  0  0
    5.1870    1.0320   20.1630 C   0  0  0  0  0  0  0  0  0  0  0  0
    6.5960   -0.1160   18.6660 C   0  0  0  0  0  0  0  0  0  0  0  0
    7.5950   -1.0450   24.1450 C   0  0  0  0  0  0  0  0  0  0  0  0
    4.6260    1.3090   21.5210 C   0  0  0  0  0  0  0  0  0  0  0  0
    7.4700   -3.1370   22.7320 C   0  0  2  0  0  0  0  0  0  0  0  0
    6.1710    0.6130   17.6180 N   0  0  0  0  0  0  0  0  0  0  0  0
    4.7470    1.7780   19.0840 C   0  0  0  0  0  0  0  0  0  0  0  0
    9.7640   -1.3720   22.9390 C   0  0  0  0  0  0  0  0  0  0  0  0
    6.4390   -3.2320   21.6160 N   0  0  0  0  0  0  0  0  0  0  0  0
    5.2250    1.5910   17.7800 C   0  0  0  0  0  0  0  0  0  0  0  0
   10.2860   -0.4800   23.9390 C   0  0  0  0  0  0  0  0  0  0  0  0
   10.6980   -1.9410   22.0720 C   0  0  0  0  0  0  0  0  0  0  0  0
    6.6830   -3.6650   23.9430 C   0  0  0  0  0  0  0  0  0  0  0  0
    6.4310   -3.8390   20.3320 C   0  0  0  0  0  0  0  0  0  0  0  0
   11.6390   -0.1650   24.0680 C   0  0  0  0  0  0  0  0  0  0  0  0
   12.0470   -1.6040   22.2260 C   0  0  0  0  0  0  0  0  0  0  0  0
    7.1960   -3.9660   25.2230 C   0  0  0  0  0  0  0  0  0  0  0  0
    5.2690   -3.8550   23.7030 C   0  0  0  0  0  0  0  0  0  0  0  0
   13.1670   -2.2900   21.1600 Cl  0  0  0  0  0  0  0  0  0  0  0  0
    5.7630   -4.8610   20.0520 O   0  0  0  0  0  0  0  0  0  0  0  0
    7.2150   -3.1840   19.2100 C   0  0  0  0  0  0  0  0  0  0  0  0
   12.4680   -0.7270   23.2190 C   0  0  0  0  0  0  0  0  0  0  0  0
    6.2940   -4.4160   26.1780 C   0  0  0  0  0  0  0  0  0  0  0  0
    4.4020   -4.3150   24.6900 C   0  0  0  0  0  0  0  0  0  0  0  0
    8.4850   -3.8570   25.6170 C   0  0  0  0  0  0  0  0  0  0  0  0
    4.8100   -4.6300   25.9860 C   0  0  0  0  0  0  0  0  0  0  0  0
    6.7220   -4.7620   27.5990 C   0  0  0  0  0  0  0  0  0  0  0  0
    8.9150   -4.1620   26.8800 C   0  0  0  0  0  0  0  0  0  0  0  0
    8.0440   -4.6150   27.8920 C   0  0  0  0  0  0  0  0  0  0  0  0
  1  2  1  0
  2  3  2  0
  1  4  1  0
  5  2  1  0
  4  6  2  0
  4  7  1  0
  5  8  1  1
  6  9  1  0
  5 10  1  0
  7 11  2  0
  6 12  1  0
  5 13  1  0
 10 14  1  6
 11 15  1  0
 12 15  2  0
 13 16  2  0
 13 17  1  0
 10 18  1  0
 14 19  1  0
 16 20  1  0
 17 21  2  0
 18 22  1  0
 18 23  2  0
 21 24  1  0
 19 25  2  0
 19 26  1  0
 20 27  2  0
 21 27  1  0
 22 28  2  0
 23 29  1  0
 22 30  1  0
 28 31  1  0
 29 31  2  0
 28 32  1  0
 30 33  2  0
 32 34  2  0
 33 34  1  0
M  END
