x2646-x2581
     RDKit          3D

 37 42  0  0  0  0  0  0  0  0999 V2000
    8.7420   -2.7850   23.7810 C   0  0  0  0  0  0  0  0  0  0  0  0
    9.0490   -1.5720   23.1970 N   0  0  0  0  0  0  0  0  0  0  0  0
    7.9800   -0.8690   22.4160 C   0  0  2  0  0  0  0  0  0  0  0  0
    9.5650   -0.5240   24.0950 C   0  0  2  0  0  0  0  0  0  0  0  0
    7.3650   -1.3110   21.2090 N   0  0  0  0  0  0  0  0  0  0  0  0
    9.9090    0.3680   22.9390 C   0  0  1  0  0  0  0  0  0  0  0  0
    8.8750    0.2830   22.0320 C   0  0  2  0  0  0  0  0  0  0  0  0
   10.8690   -0.8020   24.8310 C   0  0  0  0  0  0  0  0  0  0  0  0
   10.1840    1.6230   23.3860 C   0  0  0  0  0  0  0  0  0  0  0  0
    8.3430    1.5320   21.6910 C   0  0  0  0  0  0  0  0  0  0  0  0
    6.6910   -0.4240   20.2610 C   0  0  0  0  0  0  0  0  0  0  0  0
   11.9940   -1.2310   24.1380 C   0  0  0  0  0  0  0  0  0  0  0  0
   11.1540   -0.3010   22.2550 C   0  0  0  0  0  0  0  0  0  0  0  0
    9.3600    2.3500   21.3970 N   0  0  0  0  0  0  0  0  0  0  0  0
   10.3210    2.4890   22.3680 C   0  0  1  0  0  0  0  0  0  0  0  0
    7.0540   -0.4060   18.9230 C   0  0  0  0  0  0  0  0  0  0  0  0
    5.6330    0.4730   20.5800 C   0  0  0  0  0  0  0  0  0  0  0  0
   11.7970   -1.3740   22.8100 C   0  0  1  0  0  0  0  0  0  0  0  0
   10.2010    3.7130   22.5220 N   0  0  0  0  0  0  0  0  0  0  0  0
    5.0830    0.6260   21.9610 C   0  0  0  0  0  0  0  0  0  0  0  0
   13.2730   -1.7080   21.9060 Cl  0  0  0  0  0  0  0  0  0  0  0  0
    6.5240    0.3500   17.9310 N   0  0  0  0  0  0  0  0  0  0  0  0
    5.0710    1.2560   19.5700 C   0  0  0  0  0  0  0  0  0  0  0  0
   11.2190    4.2630   23.1690 C   0  0  0  0  0  0  0  0  0  0  0  0
    5.5260    1.1790   18.2590 C   0  0  0  0  0  0  0  0  0  0  0  0
   11.5480    3.6970   24.1230 O   0  0  0  0  0  0  0  0  0  0  0  0
   11.8710    5.5290   22.6820 C   0  0  0  0  0  0  0  0  0  0  0  0
   11.0910    6.6170   23.3090 C   0  0  0  0  0  0  0  0  0  0  0  0
    9.8470    6.9710   22.8130 C   0  0  0  0  0  0  0  0  0  0  0  0
   11.6370    7.3580   24.5260 C   0  0  0  0  0  0  0  0  0  0  0  0
    9.1180    7.9830   23.4150 C   0  0  0  0  0  0  0  0  0  0  0  0
   10.8840    8.3750   25.1040 C   0  0  0  0  0  0  0  0  0  0  0  0
    9.6010    8.6950   24.5380 C   0  0  0  0  0  0  0  0  0  0  0  0
   11.3570    9.0750   26.2020 C   0  0  0  0  0  0  0  0  0  0  0  0
    8.7860    9.7230   25.0670 C   0  0  0  0  0  0  0  0  0  0  0  0
   10.5600   10.0700   26.7050 C   0  0  0  0  0  0  0  0  0  0  0  0
    9.3170   10.4060   26.1790 C   0  0  0  0  0  0  0  0  0  0  0  0
  1  2  1  0
  2  3  1  0
  2  4  1  0
  3  5  1  6
  4  6  1  0
  3  7  1  0
  6  7  1  0
  4  8  1  6
  6  9  1  1
  7 10  1  1
  5 11  1  0
  8 12  2  0
  6 13  1  0
 10 14  1  0
  9 15  1  0
 14 15  1  0
 11 16  2  0
 11 17  1  0
 12 18  1  0
 13 18  1  0
 15 19  1  1
 17 20  1  0
 18 21  1  6
 16 22  1  0
 17 23  2  0
 19 24  1  0
 22 25  2  0
 23 25  1  0
 24 26  2  0
 24 27  1  0
 27 28  1  0
 28 29  2  0
 28 30  1  0
 29 31  1  0
 30 32  2  0
 31 33  2  0
 32 33  1  0
 32 34  1  0
 33 35  1  0
 34 36  2  0
 35 37  2  0
 36 37  1  0
M  END
