x2643-x3110-x0786-x0946
     RDKit          3D

 53 57  0  0  0  0  0  0  0  0999 V2000
    7.9630    1.0650   23.2890 N   0  0  0  0  0  0  0  0  0  0  0  0
    8.6220    2.2590   23.6470 C   0  0  0  0  0  0  0  0  0  0  0  0
   10.1460    2.3460   23.3770 C   0  0  0  0  0  0  0  0  0  0  0  0
    7.6540    0.6160   21.9750 C   0  0  0  0  0  0  0  0  0  0  0  0
    8.3390    1.0860   21.0560 O   0  0  0  0  0  0  0  0  0  0  0  0
    6.5750   -0.3210   21.7280 C   0  0  2  0  0  0  0  0  0  0  0  0
    6.9280   -1.4700   21.8210 N   0  0  0  0  0  0  0  0  0  0  0  0
    6.0980    0.2070   20.3270 C   0  0  0  0  0  0  0  0  0  0  0  0
   10.9230    3.5630   23.3810 C   0  0  0  0  0  0  0  0  0  0  0  0
   10.8680    1.1940   23.0990 C   0  0  0  0  0  0  0  0  0  0  0  0
   10.2920    4.9380   23.6870 C   0  0  0  0  0  0  0  0  0  0  0  0
    6.1000   -2.7070   21.5060 C   0  0  0  0  0  0  0  0  0  0  0  0
    4.9770    1.0340   20.2410 C   0  0  0  0  0  0  0  0  0  0  0  0
    6.8720   -0.1700   19.0840 C   0  0  0  0  0  0  0  0  0  0  0  0
    8.2280   -1.6330   22.4540 C   0  0  0  0  0  0  0  0  0  0  0  0
   12.2280    1.2050   22.8310 C   0  0  0  0  0  0  0  0  0  0  0  0
   12.3030    3.5730   23.1070 C   0  0  0  0  0  0  0  0  0  0  0  0
   13.0840    4.8670   23.1180 C   0  0  0  0  0  0  0  0  0  0  0  0
    4.8460   -2.9690   21.0650 O   0  0  0  0  0  0  0  0  0  0  0  0
    6.8460   -3.9720   21.8030 C   0  0  2  0  0  0  0  0  0  0  0  0
   13.1250   -0.1920   22.4690 Cl  0  0  0  0  0  0  0  0  0  0  0  0
    9.1440    4.9700   23.7940 N   0  0  0  0  0  0  0  0  0  0  0  0
   10.6430    5.8800   22.7390 O   0  0  0  0  0  0  0  0  0  0  0  0
   10.7200    5.4790   24.6930 O   0  0  0  0  0  0  0  0  0  0  0  0
    6.3770    0.3950   17.8070 N   0  0  0  0  0  0  0  0  0  0  0  0
    4.5840    1.5160   18.9870 C   0  0  0  0  0  0  0  0  0  0  0  0
    9.3090   -1.8390   21.6760 C   0  0  0  0  0  0  0  0  0  0  0  0
    8.4810   -1.5840   23.8300 C   0  0  0  0  0  0  0  0  0  0  0  0
   12.9050    2.3750   22.8390 C   0  0  0  0  0  0  0  0  0  0  0  0
   13.1200    5.4680   21.7060 C   0  0  0  0  0  0  0  0  0  0  0  0
    6.9730   -4.8350   20.5260 C   0  0  0  0  0  0  0  0  0  0  0  0
    5.3030    1.1770   17.8360 C   0  0  0  0  0  0  0  0  0  0  0  0
   10.7900   -2.0270   22.1800 C   0  0  0  0  0  0  0  0  0  0  0  0
    9.7690   -1.7450   24.3520 C   0  0  0  0  0  0  0  0  0  0  0  0
    5.9650   -4.4280   22.9990 C   0  0  0  0  0  0  0  0  0  0  0  0
   10.9480   -1.9690   23.5710 C   0  0  0  0  0  0  0  0  0  0  0  0
    5.1240   -5.5660   23.0210 C   0  0  0  0  0  0  0  0  0  0  0  0
    6.0220   -3.5970   24.1230 C   0  0  0  0  0  0  0  0  0  0  0  0
   12.1760   -2.1120   24.4150 C   0  0  0  0  0  0  0  0  0  0  0  0
    4.3400   -5.8700   24.1580 C   0  0  0  0  0  0  0  0  0  0  0  0
    5.2820   -3.8450   25.2630 C   0  0  0  0  0  0  0  0  0  0  0  0
   12.4060   -0.9400   25.1540 C   0  0  0  0  0  0  0  0  0  0  0  0
   13.4490   -2.4540   23.6530 C   0  0  0  0  0  0  0  0  0  0  0  0
   11.8760   -3.2930   25.3420 C   0  0  0  0  0  0  0  0  0  0  0  0
    3.4390   -7.0340   24.2320 C   0  0  0  0  0  0  0  0  0  0  0  0
    4.4390   -4.9340   25.3510 C   0  0  0  0  0  0  0  0  0  0  0  0
    3.8900   -8.0550   24.7280 O   0  0  0  0  0  0  0  0  0  0  0  0
    2.0510   -6.9040   23.7420 N   0  0  0  0  0  0  0  0  0  0  0  0
    1.5610   -5.5770   23.3770 C   0  0  0  0  0  0  0  0  0  0  0  0
    1.0030   -7.9530   23.8100 C   0  0  0  0  0  0  0  0  0  0  0  0
    0.5510   -5.0370   24.3910 C   0  0  0  0  0  0  0  0  0  0  0  0
    0.0010   -7.6380   24.8120 C   0  0  0  0  0  0  0  0  0  0  0  0
   -0.9200   -6.1110   24.4220 S   0  0  0  0  0  0  0  0  0  0  0  0
  1  2  1  0
  2  3  1  0
  1  4  1  0
  4  5  2  0
  6  4  1  6
  6  7  1  0
  6  8  1  0
  3  9  2  0
  3 10  1  0
  9 11  1  0
  7 12  1  0
  8 13  2  0
  8 14  1  0
  7 15  1  0
 10 16  2  0
  9 17  1  0
 17 18  1  0
 12 19  2  0
 12 20  1  0
 16 21  1  0
 11 22  1  0
 11 23  1  0
 11 24  1  0
 14 25  2  0
 13 26  1  0
 15 27  2  0
 15 28  1  0
 16 29  1  0
 17 29  2  0
 18 30  1  0
 20 31  1  6
 25 32  1  0
 26 32  2  0
 27 33  1  0
 28 34  2  0
 20 35  1  0
 33 36  2  0
 34 36  1  0
 35 37  2  0
 35 38  1  0
 36 39  1  0
 37 40  1  0
 38 41  2  0
 39 42  1  0
 39 43  1  0
 39 44  1  0
 40 45  1  0
 40 46  2  0
 41 46  1  0
 45 47  2  0
 45 48  1  0
 48 49  1  0
 48 50  1  0
 49 51  1  0
 50 52  1  0
 51 53  1  0
 52 53  1  0
M  END
