x2643-x1380
     RDKit          3D

 34 37  0  0  0  0  0  0  0  0999 V2000
    7.1000   -3.3450   19.2940 C   0  0  0  0  0  0  0  0  0  0  0  0
    6.3370   -4.1970   20.3020 C   0  0  0  0  0  0  0  0  0  0  0  0
    5.2910   -4.7330   19.9540 O   0  0  0  0  0  0  0  0  0  0  0  0
    6.8800   -4.4280   21.5590 N   0  0  0  0  0  0  0  0  0  0  0  0
    6.3260   -5.4690   22.4270 C   0  0  0  0  0  0  0  0  0  0  0  0
    7.5170   -3.4370   22.2040 C   0  0  0  0  0  0  0  0  0  0  0  0
    6.3780   -5.0720   23.7770 C   0  0  0  0  0  0  0  0  0  0  0  0
    6.8400   -2.8170   23.2240 C   0  0  2  0  0  0  0  0  0  0  0  0
    7.8490   -2.1100   23.9190 C   0  0  0  0  0  0  0  0  0  0  0  0
    6.0090   -3.7200   23.9090 C   0  0  2  0  0  0  0  0  0  0  0  0
    5.7820   -3.2600   25.3700 C   0  0  0  0  0  0  0  0  0  0  0  0
    8.0960   -0.7020   23.3910 C   0  0  2  0  0  0  0  0  0  0  0  0
    4.7930   -2.2530   25.5110 O   0  0  0  0  0  0  0  0  0  0  0  0
    7.6140   -0.5760   21.9140 C   0  0  0  0  0  0  0  0  0  0  0  0
    6.4420   -3.7730   26.4910 N   0  0  0  0  0  0  0  0  0  0  0  0
    9.5070   -0.2960   23.4580 C   0  0  0  0  0  0  0  0  0  0  0  0
    6.7360   -0.8950   20.7980 N   0  0  0  0  0  0  0  0  0  0  0  0
    8.4190    0.2540   21.4680 O   0  0  0  0  0  0  0  0  0  0  0  0
    7.7260   -4.1150   26.4770 C   0  0  0  0  0  0  0  0  0  0  0  0
    5.8870   -3.6910   27.8420 C   0  0  0  0  0  0  0  0  0  0  0  0
   10.0070    0.6860   24.2640 C   0  0  0  0  0  0  0  0  0  0  0  0
   10.7060   -1.0440   22.4840 S   0  0  0  0  0  0  0  0  0  0  0  0
    8.0560   -5.2990   27.1400 C   0  0  0  0  0  0  0  0  0  0  0  0
    6.2190   -4.6900   28.7620 C   0  0  0  0  0  0  0  0  0  0  0  0
   11.8540   -0.0290   23.1610 C   0  0  0  0  0  0  0  0  0  0  0  0
   11.3840    0.8310   24.0710 C   0  0  0  0  0  0  0  0  0  0  0  0
    6.1390   -0.0370   19.8260 C   0  0  0  0  0  0  0  0  0  0  0  0
   13.4420   -0.1500   22.6740 Cl  0  0  0  0  0  0  0  0  0  0  0  0
    7.5230   -5.1990   28.5720 C   0  0  0  0  0  0  0  0  0  0  0  0
    6.7850    0.0860   18.6180 C   0  0  0  0  0  0  0  0  0  0  0  0
    4.9670    0.6680   20.0010 C   0  0  0  0  0  0  0  0  0  0  0  0
    6.3540    0.8460   17.5950 N   0  0  0  0  0  0  0  0  0  0  0  0
    4.4850    1.4650   18.9730 C   0  0  0  0  0  0  0  0  0  0  0  0
    5.2080    1.5270   17.7910 C   0  0  0  0  0  0  0  0  0  0  0  0
  1  2  1  0
  2  3  2  0
  2  4  1  0
  4  5  1  0
  4  6  1  0
  5  7  1  0
  6  8  1  0
  8  9  1  1
  7 10  1  0
  8 10  1  0
 10 11  1  1
 12  9  1  6
 11 13  2  0
 12 14  1  0
 11 15  1  0
 12 16  1  0
 14 17  1  0
 14 18  2  0
 15 19  1  0
 15 20  1  0
 16 21  2  0
 16 22  1  0
 19 23  1  0
 20 24  1  0
 22 25  1  0
 21 26  1  0
 25 26  2  0
 17 27  1  0
 25 28  1  0
 23 29  1  0
 24 29  1  0
 27 30  2  0
 27 31  1  0
 30 32  1  0
 31 33  2  0
 32 34  2  0
 33 34  1  0
M  END
