x2649-x0749
     RDKit          3D

 36 41  0  0  0  0  0  0  0  0999 V2000
    7.0950   -0.6210   21.6560 N   0  0  0  0  0  0  0  0  0  0  0  0
    8.5210   -0.9790   21.9320 C   0  0  0  0  0  0  0  0  0  0  0  0
    9.2230   -1.0230   20.9760 O   0  0  0  0  0  0  0  0  0  0  0  0
    6.5480   -0.0090   20.4480 C   0  0  0  0  0  0  0  0  0  0  0  0
    9.1340   -1.1780   23.3900 C   0  0  2  0  0  0  0  0  0  0  0  0
    5.4620    0.8740   20.5510 C   0  0  0  0  0  0  0  0  0  0  0  0
    7.0160   -0.2220   19.1210 C   0  0  0  0  0  0  0  0  0  0  0  0
    8.3570   -0.3430   24.4000 C   0  0  0  0  0  0  0  0  0  0  0  0
    4.8520    1.2070   21.9060 C   0  0  0  0  0  0  0  0  0  0  0  0
    6.5200    0.3380   17.9750 N   0  0  0  0  0  0  0  0  0  0  0  0
    4.9000    1.4800   19.4180 C   0  0  0  0  0  0  0  0  0  0  0  0
   10.5440   -0.8380   23.0690 C   0  0  2  0  0  0  0  0  0  0  0  0
    9.6270   -2.5040   24.2200 C   0  0  1  0  0  0  0  0  0  0  0  0
    5.4620    1.1780   18.1810 C   0  0  0  0  0  0  0  0  0  0  0  0
   11.5820   -0.7730   24.2030 C   0  0  2  0  0  0  0  0  0  0  0  0
   10.9440    0.2450   22.4200 C   0  0  0  0  0  0  0  0  0  0  0  0
    8.8100   -3.6790   24.5010 C   0  0  1  0  0  0  0  0  0  0  0  0
   11.1390   -3.0770   24.2030 C   0  0  2  0  0  0  0  0  0  0  0  0
   12.4720    0.1630   23.7790 C   0  0  0  0  0  0  0  0  0  0  0  0
   12.3420    0.2480   22.4780 C   0  0  1  0  0  0  0  0  0  0  0  0
    7.8220   -4.4070   23.5320 C   0  0  1  0  0  0  0  0  0  0  0  0
   10.0650   -4.9370   25.2390 S   0  0  0  0  0  0  0  0  0  0  0  0
   11.2380   -3.6690   25.5680 C   0  0  1  0  0  0  0  0  0  0  0  0
   12.1530   -2.1500   24.0680 C   0  0  2  0  0  0  0  0  0  0  0  0
   13.2070   -1.1100   21.8040 Cl  0  0  0  0  0  0  0  0  0  0  0  0
    7.9540   -3.9780   22.2250 C   0  0  0  0  0  0  0  0  0  0  0  0
    7.9730   -5.7840   23.6500 C   0  0  0  0  0  0  0  0  0  0  0  0
   13.2790   -2.1270   24.7830 C   0  0  0  0  0  0  0  0  0  0  0  0
   12.7110   -3.9110   26.0960 C   0  0  0  0  0  0  0  0  0  0  0  0
    7.0100   -4.5230   21.4170 N   0  0  0  0  0  0  0  0  0  0  0  0
    6.9590   -6.4390   22.9160 C   0  0  0  0  0  0  0  0  0  0  0  0
   13.6120   -2.9490   25.7870 C   0  0  0  0  0  0  0  0  0  0  0  0
    6.5380   -4.0110   20.1980 C   0  0  0  0  0  0  0  0  0  0  0  0
    6.3270   -5.6830   21.9420 C   0  0  0  0  0  0  0  0  0  0  0  0
    7.5040   -3.2260   19.3230 C   0  0  0  0  0  0  0  0  0  0  0  0
    5.3870   -4.2430   19.8150 O   0  0  0  0  0  0  0  0  0  0  0  0
  1  2  1  0
  2  3  2  0
  1  4  1  0
  5  2  1  0
  4  6  2  0
  4  7  1  0
  5  8  1  1
  6  9  1  0
  7 10  2  0
  6 11  1  0
  5 12  1  0
  5 13  1  0
 10 14  1  0
 11 14  2  0
 12 15  1  0
 12 16  1  1
 13 17  1  6
 13 18  1  0
 15 19  1  6
 16 20  1  0
 19 20  1  0
 17 21  1  0
 17 22  1  6
 18 23  1  1
 22 23  1  0
 15 24  1  0
 18 24  1  0
 20 25  1  6
 21 26  1  6
 21 27  1  0
 24 28  1  1
 23 29  1  6
 26 30  1  0
 27 31  1  0
 28 32  2  0
 29 32  1  0
 30 33  1  0
 30 34  1  0
 31 34  1  0
 33 35  1  0
 33 36  2  0
M  END
