x2646-x0731
     RDKit          3D

 39 42  0  0  0  0  0  0  0  0999 V2000
    1.0080   -1.0300   26.0200 C   0  0  0  0  0  0  0  0  0  0  0  0
    2.0550   -2.1000   25.9550 C   0  0  0  0  0  0  0  0  0  0  0  0
    3.3190   -1.7920   26.4670 C   0  0  0  0  0  0  0  0  0  0  0  0
    1.7260   -3.3400   25.3990 C   0  0  0  0  0  0  0  0  0  0  0  0
    2.6970   -4.3040   25.3650 C   0  0  0  0  0  0  0  0  0  0  0  0
    4.4220   -2.6740   26.5030 C   0  0  0  0  0  0  0  0  0  0  0  0
    3.9640   -4.0040   25.8860 C   0  0  0  0  0  0  0  0  0  0  0  0
    5.1400   -5.3670   25.8070 S   0  0  0  0  0  0  0  0  0  0  0  0
    6.1440   -5.0560   26.7870 O   0  0  0  0  0  0  0  0  0  0  0  0
    4.4040   -6.6030   25.8660 O   0  0  0  0  0  0  0  0  0  0  0  0
    5.8020   -5.2440   24.2590 N   0  0  0  0  0  0  0  0  0  0  0  0
    7.0330   -4.6390   24.0810 C   0  0  0  0  0  0  0  0  0  0  0  0
    5.3160   -6.1630   23.2030 C   0  0  0  0  0  0  0  0  0  0  0  0
    7.1340   -4.0610   22.6880 C   0  0  2  0  0  0  0  0  0  0  0  0
    6.2270   -6.2230   22.1470 C   0  0  0  0  0  0  0  0  0  0  0  0
    6.6050   -2.6260   22.8510 C   0  0  0  0  0  0  0  0  0  0  0  0
    6.6070   -4.8740   21.6860 N   0  0  0  0  0  0  0  0  0  0  0  0
    6.1960   -4.4140   20.4410 C   0  0  0  0  0  0  0  0  0  0  0  0
    7.6220   -1.7190   23.5890 C   0  0  0  0  0  0  0  0  0  0  0  0
    5.2160   -4.9360   19.9670 O   0  0  0  0  0  0  0  0  0  0  0  0
    6.9620   -3.3580   19.6520 C   0  0  0  0  0  0  0  0  0  0  0  0
    8.6530   -1.1750   22.5760 C   0  0  1  0  0  0  0  0  0  0  0  0
    8.0440   -0.1240   21.6040 C   0  0  0  0  0  0  0  0  0  0  0  0
   10.0890   -0.8510   22.8970 C   0  0  0  0  0  0  0  0  0  0  0  0
    8.6520    0.9320   21.3540 O   0  0  0  0  0  0  0  0  0  0  0  0
    6.8530   -0.3350   21.0230 N   0  0  0  0  0  0  0  0  0  0  0  0
   10.5680    0.0160   23.8580 C   0  0  0  0  0  0  0  0  0  0  0  0
   10.9710   -1.5010   22.1120 C   0  0  0  0  0  0  0  0  0  0  0  0
    6.2950    0.2780   19.9270 C   0  0  0  0  0  0  0  0  0  0  0  0
   11.9560    0.2200   24.0010 C   0  0  0  0  0  0  0  0  0  0  0  0
   12.3070   -1.3090   22.2440 C   0  0  0  0  0  0  0  0  0  0  0  0
   13.2590   -2.1860   21.1770 Cl  0  0  0  0  0  0  0  0  0  0  0  0
    6.8250    0.1500   18.6670 C   0  0  0  0  0  0  0  0  0  0  0  0
    5.1850    1.0450   20.0920 C   0  0  0  0  0  0  0  0  0  0  0  0
   12.8040   -0.4380   23.1990 C   0  0  0  0  0  0  0  0  0  0  0  0
    4.5470    1.2290   21.4400 C   0  0  0  0  0  0  0  0  0  0  0  0
    6.3290    0.7390   17.5810 N   0  0  0  0  0  0  0  0  0  0  0  0
    4.6270    1.6740   19.0050 C   0  0  0  0  0  0  0  0  0  0  0  0
    5.2380    1.4940   17.7670 C   0  0  0  0  0  0  0  0  0  0  0  0
  1  2  1  0
  2  3  2  0
  2  4  1  0
  4  5  2  0
  3  6  1  0
  5  7  1  0
  6  7  2  0
  8  7  1  0
  8  9  2  0
  8 10  2  0
  8 11  1  0
 11 12  1  0
 11 13  1  0
 12 14  1  0
 13 15  1  0
 14 16  1  1
 14 17  1  0
 15 17  1  0
 17 18  1  0
 16 19  1  0
 18 20  2  0
 18 21  1  0
 22 19  1  1
 22 23  1  0
 22 24  1  0
 23 25  2  0
 23 26  1  0
 24 27  2  0
 24 28  1  0
 26 29  1  0
 27 30  1  0
 28 31  2  0
 31 32  1  0
 29 33  2  0
 29 34  1  0
 30 35  2  0
 31 35  1  0
 34 36  1  0
 33 37  1  0
 34 38  2  0
 37 39  2  0
 38 39  1  0
M  END
