x2649-x0734
     RDKit          3D

 37 40  0  0  0  0  0  0  0  0999 V2000
    6.8650   -0.4940   21.1080 N   0  0  0  0  0  0  0  0  0  0  0  0
    8.0760   -0.0720   21.7710 C   0  0  0  0  0  0  0  0  0  0  0  0
    8.5230    1.0670   21.6460 O   0  0  0  0  0  0  0  0  0  0  0  0
    6.3190    0.1610   20.0110 C   0  0  0  0  0  0  0  0  0  0  0  0
    8.7520   -1.1510   22.5920 C   0  0  2  0  0  0  0  0  0  0  0  0
    5.2670    1.0410   20.1960 C   0  0  0  0  0  0  0  0  0  0  0  0
    6.7930   -0.0280   18.7240 C   0  0  0  0  0  0  0  0  0  0  0  0
    7.9350   -1.8780   23.6690 C   0  0  0  0  0  0  0  0  0  0  0  0
    4.6980    1.3030   21.5850 C   0  0  0  0  0  0  0  0  0  0  0  0
    6.2310    0.6650   17.5510 N   0  0  0  0  0  0  0  0  0  0  0  0
    4.6980    1.7200   19.1180 C   0  0  0  0  0  0  0  0  0  0  0  0
   10.1480   -0.7420   22.8780 C   0  0  0  0  0  0  0  0  0  0  0  0
    5.2220    1.4890   17.8450 C   0  0  0  0  0  0  0  0  0  0  0  0
   10.5640    0.2140   23.8160 C   0  0  0  0  0  0  0  0  0  0  0  0
   11.0640   -1.3800   22.1020 C   0  0  0  0  0  0  0  0  0  0  0  0
    7.1160   -3.0770   23.0980 C   0  0  2  0  0  0  0  0  0  0  0  0
   11.9290    0.4500   23.8710 C   0  0  0  0  0  0  0  0  0  0  0  0
   12.3970   -1.1100   22.1980 C   0  0  0  0  0  0  0  0  0  0  0  0
    6.5230   -4.0790   24.0270 N   0  0  0  0  0  0  0  0  0  0  0  0
    7.7410   -3.6820   22.0920 C   0  0  0  0  0  0  0  0  0  0  0  0
   13.3510   -1.9880   21.1430 Cl  0  0  0  0  0  0  0  0  0  0  0  0
   12.8820   -0.1710   23.0950 C   0  0  0  0  0  0  0  0  0  0  0  0
    7.2360   -4.6130   25.1200 C   0  0  0  0  0  0  0  0  0  0  0  0
    6.7530   -4.4200   21.3060 N   0  0  0  0  0  0  0  0  0  0  0  0
    5.6680   -5.1290   23.3920 C   0  0  0  0  0  0  0  0  0  0  0  0
    6.2120   -4.0000   20.0920 C   0  0  0  0  0  0  0  0  0  0  0  0
    6.5410   -4.9590   26.2710 C   0  0  0  0  0  0  0  0  0  0  0  0
    8.6080   -4.8170   25.0930 C   0  0  0  0  0  0  0  0  0  0  0  0
    6.1490   -5.5370   22.0150 C   0  0  0  0  0  0  0  0  0  0  0  0
    5.1070   -4.7680   26.3310 N   0  0  0  0  0  0  0  0  0  0  0  0
    5.0850   -4.3090   19.7520 O   0  0  0  0  0  0  0  0  0  0  0  0
    7.1180   -3.1980   19.1720 C   0  0  0  0  0  0  0  0  0  0  0  0
    9.2860   -5.3610   26.1790 C   0  0  0  0  0  0  0  0  0  0  0  0
    7.1600   -5.4980   27.4010 C   0  0  0  0  0  0  0  0  0  0  0  0
    4.4150   -5.6060   25.7320 O   0  0  0  0  0  0  0  0  0  0  0  0
    4.7010   -3.6920   26.7940 O   0  0  0  0  0  0  0  0  0  0  0  0
    8.5370   -5.7340   27.4450 C   0  0  0  0  0  0  0  0  0  0  0  0
  1  2  1  0
  2  3  2  0
  1  4  1  0
  2  5  1  0
  4  6  2  0
  4  7  1  0
  5  8  1  1
  6  9  1  0
  7 10  2  0
  6 11  1  0
  5 12  1  0
 10 13  1  0
 11 13  2  0
 12 14  2  0
 12 15  1  0
 16  8  1  1
 14 17  1  0
 15 18  2  0
 16 19  1  0
 16 20  1  0
 18 21  1  0
 17 22  2  0
 18 22  1  0
 19 23  1  0
 20 24  1  0
 19 25  1  0
 24 26  1  0
 23 27  2  0
 23 28  1  0
 24 29  1  0
 25 29  1  0
 27 30  1  0
 26 31  2  0
 26 32  1  0
 28 33  2  0
 27 34  1  0
 30 35  2  0
 30 36  1  0
 33 37  1  0
 34 37  2  0
M  CHG  2  30   1  36  -1
M  END
