x2643-x1458
     RDKit          3D

 33 35  0  0  0  0  0  0  0  0999 V2000
    7.3230   -3.4540   26.4720 N   0  0  0  0  0  0  0  0  0  0  0  0
    7.7400   -4.6000   27.2860 C   0  0  0  0  0  0  0  0  0  0  0  0
    8.9280   -5.4770   26.8830 C   0  0  0  0  0  0  0  0  0  0  0  0
    7.8050   -2.1900   26.8510 C   0  0  0  0  0  0  0  0  0  0  0  0
    6.1760   -3.6270   25.5050 C   0  0  0  0  0  0  0  0  0  0  0  0
    5.0060   -3.5910   25.8910 O   0  0  0  0  0  0  0  0  0  0  0  0
    6.5640   -5.5320   27.5740 C   0  0  0  0  0  0  0  0  0  0  0  0
    6.4420   -3.8240   24.0040 C   0  0  1  0  0  0  0  0  0  0  0  0
    7.7890   -3.6630   23.7210 C   0  0  0  0  0  0  0  0  0  0  0  0
    6.0250   -5.2540   23.6120 C   0  0  0  0  0  0  0  0  0  0  0  0
    7.9360   -3.8230   22.3450 C   0  0  2  0  0  0  0  0  0  0  0  0
    6.4050   -5.6120   22.3200 C   0  0  0  0  0  0  0  0  0  0  0  0
    8.4480   -2.6680   21.7760 C   0  0  0  0  0  0  0  0  0  0  0  0
    6.9230   -4.4370   21.6170 N   0  0  0  0  0  0  0  0  0  0  0  0
    6.4440   -4.1240   20.2880 C   0  0  0  0  0  0  0  0  0  0  0  0
    8.2630   -1.3370   22.4980 C   0  0  2  0  0  0  0  0  0  0  0  0
    5.3620   -4.5830   19.9250 O   0  0  0  0  0  0  0  0  0  0  0  0
    7.2880   -3.2970   19.2760 C   0  0  0  0  0  0  0  0  0  0  0  0
    7.7700   -0.4430   21.5620 C   0  0  0  0  0  0  0  0  0  0  0  0
    9.5130   -0.6890   22.9620 C   0  0  0  0  0  0  0  0  0  0  0  0
    6.6100   -0.6750   20.9270 N   0  0  0  0  0  0  0  0  0  0  0  0
    8.4470    0.5660   21.3410 O   0  0  0  0  0  0  0  0  0  0  0  0
    9.5980    0.3200   23.9770 C   0  0  0  0  0  0  0  0  0  0  0  0
   11.0080   -1.1250   22.2360 S   0  0  0  0  0  0  0  0  0  0  0  0
   11.7930   -0.0040   23.1800 C   0  0  0  0  0  0  0  0  0  0  0  0
   10.8900    0.7300   24.1140 C   0  0  0  0  0  0  0  0  0  0  0  0
    6.1540    0.0260   19.8620 C   0  0  0  0  0  0  0  0  0  0  0  0
   13.4260    0.1710   22.9740 Cl  0  0  0  0  0  0  0  0  0  0  0  0
    6.8010    0.0930   18.6540 C   0  0  0  0  0  0  0  0  0  0  0  0
    4.9550    0.7200   20.0170 C   0  0  0  0  0  0  0  0  0  0  0  0
    6.3670    0.7900   17.5970 N   0  0  0  0  0  0  0  0  0  0  0  0
    4.4720    1.4510   18.9520 C   0  0  0  0  0  0  0  0  0  0  0  0
    5.2090    1.4570   17.7740 C   0  0  0  0  0  0  0  0  0  0  0  0
  1  2  1  0
  2  3  1  0
  1  4  1  0
  1  5  1  0
  5  6  2  0
  2  7  1  0
  8  5  1  1
  8  9  1  0
  8 10  1  0
  9 11  1  0
 10 12  1  0
 11 13  1  6
 11 14  1  0
 12 14  1  0
 14 15  1  0
 16 13  1  6
 15 17  2  0
 15 18  1  0
 16 19  1  0
 16 20  1  0
 19 21  1  0
 19 22  2  0
 20 23  2  0
 20 24  1  0
 24 25  1  0
 23 26  1  0
 25 26  2  0
 21 27  1  0
 25 28  1  0
 27 29  2  0
 27 30  1  0
 29 31  1  0
 30 32  2  0
 31 33  2  0
 32 33  1  0
M  END
