x2646-x0752
     RDKit          3D

 34 37  0  0  0  0  0  0  0  0999 V2000
    4.6890    1.4250   21.6290 C   0  0  0  0  0  0  0  0  0  0  0  0
    5.2810    1.1560   20.2870 C   0  0  0  0  0  0  0  0  0  0  0  0
    6.4120    0.3720   20.0910 C   0  0  0  0  0  0  0  0  0  0  0  0
    4.7050    1.7000   19.1260 C   0  0  0  0  0  0  0  0  0  0  0  0
    7.1190   -0.2460   21.1500 N   0  0  0  0  0  0  0  0  0  0  0  0
    6.8410    0.2050   18.7920 C   0  0  0  0  0  0  0  0  0  0  0  0
    5.2380    1.4660   17.8550 C   0  0  0  0  0  0  0  0  0  0  0  0
    8.2200    0.4170   21.6360 C   0  0  0  0  0  0  0  0  0  0  0  0
    7.3250   -1.6330   20.7780 C   0  0  0  0  0  0  0  0  0  0  0  0
    6.3250    0.7060   17.6680 N   0  0  0  0  0  0  0  0  0  0  0  0
    8.7450    1.4390   21.1630 O   0  0  0  0  0  0  0  0  0  0  0  0
    8.7810   -0.2670   22.8740 C   0  0  0  0  0  0  0  0  0  0  0  0
    7.5890   -2.7240   21.8220 C   0  0  0  0  0  0  0  0  0  0  0  0
    7.1520   -4.0770   21.4090 N   0  0  0  0  0  0  0  0  0  0  0  0
   10.2600   -0.3190   22.7550 C   0  0  0  0  0  0  0  0  0  0  0  0
    6.5550   -4.0760   20.1620 C   0  0  0  0  0  0  0  0  0  0  0  0
    6.9000   -5.0920   22.4170 C   0  0  0  0  0  0  0  0  0  0  0  0
   10.9520    0.7740   23.1900 C   0  0  0  0  0  0  0  0  0  0  0  0
   10.9380   -1.3950   22.2240 C   0  0  0  0  0  0  0  0  0  0  0  0
    7.3440   -3.3970   19.0550 C   0  0  0  0  0  0  0  0  0  0  0  0
    5.4860   -4.6440   19.9450 O   0  0  0  0  0  0  0  0  0  0  0  0
   12.3330    0.8320   23.1390 C   0  0  0  0  0  0  0  0  0  0  0  0
   12.3070   -1.3350   22.1550 C   0  0  0  0  0  0  0  0  0  0  0  0
    5.7860   -4.6120   23.2730 C   0  0  0  0  0  0  0  0  0  0  0  0
   13.1160   -2.6440   21.4720 Cl  0  0  0  0  0  0  0  0  0  0  0  0
   12.9890   -0.2250   22.6230 C   0  0  0  0  0  0  0  0  0  0  0  0
    4.5520   -5.2340   23.2520 C   0  0  0  0  0  0  0  0  0  0  0  0
    6.0180   -3.4870   24.0960 C   0  0  0  0  0  0  0  0  0  0  0  0
    3.5690   -4.7000   24.0530 C   0  0  0  0  0  0  0  0  0  0  0  0
    5.0140   -2.9580   24.8940 C   0  0  0  0  0  0  0  0  0  0  0  0
    3.8020   -3.5810   24.8500 C   0  0  0  0  0  0  0  0  0  0  0  0
    2.3040   -5.1620   24.1710 O   0  0  0  0  0  0  0  0  0  0  0  0
    2.7040   -3.2140   25.5510 O   0  0  0  0  0  0  0  0  0  0  0  0
    1.8030   -4.2890   25.2070 C   0  0  0  0  0  0  0  0  0  0  0  0
  1  2  1  0
  2  3  2  0
  2  4  1  0
  3  5  1  0
  3  6  1  0
  4  7  2  0
  5  8  1  0
  5  9  1  0
  6 10  2  0
  7 10  1  0
  8 11  2  0
  8 12  1  0
  9 13  1  0
 13 14  1  0
 12 15  1  0
 14 16  1  0
 14 17  1  0
 15 18  2  0
 15 19  1  0
 16 20  1  0
 16 21  2  0
 18 22  1  0
 19 23  2  0
 17 24  1  0
 23 25  1  0
 22 26  2  0
 23 26  1  0
 24 27  2  0
 24 28  1  0
 27 29  1  0
 28 30  2  0
 29 31  2  0
 30 31  1  0
 29 32  1  0
 31 33  1  0
 32 34  1  0
 33 34  1  0
M  END
