x2646-x1412
     RDKit          3D

 34 38  0  0  0  0  0  0  0  0999 V2000
    4.6260    0.9550   21.6040 C   0  0  0  0  0  0  0  0  0  0  0  0
    5.2650    0.8290   20.2540 C   0  0  0  0  0  0  0  0  0  0  0  0
    6.4480    0.1510   20.0130 C   0  0  0  0  0  0  0  0  0  0  0  0
    4.6220    1.4490   19.1490 C   0  0  0  0  0  0  0  0  0  0  0  0
    7.2470   -0.5060   20.9860 N   0  0  0  0  0  0  0  0  0  0  0  0
    6.9290    0.0950   18.7530 C   0  0  0  0  0  0  0  0  0  0  0  0
    5.1770    1.3610   17.8840 C   0  0  0  0  0  0  0  0  0  0  0  0
    8.2430    0.2370   21.5320 C   0  0  0  0  0  0  0  0  0  0  0  0
    6.2980    0.7110   17.6140 N   0  0  0  0  0  0  0  0  0  0  0  0
    7.0230   -1.7000   21.6950 C   0  0  1  0  0  0  0  0  0  0  0  0
    8.7340    1.3260   21.1760 O   0  0  0  0  0  0  0  0  0  0  0  0
    8.6610   -0.6030   22.7190 C   0  0  1  0  0  0  0  0  0  0  0  0
    6.4890   -2.9600   21.2070 N   0  0  0  0  0  0  0  0  0  0  0  0
    8.2150   -2.0100   22.3960 C   0  0  1  0  0  0  0  0  0  0  0  0
    6.3000   -3.4240   19.9460 C   0  0  0  0  0  0  0  0  0  0  0  0
   10.1120   -0.4340   22.8810 C   0  0  0  0  0  0  0  0  0  0  0  0
    8.1890   -2.9090   23.3990 N   0  0  0  0  0  0  0  0  0  0  0  0
    6.4210   -4.0080   22.2570 C   0  0  0  0  0  0  0  0  0  0  0  0
    7.3280   -3.0190   18.8890 C   0  0  0  0  0  0  0  0  0  0  0  0
    5.3490   -4.1580   19.7130 O   0  0  0  0  0  0  0  0  0  0  0  0
    8.3470   -2.6830   24.7730 C   0  0  0  0  0  0  0  0  0  0  0  0
   10.6160    0.4810   23.7990 C   0  0  0  0  0  0  0  0  0  0  0  0
   10.9220   -1.1920   22.0890 C   0  0  0  0  0  0  0  0  0  0  0  0
    7.5930   -4.1970   22.9980 C   0  0  0  0  0  0  0  0  0  0  0  0
    8.2910   -1.4280   25.2890 O   0  0  0  0  0  0  0  0  0  0  0  0
   11.9960    0.6530   23.9230 C   0  0  0  0  0  0  0  0  0  0  0  0
   12.4130   -1.0570   22.1690 C   0  0  0  0  0  0  0  0  0  0  0  0
    8.5750   -3.8880   25.6420 C   0  0  0  0  0  0  0  0  0  0  0  0
   13.3220   -2.0090   21.1420 Cl  0  0  0  0  0  0  0  0  0  0  0  0
   12.9510   -0.1620   23.0540 C   0  0  0  0  0  0  0  0  0  0  0  0
    9.3710   -5.0050   25.4100 C   0  0  0  0  0  0  0  0  0  0  0  0
    7.7730   -4.0140   27.2070 S   0  0  0  0  0  0  0  0  0  0  0  0
    8.5140   -5.5270   27.5030 C   0  0  0  0  0  0  0  0  0  0  0  0
    9.3570   -5.9630   26.4610 C   0  0  0  0  0  0  0  0  0  0  0  0
  1  2  1  0
  2  3  2  0
  2  4  1  0
  3  5  1  0
  3  6  1  0
  4  7  2  0
  5  8  1  0
  6  9  2  0
  7  9  1  0
 10  5  1  6
  8 11  2  0
  8 12  1  0
 10 13  1  0
 10 14  1  0
 12 14  1  0
 13 15  1  0
 12 16  1  6
 14 17  1  1
 13 18  1  0
 15 19  1  0
 15 20  2  0
 17 21  1  0
 16 22  2  0
 16 23  1  0
 17 24  1  0
 18 24  1  0
 21 25  2  0
 22 26  1  0
 23 27  2  0
 21 28  1  0
 27 29  1  0
 26 30  2  0
 27 30  1  0
 28 31  2  0
 28 32  1  0
 32 33  1  0
 31 34  1  0
 33 34  2  0
M  END
