x2643-x3110
     RDKit          3D

 34 35  0  0  0  0  0  0  0  0999 V2000
    7.8800    1.2680   23.2520 N   0  0  0  0  0  0  0  0  0  0  0  0
    8.5730    2.5410   23.6890 C   0  0  0  0  0  0  0  0  0  0  0  0
   10.0790    2.3350   23.5670 C   0  0  0  0  0  0  0  0  0  0  0  0
    7.7540    0.7690   21.8620 C   0  0  0  0  0  0  0  0  0  0  0  0
    8.4710    1.3330   21.0110 O   0  0  0  0  0  0  0  0  0  0  0  0
    6.7190   -0.3870   21.5870 C   0  0  2  0  0  0  0  0  0  0  0  0
    7.0220   -1.7510   21.7560 N   0  0  0  0  0  0  0  0  0  0  0  0
   10.8240    3.6520   23.3300 C   0  0  0  0  0  0  0  0  0  0  0  0
    6.1620    0.0990   20.2580 C   0  0  0  0  0  0  0  0  0  0  0  0
   11.4690    3.6060   22.2850 O   0  0  0  0  0  0  0  0  0  0  0  0
   10.7640    4.7650   24.2100 O   0  0  0  0  0  0  0  0  0  0  0  0
    6.1590   -2.9510   21.4570 C   0  0  0  0  0  0  0  0  0  0  0  0
    5.0120    0.8690   20.2440 C   0  0  0  0  0  0  0  0  0  0  0  0
    6.8040   -0.1920   19.0730 C   0  0  0  0  0  0  0  0  0  0  0  0
    8.2940   -1.8090   22.4310 C   0  0  0  0  0  0  0  0  0  0  0  0
   12.1460    4.5950   21.9990 C   0  0  0  0  0  0  0  0  0  0  0  0
    4.8970   -3.0470   21.0610 O   0  0  0  0  0  0  0  0  0  0  0  0
    6.7540   -4.3590   21.6620 C   0  0  0  0  0  0  0  0  0  0  0  0
    6.3610    0.2550   17.8970 N   0  0  0  0  0  0  0  0  0  0  0  0
    4.5320    1.3450   19.0160 C   0  0  0  0  0  0  0  0  0  0  0  0
    9.3860   -2.0570   21.6580 C   0  0  0  0  0  0  0  0  0  0  0  0
    8.5160   -1.5940   23.9150 C   0  0  0  0  0  0  0  0  0  0  0  0
   13.3430    4.9970   22.8580 C   0  0  0  0  0  0  0  0  0  0  0  0
    8.1570   -4.5770   21.0010 C   0  0  0  0  0  0  0  0  0  0  0  0
    5.2450    1.0170   17.8510 C   0  0  0  0  0  0  0  0  0  0  0  0
   10.6560   -2.1230   22.1650 C   0  0  0  0  0  0  0  0  0  0  0  0
    9.7980   -1.6580   24.3840 C   0  0  0  0  0  0  0  0  0  0  0  0
   10.8720   -1.9240   23.5180 C   0  0  0  0  0  0  0  0  0  0  0  0
   12.3030   -1.9710   24.1000 C   0  0  0  0  0  0  0  0  0  0  0  0
   12.5840   -0.6700   24.3770 C   0  0  0  0  0  0  0  0  0  0  0  0
   13.3040   -2.3150   22.9810 C   0  0  0  0  0  0  0  0  0  0  0  0
   12.5950   -2.9530   25.0430 C   0  0  0  0  0  0  0  0  0  0  0  0
   12.9350    0.0230   23.0590 C   0  0  0  0  0  0  0  0  0  0  0  0
   12.6940    1.7310   23.1120 Cl  0  0  0  0  0  0  0  0  0  0  0  0
  1  2  1  0
  2  3  1  0
  1  4  1  0
  4  5  2  0
  6  4  1  6
  6  7  1  0
  3  8  1  0
  6  9  1  0
  8 10  1  0
  8 11  2  0
  7 12  1  0
  9 13  2  0
  9 14  1  0
  7 15  1  0
 10 16  1  0
 12 17  2  0
 12 18  1  0
 14 19  2  0
 13 20  1  0
 15 21  2  0
 15 22  1  0
 16 23  1  0
 18 24  1  0
 19 25  1  0
 20 25  2  0
 21 26  1  0
 22 27  2  0
 26 28  2  0
 27 28  1  0
 28 29  1  0
 29 30  1  0
 29 31  1  0
 29 32  1  0
 30 33  1  0
 33 34  1  0
M  END
