x2649-x0769
     RDKit          3D

 40 43  0  0  0  0  0  0  0  0999 V2000
    5.8160   -5.2410   26.8550 O   0  0  0  0  0  0  0  0  0  0  0  0
    4.7750   -5.3540   25.8610 S   0  0  0  0  0  0  0  0  0  0  0  0
    3.8540   -6.4650   25.9010 O   0  0  0  0  0  0  0  0  0  0  0  0
    3.7790   -3.8750   25.8790 C   0  0  0  0  0  0  0  0  0  0  0  0
    5.5310   -5.4090   24.3290 N   0  0  0  0  0  0  0  0  0  0  0  0
    4.3110   -2.5910   26.0450 C   0  0  0  0  0  0  0  0  0  0  0  0
    2.3890   -4.0150   25.7240 C   0  0  0  0  0  0  0  0  0  0  0  0
    4.8980   -5.8680   23.2310 C   0  0  0  0  0  0  0  0  0  0  0  0
    6.7420   -4.5460   24.0700 C   0  0  0  0  0  0  0  0  0  0  0  0
    5.7290   -2.4420   26.2030 O   0  0  0  0  0  0  0  0  0  0  0  0
    1.5510   -2.9110   25.7380 C   0  0  0  0  0  0  0  0  0  0  0  0
    3.4710   -1.4600   26.0620 C   0  0  0  0  0  0  0  0  0  0  0  0
    5.8590   -6.1330   22.2420 C   0  0  0  0  0  0  0  0  0  0  0  0
    7.0240   -4.0650   22.7980 C   0  0  0  0  0  0  0  0  0  0  0  0
    6.2460   -1.1380   25.9010 C   0  0  0  0  0  0  0  0  0  0  0  0
    2.0940   -1.6430   25.9080 C   0  0  0  0  0  0  0  0  0  0  0  0
    6.5560   -4.9670   21.7670 N   0  0  0  0  0  0  0  0  0  0  0  0
    6.2510   -4.4350   20.5140 C   0  0  0  0  0  0  0  0  0  0  0  0
    7.6510   -1.2600   25.2780 C   0  0  0  0  0  0  0  0  0  0  0  0
    5.2520   -4.8160   19.9460 O   0  0  0  0  0  0  0  0  0  0  0  0
    7.1110   -3.3740   19.8230 C   0  0  0  0  0  0  0  0  0  0  0  0
    7.7950   -0.3660   24.0860 C   0  0  0  0  0  0  0  0  0  0  0  0
    8.5630   -0.9200   22.8690 C   0  0  1  0  0  0  0  0  0  0  0  0
    8.1470   -0.0980   21.6680 C   0  0  0  0  0  0  0  0  0  0  0  0
   10.0670   -0.7810   22.9750 C   0  0  0  0  0  0  0  0  0  0  0  0
    6.9920   -0.5430   21.0690 N   0  0  0  0  0  0  0  0  0  0  0  0
    8.7840    0.8850   21.2970 O   0  0  0  0  0  0  0  0  0  0  0  0
   10.6430    0.1250   23.8810 C   0  0  0  0  0  0  0  0  0  0  0  0
   10.8990   -1.5310   22.1650 C   0  0  0  0  0  0  0  0  0  0  0  0
    6.3940    0.1240   20.0030 C   0  0  0  0  0  0  0  0  0  0  0  0
   12.0330    0.2650   23.9510 C   0  0  0  0  0  0  0  0  0  0  0  0
   12.2200   -1.3930   22.2360 C   0  0  0  0  0  0  0  0  0  0  0  0
   13.1510   -2.3520   21.1940 Cl  0  0  0  0  0  0  0  0  0  0  0  0
    5.3080    0.9780   20.1890 C   0  0  0  0  0  0  0  0  0  0  0  0
    6.8170    0.0180   18.6570 C   0  0  0  0  0  0  0  0  0  0  0  0
   12.8140   -0.4970   23.1240 C   0  0  0  0  0  0  0  0  0  0  0  0
    4.7370    1.1970   21.5600 C   0  0  0  0  0  0  0  0  0  0  0  0
    6.2650    0.6620   17.6210 N   0  0  0  0  0  0  0  0  0  0  0  0
    4.7010    1.6690   19.1410 C   0  0  0  0  0  0  0  0  0  0  0  0
    5.1520    1.5420   17.8420 C   0  0  0  0  0  0  0  0  0  0  0  0
  1  2  2  0
  2  3  2  0
  2  4  1  0
  2  5  1  0
  4  6  1  0
  4  7  2  0
  5  8  1  0
  5  9  1  0
  6 10  1  0
  7 11  1  0
  6 12  2  0
  8 13  1  0
  9 14  1  0
 10 15  1  0
 11 16  2  0
 12 16  1  0
 13 17  1  0
 14 17  1  0
 17 18  1  0
 15 19  1  0
 18 20  2  0
 18 21  1  0
 19 22  1  0
 23 22  1  1
 23 24  1  0
 23 25  1  0
 24 26  1  0
 24 27  2  0
 25 28  2  0
 25 29  1  0
 26 30  1  0
 28 31  1  0
 29 32  2  0
 32 33  1  0
 30 34  2  0
 30 35  1  0
 31 36  2  0
 32 36  1  0
 34 37  1  0
 35 38  2  0
 34 39  1  0
 38 40  1  0
 39 40  2  0
M  END
