x2646-x0540
     RDKit          3D

 29 31  0  0  0  0  0  0  0  0999 V2000
    4.3760    0.6800   21.4920 C   0  0  0  0  0  0  0  0  0  0  0  0
    4.9460    1.5930   22.5790 C   0  0  0  0  0  0  0  0  0  0  0  0
    4.1180    2.8100   22.8170 N   0  0  0  0  0  0  0  0  0  0  0  0
    5.1260    0.6580   20.1740 C   0  0  0  0  0  0  0  0  0  0  0  0
    6.3250    0.0070   19.9620 C   0  0  0  0  0  0  0  0  0  0  0  0
    4.5810    1.3180   19.1250 C   0  0  0  0  0  0  0  0  0  0  0  0
    6.9360   -0.6670   21.0310 N   0  0  0  0  0  0  0  0  0  0  0  0
    3.0360    2.4620   23.4910 C   0  0  0  0  0  0  0  0  0  0  0  0
    6.9190    0.0170   18.7490 C   0  0  0  0  0  0  0  0  0  0  0  0
    5.2380    1.3130   17.8830 C   0  0  0  0  0  0  0  0  0  0  0  0
    8.0540   -0.1480   21.6610 C   0  0  0  0  0  0  0  0  0  0  0  0
    3.0230    1.5230   24.3000 O   0  0  0  0  0  0  0  0  0  0  0  0
    1.8670    3.3100   23.1970 N   0  0  0  0  0  0  0  0  0  0  0  0
    6.3950    0.6600   17.7070 N   0  0  0  0  0  0  0  0  0  0  0  0
    8.6330    0.8790   21.3020 O   0  0  0  0  0  0  0  0  0  0  0  0
    8.5310   -0.9560   22.8690 C   0  0  0  0  0  0  0  0  0  0  0  0
    0.6380    3.2070   23.8980 C   0  0  0  0  0  0  0  0  0  0  0  0
   10.0120   -0.7660   23.0010 C   0  0  0  0  0  0  0  0  0  0  0  0
    0.6050    4.2610   24.8090 C   0  0  0  0  0  0  0  0  0  0  0  0
   -0.4800    3.0760   23.1040 C   0  0  0  0  0  0  0  0  0  0  0  0
   10.6060    0.1090   23.8950 C   0  0  0  0  0  0  0  0  0  0  0  0
   10.9420   -1.5470   22.1090 C   0  0  0  0  0  0  0  0  0  0  0  0
   -0.5060    5.0930   24.5600 C   0  0  0  0  0  0  0  0  0  0  0  0
   -1.6880    3.2320   23.7800 C   0  0  0  0  0  0  0  0  0  0  0  0
   11.9930    0.2730   23.9680 C   0  0  0  0  0  0  0  0  0  0  0  0
   12.2980   -1.3820   22.1860 C   0  0  0  0  0  0  0  0  0  0  0  0
   -1.7090    4.3810   24.5680 C   0  0  0  0  0  0  0  0  0  0  0  0
   13.2340   -2.3030   21.1350 Cl  0  0  0  0  0  0  0  0  0  0  0  0
   12.8330   -0.4700   23.1160 C   0  0  0  0  0  0  0  0  0  0  0  0
  1  2  1  0
  2  3  1  0
  1  4  1  0
  4  5  1  0
  4  6  2  0
  5  7  1  0
  3  8  1  0
  5  9  2  0
  6 10  1  0
  7 11  1  0
  8 12  2  0
  8 13  1  0
  9 14  1  0
 10 14  2  0
 11 15  2  0
 11 16  1  0
 13 17  1  0
 16 18  1  0
 17 19  1  0
 17 20  1  0
 18 21  2  0
 18 22  1  0
 19 23  1  0
 20 24  1  0
 21 25  1  0
 22 26  2  0
 23 27  1  0
 24 27  1  0
 26 28  1  0
 25 29  2  0
 26 29  1  0
M  END
