x2646-x0820
     RDKit          3D

 35 38  0  0  0  0  0  0  0  0999 V2000
    6.7590   -4.8020   21.8300 N   0  0  0  0  0  0  0  0  0  0  0  0
    7.0680   -3.9160   22.8790 C   0  0  1  0  0  0  0  0  0  0  0  0
    6.8470   -2.4480   22.6450 C   0  0  0  0  0  0  0  0  0  0  0  0
    6.2910   -4.5080   20.5410 C   0  0  0  0  0  0  0  0  0  0  0  0
    5.3740   -5.1420   20.0400 O   0  0  0  0  0  0  0  0  0  0  0  0
    6.9690   -3.4190   19.7070 C   0  0  0  0  0  0  0  0  0  0  0  0
    6.2810   -4.2430   24.1350 C   0  0  0  0  0  0  0  0  0  0  0  0
    7.9530   -1.5390   23.1240 C   0  0  0  0  0  0  0  0  0  0  0  0
    6.8620   -4.3340   25.3960 C   0  0  0  0  0  0  0  0  0  0  0  0
    4.9220   -4.4250   23.8840 C   0  0  0  0  0  0  0  0  0  0  0  0
    8.7180   -0.9430   22.1830 C   0  0  1  0  0  0  0  0  0  0  0  0
    6.0090   -4.6170   26.4340 C   0  0  0  0  0  0  0  0  0  0  0  0
    3.9180   -4.7220   24.8340 C   0  0  0  0  0  0  0  0  0  0  0  0
    8.2500   -4.1580   25.6910 C   0  0  0  0  0  0  0  0  0  0  0  0
    8.1870    0.1010   21.4910 C   0  0  0  0  0  0  0  0  0  0  0  0
    4.6340   -4.8020   26.2050 C   0  0  0  0  0  0  0  0  0  0  0  0
    6.5160   -4.7200   27.7380 C   0  0  0  0  0  0  0  0  0  0  0  0
    8.7270   -4.2710   26.9960 C   0  0  0  0  0  0  0  0  0  0  0  0
   10.1250   -0.6620   22.6250 C   0  0  0  0  0  0  0  0  0  0  0  0
    8.9670    1.2070   21.2520 O   0  0  0  0  0  0  0  0  0  0  0  0
    6.9840   -0.1150   21.1330 N   0  0  0  0  0  0  0  0  0  0  0  0
    7.8330   -4.5530   28.0100 C   0  0  0  0  0  0  0  0  0  0  0  0
   10.5320    0.2490   23.5870 C   0  0  0  0  0  0  0  0  0  0  0  0
   11.0320   -1.3920   21.9780 C   0  0  0  0  0  0  0  0  0  0  0  0
    6.3820    0.4000   19.9950 C   0  0  0  0  0  0  0  0  0  0  0  0
   11.9170    0.3800   23.8430 C   0  0  0  0  0  0  0  0  0  0  0  0
   12.3480   -1.2660   22.2180 C   0  0  0  0  0  0  0  0  0  0  0  0
   13.2790   -2.2750   21.2670 Cl  0  0  0  0  0  0  0  0  0  0  0  0
    6.8600    0.1810   18.7220 C   0  0  0  0  0  0  0  0  0  0  0  0
    5.2680    1.1650   20.1470 C   0  0  0  0  0  0  0  0  0  0  0  0
   12.8060   -0.3640   23.1680 C   0  0  0  0  0  0  0  0  0  0  0  0
    4.6770    1.4430   21.4970 C   0  0  0  0  0  0  0  0  0  0  0  0
    6.3180    0.6760   17.6240 N   0  0  0  0  0  0  0  0  0  0  0  0
    4.6570    1.7050   19.0390 C   0  0  0  0  0  0  0  0  0  0  0  0
    5.2310    1.4300   17.8030 C   0  0  0  0  0  0  0  0  0  0  0  0
  1  2  1  0
  2  3  1  6
  1  4  1  0
  4  5  2  0
  4  6  1  0
  2  7  1  0
  3  8  1  0
  7  9  1  0
  7 10  2  0
 11  8  1  1
  9 12  2  0
 10 13  1  0
  9 14  1  0
 11 15  1  0
 12 16  1  0
 13 16  2  0
 12 17  1  0
 14 18  2  0
 11 19  1  0
 15 20  2  0
 15 21  1  0
 17 22  2  0
 18 22  1  0
 19 23  2  0
 19 24  1  0
 21 25  1  0
 23 26  1  0
 24 27  2  0
 27 28  1  0
 25 29  2  0
 25 30  1  0
 26 31  2  0
 27 31  1  0
 30 32  1  0
 29 33  1  0
 30 34  2  0
 33 35  2  0
 34 35  1  0
M  END
