x2646-x1308
     RDKit          3D

 39 42  0  0  0  0  0  0  0  0999 V2000
    7.3970   -3.4120   19.8450 C   0  0  0  0  0  0  0  0  0  0  0  0
    6.4040   -4.3640   20.5270 C   0  0  0  0  0  0  0  0  0  0  0  0
    5.3660   -4.6560   19.9520 O   0  0  0  0  0  0  0  0  0  0  0  0
    6.6520   -4.9500   21.7700 N   0  0  0  0  0  0  0  0  0  0  0  0
    7.1970   -4.1760   22.8800 C   0  0  1  0  0  0  0  0  0  0  0  0
    5.9910   -6.1410   22.1980 C   0  0  0  0  0  0  0  0  0  0  0  0
    6.7440   -2.6990   22.8740 C   0  0  0  0  0  0  0  0  0  0  0  0
    6.9390   -4.8160   24.0110 C   0  0  0  0  0  0  0  0  0  0  0  0
    5.0890   -6.0320   23.2590 C   0  0  0  0  0  0  0  0  0  0  0  0
    7.7580   -1.6830   23.4910 C   0  0  0  0  0  0  0  0  0  0  0  0
    5.7540   -5.4250   24.2710 N   0  0  0  0  0  0  0  0  0  0  0  0
    5.2240   -5.5850   25.8680 S   0  0  0  0  0  0  0  0  0  0  0  0
    8.6880   -1.1530   22.3960 C   0  0  1  0  0  0  0  0  0  0  0  0
    6.2500   -5.1760   26.7860 O   0  0  0  0  0  0  0  0  0  0  0  0
    4.5700   -6.8650   25.9910 O   0  0  0  0  0  0  0  0  0  0  0  0
    8.0350   -0.0820   21.5450 C   0  0  0  0  0  0  0  0  0  0  0  0
    3.9620   -4.3640   26.0060 C   0  0  0  0  0  0  0  0  0  0  0  0
   10.0990   -0.7860   22.7400 C   0  0  0  0  0  0  0  0  0  0  0  0
    8.5970    0.9830   21.2910 O   0  0  0  0  0  0  0  0  0  0  0  0
    6.7920   -0.4700   21.1210 N   0  0  0  0  0  0  0  0  0  0  0  0
    4.3180   -3.0580   26.3840 C   0  0  0  0  0  0  0  0  0  0  0  0
    2.6440   -4.7000   25.7510 C   0  0  0  0  0  0  0  0  0  0  0  0
   10.4770    0.1330   23.7380 C   0  0  0  0  0  0  0  0  0  0  0  0
   11.0650   -1.3890   21.9970 C   0  0  0  0  0  0  0  0  0  0  0  0
    3.3290   -2.0550   26.5190 C   0  0  0  0  0  0  0  0  0  0  0  0
    1.5000   -3.6860   25.8670 C   0  0  0  0  0  0  0  0  0  0  0  0
    6.2730    0.1960   20.0060 C   0  0  0  0  0  0  0  0  0  0  0  0
   11.8320    0.4010   23.9190 C   0  0  0  0  0  0  0  0  0  0  0  0
   12.3730   -1.1100   22.1920 C   0  0  0  0  0  0  0  0  0  0  0  0
   13.3930   -1.9300   21.1540 Cl  0  0  0  0  0  0  0  0  0  0  0  0
    1.8460   -2.3950   26.2490 C   0  0  0  0  0  0  0  0  0  0  0  0
    6.8300    0.0340   18.7530 C   0  0  0  0  0  0  0  0  0  0  0  0
    5.1840    1.0290   20.1690 C   0  0  0  0  0  0  0  0  0  0  0  0
   12.8130   -0.2160   23.1470 C   0  0  0  0  0  0  0  0  0  0  0  0
    0.6340   -1.1910   26.4240 Cl  0  0  0  0  0  0  0  0  0  0  0  0
    4.5110    1.2730   21.4850 C   0  0  0  0  0  0  0  0  0  0  0  0
    6.3820    0.6450   17.6540 N   0  0  0  0  0  0  0  0  0  0  0  0
    4.7260    1.6440   19.0470 C   0  0  0  0  0  0  0  0  0  0  0  0
    5.3190    1.4490   17.8250 C   0  0  0  0  0  0  0  0  0  0  0  0
  1  2  1  0
  2  3  2  0
  2  4  1  0
  4  5  1  0
  4  6  1  0
  5  7  1  1
  5  8  1  0
  6  9  1  0
  7 10  1  0
  8 11  1  0
  9 11  1  0
 11 12  1  0
 13 10  1  1
 12 14  2  0
 12 15  2  0
 13 16  1  0
 12 17  1  0
 13 18  1  0
 16 19  2  0
 16 20  1  0
 17 21  2  0
 17 22  1  0
 18 23  2  0
 18 24  1  0
 21 25  1  0
 22 26  2  0
 20 27  1  0
 23 28  1  0
 24 29  2  0
 29 30  1  0
 25 31  2  0
 26 31  1  0
 27 32  2  0
 27 33  1  0
 28 34  2  0
 29 34  1  0
 31 35  1  0
 33 36  1  0
 32 37  1  0
 33 38  2  0
 37 39  2  0
 38 39  1  0
M  END
