x2649-x0755
     RDKit          3D

 41 44  0  0  0  0  0  0  0  0999 V2000
    4.5090   -6.3960   26.0170 O   0  0  0  0  0  0  0  0  0  0  0  0
    5.0700   -5.0730   25.8540 S   0  0  0  0  0  0  0  0  0  0  0  0
    6.0970   -4.6120   26.7510 O   0  0  0  0  0  0  0  0  0  0  0  0
    3.7610   -3.8600   25.8800 C   0  0  0  0  0  0  0  0  0  0  0  0
    5.7060   -4.9580   24.2670 N   0  0  0  0  0  0  0  0  0  0  0  0
    2.4120   -4.2150   25.8410 C   0  0  0  0  0  0  0  0  0  0  0  0
    4.1130   -2.4920   25.9410 C   0  0  0  0  0  0  0  0  0  0  0  0
    7.0630   -4.9080   24.1390 C   0  0  0  0  0  0  0  0  0  0  0  0
    5.0120   -5.8210   23.2360 C   0  0  0  0  0  0  0  0  0  0  0  0
    2.0690   -5.5080   25.7790 F   0  0  0  0  0  0  0  0  0  0  0  0
    5.4320   -2.2040   25.9630 O   0  0  0  0  0  0  0  0  0  0  0  0
    3.1280   -1.5050   25.9680 C   0  0  0  0  0  0  0  0  0  0  0  0
    1.4110   -3.2380   25.8660 C   0  0  0  0  0  0  0  0  0  0  0  0
    7.4600   -4.6160   22.8170 C   0  0  0  0  0  0  0  0  0  0  0  0
    5.7680   -6.2150   22.1390 C   0  0  0  0  0  0  0  0  0  0  0  0
    5.9970   -1.7890   24.7250 C   0  0  0  0  0  0  0  0  0  0  0  0
    1.8070   -1.9110   25.9310 C   0  0  0  0  0  0  0  0  0  0  0  0
    6.6220   -5.1120   21.7660 N   0  0  0  0  0  0  0  0  0  0  0  0
    6.3720   -4.4730   20.5450 C   0  0  0  0  0  0  0  0  0  0  0  0
    7.4720   -1.4850   24.9350 C   0  0  0  0  0  0  0  0  0  0  0  0
    5.3330   -4.7350   19.9570 O   0  0  0  0  0  0  0  0  0  0  0  0
    7.3490   -3.4640   19.9110 C   0  0  0  0  0  0  0  0  0  0  0  0
    7.8950   -0.3680   24.0480 C   0  0  0  0  0  0  0  0  0  0  0  0
    8.6580   -0.8030   22.7870 C   0  0  1  0  0  0  0  0  0  0  0  0
    8.2180    0.0420   21.6020 C   0  0  0  0  0  0  0  0  0  0  0  0
   10.1430   -0.6390   22.9340 C   0  0  0  0  0  0  0  0  0  0  0  0
    7.1060   -0.4890   20.9900 N   0  0  0  0  0  0  0  0  0  0  0  0
    8.7990    1.0900   21.2500 O   0  0  0  0  0  0  0  0  0  0  0  0
   10.6700    0.2200   23.9060 C   0  0  0  0  0  0  0  0  0  0  0  0
   10.9960   -1.3160   22.1000 C   0  0  0  0  0  0  0  0  0  0  0  0
    6.4470    0.1640   19.9670 C   0  0  0  0  0  0  0  0  0  0  0  0
   12.0500    0.3760   24.0040 C   0  0  0  0  0  0  0  0  0  0  0  0
   12.3070   -1.1460   22.2130 C   0  0  0  0  0  0  0  0  0  0  0  0
   13.2960   -1.9790   21.1450 Cl  0  0  0  0  0  0  0  0  0  0  0  0
    5.3390    0.9810   20.1830 C   0  0  0  0  0  0  0  0  0  0  0  0
    6.8140    0.0940   18.6120 C   0  0  0  0  0  0  0  0  0  0  0  0
   12.8560   -0.3060   23.1560 C   0  0  0  0  0  0  0  0  0  0  0  0
    4.7910    1.1790   21.5680 C   0  0  0  0  0  0  0  0  0  0  0  0
    6.2480    0.7030   17.5760 N   0  0  0  0  0  0  0  0  0  0  0  0
    4.6890    1.6550   19.1440 C   0  0  0  0  0  0  0  0  0  0  0  0
    5.1150    1.5490   17.8310 C   0  0  0  0  0  0  0  0  0  0  0  0
  1  2  2  0
  2  3  2  0
  2  4  1  0
  2  5  1  0
  4  6  2  0
  4  7  1  0
  5  8  1  0
  5  9  1  0
  6 10  1  0
  7 11  1  0
  7 12  2  0
  6 13  1  0
  8 14  1  0
  9 15  1  0
 11 16  1  0
 12 17  1  0
 13 17  2  0
 14 18  1  0
 15 18  1  0
 18 19  1  0
 16 20  1  0
 19 21  2  0
 19 22  1  0
 20 23  1  0
 24 23  1  1
 24 25  1  0
 24 26  1  0
 25 27  1  0
 25 28  2  0
 26 29  2  0
 26 30  1  0
 27 31  1  0
 29 32  1  0
 30 33  2  0
 33 34  1  0
 31 35  2  0
 31 36  1  0
 32 37  2  0
 33 37  1  0
 35 38  1  0
 36 39  2  0
 35 40  1  0
 39 41  1  0
 40 41  2  0
M  END
