x2643-x0691
     RDKit          3D

 37 40  0  0  0  0  0  0  0  0999 V2000
    4.1130   -6.6680   25.7080 O   0  0  0  0  0  0  0  0  0  0  0  0
    4.7450   -5.3660   25.7190 S   0  0  0  0  0  0  0  0  0  0  0  0
    5.7470   -5.0100   26.6990 O   0  0  0  0  0  0  0  0  0  0  0  0
    3.4630   -4.1450   25.7840 C   0  0  0  0  0  0  0  0  0  0  0  0
    5.3410   -5.0360   24.1690 N   0  0  0  0  0  0  0  0  0  0  0  0
    3.8550   -2.7850   25.8830 C   0  0  0  0  0  0  0  0  0  0  0  0
    2.1270   -4.5350   25.7320 C   0  0  0  0  0  0  0  0  0  0  0  0
    4.7070   -5.6480   23.0620 C   0  0  0  0  0  0  0  0  0  0  0  0
    6.4970   -4.3130   23.9990 C   0  0  2  0  0  0  0  0  0  0  0  0
    6.2200   -2.9170   23.3460 C   0  0  0  0  0  0  0  0  0  0  0  0
    2.7960   -1.8530   25.9260 C   0  0  0  0  0  0  0  0  0  0  0  0
    1.1260   -3.5700   25.7790 C   0  0  0  0  0  0  0  0  0  0  0  0
    5.5620   -6.3420   22.2120 C   0  0  0  0  0  0  0  0  0  0  0  0
    7.4090   -5.0760   23.0590 C   0  0  0  0  0  0  0  0  0  0  0  0
    3.0600   -0.5460   26.0190 F   0  0  0  0  0  0  0  0  0  0  0  0
    7.2240   -2.0100   23.7600 C   0  0  0  0  0  0  0  0  0  0  0  0
    1.4570   -2.2300   25.8770 C   0  0  0  0  0  0  0  0  0  0  0  0
    6.6760   -5.4970   21.8620 N   0  0  0  0  0  0  0  0  0  0  0  0
    6.4970   -4.7280   20.7100 C   0  0  0  0  0  0  0  0  0  0  0  0
    8.2660   -1.6690   22.6350 C   0  0  1  0  0  0  0  0  0  0  0  0
    5.4750   -4.8350   20.0100 O   0  0  0  0  0  0  0  0  0  0  0  0
    7.6440   -3.7700   20.3810 C   0  0  0  0  0  0  0  0  0  0  0  0
    7.8190   -0.6480   21.5840 C   0  0  0  0  0  0  0  0  0  0  0  0
    9.4720   -0.9250   23.1090 C   0  0  0  0  0  0  0  0  0  0  0  0
    6.6210   -0.9040   20.9660 N   0  0  0  0  0  0  0  0  0  0  0  0
    8.5190    0.3430   21.3380 O   0  0  0  0  0  0  0  0  0  0  0  0
    9.5890    0.0370   24.0930 C   0  0  0  0  0  0  0  0  0  0  0  0
   10.9640   -1.2470   22.3210 S   0  0  0  0  0  0  0  0  0  0  0  0
   11.7280   -0.0980   23.2640 C   0  0  0  0  0  0  0  0  0  0  0  0
   10.9180    0.5070   24.1570 C   0  0  0  0  0  0  0  0  0  0  0  0
    6.0650   -0.0840   19.9220 C   0  0  0  0  0  0  0  0  0  0  0  0
   13.3570    0.1740   22.9970 Cl  0  0  0  0  0  0  0  0  0  0  0  0
    6.7580   -0.0060   18.7250 C   0  0  0  0  0  0  0  0  0  0  0  0
    4.8900    0.6320   20.0400 C   0  0  0  0  0  0  0  0  0  0  0  0
    6.3780    0.7180   17.6590 N   0  0  0  0  0  0  0  0  0  0  0  0
    4.4720    1.3960   18.9510 C   0  0  0  0  0  0  0  0  0  0  0  0
    5.2360    1.4140   17.7940 C   0  0  0  0  0  0  0  0  0  0  0  0
  1  2  2  0
  2  3  2  0
  2  4  1  0
  2  5  1  0
  4  6  2  0
  4  7  1  0
  5  8  1  0
  5  9  1  0
  9 10  1  6
  6 11  1  0
  7 12  2  0
  8 13  1  0
  9 14  1  0
 11 15  1  0
 10 16  1  0
 11 17  2  0
 12 17  1  0
 13 18  1  0
 14 18  1  0
 18 19  1  0
 20 16  1  1
 19 21  2  0
 19 22  1  0
 20 23  1  0
 20 24  1  0
 23 25  1  0
 23 26  2  0
 24 27  2  0
 24 28  1  0
 28 29  1  0
 27 30  1  0
 29 30  2  0
 25 31  1  0
 29 32  1  0
 31 33  2  0
 31 34  1  0
 33 35  1  0
 34 36  2  0
 35 37  2  0
 36 37  1  0
M  END
