x2643-x1425
     RDKit          3D

 34 37  0  0  0  0  0  0  0  0999 V2000
    1.3890   -2.3010   28.3570 C   0  0  0  0  0  0  0  0  0  0  0  0
    2.5950   -2.0390   28.3880 O   0  0  0  0  0  0  0  0  0  0  0  0
    3.3490   -2.5310   27.2930 C   0  0  0  0  0  0  0  0  0  0  0  0
    4.7850   -2.1010   27.0090 C   0  0  0  0  0  0  0  0  0  0  0  0
    2.8240   -3.5330   26.2780 C   0  0  0  0  0  0  0  0  0  0  0  0
    5.5530   -2.6600   25.8230 C   0  0  0  0  0  0  0  0  0  0  0  0
    3.6290   -4.0040   25.1830 C   0  0  0  0  0  0  0  0  0  0  0  0
    4.9910   -3.5880   24.9350 C   0  0  0  0  0  0  0  0  0  0  0  0
    5.7110   -4.1480   23.7840 N   0  0  0  0  0  0  0  0  0  0  0  0
    7.1570   -3.9150   23.6590 C   0  0  0  0  0  0  0  0  0  0  0  0
    5.3330   -5.3780   23.1730 C   0  0  0  0  0  0  0  0  0  0  0  0
    7.4050   -3.5540   22.3260 C   0  0  2  0  0  0  0  0  0  0  0  0
    6.2760   -5.6490   22.1730 C   0  0  0  0  0  0  0  0  0  0  0  0
    7.1710   -2.1200   22.1870 C   0  0  0  0  0  0  0  0  0  0  0  0
    6.6700   -4.3830   21.5380 N   0  0  0  0  0  0  0  0  0  0  0  0
    6.2250   -4.0580   20.2440 C   0  0  0  0  0  0  0  0  0  0  0  0
    8.3820   -1.2600   21.7730 C   0  0  1  0  0  0  0  0  0  0  0  0
    5.1610   -4.5180   19.8530 O   0  0  0  0  0  0  0  0  0  0  0  0
    7.0800   -3.2190   19.3330 C   0  0  0  0  0  0  0  0  0  0  0  0
    7.8800    0.0090   21.2890 C   0  0  0  0  0  0  0  0  0  0  0  0
    9.4370   -1.0040   22.7670 C   0  0  0  0  0  0  0  0  0  0  0  0
    6.6440    0.0350   21.0790 N   0  0  0  0  0  0  0  0  0  0  0  0
    8.7230    1.1630   21.0920 O   0  0  0  0  0  0  0  0  0  0  0  0
    9.3350   -0.5940   24.0950 C   0  0  0  0  0  0  0  0  0  0  0  0
   11.0830   -1.1980   22.2900 S   0  0  0  0  0  0  0  0  0  0  0  0
   11.6870   -0.7440   23.8060 C   0  0  0  0  0  0  0  0  0  0  0  0
   10.7000   -0.4530   24.6770 C   0  0  0  0  0  0  0  0  0  0  0  0
    6.1250    0.5510   19.9840 C   0  0  0  0  0  0  0  0  0  0  0  0
   13.3200   -0.7370   23.9700 Cl  0  0  0  0  0  0  0  0  0  0  0  0
    6.8120    0.3520   18.6420 C   0  0  0  0  0  0  0  0  0  0  0  0
    4.8650    1.3660   19.9300 C   0  0  0  0  0  0  0  0  0  0  0  0
    6.3350    0.8840   17.5190 N   0  0  0  0  0  0  0  0  0  0  0  0
    4.3800    1.9070   18.7730 C   0  0  0  0  0  0  0  0  0  0  0  0
    5.0940    1.6870   17.5890 C   0  0  0  0  0  0  0  0  0  0  0  0
  1  2  1  0
  2  3  1  0
  3  4  2  0
  3  5  1  0
  4  6  1  0
  5  7  2  0
  6  8  2  0
  7  8  1  0
  8  9  1  0
  9 10  1  0
  9 11  1  0
 10 12  1  0
 11 13  1  0
 12 14  1  1
 12 15  1  0
 13 15  1  0
 15 16  1  0
 17 14  1  1
 16 18  2  0
 16 19  1  0
 17 20  1  0
 17 21  1  0
 20 22  1  0
 20 23  2  0
 21 24  2  0
 21 25  1  0
 25 26  1  0
 24 27  1  0
 26 27  2  0
 22 28  1  0
 26 29  1  0
 28 30  2  0
 28 31  1  0
 30 32  1  0
 31 33  2  0
 32 34  2  0
 33 34  1  0
M  END
