x2649-x0708
     RDKit          3D

 28 30  0  0  0  0  0  0  0  0999 V2000
    6.4910   -4.2010   21.0040 N   0  0  0  0  0  0  0  0  0  0  0  0
    6.2140   -3.6660   19.7680 C   0  0  0  0  0  0  0  0  0  0  0  0
    7.3720   -3.0800   18.9710 C   0  0  0  0  0  0  0  0  0  0  0  0
    7.4610   -3.8700   21.8090 N   0  0  0  0  0  0  0  0  0  0  0  0
    5.1030   -3.6520   19.2590 O   0  0  0  0  0  0  0  0  0  0  0  0
    7.5180   -2.5080   22.7750 S   0  0  0  0  0  0  0  0  0  0  0  0
    6.4450   -1.8430   23.4560 O   0  0  0  0  0  0  0  0  0  0  0  0
    7.7890   -3.3490   24.0240 C   0  0  0  0  0  0  0  0  0  0  0  0
    7.3820   -1.4090   21.6060 C   0  0  0  0  0  0  0  0  0  0  0  0
    9.0260   -1.8300   22.9070 C   0  0  0  0  0  0  0  0  0  0  0  0
    6.1570   -0.8560   21.0930 N   0  0  0  0  0  0  0  0  0  0  0  0
    8.3370   -0.7870   21.0380 O   0  0  0  0  0  0  0  0  0  0  0  0
   10.3250   -2.0750   22.2230 C   0  0  0  0  0  0  0  0  0  0  0  0
    9.2410   -0.5700   23.9990 S   0  0  0  0  0  0  0  0  0  0  0  0
   11.3750   -1.1600   22.6840 C   0  0  0  0  0  0  0  0  0  0  0  0
   10.8920   -0.1750   23.7440 C   0  0  0  0  0  0  0  0  0  0  0  0
    5.9880   -0.0550   19.8400 C   0  0  0  0  0  0  0  0  0  0  0  0
   12.8000   -1.1060   22.2430 C   0  0  2  0  0  0  0  0  0  0  0  0
   11.8240    0.7630   24.2240 C   0  0  0  0  0  0  0  0  0  0  0  0
    5.0100    0.9040   19.9450 C   0  0  0  0  0  0  0  0  0  0  0  0
    6.6380   -0.1320   18.6350 C   0  0  0  0  0  0  0  0  0  0  0  0
   13.4370   -2.4940   22.9640 Cl  0  0  0  0  0  0  0  0  0  0  0  0
    4.2120    1.1770   21.1310 C   0  0  0  0  0  0  0  0  0  0  0  0
   13.3510    0.0570   22.7850 C   0  0  0  0  0  0  0  0  0  0  0  0
   12.5370    1.0950   23.1200 C   0  0  0  0  0  0  0  0  0  0  0  0
    6.3140    0.6900   17.5930 N   0  0  0  0  0  0  0  0  0  0  0  0
    4.6280    1.7630   18.9270 C   0  0  0  0  0  0  0  0  0  0  0  0
    5.2540    1.7000   17.6880 C   0  0  0  0  0  0  0  0  0  0  0  0
  1  2  1  0
  2  3  1  0
  1  4  1  0
  2  5  2  0
  4  6  1  0
  6  7  2  0
  6  8  1  0
  6  9  1  0
  6 10  1  0
  9 11  1  0
  9 12  2  0
 10 13  2  0
 10 14  1  0
 13 15  1  0
 14 16  1  0
 15 16  2  0
 11 17  1  0
 15 18  1  0
 16 19  1  0
 17 20  2  0
 17 21  1  0
 18 22  1  1
 20 23  1  0
 18 24  1  0
 19 25  1  0
 24 25  1  0
 21 26  2  0
 20 27  1  0
 26 28  1  0
 27 28  2  0
M  END
