x2694-x1119
     RDKit          3D

 57 61  0  0  0  0  0  0  0  0999 V2000
    7.0470   -1.5450   21.6810 N   0  0  0  0  0  0  0  0  0  0  0  0
    6.2030   -2.8070   21.4320 C   0  0  0  0  0  0  0  0  0  0  0  0
    4.8960   -3.0570   21.1630 O   0  0  0  0  0  0  0  0  0  0  0  0
    6.6190   -0.1010   21.5820 C   0  0  1  0  0  0  0  0  0  0  0  0
    8.3290   -1.6190   22.4190 C   0  0  0  0  0  0  0  0  0  0  0  0
    7.0380   -4.0730   21.5540 C   0  0  0  0  0  0  0  0  0  0  0  0
    7.7020    1.0790   21.8410 C   0  0  0  0  0  0  0  0  0  0  0  0
    6.0810    0.3370   20.2650 C   0  0  0  0  0  0  0  0  0  0  0  0
    8.4390   -1.8870   23.7520 N   0  0  0  0  0  0  0  0  0  0  0  0
    9.6800   -1.4320   21.9990 C   0  0  0  0  0  0  0  0  0  0  0  0
    6.7590   -3.7870   20.0580 C   0  0  0  0  0  0  0  0  0  0  0  0
    7.4820    2.0730   22.9210 N   0  0  0  0  0  0  0  0  0  0  0  0
    8.6940    1.2200   21.1260 O   0  0  0  0  0  0  0  0  0  0  0  0
    4.9190    1.0860   20.1660 C   0  0  0  0  0  0  0  0  0  0  0  0
    6.7690    0.0180   19.1090 C   0  0  0  0  0  0  0  0  0  0  0  0
    9.7960   -1.8640   24.1280 O   0  0  0  0  0  0  0  0  0  0  0  0
   10.5920   -1.5850   23.0550 C   0  0  0  0  0  0  0  0  0  0  0  0
   12.1080   -1.5120   23.2430 C   0  0  0  0  0  0  0  0  0  0  0  0
    6.3560    0.4210   17.8710 N   0  0  0  0  0  0  0  0  0  0  0  0
    4.4800    1.5040   18.9250 C   0  0  0  0  0  0  0  0  0  0  0  0
    8.4480    3.1070   23.0590 C   0  0  0  0  0  0  0  0  0  0  0  0
   12.5950   -0.1120   23.5410 C   0  0  0  0  0  0  0  0  0  0  0  0
   12.8260   -1.9480   21.9450 C   0  0  0  0  0  0  0  0  0  0  0  0
   12.5860   -2.4490   24.3780 C   0  0  0  0  0  0  0  0  0  0  0  0
    5.2260    1.1560   17.8190 C   0  0  0  0  0  0  0  0  0  0  0  0
    9.6990    2.8790   23.6330 C   0  0  0  0  0  0  0  0  0  0  0  0
    8.1130    4.3930   22.5870 C   0  0  0  0  0  0  0  0  0  0  0  0
   10.0500    1.5870   24.1310 C   0  0  0  0  0  0  0  0  0  0  0  0
   10.6570    3.8750   23.7450 C   0  0  0  0  0  0  0  0  0  0  0  0
    9.0310    5.4430   22.6800 C   0  0  0  0  0  0  0  0  0  0  0  0
   10.3980    5.1440   23.2960 C   0  0  0  0  0  0  0  0  0  0  0  0
   11.3390    6.1180   23.3890 O   0  0  0  0  0  0  0  0  0  0  0  0
   12.6800    5.6780   23.7020 C   0  0  0  0  0  0  0  0  0  0  0  0
   13.3700    4.6710   22.8960 C   0  0  0  0  0  0  0  0  0  0  0  0
   14.8070    4.8820   22.8830 C   0  0  0  0  0  0  0  0  0  0  0  0
   15.8980    4.0830   22.3140 C   0  0  0  0  0  0  0  0  0  0  0  0
   17.4450    4.5010   22.3720 C   0  0  0  0  0  0  0  0  0  0  0  0
   17.8450    5.2000   23.4510 C   0  0  0  0  0  0  0  0  0  0  0  0
   18.6750    6.3890   23.1040 C   0  0  0  0  0  0  0  0  0  0  0  0
   19.7760    7.0110   23.6720 C   0  0  0  0  0  0  0  0  0  0  0  0
   20.8570    6.9260   22.8470 N   0  0  0  0  0  0  0  0  0  0  0  0
   21.6910    5.9830   23.3130 C   0  0  0  0  0  0  0  0  0  0  0  0
   23.1960    5.9930   23.0650 C   0  0  0  0  0  0  0  0  0  0  0  0
   21.1090    4.9920   24.0510 C   0  0  0  0  0  0  0  0  0  0  0  0
   24.0550    4.8780   23.6830 C   0  0  0  0  0  0  0  0  0  0  0  0
   21.8830    3.9020   24.6570 C   0  0  0  0  0  0  0  0  0  0  0  0
   23.3330    3.8160   24.5160 C   0  0  0  0  0  0  0  0  0  0  0  0
   24.0180    2.4460   25.3620 S   0  0  0  0  0  0  0  0  0  0  0  0
   22.9440    1.4790   25.4820 O   0  0  0  0  0  0  0  0  0  0  0  0
   24.3930    3.0160   26.9270 N   0  0  0  0  0  0  0  0  0  0  0  0
   25.2370    2.1090   24.6800 O   0  0  0  0  0  0  0  0  0  0  0  0
   25.1010    4.1910   27.2310 C   0  0  0  0  0  0  0  0  0  0  0  0
   25.0850    4.6020   28.5140 N   0  0  0  0  0  0  0  0  0  0  0  0
   25.7800    4.8690   26.2300 C   0  0  0  0  0  0  0  0  0  0  0  0
   25.7670    5.7280   28.8140 C   0  0  0  0  0  0  0  0  0  0  0  0
   26.4750    6.0290   26.5670 C   0  0  0  0  0  0  0  0  0  0  0  0
   26.4710    6.4690   27.8830 C   0  0  0  0  0  0  0  0  0  0  0  0
  1  2  1  0
  2  3  2  0
  1  4  1  0
  1  5  1  0
  2  6  1  0
  4  7  1  6
  4  8  1  0
  5  9  2  0
  5 10  1  0
  6 11  1  0
  7 12  1  0
  7 13  2  0
  8 14  2  0
  8 15  1  0
  9 16  1  0
 10 17  2  0
 16 17  1  0
 17 18  1  0
 15 19  2  0
 14 20  1  0
 12 21  1  0
 18 22  1  0
 18 23  1  0
 18 24  1  0
 19 25  1  0
 20 25  2  0
 21 26  2  0
 21 27  1  0
 26 28  1  0
 26 29  1  0
 27 30  2  0
 29 31  2  0
 30 31  1  0
 31 32  1  0
 32 33  1  0
 33 34  1  0
 34 35  1  0
 35 36  1  0
 36 37  1  0
 37 38  1  0
 38 39  1  0
 39 40  1  0
 40 41  1  0
 41 42  1  0
 42 43  2  0
 42 44  1  0
 43 45  1  0
 44 46  2  0
 45 47  2  0
 46 47  1  0
 47 48  1  0
 48 49  2  0
 48 50  1  0
 48 51  2  0
 50 52  1  0
 52 53  2  0
 52 54  1  0
 53 55  1  0
 54 56  2  0
 55 57  2  0
 56 57  1  0
M  END
