x2694-x2776-x0978
     RDKit          3D

 45 47  0  0  0  0  0  0  0  0999 V2000
    7.0610   -1.4120   21.7090 N   0  0  0  0  0  0  0  0  0  0  0  0
    6.2120   -2.7080   21.6330 C   0  0  0  0  0  0  0  0  0  0  0  0
    4.9290   -3.0890   21.1800 O   0  0  0  0  0  0  0  0  0  0  0  0
    6.6040   -0.0530   21.6570 C   0  0  1  0  0  0  0  0  0  0  0  0
    8.3210   -1.4670   22.5330 C   0  0  0  0  0  0  0  0  0  0  0  0
    7.0480   -3.8750   22.1930 C   0  0  0  0  0  0  0  0  0  0  0  0
    7.7370    1.0430   21.7550 C   0  0  0  0  0  0  0  0  0  0  0  0
    6.1480    0.3930   20.2280 C   0  0  0  0  0  0  0  0  0  0  0  0
    8.3660   -1.5220   23.9040 N   0  0  0  0  0  0  0  0  0  0  0  0
    9.6590   -1.4640   22.1230 C   0  0  0  0  0  0  0  0  0  0  0  0
    6.9840   -5.0530   21.2340 C   0  0  0  0  0  0  0  0  0  0  0  0
    7.5790    2.1180   22.7610 N   0  0  0  0  0  0  0  0  0  0  0  0
    8.7340    1.1190   21.0390 O   0  0  0  0  0  0  0  0  0  0  0  0
    5.0300    1.2170   20.1950 C   0  0  0  0  0  0  0  0  0  0  0  0
    6.7840    0.0340   19.0390 C   0  0  0  0  0  0  0  0  0  0  0  0
    9.7170   -1.5530   24.3210 O   0  0  0  0  0  0  0  0  0  0  0  0
   10.5060   -1.5180   23.2220 C   0  0  0  0  0  0  0  0  0  0  0  0
   12.0620   -1.5310   23.2150 C   0  0  0  0  0  0  0  0  0  0  0  0
    5.5890   -5.7000   21.3570 N   0  0  0  0  0  0  0  0  0  0  0  0
    6.3880    0.4430   17.8150 N   0  0  0  0  0  0  0  0  0  0  0  0
    4.6060    1.6500   18.9510 C   0  0  0  0  0  0  0  0  0  0  0  0
    8.4120    3.2130   23.0340 C   0  0  0  0  0  0  0  0  0  0  0  0
   12.6370   -0.2240   23.8020 C   0  0  0  0  0  0  0  0  0  0  0  0
   12.6800   -1.7050   21.8170 C   0  0  0  0  0  0  0  0  0  0  0  0
   12.5520   -2.7410   24.0390 C   0  0  0  0  0  0  0  0  0  0  0  0
    4.6690   -5.4300   22.5800 C   0  0  0  0  0  0  0  0  0  0  0  0
    5.3060    1.2450   17.8330 C   0  0  0  0  0  0  0  0  0  0  0  0
    9.6890    3.0300   23.6500 C   0  0  0  0  0  0  0  0  0  0  0  0
    8.0310    4.5420   22.7190 C   0  0  0  0  0  0  0  0  0  0  0  0
   10.2450    1.8770   24.0310 C   0  0  0  0  0  0  0  0  0  0  0  0
   13.3450   -2.5090   25.1470 C   0  0  0  0  0  0  0  0  0  0  0  0
    3.4770   -6.3650   23.0020 C   0  0  2  0  0  0  0  0  0  0  0  0
    4.8190   -4.4240   23.2640 O   0  0  0  0  0  0  0  0  0  0  0  0
   10.4660    4.1730   23.8970 C   0  0  0  0  0  0  0  0  0  0  0  0
    8.8660    5.6390   23.0060 C   0  0  0  0  0  0  0  0  0  0  0  0
    2.2050   -5.6160   22.9670 N   0  0  0  0  0  0  0  0  0  0  0  0
    3.6900   -7.0570   24.2020 C   0  0  1  0  0  0  0  0  0  0  0  0
   10.1060    5.4740   23.6080 C   0  0  0  0  0  0  0  0  0  0  0  0
   10.8590    6.5840   23.8650 O   0  0  0  0  0  0  0  0  0  0  0  0
    2.6400   -7.8290   24.7190 C   0  0  0  0  0  0  0  0  0  0  0  0
    4.6390   -7.7970   24.1120 O   0  0  0  0  0  0  0  0  0  0  0  0
    1.0400   -6.2570   22.5690 C   0  0  0  0  0  0  0  0  0  0  0  0
   11.8750    6.5930   24.8700 C   0  0  0  0  0  0  0  0  0  0  0  0
    1.0010   -7.3640   22.0460 O   0  0  0  0  0  0  0  0  0  0  0  0
   -0.1320   -5.5320   22.7990 C   0  0  0  0  0  0  0  0  0  0  0  0
  1  2  1  0
  2  3  2  0
  1  4  1  0
  1  5  1  0
  2  6  1  0
  4  7  1  6
  4  8  1  0
  5  9  2  0
  5 10  1  0
  6 11  1  0
  7 12  1  0
  7 13  2  0
  8 14  2  0
  8 15  1  0
  9 16  1  0
 10 17  2  0
 16 17  1  0
 17 18  1  0
 11 19  1  0
 15 20  2  0
 14 21  1  0
 12 22  1  0
 18 23  1  0
 18 24  1  0
 18 25  1  0
 19 26  1  0
 20 27  1  0
 21 27  2  0
 22 28  2  0
 22 29  1  0
 28 30  1  0
 25 31  1  0
 26 32  1  0
 26 33  2  0
 28 34  1  0
 29 35  2  0
 32 36  1  1
 32 37  1  0
 34 38  2  0
 35 38  1  0
 38 39  1  0
 37 40  1  6
 37 41  1  0
 36 42  1  0
 39 43  1  0
 42 44  2  0
 42 45  1  0
M  END
