x2694-x0978-x0072-x0540-x1119
     RDKit          3D

 89 95  0  0  0  0  0  0  0  0999 V2000
    7.1420   -1.5280   21.7300 N   0  0  0  0  0  0  0  0  0  0  0  0
    6.2200   -2.7820   21.6260 C   0  0  0  0  0  0  0  0  0  0  0  0
    4.9170   -3.0580   21.1510 O   0  0  0  0  0  0  0  0  0  0  0  0
    6.7100   -0.1460   21.6930 C   0  0  1  0  0  0  0  0  0  0  0  0
    8.5440   -1.8360   22.3110 C   0  0  2  0  0  0  0  0  0  0  0  0
    6.9460   -4.0240   22.1700 C   0  0  0  0  0  0  0  0  0  0  0  0
    7.6720    0.9790   21.7780 C   0  0  0  0  0  0  0  0  0  0  0  0
    6.1080    0.2830   20.3700 C   0  0  0  0  0  0  0  0  0  0  0  0
    8.5590   -1.9370   23.7920 N   0  0  0  0  0  0  0  0  0  0  0  0
    9.6970   -1.0270   22.1480 C   0  0  0  0  0  0  0  0  0  0  0  0
    6.9250   -5.1480   21.1800 C   0  0  0  0  0  0  0  0  0  0  0  0
    7.4830    2.0740   22.8480 N   0  0  0  0  0  0  0  0  0  0  0  0
    8.5300    1.0050   20.9040 O   0  0  0  0  0  0  0  0  0  0  0  0
    8.0970   -3.2030   24.3320 C   0  0  0  0  0  0  0  0  0  0  0  0
    4.8780    0.8990   20.2340 C   0  0  0  0  0  0  0  0  0  0  0  0
    6.8260    0.0920   19.0130 C   0  0  0  0  0  0  0  0  0  0  0  0
    9.9890   -2.0310   24.0930 O   0  0  0  0  0  0  0  0  0  0  0  0
   10.6900   -1.3090   23.0960 C   0  0  1  0  0  0  0  0  0  0  0  0
    5.5020   -5.7070   21.3170 N   0  0  0  0  0  0  0  0  0  0  0  0
    4.0080    1.1610   21.4320 C   0  0  0  0  0  0  0  0  0  0  0  0
    8.5740   -3.3450   25.6820 N   0  0  0  0  0  0  0  0  0  0  0  0
    6.3490    0.4890   17.8290 N   0  0  0  0  0  0  0  0  0  0  0  0
    4.4040    1.3020   18.9920 C   0  0  0  0  0  0  0  0  0  0  0  0
    8.3120    3.2680   22.9590 C   0  0  0  0  0  0  0  0  0  0  0  0
   11.9110   -2.1120   22.5900 C   0  0  1  0  0  0  0  0  0  0  0  0
   11.1350   -0.1250   23.8860 C   0  0  0  0  0  0  0  0  0  0  0  0
    4.5670   -5.4800   22.4000 C   0  0  0  0  0  0  0  0  0  0  0  0
    4.7160    1.8510   22.4180 C   0  0  0  0  0  0  0  0  0  0  0  0
    8.4150   -4.7540   26.5290 S   0  0  0  0  0  0  0  0  0  0  0  0
    5.1600    1.0870   17.8450 C   0  0  0  0  0  0  0  0  0  0  0  0
    9.4650    3.1570   23.7110 C   0  0  0  0  0  0  0  0  0  0  0  0
    8.0820    4.5410   22.3770 C   0  0  0  0  0  0  0  0  0  0  0  0
   13.0250   -1.2350   22.1090 C   0  0  0  0  0  0  0  0  0  0  0  0
   12.3230    0.5470   23.7310 C   0  0  0  0  0  0  0  0  0  0  0  0
   12.5540   -2.9000   23.7300 C   0  0  0  0  0  0  0  0  0  0  0  0
    9.7860    1.9170   24.3820 C   0  0  0  0  0  0  0  0  0  0  0  0
    3.3970   -6.4010   22.8980 C   0  0  2  0  0  0  0  0  0  0  0  0
    4.6470   -4.3990   22.9900 O   0  0  0  0  0  0  0  0  0  0  0  0
    3.9510    2.9130   22.7850 N   0  0  0  0  0  0  0  0  0  0  0  0
    6.6740   -5.1330   26.4340 C   0  0  0  0  0  0  0  0  0  0  0  0
    9.1570   -5.7570   25.8190 O   0  0  0  0  0  0  0  0  0  0  0  0
    8.7300   -4.4200   27.8940 O   0  0  0  0  0  0  0  0  0  0  0  0
   10.4400    4.2870   23.8690 C   0  0  0  0  0  0  0  0  0  0  0  0
    9.0010    5.6150   22.5410 C   0  0  0  0  0  0  0  0  0  0  0  0
   13.2210    0.0170   22.6680 C   0  0  0  0  0  0  0  0  0  0  0  0
   13.0680   -2.0480   24.8620 C   0  0  0  0  0  0  0  0  0  0  0  0
    2.2770   -5.6000   22.9580 N   0  0  0  0  0  0  0  0  0  0  0  0
    3.6280   -6.9810   24.1720 C   0  0  1  0  0  0  0  0  0  0  0  0
    2.8730    2.4810   23.5060 C   0  0  0  0  0  0  0  0  0  0  0  0
   10.1910    5.4760   23.2790 C   0  0  0  0  0  0  0  0  0  0  0  0
   11.0320    6.5340   23.3510 O   0  0  0  0  0  0  0  0  0  0  0  0
    2.5560   -7.7220   24.7270 C   0  0  0  0  0  0  0  0  0  0  0  0
    4.6990   -7.8930   24.1150 O   0  0  0  0  0  0  0  0  0  0  0  0
    1.0690   -6.2410   22.5620 C   0  0  0  0  0  0  0  0  0  0  0  0
    2.8930    1.5800   24.3450 O   0  0  0  0  0  0  0  0  0  0  0  0
    1.7680    3.2180   23.1560 N   0  0  0  0  0  0  0  0  0  0  0  0
   12.4180    6.2510   23.6330 C   0  0  0  0  0  0  0  0  0  0  0  0
    1.0480   -7.3550   22.0470 O   0  0  0  0  0  0  0  0  0  0  0  0
   -0.1170   -5.5310   22.7750 C   0  0  0  0  0  0  0  0  0  0  0  0
    0.5400    3.1760   23.9320 C   0  0  0  0  0  0  0  0  0  0  0  0
   13.1980    5.3020   22.6760 C   0  0  0  0  0  0  0  0  0  0  0  0
    0.4740    4.3700   24.9010 C   0  0  0  0  0  0  0  0  0  0  0  0
   -0.5440    3.1320   23.0600 C   0  0  0  0  0  0  0  0  0  0  0  0
   14.6000    5.1110   22.8650 C   0  0  0  0  0  0  0  0  0  0  0  0
   -0.6280    5.2220   24.6890 C   0  0  0  0  0  0  0  0  0  0  0  0
   -1.8660    3.2030   23.8070 C   0  0  0  0  0  0  0  0  0  0  0  0
   15.7400    4.2460   22.1520 C   0  0  0  0  0  0  0  0  0  0  0  0
   -1.9660    4.4900   24.6130 C   0  0  0  0  0  0  0  0  0  0  0  0
   17.1330    4.1660   22.7010 C   0  0  0  0  0  0  0  0  0  0  0  0
   17.9320    5.1040   23.4190 C   0  0  0  0  0  0  0  0  0  0  0  0
   19.2400    5.6100   23.0060 C   0  0  0  0  0  0  0  0  0  0  0  0
   19.5920    7.0040   22.9260 C   0  0  0  0  0  0  0  0  0  0  0  0
   21.0000    7.2470   22.5530 N   0  0  0  0  0  0  0  0  0  0  0  0
   21.8200    6.3600   23.1770 C   0  0  0  0  0  0  0  0  0  0  0  0
   22.4600    5.2950   22.5480 C   0  0  0  0  0  0  0  0  0  0  0  0
   21.9920    6.5410   24.5420 C   0  0  0  0  0  0  0  0  0  0  0  0
   23.2090    4.4000   23.3020 C   0  0  0  0  0  0  0  0  0  0  0  0
   22.7450    5.6430   25.2650 C   0  0  0  0  0  0  0  0  0  0  0  0
   23.2810    4.5870   24.6050 C   0  0  0  0  0  0  0  0  0  0  0  0
   24.1590    3.1680   25.2120 S   0  0  0  0  0  0  0  0  0  0  0  0
   23.1480    2.1160   25.2260 O   0  0  0  0  0  0  0  0  0  0  0  0
   24.4200    3.4340   26.8430 N   0  0  0  0  0  0  0  0  0  0  0  0
   25.3860    2.9730   24.4900 O   0  0  0  0  0  0  0  0  0  0  0  0
   25.1970    4.5260   27.1930 C   0  0  0  0  0  0  0  0  0  0  0  0
   25.2100    4.7260   28.5230 N   0  0  0  0  0  0  0  0  0  0  0  0
   25.8640    5.2960   26.2630 C   0  0  0  0  0  0  0  0  0  0  0  0
   25.9430    5.7710   28.9510 C   0  0  0  0  0  0  0  0  0  0  0  0
   26.6100    6.3620   26.7340 C   0  0  0  0  0  0  0  0  0  0  0  0
   26.6530    6.6100   28.1030 C   0  0  0  0  0  0  0  0  0  0  0  0
  1  2  1  0
  2  3  2  0
  1  4  1  0
  5  1  1  1
  2  6  1  0
  4  7  1  6
  4  8  1  0
  5  9  1  0
  5 10  1  0
  6 11  1  0
  7 12  1  0
  7 13  2  0
  9 14  1  0
  8 15  1  0
  8 16  2  0
  9 17  1  0
 18 10  1  6
 18 17  1  0
 11 19  1  0
 15 20  1  0
 14 21  1  0
 16 22  1  0
 15 23  2  0
 12 24  1  0
 18 25  1  0
 18 26  1  0
 19 27  1  0
 20 28  1  0
 29 21  1  0
 22 30  2  0
 23 30  1  0
 24 31  2  0
 24 32  1  0
 25 33  1  0
 26 34  2  0
 25 35  1  1
 31 36  1  0
 27 37  1  0
 27 38  2  0
 28 39  1  0
 29 40  1  0
 29 41  2  0
 29 42  2  0
 31 43  1  0
 32 44  2  0
 33 45  2  0
 34 45  1  0
 35 46  1  0
 37 47  1  1
 37 48  1  0
 39 49  1  0
 43 50  2  0
 44 50  1  0
 50 51  1  0
 48 52  1  6
 48 53  1  0
 47 54  1  0
 49 55  2  0
 49 56  1  0
 51 57  1  0
 54 58  2  0
 54 59  1  0
 56 60  1  0
 57 61  1  0
 60 62  1  0
 60 63  1  0
 61 64  1  0
 62 65  1  0
 63 66  1  0
 64 67  1  0
 65 68  1  0
 66 68  1  0
 67 69  1  0
 69 70  1  0
 70 71  1  0
 71 72  1  0
 72 73  1  0
 73 74  1  0
 74 75  2  0
 74 76  1  0
 75 77  1  0
 76 78  2  0
 77 79  2  0
 78 79  1  0
 79 80  1  0
 80 81  2  0
 80 82  1  0
 80 83  2  0
 82 84  1  0
 84 85  2  0
 84 86  1  0
 85 87  1  0
 86 88  2  0
 87 89  2  0
 88 89  1  0
M  END
