x2694-x0978-x3117-x0731-x2703
     RDKit          3D

 61 66  0  0  0  0  0  0  0  0999 V2000
    6.8540   -1.1040   21.7650 N   0  0  0  0  0  0  0  0  0  0  0  0
    6.0850   -2.4090   21.4790 C   0  0  0  0  0  0  0  0  0  0  0  0
    4.7820   -2.8910   21.1580 O   0  0  0  0  0  0  0  0  0  0  0  0
    6.4050    0.3100   21.5910 C   0  0  1  0  0  0  0  0  0  0  0  0
    8.1960   -1.2500   22.5260 C   0  0  0  0  0  0  0  0  0  0  0  0
    7.0550   -3.4720   21.6040 C   0  0  0  0  0  0  0  0  0  0  0  0
    7.5390    1.4350   21.6990 C   0  0  0  0  0  0  0  0  0  0  0  0
    6.0420    0.6290   20.1520 C   0  0  0  0  0  0  0  0  0  0  0  0
    8.3650   -1.3670   23.8660 N   0  0  0  0  0  0  0  0  0  0  0  0
    9.5130   -1.2700   22.0370 C   0  0  0  0  0  0  0  0  0  0  0  0
    6.7750   -4.4850   20.5500 C   0  0  0  0  0  0  0  0  0  0  0  0
    7.1560    2.7300   22.4110 N   0  0  0  0  0  0  0  0  0  0  0  0
    8.6650    1.3250   21.1920 O   0  0  0  0  0  0  0  0  0  0  0  0
    4.9370    1.4490   19.9680 C   0  0  0  0  0  0  0  0  0  0  0  0
    6.7330    0.1890   19.0720 C   0  0  0  0  0  0  0  0  0  0  0  0
    9.7430   -1.4450   24.1510 O   0  0  0  0  0  0  0  0  0  0  0  0
   10.4990   -1.3910   23.0080 C   0  0  0  0  0  0  0  0  0  0  0  0
   12.0190   -1.4690   23.1290 C   0  0  0  0  0  0  0  0  0  0  0  0
    6.3230    0.5900   17.7140 N   0  0  0  0  0  0  0  0  0  0  0  0
    4.5550    1.8220   18.7280 C   0  0  0  0  0  0  0  0  0  0  0  0
    8.0820    3.7840   22.8240 C   0  0  0  0  0  0  0  0  0  0  0  0
    6.7380   -5.7150   21.3900 N   0  0  0  0  0  0  0  0  0  0  0  0
    5.7430    3.1270   22.5200 C   0  0  0  0  0  0  0  0  0  0  0  0
   12.6750   -0.1490   23.5440 C   0  0  0  0  0  0  0  0  0  0  0  0
   12.6430   -1.9180   21.8260 C   0  0  0  0  0  0  0  0  0  0  0  0
   12.2680   -2.5870   24.1610 C   0  0  0  0  0  0  0  0  0  0  0  0
    5.2400    1.4040   17.6450 C   0  0  0  0  0  0  0  0  0  0  0  0
    8.9400    3.5980   23.8790 C   0  0  0  0  0  0  0  0  0  0  0  0
    8.1700    5.1470   22.1630 C   0  0  0  0  0  0  0  0  0  0  0  0
    7.5460   -5.6890   22.6360 C   0  0  0  0  0  0  0  0  0  0  0  0
    5.3570   -6.1500   21.5950 C   0  0  0  0  0  0  0  0  0  0  0  0
    5.3690    4.1160   21.6150 C   0  0  0  0  0  0  0  0  0  0  0  0
    8.8960    2.2770   24.6230 C   0  0  0  0  0  0  0  0  0  0  0  0
   13.4080   -2.4400   25.1980 C   0  0  0  0  0  0  0  0  0  0  0  0
    9.8840    4.5570   24.3670 C   0  0  0  0  0  0  0  0  0  0  0  0
    9.0930    6.0570   22.6650 C   0  0  0  0  0  0  0  0  0  0  0  0
    6.9280   -5.2070   23.8030 C   0  0  0  0  0  0  0  0  0  0  0  0
    4.9500   -6.4300   23.0650 C   0  0  2  0  0  0  0  0  0  0  0  0
    7.6120    1.7990   24.8700 C   0  0  0  0  0  0  0  0  0  0  0  0
    3.3800   -6.7230   23.3460 C   0  0  2  0  0  0  0  0  0  0  0  0
    9.9430    5.8100   23.7300 C   0  0  0  0  0  0  0  0  0  0  0  0
    5.5610   -5.2950   23.9240 C   0  0  2  0  0  0  0  0  0  0  0  0
   10.8590    6.7140   24.2330 O   0  0  0  0  0  0  0  0  0  0  0  0
    2.4660   -5.6750   22.9120 N   0  0  0  0  0  0  0  0  0  0  0  0
    3.0860   -7.0440   24.6680 C   0  0  1  0  0  0  0  0  0  0  0  0
    4.9710   -4.0830   23.3720 O   0  0  0  0  0  0  0  0  0  0  0  0
    5.0120   -5.4770   25.6680 S   0  0  1  0  0  0  0  0  0  0  0  0
   11.8860    6.2850   25.1220 C   0  0  0  0  0  0  0  0  0  0  0  0
    2.6730   -8.3460   24.9090 C   0  0  0  0  0  0  0  0  0  0  0  0
    4.2230   -7.0070   25.6160 N   0  0  0  0  0  0  0  0  0  0  0  0
    1.0580   -6.1700   22.5830 C   0  0  0  0  0  0  0  0  0  0  0  0
    6.0690   -5.4410   26.6620 O   0  0  0  0  0  0  0  0  0  0  0  0
    3.9060   -4.0890   25.8780 C   0  0  0  0  0  0  0  0  0  0  0  0
    0.8750   -7.2580   22.0420 O   0  0  0  0  0  0  0  0  0  0  0  0
   -0.1370   -5.4830   22.8230 C   0  0  0  0  0  0  0  0  0  0  0  0
    2.5970   -4.1740   25.3990 C   0  0  0  0  0  0  0  0  0  0  0  0
    4.3410   -2.9270   26.5100 C   0  0  0  0  0  0  0  0  0  0  0  0
    1.7100   -3.1130   25.5490 C   0  0  0  0  0  0  0  0  0  0  0  0
    3.4550   -1.8600   26.6610 C   0  0  0  0  0  0  0  0  0  0  0  0
    2.1440   -1.9580   26.1840 C   0  0  0  0  0  0  0  0  0  0  0  0
    1.2050   -0.8050   26.3650 C   0  0  0  0  0  0  0  0  0  0  0  0
  1  2  1  0
  2  3  2  0
  1  4  1  0
  1  5  1  0
  2  6  1  0
  4  7  1  6
  4  8  1  0
  5  9  2  0
  5 10  1  0
  6 11  1  0
  7 12  1  0
  7 13  2  0
  8 14  2  0
  8 15  1  0
  9 16  1  0
 10 17  2  0
 16 17  1  0
 17 18  1  0
 15 19  2  0
 14 20  1  0
 12 21  1  0
 11 22  1  0
 12 23  1  0
 18 24  1  0
 18 25  1  0
 18 26  1  0
 19 27  1  0
 20 27  2  0
 21 28  2  0
 21 29  1  0
 22 30  1  0
 22 31  1  0
 23 32  1  0
 28 33  1  0
 26 34  1  0
 28 35  1  0
 29 36  2  0
 30 37  1  0
 38 31  1  6
 33 39  1  0
 38 40  1  0
 35 41  2  0
 36 41  1  0
 37 42  1  0
 38 42  1  0
 41 43  1  0
 40 44  1  1
 40 45  1  0
 42 46  1  6
 42 47  1  0
 43 48  1  0
 45 49  1  6
 45 50  1  0
 47 50  2  0
 44 51  1  0
 47 52  2  0
 47 53  1  1
 51 54  2  0
 51 55  1  0
 53 56  2  0
 53 57  1  0
 56 58  1  0
 57 59  2  0
 58 60  2  0
 59 60  1  0
 60 61  1  0
M  END
