x2694-x1308-x0771-x3124-x2703
     RDKit          3D

 60 65  0  0  0  0  0  0  0  0999 V2000
    6.7570   -1.2130   21.8630 C   0  0  1  0  0  0  0  0  0  0  0  0
    5.8860   -2.2880   20.9270 C   0  0  0  0  0  0  0  0  0  0  0  0
    4.8320   -3.0130   21.1890 O   0  0  0  0  0  0  0  0  0  0  0  0
    6.4990    0.3030   21.6190 C   0  0  1  0  0  0  0  0  0  0  0  0
    5.8570   -1.6620   22.9880 C   0  0  0  0  0  0  0  0  0  0  0  0
    8.2620   -1.3480   22.4450 C   0  0  0  0  0  0  0  0  0  0  0  0
    6.1610   -2.5010   19.5250 C   0  0  0  0  0  0  0  0  0  0  0  0
    7.5380    1.3480   21.8180 C   0  0  0  0  0  0  0  0  0  0  0  0
    5.4410   -2.9870   22.6090 C   0  0  0  0  0  0  0  0  0  0  0  0
    5.9920    0.6560   20.2610 C   0  0  0  0  0  0  0  0  0  0  0  0
    8.4780   -1.3920   23.9010 N   0  0  0  0  0  0  0  0  0  0  0  0
    9.5860   -1.4150   21.9650 C   0  0  0  0  0  0  0  0  0  0  0  0
    7.0190   -3.4930   20.3250 C   0  0  0  0  0  0  0  0  0  0  0  0
    7.2680    2.4850   22.1920 N   0  0  0  0  0  0  0  0  0  0  0  0
    8.7120    1.0760   21.5550 O   0  0  0  0  0  0  0  0  0  0  0  0
    4.7590    1.2520   20.0660 C   0  0  0  0  0  0  0  0  0  0  0  0
    6.7920    0.3890   19.1650 C   0  0  0  0  0  0  0  0  0  0  0  0
    9.8640   -1.4680   24.1300 O   0  0  0  0  0  0  0  0  0  0  0  0
   10.5860   -1.4890   22.9590 C   0  0  0  0  0  0  0  0  0  0  0  0
    6.4350   -4.0410   21.8840 C   0  0  2  0  0  0  0  0  0  0  0  0
   12.1100   -1.5680   23.0550 C   0  0  0  0  0  0  0  0  0  0  0  0
    6.4850    0.6770   17.8830 N   0  0  0  0  0  0  0  0  0  0  0  0
    4.4010    1.5740   18.7880 C   0  0  0  0  0  0  0  0  0  0  0  0
    8.1810    3.5900   22.7420 C   0  0  0  0  0  0  0  0  0  0  0  0
    6.0370   -5.3970   21.8620 C   0  0  0  0  0  0  0  0  0  0  0  0
    7.4360   -4.0100   22.8700 C   0  0  0  0  0  0  0  0  0  0  0  0
    5.9790    3.0330   21.7130 C   0  0  0  0  0  0  0  0  0  0  0  0
   12.7100   -0.2330   23.4870 C   0  0  0  0  0  0  0  0  0  0  0  0
   12.7250   -1.8960   21.6680 C   0  0  0  0  0  0  0  0  0  0  0  0
   12.4720   -2.7110   23.9670 C   0  0  0  0  0  0  0  0  0  0  0  0
    5.1960    1.3290   17.7050 C   0  0  0  0  0  0  0  0  0  0  0  0
    8.9860    3.4110   23.8590 C   0  0  0  0  0  0  0  0  0  0  0  0
    8.2320    4.8540   22.1380 C   0  0  0  0  0  0  0  0  0  0  0  0
    5.8820   -5.9900   23.1930 C   0  0  0  0  0  0  0  0  0  0  0  0
    6.9670   -4.0670   24.2040 C   0  0  0  0  0  0  0  0  0  0  0  0
    5.6450    4.2790   22.1780 C   0  0  0  0  0  0  0  0  0  0  0  0
    8.9490    2.1970   24.5120 C   0  0  0  0  0  0  0  0  0  0  0  0
   13.3610   -2.4620   25.1740 C   0  0  0  0  0  0  0  0  0  0  0  0
    9.8560    4.3830   24.4210 C   0  0  0  0  0  0  0  0  0  0  0  0
    9.0590    5.8660   22.6370 C   0  0  0  0  0  0  0  0  0  0  0  0
    6.1210   -5.1520   24.3540 C   0  0  1  0  0  0  0  0  0  0  0  0
    7.5620    1.6180   24.7810 C   0  0  0  0  0  0  0  0  0  0  0  0
    4.8270   -5.2400   25.5790 S   0  0  0  0  0  0  0  0  0  0  0  0
    6.8740   -5.8320   25.8770 S   0  0  0  0  0  0  0  0  0  0  0  0
    9.9390    5.6370   23.8520 C   0  0  0  0  0  0  0  0  0  0  0  0
   10.7530    6.6380   24.3360 O   0  0  0  0  0  0  0  0  0  0  0  0
    4.1760   -6.5310   25.4270 O   0  0  0  0  0  0  0  0  0  0  0  0
    5.4370   -4.8970   26.8570 O   0  0  0  0  0  0  0  0  0  0  0  0
    8.2740   -6.0210   25.7430 O   0  0  0  0  0  0  0  0  0  0  0  0
    6.0050   -6.8460   26.4750 O   0  0  0  0  0  0  0  0  0  0  0  0
    3.6660   -4.1220   25.6760 C   0  0  0  0  0  0  0  0  0  0  0  0
   11.8930    6.2780   25.1090 C   0  0  0  0  0  0  0  0  0  0  0  0
    2.2280   -4.5150   25.3430 C   0  0  0  0  0  0  0  0  0  0  0  0
    3.8850   -2.6640   26.1170 C   0  0  0  0  0  0  0  0  0  0  0  0
    1.7920   -5.8820   24.8890 C   0  0  0  0  0  0  0  0  0  0  0  0
    1.1600   -3.4730   25.4890 C   0  0  0  0  0  0  0  0  0  0  0  0
    2.7300   -1.6900   26.2290 C   0  0  0  0  0  0  0  0  0  0  0  0
    1.4270   -2.0640   25.9410 C   0  0  0  0  0  0  0  0  0  0  0  0
    0.3200   -1.0870   26.0890 C   0  0  0  0  0  0  0  0  0  0  0  0
   -0.0760   -0.9710   27.7350 Cl  0  0  0  0  0  0  0  0  0  0  0  0
  1  2  1  0
  2  3  2  0
  1  4  1  0
  1  5  1  0
  1  6  1  1
  2  7  1  0
  4  8  1  6
  5  9  1  0
  4 10  1  0
  6 11  2  0
  6 12  1  0
  7 13  1  0
  8 14  1  0
  8 15  2  0
 10 16  2  0
 10 17  1  0
 11 18  1  0
 12 19  2  0
 18 19  1  0
 20  9  1  1
 13 20  1  0
 19 21  1  0
 17 22  2  0
 16 23  1  0
 14 24  1  0
 20 25  1  0
 20 26  1  0
 14 27  1  0
 21 28  1  0
 21 29  1  0
 21 30  1  0
 22 31  1  0
 23 31  2  0
 24 32  2  0
 24 33  1  0
 25 34  1  0
 26 35  1  0
 27 36  1  0
 32 37  1  0
 30 38  1  0
 32 39  1  0
 33 40  2  0
 41 34  1  0
 35 41  1  0
 37 42  1  0
 41 43  1  0
 41 44  1  1
 39 45  2  0
 40 45  1  0
 45 46  1  0
 43 47  2  0
 43 48  2  0
 44 49  2  0
 44 50  2  0
 43 51  1  0
 46 52  1  0
 51 53  2  0
 51 54  1  0
 53 55  1  0
 53 56  1  0
 54 57  2  0
 56 58  2  0
 57 58  1  0
 58 59  1  0
 59 60  1  0
M  END
