x2694-x1493-x0540
     RDKit          3D

 56 60  0  0  0  0  0  0  0  0999 V2000
    6.8670   -1.4850   22.1770 C   0  0  1  0  0  0  0  0  0  0  0  0
    6.2110   -2.7010   21.2550 C   0  0  0  0  0  0  0  0  0  0  0  0
    4.9000   -3.0460   21.0920 O   0  0  0  0  0  0  0  0  0  0  0  0
    6.7280    0.0450   21.6960 C   0  0  1  0  0  0  0  0  0  0  0  0
    5.9590   -1.6860   23.4710 C   0  0  0  0  0  0  0  0  0  0  0  0
    8.3540   -1.5620   22.7630 C   0  0  0  0  0  0  0  0  0  0  0  0
    7.1430   -3.6240   20.5800 C   0  0  0  0  0  0  0  0  0  0  0  0
    7.8920    0.9010   21.8330 C   0  0  0  0  0  0  0  0  0  0  0  0
    5.4910   -2.9890   23.7270 C   0  0  0  0  0  0  0  0  0  0  0  0
    6.1390    0.4500   20.3570 C   0  0  0  0  0  0  0  0  0  0  0  0
    8.6610   -1.6970   24.2140 N   0  0  0  0  0  0  0  0  0  0  0  0
    9.6350   -1.4900   22.1710 C   0  0  0  0  0  0  0  0  0  0  0  0
    7.4510   -3.2200   19.1930 C   0  0  0  0  0  0  0  0  0  0  0  0
    7.6900    2.0380   22.7520 N   0  0  0  0  0  0  0  0  0  0  0  0
    8.9510    0.7490   21.2510 O   0  0  0  0  0  0  0  0  0  0  0  0
    4.9340    1.0920   20.2860 C   0  0  0  0  0  0  0  0  0  0  0  0
    6.8830    0.1560   19.2130 C   0  0  0  0  0  0  0  0  0  0  0  0
   10.0590   -1.6840   24.3310 O   0  0  0  0  0  0  0  0  0  0  0  0
   10.6800   -1.5570   23.1190 C   0  0  0  0  0  0  0  0  0  0  0  0
    6.5570   -4.1040   24.2030 C   0  0  1  0  0  0  0  0  0  0  0  0
   12.2100   -1.5120   23.0910 C   0  0  0  0  0  0  0  0  0  0  0  0
    4.1480    1.3920   21.5120 C   0  0  0  0  0  0  0  0  0  0  0  0
    6.5640    0.4480   17.9360 N   0  0  0  0  0  0  0  0  0  0  0  0
    4.4970    1.4640   18.8800 C   0  0  0  0  0  0  0  0  0  0  0  0
    8.5050    3.2150   23.0050 C   0  0  0  0  0  0  0  0  0  0  0  0
    5.9950   -5.3790   24.5880 N   0  0  0  0  0  0  0  0  0  0  0  0
    7.4530   -4.4260   23.1870 C   0  0  0  0  0  0  0  0  0  0  0  0
   12.5970   -0.0480   23.3540 C   0  0  0  0  0  0  0  0  0  0  0  0
   12.7020   -2.0600   21.7750 C   0  0  0  0  0  0  0  0  0  0  0  0
   12.6440   -2.5120   24.1160 C   0  0  0  0  0  0  0  0  0  0  0  0
    4.9080    2.2210   22.5620 C   0  0  0  0  0  0  0  0  0  0  0  0
    5.8020   -5.7320   25.9170 C   0  0  0  0  0  0  0  0  0  0  0  0
    5.2920    1.1500   17.8030 C   0  0  0  0  0  0  0  0  0  0  0  0
    9.7290    3.0860   23.6460 C   0  0  0  0  0  0  0  0  0  0  0  0
    8.0580    4.4780   22.6130 C   0  0  0  0  0  0  0  0  0  0  0  0
    7.0990   -5.5700   22.2980 N   0  0  0  0  0  0  0  0  0  0  0  0
    5.2030   -6.0130   23.5200 C   0  0  0  0  0  0  0  0  0  0  0  0
   10.1990    1.8010   24.0570 C   0  0  0  0  0  0  0  0  0  0  0  0
    3.8060    3.0440   23.0240 N   0  0  0  0  0  0  0  0  0  0  0  0
    4.5750   -6.5350   26.2390 C   0  0  0  0  0  0  0  0  0  0  0  0
    6.5770   -5.4320   26.8300 O   0  0  0  0  0  0  0  0  0  0  0  0
   10.5280    4.1980   23.9100 C   0  0  0  0  0  0  0  0  0  0  0  0
    8.8400    5.7710   22.8540 C   0  0  0  0  0  0  0  0  0  0  0  0
    5.7750   -5.8460   22.2020 C   0  0  0  0  0  0  0  0  0  0  0  0
    2.7250    2.3410   23.7340 C   0  0  0  0  0  0  0  0  0  0  0  0
   10.2120    5.6540   23.5740 C   0  0  0  0  0  0  0  0  0  0  0  0
   10.9550    6.7770   23.8260 O   0  0  0  0  0  0  0  0  0  0  0  0
    2.8830    1.4630   24.7650 O   0  0  0  0  0  0  0  0  0  0  0  0
    1.5350    2.6860   23.1710 N   0  0  0  0  0  0  0  0  0  0  0  0
   11.8770    6.6910   24.9100 C   0  0  0  0  0  0  0  0  0  0  0  0
    0.4370    3.1030   24.0260 C   0  0  0  0  0  0  0  0  0  0  0  0
    0.5640    4.6000   24.3320 C   0  0  0  0  0  0  0  0  0  0  0  0
   -0.7250    2.7250   23.3660 C   0  0  0  0  0  0  0  0  0  0  0  0
   -0.5840    5.0040   25.0200 C   0  0  0  0  0  0  0  0  0  0  0  0
   -1.8660    3.3840   23.8470 C   0  0  0  0  0  0  0  0  0  0  0  0
   -1.7230    4.7110   24.2790 C   0  0  0  0  0  0  0  0  0  0  0  0
  1  2  1  0
  2  3  2  0
  1  4  1  0
  1  5  1  1
  1  6  1  0
  2  7  1  0
  4  8  1  6
  5  9  1  0
  4 10  1  0
  6 11  2  0
  6 12  1  0
  7 13  1  0
  8 14  1  0
  8 15  2  0
 10 16  1  0
 10 17  2  0
 11 18  1  0
 12 19  2  0
 18 19  1  0
 20  9  1  6
 19 21  1  0
 16 22  1  0
 17 23  1  0
 16 24  2  0
 14 25  1  0
 20 26  1  0
 20 27  1  0
 21 28  1  0
 21 29  1  0
 21 30  1  0
 22 31  1  0
 26 32  1  0
 23 33  2  0
 24 33  1  0
 25 34  2  0
 25 35  1  0
 27 36  1  0
 26 37  1  0
 34 38  1  0
 31 39  1  0
 32 40  1  0
 32 41  2  0
 34 42  1  0
 35 43  2  0
 36 44  1  0
 37 44  1  0
 39 45  1  0
 42 46  2  0
 43 46  1  0
 46 47  1  0
 45 48  2  0
 45 49  1  0
 47 50  1  0
 49 51  1  0
 51 52  1  0
 51 53  1  0
 52 54  1  0
 53 55  1  0
 54 56  1  0
 55 56  1  0
M  END
