x2694-x1348-x2705
     RDKit          3D

 47 51  0  0  0  0  0  0  0  0999 V2000
    7.0350   -1.3960   21.7060 N   0  0  0  0  0  0  0  0  0  0  0  0
    6.1700   -2.6340   21.4100 C   0  0  0  0  0  0  0  0  0  0  0  0
    4.8410   -2.9610   21.1350 O   0  0  0  0  0  0  0  0  0  0  0  0
    6.6220    0.0500   21.5560 C   0  0  1  0  0  0  0  0  0  0  0  0
    8.2790   -1.4520   22.4790 C   0  0  0  0  0  0  0  0  0  0  0  0
    7.0070   -3.8520   21.4630 C   0  0  2  0  0  0  0  0  0  0  0  0
    7.6690    1.2040   21.8840 C   0  0  0  0  0  0  0  0  0  0  0  0
    6.1190    0.4440   20.2020 C   0  0  0  0  0  0  0  0  0  0  0  0
    8.3860   -1.5930   23.8250 N   0  0  0  0  0  0  0  0  0  0  0  0
    9.6150   -1.3670   22.0270 C   0  0  0  0  0  0  0  0  0  0  0  0
    6.8570   -4.5660   20.1640 C   0  0  0  0  0  0  0  0  0  0  0  0
    7.3940    2.3390   22.7950 N   0  0  0  0  0  0  0  0  0  0  0  0
    8.9120    1.2220   21.1730 O   0  0  0  0  0  0  0  0  0  0  0  0
    4.9600    1.2110   20.1120 C   0  0  0  0  0  0  0  0  0  0  0  0
    6.8250    0.0600   19.0740 C   0  0  0  0  0  0  0  0  0  0  0  0
    9.7350   -1.5940   24.2030 O   0  0  0  0  0  0  0  0  0  0  0  0
   10.5100   -1.4570   23.1040 C   0  0  0  0  0  0  0  0  0  0  0  0
    6.4400   -4.6150   22.5690 C   0  0  0  0  0  0  0  0  0  0  0  0
   12.0770   -1.4180   23.1590 C   0  0  0  0  0  0  0  0  0  0  0  0
    6.3140    0.5120   17.7770 N   0  0  0  0  0  0  0  0  0  0  0  0
    4.4920    1.6230   18.8880 C   0  0  0  0  0  0  0  0  0  0  0  0
    8.3790    3.3790   23.0530 C   0  0  0  0  0  0  0  0  0  0  0  0
    6.9360   -4.5050   23.9450 N   0  0  0  0  0  0  0  0  0  0  0  0
    5.0690   -5.7060   22.3090 S   0  0  0  0  0  0  0  0  0  0  0  0
    6.0180    2.8420   23.0150 C   0  0  0  0  0  0  0  0  0  0  0  0
   12.6530   -0.0210   23.4160 C   0  0  0  0  0  0  0  0  0  0  0  0
   12.7220   -1.9120   21.8440 C   0  0  0  0  0  0  0  0  0  0  0  0
   12.5960   -2.3420   24.2930 C   0  0  0  0  0  0  0  0  0  0  0  0
    5.2010    1.2530   17.7830 C   0  0  0  0  0  0  0  0  0  0  0  0
    9.6620    3.1660   23.6180 C   0  0  0  0  0  0  0  0  0  0  0  0
    8.1320    4.8490   22.7490 C   0  0  0  0  0  0  0  0  0  0  0  0
    6.0710   -5.3530   24.7150 C   0  0  0  0  0  0  0  0  0  0  0  0
    5.1170   -5.9980   24.0560 C   0  0  0  0  0  0  0  0  0  0  0  0
    5.6780    3.6840   22.0080 C   0  0  0  0  0  0  0  0  0  0  0  0
   10.0550    1.7510   23.9740 C   0  0  0  0  0  0  0  0  0  0  0  0
   10.5550    4.1530   23.8620 C   0  0  0  0  0  0  0  0  0  0  0  0
    9.0560    5.7940   23.0200 C   0  0  0  0  0  0  0  0  0  0  0  0
    6.1800   -5.5360   26.1730 C   0  0  0  0  0  0  0  0  0  0  0  0
    4.1630   -6.8790   24.6850 C   0  0  0  0  0  0  0  0  0  0  0  0
    9.1190    1.1580   25.0350 C   0  0  0  0  0  0  0  0  0  0  0  0
    7.1770   -4.8620   26.8450 O   0  0  0  0  0  0  0  0  0  0  0  0
   10.2650    5.5990   23.5610 C   0  0  0  0  0  0  0  0  0  0  0  0
    4.3140   -7.0020   26.0370 C   0  0  0  0  0  0  0  0  0  0  0  0
    5.2630   -6.3810   26.7940 C   0  0  0  0  0  0  0  0  0  0  0  0
   11.1460    6.6340   23.8130 O   0  0  0  0  0  0  0  0  0  0  0  0
    7.7250   -5.6220   27.9240 C   0  0  0  0  0  0  0  0  0  0  0  0
   11.8590    6.5780   25.0420 C   0  0  0  0  0  0  0  0  0  0  0  0
  1  2  1  0
  2  3  2  0
  1  4  1  0
  1  5  1  0
  2  6  1  0
  4  7  1  6
  4  8  1  0
  5  9  2  0
  5 10  1  0
  6 11  1  6
  7 12  1  0
  7 13  2  0
  8 14  2  0
  8 15  1  0
  9 16  1  0
 10 17  2  0
 16 17  1  0
  6 18  1  0
 17 19  1  0
 15 20  2  0
 14 21  1  0
 12 22  1  0
 18 23  2  0
 18 24  1  0
 12 25  1  0
 19 26  1  0
 19 27  1  0
 19 28  1  0
 20 29  1  0
 21 29  2  0
 22 30  2  0
 22 31  1  0
 23 32  1  0
 24 33  1  0
 32 33  2  0
 25 34  1  0
 30 35  1  0
 30 36  1  0
 31 37  2  0
 32 38  1  0
 33 39  1  0
 35 40  1  0
 38 41  1  0
 36 42  2  0
 37 42  1  0
 39 43  2  0
 38 44  2  0
 43 44  1  0
 42 45  1  0
 41 46  1  0
 45 47  1  0
M  END
