x2694-x0771-x3115
     RDKit          3D

 54 59  0  0  0  0  0  0  0  0999 V2000
    6.7010   -1.2850   21.9690 C   0  0  1  0  0  0  0  0  0  0  0  0
    5.7710   -2.2900   21.0590 C   0  0  0  0  0  0  0  0  0  0  0  0
    4.6750   -2.9140   21.3460 O   0  0  0  0  0  0  0  0  0  0  0  0
    6.4730    0.2700   21.6440 C   0  0  1  0  0  0  0  0  0  0  0  0
    5.9720   -1.7230   22.9460 C   0  0  0  0  0  0  0  0  0  0  0  0
    8.1880   -1.4310   22.5610 C   0  0  0  0  0  0  0  0  0  0  0  0
    6.2100   -2.5660   19.7790 C   0  0  0  0  0  0  0  0  0  0  0  0
    7.7990    1.0770   21.9800 C   0  0  0  0  0  0  0  0  0  0  0  0
    5.9330   -3.1560   22.9150 C   0  0  0  0  0  0  0  0  0  0  0  0
    6.0010    0.7090   20.2930 C   0  0  0  0  0  0  0  0  0  0  0  0
    8.3940   -1.5960   24.0060 N   0  0  0  0  0  0  0  0  0  0  0  0
    9.4570   -1.4160   22.0430 C   0  0  0  0  0  0  0  0  0  0  0  0
    6.7380   -3.8880   20.1170 C   0  0  0  0  0  0  0  0  0  0  0  0
    7.5700    2.2590   22.8330 N   0  0  0  0  0  0  0  0  0  0  0  0
    8.9230    0.8480   21.5550 O   0  0  0  0  0  0  0  0  0  0  0  0
    4.8820    1.4650   20.0640 C   0  0  0  0  0  0  0  0  0  0  0  0
    6.7430    0.3480   19.1620 C   0  0  0  0  0  0  0  0  0  0  0  0
    9.7950   -1.6530   24.1880 O   0  0  0  0  0  0  0  0  0  0  0  0
   10.4890   -1.5390   22.9950 C   0  0  0  0  0  0  0  0  0  0  0  0
    6.5120   -4.1970   21.7860 C   0  0  0  0  0  0  0  0  0  0  0  0
   12.0310   -1.5710   23.0860 C   0  0  0  0  0  0  0  0  0  0  0  0
    6.3760    0.7510   17.7950 N   0  0  0  0  0  0  0  0  0  0  0  0
    4.4830    1.8830   18.7760 C   0  0  0  0  0  0  0  0  0  0  0  0
    8.4800    3.3070   23.0580 C   0  0  0  0  0  0  0  0  0  0  0  0
    5.6350   -5.3070   21.7510 C   0  0  0  0  0  0  0  0  0  0  0  0
    7.6720   -4.7910   22.5630 C   0  0  0  0  0  0  0  0  0  0  0  0
   12.6110   -0.2490   23.6330 C   0  0  0  0  0  0  0  0  0  0  0  0
   12.7050   -1.8360   21.7240 C   0  0  0  0  0  0  0  0  0  0  0  0
   12.4820   -2.7170   24.0140 C   0  0  0  0  0  0  0  0  0  0  0  0
    5.1820    1.5670   17.6350 C   0  0  0  0  0  0  0  0  0  0  0  0
    9.8450    3.1150   23.6900 C   0  0  0  0  0  0  0  0  0  0  0  0
    8.1590    4.6180   22.6990 C   0  0  0  0  0  0  0  0  0  0  0  0
    5.1950   -5.9130   22.9380 C   0  0  0  0  0  0  0  0  0  0  0  0
    7.2800   -5.0270   24.0550 C   0  0  0  0  0  0  0  0  0  0  0  0
   10.3910    1.7870   24.1390 C   0  0  0  0  0  0  0  0  0  0  0  0
   13.3670   -2.4020   25.2160 C   0  0  0  0  0  0  0  0  0  0  0  0
   10.6200    4.2480   23.8590 C   0  0  0  0  0  0  0  0  0  0  0  0
    8.9320    5.7660   22.8630 C   0  0  0  0  0  0  0  0  0  0  0  0
    5.8230   -5.3260   24.1520 N   0  0  0  0  0  0  0  0  0  0  0  0
    8.3930    7.0820   22.3970 C   0  0  0  0  0  0  0  0  0  0  0  0
    5.1840   -5.6760   25.5210 S   0  0  0  0  0  0  0  0  0  0  0  0
   10.2050    5.6630   23.4610 C   0  0  0  0  0  0  0  0  0  0  0  0
   11.0170    6.7830   23.6700 O   0  0  0  0  0  0  0  0  0  0  0  0
    4.5390   -6.9570   25.3500 O   0  0  0  0  0  0  0  0  0  0  0  0
    5.9310   -5.4760   26.7380 O   0  0  0  0  0  0  0  0  0  0  0  0
    3.8230   -4.5240   25.6770 C   0  0  0  0  0  0  0  0  0  0  0  0
   11.8760    6.7560   24.8080 C   0  0  0  0  0  0  0  0  0  0  0  0
    2.3690   -4.8760   25.3360 C   0  0  0  0  0  0  0  0  0  0  0  0
    4.0910   -3.1090   26.1860 C   0  0  0  0  0  0  0  0  0  0  0  0
    1.8770   -6.1930   24.8230 C   0  0  0  0  0  0  0  0  0  0  0  0
    1.3600   -3.7450   25.5620 C   0  0  0  0  0  0  0  0  0  0  0  0
    3.1080   -2.1300   26.3650 C   0  0  0  0  0  0  0  0  0  0  0  0
    1.7520   -2.3620   26.0880 C   0  0  0  0  0  0  0  0  0  0  0  0
    0.7070   -1.3080   26.2950 C   0  0  0  0  0  0  0  0  0  0  0  0
  1  2  1  0
  2  3  2  0
  1  4  1  0
  1  5  1  0
  1  6  1  1
  2  7  1  0
  4  8  1  6
  5  9  1  0
  4 10  1  0
  6 11  2  0
  6 12  1  0
  7 13  1  0
  8 14  1  0
  8 15  2  0
 10 16  2  0
 10 17  1  0
 11 18  1  0
 12 19  2  0
 18 19  1  0
 20  9  1  0
 13 20  1  0
 19 21  1  0
 17 22  2  0
 16 23  1  0
 14 24  1  0
 20 25  1  0
 20 26  1  0
 21 27  1  0
 21 28  1  0
 21 29  1  0
 22 30  1  0
 23 30  2  0
 24 31  2  0
 24 32  1  0
 25 33  1  0
 26 34  1  0
 31 35  1  0
 29 36  1  0
 31 37  1  0
 32 38  2  0
 33 39  1  0
 34 39  1  0
 38 40  1  0
 39 41  1  0
 37 42  2  0
 38 42  1  0
 42 43  1  0
 41 44  2  0
 41 45  2  0
 41 46  1  0
 43 47  1  0
 46 48  2  0
 46 49  1  0
 48 50  1  0
 48 51  1  0
 49 52  2  0
 51 53  2  0
 52 53  1  0
 53 54  1  0
M  END
