x2694-x1348-x1308
     RDKit          3D

 52 57  0  0  0  0  0  0  0  0999 V2000
    7.0410   -1.3340   21.7180 N   0  0  0  0  0  0  0  0  0  0  0  0
    6.2220   -2.6110   21.3850 C   0  0  0  0  0  0  0  0  0  0  0  0
    4.8790   -3.0110   21.1750 O   0  0  0  0  0  0  0  0  0  0  0  0
    6.6730    0.0390   21.5830 C   0  0  1  0  0  0  0  0  0  0  0  0
    8.3030   -1.4470   22.5150 C   0  0  0  0  0  0  0  0  0  0  0  0
    7.1320   -3.7980   21.2490 C   0  0  2  0  0  0  0  0  0  0  0  0
    7.8140    1.0900   21.8050 C   0  0  0  0  0  0  0  0  0  0  0  0
    6.1060    0.4660   20.2510 C   0  0  0  0  0  0  0  0  0  0  0  0
    8.3980   -1.6360   23.8520 N   0  0  0  0  0  0  0  0  0  0  0  0
    9.5940   -1.3520   22.0090 C   0  0  0  0  0  0  0  0  0  0  0  0
    6.8620   -4.3230   19.8930 C   0  0  0  0  0  0  0  0  0  0  0  0
    7.6180    2.0870   22.8760 N   0  0  0  0  0  0  0  0  0  0  0  0
    8.8370    1.1870   21.1240 O   0  0  0  0  0  0  0  0  0  0  0  0
    4.8680    1.3260   20.1080 C   0  0  0  0  0  0  0  0  0  0  0  0
    6.8010    0.0480   19.1000 C   0  0  0  0  0  0  0  0  0  0  0  0
    9.7910   -1.6480   24.1480 O   0  0  0  0  0  0  0  0  0  0  0  0
   10.5670   -1.4750   23.0220 C   0  0  0  0  0  0  0  0  0  0  0  0
    6.5100   -4.6320   22.3090 C   0  0  0  0  0  0  0  0  0  0  0  0
   12.0950   -1.4550   23.1530 C   0  0  0  0  0  0  0  0  0  0  0  0
    6.3800    0.4160   17.8920 N   0  0  0  0  0  0  0  0  0  0  0  0
    4.4560    1.6890   18.8740 C   0  0  0  0  0  0  0  0  0  0  0  0
    8.4550    3.3040   23.0960 C   0  0  0  0  0  0  0  0  0  0  0  0
    6.9200   -4.3800   23.6780 N   0  0  0  0  0  0  0  0  0  0  0  0
    5.3020   -5.8090   21.9740 S   0  0  0  0  0  0  0  0  0  0  0  0
   12.6350   -0.0340   23.4500 C   0  0  0  0  0  0  0  0  0  0  0  0
   12.7560   -1.9270   21.8470 C   0  0  0  0  0  0  0  0  0  0  0  0
   12.5770   -2.3890   24.2900 C   0  0  0  0  0  0  0  0  0  0  0  0
    5.1850    1.2560   17.8140 C   0  0  0  0  0  0  0  0  0  0  0  0
    9.7000    3.1580   23.6970 C   0  0  0  0  0  0  0  0  0  0  0  0
    8.0190    4.5700   22.7200 C   0  0  0  0  0  0  0  0  0  0  0  0
    6.1020   -5.1360   24.3640 C   0  0  0  0  0  0  0  0  0  0  0  0
    5.2140   -5.9110   23.7180 C   0  0  0  0  0  0  0  0  0  0  0  0
   10.2370    1.9020   24.1190 C   0  0  0  0  0  0  0  0  0  0  0  0
   10.5170    4.2850   23.9250 C   0  0  0  0  0  0  0  0  0  0  0  0
    8.8310    5.6970   22.9520 C   0  0  0  0  0  0  0  0  0  0  0  0
    6.0270   -5.2270   25.6900 C   0  0  0  0  0  0  0  0  0  0  0  0
    4.3120   -6.6890   24.4220 C   0  0  0  0  0  0  0  0  0  0  0  0
    6.8880   -4.5560   26.5210 O   0  0  0  0  0  0  0  0  0  0  0  0
   10.0880    5.5660   23.5610 C   0  0  0  0  0  0  0  0  0  0  0  0
    4.0310   -6.8290   25.7980 C   0  0  0  0  0  0  0  0  0  0  0  0
    5.0700   -5.9820   26.3040 C   0  0  0  0  0  0  0  0  0  0  0  0
   10.9610    6.5970   23.8390 O   0  0  0  0  0  0  0  0  0  0  0  0
    7.4230   -5.4150   27.5500 C   0  0  0  0  0  0  0  0  0  0  0  0
    4.0810   -6.6370   27.2590 C   0  0  0  0  0  0  0  0  0  0  0  0
   11.8340    6.4770   24.9640 C   0  0  0  0  0  0  0  0  0  0  0  0
    3.5190   -5.1390   27.1070 C   0  0  0  0  0  0  0  0  0  0  0  0
    4.0800   -3.9000   27.4960 C   0  0  0  0  0  0  0  0  0  0  0  0
    2.2720   -5.0970   26.4520 C   0  0  0  0  0  0  0  0  0  0  0  0
    3.3920   -2.7060   27.2320 C   0  0  0  0  0  0  0  0  0  0  0  0
    1.6200   -3.8770   26.2100 C   0  0  0  0  0  0  0  0  0  0  0  0
    2.1900   -2.7200   26.6080 C   0  0  0  0  0  0  0  0  0  0  0  0
    1.3590   -1.2410   26.3120 Cl  0  0  0  0  0  0  0  0  0  0  0  0
  1  2  1  0
  2  3  2  0
  1  4  1  0
  1  5  1  0
  2  6  1  0
  4  7  1  6
  4  8  1  0
  5  9  2  0
  5 10  1  0
  6 11  1  6
  7 12  1  0
  7 13  2  0
  8 14  2  0
  8 15  1  0
  9 16  1  0
 10 17  2  0
 16 17  1  0
  6 18  1  0
 17 19  1  0
 15 20  2  0
 14 21  1  0
 12 22  1  0
 18 23  2  0
 18 24  1  0
 19 25  1  0
 19 26  1  0
 19 27  1  0
 20 28  1  0
 21 28  2  0
 22 29  2  0
 22 30  1  0
 23 31  1  0
 24 32  1  0
 31 32  2  0
 29 33  1  0
 29 34  1  0
 30 35  2  0
 31 36  1  0
 32 37  1  0
 36 38  1  0
 34 39  2  0
 35 39  1  0
 37 40  2  0
 36 41  2  0
 40 41  1  0
 39 42  1  0
 38 43  1  0
 40 44  1  0
 42 45  1  0
 44 46  1  0
 46 47  2  0
 46 48  1  0
 47 49  1  0
 48 50  2  0
 49 51  2  0
 50 51  1  0
 51 52  1  0
M  END
