x2694-x3113
     RDKit          3D

 38 42  0  0  0  0  0  0  0  0999 V2000
    7.2150   -1.6340   21.6210 N   0  0  0  0  0  0  0  0  0  0  0  0
    6.0040   -2.5020   21.3770 C   0  0  0  0  0  0  0  0  0  0  0  0
    5.1000   -3.4370   21.2120 O   0  0  0  0  0  0  0  0  0  0  0  0
    6.8910   -0.1640   21.5890 C   0  0  1  0  0  0  0  0  0  0  0  0
    8.4250   -1.8110   22.4520 C   0  0  0  0  0  0  0  0  0  0  0  0
    6.9070   -3.7400   21.6540 C   0  0  0  0  0  0  0  0  0  0  0  0
    7.9920    0.9780   21.8520 C   0  0  0  0  0  0  0  0  0  0  0  0
    6.2670    0.2390   20.3620 C   0  0  0  0  0  0  0  0  0  0  0  0
    9.6730   -1.5760   21.8550 C   0  0  0  0  0  0  0  0  0  0  0  0
    8.4450   -2.1790   23.8120 C   0  0  0  0  0  0  0  0  0  0  0  0
    6.7510   -3.6960   20.0950 C   0  0  0  0  0  0  0  0  0  0  0  0
    7.8650    1.8780   23.0180 N   0  0  0  0  0  0  0  0  0  0  0  0
    8.9090    1.1840   21.0820 O   0  0  0  0  0  0  0  0  0  0  0  0
    5.0960    0.9960   20.2670 C   0  0  0  0  0  0  0  0  0  0  0  0
    6.9090   -0.1480   19.1900 C   0  0  0  0  0  0  0  0  0  0  0  0
   10.9230   -1.6810   22.5350 C   0  0  0  0  0  0  0  0  0  0  0  0
    9.7990   -2.2870   24.5660 C   0  0  0  0  0  0  0  0  0  0  0  0
   12.3120   -1.4590   21.9940 C   0  0  0  0  0  0  0  0  0  0  0  0
    6.3850    0.2320   17.9830 N   0  0  0  0  0  0  0  0  0  0  0  0
    4.5960    1.3580   19.0280 C   0  0  0  0  0  0  0  0  0  0  0  0
   10.9780   -2.0190   23.8770 C   0  0  0  0  0  0  0  0  0  0  0  0
    8.5220    3.1400   23.1850 C   0  0  0  0  0  0  0  0  0  0  0  0
   12.4200   -2.0040   24.3640 C   0  0  0  0  0  0  0  0  0  0  0  0
   13.1250   -2.1810   23.0570 C   0  0  0  0  0  0  0  0  0  0  0  0
    5.2760    0.9580   17.8940 C   0  0  0  0  0  0  0  0  0  0  0  0
    9.9130    3.1360   23.2780 C   0  0  0  0  0  0  0  0  0  0  0  0
    7.9170    4.3980   23.2640 C   0  0  0  0  0  0  0  0  0  0  0  0
   10.8270    1.9520   23.2320 C   0  0  0  0  0  0  0  0  0  0  0  0
   12.9250   -3.0950   25.3220 C   0  0  0  0  0  0  0  0  0  0  0  0
   12.6890   -0.6690   24.9580 C   0  0  0  0  0  0  0  0  0  0  0  0
   10.6770    4.3220   23.4360 C   0  0  0  0  0  0  0  0  0  0  0  0
    8.7320    5.6930   23.4550 C   0  0  0  0  0  0  0  0  0  0  0  0
   12.0530    4.0310   23.4620 N   0  0  0  0  0  0  0  0  0  0  0  0
   12.0250    2.6280   23.0800 C   0  0  0  0  0  0  0  0  0  0  0  0
   10.1160    5.6000   23.5410 C   0  0  0  0  0  0  0  0  0  0  0  0
   13.0250    4.8980   22.7450 C   0  0  0  0  0  0  0  0  0  0  0  0
   10.9630    6.6700   23.7200 O   0  0  0  0  0  0  0  0  0  0  0  0
   11.7680    6.6900   24.9030 C   0  0  0  0  0  0  0  0  0  0  0  0
  1  2  1  0
  2  3  2  0
  1  4  1  0
  1  5  1  0
  2  6  1  0
  4  7  1  6
  4  8  1  0
  5  9  2  0
  5 10  1  0
  6 11  1  0
  7 12  1  0
  7 13  2  0
  8 14  2  0
  8 15  1  0
  9 16  1  0
 10 17  2  0
 16 18  1  0
 15 19  2  0
 14 20  1  0
 16 21  2  0
 17 21  1  0
 12 22  1  0
 21 23  1  0
 18 24  1  0
 23 24  1  0
 19 25  1  0
 20 25  2  0
 22 26  1  0
 22 27  2  0
 26 28  1  0
 23 29  1  0
 23 30  1  0
 26 31  2  0
 27 32  1  0
 31 33  1  0
 28 34  1  0
 33 34  1  0
 31 35  1  0
 32 35  2  0
 33 36  1  0
 35 37  1  0
 37 38  1  0
M  END
