x2694-x1351
     RDKit          3D

 48 53  0  0  0  0  0  0  0  0999 V2000
    7.1610   -1.4240   21.5620 C   0  0  2  0  0  0  0  0  0  0  0  0
    6.1340   -2.7680   21.2710 C   0  0  0  0  0  0  0  0  0  0  0  0
    4.8790   -2.9780   20.8700 O   0  0  0  0  0  0  0  0  0  0  0  0
    6.7030    0.0980   21.4620 C   0  0  1  0  0  0  0  0  0  0  0  0
    6.5910   -1.8640   22.8230 C   0  0  0  0  0  0  0  0  0  0  0  0
    8.5830   -1.3960   22.2600 C   0  0  0  0  0  0  0  0  0  0  0  0
    7.8300    1.2430   21.6900 C   0  0  0  0  0  0  0  0  0  0  0  0
    6.0860    0.5980   20.1680 C   0  0  0  0  0  0  0  0  0  0  0  0
    8.6610   -0.8970   23.5320 N   0  0  0  0  0  0  0  0  0  0  0  0
    9.8640   -1.7560   21.9230 C   0  0  0  0  0  0  0  0  0  0  0  0
    6.8080   -4.0560   21.7050 C   0  0  2  0  0  0  0  0  0  0  0  0
    7.3750   -3.2100   22.8690 C   0  0  2  0  0  0  0  0  0  0  0  0
    6.6800   -3.6830   20.1520 C   0  0  0  0  0  0  0  0  0  0  0  0
    7.5960    2.1720   22.6650 N   0  0  0  0  0  0  0  0  0  0  0  0
    8.8220    1.2790   20.9960 O   0  0  0  0  0  0  0  0  0  0  0  0
    4.9710    1.4170   20.0650 C   0  0  0  0  0  0  0  0  0  0  0  0
    6.8070    0.1340   19.0610 C   0  0  0  0  0  0  0  0  0  0  0  0
   10.0070   -0.9630   23.9280 O   0  0  0  0  0  0  0  0  0  0  0  0
   10.7770   -1.4880   22.9270 C   0  0  0  0  0  0  0  0  0  0  0  0
    7.0520   -3.6880   24.0710 C   0  0  0  0  0  0  0  0  0  0  0  0
    5.7670   -5.0670   22.1710 C   0  0  0  0  0  0  0  0  0  0  0  0
   12.3120   -1.6130   23.1700 C   0  0  0  0  0  0  0  0  0  0  0  0
    6.3830    0.5330   17.8190 N   0  0  0  0  0  0  0  0  0  0  0  0
    4.5290    1.8230   18.8410 C   0  0  0  0  0  0  0  0  0  0  0  0
    8.4530    3.3170   22.9820 C   0  0  0  0  0  0  0  0  0  0  0  0
    5.6890   -3.6190   24.1560 C   0  0  1  0  0  0  0  0  0  0  0  0
    5.0490   -4.8040   23.3900 C   0  0  0  0  0  0  0  0  0  0  0  0
   12.8650   -0.2360   23.4520 C   0  0  0  0  0  0  0  0  0  0  0  0
   12.9850   -2.1240   21.8840 C   0  0  0  0  0  0  0  0  0  0  0  0
   12.6630   -2.5490   24.3490 C   0  0  0  0  0  0  0  0  0  0  0  0
    5.3390   -3.5770   25.5750 N   0  0  0  0  0  0  0  0  0  0  0  0
    5.2060    1.4100   17.7290 C   0  0  0  0  0  0  0  0  0  0  0  0
    9.7040    3.2060   23.5930 C   0  0  0  0  0  0  0  0  0  0  0  0
    8.0330    4.7020   22.6620 C   0  0  0  0  0  0  0  0  0  0  0  0
   10.2650    1.8670   23.9790 C   0  0  0  0  0  0  0  0  0  0  0  0
    6.1770   -2.8810   26.5940 C   0  0  0  0  0  0  0  0  0  0  0  0
   10.4920    4.3190   23.8760 C   0  0  0  0  0  0  0  0  0  0  0  0
    8.8760    5.8050   22.9830 C   0  0  0  0  0  0  0  0  0  0  0  0
    6.9940   -3.4880   27.2370 O   0  0  0  0  0  0  0  0  0  0  0  0
   10.1410    5.6530   23.6080 C   0  0  0  0  0  0  0  0  0  0  0  0
    6.0150   -1.4300   26.9320 C   0  0  0  0  0  0  0  0  0  0  0  0
   10.9130    6.7510   23.9020 O   0  0  0  0  0  0  0  0  0  0  0  0
    6.7660   -0.9840   28.0480 C   0  0  0  0  0  0  0  0  0  0  0  0
    5.1120   -0.4490   26.1740 C   0  0  0  0  0  0  0  0  0  0  0  0
   11.8590    6.5950   24.9610 C   0  0  0  0  0  0  0  0  0  0  0  0
    6.7390    0.4460   28.5780 C   0  0  0  0  0  0  0  0  0  0  0  0
    5.0610    1.0080   26.6850 C   0  0  0  0  0  0  0  0  0  0  0  0
    5.8660    1.4710   27.8850 C   0  0  0  0  0  0  0  0  0  0  0  0
  1  2  1  0
  2  3  2  0
  1  4  1  0
  1  5  1  0
  1  6  1  1
  4  7  1  6
  4  8  1  0
  6  9  2  0
  6 10  1  0
  2 11  1  0
 12  5  1  6
 11 12  1  0
 11 13  1  6
  7 14  1  0
  7 15  2  0
  8 16  2  0
  8 17  1  0
  9 18  1  0
 10 19  2  0
 18 19  1  0
 12 20  1  0
 11 21  1  0
 19 22  1  0
 17 23  2  0
 16 24  1  0
 14 25  1  0
 20 26  1  0
 21 27  1  0
 26 27  1  0
 22 28  1  0
 22 29  1  0
 22 30  1  0
 26 31  1  1
 23 32  1  0
 24 32  2  0
 25 33  2  0
 25 34  1  0
 33 35  1  0
 31 36  1  0
 33 37  1  0
 34 38  2  0
 36 39  2  0
 37 40  2  0
 38 40  1  0
 36 41  1  0
 40 42  1  0
 41 43  2  0
 41 44  1  0
 42 45  1  0
 43 46  1  0
 44 47  2  0
 46 48  2  0
 47 48  1  0
M  END
