x2694-x0978-x3115-x0769-x0540
     RDKit          3D

 71 77  0  0  0  0  0  0  0  0999 V2000
    7.1410   -1.3560   21.4310 N   0  0  0  0  0  0  0  0  0  0  0  0
    6.2380   -2.5990   21.3830 C   0  0  0  0  0  0  0  0  0  0  0  0
    4.9360   -3.0190   20.9550 O   0  0  0  0  0  0  0  0  0  0  0  0
    6.6900   -0.0190   21.4030 C   0  0  1  0  0  0  0  0  0  0  0  0
    8.3550   -1.4070   22.3320 C   0  0  0  0  0  0  0  0  0  0  0  0
    7.0780   -3.6360   22.0260 C   0  0  0  0  0  0  0  0  0  0  0  0
    7.8400    1.0850   21.7180 C   0  0  0  0  0  0  0  0  0  0  0  0
    6.2190    0.4190   20.0870 C   0  0  0  0  0  0  0  0  0  0  0  0
    8.4470   -1.4560   23.7010 N   0  0  0  0  0  0  0  0  0  0  0  0
    9.7230   -1.4090   22.0590 C   0  0  0  0  0  0  0  0  0  0  0  0
    7.5160   -4.8270   21.1820 C   0  0  0  0  0  0  0  0  0  0  0  0
    7.6420    1.9670   22.7840 N   0  0  0  0  0  0  0  0  0  0  0  0
    8.8490    1.2100   21.0310 O   0  0  0  0  0  0  0  0  0  0  0  0
    4.9690    1.1960   20.0230 C   0  0  0  0  0  0  0  0  0  0  0  0
    6.8890    0.1580   18.9520 C   0  0  0  0  0  0  0  0  0  0  0  0
    9.7140   -1.4860   24.1340 O   0  0  0  0  0  0  0  0  0  0  0  0
   10.5830   -1.4600   23.1480 C   0  0  0  0  0  0  0  0  0  0  0  0
   12.0600   -1.4870   23.2900 C   0  0  0  0  0  0  0  0  0  0  0  0
    4.2730    1.4050   21.2870 C   0  0  0  0  0  0  0  0  0  0  0  0
    6.3910    0.6490   17.8300 N   0  0  0  0  0  0  0  0  0  0  0  0
    4.5160    1.6680   18.8520 C   0  0  0  0  0  0  0  0  0  0  0  0
    8.4960    3.1430   23.0300 C   0  0  0  0  0  0  0  0  0  0  0  0
    6.7890   -5.9140   21.6630 N   0  0  0  0  0  0  0  0  0  0  0  0
   12.5480   -0.3230   23.8880 C   0  0  0  0  0  0  0  0  0  0  0  0
   12.7570   -1.6450   21.9240 C   0  0  0  0  0  0  0  0  0  0  0  0
   12.4610   -2.7130   24.1270 C   0  0  0  0  0  0  0  0  0  0  0  0
    4.6590    2.4510   22.0990 C   0  0  0  0  0  0  0  0  0  0  0  0
    5.1870    1.4540   17.6340 C   0  0  0  0  0  0  0  0  0  0  0  0
    9.7030    3.0450   23.6680 C   0  0  0  0  0  0  0  0  0  0  0  0
    8.0870    4.4470   22.6050 C   0  0  0  0  0  0  0  0  0  0  0  0
    5.3440   -5.8410   21.5870 C   0  0  0  0  0  0  0  0  0  0  0  0
    7.1700   -6.3090   22.9260 C   0  0  0  0  0  0  0  0  0  0  0  0
   10.2440    1.7580   24.1530 C   0  0  0  0  0  0  0  0  0  0  0  0
   13.4740   -2.4930   25.2560 C   0  0  0  0  0  0  0  0  0  0  0  0
    3.7350    3.1250   22.8230 N   0  0  0  0  0  0  0  0  0  0  0  0
   10.5410    4.2780   23.9030 C   0  0  0  0  0  0  0  0  0  0  0  0
    8.7440    5.7260   22.7410 C   0  0  0  0  0  0  0  0  0  0  0  0
    4.5290   -5.4730   22.8930 C   0  0  2  0  0  0  0  0  0  0  0  0
    6.6470   -5.3740   24.0810 C   0  0  0  0  0  0  0  0  0  0  0  0
    8.2210    7.0170   22.2530 C   0  0  0  0  0  0  0  0  0  0  0  0
    3.3310   -6.3810   23.2200 C   0  0  2  0  0  0  0  0  0  0  0  0
    4.0140   -4.1840   22.5740 O   0  0  0  0  0  0  0  0  0  0  0  0
    2.9520    2.4830   23.7210 C   0  0  0  0  0  0  0  0  0  0  0  0
   10.0880    5.4930   23.4830 C   0  0  0  0  0  0  0  0  0  0  0  0
    5.2450   -5.2310   24.1520 N   0  0  0  0  0  0  0  0  0  0  0  0
   10.9810    6.5930   23.7850 O   0  0  0  0  0  0  0  0  0  0  0  0
    2.1600   -5.6850   23.1050 N   0  0  0  0  0  0  0  0  0  0  0  0
    3.7640   -6.8440   24.4680 C   0  0  1  0  0  0  0  0  0  0  0  0
    3.4670    1.5200   24.3170 O   0  0  0  0  0  0  0  0  0  0  0  0
    1.6660    2.7710   24.0620 N   0  0  0  0  0  0  0  0  0  0  0  0
    4.5700   -5.6040   25.3660 S   0  0  0  0  0  0  0  0  0  0  0  0
   11.8620    6.5790   24.9080 C   0  0  0  0  0  0  0  0  0  0  0  0
    2.8380   -7.5400   25.2760 C   0  0  0  0  0  0  0  0  0  0  0  0
    4.5740   -7.7210   24.1790 O   0  0  0  0  0  0  0  0  0  0  0  0
    1.0560   -6.2980   22.5940 C   0  0  0  0  0  0  0  0  0  0  0  0
    4.1550   -6.2600   26.7890 O   0  0  0  0  0  0  0  0  0  0  0  0
    0.8930    3.7710   23.3690 C   0  0  0  0  0  0  0  0  0  0  0  0
    3.7650   -4.0410   25.6280 C   0  0  0  0  0  0  0  0  0  0  0  0
    1.0120   -7.4270   21.9970 O   0  0  0  0  0  0  0  0  0  0  0  0
   -0.1100   -5.5870   22.7460 C   0  0  0  0  0  0  0  0  0  0  0  0
    0.6330    5.0510   24.2260 C   0  0  0  0  0  0  0  0  0  0  0  0
   -0.3960    3.1260   22.7780 C   0  0  0  0  0  0  0  0  0  0  0  0
    4.4220   -2.8450   25.9600 C   0  0  0  0  0  0  0  0  0  0  0  0
    2.3710   -4.0020   25.5010 C   0  0  0  0  0  0  0  0  0  0  0  0
    5.7470   -2.7600   26.1150 F   0  0  0  0  0  0  0  0  0  0  0  0
   -0.6100    4.9020   25.1560 C   0  0  0  0  0  0  0  0  0  0  0  0
   -1.5510    3.0270   23.7680 C   0  0  0  0  0  0  0  0  0  0  0  0
    1.6380   -2.8230   25.6890 C   0  0  0  0  0  0  0  0  0  0  0  0
    3.6930   -1.6630   26.1480 C   0  0  0  0  0  0  0  0  0  0  0  0
   -1.8230    4.4110   24.3820 C   0  0  0  0  0  0  0  0  0  0  0  0
    2.3070   -1.6430   26.0150 C   0  0  0  0  0  0  0  0  0  0  0  0
  1  2  1  0
  2  3  2  0
  1  4  1  0
  1  5  1  0
  2  6  1  0
  4  7  1  6
  4  8  1  0
  5  9  2  0
  5 10  1  0
  6 11  1  0
  7 12  1  0
  7 13  2  0
  8 14  1  0
  8 15  2  0
  9 16  1  0
 10 17  2  0
 16 17  1  0
 17 18  1  0
 14 19  1  0
 15 20  1  0
 14 21  2  0
 12 22  1  0
 11 23  1  0
 18 24  1  0
 18 25  1  0
 18 26  1  0
 19 27  1  0
 20 28  2  0
 21 28  1  0
 22 29  2  0
 22 30  1  0
 23 31  1  0
 23 32  1  0
 29 33  1  0
 26 34  1  0
 27 35  1  0
 29 36  1  0
 30 37  2  0
 31 38  1  0
 32 39  1  0
 37 40  1  0
 38 41  1  0
 38 42  1  6
 35 43  1  0
 36 44  2  0
 37 44  1  0
 38 45  1  0
 39 45  1  0
 44 46  1  0
 41 47  1  1
 41 48  1  0
 43 49  2  0
 43 50  1  0
 45 51  1  0
 48 51  1  0
 46 52  1  0
 48 53  1  1
 48 54  1  0
 47 55  1  0
 51 56  2  0
 50 57  1  0
 51 58  1  0
 55 59  2  0
 55 60  1  0
 57 61  1  0
 57 62  1  0
 58 63  2  0
 58 64  1  0
 63 65  1  0
 61 66  1  0
 62 67  1  0
 64 68  2  0
 63 69  1  0
 66 70  1  0
 67 70  1  0
 68 71  1  0
 69 71  2  0
M  END
