x2694-x3124-x0540-x0995-x1311
     RDKit          3D

 63 68  0  0  0  0  0  0  0  0999 V2000
    6.9280   -1.5780   21.9820 C   0  0  1  0  0  0  0  0  0  0  0  0
    6.2790   -2.8890   21.2280 C   0  0  0  0  0  0  0  0  0  0  0  0
    5.0170   -3.1540   20.8520 O   0  0  0  0  0  0  0  0  0  0  0  0
    6.7020   -0.0960   21.5620 C   0  0  1  0  0  0  0  0  0  0  0  0
    6.0200   -1.8100   23.2560 C   0  0  0  0  0  0  0  0  0  0  0  0
    8.4550   -1.5220   22.4560 C   0  0  0  0  0  0  0  0  0  0  0  0
    7.2840   -4.0380   21.1530 C   0  0  0  0  0  0  0  0  0  0  0  0
    7.6960    1.0010   21.7680 C   0  0  0  0  0  0  0  0  0  0  0  0
    5.2450   -3.0570   23.3570 C   0  0  0  0  0  0  0  0  0  0  0  0
    6.1550    0.3150   20.2340 C   0  0  0  0  0  0  0  0  0  0  0  0
    8.7730   -0.9300   23.7920 N   0  0  0  0  0  0  0  0  0  0  0  0
    9.7550   -1.8440   22.0200 C   0  0  0  0  0  0  0  0  0  0  0  0
    7.2940   -3.4710   19.7590 C   0  0  0  0  0  0  0  0  0  0  0  0
    7.5850    1.8360   22.6230 N   0  0  0  0  0  0  0  0  0  0  0  0
    8.6540    1.1060   21.0000 O   0  0  0  0  0  0  0  0  0  0  0  0
    5.8240   -4.3330   23.1260 N   0  0  0  0  0  0  0  0  0  0  0  0
    4.9590    0.9860   20.2150 C   0  0  0  0  0  0  0  0  0  0  0  0
    6.8700    0.0380   19.0680 C   0  0  0  0  0  0  0  0  0  0  0  0
   10.1400   -0.9540   23.9880 O   0  0  0  0  0  0  0  0  0  0  0  0
   10.7880   -1.5030   22.9100 C   0  0  0  0  0  0  0  0  0  0  0  0
   12.2970   -1.5800   22.9690 C   0  0  0  0  0  0  0  0  0  0  0  0
    4.2560    1.2220   21.4060 C   0  0  0  0  0  0  0  0  0  0  0  0
    6.3490    0.4800   17.8870 N   0  0  0  0  0  0  0  0  0  0  0  0
    4.4670    1.4220   19.0260 C   0  0  0  0  0  0  0  0  0  0  0  0
    8.4320    3.0720   22.9580 C   0  0  0  0  0  0  0  0  0  0  0  0
    7.1760   -4.5780   23.5420 C   0  0  0  0  0  0  0  0  0  0  0  0
    5.1040   -5.5790   23.4450 C   0  0  2  0  0  0  0  0  0  0  0  0
   12.8770   -0.2640   23.4300 C   0  0  0  0  0  0  0  0  0  0  0  0
   12.8710   -1.8130   21.5610 C   0  0  0  0  0  0  0  0  0  0  0  0
   12.7300   -2.7180   23.8390 C   0  0  0  0  0  0  0  0  0  0  0  0
    4.9080    2.0380   22.3300 C   0  0  0  0  0  0  0  0  0  0  0  0
    3.3190    2.1010   18.8990 N   0  0  0  0  0  0  0  0  0  0  0  0
    5.1850    1.1580   17.8860 C   0  0  0  0  0  0  0  0  0  0  0  0
    9.8070    2.9790   23.2090 C   0  0  0  0  0  0  0  0  0  0  0  0
    7.8660    4.3620   23.0420 C   0  0  0  0  0  0  0  0  0  0  0  0
    7.7430   -5.8510   23.6470 C   0  0  0  0  0  0  0  0  0  0  0  0
    7.9110   -3.5070   23.8370 C   0  0  0  0  0  0  0  0  0  0  0  0
    4.4610   -6.1660   22.4110 C   0  0  0  0  0  0  0  0  0  0  0  0
    4.1630   -5.4990   24.6040 C   0  0  0  0  0  0  0  0  0  0  0  0
   10.4270    1.7120   23.1080 C   0  0  0  0  0  0  0  0  0  0  0  0
   13.0140   -2.4470   25.1530 C   0  0  0  0  0  0  0  0  0  0  0  0
    3.9220    2.9280   22.8950 N   0  0  0  0  0  0  0  0  0  0  0  0
   10.6220    4.0910   23.5590 C   0  0  0  0  0  0  0  0  0  0  0  0
    8.6060    5.5050   23.3720 C   0  0  0  0  0  0  0  0  0  0  0  0
    9.0250   -5.9980   24.0740 C   0  0  0  0  0  0  0  0  0  0  0  0
    9.1710   -3.6560   24.2190 C   0  0  0  0  0  0  0  0  0  0  0  0
    3.0890   -6.9460   24.3800 S   0  0  0  0  0  0  0  0  0  0  0  0
    3.2660   -6.9920   22.7450 C   0  0  0  0  0  0  0  0  0  0  0  0
    2.8620    2.4470   23.6030 C   0  0  0  0  0  0  0  0  0  0  0  0
    4.1370   -7.6020   25.1340 O   0  0  0  0  0  0  0  0  0  0  0  0
    1.9820   -6.1830   24.8910 O   0  0  0  0  0  0  0  0  0  0  0  0
   10.0980    5.3770   23.6640 C   0  0  0  0  0  0  0  0  0  0  0  0
    9.7440   -4.8710   24.3620 C   0  0  0  0  0  0  0  0  0  0  0  0
   10.8590    6.4750   24.0070 O   0  0  0  0  0  0  0  0  0  0  0  0
    2.9070    1.5270   24.4280 O   0  0  0  0  0  0  0  0  0  0  0  0
    1.7010    3.2170   23.2050 N   0  0  0  0  0  0  0  0  0  0  0  0
   11.8810    6.3010   24.9850 C   0  0  0  0  0  0  0  0  0  0  0  0
    0.5510    3.3180   24.0780 C   0  0  0  0  0  0  0  0  0  0  0  0
    0.4790    4.5810   24.6540 C   0  0  0  0  0  0  0  0  0  0  0  0
   -0.6610    2.7770   23.3120 C   0  0  0  0  0  0  0  0  0  0  0  0
   -0.8700    5.0550   25.2020 C   0  0  0  0  0  0  0  0  0  0  0  0
   -2.0120    3.2840   23.7890 C   0  0  0  0  0  0  0  0  0  0  0  0
   -1.9970    4.7670   24.2030 C   0  0  0  0  0  0  0  0  0  0  0  0
  1  2  1  0
  2  3  2  0
  1  4  1  0
  1  5  1  1
  1  6  1  0
  2  7  1  0
  4  8  1  6
  5  9  1  0
  4 10  1  0
  6 11  2  0
  6 12  1  0
  7 13  1  0
  8 14  1  0
  8 15  2  0
  9 16  1  0
 10 17  1  0
 10 18  2  0
 11 19  1  0
 12 20  2  0
 19 20  1  0
 20 21  1  0
 17 22  1  0
 18 23  1  0
 17 24  2  0
 14 25  1  0
 16 26  1  0
 27 16  1  6
 21 28  1  0
 21 29  1  0
 21 30  1  0
 22 31  1  0
 24 32  1  0
 23 33  2  0
 24 33  1  0
 25 34  2  0
 25 35  1  0
 26 36  2  0
 26 37  1  0
 27 38  1  0
 27 39  1  0
 34 40  1  0
 30 41  1  0
 31 42  1  0
 34 43  1  0
 35 44  2  0
 36 45  1  0
 37 46  2  0
 39 47  1  0
 38 48  2  0
 47 48  1  0
 42 49  1  0
 47 50  1  0
 47 51  1  0
 43 52  2  0
 44 52  1  0
 45 53  2  0
 46 53  1  0
 52 54  1  0
 49 55  2  0
 49 56  1  0
 54 57  1  0
 56 58  1  0
 58 59  1  0
 58 60  1  0
 59 61  1  0
 60 62  1  0
 61 63  1  0
 62 63  1  0
M  END
