x2694-x1374-x1458
     RDKit          3D

 53 57  0  0  0  0  0  0  0  0999 V2000
    7.0020   -1.9800   21.7430 N   0  0  0  0  0  0  0  0  0  0  0  0
    6.3950   -3.3680   21.6580 C   0  0  0  0  0  0  0  0  0  0  0  0
    5.1490   -3.5900   21.2650 O   0  0  0  0  0  0  0  0  0  0  0  0
    6.1270   -0.7130   21.5590 C   0  0  1  0  0  0  0  0  0  0  0  0
    8.2640   -1.6950   22.4730 C   0  0  0  0  0  0  0  0  0  0  0  0
    7.2480   -4.6460   22.0630 C   0  0  1  0  0  0  0  0  0  0  0  0
    6.8640    0.6720   21.8750 C   0  0  0  0  0  0  0  0  0  0  0  0
    5.6410   -0.3120   20.1750 C   0  0  0  0  0  0  0  0  0  0  0  0
    8.3870   -1.4200   23.8150 N   0  0  0  0  0  0  0  0  0  0  0  0
    9.6630   -1.6300   21.8940 C   0  0  0  0  0  0  0  0  0  0  0  0
    8.4450   -4.7420   20.9950 C   0  0  0  0  0  0  0  0  0  0  0  0
    6.4410    1.6070   22.8230 N   0  0  0  0  0  0  0  0  0  0  0  0
    8.0400    1.0800   21.1170 O   0  0  0  0  0  0  0  0  0  0  0  0
    4.4260    0.3870   20.0340 C   0  0  0  0  0  0  0  0  0  0  0  0
    6.4110   -0.5690   18.8770 C   0  0  0  0  0  0  0  0  0  0  0  0
    9.7700   -1.2040   24.1050 O   0  0  0  0  0  0  0  0  0  0  0  0
   10.5000   -1.3340   22.9460 C   0  0  0  0  0  0  0  0  0  0  0  0
    7.6140   -4.4920   23.6650 C   0  0  0  0  0  0  0  0  0  0  0  0
   12.0350   -1.1770   22.8000 C   0  0  0  0  0  0  0  0  0  0  0  0
    5.8840   -0.0690   17.5700 N   0  0  0  0  0  0  0  0  0  0  0  0
    3.8890    0.8880   18.7050 C   0  0  0  0  0  0  0  0  0  0  0  0
    7.0810    2.8590   23.0520 C   0  0  0  0  0  0  0  0  0  0  0  0
    7.9400   -4.3550   25.0900 C   0  0  0  0  0  0  0  0  0  0  0  0
    8.4460   -5.8350   23.5870 C   0  0  0  0  0  0  0  0  0  0  0  0
   12.3850    0.3420   22.7530 C   0  0  0  0  0  0  0  0  0  0  0  0
   12.7110   -1.8670   21.5610 C   0  0  0  0  0  0  0  0  0  0  0  0
   12.7110   -1.8050   24.0610 C   0  0  0  0  0  0  0  0  0  0  0  0
    4.7100    0.6170   17.4790 C   0  0  0  0  0  0  0  0  0  0  0  0
    8.0260    3.1160   24.1030 C   0  0  0  0  0  0  0  0  0  0  0  0
    6.7120    4.0110   22.0480 C   0  0  0  0  0  0  0  0  0  0  0  0
    8.6870   -5.0150   26.1300 C   0  0  0  0  0  0  0  0  0  0  0  0
    9.2380   -6.5680   24.5200 C   0  0  0  0  0  0  0  0  0  0  0  0
    8.3890    2.0110   25.0630 C   0  0  0  0  0  0  0  0  0  0  0  0
    8.7260   -4.4780   27.5590 C   0  0  0  0  0  0  0  0  0  0  0  0
    8.6200    4.4140   24.2180 C   0  0  0  0  0  0  0  0  0  0  0  0
    7.3730    5.2270   22.2820 C   0  0  0  0  0  0  0  0  0  0  0  0
    9.3570   -6.1470   25.7910 C   0  0  0  0  0  0  0  0  0  0  0  0
    7.6970   -4.9390   28.4760 C   0  0  1  0  0  0  0  0  0  0  0  0
    8.3010    5.4570   23.3170 C   0  0  0  0  0  0  0  0  0  0  0  0
    8.8480    6.7170   23.3760 O   0  0  0  0  0  0  0  0  0  0  0  0
    6.3310   -4.3860   28.0770 N   0  0  0  0  0  0  0  0  0  0  0  0
    7.7700   -6.3300   28.7770 C   0  0  0  0  0  0  0  0  0  0  0  0
   10.0110    6.9920   22.5850 C   0  0  0  0  0  0  0  0  0  0  0  0
    5.9270   -3.0090   28.5310 C   0  0  0  0  0  0  0  0  0  0  0  0
    5.4020   -5.1110   27.4820 C   0  0  0  0  0  0  0  0  0  0  0  0
    4.9880   -5.0310   26.0880 N   0  0  0  0  0  0  0  0  0  0  0  0
    3.9970   -5.8520   25.3950 C   0  0  0  0  0  0  0  0  0  0  0  0
    3.3610   -5.2910   24.2700 C   0  0  0  0  0  0  0  0  0  0  0  0
    3.6290   -7.1150   25.7060 C   0  0  0  0  0  0  0  0  0  0  0  0
    2.6970   -6.2190   23.4540 C   0  0  0  0  0  0  0  0  0  0  0  0
    2.4890   -7.5680   24.5830 S   0  0  0  0  0  0  0  0  0  0  0  0
    1.1440   -7.4760   25.1220 O   0  0  0  0  0  0  0  0  0  0  0  0
    2.8800   -8.7740   23.8840 O   0  0  0  0  0  0  0  0  0  0  0  0
  1  2  1  0
  2  3  2  0
  1  4  1  0
  1  5  1  0
  2  6  1  0
  4  7  1  6
  4  8  1  0
  5  9  2  0
  5 10  1  0
  6 11  1  6
  7 12  1  0
  7 13  2  0
  8 14  2  0
  8 15  1  0
  9 16  1  0
 10 17  2  0
 16 17  1  0
  6 18  1  0
 17 19  1  0
 15 20  2  0
 14 21  1  0
 12 22  1  0
 18 23  2  0
 18 24  1  0
 19 25  1  0
 19 26  1  0
 19 27  1  0
 20 28  1  0
 21 28  2  0
 22 29  2  0
 22 30  1  0
 23 31  1  0
 24 32  2  0
 29 33  1  0
 31 34  1  0
 29 35  1  0
 30 36  2  0
 31 37  2  0
 32 37  1  0
 34 38  1  0
 35 39  2  0
 36 39  1  0
 39 40  1  0
 38 41  1  0
 38 42  1  6
 40 43  1  0
 41 44  1  0
 41 45  1  0
 45 46  2  3
 46 47  1  0
 47 48  1  0
 47 49  2  0
 48 50  1  0
 49 51  1  0
 50 51  1  0
 51 52  1  0
 51 53  1  0
M  END
