x2694-x2764-x0426
     RDKit          3D

 47 50  0  0  0  0  0  0  0  0999 V2000
    6.7040   -1.9750   21.9630 N   0  0  0  0  0  0  0  0  0  0  0  0
    5.7650   -3.0490   21.7240 C   0  0  0  0  0  0  0  0  0  0  0  0
    4.5380   -2.8940   21.5270 O   0  0  0  0  0  0  0  0  0  0  0  0
    6.2280   -0.5010   21.7690 C   0  0  1  0  0  0  0  0  0  0  0  0
    7.5660   -2.2060   23.1280 N   0  0  0  0  0  0  0  0  0  0  0  0
    6.1730   -4.5250   21.6780 C   0  0  0  0  0  0  0  0  0  0  0  0
    7.2450    0.7050   21.9290 C   0  0  0  0  0  0  0  0  0  0  0  0
    5.5420   -0.0990   20.4280 C   0  0  0  0  0  0  0  0  0  0  0  0
    8.9550   -1.9910   23.2500 C   0  0  0  0  0  0  0  0  0  0  0  0
    6.2490   -4.9910   20.2070 C   0  0  0  0  0  0  0  0  0  0  0  0
    6.8150    1.9480   22.4020 N   0  0  0  0  0  0  0  0  0  0  0  0
    8.6340    0.6260   21.5430 O   0  0  0  0  0  0  0  0  0  0  0  0
    4.1330    0.6030   20.1500 C   0  0  0  0  0  0  0  0  0  0  0  0
    6.3270   -0.4000   19.3420 C   0  0  0  0  0  0  0  0  0  0  0  0
   10.3650   -1.6770   23.6110 C   0  0  0  0  0  0  0  0  0  0  0  0
    8.5140   -1.5130   24.5410 C   0  0  0  0  0  0  0  0  0  0  0  0
   11.7110   -1.8240   22.8460 C   0  0  0  0  0  0  0  0  0  0  0  0
    7.1470    3.3980   21.9620 C   0  0  0  0  0  0  0  0  0  0  0  0
    3.0750    1.0600   21.0060 C   0  0  0  0  0  0  0  0  0  0  0  0
    5.9830   -0.1240   17.9400 N   0  0  0  0  0  0  0  0  0  0  0  0
    3.7290    0.9260   18.6870 C   0  0  0  0  0  0  0  0  0  0  0  0
    9.4180   -1.0390   25.4090 N   0  0  0  0  0  0  0  0  0  0  0  0
   10.5420   -1.1980   24.7210 O   0  0  0  0  0  0  0  0  0  0  0  0
   12.5800   -0.5230   22.8260 C   0  0  0  0  0  0  0  0  0  0  0  0
   11.4590   -2.1670   21.3380 C   0  0  0  0  0  0  0  0  0  0  0  0
   12.5360   -2.9680   23.4980 C   0  0  0  0  0  0  0  0  0  0  0  0
    3.1420    0.8510   22.3870 C   0  0  0  0  0  0  0  0  0  0  0  0
    4.7210    0.5200   17.6570 C   0  0  0  0  0  0  0  0  0  0  0  0
    8.3240    4.5180   22.1620 C   0  0  0  0  0  0  0  0  0  0  0  0
    2.0580    1.4560   22.9640 N   0  0  0  0  0  0  0  0  0  0  0  0
    9.4140    5.5540   22.3480 C   0  0  0  0  0  0  0  0  0  0  0  0
    9.1820    3.4910   23.0290 C   0  0  0  0  0  0  0  0  0  0  0  0
    1.5230    1.1070   24.1550 C   0  0  0  0  0  0  0  0  0  0  0  0
   10.4450    3.4580   23.7240 C   0  0  0  0  0  0  0  0  0  0  0  0
   10.6850    5.7300   22.9660 C   0  0  0  0  0  0  0  0  0  0  0  0
   11.3540    6.9360   22.8470 O   0  0  0  0  0  0  0  0  0  0  0  0
   10.8510    2.1870   24.4450 C   0  0  0  0  0  0  0  0  0  0  0  0
    1.8150   -0.1480   24.7680 O   0  0  0  0  0  0  0  0  0  0  0  0
   11.2270    4.5490   23.7140 C   0  0  0  0  0  0  0  0  0  0  0  0
    0.6010    2.0720   24.8340 C   0  0  0  0  0  0  0  0  0  0  0  0
   12.1640    7.4400   23.9040 C   0  0  0  0  0  0  0  0  0  0  0  0
    1.0580    3.1080   25.6710 C   0  0  0  0  0  0  0  0  0  0  0  0
   -0.9040    1.9320   24.6040 C   0  0  0  0  0  0  0  0  0  0  0  0
    2.3700    3.2820   25.9150 F   0  0  0  0  0  0  0  0  0  0  0  0
   -1.8610    2.9350   25.2960 C   0  0  0  0  0  0  0  0  0  0  0  0
    0.1680    4.0240   26.3020 C   0  0  0  0  0  0  0  0  0  0  0  0
   -1.2510    3.9240   26.1060 C   0  0  0  0  0  0  0  0  0  0  0  0
  1  2  1  0
  2  3  2  0
  1  4  1  0
  1  5  1  0
  2  6  1  0
  4  7  1  6
  4  8  1  0
  5  9  1  0
  6 10  1  0
  7 11  1  0
  7 12  2  0
  8 13  1  0
  8 14  2  0
  9 15  2  0
  9 16  1  0
 15 17  1  0
 11 18  1  0
 13 19  1  0
 14 20  1  0
 13 21  2  0
 16 22  2  0
 15 23  1  0
 22 23  1  0
 17 24  1  0
 17 25  1  0
 17 26  1  0
 19 27  1  0
 20 28  2  0
 21 28  1  0
 18 29  1  0
 27 30  1  0
 29 31  2  0
 29 32  1  0
 30 33  1  0
 32 34  2  0
 31 35  1  0
 35 36  1  0
 34 37  1  0
 33 38  2  0
 34 39  1  0
 35 39  2  0
 33 40  1  0
 36 41  1  0
 40 42  2  0
 40 43  1  0
 42 44  1  0
 43 45  2  0
 42 46  1  0
 45 47  1  0
 46 47  2  0
M  END
