x2694-x3115-x0426
     RDKit          3D

 47 50  0  0  0  0  0  0  0  0999 V2000
    7.0600   -1.5730   21.6980 N   0  0  0  0  0  0  0  0  0  0  0  0
    6.2040   -2.8260   21.4410 C   0  0  0  0  0  0  0  0  0  0  0  0
    4.8960   -3.0550   21.1630 O   0  0  0  0  0  0  0  0  0  0  0  0
    6.6350   -0.1370   21.5560 C   0  0  1  0  0  0  0  0  0  0  0  0
    8.3380   -1.6720   22.4370 C   0  0  0  0  0  0  0  0  0  0  0  0
    7.0180   -4.1020   21.5570 C   0  0  0  0  0  0  0  0  0  0  0  0
    7.7490    1.0340   21.7790 C   0  0  0  0  0  0  0  0  0  0  0  0
    6.1470    0.2870   20.1870 C   0  0  0  0  0  0  0  0  0  0  0  0
    8.5090   -2.0570   23.9110 N   0  0  0  0  0  0  0  0  0  0  0  0
    9.7480   -1.3980   21.9250 C   0  0  0  0  0  0  0  0  0  0  0  0
    6.7620   -3.7820   20.0610 C   0  0  0  0  0  0  0  0  0  0  0  0
    7.6540    1.9820   22.9050 N   0  0  0  0  0  0  0  0  0  0  0  0
    8.6830    1.2070   21.0070 O   0  0  0  0  0  0  0  0  0  0  0  0
    4.9190    0.9420   20.1690 C   0  0  0  0  0  0  0  0  0  0  0  0
    6.8730    0.0660   19.0330 C   0  0  0  0  0  0  0  0  0  0  0  0
    9.9260   -1.9840   24.1270 O   0  0  0  0  0  0  0  0  0  0  0  0
   10.6580   -1.6060   22.9880 C   0  0  0  0  0  0  0  0  0  0  0  0
   12.2280   -1.4410   22.9320 C   0  0  0  0  0  0  0  0  0  0  0  0
    4.0600    1.2170   21.2480 C   0  0  0  0  0  0  0  0  0  0  0  0
    6.4440    0.4910   17.8470 N   0  0  0  0  0  0  0  0  0  0  0  0
    4.4010    1.4210   18.9650 C   0  0  0  0  0  0  0  0  0  0  0  0
    8.4330    3.1740   23.0750 C   0  0  0  0  0  0  0  0  0  0  0  0
   12.6410   -0.0170   23.2490 C   0  0  0  0  0  0  0  0  0  0  0  0
   12.8280   -1.7940   21.5560 C   0  0  0  0  0  0  0  0  0  0  0  0
   13.0340   -2.3520   23.8680 C   0  0  0  0  0  0  0  0  0  0  0  0
    4.4200    1.8090   22.4580 C   0  0  0  0  0  0  0  0  0  0  0  0
    5.1620    1.2090   17.7930 C   0  0  0  0  0  0  0  0  0  0  0  0
    9.6760    3.0700   23.7070 C   0  0  0  0  0  0  0  0  0  0  0  0
    8.0410    4.5770   22.6280 C   0  0  0  0  0  0  0  0  0  0  0  0
   10.1670    1.8120   24.1690 C   0  0  0  0  0  0  0  0  0  0  0  0
   12.3550   -2.8340   25.0730 C   0  0  0  0  0  0  0  0  0  0  0  0
    3.3140    2.6060   22.9940 N   0  0  0  0  0  0  0  0  0  0  0  0
   10.5030    4.1960   23.9190 C   0  0  0  0  0  0  0  0  0  0  0  0
    8.8060    5.7170   22.8090 C   0  0  0  0  0  0  0  0  0  0  0  0
    8.3630    7.1000   22.3300 C   0  0  0  0  0  0  0  0  0  0  0  0
    2.3210    1.8010   23.7310 C   0  0  0  0  0  0  0  0  0  0  0  0
   10.1610    5.4990   23.5290 C   0  0  0  0  0  0  0  0  0  0  0  0
   10.9540    6.6100   23.7410 O   0  0  0  0  0  0  0  0  0  0  0  0
    2.2900    0.5670   23.7420 O   0  0  0  0  0  0  0  0  0  0  0  0
    1.2520    2.6120   24.5340 C   0  0  0  0  0  0  0  0  0  0  0  0
   11.8620    6.5580   24.8440 C   0  0  0  0  0  0  0  0  0  0  0  0
    1.4980    3.8180   25.2450 C   0  0  0  0  0  0  0  0  0  0  0  0
   -0.1640    2.0100   24.5190 C   0  0  0  0  0  0  0  0  0  0  0  0
    2.7650    4.2420   25.1870 F   0  0  0  0  0  0  0  0  0  0  0  0
   -1.2690    2.7340   25.2720 C   0  0  0  0  0  0  0  0  0  0  0  0
    0.5280    4.4960   25.9330 C   0  0  0  0  0  0  0  0  0  0  0  0
   -0.9170    4.0080   25.9970 C   0  0  0  0  0  0  0  0  0  0  0  0
  1  2  1  0
  2  3  2  0
  1  4  1  0
  1  5  1  0
  2  6  1  0
  4  7  1  6
  4  8  1  0
  5  9  2  0
  5 10  1  0
  6 11  1  0
  7 12  1  0
  7 13  2  0
  8 14  1  0
  8 15  2  0
  9 16  1  0
 10 17  2  0
 16 17  1  0
 17 18  1  0
 14 19  1  0
 15 20  1  0
 14 21  2  0
 12 22  1  0
 18 23  1  0
 18 24  1  0
 18 25  1  0
 19 26  1  0
 20 27  2  0
 21 27  1  0
 22 28  2  0
 22 29  1  0
 28 30  1  0
 25 31  1  0
 26 32  1  0
 28 33  1  0
 29 34  2  0
 34 35  1  0
 32 36  1  0
 33 37  2  0
 34 37  1  0
 37 38  1  0
 36 39  2  0
 36 40  1  0
 38 41  1  0
 40 42  2  0
 40 43  1  0
 42 44  1  0
 43 45  2  0
 42 46  1  0
 45 47  1  0
 46 47  2  0
M  END
