x2694-x0978-x3115-x0771-x2776
     RDKit          3D

 59 64  0  0  0  0  0  0  0  0999 V2000
    6.9800   -1.2280   21.7010 N   0  0  0  0  0  0  0  0  0  0  0  0
    6.1140   -2.4890   21.4950 C   0  0  0  0  0  0  0  0  0  0  0  0
    4.8220   -2.9130   21.1060 O   0  0  0  0  0  0  0  0  0  0  0  0
    6.6060    0.2450   21.5690 C   0  0  1  0  0  0  0  0  0  0  0  0
    8.2700   -1.3870   22.4640 C   0  0  0  0  0  0  0  0  0  0  0  0
    6.9560   -3.6010   21.8450 C   0  0  0  0  0  0  0  0  0  0  0  0
    7.6580    1.1990   21.7370 C   0  0  0  0  0  0  0  0  0  0  0  0
    6.0660    0.6470   20.2660 C   0  0  0  0  0  0  0  0  0  0  0  0
    8.4210   -1.5780   23.8020 N   0  0  0  0  0  0  0  0  0  0  0  0
    9.5060   -1.3220   21.8240 C   0  0  0  0  0  0  0  0  0  0  0  0
    6.7690   -4.6500   20.8020 C   0  0  0  0  0  0  0  0  0  0  0  0
    7.2610    2.4800   22.1480 N   0  0  0  0  0  0  0  0  0  0  0  0
    8.8470    0.9820   21.5150 O   0  0  0  0  0  0  0  0  0  0  0  0
    4.8240    1.5100   20.1770 C   0  0  0  0  0  0  0  0  0  0  0  0
    6.6620    0.2920   19.1350 C   0  0  0  0  0  0  0  0  0  0  0  0
    9.8680   -1.6410   24.0980 O   0  0  0  0  0  0  0  0  0  0  0  0
   10.6180   -1.5020   22.9440 C   0  0  0  0  0  0  0  0  0  0  0  0
   12.0250   -1.5160   22.8790 C   0  0  0  0  0  0  0  0  0  0  0  0
    6.2870    0.6350   17.8830 N   0  0  0  0  0  0  0  0  0  0  0  0
    4.4790    1.8450   18.8100 C   0  0  0  0  0  0  0  0  0  0  0  0
    8.0750    3.5370   22.6380 C   0  0  0  0  0  0  0  0  0  0  0  0
    6.8910   -5.9060   21.5740 N   0  0  0  0  0  0  0  0  0  0  0  0
   12.5020   -0.3460   23.4560 C   0  0  0  0  0  0  0  0  0  0  0  0
   12.5960   -1.7660   21.6200 C   0  0  0  0  0  0  0  0  0  0  0  0
   12.5740   -2.6890   23.7270 C   0  0  0  0  0  0  0  0  0  0  0  0
    5.2230    1.4140   17.6000 C   0  0  0  0  0  0  0  0  0  0  0  0
    8.9620    3.2180   23.6140 C   0  0  0  0  0  0  0  0  0  0  0  0
    8.0840    4.8580   22.2580 C   0  0  0  0  0  0  0  0  0  0  0  0
    5.6660   -6.4390   21.9850 C   0  0  0  0  0  0  0  0  0  0  0  0
    7.7370   -5.6790   22.7760 C   0  0  0  0  0  0  0  0  0  0  0  0
    9.0160    1.8380   24.1120 C   0  0  0  0  0  0  0  0  0  0  0  0
   12.8460   -2.3230   25.1730 C   0  0  0  0  0  0  0  0  0  0  0  0
    9.9080    4.2680   24.2290 C   0  0  0  0  0  0  0  0  0  0  0  0
    8.9170    5.8470   22.7910 C   0  0  0  0  0  0  0  0  0  0  0  0
    4.8250   -5.7530   22.8900 C   0  0  2  0  0  0  0  0  0  0  0  0
    7.0810   -5.3250   23.9640 C   0  0  0  0  0  0  0  0  0  0  0  0
    8.7560    7.2130   22.2360 C   0  0  0  0  0  0  0  0  0  0  0  0
    3.3790   -6.4460   23.1470 C   0  0  2  0  0  0  0  0  0  0  0  0
    4.4680   -4.4670   22.3140 O   0  0  0  0  0  0  0  0  0  0  0  0
    9.8290    5.5850   23.7620 C   0  0  0  0  0  0  0  0  0  0  0  0
    5.6120   -5.4640   24.1100 N   0  0  0  0  0  0  0  0  0  0  0  0
   10.6780    6.5230   24.3230 O   0  0  0  0  0  0  0  0  0  0  0  0
    2.3510   -5.5760   23.0000 N   0  0  0  0  0  0  0  0  0  0  0  0
    3.2110   -7.1390   24.5130 C   0  0  1  0  0  0  0  0  0  0  0  0
    4.8840   -5.7000   25.6360 S   0  0  1  0  0  0  0  0  0  0  0  0
   11.8410    6.1150   25.0380 C   0  0  0  0  0  0  0  0  0  0  0  0
    2.5210   -8.3440   24.5800 C   0  0  0  0  0  0  0  0  0  0  0  0
    4.1860   -7.2320   25.3640 N   0  0  0  0  0  0  0  0  0  0  0  0
    1.0970   -6.2630   22.5890 C   0  0  0  0  0  0  0  0  0  0  0  0
    5.9110   -5.6590   26.6510 O   0  0  0  0  0  0  0  0  0  0  0  0
    3.6960   -4.3980   25.8740 C   0  0  0  0  0  0  0  0  0  0  0  0
    1.0640   -7.3660   22.0550 O   0  0  0  0  0  0  0  0  0  0  0  0
   -0.1770   -5.4560   22.8780 C   0  0  0  0  0  0  0  0  0  0  0  0
    2.3130   -4.5980   25.8170 C   0  0  0  0  0  0  0  0  0  0  0  0
    4.1730   -2.9720   26.1490 C   0  0  0  0  0  0  0  0  0  0  0  0
    1.3740   -3.5630   25.9960 C   0  0  0  0  0  0  0  0  0  0  0  0
    3.0610   -1.9380   26.3270 C   0  0  0  0  0  0  0  0  0  0  0  0
    1.7000   -2.2660   26.2460 C   0  0  0  0  0  0  0  0  0  0  0  0
    0.6350   -1.2270   26.4280 C   0  0  0  0  0  0  0  0  0  0  0  0
  1  2  1  0
  2  3  2  0
  1  4  1  0
  1  5  1  0
  2  6  1  0
  4  7  1  6
  4  8  1  0
  5  9  2  0
  5 10  1  0
  6 11  1  0
  7 12  1  0
  7 13  2  0
  8 14  2  0
  8 15  1  0
  9 16  1  0
 10 17  2  0
 16 17  1  0
 17 18  1  0
 15 19  2  0
 14 20  1  0
 12 21  1  0
 11 22  1  0
 18 23  1  0
 18 24  1  0
 18 25  1  0
 19 26  1  0
 20 26  2  0
 21 27  2  0
 21 28  1  0
 22 29  1  0
 22 30  1  0
 27 31  1  0
 25 32  1  0
 27 33  1  0
 28 34  2  0
 29 35  1  0
 30 36  1  0
 34 37  1  0
 35 38  1  0
 35 39  1  6
 33 40  2  0
 34 40  1  0
 35 41  1  0
 36 41  1  0
 40 42  1  0
 38 43  1  1
 38 44  1  0
 41 45  1  0
 42 46  1  0
 44 47  1  6
 44 48  1  0
 45 48  2  0
 43 49  1  0
 45 50  2  0
 45 51  1  1
 49 52  2  0
 49 53  1  0
 51 54  2  0
 51 55  1  0
 54 56  1  0
 55 57  2  0
 56 58  2  0
 57 58  1  0
 58 59  1  0
M  END
