x2694-x1425-x0426
     RDKit          3D

 59 65  0  0  0  0  0  0  0  0999 V2000
    7.0350   -1.4780   21.8300 C   0  0  1  0  0  0  0  0  0  0  0  0
    6.1260   -2.7940   21.3300 C   0  0  0  0  0  0  0  0  0  0  0  0
    4.9060   -3.0070   20.8220 O   0  0  0  0  0  0  0  0  0  0  0  0
    6.6650   -0.0100   21.5970 C   0  0  1  0  0  0  0  0  0  0  0  0
    6.4210   -2.0960   23.0570 C   0  0  0  0  0  0  0  0  0  0  0  0
    8.4350   -1.4640   22.4060 C   0  0  0  0  0  0  0  0  0  0  0  0
    7.7940    1.1500   21.7190 C   0  0  0  0  0  0  0  0  0  0  0  0
    6.0900    0.4260   20.3020 C   0  0  0  0  0  0  0  0  0  0  0  0
    8.4980   -1.0690   23.7390 N   0  0  0  0  0  0  0  0  0  0  0  0
    9.8440   -1.7430   21.9770 C   0  0  0  0  0  0  0  0  0  0  0  0
    6.8160   -4.0520   21.6850 C   0  0  2  0  0  0  0  0  0  0  0  0
    7.2330   -3.4260   23.0100 C   0  0  2  0  0  0  0  0  0  0  0  0
    8.0940   -4.4000   20.9550 C   0  0  0  0  0  0  0  0  0  0  0  0
    7.5640    2.2000   22.7520 N   0  0  0  0  0  0  0  0  0  0  0  0
    8.7540    1.1840   20.9640 O   0  0  0  0  0  0  0  0  0  0  0  0
    4.7530    1.1340   20.1290 C   0  0  0  0  0  0  0  0  0  0  0  0
    6.8550    0.1950   19.0180 C   0  0  0  0  0  0  0  0  0  0  0  0
    9.8490   -1.0800   24.1440 O   0  0  0  0  0  0  0  0  0  0  0  0
   10.6800   -1.4880   23.0490 C   0  0  0  0  0  0  0  0  0  0  0  0
    6.9880   -4.2990   24.1820 C   0  0  0  0  0  0  0  0  0  0  0  0
    5.8830   -5.2690   21.8960 C   0  0  0  0  0  0  0  0  0  0  0  0
   12.2040   -1.5870   23.1240 C   0  0  0  0  0  0  0  0  0  0  0  0
    3.8470    1.4320   21.1720 C   0  0  0  0  0  0  0  0  0  0  0  0
    6.3610    0.6490   17.7350 N   0  0  0  0  0  0  0  0  0  0  0  0
    4.3380    1.5440   18.8790 C   0  0  0  0  0  0  0  0  0  0  0  0
    8.3840    3.3550   23.0630 C   0  0  0  0  0  0  0  0  0  0  0  0
    5.5730   -4.5360   24.2490 N   0  0  0  0  0  0  0  0  0  0  0  0
    4.8900   -4.9830   23.0190 C   0  0  0  0  0  0  0  0  0  0  0  0
   12.9720   -0.3300   23.5330 C   0  0  0  0  0  0  0  0  0  0  0  0
   12.8020   -2.0080   21.7770 C   0  0  0  0  0  0  0  0  0  0  0  0
   12.5950   -2.6220   24.2040 C   0  0  0  0  0  0  0  0  0  0  0  0
    4.3830    2.0530   22.3100 C   0  0  0  0  0  0  0  0  0  0  0  0
    5.1010    1.3220   17.7590 C   0  0  0  0  0  0  0  0  0  0  0  0
    9.7590    3.1770   23.2760 C   0  0  0  0  0  0  0  0  0  0  0  0
    7.9020    4.6740   23.1750 C   0  0  0  0  0  0  0  0  0  0  0  0
    4.8680   -3.8590   25.3150 C   0  0  0  0  0  0  0  0  0  0  0  0
   10.3290    1.8100   23.1390 C   0  0  0  0  0  0  0  0  0  0  0  0
    3.3150    2.7310   23.0550 N   0  0  0  0  0  0  0  0  0  0  0  0
   10.5340    4.2740   23.5970 C   0  0  0  0  0  0  0  0  0  0  0  0
    8.6870    5.7700   23.4880 C   0  0  0  0  0  0  0  0  0  0  0  0
    5.3780   -2.7110   25.9410 C   0  0  0  0  0  0  0  0  0  0  0  0
    3.6550   -4.4670   25.6380 C   0  0  0  0  0  0  0  0  0  0  0  0
    2.2660    1.9330   23.7020 C   0  0  0  0  0  0  0  0  0  0  0  0
   10.0220    5.5530   23.7090 C   0  0  0  0  0  0  0  0  0  0  0  0
    4.6180   -2.0130   27.0630 C   0  0  0  0  0  0  0  0  0  0  0  0
    2.8480   -3.9460   26.6390 C   0  0  0  0  0  0  0  0  0  0  0  0
   10.9360    6.5270   24.0380 O   0  0  0  0  0  0  0  0  0  0  0  0
    2.1950    0.5810   23.6350 O   0  0  0  0  0  0  0  0  0  0  0  0
    1.2080    2.6690   24.4890 C   0  0  0  0  0  0  0  0  0  0  0  0
    3.3020   -2.6990   27.3890 C   0  0  0  0  0  0  0  0  0  0  0  0
   11.8790    6.2380   25.0680 C   0  0  0  0  0  0  0  0  0  0  0  0
    2.6160   -2.0260   28.4410 O   0  0  0  0  0  0  0  0  0  0  0  0
    1.5030    3.8290   25.1940 C   0  0  0  0  0  0  0  0  0  0  0  0
   -0.1040    2.1600   24.5020 C   0  0  0  0  0  0  0  0  0  0  0  0
    2.7450    4.3350   25.2010 F   0  0  0  0  0  0  0  0  0  0  0  0
    1.2110   -2.2290   28.4750 C   0  0  0  0  0  0  0  0  0  0  0  0
   -1.1550    2.7870   25.2110 C   0  0  0  0  0  0  0  0  0  0  0  0
    0.5310    4.5060   25.9150 C   0  0  0  0  0  0  0  0  0  0  0  0
   -0.7950    4.0670   25.9770 C   0  0  0  0  0  0  0  0  0  0  0  0
  1  2  1  0
  2  3  2  0
  1  4  1  0
  1  5  1  0
  1  6  1  1
  4  7  1  6
  4  8  1  0
  6  9  2  0
  6 10  1  0
  2 11  1  0
 12  5  1  1
 11 12  1  0
 11 13  1  6
  7 14  1  0
  7 15  2  0
  8 16  1  0
  8 17  2  0
  9 18  1  0
 10 19  2  0
 18 19  1  0
 12 20  1  0
 11 21  1  0
 19 22  1  0
 16 23  1  0
 17 24  1  0
 16 25  2  0
 14 26  1  0
 20 27  1  0
 21 28  1  0
 27 28  1  0
 22 29  1  0
 22 30  1  0
 22 31  1  0
 23 32  1  0
 24 33  2  0
 25 33  1  0
 26 34  2  0
 26 35  1  0
 27 36  1  0
 34 37  1  0
 32 38  1  0
 34 39  1  0
 35 40  2  0
 36 41  2  0
 36 42  1  0
 38 43  1  0
 39 44  2  0
 40 44  1  0
 41 45  1  0
 42 46  2  0
 44 47  1  0
 43 48  2  0
 43 49  1  0
 45 50  2  0
 46 50  1  0
 47 51  1  0
 50 52  1  0
 49 53  2  0
 49 54  1  0
 53 55  1  0
 52 56  1  0
 54 57  2  0
 53 58  1  0
 57 59  1  0
 58 59  2  0
M  END
