x2694-x0991
     RDKit          3D

 40 42  0  0  0  0  0  0  0  0999 V2000
    6.8640   -1.7190   21.8710 N   0  0  0  0  0  0  0  0  0  0  0  0
    6.0500   -2.8580   21.3340 C   0  0  0  0  0  0  0  0  0  0  0  0
    4.8050   -2.9440   21.0730 O   0  0  0  0  0  0  0  0  0  0  0  0
    6.6230   -0.1900   21.6490 C   0  0  1  0  0  0  0  0  0  0  0  0
    7.8120   -2.0990   22.8200 C   0  0  2  0  0  0  0  0  0  0  0  0
    6.7310   -4.2300   21.1630 C   0  0  0  0  0  0  0  0  0  0  0  0
    7.7080    1.0380   21.8390 C   0  0  0  0  0  0  0  0  0  0  0  0
    7.7280   -2.7380   23.9850 C   0  0  0  0  0  0  0  0  0  0  0  0
    6.1930    0.2040   20.2490 C   0  0  0  0  0  0  0  0  0  0  0  0
    8.8770   -1.1610   22.8370 N   0  0  0  0  0  0  0  0  0  0  0  0
    7.0290   -3.5070   19.8340 C   0  0  0  0  0  0  0  0  0  0  0  0
    7.6120    1.9970   22.9660 N   0  0  0  0  0  0  0  0  0  0  0  0
    8.5970    1.2790   21.0230 O   0  0  0  0  0  0  0  0  0  0  0  0
    8.4940   -3.8490   23.7700 C   0  0  0  0  0  0  0  0  0  0  0  0
    5.0630    0.9880   20.2200 C   0  0  0  0  0  0  0  0  0  0  0  0
    6.8220   -0.1150   19.0570 C   0  0  0  0  0  0  0  0  0  0  0  0
    9.9170   -1.4280   23.8320 O   0  0  0  0  0  0  0  0  0  0  0  0
    9.3840   -0.9770   21.6020 C   0  0  0  0  0  0  0  0  0  0  0  0
    7.8780   -5.0300   24.2040 C   0  0  0  0  0  0  0  0  0  0  0  0
    6.3570    0.3330   17.8720 N   0  0  0  0  0  0  0  0  0  0  0  0
    4.5190    1.4870   19.0440 C   0  0  0  0  0  0  0  0  0  0  0  0
   10.9470   -1.9650   23.0980 C   0  0  1  0  0  0  0  0  0  0  0  0
   10.7340   -1.5690   21.8430 C   0  0  0  0  0  0  0  0  0  0  0  0
    8.3770    3.2100   23.1350 C   0  0  0  0  0  0  0  0  0  0  0  0
   12.3470   -1.6310   23.6110 C   0  0  0  0  0  0  0  0  0  0  0  0
    8.4810   -5.6040   25.3090 C   0  0  0  0  0  0  0  0  0  0  0  0
    5.2350    1.1170   17.8790 C   0  0  0  0  0  0  0  0  0  0  0  0
    9.6450    3.1110   23.7200 C   0  0  0  0  0  0  0  0  0  0  0  0
    7.9480    4.6320   22.7380 C   0  0  0  0  0  0  0  0  0  0  0  0
   10.1660    1.8530   24.1360 C   0  0  0  0  0  0  0  0  0  0  0  0
   12.5080   -0.1730   23.9310 C   0  0  0  0  0  0  0  0  0  0  0  0
   13.3500   -1.9060   22.5060 C   0  0  0  0  0  0  0  0  0  0  0  0
   12.7910   -2.5160   24.7810 C   0  0  0  0  0  0  0  0  0  0  0  0
    9.8560   -5.9980   25.1670 N   0  0  0  0  0  0  0  0  0  0  0  0
    7.7120   -5.7710   26.5450 N   0  0  0  0  0  0  0  0  0  0  0  0
   10.4710    4.2330   23.9320 C   0  0  0  0  0  0  0  0  0  0  0  0
    8.7310    5.7670   22.9360 C   0  0  0  0  0  0  0  0  0  0  0  0
   10.1110    5.5450   23.5960 C   0  0  0  0  0  0  0  0  0  0  0  0
   10.9030    6.6550   23.8130 O   0  0  0  0  0  0  0  0  0  0  0  0
   11.8630    6.5710   24.8680 C   0  0  0  0  0  0  0  0  0  0  0  0
  1  2  1  0
  2  3  2  0
  1  4  1  0
  1  5  1  0
  2  6  1  0
  4  7  1  6
  5  8  1  1
  4  9  1  0
  5 10  1  0
  6 11  1  0
  7 12  1  0
  7 13  2  0
  8 14  1  0
  9 15  2  0
  9 16  1  0
 10 17  1  0
 10 18  1  0
 14 19  1  0
 16 20  2  0
 15 21  1  0
 17 22  1  0
 18 23  2  0
 22 23  1  0
 12 24  1  0
 22 25  1  1
 19 26  1  0
 20 27  1  0
 21 27  2  0
 24 28  2  0
 24 29  1  0
 28 30  1  0
 25 31  1  0
 25 32  1  0
 25 33  1  0
 26 34  2  3
 26 35  1  0
 28 36  1  0
 29 37  2  0
 36 38  2  0
 37 38  1  0
 38 39  1  0
 39 40  1  0
M  END
