x2694-x0387-x0426
     RDKit          3D

 54 59  0  0  0  0  0  0  0  0999 V2000
    6.9890   -1.2950   21.7000 N   0  0  0  0  0  0  0  0  0  0  0  0
    6.1730   -2.6260   21.5140 C   0  0  0  0  0  0  0  0  0  0  0  0
    4.8430   -2.9790   21.1920 O   0  0  0  0  0  0  0  0  0  0  0  0
    6.5040    0.1000   21.4540 C   0  0  1  0  0  0  0  0  0  0  0  0
    8.2080   -1.1230   22.5570 C   0  0  1  0  0  0  0  0  0  0  0  0
    6.9940   -3.8690   21.6990 C   0  0  0  0  0  0  0  0  0  0  0  0
    7.5320    1.2980   21.7380 C   0  0  0  0  0  0  0  0  0  0  0  0
    5.9790    0.5340   20.1140 C   0  0  0  0  0  0  0  0  0  0  0  0
    8.2350   -1.8390   23.6510 N   0  0  0  0  0  0  0  0  0  0  0  0
    9.5250   -0.8960   22.0600 C   0  0  0  0  0  0  0  0  0  0  0  0
    6.8390   -4.6810   20.4160 C   0  0  0  0  0  0  0  0  0  0  0  0
    7.1410    2.2160   22.8800 N   0  0  0  0  0  0  0  0  0  0  0  0
    8.5660    1.4990   21.0740 O   0  0  0  0  0  0  0  0  0  0  0  0
    4.7440    1.1490   20.0500 C   0  0  0  0  0  0  0  0  0  0  0  0
    6.7620    0.3220   19.0170 C   0  0  0  0  0  0  0  0  0  0  0  0
    9.5350   -1.9490   24.0030 C   0  0  2  0  0  0  0  0  0  0  0  0
   10.4210   -1.3790   23.0300 C   0  0  2  0  0  0  0  0  0  0  0  0
    3.7970    1.4040   21.1990 C   0  0  0  0  0  0  0  0  0  0  0  0
    6.4540    0.6900   17.7880 N   0  0  0  0  0  0  0  0  0  0  0  0
    4.3680    1.5680   18.7950 C   0  0  0  0  0  0  0  0  0  0  0  0
    7.6760    3.5230   23.1170 C   0  0  0  0  0  0  0  0  0  0  0  0
    9.5610   -3.2350   24.5020 N   0  0  0  0  0  0  0  0  0  0  0  0
   11.4890   -0.3320   23.5450 C   0  0  1  0  0  0  0  0  0  0  0  0
   11.2470   -2.2870   22.1810 C   0  0  0  0  0  0  0  0  0  0  0  0
   12.1220   -0.7780   24.8450 C   0  0  0  0  0  0  0  0  0  0  0  0
    4.2990    2.0510   22.3390 C   0  0  0  0  0  0  0  0  0  0  0  0
    5.1680    1.3750   17.6830 C   0  0  0  0  0  0  0  0  0  0  0  0
    7.6590    3.9920   24.4420 C   0  0  0  0  0  0  0  0  0  0  0  0
    8.2060    4.3680   22.1610 C   0  0  0  0  0  0  0  0  0  0  0  0
    8.2370   -3.5610   25.1180 C   0  0  0  0  0  0  0  0  0  0  0  0
   10.7420   -3.5960   25.2860 C   0  0  0  0  0  0  0  0  0  0  0  0
   12.9290   -1.7190   21.6990 S   0  0  0  0  0  0  0  0  0  0  0  0
   12.7330   -0.2880   22.7110 C   0  0  0  0  0  0  0  0  0  0  0  0
    7.1680    3.2140   25.4080 C   0  0  0  0  0  0  0  0  0  0  0  0
   13.0580   -1.9950   24.6730 C   0  0  0  0  0  0  0  0  0  0  0  0
    3.1030    2.6350   23.0040 N   0  0  0  0  0  0  0  0  0  0  0  0
    8.1600    5.3020   24.8960 C   0  0  0  0  0  0  0  0  0  0  0  0
    8.7160    5.6310   22.5340 C   0  0  0  0  0  0  0  0  0  0  0  0
    8.2630   -4.6620   25.9600 C   0  0  0  0  0  0  0  0  0  0  0  0
   10.5660   -4.6500   26.1630 C   0  0  0  0  0  0  0  0  0  0  0  0
    2.2590    1.8750   23.7250 C   0  0  0  0  0  0  0  0  0  0  0  0
    8.6980    6.1020   23.9490 C   0  0  0  0  0  0  0  0  0  0  0  0
    9.2470   -4.5290   26.9030 C   0  0  0  0  0  0  0  0  0  0  0  0
    9.2780    7.3620   24.1390 O   0  0  0  0  0  0  0  0  0  0  0  0
    2.2890    0.4480   23.7890 O   0  0  0  0  0  0  0  0  0  0  0  0
    9.1350   -5.5150   27.9150 O   0  0  0  0  0  0  0  0  0  0  0  0
    1.2270    2.6110   24.5010 C   0  0  0  0  0  0  0  0  0  0  0  0
   10.6030    7.4530   24.7070 C   0  0  0  0  0  0  0  0  0  0  0  0
    1.4710    3.8000   25.2210 C   0  0  0  0  0  0  0  0  0  0  0  0
   -0.0940    2.1320   24.5480 C   0  0  0  0  0  0  0  0  0  0  0  0
    2.7070    4.3160   25.2230 F   0  0  0  0  0  0  0  0  0  0  0  0
   -1.2410    2.8010   25.3070 C   0  0  0  0  0  0  0  0  0  0  0  0
    0.4820    4.4960   25.9540 C   0  0  0  0  0  0  0  0  0  0  0  0
   -0.9500    3.9680   25.9990 C   0  0  0  0  0  0  0  0  0  0  0  0
  1  2  1  0
  2  3  2  0
  1  4  1  0
  5  1  1  6
  2  6  1  0
  4  7  1  6
  4  8  1  0
  5  9  1  0
  5 10  1  0
  6 11  1  0
  7 12  1  0
  7 13  2  0
  8 14  1  0
  8 15  2  0
  9 16  1  0
 17 10  1  6
 16 17  1  0
 14 18  1  0
 15 19  1  0
 14 20  2  0
 12 21  1  0
 16 22  1  6
 17 23  1  0
 17 24  1  0
 23 25  1  1
 18 26  1  0
 19 27  2  0
 20 27  1  0
 21 28  2  0
 21 29  1  0
 22 30  1  0
 22 31  1  0
 24 32  2  0
 23 33  1  0
 32 33  2  0
 28 34  1  0
 25 35  1  0
 26 36  1  0
 28 37  1  0
 29 38  2  0
 30 39  1  0
 31 40  1  0
 36 41  1  0
 37 42  2  0
 38 42  1  0
 39 43  1  0
 40 43  1  0
 42 44  1  0
 41 45  2  0
 43 46  1  0
 41 47  1  0
 44 48  1  0
 47 49  2  0
 47 50  1  0
 49 51  1  0
 50 52  2  0
 49 53  1  0
 52 54  1  0
 53 54  2  0
M  END
