x2694-x1308
     RDKit          3D

 51 56  0  0  0  0  0  0  0  0999 V2000
    6.8190   -1.2640   21.8650 C   0  0  1  0  0  0  0  0  0  0  0  0
    5.8870   -2.2850   20.9640 C   0  0  0  0  0  0  0  0  0  0  0  0
    4.8290   -3.0120   21.2010 O   0  0  0  0  0  0  0  0  0  0  0  0
    6.7320    0.2660   21.5550 C   0  0  1  0  0  0  0  0  0  0  0  0
    5.8290   -1.6840   22.9280 C   0  0  0  0  0  0  0  0  0  0  0  0
    8.2870   -1.4460   22.4570 C   0  0  0  0  0  0  0  0  0  0  0  0
    6.2040   -2.3150   19.5740 C   0  0  0  0  0  0  0  0  0  0  0  0
    7.7950    1.1970   21.8880 C   0  0  0  0  0  0  0  0  0  0  0  0
    5.7460   -3.1030   22.9210 C   0  0  0  0  0  0  0  0  0  0  0  0
    6.1500    0.6250   20.2220 C   0  0  0  0  0  0  0  0  0  0  0  0
    8.4780   -1.8040   23.8750 N   0  0  0  0  0  0  0  0  0  0  0  0
    9.6130   -1.3210   22.0160 C   0  0  0  0  0  0  0  0  0  0  0  0
    6.6100   -3.6920   20.1300 C   0  0  0  0  0  0  0  0  0  0  0  0
    7.7310    1.9330   22.8070 N   0  0  0  0  0  0  0  0  0  0  0  0
    8.7730    1.2740   21.1310 O   0  0  0  0  0  0  0  0  0  0  0  0
    4.9250    1.3080   20.1450 C   0  0  0  0  0  0  0  0  0  0  0  0
    6.8930    0.2740   19.0940 C   0  0  0  0  0  0  0  0  0  0  0  0
    9.8560   -1.8420   24.1320 O   0  0  0  0  0  0  0  0  0  0  0  0
   10.5870   -1.5470   23.0160 C   0  0  0  0  0  0  0  0  0  0  0  0
    6.4820   -4.1040   21.7930 C   0  0  0  0  0  0  0  0  0  0  0  0
   12.1140   -1.5320   23.1630 C   0  0  0  0  0  0  0  0  0  0  0  0
    6.3510    0.6620   17.8020 N   0  0  0  0  0  0  0  0  0  0  0  0
    4.3940    1.6830   18.9300 C   0  0  0  0  0  0  0  0  0  0  0  0
    8.4800    3.2160   23.0250 C   0  0  0  0  0  0  0  0  0  0  0  0
    7.6260   -4.6300   22.4160 C   0  0  0  0  0  0  0  0  0  0  0  0
    5.6250   -5.4290   21.7890 C   0  0  0  0  0  0  0  0  0  0  0  0
   12.6210   -0.1410   23.5270 C   0  0  0  0  0  0  0  0  0  0  0  0
   12.8000   -1.8850   21.8230 C   0  0  0  0  0  0  0  0  0  0  0  0
   12.5500   -2.5210   24.2230 C   0  0  0  0  0  0  0  0  0  0  0  0
    5.1000    1.3700   17.7960 C   0  0  0  0  0  0  0  0  0  0  0  0
    9.7300    3.1350   23.6260 C   0  0  0  0  0  0  0  0  0  0  0  0
    7.9130    4.5900   22.6110 C   0  0  0  0  0  0  0  0  0  0  0  0
    7.3900   -5.0370   23.7660 C   0  0  0  0  0  0  0  0  0  0  0  0
    5.0480   -5.7670   23.0050 C   0  0  0  0  0  0  0  0  0  0  0  0
   10.2760    1.8020   24.0320 C   0  0  0  0  0  0  0  0  0  0  0  0
   10.5600    4.2310   23.9020 C   0  0  0  0  0  0  0  0  0  0  0  0
    8.8540    5.7090   22.9500 C   0  0  0  0  0  0  0  0  0  0  0  0
    5.9640   -5.4280   24.1000 N   0  0  0  0  0  0  0  0  0  0  0  0
    5.3600   -5.6050   25.7080 S   0  0  0  0  0  0  0  0  0  0  0  0
   10.1320    5.5660   23.5740 C   0  0  0  0  0  0  0  0  0  0  0  0
   10.8740    6.7030   23.8260 O   0  0  0  0  0  0  0  0  0  0  0  0
    6.3050   -5.2680   26.7320 O   0  0  0  0  0  0  0  0  0  0  0  0
    4.6940   -6.8840   25.7770 O   0  0  0  0  0  0  0  0  0  0  0  0
    4.0590   -4.4060   25.8610 C   0  0  0  0  0  0  0  0  0  0  0  0
   11.8540    6.6060   24.8610 C   0  0  0  0  0  0  0  0  0  0  0  0
    4.3810   -3.1120   26.2890 C   0  0  0  0  0  0  0  0  0  0  0  0
    2.6180   -4.8040   25.5420 C   0  0  0  0  0  0  0  0  0  0  0  0
    3.3430   -2.0170   26.4750 C   0  0  0  0  0  0  0  0  0  0  0  0
    1.5630   -3.6960   25.7300 C   0  0  0  0  0  0  0  0  0  0  0  0
    1.8750   -2.2860   26.2000 C   0  0  0  0  0  0  0  0  0  0  0  0
    0.6620   -1.0850   26.4090 Cl  0  0  0  0  0  0  0  0  0  0  0  0
  1  2  1  0
  2  3  2  0
  1  4  1  0
  1  5  1  0
  1  6  1  1
  2  7  1  0
  4  8  1  6
  5  9  1  0
  4 10  1  0
  6 11  2  0
  6 12  1  0
  7 13  1  0
  8 14  1  0
  8 15  2  0
 10 16  2  0
 10 17  1  0
 11 18  1  0
 12 19  2  0
 18 19  1  0
 20  9  1  0
 13 20  1  0
 19 21  1  0
 17 22  2  0
 16 23  1  0
 14 24  1  0
 20 25  1  0
 20 26  1  0
 21 27  1  0
 21 28  1  0
 21 29  1  0
 22 30  1  0
 23 30  2  0
 24 31  2  0
 24 32  1  0
 25 33  1  0
 26 34  1  0
 31 35  1  0
 31 36  1  0
 32 37  2  0
 33 38  1  0
 34 38  1  0
 38 39  1  0
 36 40  2  0
 37 40  1  0
 40 41  1  0
 39 42  2  0
 39 43  2  0
 39 44  1  0
 41 45  1  0
 44 46  2  0
 44 47  1  0
 46 48  1  0
 47 49  2  0
 48 50  2  0
 49 50  1  0
 50 51  1  0
M  END
