x2694-x0978-x3117
     RDKit          3D

 45 47  0  0  0  0  0  0  0  0999 V2000
    6.9350   -1.3640   21.8550 N   0  0  0  0  0  0  0  0  0  0  0  0
    6.0190   -2.5670   21.6500 C   0  0  0  0  0  0  0  0  0  0  0  0
    4.7310   -2.8990   21.2900 O   0  0  0  0  0  0  0  0  0  0  0  0
    6.6950    0.0160   21.6610 C   0  0  1  0  0  0  0  0  0  0  0  0
    8.2220   -1.5000   22.5690 C   0  0  0  0  0  0  0  0  0  0  0  0
    6.7660   -3.8010   21.9010 C   0  0  0  0  0  0  0  0  0  0  0  0
    7.8420    0.9900   21.9990 C   0  0  0  0  0  0  0  0  0  0  0  0
    6.1520    0.4390   20.3280 C   0  0  0  0  0  0  0  0  0  0  0  0
    8.4510   -1.7750   24.0090 N   0  0  0  0  0  0  0  0  0  0  0  0
    9.5940   -1.3760   22.0050 C   0  0  0  0  0  0  0  0  0  0  0  0
    6.3660   -4.6600   20.7530 C   0  0  0  0  0  0  0  0  0  0  0  0
    7.6370    2.0940   22.9770 N   0  0  0  0  0  0  0  0  0  0  0  0
    8.9160    0.8990   21.4180 O   0  0  0  0  0  0  0  0  0  0  0  0
    4.9000    1.3210   20.1440 C   0  0  0  0  0  0  0  0  0  0  0  0
    6.8510    0.0300   19.0420 C   0  0  0  0  0  0  0  0  0  0  0  0
    9.8700   -1.7990   24.2420 O   0  0  0  0  0  0  0  0  0  0  0  0
   10.6180   -1.5680   23.0970 C   0  0  0  0  0  0  0  0  0  0  0  0
   12.1850   -1.5260   23.0530 C   0  0  0  0  0  0  0  0  0  0  0  0
    5.6870   -5.8490   21.4160 N   0  0  0  0  0  0  0  0  0  0  0  0
    6.3710    0.4630   17.7470 N   0  0  0  0  0  0  0  0  0  0  0  0
    4.4600    1.7170   18.9080 C   0  0  0  0  0  0  0  0  0  0  0  0
    8.4300    3.2720   23.1280 C   0  0  0  0  0  0  0  0  0  0  0  0
   12.6990   -0.2880   23.7860 C   0  0  0  0  0  0  0  0  0  0  0  0
   12.7030   -1.7550   21.5970 C   0  0  0  0  0  0  0  0  0  0  0  0
   12.6320   -2.5760   23.6760 C   0  0  0  0  0  0  0  0  0  0  0  0
    4.6560   -5.5960   22.6020 C   0  0  0  0  0  0  0  0  0  0  0  0
    5.1680    1.3110   17.7720 C   0  0  0  0  0  0  0  0  0  0  0  0
    9.7340    3.1580   23.6760 C   0  0  0  0  0  0  0  0  0  0  0  0
    7.9370    4.6760   22.7310 C   0  0  0  0  0  0  0  0  0  0  0  0
   10.2840    1.8730   24.0740 C   0  0  0  0  0  0  0  0  0  0  0  0
   12.8800   -2.4760   25.1770 C   0  0  0  0  0  0  0  0  0  0  0  0
    3.4180   -6.5060   22.9670 C   0  0  2  0  0  0  0  0  0  0  0  0
    4.7780   -4.5900   23.2990 O   0  0  0  0  0  0  0  0  0  0  0  0
   10.5570    4.2930   23.8620 C   0  0  0  0  0  0  0  0  0  0  0  0
    8.8700    5.8620   22.9600 C   0  0  0  0  0  0  0  0  0  0  0  0
    2.2380   -5.6230   22.9110 N   0  0  0  0  0  0  0  0  0  0  0  0
    3.4600   -7.1500   24.2090 C   0  0  1  0  0  0  0  0  0  0  0  0
   10.2460    5.6050   23.5680 C   0  0  0  0  0  0  0  0  0  0  0  0
   11.1160    6.6550   23.8040 O   0  0  0  0  0  0  0  0  0  0  0  0
    2.2800   -7.9230   24.4450 C   0  0  0  0  0  0  0  0  0  0  0  0
    4.6780   -7.7970   24.3540 O   0  0  0  0  0  0  0  0  0  0  0  0
    0.9440   -6.2270   22.5060 C   0  0  0  0  0  0  0  0  0  0  0  0
   11.8910    6.5920   24.9970 C   0  0  0  0  0  0  0  0  0  0  0  0
    0.9080   -7.3380   21.9760 O   0  0  0  0  0  0  0  0  0  0  0  0
   -0.3820   -5.3700   22.7780 C   0  0  0  0  0  0  0  0  0  0  0  0
  1  2  1  0
  2  3  2  0
  1  4  1  0
  1  5  1  0
  2  6  1  0
  4  7  1  6
  4  8  1  0
  5  9  2  0
  5 10  1  0
  6 11  1  0
  7 12  1  0
  7 13  2  0
  8 14  2  0
  8 15  1  0
  9 16  1  0
 10 17  2  0
 16 17  1  0
 17 18  1  0
 11 19  1  0
 15 20  2  0
 14 21  1  0
 12 22  1  0
 18 23  1  0
 18 24  1  0
 18 25  1  0
 19 26  1  0
 20 27  1  0
 21 27  2  0
 22 28  2  0
 22 29  1  0
 28 30  1  0
 25 31  1  0
 26 32  1  0
 26 33  2  0
 28 34  1  0
 29 35  2  0
 32 36  1  1
 32 37  1  0
 34 38  2  0
 35 38  1  0
 38 39  1  0
 37 40  1  6
 37 41  1  0
 36 42  1  0
 39 43  1  0
 42 44  2  0
 42 45  1  0
M  END
