x2694-x1311-x1374
     RDKit          3D

 48 52  0  0  0  0  0  0  0  0999 V2000
    6.9090   -1.1880   22.0150 N   0  0  0  0  0  0  0  0  0  0  0  0
    6.2680   -2.5410   21.5210 C   0  0  0  0  0  0  0  0  0  0  0  0
    4.9240   -3.0680   21.2370 O   0  0  0  0  0  0  0  0  0  0  0  0
    6.5930    0.2240   21.6290 C   0  0  1  0  0  0  0  0  0  0  0  0
    8.2210   -1.2650   22.7220 C   0  0  0  0  0  0  0  0  0  0  0  0
    7.3760   -3.4340   21.3400 C   0  0  2  0  0  0  0  0  0  0  0  0
    7.7500    1.2850   21.8350 C   0  0  0  0  0  0  0  0  0  0  0  0
    6.1580    0.5300   20.2630 C   0  0  0  0  0  0  0  0  0  0  0  0
    8.3420   -1.4230   24.0890 N   0  0  0  0  0  0  0  0  0  0  0  0
    9.5250   -1.1700   22.1810 C   0  0  0  0  0  0  0  0  0  0  0  0
    7.0480   -4.3320   20.1880 C   0  0  0  0  0  0  0  0  0  0  0  0
    7.6340    2.2610   22.9580 N   0  0  0  0  0  0  0  0  0  0  0  0
    8.7040    1.3200   21.0520 O   0  0  0  0  0  0  0  0  0  0  0  0
    4.9690    1.4610   20.0600 C   0  0  0  0  0  0  0  0  0  0  0  0
    6.7550    0.0620   19.1060 C   0  0  0  0  0  0  0  0  0  0  0  0
    9.7390   -1.4200   24.3750 O   0  0  0  0  0  0  0  0  0  0  0  0
   10.4790   -1.2640   23.2190 C   0  0  0  0  0  0  0  0  0  0  0  0
    7.9010   -4.0110   22.6830 C   0  0  0  0  0  0  0  0  0  0  0  0
   12.0330   -1.2110   23.1980 C   0  0  0  0  0  0  0  0  0  0  0  0
    6.3390    0.4030   17.8490 N   0  0  0  0  0  0  0  0  0  0  0  0
    4.5090    1.8340   18.8280 C   0  0  0  0  0  0  0  0  0  0  0  0
    8.4630    3.4220   23.1310 C   0  0  0  0  0  0  0  0  0  0  0  0
    9.0660   -3.8010   23.3430 C   0  0  0  0  0  0  0  0  0  0  0  0
    6.9810   -4.8300   23.1790 C   0  0  0  0  0  0  0  0  0  0  0  0
   12.5560    0.0130   23.3760 C   0  0  0  0  0  0  0  0  0  0  0  0
   12.6530   -1.7550   21.8880 C   0  0  0  0  0  0  0  0  0  0  0  0
   12.6410   -2.0520   24.3520 C   0  0  0  0  0  0  0  0  0  0  0  0
    5.8440   -4.9550   22.3970 N   0  0  0  0  0  0  0  0  0  0  0  0
    5.1910    1.3160   17.7360 C   0  0  0  0  0  0  0  0  0  0  0  0
    9.7140    3.2460   23.7070 C   0  0  0  0  0  0  0  0  0  0  0  0
    8.0610    4.7220   22.7460 C   0  0  0  0  0  0  0  0  0  0  0  0
    9.3480   -4.4070   24.5420 C   0  0  0  0  0  0  0  0  0  0  0  0
    7.1340   -5.4880   24.3480 C   0  0  0  0  0  0  0  0  0  0  0  0
   10.1130    1.9240   24.0940 C   0  0  0  0  0  0  0  0  0  0  0  0
   10.6530   -4.1700   25.2930 C   0  0  0  0  0  0  0  0  0  0  0  0
   10.5280    4.3610   23.8880 C   0  0  0  0  0  0  0  0  0  0  0  0
    8.8950    5.8220   22.9440 C   0  0  0  0  0  0  0  0  0  0  0  0
    8.3660   -5.2470   25.0210 C   0  0  0  0  0  0  0  0  0  0  0  0
    4.5610   -5.2510   23.0060 C   0  0  2  0  0  0  0  0  0  0  0  0
   10.1500    5.6550   23.5280 C   0  0  0  0  0  0  0  0  0  0  0  0
    4.5620   -4.6930   24.2880 C   0  0  0  0  0  0  0  0  0  0  0  0
    4.4850   -6.5830   22.8600 C   0  0  0  0  0  0  0  0  0  0  0  0
   10.9680    6.5550   23.7560 O   0  0  0  0  0  0  0  0  0  0  0  0
    3.5140   -6.9050   24.3530 S   0  0  0  0  0  0  0  0  0  0  0  0
    4.0160   -5.4550   25.2200 C   0  0  0  0  0  0  0  0  0  0  0  0
   11.8280    6.4360   24.8920 C   0  0  0  0  0  0  0  0  0  0  0  0
    2.1400   -6.8070   23.9310 O   0  0  0  0  0  0  0  0  0  0  0  0
    3.9290   -8.0820   25.0600 O   0  0  0  0  0  0  0  0  0  0  0  0
  1  2  1  0
  2  3  2  0
  1  4  1  0
  1  5  1  0
  2  6  1  0
  4  7  1  6
  4  8  1  0
  5  9  2  0
  5 10  1  0
  6 11  1  6
  7 12  1  0
  7 13  2  0
  8 14  2  0
  8 15  1  0
  9 16  1  0
 10 17  2  0
 16 17  1  0
  6 18  1  0
 17 19  1  0
 15 20  2  0
 14 21  1  0
 12 22  1  0
 18 23  2  0
 18 24  1  0
 19 25  1  0
 19 26  1  0
 19 27  1  0
 24 28  1  0
 20 29  1  0
 21 29  2  0
 22 30  2  0
 22 31  1  0
 23 32  1  0
 24 33  2  0
 30 34  1  0
 32 35  1  0
 30 36  1  0
 31 37  2  0
 32 38  2  0
 33 38  1  0
 39 28  1  1
 36 40  2  0
 37 40  1  0
 39 41  1  0
 39 42  1  0
 40 43  1  0
 42 44  1  0
 41 45  2  0
 44 45  1  0
 43 46  1  0
 44 47  1  0
 44 48  1  0
M  END
