x2694-x1402-x2705
     RDKit          3D

 53 58  0  0  0  0  0  0  0  0999 V2000
    6.7550   -1.2680   21.9910 C   0  0  1  0  0  0  0  0  0  0  0  0
    5.7870   -2.2100   21.0590 C   0  0  0  0  0  0  0  0  0  0  0  0
    4.6630   -2.8690   21.3200 O   0  0  0  0  0  0  0  0  0  0  0  0
    6.6060    0.2040   21.6820 C   0  0  1  0  0  0  0  0  0  0  0  0
    5.9050   -2.0230   22.9710 C   0  0  0  0  0  0  0  0  0  0  0  0
    8.2810   -1.4230   22.5160 C   0  0  0  0  0  0  0  0  0  0  0  0
    6.0910   -2.5530   19.7520 C   0  0  0  0  0  0  0  0  0  0  0  0
    7.7610    1.2970   21.8170 C   0  0  0  0  0  0  0  0  0  0  0  0
    5.4940   -3.3630   22.6230 C   0  0  0  0  0  0  0  0  0  0  0  0
    6.1470    0.5370   20.2770 C   0  0  0  0  0  0  0  0  0  0  0  0
    8.4490   -1.7270   23.8420 N   0  0  0  0  0  0  0  0  0  0  0  0
    9.5570   -1.2960   21.9710 C   0  0  0  0  0  0  0  0  0  0  0  0
    6.5530   -3.9240   20.0340 C   0  0  0  0  0  0  0  0  0  0  0  0
    7.4950    2.4350   22.7250 N   0  0  0  0  0  0  0  0  0  0  0  0
    8.7990    1.2340   21.1510 O   0  0  0  0  0  0  0  0  0  0  0  0
    4.9570    1.2580   20.1880 C   0  0  0  0  0  0  0  0  0  0  0  0
    6.8240    0.1960   19.1060 C   0  0  0  0  0  0  0  0  0  0  0  0
    9.8430   -1.7770   24.1080 O   0  0  0  0  0  0  0  0  0  0  0  0
   10.5290   -1.5090   22.9580 C   0  0  0  0  0  0  0  0  0  0  0  0
    6.3440   -4.3430   21.6990 C   0  0  0  0  0  0  0  0  0  0  0  0
   12.0690   -1.5100   23.0870 C   0  0  0  0  0  0  0  0  0  0  0  0
    6.3970    0.5340   17.8750 N   0  0  0  0  0  0  0  0  0  0  0  0
    4.4870    1.6240   18.9400 C   0  0  0  0  0  0  0  0  0  0  0  0
    8.4530    3.5110   23.0130 C   0  0  0  0  0  0  0  0  0  0  0  0
    7.4540   -4.7650   22.4060 C   0  0  0  0  0  0  0  0  0  0  0  0
    5.5360   -5.5100   21.6420 C   0  0  0  0  0  0  0  0  0  0  0  0
    6.1380    2.8720   23.0950 C   0  0  0  0  0  0  0  0  0  0  0  0
   12.5930   -0.1140   23.4960 C   0  0  0  0  0  0  0  0  0  0  0  0
   12.7520   -1.9390   21.8430 C   0  0  0  0  0  0  0  0  0  0  0  0
   12.4970   -2.4590   24.2400 C   0  0  0  0  0  0  0  0  0  0  0  0
    5.2110    1.2630   17.8210 C   0  0  0  0  0  0  0  0  0  0  0  0
    9.6910    3.2210   23.6050 C   0  0  0  0  0  0  0  0  0  0  0  0
    8.1460    4.8460   22.7080 C   0  0  0  0  0  0  0  0  0  0  0  0
    7.1800   -5.0590   23.7600 C   0  0  0  0  0  0  0  0  0  0  0  0
    4.8730   -5.8180   22.8510 C   0  0  0  0  0  0  0  0  0  0  0  0
    5.5670    3.7930   21.9910 C   0  0  0  0  0  0  0  0  0  0  0  0
   10.1350    1.8230   23.9800 C   0  0  0  0  0  0  0  0  0  0  0  0
   10.5780    4.2600   23.8760 C   0  0  0  0  0  0  0  0  0  0  0  0
    9.0580    5.8750   23.0010 C   0  0  0  0  0  0  0  0  0  0  0  0
    5.8200   -5.6290   23.9870 N   0  0  0  0  0  0  0  0  0  0  0  0
    9.2160    1.1630   24.9760 C   0  0  0  0  0  0  0  0  0  0  0  0
    5.1460   -5.5400   25.5840 S   0  0  0  0  0  0  0  0  0  0  0  0
   10.2800    5.5840   23.5920 C   0  0  0  0  0  0  0  0  0  0  0  0
   11.0860    6.6630   23.8420 O   0  0  0  0  0  0  0  0  0  0  0  0
    4.2140   -6.6330   25.7380 O   0  0  0  0  0  0  0  0  0  0  0  0
    6.1910   -5.3710   26.5660 O   0  0  0  0  0  0  0  0  0  0  0  0
    4.1790   -4.0270   25.7670 C   0  0  0  0  0  0  0  0  0  0  0  0
   11.8780    6.6030   25.0270 C   0  0  0  0  0  0  0  0  0  0  0  0
    2.4500   -4.0030   25.8410 S   0  0  0  0  0  0  0  0  0  0  0  0
    4.7000   -2.7940   25.8750 C   0  0  0  0  0  0  0  0  0  0  0  0
    3.8280   -1.7490   26.0250 C   0  0  0  0  0  0  0  0  0  0  0  0
    2.3730   -2.2870   26.0380 C   0  0  0  0  0  0  0  0  0  0  0  0
    0.8290   -1.4200   26.2230 Cl  0  0  0  0  0  0  0  0  0  0  0  0
  1  2  1  0
  2  3  2  0
  1  4  1  0
  1  5  1  0
  1  6  1  1
  2  7  1  0
  4  8  1  6
  5  9  1  0
  4 10  1  0
  6 11  2  0
  6 12  1  0
  7 13  1  0
  8 14  1  0
  8 15  2  0
 10 16  2  0
 10 17  1  0
 11 18  1  0
 12 19  2  0
 18 19  1  0
 20  9  1  0
 13 20  1  0
 19 21  1  0
 17 22  2  0
 16 23  1  0
 14 24  1  0
 20 25  1  0
 20 26  1  0
 14 27  1  0
 21 28  1  0
 21 29  1  0
 21 30  1  0
 22 31  1  0
 23 31  2  0
 24 32  2  0
 24 33  1  0
 25 34  1  0
 26 35  1  0
 27 36  1  0
 32 37  1  0
 32 38  1  0
 33 39  2  0
 34 40  1  0
 35 40  1  0
 37 41  1  0
 40 42  1  0
 38 43  2  0
 39 43  1  0
 43 44  1  0
 42 45  2  0
 42 46  2  0
 42 47  1  0
 44 48  1  0
 47 49  1  0
 47 50  2  0
 50 51  1  0
 49 52  1  0
 51 52  2  0
 52 53  1  0
M  END
