x2694-x1425-x0540
     RDKit          3D

 59 65  0  0  0  0  0  0  0  0999 V2000
    7.1210   -1.4580   21.8120 C   0  0  2  0  0  0  0  0  0  0  0  0
    6.0830   -2.7300   21.3670 C   0  0  0  0  0  0  0  0  0  0  0  0
    4.7930   -2.9290   21.1150 O   0  0  0  0  0  0  0  0  0  0  0  0
    6.7800   -0.0100   21.6050 C   0  0  1  0  0  0  0  0  0  0  0  0
    6.5680   -2.1750   22.9460 C   0  0  0  0  0  0  0  0  0  0  0  0
    8.4850   -1.4710   22.4840 C   0  0  0  0  0  0  0  0  0  0  0  0
    7.9000    1.1480   21.7480 C   0  0  0  0  0  0  0  0  0  0  0  0
    6.2050    0.3950   20.3110 C   0  0  0  0  0  0  0  0  0  0  0  0
    8.6000   -1.4800   23.8600 N   0  0  0  0  0  0  0  0  0  0  0  0
    9.9110   -1.4530   21.9660 C   0  0  0  0  0  0  0  0  0  0  0  0
    6.8280   -3.9680   21.2640 C   0  0  2  0  0  0  0  0  0  0  0  0
    7.4330   -3.4460   22.6180 C   0  0  2  0  0  0  0  0  0  0  0  0
    7.0620   -3.4640   19.7940 C   0  0  0  0  0  0  0  0  0  0  0  0
    7.6660    2.1630   22.8040 N   0  0  0  0  0  0  0  0  0  0  0  0
    8.8530    1.2050   20.9900 O   0  0  0  0  0  0  0  0  0  0  0  0
    4.8970    1.0690   20.1930 C   0  0  0  0  0  0  0  0  0  0  0  0
    6.8360    0.2150   18.9680 C   0  0  0  0  0  0  0  0  0  0  0  0
    9.9360   -1.4720   24.2520 O   0  0  0  0  0  0  0  0  0  0  0  0
   10.7330   -1.4580   23.0780 C   0  0  0  0  0  0  0  0  0  0  0  0
    7.1880   -4.3490   23.8100 C   0  0  0  0  0  0  0  0  0  0  0  0
    5.9150   -5.2100   21.4890 C   0  0  0  0  0  0  0  0  0  0  0  0
   12.2610   -1.4390   23.0600 C   0  0  0  0  0  0  0  0  0  0  0  0
    4.1300    1.3120   21.3250 C   0  0  0  0  0  0  0  0  0  0  0  0
    6.3870    0.5960   17.7850 N   0  0  0  0  0  0  0  0  0  0  0  0
    4.4360    1.4670   18.9580 C   0  0  0  0  0  0  0  0  0  0  0  0
    8.4550    3.3350   23.1050 C   0  0  0  0  0  0  0  0  0  0  0  0
    5.7330   -4.4440   23.8780 N   0  0  0  0  0  0  0  0  0  0  0  0
    5.0200   -5.0720   22.7400 C   0  0  0  0  0  0  0  0  0  0  0  0
   12.9660   -0.0800   23.1280 C   0  0  0  0  0  0  0  0  0  0  0  0
   12.7760   -2.1310   21.7860 C   0  0  0  0  0  0  0  0  0  0  0  0
   12.7850   -2.2470   24.2770 C   0  0  0  0  0  0  0  0  0  0  0  0
    4.8320    2.0910   22.2520 C   0  0  0  0  0  0  0  0  0  0  0  0
    5.1050    1.2820   17.7550 C   0  0  0  0  0  0  0  0  0  0  0  0
    9.8270    3.1650   23.2950 C   0  0  0  0  0  0  0  0  0  0  0  0
    7.9170    4.6410   23.2160 C   0  0  0  0  0  0  0  0  0  0  0  0
    4.9980   -3.8850   24.9240 C   0  0  0  0  0  0  0  0  0  0  0  0
   10.4030    1.7960   23.1420 C   0  0  0  0  0  0  0  0  0  0  0  0
    3.9290    3.0350   22.8690 N   0  0  0  0  0  0  0  0  0  0  0  0
   10.5810    4.2630   23.6060 C   0  0  0  0  0  0  0  0  0  0  0  0
    8.7040    5.7480   23.5230 C   0  0  0  0  0  0  0  0  0  0  0  0
    5.6340   -2.9250   25.7470 C   0  0  0  0  0  0  0  0  0  0  0  0
    3.6710   -4.2640   25.1480 C   0  0  0  0  0  0  0  0  0  0  0  0
    2.8180    2.5000   23.6310 C   0  0  0  0  0  0  0  0  0  0  0  0
   10.0450    5.5270   23.7220 C   0  0  0  0  0  0  0  0  0  0  0  0
    4.9010   -2.2550   26.9310 C   0  0  0  0  0  0  0  0  0  0  0  0
    2.8820   -3.7580   26.1630 C   0  0  0  0  0  0  0  0  0  0  0  0
   10.9500    6.5130   24.0440 O   0  0  0  0  0  0  0  0  0  0  0  0
    2.8510    1.4890   24.5480 O   0  0  0  0  0  0  0  0  0  0  0  0
    1.6650    3.2810   23.2030 N   0  0  0  0  0  0  0  0  0  0  0  0
    3.4580   -2.7230   27.1140 C   0  0  0  0  0  0  0  0  0  0  0  0
   11.8920    6.2600   25.0800 C   0  0  0  0  0  0  0  0  0  0  0  0
    2.8200   -2.0830   28.2250 O   0  0  0  0  0  0  0  0  0  0  0  0
    0.5020    3.3270   24.0050 C   0  0  0  0  0  0  0  0  0  0  0  0
    1.4200   -2.3000   28.3480 C   0  0  0  0  0  0  0  0  0  0  0  0
    0.4190    4.6160   24.5800 C   0  0  0  0  0  0  0  0  0  0  0  0
   -0.6310    2.8340   23.3480 C   0  0  0  0  0  0  0  0  0  0  0  0
   -0.8260    5.0050   25.1010 C   0  0  0  0  0  0  0  0  0  0  0  0
   -1.8770    3.3450   23.7210 C   0  0  0  0  0  0  0  0  0  0  0  0
   -1.9370    4.6010   24.3390 C   0  0  0  0  0  0  0  0  0  0  0  0
  1  2  1  0
  2  3  2  0
  1  4  1  0
  1  5  1  0
  1  6  1  6
  4  7  1  6
  4  8  1  0
  6  9  2  0
  6 10  1  0
  2 11  1  0
 12  5  1  1
 11 12  1  0
 11 13  1  6
  7 14  1  0
  7 15  2  0
  8 16  1  0
  8 17  2  0
  9 18  1  0
 10 19  2  0
 18 19  1  0
 12 20  1  0
 11 21  1  0
 19 22  1  0
 16 23  1  0
 17 24  1  0
 16 25  2  0
 14 26  1  0
 20 27  1  0
 21 28  1  0
 27 28  1  0
 22 29  1  0
 22 30  1  0
 22 31  1  0
 23 32  1  0
 24 33  2  0
 25 33  1  0
 26 34  2  0
 26 35  1  0
 27 36  1  0
 34 37  1  0
 32 38  1  0
 34 39  1  0
 35 40  2  0
 36 41  2  0
 36 42  1  0
 38 43  1  0
 39 44  2  0
 40 44  1  0
 41 45  1  0
 42 46  2  0
 44 47  1  0
 43 48  2  0
 43 49  1  0
 45 50  2  0
 46 50  1  0
 47 51  1  0
 50 52  1  0
 49 53  1  0
 52 54  1  0
 53 55  1  0
 53 56  1  0
 55 57  1  0
 56 58  1  0
 57 59  1  0
 58 59  1  0
M  END
