x2694-x1308-x0771-x0995-x2703
     RDKit          3D

 61 66  0  0  0  0  0  0  0  0999 V2000
    6.6960   -1.2370   21.9950 C   0  0  1  0  0  0  0  0  0  0  0  0
    5.8530   -2.2460   21.0050 C   0  0  0  0  0  0  0  0  0  0  0  0
    4.6890   -2.8380   21.1810 O   0  0  0  0  0  0  0  0  0  0  0  0
    6.4990    0.2490   21.7110 C   0  0  1  0  0  0  0  0  0  0  0  0
    5.8200   -1.8230   23.0700 C   0  0  0  0  0  0  0  0  0  0  0  0
    8.1640   -1.3760   22.5180 C   0  0  0  0  0  0  0  0  0  0  0  0
    6.3500   -2.6950   19.8050 C   0  0  0  0  0  0  0  0  0  0  0  0
    7.5980    1.3670   21.9150 C   0  0  0  0  0  0  0  0  0  0  0  0
    5.2530   -3.2680   22.6970 C   0  0  0  0  0  0  0  0  0  0  0  0
    6.0160    0.5970   20.3470 C   0  0  0  0  0  0  0  0  0  0  0  0
    8.4630   -1.6700   23.9320 N   0  0  0  0  0  0  0  0  0  0  0  0
    9.6120   -1.2380   21.9120 C   0  0  0  0  0  0  0  0  0  0  0  0
    6.4680   -4.1240   20.2350 C   0  0  0  0  0  0  0  0  0  0  0  0
    7.4120    2.4950   22.7850 N   0  0  0  0  0  0  0  0  0  0  0  0
    8.8010    1.2960   21.1240 O   0  0  0  0  0  0  0  0  0  0  0  0
    4.7730    1.3720   20.2850 C   0  0  0  0  0  0  0  0  0  0  0  0
    6.6850    0.2450   19.2220 C   0  0  0  0  0  0  0  0  0  0  0  0
    9.8690   -1.6970   24.1310 O   0  0  0  0  0  0  0  0  0  0  0  0
   10.6230   -1.4490   23.0040 C   0  0  0  0  0  0  0  0  0  0  0  0
    6.2640   -4.3220   21.9290 C   0  0  2  0  0  0  0  0  0  0  0  0
   12.1550   -1.4290   23.1020 C   0  0  0  0  0  0  0  0  0  0  0  0
    6.3290    0.5470   17.9490 N   0  0  0  0  0  0  0  0  0  0  0  0
    4.3390    1.7330   18.9600 C   0  0  0  0  0  0  0  0  0  0  0  0
    8.4200    3.4600   23.0780 C   0  0  0  0  0  0  0  0  0  0  0  0
    5.5900   -5.6960   22.1610 C   0  0  0  0  0  0  0  0  0  0  0  0
    7.3900   -4.1920   22.7450 C   0  0  0  0  0  0  0  0  0  0  0  0
    6.0350    2.9880   23.0060 C   0  0  0  0  0  0  0  0  0  0  0  0
   12.5400   -0.2700   23.7830 C   0  0  0  0  0  0  0  0  0  0  0  0
   12.8890   -1.4970   21.7440 C   0  0  0  0  0  0  0  0  0  0  0  0
   12.7210   -2.6870   23.7670 C   0  0  0  0  0  0  0  0  0  0  0  0
    3.1190    2.5120   18.8050 N   0  0  0  0  0  0  0  0  0  0  0  0
    5.1970    1.2720   17.8380 C   0  0  0  0  0  0  0  0  0  0  0  0
    9.6430    3.1420   23.6500 C   0  0  0  0  0  0  0  0  0  0  0  0
    8.1450    4.8210   22.7670 C   0  0  0  0  0  0  0  0  0  0  0  0
    5.9000   -6.1950   23.4580 C   0  0  0  0  0  0  0  0  0  0  0  0
    6.9550   -4.1700   24.1100 C   0  0  0  0  0  0  0  0  0  0  0  0
    5.5870    3.7260   21.8960 C   0  0  0  0  0  0  0  0  0  0  0  0
   10.0630    1.7150   24.0350 C   0  0  0  0  0  0  0  0  0  0  0  0
   13.0290   -2.4110   25.1750 C   0  0  0  0  0  0  0  0  0  0  0  0
   10.6400    4.2560   23.9230 C   0  0  0  0  0  0  0  0  0  0  0  0
    9.0360    5.8090   23.0230 C   0  0  0  0  0  0  0  0  0  0  0  0
    6.1820   -5.2630   24.4850 C   0  0  1  0  0  0  0  0  0  0  0  0
    9.2160    1.1350   24.9980 C   0  0  0  0  0  0  0  0  0  0  0  0
    4.8750   -5.2390   25.7630 S   0  0  0  0  0  0  0  0  0  0  0  0
    7.1010   -5.7860   25.9310 S   0  0  0  0  0  0  0  0  0  0  0  0
   10.2540    5.6770   23.5750 C   0  0  0  0  0  0  0  0  0  0  0  0
   11.0380    6.8490   23.7770 O   0  0  0  0  0  0  0  0  0  0  0  0
    4.2900   -6.5660   25.7520 O   0  0  0  0  0  0  0  0  0  0  0  0
    5.5240   -4.8110   26.9920 O   0  0  0  0  0  0  0  0  0  0  0  0
    8.4820   -5.9940   25.6850 O   0  0  0  0  0  0  0  0  0  0  0  0
    6.2720   -6.7220   26.6810 O   0  0  0  0  0  0  0  0  0  0  0  0
    3.5440   -4.1290   25.6980 C   0  0  0  0  0  0  0  0  0  0  0  0
   11.8840    6.8110   24.9220 C   0  0  0  0  0  0  0  0  0  0  0  0
    2.2410   -4.4900   25.2940 C   0  0  0  0  0  0  0  0  0  0  0  0
    3.7920   -2.8520   26.0950 C   0  0  0  0  0  0  0  0  0  0  0  0
    1.8120   -5.8550   24.8320 C   0  0  0  0  0  0  0  0  0  0  0  0
    1.2830   -3.5280   25.3320 C   0  0  0  0  0  0  0  0  0  0  0  0
    2.7540   -1.7610   26.1470 C   0  0  0  0  0  0  0  0  0  0  0  0
    1.4900   -2.1150   25.7640 C   0  0  0  0  0  0  0  0  0  0  0  0
    0.3770   -1.1280   25.7850 C   0  0  0  0  0  0  0  0  0  0  0  0
   -0.1090   -0.9070   27.4000 Cl  0  0  0  0  0  0  0  0  0  0  0  0
  1  2  1  0
  2  3  2  0
  1  4  1  0
  1  5  1  0
  1  6  1  1
  2  7  1  0
  4  8  1  6
  5  9  1  0
  4 10  1  0
  6 11  2  0
  6 12  1  0
  7 13  1  0
  8 14  1  0
  8 15  2  0
 10 16  2  0
 10 17  1  0
 11 18  1  0
 12 19  2  0
 18 19  1  0
 20  9  1  1
 13 20  1  0
 19 21  1  0
 17 22  2  0
 16 23  1  0
 14 24  1  0
 20 25  1  0
 20 26  1  0
 14 27  1  0
 21 28  1  0
 21 29  1  0
 21 30  1  0
 23 31  1  0
 22 32  1  0
 23 32  2  0
 24 33  2  0
 24 34  1  0
 25 35  1  0
 26 36  1  0
 27 37  1  0
 33 38  1  0
 30 39  1  0
 33 40  1  0
 34 41  2  0
 42 35  1  0
 36 42  1  0
 38 43  1  0
 42 44  1  0
 42 45  1  1
 40 46  2  0
 41 46  1  0
 46 47  1  0
 44 48  2  0
 44 49  2  0
 45 50  2  0
 45 51  2  0
 44 52  1  0
 47 53  1  0
 52 54  2  0
 52 55  1  0
 54 56  1  0
 54 57  1  0
 55 58  2  0
 57 59  2  0
 58 59  1  0
 59 60  1  0
 60 61  1  0
M  END
