x2694-x0072
     RDKit          3D

 42 45  0  0  0  0  0  0  0  0999 V2000
    7.1530   -1.6430   21.7280 N   0  0  0  0  0  0  0  0  0  0  0  0
    6.2020   -2.8490   21.4060 C   0  0  0  0  0  0  0  0  0  0  0  0
    4.8820   -3.0230   21.1460 O   0  0  0  0  0  0  0  0  0  0  0  0
    6.7350   -0.1610   21.6260 C   0  0  1  0  0  0  0  0  0  0  0  0
    8.5370   -1.9280   22.2320 C   0  0  2  0  0  0  0  0  0  0  0  0
    6.8880   -4.2140   21.4200 C   0  0  0  0  0  0  0  0  0  0  0  0
    7.7040    1.1780   21.7210 C   0  0  0  0  0  0  0  0  0  0  0  0
    6.3230    0.2600   20.2540 C   0  0  0  0  0  0  0  0  0  0  0  0
    8.5200   -2.0940   23.5920 N   0  0  0  0  0  0  0  0  0  0  0  0
    9.6120   -1.0110   22.0830 C   0  0  0  0  0  0  0  0  0  0  0  0
    6.7510   -3.7230   19.9680 C   0  0  0  0  0  0  0  0  0  0  0  0
    7.4110    2.2700   22.7070 N   0  0  0  0  0  0  0  0  0  0  0  0
    8.6620    1.3500   20.9800 O   0  0  0  0  0  0  0  0  0  0  0  0
    8.1570   -3.4260   24.0500 C   0  0  0  0  0  0  0  0  0  0  0  0
    5.1410    1.1240   20.3240 C   0  0  0  0  0  0  0  0  0  0  0  0
    6.9200   -0.0630   19.0340 C   0  0  0  0  0  0  0  0  0  0  0  0
    9.8520   -2.0280   23.9880 O   0  0  0  0  0  0  0  0  0  0  0  0
   10.6170   -1.2620   23.0290 C   0  0  1  0  0  0  0  0  0  0  0  0
    7.7910   -3.4310   25.4690 N   0  0  0  0  0  0  0  0  0  0  0  0
    6.4010    0.4550   17.7680 N   0  0  0  0  0  0  0  0  0  0  0  0
    4.6410    1.6070   19.1860 C   0  0  0  0  0  0  0  0  0  0  0  0
    8.2620    3.4480   22.9140 C   0  0  0  0  0  0  0  0  0  0  0  0
   11.8880   -2.0840   22.6240 C   0  0  1  0  0  0  0  0  0  0  0  0
   11.0490   -0.1210   23.8720 C   0  0  0  0  0  0  0  0  0  0  0  0
    8.2270   -4.7560   26.4020 S   0  0  0  0  0  0  0  0  0  0  0  0
    5.3250    1.2420   17.8570 C   0  0  0  0  0  0  0  0  0  0  0  0
    9.4380    3.3450   23.6750 C   0  0  0  0  0  0  0  0  0  0  0  0
    7.9580    4.7260   22.3870 C   0  0  0  0  0  0  0  0  0  0  0  0
   12.9150   -1.2590   22.0950 C   0  0  0  0  0  0  0  0  0  0  0  0
   12.3890    0.5840   23.6990 C   0  0  0  0  0  0  0  0  0  0  0  0
   12.3560   -2.8410   23.6900 C   0  0  0  0  0  0  0  0  0  0  0  0
    9.8220    2.0690   24.2660 C   0  0  0  0  0  0  0  0  0  0  0  0
    6.6370   -5.4480   26.7970 C   0  0  0  0  0  0  0  0  0  0  0  0
    8.9990   -5.6900   25.6200 O   0  0  0  0  0  0  0  0  0  0  0  0
    8.7880   -4.2240   27.6110 O   0  0  0  0  0  0  0  0  0  0  0  0
   10.2790    4.4410   23.9010 C   0  0  0  0  0  0  0  0  0  0  0  0
    8.8340    5.7990   22.6540 C   0  0  0  0  0  0  0  0  0  0  0  0
   13.1770   -0.0050   22.6030 C   0  0  0  0  0  0  0  0  0  0  0  0
   12.9960   -2.2030   24.9190 C   0  0  0  0  0  0  0  0  0  0  0  0
   10.0050    5.7100   23.4060 C   0  0  0  0  0  0  0  0  0  0  0  0
   10.9590    6.7420   23.7360 O   0  0  0  0  0  0  0  0  0  0  0  0
   11.8550    6.5130   24.8290 C   0  0  0  0  0  0  0  0  0  0  0  0
  1  2  1  0
  2  3  2  0
  1  4  1  0
  5  1  1  1
  2  6  1  0
  4  7  1  6
  4  8  1  0
  5  9  1  0
  5 10  1  0
  6 11  1  0
  7 12  1  0
  7 13  2  0
  9 14  1  0
  8 15  2  0
  8 16  1  0
  9 17  1  0
 18 10  1  6
 18 17  1  0
 14 19  1  0
 16 20  2  0
 15 21  1  0
 12 22  1  0
 18 23  1  0
 18 24  1  0
 25 19  1  0
 20 26  1  0
 21 26  2  0
 22 27  2  0
 22 28  1  0
 23 29  1  0
 24 30  2  0
 23 31  1  1
 27 32  1  0
 25 33  1  0
 25 34  2  0
 25 35  2  0
 27 36  1  0
 28 37  2  0
 29 38  2  0
 30 38  1  0
 31 39  1  0
 36 40  2  0
 37 40  1  0
 40 41  1  0
 41 42  1  0
M  END
