x2694-x1348-x1458
     RDKit          3D

 49 54  0  0  0  0  0  0  0  0999 V2000
    7.0950   -1.5080   21.5070 N   0  0  0  0  0  0  0  0  0  0  0  0
    6.2160   -2.7370   21.2790 C   0  0  0  0  0  0  0  0  0  0  0  0
    4.9000   -3.0100   21.0200 O   0  0  0  0  0  0  0  0  0  0  0  0
    6.6770   -0.0720   21.5200 C   0  0  1  0  0  0  0  0  0  0  0  0
    8.3940   -1.6340   22.1870 C   0  0  0  0  0  0  0  0  0  0  0  0
    7.0460   -3.9820   21.4580 C   0  0  2  0  0  0  0  0  0  0  0  0
    7.7570    1.1230   21.7420 C   0  0  0  0  0  0  0  0  0  0  0  0
    6.1120    0.4470   20.2020 C   0  0  0  0  0  0  0  0  0  0  0  0
    8.5960   -2.1510   23.4200 N   0  0  0  0  0  0  0  0  0  0  0  0
    9.6500   -1.2650   21.7400 C   0  0  0  0  0  0  0  0  0  0  0  0
    6.7650   -3.8110   19.9660 C   0  0  0  0  0  0  0  0  0  0  0  0
    7.5510    2.1410   22.7870 N   0  0  0  0  0  0  0  0  0  0  0  0
    8.7460    1.2450   21.0360 O   0  0  0  0  0  0  0  0  0  0  0  0
    4.9860    1.2680   20.1280 C   0  0  0  0  0  0  0  0  0  0  0  0
    6.8200    0.0560   19.0780 C   0  0  0  0  0  0  0  0  0  0  0  0
    9.9870   -2.1140   23.7280 O   0  0  0  0  0  0  0  0  0  0  0  0
   10.7500   -1.5730   22.7400 C   0  0  0  0  0  0  0  0  0  0  0  0
    6.2690   -4.8630   22.3700 C   0  0  0  0  0  0  0  0  0  0  0  0
   12.2670   -1.4470   22.8960 C   0  0  0  0  0  0  0  0  0  0  0  0
    6.3860    0.5270   17.7730 N   0  0  0  0  0  0  0  0  0  0  0  0
    4.5730    1.7150   18.8890 C   0  0  0  0  0  0  0  0  0  0  0  0
    8.3460    3.3080   23.0160 C   0  0  0  0  0  0  0  0  0  0  0  0
    6.5630   -4.7340   23.6260 N   0  0  0  0  0  0  0  0  0  0  0  0
    5.0280   -5.9900   21.9220 S   0  0  0  0  0  0  0  0  0  0  0  0
   12.6890   -0.0480   23.2850 C   0  0  0  0  0  0  0  0  0  0  0  0
   12.9220   -1.7990   21.5480 C   0  0  0  0  0  0  0  0  0  0  0  0
   12.8940   -2.4450   23.8890 C   0  0  0  0  0  0  0  0  0  0  0  0
    5.2070    1.4000   17.7100 C   0  0  0  0  0  0  0  0  0  0  0  0
    9.6100    3.1720   23.6330 C   0  0  0  0  0  0  0  0  0  0  0  0
    7.9980    4.6190   22.6830 C   0  0  0  0  0  0  0  0  0  0  0  0
    5.7550   -5.5800   24.4340 C   0  0  0  0  0  0  0  0  0  0  0  0
    4.8120   -6.3620   23.6380 C   0  0  0  0  0  0  0  0  0  0  0  0
   10.2670    1.9150   24.1050 C   0  0  0  0  0  0  0  0  0  0  0  0
   10.4470    4.2920   23.8880 C   0  0  0  0  0  0  0  0  0  0  0  0
    8.9230    5.7950   22.9800 C   0  0  0  0  0  0  0  0  0  0  0  0
    5.9600   -5.5450   25.7590 C   0  0  0  0  0  0  0  0  0  0  0  0
    3.9510   -7.2420   24.5450 C   0  0  0  0  0  0  0  0  0  0  0  0
    6.9620   -4.6910   26.3480 C   0  0  1  0  0  0  0  0  0  0  0  0
   10.1520    5.6340   23.5870 C   0  0  0  0  0  0  0  0  0  0  0  0
    4.1720   -7.2110   26.0740 C   0  0  0  0  0  0  0  0  0  0  0  0
    5.2740   -6.2850   26.6460 C   0  0  0  0  0  0  0  0  0  0  0  0
   11.0400    6.6390   23.8920 O   0  0  0  0  0  0  0  0  0  0  0  0
    7.0650   -5.1290   27.7290 C   0  0  1  0  0  0  0  0  0  0  0  0
    5.8020   -5.9950   28.0240 C   0  0  0  0  0  0  0  0  0  0  0  0
    8.1690   -5.0660   25.4520 C   0  0  0  0  0  0  0  0  0  0  0  0
    6.2920   -3.3210   26.1340 C   0  0  0  0  0  0  0  0  0  0  0  0
   11.8570    6.5040   25.0540 C   0  0  0  0  0  0  0  0  0  0  0  0
    8.3720   -5.9070   27.8980 C   0  0  0  0  0  0  0  0  0  0  0  0
    5.1830   -3.1040   25.3850 O   0  0  0  0  0  0  0  0  0  0  0  0
  1  2  1  0
  2  3  2  0
  1  4  1  0
  1  5  1  0
  2  6  1  0
  4  7  1  6
  4  8  1  0
  5  9  2  0
  5 10  1  0
  6 11  1  6
  7 12  1  0
  7 13  2  0
  8 14  2  0
  8 15  1  0
  9 16  1  0
 10 17  2  0
 16 17  1  0
  6 18  1  0
 17 19  1  0
 15 20  2  0
 14 21  1  0
 12 22  1  0
 18 23  2  0
 18 24  1  0
 19 25  1  0
 19 26  1  0
 19 27  1  0
 20 28  1  0
 21 28  2  0
 22 29  2  0
 22 30  1  0
 23 31  1  0
 24 32  1  0
 31 32  2  0
 29 33  1  0
 29 34  1  0
 30 35  2  0
 31 36  1  0
 32 37  1  0
 36 38  1  0
 34 39  2  0
 35 39  1  0
 37 40  2  0
 36 41  2  0
 40 41  1  0
 39 42  1  0
 38 43  1  0
 41 44  1  0
 43 44  1  0
 38 45  1  6
 38 46  1  0
 42 47  1  0
 43 48  1  6
 46 49  2  0
M  END
