x2694-x3117
     RDKit          3D

 34 36  0  0  0  0  0  0  0  0999 V2000
    7.0980   -1.6200   21.8020 N   0  0  0  0  0  0  0  0  0  0  0  0
    6.2150   -2.8500   21.4880 C   0  0  0  0  0  0  0  0  0  0  0  0
    4.9040   -3.0690   21.1860 O   0  0  0  0  0  0  0  0  0  0  0  0
    6.6970   -0.1720   21.6430 C   0  0  1  0  0  0  0  0  0  0  0  0
    8.3660   -1.7000   22.4980 C   0  0  0  0  0  0  0  0  0  0  0  0
    7.0150   -4.1390   21.5850 C   0  0  0  0  0  0  0  0  0  0  0  0
    7.8430    0.9490   21.9050 C   0  0  0  0  0  0  0  0  0  0  0  0
    6.1460    0.3090   20.2860 C   0  0  0  0  0  0  0  0  0  0  0  0
    8.5630   -1.9920   23.8150 N   0  0  0  0  0  0  0  0  0  0  0  0
    9.6400   -1.4730   21.9710 C   0  0  0  0  0  0  0  0  0  0  0  0
    6.7980   -3.7780   20.0950 C   0  0  0  0  0  0  0  0  0  0  0  0
    7.5760    2.1240   22.7690 N   0  0  0  0  0  0  0  0  0  0  0  0
    8.9360    0.8880   21.3750 O   0  0  0  0  0  0  0  0  0  0  0  0
    5.0040    1.1020   20.1890 C   0  0  0  0  0  0  0  0  0  0  0  0
    6.8770   -0.0700   19.1060 C   0  0  0  0  0  0  0  0  0  0  0  0
    9.9520   -1.9400   24.0740 O   0  0  0  0  0  0  0  0  0  0  0  0
   10.6510   -1.6170   22.9380 C   0  0  0  0  0  0  0  0  0  0  0  0
   12.1960   -1.4850   22.9480 C   0  0  0  0  0  0  0  0  0  0  0  0
    6.3910    0.4130   17.8290 N   0  0  0  0  0  0  0  0  0  0  0  0
    4.5330    1.5630   18.9740 C   0  0  0  0  0  0  0  0  0  0  0  0
    8.4410    3.2530   23.0420 C   0  0  0  0  0  0  0  0  0  0  0  0
   12.6150   -0.0830   23.3380 C   0  0  0  0  0  0  0  0  0  0  0  0
   12.7810   -1.7700   21.5520 C   0  0  0  0  0  0  0  0  0  0  0  0
   13.0080   -2.4800   23.7810 C   0  0  0  0  0  0  0  0  0  0  0  0
    5.1690    1.2600   17.8330 C   0  0  0  0  0  0  0  0  0  0  0  0
    9.7220    3.1680   23.6540 C   0  0  0  0  0  0  0  0  0  0  0  0
    7.9980    4.5570   22.6810 C   0  0  0  0  0  0  0  0  0  0  0  0
   10.2760    1.9210   24.0630 C   0  0  0  0  0  0  0  0  0  0  0  0
   12.4880   -2.6780   25.1510 C   0  0  0  0  0  0  0  0  0  0  0  0
   10.5050    4.3110   23.8860 C   0  0  0  0  0  0  0  0  0  0  0  0
    8.7300    5.7360   22.8920 C   0  0  0  0  0  0  0  0  0  0  0  0
   10.1100    5.6040   23.5590 C   0  0  0  0  0  0  0  0  0  0  0  0
   10.9870    6.6200   23.8620 O   0  0  0  0  0  0  0  0  0  0  0  0
   11.8230    6.4950   25.0160 C   0  0  0  0  0  0  0  0  0  0  0  0
  1  2  1  0
  2  3  2  0
  1  4  1  0
  1  5  1  0
  2  6  1  0
  4  7  1  6
  4  8  1  0
  5  9  2  0
  5 10  1  0
  6 11  1  0
  7 12  1  0
  7 13  2  0
  8 14  2  0
  8 15  1  0
  9 16  1  0
 10 17  2  0
 16 17  1  0
 17 18  1  0
 15 19  2  0
 14 20  1  0
 12 21  1  0
 18 22  1  0
 18 23  1  0
 18 24  1  0
 19 25  1  0
 20 25  2  0
 21 26  2  0
 21 27  1  0
 26 28  1  0
 24 29  1  0
 26 30  1  0
 27 31  2  0
 30 32  2  0
 31 32  1  0
 32 33  1  0
 33 34  1  0
M  END
