x2694-x1311
     RDKit          3D

 49 53  0  0  0  0  0  0  0  0999 V2000
    6.9620   -1.4600   22.0670 C   0  0  1  0  0  0  0  0  0  0  0  0
    6.2730   -2.8070   21.3300 C   0  0  0  0  0  0  0  0  0  0  0  0
    4.9980   -3.1250   20.9500 O   0  0  0  0  0  0  0  0  0  0  0  0
    6.8430    0.0440   21.6180 C   0  0  1  0  0  0  0  0  0  0  0  0
    6.0820   -1.5880   23.3670 C   0  0  0  0  0  0  0  0  0  0  0  0
    8.4700   -1.5410   22.5680 C   0  0  0  0  0  0  0  0  0  0  0  0
    7.3100   -3.9470   21.2560 C   0  0  0  0  0  0  0  0  0  0  0  0
    7.8760    0.9970   21.9840 C   0  0  0  0  0  0  0  0  0  0  0  0
    5.2310   -2.7040   23.4010 C   0  0  0  0  0  0  0  0  0  0  0  0
    6.2940    0.3960   20.2770 C   0  0  0  0  0  0  0  0  0  0  0  0
    8.6430   -1.8280   23.8700 N   0  0  0  0  0  0  0  0  0  0  0  0
    9.7230   -1.3570   22.0110 C   0  0  0  0  0  0  0  0  0  0  0  0
    7.2380   -3.4720   19.8160 C   0  0  0  0  0  0  0  0  0  0  0  0
    7.6820    1.8800   22.7560 N   0  0  0  0  0  0  0  0  0  0  0  0
    8.9680    0.9140   21.4320 O   0  0  0  0  0  0  0  0  0  0  0  0
    5.7890   -4.0770   23.1270 N   0  0  0  0  0  0  0  0  0  0  0  0
    5.1660    1.1880   20.1480 C   0  0  0  0  0  0  0  0  0  0  0  0
    6.8940   -0.0160   19.1240 C   0  0  0  0  0  0  0  0  0  0  0  0
   10.0220   -1.8140   24.1140 O   0  0  0  0  0  0  0  0  0  0  0  0
   10.7220   -1.5180   22.9820 C   0  0  0  0  0  0  0  0  0  0  0  0
   12.2350   -1.4450   23.1100 C   0  0  0  0  0  0  0  0  0  0  0  0
    6.3380    0.4020   17.8280 N   0  0  0  0  0  0  0  0  0  0  0  0
    4.6350    1.5840   18.9440 C   0  0  0  0  0  0  0  0  0  0  0  0
    8.4630    3.1510   22.9790 C   0  0  0  0  0  0  0  0  0  0  0  0
    6.9680   -4.4400   23.8410 C   0  0  0  0  0  0  0  0  0  0  0  0
    4.6780   -4.9490   23.4850 C   0  0  1  0  0  0  0  0  0  0  0  0
   12.6880   -0.0230   23.4040 C   0  0  0  0  0  0  0  0  0  0  0  0
   12.8880   -1.8490   21.7730 C   0  0  0  0  0  0  0  0  0  0  0  0
   12.7090   -2.3870   24.1960 C   0  0  0  0  0  0  0  0  0  0  0  0
    5.2040    1.2140   17.7380 C   0  0  0  0  0  0  0  0  0  0  0  0
    9.7150    3.0840   23.5930 C   0  0  0  0  0  0  0  0  0  0  0  0
    7.9640    4.5440   22.5740 C   0  0  0  0  0  0  0  0  0  0  0  0
    7.7890   -5.6630   23.4450 C   0  0  0  0  0  0  0  0  0  0  0  0
    7.5330   -3.7130   25.0290 C   0  0  0  0  0  0  0  0  0  0  0  0
    4.2690   -5.9510   22.4630 C   0  0  0  0  0  0  0  0  0  0  0  0
    4.7310   -5.6520   24.8150 C   0  0  0  0  0  0  0  0  0  0  0  0
   10.2650    1.7600   24.0190 C   0  0  0  0  0  0  0  0  0  0  0  0
   10.5500    4.2000   23.8670 C   0  0  0  0  0  0  0  0  0  0  0  0
    8.8660    5.6840   22.8910 C   0  0  0  0  0  0  0  0  0  0  0  0
    8.9190   -5.9600   24.1950 C   0  0  0  0  0  0  0  0  0  0  0  0
    8.6870   -4.1070   25.7000 C   0  0  0  0  0  0  0  0  0  0  0  0
    3.3840   -6.7710   24.5620 S   0  0  0  0  0  0  0  0  0  0  0  0
    3.4930   -6.9450   22.9090 C   0  0  0  0  0  0  0  0  0  0  0  0
    3.7520   -7.9900   25.2490 O   0  0  0  0  0  0  0  0  0  0  0  0
    2.1560   -6.1050   24.9360 O   0  0  0  0  0  0  0  0  0  0  0  0
   10.1380    5.5490   23.5270 C   0  0  0  0  0  0  0  0  0  0  0  0
    9.3940   -5.2400   25.2880 C   0  0  0  0  0  0  0  0  0  0  0  0
   10.8860    6.6850   23.7780 O   0  0  0  0  0  0  0  0  0  0  0  0
   11.8570    6.5920   24.8230 C   0  0  0  0  0  0  0  0  0  0  0  0
  1  2  1  0
  2  3  2  0
  1  4  1  0
  1  5  1  1
  1  6  1  0
  2  7  1  0
  4  8  1  6
  5  9  1  0
  4 10  1  0
  6 11  2  0
  6 12  1  0
  7 13  1  0
  8 14  1  0
  8 15  2  0
  9 16  1  0
 10 17  2  0
 10 18  1  0
 11 19  1  0
 12 20  2  0
 19 20  1  0
 20 21  1  0
 18 22  2  0
 17 23  1  0
 14 24  1  0
 16 25  1  0
 26 16  1  6
 21 27  1  0
 21 28  1  0
 21 29  1  0
 22 30  1  0
 23 30  2  0
 24 31  2  0
 24 32  1  0
 25 33  2  0
 25 34  1  0
 26 35  1  0
 26 36  1  0
 31 37  1  0
 31 38  1  0
 32 39  2  0
 33 40  1  0
 34 41  2  0
 36 42  1  0
 35 43  2  0
 42 43  1  0
 42 44  1  0
 42 45  1  0
 38 46  2  0
 39 46  1  0
 40 47  2  0
 41 47  1  0
 46 48  1  0
 48 49  1  0
M  END
