x2694-x3115-x0769-x0540-x2776
     RDKit          3D

 65 71  0  0  0  0  0  0  0  0999 V2000
    6.9930   -1.3150   21.7870 C   0  0  2  0  0  0  0  0  0  0  0  0
    5.7230   -2.3830   21.3330 C   0  0  0  0  0  0  0  0  0  0  0  0
    4.5910   -2.9680   21.6460 O   0  0  0  0  0  0  0  0  0  0  0  0
    6.8230    0.1640   21.5500 C   0  0  1  0  0  0  0  0  0  0  0  0
    7.9070   -2.1140   21.0760 C   0  0  0  0  0  0  0  0  0  0  0  0
    8.1950   -1.3520   22.8640 C   0  0  0  0  0  0  0  0  0  0  0  0
    6.1380   -2.8280   19.9170 C   0  0  0  0  0  0  0  0  0  0  0  0
    7.8320    1.1560   21.7100 C   0  0  0  0  0  0  0  0  0  0  0  0
    7.6380   -3.3720   21.9990 C   0  0  0  0  0  0  0  0  0  0  0  0
    6.2850    0.5530   20.1720 C   0  0  0  0  0  0  0  0  0  0  0  0
    8.2160   -1.3400   24.2430 N   0  0  0  0  0  0  0  0  0  0  0  0
    9.5720   -1.3960   22.5080 C   0  0  0  0  0  0  0  0  0  0  0  0
    6.7270   -4.2610   19.9970 C   0  0  0  0  0  0  0  0  0  0  0  0
    7.7110    2.1460   22.7170 N   0  0  0  0  0  0  0  0  0  0  0  0
    8.8170    1.2210   20.9880 O   0  0  0  0  0  0  0  0  0  0  0  0
    5.0840    1.2370   20.1480 C   0  0  0  0  0  0  0  0  0  0  0  0
    6.9550    0.2470   19.0060 C   0  0  0  0  0  0  0  0  0  0  0  0
    9.5870   -1.3810   24.6580 O   0  0  0  0  0  0  0  0  0  0  0  0
   10.4180   -1.4200   23.5740 C   0  0  0  0  0  0  0  0  0  0  0  0
    6.8210   -4.5470   21.5440 C   0  0  0  0  0  0  0  0  0  0  0  0
   11.9720   -1.4860   23.5550 C   0  0  0  0  0  0  0  0  0  0  0  0
    4.3750    1.5110   21.3160 C   0  0  0  0  0  0  0  0  0  0  0  0
    6.4330    0.6670   17.7330 N   0  0  0  0  0  0  0  0  0  0  0  0
    4.5360    1.6670   18.9420 C   0  0  0  0  0  0  0  0  0  0  0  0
    8.6080    3.2800   23.0120 C   0  0  0  0  0  0  0  0  0  0  0  0
    5.4070   -4.9970   21.8640 C   0  0  0  0  0  0  0  0  0  0  0  0
    7.5350   -5.6530   22.3620 C   0  0  0  0  0  0  0  0  0  0  0  0
   12.5220   -0.2830   24.0200 C   0  0  0  0  0  0  0  0  0  0  0  0
   12.5740   -1.6430   22.1210 C   0  0  0  0  0  0  0  0  0  0  0  0
   12.2720   -2.6670   24.2440 C   0  0  0  0  0  0  0  0  0  0  0  0
    5.0350    2.3850   22.1780 C   0  0  0  0  0  0  0  0  0  0  0  0
    5.1670    1.4220   17.7290 C   0  0  0  0  0  0  0  0  0  0  0  0
    9.8030    3.1040   23.6710 C   0  0  0  0  0  0  0  0  0  0  0  0
    8.2240    4.5650   22.6120 C   0  0  0  0  0  0  0  0  0  0  0  0
    4.8610   -4.8490   23.1280 C   0  0  0  0  0  0  0  0  0  0  0  0
    7.2460   -5.4080   23.7510 C   0  0  0  0  0  0  0  0  0  0  0  0
   10.2610    1.8270   24.1060 C   0  0  0  0  0  0  0  0  0  0  0  0
   13.4480   -2.6300   25.2140 C   0  0  0  0  0  0  0  0  0  0  0  0
    4.0800    3.2110   22.7900 N   0  0  0  0  0  0  0  0  0  0  0  0
   10.6750    4.3470   23.9450 C   0  0  0  0  0  0  0  0  0  0  0  0
    8.9490    5.7490   22.8210 C   0  0  0  0  0  0  0  0  0  0  0  0
    5.7680   -5.4410   24.0990 N   0  0  0  0  0  0  0  0  0  0  0  0
    8.3640    7.0310   22.3080 C   0  0  0  0  0  0  0  0  0  0  0  0
    2.9470    2.6400   23.4890 C   0  0  0  0  0  0  0  0  0  0  0  0
    5.1680   -5.4660   25.7070 S   0  0  0  0  0  0  0  0  0  0  0  0
   10.1940    5.7390   23.4930 C   0  0  0  0  0  0  0  0  0  0  0  0
   10.8620    6.9130   23.6880 O   0  0  0  0  0  0  0  0  0  0  0  0
    3.0380    1.7600   24.3410 O   0  0  0  0  0  0  0  0  0  0  0  0
    1.7910    3.2020   23.0890 N   0  0  0  0  0  0  0  0  0  0  0  0
    5.9910   -5.2770   26.8720 O   0  0  0  0  0  0  0  0  0  0  0  0
    4.2720   -6.5980   25.7300 O   0  0  0  0  0  0  0  0  0  0  0  0
    4.0600   -4.0190   25.7990 C   0  0  0  0  0  0  0  0  0  0  0  0
   11.8650    6.8960   24.7060 C   0  0  0  0  0  0  0  0  0  0  0  0
    0.5780    3.2250   23.9550 C   0  0  0  0  0  0  0  0  0  0  0  0
    4.4620   -2.6480   26.0680 C   0  0  0  0  0  0  0  0  0  0  0  0
    2.5520   -4.2080   25.5870 C   0  0  0  0  0  0  0  0  0  0  0  0
    5.7420   -2.3300   26.2770 F   0  0  0  0  0  0  0  0  0  0  0  0
    0.5510    4.4930   24.5710 C   0  0  0  0  0  0  0  0  0  0  0  0
   -0.5320    3.0130   23.1240 C   0  0  0  0  0  0  0  0  0  0  0  0
    1.6310   -3.1670   25.6470 C   0  0  0  0  0  0  0  0  0  0  0  0
    3.4100   -1.4970   26.1300 C   0  0  0  0  0  0  0  0  0  0  0  0
   -0.7970    4.9680   25.1160 C   0  0  0  0  0  0  0  0  0  0  0  0
   -1.7160    3.2680   23.8210 C   0  0  0  0  0  0  0  0  0  0  0  0
    2.0590   -1.7300   25.9330 C   0  0  0  0  0  0  0  0  0  0  0  0
   -1.8290    4.5900   24.2650 C   0  0  0  0  0  0  0  0  0  0  0  0
  1  2  1  0
  2  3  2  0
  1  4  1  0
  1  5  1  0
  1  6  1  1
  2  7  1  0
  4  8  1  6
  5  9  1  0
  4 10  1  0
  6 11  2  0
  6 12  1  0
  7 13  1  0
  8 14  1  0
  8 15  2  0
 10 16  1  0
 10 17  2  0
 11 18  1  0
 12 19  2  0
 18 19  1  0
 20  9  1  0
 13 20  1  0
 19 21  1  0
 16 22  1  0
 17 23  1  0
 16 24  2  0
 14 25  1  0
 20 26  1  0
 20 27  1  0
 21 28  1  0
 21 29  1  0
 21 30  1  0
 22 31  1  0
 23 32  2  0
 24 32  1  0
 25 33  2  0
 25 34  1  0
 26 35  1  0
 27 36  1  0
 33 37  1  0
 30 38  1  0
 31 39  1  0
 33 40  1  0
 34 41  2  0
 35 42  1  0
 36 42  1  0
 41 43  1  0
 39 44  1  0
 42 45  1  0
 40 46  2  0
 41 46  1  0
 46 47  1  0
 44 48  2  0
 44 49  1  0
 45 50  2  0
 45 51  2  0
 45 52  1  0
 47 53  1  0
 49 54  1  0
 52 55  2  0
 52 56  1  0
 55 57  1  0
 54 58  1  0
 54 59  1  0
 56 60  2  0
 55 61  1  0
 58 62  1  0
 59 63  1  0
 60 64  1  0
 61 64  2  0
 62 65  1  0
 63 65  1  0
M  END
