x2694-x0540-x0769
     RDKit          3D

 63 69  0  0  0  0  0  0  0  0999 V2000
    6.9480   -1.3380   21.9220 C   0  0  1  0  0  0  0  0  0  0  0  0
    5.7610   -2.3850   21.2100 C   0  0  0  0  0  0  0  0  0  0  0  0
    4.5760   -2.8780   21.5390 O   0  0  0  0  0  0  0  0  0  0  0  0
    6.7790    0.1290   21.5130 C   0  0  1  0  0  0  0  0  0  0  0  0
    7.7950   -2.2010   21.1410 C   0  0  0  0  0  0  0  0  0  0  0  0
    8.3360   -1.4120   22.8140 C   0  0  0  0  0  0  0  0  0  0  0  0
    5.9480   -2.9700   19.8910 C   0  0  0  0  0  0  0  0  0  0  0  0
    7.8520    1.2280   21.8620 C   0  0  0  0  0  0  0  0  0  0  0  0
    7.7140   -3.3470   22.0100 C   0  0  0  0  0  0  0  0  0  0  0  0
    6.2350    0.5540   20.1970 C   0  0  0  0  0  0  0  0  0  0  0  0
    8.4500   -1.5790   24.2930 N   0  0  0  0  0  0  0  0  0  0  0  0
    9.6530   -1.3200   22.3500 C   0  0  0  0  0  0  0  0  0  0  0  0
    6.6030   -4.3510   20.0450 C   0  0  0  0  0  0  0  0  0  0  0  0
    7.7590    2.1060   22.8900 N   0  0  0  0  0  0  0  0  0  0  0  0
    8.8780    1.2580   20.9870 O   0  0  0  0  0  0  0  0  0  0  0  0
    5.0570    1.2450   20.1270 C   0  0  0  0  0  0  0  0  0  0  0  0
    6.9060    0.2690   19.0380 C   0  0  0  0  0  0  0  0  0  0  0  0
    9.8660   -1.5690   24.5170 O   0  0  0  0  0  0  0  0  0  0  0  0
   10.6180   -1.4150   23.3550 C   0  0  0  0  0  0  0  0  0  0  0  0
    6.7750   -4.5580   21.6030 C   0  0  0  0  0  0  0  0  0  0  0  0
   12.1580   -1.3810   23.4140 C   0  0  0  0  0  0  0  0  0  0  0  0
    4.3380    1.5160   21.2800 C   0  0  0  0  0  0  0  0  0  0  0  0
    6.4490    0.6890   17.7230 N   0  0  0  0  0  0  0  0  0  0  0  0
    4.5930    1.6620   18.9030 C   0  0  0  0  0  0  0  0  0  0  0  0
    8.5650    3.3430   23.1090 C   0  0  0  0  0  0  0  0  0  0  0  0
    5.4800   -4.6670   22.1920 C   0  0  0  0  0  0  0  0  0  0  0  0
    7.4550   -5.7090   22.3440 C   0  0  0  0  0  0  0  0  0  0  0  0
   12.5640   -2.0770   24.5500 C   0  0  0  0  0  0  0  0  0  0  0  0
   12.6950   -1.8540   22.0830 C   0  0  0  0  0  0  0  0  0  0  0  0
   12.5920   -0.0660   23.4860 C   0  0  0  0  0  0  0  0  0  0  0  0
    4.9290    2.4240   22.1470 C   0  0  0  0  0  0  0  0  0  0  0  0
    5.2020    1.4490   17.6910 C   0  0  0  0  0  0  0  0  0  0  0  0
    9.8000    3.1970   23.6930 C   0  0  0  0  0  0  0  0  0  0  0  0
    8.1300    4.6450   22.7550 C   0  0  0  0  0  0  0  0  0  0  0  0
    5.1190   -5.6560   23.1080 C   0  0  0  0  0  0  0  0  0  0  0  0
    7.2800   -5.4380   23.8670 C   0  0  0  0  0  0  0  0  0  0  0  0
   10.3330    1.9310   24.0860 C   0  0  0  0  0  0  0  0  0  0  0  0
    4.0930    3.2130   22.8230 N   0  0  0  0  0  0  0  0  0  0  0  0
   10.5920    4.4380   23.9110 C   0  0  0  0  0  0  0  0  0  0  0  0
    8.9360    5.7850   22.9990 C   0  0  0  0  0  0  0  0  0  0  0  0
    5.8150   -5.3410   24.1840 N   0  0  0  0  0  0  0  0  0  0  0  0
    2.9680    2.6790   23.4750 C   0  0  0  0  0  0  0  0  0  0  0  0
    5.0950   -5.3930   25.7580 S   0  0  0  0  0  0  0  0  0  0  0  0
   10.1750    5.7160   23.5800 C   0  0  0  0  0  0  0  0  0  0  0  0
   11.0340    6.7630   23.8670 O   0  0  0  0  0  0  0  0  0  0  0  0
    3.0100    1.7730   24.3090 O   0  0  0  0  0  0  0  0  0  0  0  0
    1.8170    3.2680   23.0930 N   0  0  0  0  0  0  0  0  0  0  0  0
    5.8620   -5.0900   26.9420 O   0  0  0  0  0  0  0  0  0  0  0  0
    4.3700   -6.6430   25.7590 O   0  0  0  0  0  0  0  0  0  0  0  0
    3.8640   -4.1460   25.7510 C   0  0  0  0  0  0  0  0  0  0  0  0
   11.8570    6.6320   25.0500 C   0  0  0  0  0  0  0  0  0  0  0  0
    0.6190    3.2860   23.9590 C   0  0  0  0  0  0  0  0  0  0  0  0
    4.4680   -2.7600   26.0460 C   0  0  0  0  0  0  0  0  0  0  0  0
    2.4790   -4.2690   25.5290 C   0  0  0  0  0  0  0  0  0  0  0  0
    5.7750   -2.5770   26.2680 F   0  0  0  0  0  0  0  0  0  0  0  0
    0.5490    4.6000   24.7470 C   0  0  0  0  0  0  0  0  0  0  0  0
   -0.6460    2.9530   23.1840 C   0  0  0  0  0  0  0  0  0  0  0  0
    1.6400   -3.1520   25.5750 C   0  0  0  0  0  0  0  0  0  0  0  0
    3.6270   -1.6280   26.0930 C   0  0  0  0  0  0  0  0  0  0  0  0
   -0.7920    4.8760   25.1640 C   0  0  0  0  0  0  0  0  0  0  0  0
   -1.8070    3.3700   23.7320 C   0  0  0  0  0  0  0  0  0  0  0  0
    2.2550   -1.7460   25.8770 C   0  0  0  0  0  0  0  0  0  0  0  0
   -1.6260    4.6640   24.1110 C   0  0  0  0  0  0  0  0  0  0  0  0
  1  2  1  0
  2  3  2  0
  1  4  1  0
  1  5  1  0
  1  6  1  1
  2  7  1  0
  4  8  1  6
  5  9  1  0
  4 10  1  0
  6 11  2  0
  6 12  1  0
  7 13  1  0
  8 14  1  0
  8 15  2  0
 10 16  1  0
 10 17  2  0
 11 18  1  0
 12 19  2  0
 18 19  1  0
 20  9  1  0
 13 20  1  0
 19 21  1  0
 16 22  1  0
 17 23  1  0
 16 24  2  0
 14 25  1  0
 20 26  1  0
 20 27  1  0
 21 28  1  0
 21 29  1  0
 21 30  1  0
 22 31  1  0
 23 32  2  0
 24 32  1  0
 25 33  2  0
 25 34  1  0
 26 35  1  0
 27 36  1  0
 33 37  1  0
 31 38  1  0
 33 39  1  0
 34 40  2  0
 35 41  1  0
 36 41  1  0
 38 42  1  0
 41 43  1  0
 39 44  2  0
 40 44  1  0
 44 45  1  0
 42 46  2  0
 42 47  1  0
 43 48  2  0
 43 49  2  0
 43 50  1  0
 45 51  1  0
 47 52  1  0
 50 53  2  0
 50 54  1  0
 53 55  1  0
 52 56  1  0
 52 57  1  0
 54 58  2  0
 53 59  1  0
 56 60  1  0
 57 61  1  0
 58 62  1  0
 59 62  2  0
 60 63  1  0
 61 63  1  0
M  END
