x2694-x2705
     RDKit          3D

 36 38  0  0  0  0  0  0  0  0999 V2000
    7.0450   -1.2830   21.7510 N   0  0  0  0  0  0  0  0  0  0  0  0
    5.8510   -2.2150   21.5350 C   0  0  0  0  0  0  0  0  0  0  0  0
    4.9800   -3.2450   21.3040 O   0  0  0  0  0  0  0  0  0  0  0  0
    6.7380    0.1830   21.6150 C   0  0  1  0  0  0  0  0  0  0  0  0
    8.3030   -1.5170   22.5560 C   0  0  0  0  0  0  0  0  0  0  0  0
    6.8750   -3.3210   21.3200 C   0  0  0  0  0  0  0  0  0  0  0  0
    7.8370    1.2720   21.8020 C   0  0  0  0  0  0  0  0  0  0  0  0
    6.2610    0.5450   20.2510 C   0  0  0  0  0  0  0  0  0  0  0  0
    8.4080   -1.9620   23.9570 N   0  0  0  0  0  0  0  0  0  0  0  0
    9.6010   -1.3310   22.1460 C   0  0  0  0  0  0  0  0  0  0  0  0
    6.6510   -3.9900   19.9680 C   0  0  0  0  0  0  0  0  0  0  0  0
    7.5710    2.3520   22.6300 N   0  0  0  0  0  0  0  0  0  0  0  0
    8.9040    1.2480   21.1880 O   0  0  0  0  0  0  0  0  0  0  0  0
    5.1390    1.3690   20.2520 C   0  0  0  0  0  0  0  0  0  0  0  0
    6.8540    0.1400   19.0620 C   0  0  0  0  0  0  0  0  0  0  0  0
    9.8150   -1.9760   24.2040 O   0  0  0  0  0  0  0  0  0  0  0  0
   10.5720   -1.5880   23.1010 C   0  0  0  0  0  0  0  0  0  0  0  0
   12.0970   -1.5430   23.2140 C   0  0  0  0  0  0  0  0  0  0  0  0
    6.3600    0.5650   17.7390 N   0  0  0  0  0  0  0  0  0  0  0  0
    4.5270    1.8790   18.9640 C   0  0  0  0  0  0  0  0  0  0  0  0
    8.4630    3.4400   22.8950 C   0  0  0  0  0  0  0  0  0  0  0  0
    6.2760    2.7510   23.0520 C   0  0  0  0  0  0  0  0  0  0  0  0
   12.6220   -0.1090   23.4630 C   0  0  0  0  0  0  0  0  0  0  0  0
   12.7700   -2.0370   21.9110 C   0  0  0  0  0  0  0  0  0  0  0  0
   12.5960   -2.4470   24.3690 C   0  0  0  0  0  0  0  0  0  0  0  0
    5.1850    1.4550   17.6700 C   0  0  0  0  0  0  0  0  0  0  0  0
    9.8090    3.1920   23.5750 C   0  0  0  0  0  0  0  0  0  0  0  0
    8.0830    4.8910   22.5050 C   0  0  0  0  0  0  0  0  0  0  0  0
    5.6560    3.6360   22.1550 C   0  0  0  0  0  0  0  0  0  0  0  0
   10.2050    1.7900   23.9660 C   0  0  0  0  0  0  0  0  0  0  0  0
   10.7150    4.4010   23.8400 C   0  0  0  0  0  0  0  0  0  0  0  0
    9.0120    6.0680   22.7980 C   0  0  0  0  0  0  0  0  0  0  0  0
    9.2460    1.1050   24.9570 C   0  0  0  0  0  0  0  0  0  0  0  0
   10.3340    5.8220   23.4750 C   0  0  0  0  0  0  0  0  0  0  0  0
   11.2610    6.7690   23.8080 O   0  0  0  0  0  0  0  0  0  0  0  0
   11.8670    6.6440   25.0930 C   0  0  0  0  0  0  0  0  0  0  0  0
  1  2  1  0
  2  3  2  0
  1  4  1  0
  1  5  1  0
  2  6  1  0
  4  7  1  6
  4  8  1  0
  5  9  2  0
  5 10  1  0
  6 11  1  0
  7 12  1  0
  7 13  2  0
  8 14  2  0
  8 15  1  0
  9 16  1  0
 10 17  2  0
 16 17  1  0
 17 18  1  0
 15 19  2  0
 14 20  1  0
 12 21  1  0
 12 22  1  0
 18 23  1  0
 18 24  1  0
 18 25  1  0
 19 26  1  0
 20 26  2  0
 21 27  2  0
 21 28  1  0
 22 29  1  0
 27 30  1  0
 27 31  1  0
 28 32  2  0
 30 33  1  0
 31 34  2  0
 32 34  1  0
 34 35  1  0
 35 36  1  0
M  END
