x2694-x3115-x1308-x0995-x1358
     RDKit          3D

 66 73  0  0  0  0  0  0  0  0999 V2000
    7.0260   -1.4100   21.7610 C   0  0  1  0  0  0  0  0  0  0  0  0
    6.1610   -2.7780   21.2780 C   0  0  0  0  0  0  0  0  0  0  0  0
    4.9400   -3.0340   20.7810 O   0  0  0  0  0  0  0  0  0  0  0  0
    6.7650    0.0780   21.5750 C   0  0  1  0  0  0  0  0  0  0  0  0
    6.4160   -1.8830   23.0130 C   0  0  0  0  0  0  0  0  0  0  0  0
    8.4940   -1.4090   22.4570 C   0  0  0  0  0  0  0  0  0  0  0  0
    7.8600    0.9660   21.8280 C   0  0  0  0  0  0  0  0  0  0  0  0
    6.1370    0.5260   20.2900 C   0  0  0  0  0  0  0  0  0  0  0  0
    8.6910   -1.3090   23.9140 N   0  0  0  0  0  0  0  0  0  0  0  0
    9.9190   -1.4760   21.9460 C   0  0  0  0  0  0  0  0  0  0  0  0
    6.9810   -3.9060   21.6880 C   0  0  2  0  0  0  0  0  0  0  0  0
    7.1040   -3.3010   23.1340 C   0  0  2  0  0  0  0  0  0  0  0  0
    8.3370   -4.1150   20.9530 C   0  0  0  0  0  0  0  0  0  0  0  0
    7.5490    2.1270   22.7540 N   0  0  0  0  0  0  0  0  0  0  0  0
    8.9660    0.8430   21.3150 O   0  0  0  0  0  0  0  0  0  0  0  0
    4.8920    1.3280   20.1780 C   0  0  0  0  0  0  0  0  0  0  0  0
    6.8250    0.1560   19.0260 C   0  0  0  0  0  0  0  0  0  0  0  0
   10.1170   -1.3250   24.1940 O   0  0  0  0  0  0  0  0  0  0  0  0
   10.8810   -1.4200   23.0540 C   0  0  0  0  0  0  0  0  0  0  0  0
    6.2320   -5.1740   21.6620 N   0  0  0  0  0  0  0  0  0  0  0  0
    6.4000   -3.9370   24.3060 C   0  0  0  0  0  0  0  0  0  0  0  0
   12.3710   -1.4380   23.1620 C   0  0  0  0  0  0  0  0  0  0  0  0
    6.3310    0.5660   17.7150 N   0  0  0  0  0  0  0  0  0  0  0  0
    4.4110    1.7130   19.0210 C   0  0  0  0  0  0  0  0  0  0  0  0
    8.4150    3.2500   23.0040 C   0  0  0  0  0  0  0  0  0  0  0  0
    7.2010   -6.2020   21.9350 C   0  0  0  0  0  0  0  0  0  0  0  0
    5.9710   -5.3140   24.0110 C   0  0  2  0  0  0  0  0  0  0  0  0
    5.2660   -5.2870   22.6720 C   0  0  2  0  0  0  0  0  0  0  0  0
   12.7870   -0.3090   23.8540 C   0  0  0  0  0  0  0  0  0  0  0  0
   12.8940   -1.5870   21.8630 C   0  0  0  0  0  0  0  0  0  0  0  0
   12.8190   -2.6920   23.9480 C   0  0  0  0  0  0  0  0  0  0  0  0
    3.3000    2.4360   18.8450 N   0  0  0  0  0  0  0  0  0  0  0  0
    5.1890    1.3030   17.7780 C   0  0  0  0  0  0  0  0  0  0  0  0
    9.6440    3.1150   23.6470 C   0  0  0  0  0  0  0  0  0  0  0  0
    8.0640    4.6450   22.5900 C   0  0  0  0  0  0  0  0  0  0  0  0
    5.0060   -6.1060   24.7610 N   0  0  0  0  0  0  0  0  0  0  0  0
    4.5000   -6.5700   22.8420 C   0  0  0  0  0  0  0  0  0  0  0  0
   10.1930    1.8850   24.1290 C   0  0  0  0  0  0  0  0  0  0  0  0
   13.4620   -2.4560   25.3220 C   0  0  0  0  0  0  0  0  0  0  0  0
    4.6300   -6.0700   26.3710 S   0  0  0  0  0  0  0  0  0  0  0  0
   10.4900    4.2010   23.8950 C   0  0  0  0  0  0  0  0  0  0  0  0
    8.9330    5.7140   22.8560 C   0  0  0  0  0  0  0  0  0  0  0  0
    3.8090   -6.2010   23.9270 C   0  0  0  0  0  0  0  0  0  0  0  0
    8.5040    7.1080   22.3970 C   0  0  0  0  0  0  0  0  0  0  0  0
    5.9040   -5.7770   27.0040 O   0  0  0  0  0  0  0  0  0  0  0  0
    3.9250   -7.2800   26.6780 O   0  0  0  0  0  0  0  0  0  0  0  0
   10.1530    5.4970   23.5190 C   0  0  0  0  0  0  0  0  0  0  0  0
    3.4910   -4.7000   26.3310 C   0  0  0  0  0  0  0  0  0  0  0  0
   10.9240    6.6160   23.7440 O   0  0  0  0  0  0  0  0  0  0  0  0
    3.9770   -3.5880   26.8670 C   0  0  0  0  0  0  0  0  0  0  0  0
    2.2180   -4.7080   25.8120 C   0  0  0  0  0  0  0  0  0  0  0  0
   11.8620    6.5730   24.8200 C   0  0  0  0  0  0  0  0  0  0  0  0
    5.2380   -3.7650   27.3390 N   0  0  0  0  0  0  0  0  0  0  0  0
    3.2340   -2.3770   26.9360 C   0  0  0  0  0  0  0  0  0  0  0  0
    1.4380   -3.5530   25.8530 C   0  0  0  0  0  0  0  0  0  0  0  0
    6.4200   -3.0540   27.0050 C   0  0  0  0  0  0  0  0  0  0  0  0
    1.9350   -2.3630   26.4240 C   0  0  0  0  0  0  0  0  0  0  0  0
    0.9630   -0.9570   26.4890 Cl  0  0  0  0  0  0  0  0  0  0  0  0
    6.6380   -2.0420   26.2720 N   0  0  0  0  0  0  0  0  0  0  0  0
    6.6060   -0.9340   27.0600 C   0  0  0  0  0  0  0  0  0  0  0  0
    5.8450    0.2860   26.6280 C   0  0  0  0  0  0  0  0  0  0  0  0
    7.2490   -0.9310   28.2790 C   0  0  0  0  0  0  0  0  0  0  0  0
    5.2060    0.2660   25.4070 O   0  0  0  0  0  0  0  0  0  0  0  0
    7.1930    0.1660   29.0990 C   0  0  0  0  0  0  0  0  0  0  0  0
    5.8040    1.3940   27.4850 C   0  0  0  0  0  0  0  0  0  0  0  0
    6.4850    1.2830   28.6970 C   0  0  0  0  0  0  0  0  0  0  0  0
  1  2  1  0
  2  3  2  0
  1  4  1  0
  1  5  1  0
  1  6  1  1
  4  7  1  6
  4  8  1  0
  6  9  2  0
  6 10  1  0
  2 11  1  0
 12  5  1  6
 11 12  1  0
 11 13  1  6
  7 14  1  0
  7 15  2  0
  8 16  2  0
  8 17  1  0
  9 18  1  0
 10 19  2  0
 18 19  1  0
 11 20  1  0
 12 21  1  0
 19 22  1  0
 17 23  2  0
 16 24  1  0
 14 25  1  0
 20 26  1  0
 27 21  1  1
 20 28  1  0
 27 28  1  0
 22 29  1  0
 22 30  1  0
 22 31  1  0
 24 32  1  0
 23 33  1  0
 24 33  2  0
 25 34  2  0
 25 35  1  0
 27 36  1  0
 28 37  1  6
 34 38  1  0
 31 39  1  0
 36 40  1  0
 34 41  1  0
 35 42  2  0
 36 43  1  0
 37 43  1  0
 42 44  1  0
 40 45  2  0
 40 46  2  0
 41 47  2  0
 42 47  1  0
 40 48  1  0
 47 49  1  0
 48 50  1  0
 48 51  2  0
 49 52  1  0
 50 53  1  0
 50 54  2  0
 51 55  1  0
 53 56  2  3
 54 57  1  0
 55 57  2  0
 57 58  1  0
 56 59  1  0
 59 60  1  0
 60 61  2  0
 60 62  1  0
 61 63  1  0
 62 64  2  0
 61 65  1  0
 64 66  1  0
 65 66  2  0
M  END
