x2694-x2643
     RDKit          3D

 33 35  0  0  0  0  0  0  0  0999 V2000
    7.0470   -1.4970   21.8380 N   0  0  0  0  0  0  0  0  0  0  0  0
    6.1650   -2.7380   21.5670 C   0  0  0  0  0  0  0  0  0  0  0  0
    4.8510   -3.0100   21.2280 O   0  0  0  0  0  0  0  0  0  0  0  0
    6.6670   -0.0320   21.6660 C   0  0  1  0  0  0  0  0  0  0  0  0
    8.2870   -1.5570   22.5480 C   0  0  0  0  0  0  0  0  0  0  0  0
    6.9320   -4.0190   21.7060 C   0  0  0  0  0  0  0  0  0  0  0  0
    7.7630    1.0790   21.8410 C   0  0  0  0  0  0  0  0  0  0  0  0
    6.3070    0.3270   20.3150 C   0  0  0  0  0  0  0  0  0  0  0  0
    8.4310   -1.6840   24.0270 N   0  0  0  0  0  0  0  0  0  0  0  0
    9.5820   -1.4980   22.0630 C   0  0  0  0  0  0  0  0  0  0  0  0
    6.7940   -4.7980   20.4100 C   0  0  0  0  0  0  0  0  0  0  0  0
    7.6170    2.0200   22.8430 N   0  0  0  0  0  0  0  0  0  0  0  0
    8.7370    1.1790   21.0870 O   0  0  0  0  0  0  0  0  0  0  0  0
    5.1150    1.2860   20.2080 C   0  0  0  0  0  0  0  0  0  0  0  0
    6.8640   -0.0310   19.1010 C   0  0  0  0  0  0  0  0  0  0  0  0
    9.8250   -1.6880   24.2530 O   0  0  0  0  0  0  0  0  0  0  0  0
   10.5580   -1.5790   23.0830 C   0  0  0  0  0  0  0  0  0  0  0  0
   12.0940   -1.5780   23.2120 C   0  0  0  0  0  0  0  0  0  0  0  0
    6.3840    0.4650   17.7890 N   0  0  0  0  0  0  0  0  0  0  0  0
    4.6060    1.8010   18.8710 C   0  0  0  0  0  0  0  0  0  0  0  0
    8.4120    3.2290   23.0570 C   0  0  0  0  0  0  0  0  0  0  0  0
   12.3990   -0.0960   23.5280 C   0  0  0  0  0  0  0  0  0  0  0  0
   12.8070   -1.9460   21.8910 C   0  0  0  0  0  0  0  0  0  0  0  0
   12.6310   -2.4790   24.3520 C   0  0  0  0  0  0  0  0  0  0  0  0
    5.2340    1.3990   17.7150 C   0  0  0  0  0  0  0  0  0  0  0  0
    9.6580    3.0880   23.6800 C   0  0  0  0  0  0  0  0  0  0  0  0
    7.9240    4.6220   22.6290 C   0  0  0  0  0  0  0  0  0  0  0  0
   10.1440    1.8180   24.0950 C   0  0  0  0  0  0  0  0  0  0  0  0
   10.4900    4.1840   23.9290 C   0  0  0  0  0  0  0  0  0  0  0  0
    8.8610    5.7980   22.9310 C   0  0  0  0  0  0  0  0  0  0  0  0
   10.0930    5.6040   23.5580 C   0  0  0  0  0  0  0  0  0  0  0  0
   10.8850    6.6870   23.8100 O   0  0  0  0  0  0  0  0  0  0  0  0
   11.8560    6.5650   24.8500 C   0  0  0  0  0  0  0  0  0  0  0  0
  1  2  1  0
  2  3  2  0
  1  4  1  0
  1  5  1  0
  2  6  1  0
  4  7  1  6
  4  8  1  0
  5  9  2  0
  5 10  1  0
  6 11  1  0
  7 12  1  0
  7 13  2  0
  8 14  2  0
  8 15  1  0
  9 16  1  0
 10 17  2  0
 16 17  1  0
 17 18  1  0
 15 19  2  0
 14 20  1  0
 12 21  1  0
 18 22  1  0
 18 23  1  0
 18 24  1  0
 19 25  1  0
 20 25  2  0
 21 26  2  0
 21 27  1  0
 26 28  1  0
 26 29  1  0
 27 30  2  0
 29 31  2  0
 30 31  1  0
 31 32  1  0
 32 33  1  0
M  END
