x2694-x1402
     RDKit          3D

 50 55  0  0  0  0  0  0  0  0999 V2000
    6.8030   -1.3070   21.9220 C   0  0  1  0  0  0  0  0  0  0  0  0
    5.9810   -2.3000   20.9130 C   0  0  0  0  0  0  0  0  0  0  0  0
    4.8770   -3.0120   21.0260 O   0  0  0  0  0  0  0  0  0  0  0  0
    6.7150    0.2290   21.6000 C   0  0  1  0  0  0  0  0  0  0  0  0
    5.8090   -1.7840   22.9850 C   0  0  0  0  0  0  0  0  0  0  0  0
    8.2860   -1.4630   22.4880 C   0  0  0  0  0  0  0  0  0  0  0  0
    6.5680   -2.3230   19.6040 C   0  0  0  0  0  0  0  0  0  0  0  0
    7.7760    1.1690   21.9160 C   0  0  0  0  0  0  0  0  0  0  0  0
    5.4560   -3.1440   22.7170 C   0  0  0  0  0  0  0  0  0  0  0  0
    6.1370    0.5830   20.2550 C   0  0  0  0  0  0  0  0  0  0  0  0
    8.4970   -1.8110   23.9060 N   0  0  0  0  0  0  0  0  0  0  0  0
    9.6050   -1.3270   22.0310 C   0  0  0  0  0  0  0  0  0  0  0  0
    6.6900   -3.7630   20.1420 C   0  0  0  0  0  0  0  0  0  0  0  0
    7.7180    1.9100   22.8320 N   0  0  0  0  0  0  0  0  0  0  0  0
    8.7490    1.2510   21.1510 O   0  0  0  0  0  0  0  0  0  0  0  0
    4.9090    1.2630   20.1700 C   0  0  0  0  0  0  0  0  0  0  0  0
    6.8840    0.2330   19.1290 C   0  0  0  0  0  0  0  0  0  0  0  0
    9.8750   -1.8350   24.1480 O   0  0  0  0  0  0  0  0  0  0  0  0
   10.5910   -1.5380   23.0230 C   0  0  0  0  0  0  0  0  0  0  0  0
    6.3810   -4.1530   21.7750 C   0  0  0  0  0  0  0  0  0  0  0  0
   12.1180   -1.5090   23.1590 C   0  0  0  0  0  0  0  0  0  0  0  0
    6.3460    0.6160   17.8300 N   0  0  0  0  0  0  0  0  0  0  0  0
    4.3850    1.6320   18.9470 C   0  0  0  0  0  0  0  0  0  0  0  0
    8.4670    3.1980   23.0380 C   0  0  0  0  0  0  0  0  0  0  0  0
    7.4700   -4.5720   22.5450 C   0  0  0  0  0  0  0  0  0  0  0  0
    5.5760   -5.5050   21.7670 C   0  0  0  0  0  0  0  0  0  0  0  0
   12.6170   -0.1050   23.4750 C   0  0  0  0  0  0  0  0  0  0  0  0
   12.7880   -1.8820   21.8190 C   0  0  0  0  0  0  0  0  0  0  0  0
   12.5700   -2.4790   24.2310 C   0  0  0  0  0  0  0  0  0  0  0  0
    5.0930    1.3200   17.8180 C   0  0  0  0  0  0  0  0  0  0  0  0
    9.7200    3.1190   23.6370 C   0  0  0  0  0  0  0  0  0  0  0  0
    7.9020    4.5710   22.6180 C   0  0  0  0  0  0  0  0  0  0  0  0
    7.1390   -4.8100   23.8980 C   0  0  0  0  0  0  0  0  0  0  0  0
    4.9380   -5.7900   22.9690 C   0  0  0  0  0  0  0  0  0  0  0  0
   10.2660    1.7870   24.0470 C   0  0  0  0  0  0  0  0  0  0  0  0
   10.5520    4.2160   23.9050 C   0  0  0  0  0  0  0  0  0  0  0  0
    8.8450    5.6930   22.9480 C   0  0  0  0  0  0  0  0  0  0  0  0
    5.8350   -5.5270   24.1140 N   0  0  0  0  0  0  0  0  0  0  0  0
    5.0800   -5.4460   25.6460 S   0  0  0  0  0  0  0  0  0  0  0  0
   10.1250    5.5500   23.5700 C   0  0  0  0  0  0  0  0  0  0  0  0
   10.8680    6.6900   23.8120 O   0  0  0  0  0  0  0  0  0  0  0  0
    4.0200   -6.4330   25.7060 O   0  0  0  0  0  0  0  0  0  0  0  0
    6.0950   -5.4530   26.6660 O   0  0  0  0  0  0  0  0  0  0  0  0
    4.2490   -3.8760   25.8220 C   0  0  0  0  0  0  0  0  0  0  0  0
   11.8530    6.6070   24.8440 C   0  0  0  0  0  0  0  0  0  0  0  0
    2.5040   -3.8970   25.7590 S   0  0  0  0  0  0  0  0  0  0  0  0
    4.7290   -2.4520   26.0280 C   0  0  0  0  0  0  0  0  0  0  0  0
    3.5950   -1.4940   26.1180 C   0  0  0  0  0  0  0  0  0  0  0  0
    2.2500   -2.1970   25.9820 C   0  0  0  0  0  0  0  0  0  0  0  0
    0.6780   -1.5100   26.0320 Cl  0  0  0  0  0  0  0  0  0  0  0  0
  1  2  1  0
  2  3  2  0
  1  4  1  0
  1  5  1  0
  1  6  1  1
  2  7  1  0
  4  8  1  6
  5  9  1  0
  4 10  1  0
  6 11  2  0
  6 12  1  0
  7 13  1  0
  8 14  1  0
  8 15  2  0
 10 16  2  0
 10 17  1  0
 11 18  1  0
 12 19  2  0
 18 19  1  0
 20  9  1  0
 13 20  1  0
 19 21  1  0
 17 22  2  0
 16 23  1  0
 14 24  1  0
 20 25  1  0
 20 26  1  0
 21 27  1  0
 21 28  1  0
 21 29  1  0
 22 30  1  0
 23 30  2  0
 24 31  2  0
 24 32  1  0
 25 33  1  0
 26 34  1  0
 31 35  1  0
 31 36  1  0
 32 37  2  0
 33 38  1  0
 34 38  1  0
 38 39  1  0
 36 40  2  0
 37 40  1  0
 40 41  1  0
 39 42  2  0
 39 43  2  0
 39 44  1  0
 41 45  1  0
 44 46  1  0
 44 47  2  0
 47 48  1  0
 46 49  1  0
 48 49  2  0
 49 50  1  0
M  END
