x2694-x3117-x2193-x0426-x1311
     RDKit          3D

 63 68  0  0  0  0  0  0  0  0999 V2000
    6.9860   -1.4040   21.7950 N   0  0  0  0  0  0  0  0  0  0  0  0
    6.1940   -2.6230   21.2780 C   0  0  0  0  0  0  0  0  0  0  0  0
    4.8790   -3.0400   21.2100 O   0  0  0  0  0  0  0  0  0  0  0  0
    6.5870   -0.0560   21.6170 C   0  0  1  0  0  0  0  0  0  0  0  0
    8.3660   -1.3670   22.4560 C   0  0  1  0  0  0  0  0  0  0  0  0
    7.1130   -3.6260   20.6800 C   0  0  0  0  0  0  0  0  0  0  0  0
    7.6430    1.1030   21.7900 C   0  0  0  0  0  0  0  0  0  0  0  0
    6.0880    0.3880   20.2240 C   0  0  0  0  0  0  0  0  0  0  0  0
    8.4820   -1.4700   23.9180 N   0  0  0  0  0  0  0  0  0  0  0  0
    9.5580   -1.9850   22.0870 C   0  0  0  0  0  0  0  0  0  0  0  0
    7.4140   -3.2600   19.2730 C   0  0  0  0  0  0  0  0  0  0  0  0
    7.4880    2.1740   22.8220 N   0  0  0  0  0  0  0  0  0  0  0  0
    8.6100    1.1920   21.0260 O   0  0  0  0  0  0  0  0  0  0  0  0
    4.7250    1.0740   20.1660 C   0  0  0  0  0  0  0  0  0  0  0  0
    6.8530    0.1940   19.1050 C   0  0  0  0  0  0  0  0  0  0  0  0
    9.8240   -1.1600   24.1590 O   0  0  0  0  0  0  0  0  0  0  0  0
   10.6020   -1.1720   22.9430 C   0  0  1  0  0  0  0  0  0  0  0  0
    8.2490   -2.8330   24.4160 C   0  0  0  0  0  0  0  0  0  0  0  0
   12.0380   -1.5490   23.2690 C   0  0  0  0  0  0  0  0  0  0  0  0
    3.7430    1.3310   21.2960 C   0  0  0  0  0  0  0  0  0  0  0  0
    6.3940    0.6790   17.8100 N   0  0  0  0  0  0  0  0  0  0  0  0
    4.2630    1.5560   18.9270 C   0  0  0  0  0  0  0  0  0  0  0  0
    8.3710    3.2840   23.0690 C   0  0  0  0  0  0  0  0  0  0  0  0
    9.2380   -3.3510   25.3730 N   0  0  0  0  0  0  0  0  0  0  0  0
   12.6150   -0.3240   23.9760 C   0  0  0  0  0  0  0  0  0  0  0  0
   12.7530   -2.0020   21.9520 C   0  0  0  0  0  0  0  0  0  0  0  0
   12.0500   -2.5440   24.1240 C   0  0  0  0  0  0  0  0  0  0  0  0
    4.2870    2.1090   22.3090 C   0  0  0  0  0  0  0  0  0  0  0  0
    5.1150    1.3780   17.6890 C   0  0  0  0  0  0  0  0  0  0  0  0
    9.6380    3.1600   23.7040 C   0  0  0  0  0  0  0  0  0  0  0  0
    7.9520    4.7030   22.6430 C   0  0  0  0  0  0  0  0  0  0  0  0
    8.7260   -3.8370   26.5270 C   0  0  0  0  0  0  0  0  0  0  0  0
    9.9630   -4.4140   24.7180 C   0  0  0  0  0  0  0  0  0  0  0  0
   10.1330    1.9100   24.1430 C   0  0  0  0  0  0  0  0  0  0  0  0
   13.3220   -2.6630   25.0120 C   0  0  0  0  0  0  0  0  0  0  0  0
    3.3030    2.6490   23.2460 N   0  0  0  0  0  0  0  0  0  0  0  0
   10.4990    4.2570   23.9560 C   0  0  0  0  0  0  0  0  0  0  0  0
    8.8360    5.9100   22.8950 C   0  0  0  0  0  0  0  0  0  0  0  0
    8.3510   -5.2820   26.7740 C   0  0  0  0  0  0  0  0  0  0  0  0
    9.2340   -5.7370   24.7820 C   0  0  1  0  0  0  0  0  0  0  0  0
    2.3350    1.8790   23.7920 C   0  0  0  0  0  0  0  0  0  0  0  0
   10.1490    5.7200   23.5710 C   0  0  0  0  0  0  0  0  0  0  0  0
    9.2130   -6.1630   26.0070 N   0  0  0  0  0  0  0  0  0  0  0  0
    7.8340   -5.5570   24.3130 C   0  0  0  0  0  0  0  0  0  0  0  0
   10.9640    6.7760   23.8230 O   0  0  0  0  0  0  0  0  0  0  0  0
    2.3240    0.5120   23.7280 O   0  0  0  0  0  0  0  0  0  0  0  0
    1.1700    2.5890   24.5310 C   0  0  0  0  0  0  0  0  0  0  0  0
    7.7060   -5.4710   22.8510 C   0  0  0  0  0  0  0  0  0  0  0  0
   11.8640    6.6240   24.9190 C   0  0  0  0  0  0  0  0  0  0  0  0
    1.5200    3.8940   25.2690 C   0  0  0  0  0  0  0  0  0  0  0  0
   -0.2540    2.0410   24.5400 C   0  0  0  0  0  0  0  0  0  0  0  0
    6.3510   -5.0020   22.6430 N   0  0  0  0  0  0  0  0  0  0  0  0
    2.7660    4.3930   25.2760 F   0  0  0  0  0  0  0  0  0  0  0  0
   -1.3000    2.8500   25.3120 C   0  0  0  0  0  0  0  0  0  0  0  0
    0.5170    4.5840   25.9550 C   0  0  0  0  0  0  0  0  0  0  0  0
    5.4930   -5.9370   23.3220 C   0  0  2  0  0  0  0  0  0  0  0  0
   -0.9110    4.0240   25.9560 C   0  0  0  0  0  0  0  0  0  0  0  0
    4.5400   -6.4820   22.3180 C   0  0  0  0  0  0  0  0  0  0  0  0
    4.7430   -5.3990   24.5490 C   0  0  0  0  0  0  0  0  0  0  0  0
    3.4770   -6.6540   24.4970 S   0  0  0  0  0  0  0  0  0  0  0  0
    3.3810   -6.9050   22.8410 C   0  0  0  0  0  0  0  0  0  0  0  0
    4.0580   -7.8440   25.0590 O   0  0  0  0  0  0  0  0  0  0  0  0
    2.2360   -6.1300   25.0190 O   0  0  0  0  0  0  0  0  0  0  0  0
  1  2  1  0
  2  3  2  0
  1  4  1  0
  5  1  1  6
  2  6  1  0
  4  7  1  6
  4  8  1  0
  5  9  1  0
  5 10  1  0
  6 11  1  0
  7 12  1  0
  7 13  2  0
  8 14  1  0
  8 15  2  0
  9 16  1  0
 10 17  1  0
 16 17  1  0
  9 18  1  0
 17 19  1  1
 14 20  1  0
 15 21  1  0
 14 22  2  0
 12 23  1  0
 18 24  1  0
 19 25  1  0
 19 26  1  0
 19 27  1  0
 20 28  1  0
 21 29  2  0
 22 29  1  0
 23 30  2  0
 23 31  1  0
 24 32  1  0
 24 33  1  0
 30 34  1  0
 27 35  1  0
 28 36  1  0
 30 37  1  0
 31 38  2  0
 32 39  1  0
 33 40  1  0
 36 41  1  0
 37 42  2  0
 38 42  1  0
 39 43  1  0
 40 43  1  0
 40 44  1  1
 42 45  1  0
 41 46  2  0
 41 47  1  0
 44 48  1  0
 45 49  1  0
 47 50  2  0
 47 51  1  0
 48 52  1  0
 50 53  1  0
 51 54  2  0
 50 55  1  0
 56 52  1  6
 54 57  1  0
 55 57  2  0
 56 58  1  0
 56 59  1  0
 59 60  1  0
 58 61  2  0
 60 61  1  0
 60 62  1  0
 60 63  1  0
M  END
