x2694-x2193-x1358
     RDKit          3D

 56 62  0  0  0  0  0  0  0  0999 V2000
    7.1410   -1.2860   21.2290 C   0  0  2  0  0  0  0  0  0  0  0  0
    6.1140   -2.6580   20.9210 C   0  0  0  0  0  0  0  0  0  0  0  0
    4.8710   -2.9580   20.4500 O   0  0  0  0  0  0  0  0  0  0  0  0
    6.7530    0.2140   21.1690 C   0  0  1  0  0  0  0  0  0  0  0  0
    6.4410   -1.5220   22.2630 C   0  0  0  0  0  0  0  0  0  0  0  0
    8.5770   -1.2660   22.0960 C   0  0  0  0  0  0  0  0  0  0  0  0
    7.6980    1.2800   21.4630 C   0  0  0  0  0  0  0  0  0  0  0  0
    6.1500    0.7020   19.9290 C   0  0  0  0  0  0  0  0  0  0  0  0
    8.5830   -1.1320   23.4830 N   0  0  0  0  0  0  0  0  0  0  0  0
    9.9510   -1.3130   21.8850 C   0  0  0  0  0  0  0  0  0  0  0  0
    6.6610   -3.8260   21.5150 C   0  0  2  0  0  0  0  0  0  0  0  0
    6.9220   -2.9160   22.6680 C   0  0  2  0  0  0  0  0  0  0  0  0
    8.0160   -4.4660   21.0620 C   0  0  0  0  0  0  0  0  0  0  0  0
    7.2610    2.4190   22.3450 N   0  0  0  0  0  0  0  0  0  0  0  0
    8.8170    1.2900   20.9720 O   0  0  0  0  0  0  0  0  0  0  0  0
    4.9440    1.5720   20.0250 C   0  0  0  0  0  0  0  0  0  0  0  0
    6.8030    0.3030   18.7750 C   0  0  0  0  0  0  0  0  0  0  0  0
    9.9060   -1.1140   23.9890 O   0  0  0  0  0  0  0  0  0  0  0  0
   10.8040   -1.2250   22.9650 C   0  0  0  0  0  0  0  0  0  0  0  0
    6.2600   -2.9320   23.7970 C   0  0  0  0  0  0  0  0  0  0  0  0
    5.4710   -4.7750   21.8030 C   0  0  0  0  0  0  0  0  0  0  0  0
   12.3140   -1.2170   23.2340 C   0  0  0  0  0  0  0  0  0  0  0  0
    6.2690    0.7990   17.5280 N   0  0  0  0  0  0  0  0  0  0  0  0
    4.4510    2.0280   18.8470 C   0  0  0  0  0  0  0  0  0  0  0  0
    8.1960    3.4110   22.7960 C   0  0  0  0  0  0  0  0  0  0  0  0
    5.2260   -3.8330   23.9650 C   0  0  2  0  0  0  0  0  0  0  0  0
    4.6090   -4.2060   22.7740 C   0  0  0  0  0  0  0  0  0  0  0  0
   12.7290    0.1060   23.2640 C   0  0  0  0  0  0  0  0  0  0  0  0
   12.9540   -1.8940   22.0970 C   0  0  0  0  0  0  0  0  0  0  0  0
   12.5550   -2.0870   24.4230 C   0  0  0  0  0  0  0  0  0  0  0  0
    4.6980   -3.0380   25.1870 C   0  0  0  0  0  0  0  0  0  0  0  0
    5.1490    1.6310   17.5640 C   0  0  0  0  0  0  0  0  0  0  0  0
    9.6370    3.1290   23.1800 C   0  0  0  0  0  0  0  0  0  0  0  0
    7.8400    4.7860   22.9260 C   0  0  0  0  0  0  0  0  0  0  0  0
   10.3520    1.8120   23.1420 C   0  0  0  0  0  0  0  0  0  0  0  0
    5.8080   -2.3060   25.8710 N   0  0  0  0  0  0  0  0  0  0  0  0
    3.5320   -3.0700   25.5140 O   0  0  0  0  0  0  0  0  0  0  0  0
   10.5350    4.2330   23.6610 C   0  0  0  0  0  0  0  0  0  0  0  0
    8.7350    5.7940   23.3810 C   0  0  0  0  0  0  0  0  0  0  0  0
   10.0730    5.5400   23.7560 C   0  0  0  0  0  0  0  0  0  0  0  0
    5.8490   -1.2580   26.8050 C   0  0  0  0  0  0  0  0  0  0  0  0
    7.0600   -2.9500   25.9310 C   0  0  0  0  0  0  0  0  0  0  0  0
   10.7900    6.6350   24.1810 O   0  0  0  0  0  0  0  0  0  0  0  0
    5.3890   -0.0070   26.5080 C   0  0  0  0  0  0  0  0  0  0  0  0
    6.4900   -1.6080   28.1780 C   0  0  0  0  0  0  0  0  0  0  0  0
    7.8140   -3.8180   24.8180 C   0  0  1  0  0  0  0  0  0  0  0  0
   11.8930    6.3980   25.0500 C   0  0  0  0  0  0  0  0  0  0  0  0
    4.8150    0.3860   25.3060 O   0  0  0  0  0  0  0  0  0  0  0  0
    6.5470   -0.5150   29.0560 C   0  0  0  0  0  0  0  0  0  0  0  0
    5.5010    1.0040   27.4790 C   0  0  0  0  0  0  0  0  0  0  0  0
    7.2330   -5.0550   24.5490 C   0  0  0  0  0  0  0  0  0  0  0  0
    8.8220   -3.2510   23.9590 N   0  0  0  0  0  0  0  0  0  0  0  0
    6.0700    0.7500   28.7220 C   0  0  0  0  0  0  0  0  0  0  0  0
    8.2210   -6.0420   24.7200 N   0  0  0  0  0  0  0  0  0  0  0  0
    9.8990   -4.2140   23.9030 C   0  0  0  0  0  0  0  0  0  0  0  0
    9.3330   -5.6430   23.9450 C   0  0  0  0  0  0  0  0  0  0  0  0
  1  2  1  0
  2  3  2  0
  1  4  1  0
  1  5  1  0
  1  6  1  1
  4  7  1  6
  4  8  1  0
  6  9  2  0
  6 10  1  0
  2 11  1  0
 12  5  1  6
 11 12  1  0
 11 13  1  6
  7 14  1  0
  7 15  2  0
  8 16  2  0
  8 17  1  0
  9 18  1  0
 10 19  2  0
 18 19  1  0
 12 20  1  0
 11 21  1  0
 19 22  1  0
 17 23  2  0
 16 24  1  0
 14 25  1  0
 20 26  1  0
 21 27  1  0
 26 27  1  0
 22 28  1  0
 22 29  1  0
 22 30  1  0
 26 31  1  1
 23 32  1  0
 24 32  2  0
 25 33  2  0
 25 34  1  0
 33 35  1  0
 31 36  1  0
 31 37  2  0
 33 38  1  0
 34 39  2  0
 38 40  2  0
 39 40  1  0
 36 41  1  0
 36 42  1  0
 40 43  1  0
 41 44  2  0
 41 45  1  0
 46 42  1  6
 43 47  1  0
 44 48  1  0
 45 49  2  0
 44 50  1  0
 46 51  1  0
 46 52  1  0
 49 53  1  0
 50 53  2  0
 51 54  1  0
 52 55  1  0
 54 56  1  0
 55 56  1  0
M  END
