x2694-x1358-x0540
     RDKit          3D

 61 67  0  0  0  0  0  0  0  0999 V2000
    7.2610   -1.6040   21.5200 C   0  0  2  0  0  0  0  0  0  0  0  0
    6.1120   -2.8550   21.2000 C   0  0  0  0  0  0  0  0  0  0  0  0
    4.8720   -2.9580   20.7440 O   0  0  0  0  0  0  0  0  0  0  0  0
    6.8540   -0.1040   21.4080 C   0  0  1  0  0  0  0  0  0  0  0  0
    6.8090   -2.1090   22.7470 C   0  0  0  0  0  0  0  0  0  0  0  0
    8.6740   -1.5380   22.2760 C   0  0  0  0  0  0  0  0  0  0  0  0
    8.0390    0.8750   21.7400 C   0  0  0  0  0  0  0  0  0  0  0  0
    6.1530    0.3830   20.1710 C   0  0  0  0  0  0  0  0  0  0  0  0
    8.7080   -1.1240   23.5960 N   0  0  0  0  0  0  0  0  0  0  0  0
   10.0130   -1.7920   21.9560 C   0  0  0  0  0  0  0  0  0  0  0  0
    6.5630   -4.1970   21.6710 C   0  0  2  0  0  0  0  0  0  0  0  0
    7.4970   -3.5170   22.7180 C   0  0  2  0  0  0  0  0  0  0  0  0
    7.0820   -5.0770   20.5270 C   0  0  0  0  0  0  0  0  0  0  0  0
    7.6690    2.0890   22.5340 N   0  0  0  0  0  0  0  0  0  0  0  0
    9.1820    0.6930   21.3650 O   0  0  0  0  0  0  0  0  0  0  0  0
    4.9280    0.9860   20.1660 C   0  0  0  0  0  0  0  0  0  0  0  0
    6.8620    0.1880   19.0040 C   0  0  0  0  0  0  0  0  0  0  0  0
   10.0150   -1.1110   24.0760 O   0  0  0  0  0  0  0  0  0  0  0  0
   10.8020   -1.5080   23.0660 C   0  0  0  0  0  0  0  0  0  0  0  0
    7.3120   -3.8780   24.0660 C   0  0  0  0  0  0  0  0  0  0  0  0
    5.4170   -5.0570   22.2810 C   0  0  0  0  0  0  0  0  0  0  0  0
   12.3300   -1.6100   23.1440 C   0  0  0  0  0  0  0  0  0  0  0  0
    4.2140    1.1500   21.3550 C   0  0  0  0  0  0  0  0  0  0  0  0
    6.3870    0.6180   17.7790 N   0  0  0  0  0  0  0  0  0  0  0  0
    4.3880    1.4470   18.9670 C   0  0  0  0  0  0  0  0  0  0  0  0
    8.5040    3.2220   22.8810 C   0  0  0  0  0  0  0  0  0  0  0  0
    5.8380   -3.6890   24.3710 C   0  0  1  0  0  0  0  0  0  0  0  0
    5.0010   -4.7840   23.7420 C   0  0  0  0  0  0  0  0  0  0  0  0
   12.8600   -0.1780   23.3950 C   0  0  0  0  0  0  0  0  0  0  0  0
   12.9330   -2.0960   21.8180 C   0  0  0  0  0  0  0  0  0  0  0  0
   12.7950   -2.5140   24.3070 C   0  0  0  0  0  0  0  0  0  0  0  0
    4.8140    1.9880   22.2930 C   0  0  0  0  0  0  0  0  0  0  0  0
    5.6540   -3.5550   25.8660 C   0  0  0  0  0  0  0  0  0  0  0  0
    5.0890    1.2870   17.7870 C   0  0  0  0  0  0  0  0  0  0  0  0
    9.7380    3.0630   23.5550 C   0  0  0  0  0  0  0  0  0  0  0  0
    8.0870    4.5340   22.5440 C   0  0  0  0  0  0  0  0  0  0  0  0
   10.3210    1.7380   23.9920 C   0  0  0  0  0  0  0  0  0  0  0  0
    4.0430    2.8800   22.9260 N   0  0  0  0  0  0  0  0  0  0  0  0
    6.6270   -2.8040   26.3820 N   0  0  0  0  0  0  0  0  0  0  0  0
    4.7030   -4.0720   26.4560 O   0  0  0  0  0  0  0  0  0  0  0  0
   10.5090    4.1850   23.8640 C   0  0  0  0  0  0  0  0  0  0  0  0
    8.8790    5.6460   22.8790 C   0  0  0  0  0  0  0  0  0  0  0  0
    2.8280    2.4200   23.6320 C   0  0  0  0  0  0  0  0  0  0  0  0
   10.0980    5.4580   23.5460 C   0  0  0  0  0  0  0  0  0  0  0  0
    6.5510   -1.5580   27.1400 C   0  0  0  0  0  0  0  0  0  0  0  0
   10.7990    6.6750   23.8300 O   0  0  0  0  0  0  0  0  0  0  0  0
    2.7940    1.5230   24.4790 O   0  0  0  0  0  0  0  0  0  0  0  0
    1.6970    3.1880   23.1690 N   0  0  0  0  0  0  0  0  0  0  0  0
    5.9330   -0.4070   26.6850 C   0  0  0  0  0  0  0  0  0  0  0  0
    7.2010   -1.5470   28.5140 C   0  0  0  0  0  0  0  0  0  0  0  0
   11.8440    6.5970   24.8070 C   0  0  0  0  0  0  0  0  0  0  0  0
    5.3270   -0.3400   25.4610 O   0  0  0  0  0  0  0  0  0  0  0  0
    0.5170    3.3460   23.9980 C   0  0  0  0  0  0  0  0  0  0  0  0
    7.1890   -0.4270   29.3110 C   0  0  0  0  0  0  0  0  0  0  0  0
    5.9410    0.7230   27.5370 C   0  0  0  0  0  0  0  0  0  0  0  0
    0.4820    4.6790   24.4510 C   0  0  0  0  0  0  0  0  0  0  0  0
   -0.5840    2.8120   23.3210 C   0  0  0  0  0  0  0  0  0  0  0  0
    6.5540    0.7140   28.8190 C   0  0  0  0  0  0  0  0  0  0  0  0
   -0.7160    4.9160   25.1250 C   0  0  0  0  0  0  0  0  0  0  0  0
   -1.8290    3.3230   23.7040 C   0  0  0  0  0  0  0  0  0  0  0  0
   -1.8540    4.5430   24.3990 C   0  0  0  0  0  0  0  0  0  0  0  0
  1  2  1  0
  2  3  2  0
  1  4  1  0
  1  5  1  0
  1  6  1  6
  4  7  1  6
  4  8  1  0
  6  9  2  0
  6 10  1  0
  2 11  1  0
 12  5  1  1
 11 12  1  0
 11 13  1  6
  7 14  1  0
  7 15  2  0
  8 16  1  0
  8 17  2  0
  9 18  1  0
 10 19  2  0
 18 19  1  0
 12 20  1  0
 11 21  1  0
 19 22  1  0
 16 23  1  0
 17 24  1  0
 16 25  2  0
 14 26  1  0
 20 27  1  0
 21 28  1  0
 27 28  1  0
 22 29  1  0
 22 30  1  0
 22 31  1  0
 23 32  1  0
 27 33  1  1
 24 34  2  0
 25 34  1  0
 26 35  2  0
 26 36  1  0
 35 37  1  0
 32 38  1  0
 33 39  1  0
 33 40  2  0
 35 41  1  0
 36 42  2  0
 38 43  1  0
 41 44  2  0
 42 44  1  0
 39 45  1  0
 44 46  1  0
 43 47  2  0
 43 48  1  0
 45 49  2  0
 45 50  1  0
 46 51  1  0
 49 52  1  0
 48 53  1  0
 50 54  2  0
 49 55  1  0
 53 56  1  0
 53 57  1  0
 54 58  1  0
 55 58  2  0
 56 59  1  0
 57 60  1  0
 59 61  1  0
 60 61  1  0
M  END
