x2694-x2540
     RDKit          3D

 34 36  0  0  0  0  0  0  0  0999 V2000
    7.0250   -1.5510   21.8020 N   0  0  0  0  0  0  0  0  0  0  0  0
    6.1810   -2.8010   21.4850 C   0  0  0  0  0  0  0  0  0  0  0  0
    4.8860   -3.0470   21.1810 O   0  0  0  0  0  0  0  0  0  0  0  0
    6.5510   -0.1260   21.6510 C   0  0  1  0  0  0  0  0  0  0  0  0
    8.2720   -1.5790   22.5300 C   0  0  0  0  0  0  0  0  0  0  0  0
    7.0110   -4.0650   21.5870 C   0  0  0  0  0  0  0  0  0  0  0  0
    7.6100    1.0810   21.8500 C   0  0  0  0  0  0  0  0  0  0  0  0
    6.0470    0.3320   20.2850 C   0  0  0  0  0  0  0  0  0  0  0  0
    8.4030   -1.5560   23.8870 N   0  0  0  0  0  0  0  0  0  0  0  0
    9.5770   -1.6130   22.0300 C   0  0  0  0  0  0  0  0  0  0  0  0
    6.7750   -3.7570   20.0830 C   0  0  0  0  0  0  0  0  0  0  0  0
    7.4900    2.0580   22.9590 N   0  0  0  0  0  0  0  0  0  0  0  0
    8.5110    1.2630   21.0330 O   0  0  0  0  0  0  0  0  0  0  0  0
    4.9250    1.1280   20.1350 C   0  0  0  0  0  0  0  0  0  0  0  0
    6.8070   -0.0660   19.1410 C   0  0  0  0  0  0  0  0  0  0  0  0
    9.7750   -1.5710   24.1970 O   0  0  0  0  0  0  0  0  0  0  0  0
   10.5350   -1.6110   23.0590 C   0  0  0  0  0  0  0  0  0  0  0  0
   12.0670   -1.6390   23.1790 C   0  0  0  0  0  0  0  0  0  0  0  0
    6.3470    0.4180   17.8580 N   0  0  0  0  0  0  0  0  0  0  0  0
    4.4750    1.5930   18.9230 C   0  0  0  0  0  0  0  0  0  0  0  0
    8.3710    3.1780   23.1390 C   0  0  0  0  0  0  0  0  0  0  0  0
   12.6330   -0.2560   23.3610 C   0  0  0  0  0  0  0  0  0  0  0  0
   12.7360   -2.1860   21.8930 C   0  0  0  0  0  0  0  0  0  0  0  0
   12.5550   -2.4920   24.3740 C   0  0  0  0  0  0  0  0  0  0  0  0
    5.1340    1.2830   17.7980 C   0  0  0  0  0  0  0  0  0  0  0  0
    9.7650    3.0310   23.1230 C   0  0  0  0  0  0  0  0  0  0  0  0
    7.8660    4.4900   23.3310 C   0  0  0  0  0  0  0  0  0  0  0  0
   10.3210    1.7330   22.9400 C   0  0  0  0  0  0  0  0  0  0  0  0
   10.6430    4.1070   23.2730 C   0  0  0  0  0  0  0  0  0  0  0  0
    8.6690    5.6230   23.5130 C   0  0  0  0  0  0  0  0  0  0  0  0
   12.1160    3.8470   23.1790 C   0  0  0  0  0  0  0  0  0  0  0  0
   10.1910    5.4180   23.4860 C   0  0  0  0  0  0  0  0  0  0  0  0
   11.1580    6.3870   23.6450 O   0  0  0  0  0  0  0  0  0  0  0  0
   11.7270    6.5550   24.9500 C   0  0  0  0  0  0  0  0  0  0  0  0
  1  2  1  0
  2  3  2  0
  1  4  1  0
  1  5  1  0
  2  6  1  0
  4  7  1  6
  4  8  1  0
  5  9  2  0
  5 10  1  0
  6 11  1  0
  7 12  1  0
  7 13  2  0
  8 14  2  0
  8 15  1  0
  9 16  1  0
 10 17  2  0
 16 17  1  0
 17 18  1  0
 15 19  2  0
 14 20  1  0
 12 21  1  0
 18 22  1  0
 18 23  1  0
 18 24  1  0
 19 25  1  0
 20 25  2  0
 21 26  2  0
 21 27  1  0
 26 28  1  0
 26 29  1  0
 27 30  2  0
 29 31  1  0
 29 32  2  0
 30 32  1  0
 32 33  1  0
 33 34  1  0
M  END
