x2694-x0540-x2764
     RDKit          3D

 47 50  0  0  0  0  0  0  0  0999 V2000
    6.9940   -2.3630   21.8410 N   0  0  0  0  0  0  0  0  0  0  0  0
    5.8400   -3.2810   21.6610 C   0  0  0  0  0  0  0  0  0  0  0  0
    4.6620   -2.9630   21.4190 O   0  0  0  0  0  0  0  0  0  0  0  0
    7.0200   -0.9560   21.5000 C   0  0  2  0  0  0  0  0  0  0  0  0
    8.2380   -3.0270   22.3040 N   0  0  0  0  0  0  0  0  0  0  0  0
    5.9540   -4.8170   21.7360 C   0  0  0  0  0  0  0  0  0  0  0  0
    7.1050   -0.0200   22.7260 C   0  0  0  0  0  0  0  0  0  0  0  0
    6.1980   -0.4290   20.3150 C   0  0  0  0  0  0  0  0  0  0  0  0
    9.6890   -2.6040   22.5120 C   0  0  0  0  0  0  0  0  0  0  0  0
    6.2700   -5.3620   20.3380 C   0  0  0  0  0  0  0  0  0  0  0  0
    8.0190    1.1610   22.6710 N   0  0  0  0  0  0  0  0  0  0  0  0
    6.4610   -0.2040   23.7620 O   0  0  0  0  0  0  0  0  0  0  0  0
    4.8650    0.1930   20.3530 C   0  0  0  0  0  0  0  0  0  0  0  0
    6.8000   -0.5430   19.0300 C   0  0  0  0  0  0  0  0  0  0  0  0
   11.0120   -2.1360   22.9600 C   0  0  0  0  0  0  0  0  0  0  0  0
    9.1730   -2.3000   23.8920 C   0  0  0  0  0  0  0  0  0  0  0  0
   12.4140   -2.0130   22.3210 C   0  0  0  0  0  0  0  0  0  0  0  0
    8.0970    2.2160   21.5630 C   0  0  0  0  0  0  0  0  0  0  0  0
    3.9620    0.4610   21.5800 C   0  0  0  0  0  0  0  0  0  0  0  0
    6.1760   -0.0840   17.7920 N   0  0  0  0  0  0  0  0  0  0  0  0
    4.3010    0.6200   19.1110 C   0  0  0  0  0  0  0  0  0  0  0  0
    9.9270   -1.7970   24.8240 N   0  0  0  0  0  0  0  0  0  0  0  0
   11.1180   -1.6920   24.2410 O   0  0  0  0  0  0  0  0  0  0  0  0
   12.8950   -0.5170   22.3910 C   0  0  0  0  0  0  0  0  0  0  0  0
   12.3910   -2.4150   20.8190 C   0  0  0  0  0  0  0  0  0  0  0  0
   13.4560   -2.9170   23.0750 C   0  0  0  0  0  0  0  0  0  0  0  0
    4.0570    1.7490   22.2040 C   0  0  0  0  0  0  0  0  0  0  0  0
    4.9510    0.4810   17.8790 C   0  0  0  0  0  0  0  0  0  0  0  0
    8.4320    3.6910   22.0020 C   0  0  0  0  0  0  0  0  0  0  0  0
    2.9470    2.5060   22.4040 N   0  0  0  0  0  0  0  0  0  0  0  0
    8.7510    5.0910   22.4190 C   0  0  0  0  0  0  0  0  0  0  0  0
    9.9510    3.2130   22.1350 C   0  0  0  0  0  0  0  0  0  0  0  0
    2.0580    2.3000   23.5610 C   0  0  0  0  0  0  0  0  0  0  0  0
   11.1830    3.8860   22.5140 C   0  0  0  0  0  0  0  0  0  0  0  0
    9.9230    5.8180   22.7980 C   0  0  0  0  0  0  0  0  0  0  0  0
    9.8220    7.1610   23.1200 O   0  0  0  0  0  0  0  0  0  0  0  0
   12.4540    3.2040   22.5600 C   0  0  0  0  0  0  0  0  0  0  0  0
    2.3270    1.6000   24.5500 O   0  0  0  0  0  0  0  0  0  0  0  0
    0.8990    2.9930   23.3510 N   0  0  0  0  0  0  0  0  0  0  0  0
   11.1290    5.2140   22.8410 C   0  0  0  0  0  0  0  0  0  0  0  0
   10.0510    7.6040   24.4640 C   0  0  0  0  0  0  0  0  0  0  0  0
   -0.1650    3.1060   24.2600 C   0  0  0  0  0  0  0  0  0  0  0  0
   -0.0860    4.5470   24.8270 C   0  0  0  0  0  0  0  0  0  0  0  0
   -1.3780    2.7430   23.5820 C   0  0  0  0  0  0  0  0  0  0  0  0
   -1.3130    5.0220   25.3910 C   0  0  0  0  0  0  0  0  0  0  0  0
   -2.5580    3.2750   24.1950 C   0  0  0  0  0  0  0  0  0  0  0  0
   -2.4920    4.5900   24.7130 C   0  0  0  0  0  0  0  0  0  0  0  0
  1  2  1  0
  2  3  2  0
  1  4  1  0
  1  5  1  0
  2  6  1  0
  4  7  1  1
  4  8  1  0
  5  9  1  0
  6 10  1  0
  7 11  1  0
  7 12  2  0
  8 13  1  0
  8 14  2  0
  9 15  2  0
  9 16  1  0
 15 17  1  0
 11 18  1  0
 13 19  1  0
 14 20  1  0
 13 21  2  0
 16 22  2  0
 15 23  1  0
 22 23  1  0
 17 24  1  0
 17 25  1  0
 17 26  1  0
 19 27  1  0
 20 28  2  0
 21 28  1  0
 18 29  1  0
 27 30  1  0
 29 31  2  0
 29 32  1  0
 30 33  1  0
 32 34  2  0
 31 35  1  0
 35 36  1  0
 34 37  1  0
 33 38  2  0
 33 39  1  0
 34 40  1  0
 35 40  2  0
 36 41  1  0
 39 42  1  0
 42 43  1  0
 42 44  1  0
 43 45  1  0
 44 46  1  0
 45 47  1  0
 46 47  1  0
M  END
