x2694-x3124
     RDKit          3D

 34 36  0  0  0  0  0  0  0  0999 V2000
    7.0980   -1.6210   21.8060 N   0  0  0  0  0  0  0  0  0  0  0  0
    6.2180   -2.8540   21.4900 C   0  0  0  0  0  0  0  0  0  0  0  0
    4.9050   -3.0730   21.1980 O   0  0  0  0  0  0  0  0  0  0  0  0
    6.6990   -0.1710   21.6430 C   0  0  1  0  0  0  0  0  0  0  0  0
    8.3650   -1.7010   22.5000 C   0  0  0  0  0  0  0  0  0  0  0  0
    7.0220   -4.1400   21.5650 C   0  0  0  0  0  0  0  0  0  0  0  0
    7.8470    0.9520   21.9030 C   0  0  0  0  0  0  0  0  0  0  0  0
    6.1530    0.3070   20.2840 C   0  0  0  0  0  0  0  0  0  0  0  0
    8.5620   -1.9980   23.8160 N   0  0  0  0  0  0  0  0  0  0  0  0
    9.6380   -1.4710   21.9710 C   0  0  0  0  0  0  0  0  0  0  0  0
    6.7830   -3.7710   20.0840 C   0  0  0  0  0  0  0  0  0  0  0  0
    7.5730    2.1360   22.7580 N   0  0  0  0  0  0  0  0  0  0  0  0
    8.9430    0.8870   21.3790 O   0  0  0  0  0  0  0  0  0  0  0  0
    5.0110    1.1010   20.1910 C   0  0  0  0  0  0  0  0  0  0  0  0
    6.8810   -0.0750   19.1040 C   0  0  0  0  0  0  0  0  0  0  0  0
    9.9500   -1.9440   24.0740 O   0  0  0  0  0  0  0  0  0  0  0  0
   10.6490   -1.6180   22.9380 C   0  0  0  0  0  0  0  0  0  0  0  0
   12.1920   -1.4850   22.9460 C   0  0  0  0  0  0  0  0  0  0  0  0
    6.3890    0.4070   17.8280 N   0  0  0  0  0  0  0  0  0  0  0  0
    4.5380    1.5600   18.9770 C   0  0  0  0  0  0  0  0  0  0  0  0
    8.4360    3.2610   23.0360 C   0  0  0  0  0  0  0  0  0  0  0  0
   12.6120   -0.0810   23.3310 C   0  0  0  0  0  0  0  0  0  0  0  0
   12.7790   -1.7700   21.5490 C   0  0  0  0  0  0  0  0  0  0  0  0
   13.0090   -2.4770   23.7790 C   0  0  0  0  0  0  0  0  0  0  0  0
    5.1680    1.2560   17.8340 C   0  0  0  0  0  0  0  0  0  0  0  0
    9.7180    3.1750   23.6560 C   0  0  0  0  0  0  0  0  0  0  0  0
    7.9970    4.5660   22.6730 C   0  0  0  0  0  0  0  0  0  0  0  0
   10.2710    1.9280   24.0670 C   0  0  0  0  0  0  0  0  0  0  0  0
   12.4800   -2.6840   25.1460 C   0  0  0  0  0  0  0  0  0  0  0  0
   10.4960    4.3210   23.8900 C   0  0  0  0  0  0  0  0  0  0  0  0
    8.7270    5.7460   22.8850 C   0  0  0  0  0  0  0  0  0  0  0  0
   10.1030    5.6110   23.5600 C   0  0  0  0  0  0  0  0  0  0  0  0
   10.9790    6.6300   23.8660 O   0  0  0  0  0  0  0  0  0  0  0  0
   11.8230    6.4990   25.0130 C   0  0  0  0  0  0  0  0  0  0  0  0
  1  2  1  0
  2  3  2  0
  1  4  1  0
  1  5  1  0
  2  6  1  0
  4  7  1  6
  4  8  1  0
  5  9  2  0
  5 10  1  0
  6 11  1  0
  7 12  1  0
  7 13  2  0
  8 14  2  0
  8 15  1  0
  9 16  1  0
 10 17  2  0
 16 17  1  0
 17 18  1  0
 15 19  2  0
 14 20  1  0
 12 21  1  0
 18 22  1  0
 18 23  1  0
 18 24  1  0
 19 25  1  0
 20 25  2  0
 21 26  2  0
 21 27  1  0
 26 28  1  0
 24 29  1  0
 26 30  1  0
 27 31  2  0
 30 32  2  0
 31 32  1  0
 32 33  1  0
 33 34  1  0
M  END
