x2694-x1425
     RDKit          3D

 47 52  0  0  0  0  0  0  0  0999 V2000
    7.0510   -1.4000   21.8170 C   0  0  1  0  0  0  0  0  0  0  0  0
    6.1270   -2.7440   21.3480 C   0  0  0  0  0  0  0  0  0  0  0  0
    4.8880   -2.9660   20.8430 O   0  0  0  0  0  0  0  0  0  0  0  0
    6.7270    0.1020   21.5670 C   0  0  1  0  0  0  0  0  0  0  0  0
    6.4760   -2.0050   23.0620 C   0  0  0  0  0  0  0  0  0  0  0  0
    8.4860   -1.4280   22.4840 C   0  0  0  0  0  0  0  0  0  0  0  0
    7.8310    1.1840   21.8390 C   0  0  0  0  0  0  0  0  0  0  0  0
    6.1190    0.5400   20.2950 C   0  0  0  0  0  0  0  0  0  0  0  0
    8.6750   -1.4450   23.9760 N   0  0  0  0  0  0  0  0  0  0  0  0
    9.7840   -1.4230   22.0070 C   0  0  0  0  0  0  0  0  0  0  0  0
    6.7620   -4.0300   21.7170 C   0  0  2  0  0  0  0  0  0  0  0  0
    7.1750   -3.4130   23.0390 C   0  0  2  0  0  0  0  0  0  0  0  0
    7.9970   -4.4930   20.9830 C   0  0  0  0  0  0  0  0  0  0  0  0
    7.7000    1.9390   22.7470 N   0  0  0  0  0  0  0  0  0  0  0  0
    8.8010    1.2930   21.0870 O   0  0  0  0  0  0  0  0  0  0  0  0
    4.9720    1.3430   20.2180 C   0  0  0  0  0  0  0  0  0  0  0  0
    6.7950    0.1140   19.1190 C   0  0  0  0  0  0  0  0  0  0  0  0
   10.0570   -1.4520   24.2230 O   0  0  0  0  0  0  0  0  0  0  0  0
   10.7270   -1.4350   23.0330 C   0  0  0  0  0  0  0  0  0  0  0  0
    6.8270   -4.2520   24.1970 C   0  0  0  0  0  0  0  0  0  0  0  0
    5.7510   -5.1750   21.8930 C   0  0  0  0  0  0  0  0  0  0  0  0
   12.2380   -1.4250   23.1420 C   0  0  0  0  0  0  0  0  0  0  0  0
    6.3680    0.4840   17.8200 N   0  0  0  0  0  0  0  0  0  0  0  0
    4.5150    1.7320   18.9860 C   0  0  0  0  0  0  0  0  0  0  0  0
    8.4330    3.1710   22.9780 C   0  0  0  0  0  0  0  0  0  0  0  0
    5.4040   -4.4150   24.2280 N   0  0  0  0  0  0  0  0  0  0  0  0
    4.7370   -4.8950   23.0040 C   0  0  0  0  0  0  0  0  0  0  0  0
   12.7600   -0.0050   23.4370 C   0  0  0  0  0  0  0  0  0  0  0  0
   12.8990   -1.8800   21.8290 C   0  0  0  0  0  0  0  0  0  0  0  0
   12.7140   -2.3770   24.2730 C   0  0  0  0  0  0  0  0  0  0  0  0
    5.2030    1.3250   17.7020 C   0  0  0  0  0  0  0  0  0  0  0  0
    9.6860    3.0880   23.6190 C   0  0  0  0  0  0  0  0  0  0  0  0
    7.9360    4.4240   22.5850 C   0  0  0  0  0  0  0  0  0  0  0  0
    4.7020   -3.7270   25.2100 C   0  0  0  0  0  0  0  0  0  0  0  0
   10.2040    1.7410   24.0390 C   0  0  0  0  0  0  0  0  0  0  0  0
   10.5450    4.3360   23.9050 C   0  0  0  0  0  0  0  0  0  0  0  0
    8.7250    5.7270   22.8400 C   0  0  0  0  0  0  0  0  0  0  0  0
    5.2730   -2.7060   25.9690 C   0  0  0  0  0  0  0  0  0  0  0  0
    3.4050   -4.1460   25.3800 C   0  0  0  0  0  0  0  0  0  0  0  0
   10.0750    5.5900   23.5360 C   0  0  0  0  0  0  0  0  0  0  0  0
    4.5120   -2.0870   26.9490 C   0  0  0  0  0  0  0  0  0  0  0  0
    2.6400   -3.5270   26.3600 C   0  0  0  0  0  0  0  0  0  0  0  0
   10.9220    6.6520   23.8520 O   0  0  0  0  0  0  0  0  0  0  0  0
    3.1890   -2.4990   27.1530 C   0  0  0  0  0  0  0  0  0  0  0  0
   11.8510    6.4980   24.9280 C   0  0  0  0  0  0  0  0  0  0  0  0
    2.5420   -1.8320   28.1440 O   0  0  0  0  0  0  0  0  0  0  0  0
    1.2100   -2.2730   28.4450 C   0  0  0  0  0  0  0  0  0  0  0  0
  1  2  1  0
  2  3  2  0
  1  4  1  0
  1  5  1  0
  1  6  1  1
  4  7  1  6
  4  8  1  0
  6  9  2  0
  6 10  1  0
  2 11  1  0
 12  5  1  1
 11 12  1  0
 11 13  1  6
  7 14  1  0
  7 15  2  0
  8 16  2  0
  8 17  1  0
  9 18  1  0
 10 19  2  0
 18 19  1  0
 12 20  1  0
 11 21  1  0
 19 22  1  0
 17 23  2  0
 16 24  1  0
 14 25  1  0
 20 26  1  0
 21 27  1  0
 26 27  1  0
 22 28  1  0
 22 29  1  0
 22 30  1  0
 23 31  1  0
 24 31  2  0
 25 32  2  0
 25 33  1  0
 26 34  1  0
 32 35  1  0
 32 36  1  0
 33 37  2  0
 34 38  2  0
 34 39  1  0
 36 40  2  0
 37 40  1  0
 38 41  1  0
 39 42  2  0
 40 43  1  0
 41 44  2  0
 42 44  1  0
 43 45  1  0
 44 46  1  0
 46 47  1  0
M  END
