x2694-x2193-x0771-x3124-x0426
     RDKit          3D

 70 76  0  0  0  0  0  0  0  0999 V2000
    6.8450   -1.1860   21.8360 N   0  0  0  0  0  0  0  0  0  0  0  0
    5.9990   -2.2300   21.0680 C   0  0  0  0  0  0  0  0  0  0  0  0
    4.8260   -2.9820   21.2410 O   0  0  0  0  0  0  0  0  0  0  0  0
    6.6580    0.3010   21.5800 C   0  0  1  0  0  0  0  0  0  0  0  0
    8.1910   -1.3610   22.4810 C   0  0  0  0  0  0  0  0  0  0  0  0
    6.6320   -2.5380   19.7930 C   0  0  0  0  0  0  0  0  0  0  0  0
    7.7400    1.2200   21.7850 C   0  0  0  0  0  0  0  0  0  0  0  0
    6.1090    0.6700   20.2330 C   0  0  0  0  0  0  0  0  0  0  0  0
    8.3410   -1.6770   23.9000 N   0  0  0  0  0  0  0  0  0  0  0  0
    9.4720   -1.2480   21.9490 C   0  0  0  0  0  0  0  0  0  0  0  0
    6.8790   -3.9950   19.8670 C   0  0  0  0  0  0  0  0  0  0  0  0
    7.5710    2.1390   22.8180 N   0  0  0  0  0  0  0  0  0  0  0  0
    8.7400    1.2330   21.0630 O   0  0  0  0  0  0  0  0  0  0  0  0
    4.7900    1.3710   20.0700 C   0  0  0  0  0  0  0  0  0  0  0  0
    6.8090    0.3840   19.0640 C   0  0  0  0  0  0  0  0  0  0  0  0
    9.6110   -1.7290   24.1200 O   0  0  0  0  0  0  0  0  0  0  0  0
   10.3920   -1.4800   22.9970 C   0  0  0  0  0  0  0  0  0  0  0  0
   11.9420   -1.4880   23.0840 C   0  0  0  0  0  0  0  0  0  0  0  0
    3.7270    1.8330   21.0280 C   0  0  0  0  0  0  0  0  0  0  0  0
    6.4260    0.6980   17.8060 N   0  0  0  0  0  0  0  0  0  0  0  0
    4.4730    1.6620   18.7710 C   0  0  0  0  0  0  0  0  0  0  0  0
    8.4380    3.2650   23.0570 C   0  0  0  0  0  0  0  0  0  0  0  0
    6.5540   -4.5530   21.1850 N   0  0  0  0  0  0  0  0  0  0  0  0
   12.5880   -0.1440   23.7330 C   0  0  0  0  0  0  0  0  0  0  0  0
   12.6410   -1.7330   21.7280 C   0  0  0  0  0  0  0  0  0  0  0  0
   12.4220   -2.6980   23.9450 C   0  0  0  0  0  0  0  0  0  0  0  0
    4.2460    1.9940   22.4840 C   0  0  0  0  0  0  0  0  0  0  0  0
    5.2410    1.3590   17.6650 C   0  0  0  0  0  0  0  0  0  0  0  0
    9.7020    3.1260   23.6250 C   0  0  0  0  0  0  0  0  0  0  0  0
    7.9870    4.6750   22.6950 C   0  0  0  0  0  0  0  0  0  0  0  0
    5.9020   -5.8340   21.4180 C   0  0  0  0  0  0  0  0  0  0  0  0
    7.2960   -4.1240   22.2930 C   0  0  0  0  0  0  0  0  0  0  0  0
   10.2640    1.7950   24.0270 C   0  0  0  0  0  0  0  0  0  0  0  0
   13.0920   -2.3900   25.1330 C   0  0  0  0  0  0  0  0  0  0  0  0
    3.1950    2.7740   23.1160 N   0  0  0  0  0  0  0  0  0  0  0  0
   10.6400    4.3740   23.8960 C   0  0  0  0  0  0  0  0  0  0  0  0
    8.7820    5.8190   22.9210 C   0  0  0  0  0  0  0  0  0  0  0  0
    5.1190   -5.9200   22.6470 C   0  0  0  0  0  0  0  0  0  0  0  0
    6.3500   -3.7950   23.2670 C   0  0  0  0  0  0  0  0  0  0  0  0
    2.3310    2.1730   24.1640 C   0  0  0  0  0  0  0  0  0  0  0  0
   10.1850    5.7730   23.5510 C   0  0  0  0  0  0  0  0  0  0  0  0
    5.2520   -4.7640   23.5660 N   0  0  0  0  0  0  0  0  0  0  0  0
   10.9890    6.8580   23.8010 O   0  0  0  0  0  0  0  0  0  0  0  0
    2.5580    0.8860   24.6860 O   0  0  0  0  0  0  0  0  0  0  0  0
    5.5400   -4.8940   25.1700 S   0  0  0  0  0  0  0  0  0  0  0  0
    1.2020    2.9300   24.7360 C   0  0  0  0  0  0  0  0  0  0  0  0
   11.8660    6.7300   24.9180 C   0  0  0  0  0  0  0  0  0  0  0  0
    5.1310   -4.7290   26.5330 O   0  0  0  0  0  0  0  0  0  0  0  0
    7.0690   -5.4860   25.5660 C   0  0  0  0  0  0  0  0  0  0  0  0
    1.4670    4.1020   25.4160 C   0  0  0  0  0  0  0  0  0  0  0  0
   -0.0780    2.3970   24.5540 C   0  0  0  0  0  0  0  0  0  0  0  0
    3.9960   -4.2090   25.6160 C   0  0  0  0  0  0  0  0  0  0  0  0
    2.7290    4.5460   25.5410 F   0  0  0  0  0  0  0  0  0  0  0  0
    7.8410   -5.8370   24.3350 C   0  0  0  0  0  0  0  0  0  0  0  0
   -1.2800    3.1300   25.1390 C   0  0  0  0  0  0  0  0  0  0  0  0
    0.4240    4.8570   25.9950 C   0  0  0  0  0  0  0  0  0  0  0  0
    7.8420   -5.6720   26.8620 C   0  0  1  0  0  0  0  0  0  0  0  0
    2.7290   -4.8450   25.4370 C   0  0  0  0  0  0  0  0  0  0  0  0
    3.9840   -2.8950   26.1590 C   0  0  0  0  0  0  0  0  0  0  0  0
    2.5430   -6.2300   24.8790 C   0  0  0  0  0  0  0  0  0  0  0  0
   -1.0380    4.4430   25.9130 C   0  0  0  0  0  0  0  0  0  0  0  0
    9.0310   -6.3940   26.4520 N   0  0  0  0  0  0  0  0  0  0  0  0
    8.2260   -4.4270   27.2530 C   0  0  0  0  0  0  0  0  0  0  0  0
    1.5190   -4.1900   25.7700 C   0  0  0  0  0  0  0  0  0  0  0  0
    2.8140   -2.2390   26.4920 C   0  0  0  0  0  0  0  0  0  0  0  0
    8.7260   -3.7310   26.0370 N   0  0  0  0  0  0  0  0  0  0  0  0
    9.9780   -5.6080   25.5540 C   0  0  0  0  0  0  0  0  0  0  0  0
    1.5080   -2.8890   26.2930 C   0  0  0  0  0  0  0  0  0  0  0  0
    0.2480   -2.1580   26.6440 C   0  0  0  0  0  0  0  0  0  0  0  0
    9.8200   -4.2270   25.4160 C   0  0  0  0  0  0  0  0  0  0  0  0
  1  2  1  0
  2  3  2  0
  1  4  1  0
  1  5  1  0
  2  6  1  0
  4  7  1  6
  4  8  1  0
  5  9  2  0
  5 10  1  0
  6 11  1  0
  7 12  1  0
  7 13  2  0
  8 14  1  0
  8 15  2  0
  9 16  1  0
 10 17  2  0
 16 17  1  0
 17 18  1  0
 14 19  1  0
 15 20  1  0
 14 21  2  0
 12 22  1  0
 11 23  1  0
 18 24  1  0
 18 25  1  0
 18 26  1  0
 19 27  1  0
 20 28  2  0
 21 28  1  0
 22 29  2  0
 22 30  1  0
 23 31  1  0
 23 32  1  0
 29 33  1  0
 26 34  1  0
 27 35  1  0
 29 36  1  0
 30 37  2  0
 31 38  1  0
 32 39  1  0
 35 40  1  0
 36 41  2  0
 37 41  1  0
 38 42  1  0
 39 42  1  0
 41 43  1  0
 40 44  2  0
 42 45  1  0
 40 46  1  0
 43 47  1  0
 45 48  2  0
 45 49  2  0
 46 50  2  0
 46 51  1  0
 45 52  1  0
 50 53  1  0
 49 54  1  0
 51 55  2  0
 50 56  1  0
 57 49  1  6
 52 58  2  0
 52 59  1  0
 58 60  1  0
 55 61  1  0
 56 61  2  0
 57 62  1  0
 57 63  1  0
 58 64  1  0
 59 65  2  0
 63 66  1  0
 62 67  1  0
 64 68  2  0
 65 68  1  0
 68 69  1  0
 66 70  1  0
 67 70  1  0
M  END
