x2694-x3115-x0426-x2776-x1311
     RDKit          3D

 63 68  0  0  0  0  0  0  0  0999 V2000
    6.8760   -1.4880   22.0800 C   0  0  1  0  0  0  0  0  0  0  0  0
    6.2170   -2.7480   21.2560 C   0  0  0  0  0  0  0  0  0  0  0  0
    4.9160   -3.0650   21.0830 O   0  0  0  0  0  0  0  0  0  0  0  0
    6.6490   -0.0070   21.6090 C   0  0  1  0  0  0  0  0  0  0  0  0
    6.0610   -1.6900   23.3780 C   0  0  0  0  0  0  0  0  0  0  0  0
    8.3550   -1.5540   22.6180 C   0  0  0  0  0  0  0  0  0  0  0  0
    7.1860   -3.7240   20.7110 C   0  0  0  0  0  0  0  0  0  0  0  0
    7.7840    1.1020   21.7510 C   0  0  0  0  0  0  0  0  0  0  0  0
    5.5470   -3.0130   23.6050 C   0  0  0  0  0  0  0  0  0  0  0  0
    6.0790    0.3750   20.2900 C   0  0  0  0  0  0  0  0  0  0  0  0
    8.5910   -1.7220   23.9360 N   0  0  0  0  0  0  0  0  0  0  0  0
    9.6430   -1.4490   22.0750 C   0  0  0  0  0  0  0  0  0  0  0  0
    7.5320   -3.3080   19.3220 C   0  0  0  0  0  0  0  0  0  0  0  0
    7.6040    2.0950   22.7510 N   0  0  0  0  0  0  0  0  0  0  0  0
    8.7740    1.1750   21.0330 O   0  0  0  0  0  0  0  0  0  0  0  0
    6.2380   -4.2600   23.0870 N   0  0  0  0  0  0  0  0  0  0  0  0
    4.7860    0.9310   20.2060 C   0  0  0  0  0  0  0  0  0  0  0  0
    6.7880    0.2280   19.1140 C   0  0  0  0  0  0  0  0  0  0  0  0
    9.9650   -1.7170   24.1800 O   0  0  0  0  0  0  0  0  0  0  0  0
   10.6580   -1.5430   23.0300 C   0  0  0  0  0  0  0  0  0  0  0  0
   12.2200   -1.5010   23.1210 C   0  0  0  0  0  0  0  0  0  0  0  0
    3.8740    1.1530   21.2740 C   0  0  0  0  0  0  0  0  0  0  0  0
    6.4180    0.5680   17.8600 N   0  0  0  0  0  0  0  0  0  0  0  0
    4.3470    1.3100   18.9410 C   0  0  0  0  0  0  0  0  0  0  0  0
    8.4410    3.2330   23.0000 C   0  0  0  0  0  0  0  0  0  0  0  0
    7.3780   -4.4960   23.8530 C   0  0  0  0  0  0  0  0  0  0  0  0
    5.5180   -5.5340   23.3710 C   0  0  2  0  0  0  0  0  0  0  0  0
   12.6170   -0.3910   23.7580 C   0  0  0  0  0  0  0  0  0  0  0  0
   12.8340   -1.6250   21.7240 C   0  0  0  0  0  0  0  0  0  0  0  0
   12.7460   -2.7530   23.8280 C   0  0  0  0  0  0  0  0  0  0  0  0
    4.2830    1.9550   22.3340 C   0  0  0  0  0  0  0  0  0  0  0  0
    5.1630    1.1280   17.8250 C   0  0  0  0  0  0  0  0  0  0  0  0
    9.6620    3.0550   23.6870 C   0  0  0  0  0  0  0  0  0  0  0  0
    8.1430    4.5650   22.6040 C   0  0  0  0  0  0  0  0  0  0  0  0
    8.2630   -5.6820   23.4810 C   0  0  0  0  0  0  0  0  0  0  0  0
    7.7550   -3.7510   24.9470 C   0  0  0  0  0  0  0  0  0  0  0  0
    4.6880   -6.1890   22.3090 C   0  0  0  0  0  0  0  0  0  0  0  0
    4.6260   -5.3950   24.6000 C   0  0  0  0  0  0  0  0  0  0  0  0
   10.1540    1.7000   24.1840 C   0  0  0  0  0  0  0  0  0  0  0  0
   13.0410   -2.7080   25.3270 C   0  0  0  0  0  0  0  0  0  0  0  0
    3.2410    2.6900   23.0510 N   0  0  0  0  0  0  0  0  0  0  0  0
   10.5100    4.2930   23.9340 C   0  0  0  0  0  0  0  0  0  0  0  0
    8.9420    5.7000   22.8430 C   0  0  0  0  0  0  0  0  0  0  0  0
    9.3590   -5.9070   24.2870 C   0  0  0  0  0  0  0  0  0  0  0  0
    8.8810   -4.0520   25.6830 C   0  0  0  0  0  0  0  0  0  0  0  0
    3.4930   -6.7070   24.3770 S   0  0  0  0  0  0  0  0  0  0  0  0
    3.5880   -6.8480   22.7350 C   0  0  0  0  0  0  0  0  0  0  0  0
    8.4660    7.0270   22.3460 C   0  0  0  0  0  0  0  0  0  0  0  0
    2.2660    1.8750   23.7730 C   0  0  0  0  0  0  0  0  0  0  0  0
    3.9860   -7.9830   25.1770 O   0  0  0  0  0  0  0  0  0  0  0  0
    2.0560   -6.2050   24.8170 O   0  0  0  0  0  0  0  0  0  0  0  0
   10.1450    5.5560   23.5290 C   0  0  0  0  0  0  0  0  0  0  0  0
    9.6740   -5.1200   25.3590 C   0  0  0  0  0  0  0  0  0  0  0  0
   10.8940    6.6910   23.7560 O   0  0  0  0  0  0  0  0  0  0  0  0
    2.2560    0.5170   23.7920 O   0  0  0  0  0  0  0  0  0  0  0  0
    1.2290    2.6160   24.5240 C   0  0  0  0  0  0  0  0  0  0  0  0
   11.8510    6.6500   24.8240 C   0  0  0  0  0  0  0  0  0  0  0  0
    1.4640    3.8010   25.2270 C   0  0  0  0  0  0  0  0  0  0  0  0
   -0.2230    2.1100   24.5800 C   0  0  0  0  0  0  0  0  0  0  0  0
    2.6980    4.3280   25.2450 F   0  0  0  0  0  0  0  0  0  0  0  0
   -1.1580    2.8430   25.2960 C   0  0  0  0  0  0  0  0  0  0  0  0
    0.4640    4.4840   25.9280 C   0  0  0  0  0  0  0  0  0  0  0  0
   -0.8490    4.0080   25.9650 C   0  0  0  0  0  0  0  0  0  0  0  0
  1  2  1  0
  2  3  2  0
  1  4  1  0
  1  5  1  1
  1  6  1  0
  2  7  1  0
  4  8  1  6
  5  9  1  0
  4 10  1  0
  6 11  2  0
  6 12  1  0
  7 13  1  0
  8 14  1  0
  8 15  2  0
  9 16  1  0
 10 17  1  0
 10 18  2  0
 11 19  1  0
 12 20  2  0
 19 20  1  0
 20 21  1  0
 17 22  1  0
 18 23  1  0
 17 24  2  0
 14 25  1  0
 16 26  1  0
 27 16  1  6
 21 28  1  0
 21 29  1  0
 21 30  1  0
 22 31  1  0
 23 32  2  0
 24 32  1  0
 25 33  2  0
 25 34  1  0
 26 35  2  0
 26 36  1  0
 27 37  1  0
 27 38  1  0
 33 39  1  0
 30 40  1  0
 31 41  1  0
 33 42  1  0
 34 43  2  0
 35 44  1  0
 36 45  2  0
 38 46  1  0
 37 47  2  0
 46 47  1  0
 43 48  1  0
 41 49  1  0
 46 50  1  0
 46 51  1  0
 42 52  2  0
 43 52  1  0
 44 53  2  0
 45 53  1  0
 52 54  1  0
 49 55  2  0
 49 56  1  0
 54 57  1  0
 56 58  2  0
 56 59  1  0
 58 60  1  0
 59 61  2  0
 58 62  1  0
 61 63  1  0
 62 63  2  0
M  END
