x2694-x1402-x2703
     RDKit          3D

 54 59  0  0  0  0  0  0  0  0999 V2000
    6.7880   -1.2810   22.0240 C   0  0  1  0  0  0  0  0  0  0  0  0
    5.9010   -2.2690   21.0470 C   0  0  0  0  0  0  0  0  0  0  0  0
    4.7260   -2.8870   21.2160 O   0  0  0  0  0  0  0  0  0  0  0  0
    6.5530    0.2420   21.7760 C   0  0  1  0  0  0  0  0  0  0  0  0
    5.9560   -1.9750   23.0540 C   0  0  0  0  0  0  0  0  0  0  0  0
    8.2360   -1.5010   22.6540 C   0  0  0  0  0  0  0  0  0  0  0  0
    6.3780   -2.6440   19.7980 C   0  0  0  0  0  0  0  0  0  0  0  0
    7.7130    1.3100   22.0510 C   0  0  0  0  0  0  0  0  0  0  0  0
    5.5930   -3.3470   22.8050 C   0  0  0  0  0  0  0  0  0  0  0  0
    6.0070    0.6190   20.4220 C   0  0  0  0  0  0  0  0  0  0  0  0
    8.5720   -1.8880   24.0480 N   0  0  0  0  0  0  0  0  0  0  0  0
    9.5760   -1.3050   21.9840 C   0  0  0  0  0  0  0  0  0  0  0  0
    6.6570   -4.0430   20.1390 C   0  0  0  0  0  0  0  0  0  0  0  0
    7.4390    2.6060   22.6140 N   0  0  0  0  0  0  0  0  0  0  0  0
    9.0140    0.9780   21.6100 O   0  0  0  0  0  0  0  0  0  0  0  0
    4.7860    1.2810   20.2670 C   0  0  0  0  0  0  0  0  0  0  0  0
    6.7560    0.3240   19.1380 C   0  0  0  0  0  0  0  0  0  0  0  0
    9.8770   -1.8900   24.1360 O   0  0  0  0  0  0  0  0  0  0  0  0
   10.5620   -1.5470   22.9540 C   0  0  0  0  0  0  0  0  0  0  0  0
    6.4150   -4.3590   21.7810 C   0  0  0  0  0  0  0  0  0  0  0  0
   12.1360   -1.5190   23.0550 C   0  0  0  0  0  0  0  0  0  0  0  0
    6.4080    0.6390   17.7680 N   0  0  0  0  0  0  0  0  0  0  0  0
    4.3520    1.6500   18.8690 C   0  0  0  0  0  0  0  0  0  0  0  0
    8.4540    3.5530   22.9940 C   0  0  0  0  0  0  0  0  0  0  0  0
    7.5740   -4.8830   22.5730 C   0  0  0  0  0  0  0  0  0  0  0  0
    5.5680   -5.6880   21.8020 C   0  0  0  0  0  0  0  0  0  0  0  0
    6.5680    3.3770   21.7180 C   0  0  0  0  0  0  0  0  0  0  0  0
   12.5650   -0.1280   23.5150 C   0  0  0  0  0  0  0  0  0  0  0  0
   12.7910   -1.6810   21.6810 C   0  0  0  0  0  0  0  0  0  0  0  0
   12.6070   -2.7230   23.7790 C   0  0  0  0  0  0  0  0  0  0  0  0
    5.1960    1.3130   17.6980 C   0  0  0  0  0  0  0  0  0  0  0  0
    9.6810    3.2390   23.5850 C   0  0  0  0  0  0  0  0  0  0  0  0
    8.1480    5.0650   22.7200 C   0  0  0  0  0  0  0  0  0  0  0  0
    7.1840   -5.1250   24.0250 C   0  0  0  0  0  0  0  0  0  0  0  0
    4.8880   -5.8650   23.0370 C   0  0  0  0  0  0  0  0  0  0  0  0
    5.4740    3.9730   22.3190 C   0  0  0  0  0  0  0  0  0  0  0  0
   10.1630    1.8420   23.9470 C   0  0  0  0  0  0  0  0  0  0  0  0
   12.9460   -2.5800   25.1060 C   0  0  0  0  0  0  0  0  0  0  0  0
   10.6070    4.2430   23.9100 C   0  0  0  0  0  0  0  0  0  0  0  0
    9.1390    5.9560   23.0960 C   0  0  0  0  0  0  0  0  0  0  0  0
    5.8110   -5.6990   24.1940 N   0  0  0  0  0  0  0  0  0  0  0  0
    9.2180    1.1420   24.9500 C   0  0  0  0  0  0  0  0  0  0  0  0
    5.1400   -5.5580   25.7420 S   0  0  0  0  0  0  0  0  0  0  0  0
   10.3320    5.5890   23.6730 C   0  0  0  0  0  0  0  0  0  0  0  0
   11.1720    6.6280   23.9750 O   0  0  0  0  0  0  0  0  0  0  0  0
    4.1140   -6.5690   25.6660 O   0  0  0  0  0  0  0  0  0  0  0  0
    5.9450   -5.5020   26.9400 O   0  0  0  0  0  0  0  0  0  0  0  0
    4.2810   -4.1330   25.8600 C   0  0  0  0  0  0  0  0  0  0  0  0
   11.8780    6.5750   25.2060 C   0  0  0  0  0  0  0  0  0  0  0  0
    2.5820   -3.9770   25.9710 S   0  0  0  0  0  0  0  0  0  0  0  0
    4.6500   -2.6490   25.9160 C   0  0  0  0  0  0  0  0  0  0  0  0
    3.6180   -1.7570   26.0330 C   0  0  0  0  0  0  0  0  0  0  0  0
    2.3090   -2.2480   26.0960 C   0  0  0  0  0  0  0  0  0  0  0  0
    0.8130   -1.3700   26.2640 Cl  0  0  0  0  0  0  0  0  0  0  0  0
  1  2  1  0
  2  3  2  0
  1  4  1  0
  1  5  1  0
  1  6  1  1
  2  7  1  0
  4  8  1  6
  5  9  1  0
  4 10  1  0
  6 11  2  0
  6 12  1  0
  7 13  1  0
  8 14  1  0
  8 15  2  0
 10 16  2  0
 10 17  1  0
 11 18  1  0
 12 19  2  0
 18 19  1  0
 20  9  1  0
 13 20  1  0
 19 21  1  0
 17 22  2  0
 16 23  1  0
 14 24  1  0
 20 25  1  0
 20 26  1  0
 14 27  1  0
 21 28  1  0
 21 29  1  0
 21 30  1  0
 22 31  1  0
 23 31  2  0
 24 32  2  0
 24 33  1  0
 25 34  1  0
 26 35  1  0
 27 36  1  0
 32 37  1  0
 30 38  1  0
 32 39  1  0
 33 40  2  0
 34 41  1  0
 35 41  1  0
 37 42  1  0
 41 43  1  0
 39 44  2  0
 40 44  1  0
 44 45  1  0
 43 46  2  0
 43 47  2  0
 43 48  1  0
 45 49  1  0
 48 50  1  0
 48 51  2  0
 51 52  1  0
 50 53  1  0
 52 53  2  0
 53 54  1  0
M  END
