x2694-x3117-x1358-x2776-x1311
     RDKit          3D

 63 70  0  0  0  0  0  0  0  0999 V2000
    7.0400   -1.1890   21.5400 C   0  0  1  0  0  0  0  0  0  0  0  0
    6.1800   -2.5970   21.0890 C   0  0  0  0  0  0  0  0  0  0  0  0
    4.8900   -2.9470   20.6770 O   0  0  0  0  0  0  0  0  0  0  0  0
    6.6820    0.2910   21.4030 C   0  0  1  0  0  0  0  0  0  0  0  0
    6.5190   -1.7990   22.7680 C   0  0  0  0  0  0  0  0  0  0  0  0
    8.4850   -1.1860   22.2280 C   0  0  0  0  0  0  0  0  0  0  0  0
    7.8040    1.3360   21.7260 C   0  0  0  0  0  0  0  0  0  0  0  0
    6.0540    0.7450   20.1700 C   0  0  0  0  0  0  0  0  0  0  0  0
    8.6520   -0.6060   23.5890 N   0  0  0  0  0  0  0  0  0  0  0  0
    9.7830   -1.6190   21.8960 C   0  0  0  0  0  0  0  0  0  0  0  0
    6.9580   -3.7980   21.4730 C   0  0  2  0  0  0  0  0  0  0  0  0
    7.5530   -2.8670   22.4650 C   0  0  2  0  0  0  0  0  0  0  0  0
    8.1580   -4.5190   20.8810 C   0  0  0  0  0  0  0  0  0  0  0  0
    7.6620    2.0840   22.6360 N   0  0  0  0  0  0  0  0  0  0  0  0
    8.8090    1.4110   21.0240 O   0  0  0  0  0  0  0  0  0  0  0  0
    4.9000    1.5340   20.1590 C   0  0  0  0  0  0  0  0  0  0  0  0
    6.7410    0.3300   19.0120 C   0  0  0  0  0  0  0  0  0  0  0  0
    9.9990   -0.7340   23.9300 O   0  0  0  0  0  0  0  0  0  0  0  0
   10.6790   -1.3290   22.9220 C   0  0  0  0  0  0  0  0  0  0  0  0
    8.1080   -3.5370   23.4730 C   0  0  0  0  0  0  0  0  0  0  0  0
    6.0250   -4.7420   22.0660 C   0  0  0  0  0  0  0  0  0  0  0  0
   12.1540   -1.4830   23.2010 C   0  0  0  0  0  0  0  0  0  0  0  0
    6.3220    0.7010   17.7330 N   0  0  0  0  0  0  0  0  0  0  0  0
    4.4590    1.9180   18.9170 C   0  0  0  0  0  0  0  0  0  0  0  0
    8.4180    3.2910   22.9140 C   0  0  0  0  0  0  0  0  0  0  0  0
    7.2700   -4.4840   23.9790 C   0  0  2  0  0  0  0  0  0  0  0  0
    5.9760   -4.6290   23.4240 C   0  0  2  0  0  0  0  0  0  0  0  0
   12.6800   -0.2560   23.9500 C   0  0  0  0  0  0  0  0  0  0  0  0
   12.9290   -1.5110   21.8830 C   0  0  0  0  0  0  0  0  0  0  0  0
   12.5220   -2.7930   23.9310 C   0  0  0  0  0  0  0  0  0  0  0  0
    5.1510    1.5320   17.6210 C   0  0  0  0  0  0  0  0  0  0  0  0
    9.6640    3.1730   23.5660 C   0  0  0  0  0  0  0  0  0  0  0  0
    7.9330    4.5580   22.5470 C   0  0  0  0  0  0  0  0  0  0  0  0
    7.6210   -4.0460   25.4920 C   0  0  2  0  0  0  0  0  0  0  0  0
    8.0000   -5.7520   23.5080 C   0  0  0  0  0  0  0  0  0  0  0  0
    5.2950   -5.9690   23.7210 C   0  0  2  0  0  0  0  0  0  0  0  0
   10.1760    1.8220   23.9550 C   0  0  0  0  0  0  0  0  0  0  0  0
   12.9840   -2.7620   25.2410 C   0  0  0  0  0  0  0  0  0  0  0  0
   10.5160    4.4090   23.8890 C   0  0  0  0  0  0  0  0  0  0  0  0
    8.7350    5.8490   22.8480 C   0  0  0  0  0  0  0  0  0  0  0  0
    9.0980   -6.2000   24.0620 C   0  0  0  0  0  0  0  0  0  0  0  0
    9.0140   -4.5360   25.9070 C   0  0  0  0  0  0  0  0  0  0  0  0
    4.4310   -6.4990   22.5870 C   0  0  0  0  0  0  0  0  0  0  0  0
    4.6090   -5.9840   24.8960 C   0  0  0  0  0  0  0  0  0  0  0  0
    6.6020   -4.1190   26.6610 C   0  0  0  0  0  0  0  0  0  0  0  0
   10.0760    5.6780   23.5560 C   0  0  0  0  0  0  0  0  0  0  0  0
    9.7160   -5.6140   25.1380 C   0  0  0  0  0  0  0  0  0  0  0  0
    3.1310   -6.9410   24.5770 S   0  0  0  0  0  0  0  0  0  0  0  0
    3.2500   -7.0330   22.9170 C   0  0  0  0  0  0  0  0  0  0  0  0
    5.7650   -2.9130   26.5590 N   0  0  0  0  0  0  0  0  0  0  0  0
   10.9360    6.7110   23.9150 O   0  0  0  0  0  0  0  0  0  0  0  0
    3.5000   -8.3470   25.2840 O   0  0  0  0  0  0  0  0  0  0  0  0
    1.9190   -6.2270   24.8730 O   0  0  0  0  0  0  0  0  0  0  0  0
    4.5540   -3.0310   25.8310 C   0  0  0  0  0  0  0  0  0  0  0  0
    5.9230   -1.7290   27.3390 C   0  0  0  0  0  0  0  0  0  0  0  0
   11.8400    6.4960   25.0000 C   0  0  0  0  0  0  0  0  0  0  0  0
    4.2790   -2.5570   24.7540 O   0  0  0  0  0  0  0  0  0  0  0  0
    5.8280   -0.3380   26.6890 C   0  0  0  0  0  0  0  0  0  0  0  0
    6.1550   -1.8500   28.7210 C   0  0  0  0  0  0  0  0  0  0  0  0
    5.5930   -0.1780   25.3480 O   0  0  0  0  0  0  0  0  0  0  0  0
    6.3070   -0.7140   29.5290 C   0  0  0  0  0  0  0  0  0  0  0  0
    5.9800    0.7950   27.4970 C   0  0  0  0  0  0  0  0  0  0  0  0
    6.2110    0.6380   28.8520 C   0  0  0  0  0  0  0  0  0  0  0  0
  1  2  1  0
  2  3  2  0
  1  4  1  0
  1  5  1  0
  1  6  1  1
  4  7  1  6
  4  8  1  0
  6  9  2  0
  6 10  1  0
  2 11  1  0
 12  5  1  1
 11 12  1  0
 11 13  1  6
  7 14  1  0
  7 15  2  0
  8 16  2  0
  8 17  1  0
  9 18  1  0
 10 19  2  0
 18 19  1  0
 12 20  1  0
 11 21  1  0
 19 22  1  0
 17 23  2  0
 16 24  1  0
 14 25  1  0
 26 20  1  6
 27 21  1  6
 26 27  1  0
 22 28  1  0
 22 29  1  0
 22 30  1  0
 23 31  1  0
 24 31  2  0
 25 32  2  0
 25 33  1  0
 26 34  1  0
 26 35  1  0
 27 36  1  0
 32 37  1  0
 30 38  1  0
 32 39  1  0
 33 40  2  0
 35 41  2  0
 34 42  1  0
 36 43  1  6
 36 44  1  0
 34 45  1  1
 39 46  2  0
 40 46  1  0
 41 47  1  0
 42 47  2  0
 44 48  1  0
 43 49  2  0
 48 49  1  0
 45 50  1  0
 46 51  1  0
 48 52  1  0
 48 53  1  0
 50 54  1  0
 50 55  1  0
 51 56  1  0
 54 57  2  0
 55 58  2  0
 55 59  1  0
 58 60  1  0
 59 61  2  0
 58 62  1  0
 61 63  1  0
 62 63  2  0
M  END
