x2694-x1380
     RDKit          3D

 47 52  0  0  0  0  0  0  0  0999 V2000
    7.0760   -1.5100   21.7230 C   0  0  2  0  0  0  0  0  0  0  0  0
    6.1190   -2.8370   21.2810 C   0  0  0  0  0  0  0  0  0  0  0  0
    4.9030   -3.0090   20.8370 O   0  0  0  0  0  0  0  0  0  0  0  0
    6.6420    0.0210   21.5710 C   0  0  1  0  0  0  0  0  0  0  0  0
    6.4570   -2.0940   22.9610 C   0  0  0  0  0  0  0  0  0  0  0  0
    8.5010   -1.4820   22.3990 C   0  0  0  0  0  0  0  0  0  0  0  0
    7.7840    1.1690   21.7520 C   0  0  0  0  0  0  0  0  0  0  0  0
    6.0410    0.5130   20.2520 C   0  0  0  0  0  0  0  0  0  0  0  0
    8.5970   -1.1510   23.7820 N   0  0  0  0  0  0  0  0  0  0  0  0
    9.7950   -1.6950   21.9960 C   0  0  0  0  0  0  0  0  0  0  0  0
    6.8480   -4.1110   21.6420 C   0  0  2  0  0  0  0  0  0  0  0  0
    7.2570   -3.3950   22.9030 C   0  0  2  0  0  0  0  0  0  0  0  0
    6.7690   -3.6530   20.1310 C   0  0  0  0  0  0  0  0  0  0  0  0
    7.5790    2.1080   22.7270 N   0  0  0  0  0  0  0  0  0  0  0  0
    8.7590    1.2070   21.0250 O   0  0  0  0  0  0  0  0  0  0  0  0
    4.9030    1.2980   20.0910 C   0  0  0  0  0  0  0  0  0  0  0  0
    6.7910    0.0980   19.1550 C   0  0  0  0  0  0  0  0  0  0  0  0
    9.9620   -1.1820   24.1100 O   0  0  0  0  0  0  0  0  0  0  0  0
   10.7230   -1.5100   23.0130 C   0  0  0  0  0  0  0  0  0  0  0  0
    5.7790   -5.1510   22.0190 C   0  0  0  0  0  0  0  0  0  0  0  0
    7.1980   -4.1110   24.0480 C   0  0  0  0  0  0  0  0  0  0  0  0
   12.2740   -1.5670   23.1950 C   0  0  0  0  0  0  0  0  0  0  0  0
    6.3790    0.5040   17.8200 N   0  0  0  0  0  0  0  0  0  0  0  0
    4.4850    1.6990   18.8350 C   0  0  0  0  0  0  0  0  0  0  0  0
    8.4380    3.2620   23.0160 C   0  0  0  0  0  0  0  0  0  0  0  0
    5.0950   -4.7560   23.1780 C   0  0  0  0  0  0  0  0  0  0  0  0
    5.9330   -4.6230   24.2900 C   0  0  2  0  0  0  0  0  0  0  0  0
   12.7790   -0.1780   23.4930 C   0  0  0  0  0  0  0  0  0  0  0  0
   12.9520   -2.0270   21.8890 C   0  0  0  0  0  0  0  0  0  0  0  0
   12.6940   -2.5110   24.3450 C   0  0  0  0  0  0  0  0  0  0  0  0
    5.2840   -3.6490   25.2540 C   0  0  0  0  0  0  0  0  0  0  0  0
    5.2550    1.2790   17.7740 C   0  0  0  0  0  0  0  0  0  0  0  0
    9.7000    3.1580   23.6040 C   0  0  0  0  0  0  0  0  0  0  0  0
    8.0080    4.6470   22.6920 C   0  0  0  0  0  0  0  0  0  0  0  0
   10.2670    1.8190   23.9890 C   0  0  0  0  0  0  0  0  0  0  0  0
    4.6530   -2.6910   24.8360 O   0  0  0  0  0  0  0  0  0  0  0  0
   10.4950    4.2740   23.8650 C   0  0  0  0  0  0  0  0  0  0  0  0
    8.8580    5.7520   22.9880 C   0  0  0  0  0  0  0  0  0  0  0  0
    5.4560   -3.9140   26.6930 N   0  0  0  0  0  0  0  0  0  0  0  0
   10.1360    5.6060   23.5910 C   0  0  0  0  0  0  0  0  0  0  0  0
    6.5900   -3.4800   27.4130 C   0  0  0  0  0  0  0  0  0  0  0  0
    4.3000   -4.0200   27.5570 C   0  0  0  0  0  0  0  0  0  0  0  0
   10.9110    6.7110   23.8590 O   0  0  0  0  0  0  0  0  0  0  0  0
    7.0380   -4.6010   28.3510 C   0  0  0  0  0  0  0  0  0  0  0  0
    4.6280   -4.8980   28.7820 C   0  0  0  0  0  0  0  0  0  0  0  0
   11.8740    6.5800   24.9080 C   0  0  0  0  0  0  0  0  0  0  0  0
    5.9960   -4.7480   29.4030 C   0  0  0  0  0  0  0  0  0  0  0  0
  1  2  1  0
  2  3  2  0
  1  4  1  0
  1  5  1  0
  1  6  1  1
  4  7  1  6
  4  8  1  0
  6  9  2  0
  6 10  1  0
  2 11  1  0
 12  5  1  1
 11 12  1  0
 11 13  1  6
  7 14  1  0
  7 15  2  0
  8 16  2  0
  8 17  1  0
  9 18  1  0
 10 19  2  0
 18 19  1  0
 11 20  1  0
 12 21  1  0
 19 22  1  0
 17 23  2  0
 16 24  1  0
 14 25  1  0
 20 26  1  0
 21 27  1  0
 26 27  1  0
 22 28  1  0
 22 29  1  0
 22 30  1  0
 27 31  1  1
 23 32  1  0
 24 32  2  0
 25 33  2  0
 25 34  1  0
 33 35  1  0
 31 36  2  0
 33 37  1  0
 34 38  2  0
 31 39  1  0
 37 40  2  0
 38 40  1  0
 39 41  1  0
 39 42  1  0
 40 43  1  0
 41 44  1  0
 42 45  1  0
 43 46  1  0
 44 47  1  0
 45 47  1  0
M  END
