x2694-x0691-x1493-x1119-x2776
     RDKit          3D

 79 86  0  0  0  0  0  0  0  0999 V2000
    6.7170   -1.3220   21.8480 C   0  0  1  0  0  0  0  0  0  0  0  0
    6.0800   -2.3740   20.7590 C   0  0  0  0  0  0  0  0  0  0  0  0
    4.8780   -2.9640   20.6910 O   0  0  0  0  0  0  0  0  0  0  0  0
    6.6100    0.1900   21.5280 C   0  0  1  0  0  0  0  0  0  0  0  0
    5.6950   -1.6270   22.8930 C   0  0  0  0  0  0  0  0  0  0  0  0
    8.2100   -1.4340   22.4790 C   0  0  0  0  0  0  0  0  0  0  0  0
    7.0020   -2.6900   19.6680 C   0  0  0  0  0  0  0  0  0  0  0  0
    7.6590    1.1640   21.7920 C   0  0  0  0  0  0  0  0  0  0  0  0
    5.0660   -2.8590   22.6080 C   0  0  0  0  0  0  0  0  0  0  0  0
    6.1380    0.6210   20.1990 C   0  0  0  0  0  0  0  0  0  0  0  0
    8.3830   -1.5710   23.9330 N   0  0  0  0  0  0  0  0  0  0  0  0
    9.5530   -1.4100   22.0070 C   0  0  0  0  0  0  0  0  0  0  0  0
    6.4110   -3.9990   20.2810 C   0  0  0  0  0  0  0  0  0  0  0  0
    7.5840    1.9160   22.7030 N   0  0  0  0  0  0  0  0  0  0  0  0
    8.6260    1.2480   21.0270 O   0  0  0  0  0  0  0  0  0  0  0  0
    4.9050    1.5350   20.1470 C   0  0  0  0  0  0  0  0  0  0  0  0
    6.8150    0.2060   19.0490 C   0  0  0  0  0  0  0  0  0  0  0  0
    9.7470   -1.6160   24.2170 O   0  0  0  0  0  0  0  0  0  0  0  0
   10.4790   -1.5190   23.0790 C   0  0  0  0  0  0  0  0  0  0  0  0
    5.9790   -4.0390   21.9310 C   0  0  2  0  0  0  0  0  0  0  0  0
   12.0220   -1.5380   23.1670 C   0  0  0  0  0  0  0  0  0  0  0  0
    6.4070    0.6130   17.7980 N   0  0  0  0  0  0  0  0  0  0  0  0
    4.5480    1.9140   18.7880 C   0  0  0  0  0  0  0  0  0  0  0  0
    8.3670    3.0950   22.9560 C   0  0  0  0  0  0  0  0  0  0  0  0
    5.2770   -5.2510   22.1150 C   0  0  0  0  0  0  0  0  0  0  0  0
    7.0620   -4.1770   23.0580 C   0  0  0  0  0  0  0  0  0  0  0  0
   12.5720   -0.2160   23.6900 C   0  0  0  0  0  0  0  0  0  0  0  0
   12.6730   -1.7310   21.7750 C   0  0  0  0  0  0  0  0  0  0  0  0
   12.4800   -2.6970   24.0200 C   0  0  0  0  0  0  0  0  0  0  0  0
    5.2430    1.4960   17.6580 C   0  0  0  0  0  0  0  0  0  0  0  0
    9.5830    2.9480   23.6190 C   0  0  0  0  0  0  0  0  0  0  0  0
    7.9320    4.5170   22.5310 C   0  0  0  0  0  0  0  0  0  0  0  0
    4.5810   -5.4240   23.4570 C   0  0  0  0  0  0  0  0  0  0  0  0
    6.3890   -3.9410   24.4410 C   0  0  0  0  0  0  0  0  0  0  0  0
   10.1040    1.6220   24.0840 C   0  0  0  0  0  0  0  0  0  0  0  0
   13.3180   -2.5060   25.1070 C   0  0  0  0  0  0  0  0  0  0  0  0
   10.4610    4.1650   23.9070 C   0  0  0  0  0  0  0  0  0  0  0  0
    8.7900    5.7480   22.8180 C   0  0  0  0  0  0  0  0  0  0  0  0
    5.4560   -4.9700   24.6930 C   0  0  1  0  0  0  0  0  0  0  0  0
    4.4890   -5.0260   26.2170 S   0  0  0  0  0  0  0  0  0  0  0  0
    6.2650   -6.1170   24.9630 C   0  0  0  0  0  0  0  0  0  0  0  0
   10.1280    5.5970   23.5410 C   0  0  0  0  0  0  0  0  0  0  0  0
   10.8890    6.6910   23.7860 O   0  0  0  0  0  0  0  0  0  0  0  0
    3.8930   -6.3490   26.2810 O   0  0  0  0  0  0  0  0  0  0  0  0
    5.3330   -4.5590   27.2900 O   0  0  0  0  0  0  0  0  0  0  0  0
    7.3270   -5.8820   25.8230 C   0  0  0  0  0  0  0  0  0  0  0  0
    3.1850   -3.9580   26.0720 C   0  0  0  0  0  0  0  0  0  0  0  0
   12.2890    6.4590   23.7900 C   0  0  0  0  0  0  0  0  0  0  0  0
    7.2100   -5.6740   27.0100 O   0  0  0  0  0  0  0  0  0  0  0  0
    3.5170   -2.6210   26.1020 C   0  0  0  0  0  0  0  0  0  0  0  0
    1.7100   -4.3290   25.9160 C   0  0  0  0  0  0  0  0  0  0  0  0
   12.7580    5.6310   22.5540 C   0  0  0  0  0  0  0  0  0  0  0  0
    2.6550   -1.5590   26.0160 C   0  0  0  0  0  0  0  0  0  0  0  0
    0.7800   -3.2610   25.8250 C   0  0  0  0  0  0  0  0  0  0  0  0
   13.8050    4.5670   22.9380 C   0  0  0  0  0  0  0  0  0  0  0  0
    3.0750   -0.2910   26.0590 F   0  0  0  0  0  0  0  0  0  0  0  0
    1.1530   -1.9540   25.8700 C   0  0  0  0  0  0  0  0  0  0  0  0
   14.8370    5.0710   22.2620 C   0  0  0  0  0  0  0  0  0  0  0  0
   16.1130    4.3730   22.4970 C   0  0  0  0  0  0  0  0  0  0  0  0
   17.0530    4.8990   23.4530 C   0  0  0  0  0  0  0  0  0  0  0  0
   18.4570    4.9420   23.2180 C   0  0  0  0  0  0  0  0  0  0  0  0
   19.1040    6.2180   23.6230 C   0  0  0  0  0  0  0  0  0  0  0  0
   20.3520    6.5640   22.9900 N   0  0  0  0  0  0  0  0  0  0  0  0
   21.4030    5.7690   23.3950 C   0  0  0  0  0  0  0  0  0  0  0  0
   22.7640    5.9400   23.0690 C   0  0  0  0  0  0  0  0  0  0  0  0
   20.7690    4.7980   24.1800 C   0  0  0  0  0  0  0  0  0  0  0  0
   23.6990    5.0440   23.5750 C   0  0  0  0  0  0  0  0  0  0  0  0
   21.8290    4.0290   24.5770 C   0  0  0  0  0  0  0  0  0  0  0  0
   23.1240    4.0870   24.3530 C   0  0  0  0  0  0  0  0  0  0  0  0
   23.9260    2.7460   25.2000 S   0  0  0  0  0  0  0  0  0  0  0  0
   22.9060    1.7240   25.3500 O   0  0  0  0  0  0  0  0  0  0  0  0
   24.2310    3.2640   26.8050 N   0  0  0  0  0  0  0  0  0  0  0  0
   25.1790    2.4380   24.5630 O   0  0  0  0  0  0  0  0  0  0  0  0
   25.0490    4.3510   27.1010 C   0  0  0  0  0  0  0  0  0  0  0  0
   25.0680    4.5970   28.5550 N   0  0  0  0  0  0  0  0  0  0  0  0
   25.8230    5.1750   26.0800 C   0  0  0  0  0  0  0  0  0  0  0  0
   25.8970    5.7160   28.9840 C   0  0  0  0  0  0  0  0  0  0  0  0
   26.6670    6.3300   26.6270 C   0  0  0  0  0  0  0  0  0  0  0  0
   26.6780    6.5500   27.9700 C   0  0  0  0  0  0  0  0  0  0  0  0
  1  2  1  0
  2  3  2  0
  1  4  1  0
  1  5  1  0
  1  6  1  1
  2  7  1  0
  4  8  1  6
  5  9  1  0
  4 10  1  0
  6 11  2  0
  6 12  1  0
  7 13  1  0
  8 14  1  0
  8 15  2  0
 10 16  2  0
 10 17  1  0
 11 18  1  0
 12 19  2  0
 18 19  1  0
 20  9  1  1
 13 20  1  0
 19 21  1  0
 17 22  2  0
 16 23  1  0
 14 24  1  0
 20 25  1  0
 20 26  1  0
 21 27  1  0
 21 28  1  0
 21 29  1  0
 22 30  1  0
 23 30  2  0
 24 31  2  0
 24 32  1  0
 25 33  1  0
 26 34  1  0
 31 35  1  0
 29 36  1  0
 31 37  1  0
 32 38  2  0
 33 39  1  0
 34 39  1  0
 39 40  1  0
 39 41  1  1
 37 42  2  0
 38 42  1  0
 42 43  1  0
 40 44  2  0
 40 45  2  0
 41 46  1  0
 40 47  1  0
 43 48  1  0
 46 49  2  0
 47 50  2  0
 47 51  1  0
 48 52  1  0
 50 53  1  0
 51 54  2  0
 52 55  1  0
 53 56  1  0
 53 57  2  0
 54 57  1  0
 55 58  1  0
 58 59  1  0
 59 60  1  0
 60 61  1  0
 61 62  1  0
 62 63  1  0
 63 64  1  0
 64 65  2  0
 64 66  1  0
 65 67  1  0
 66 68  2  0
 67 69  2  0
 68 69  1  0
 69 70  1  0
 70 71  2  0
 70 72  1  0
 70 73  2  0
 72 74  1  0
 74 75  2  0
 74 76  1  0
 75 77  1  0
 76 78  2  0
 77 79  2  0
 78 79  1  0
M  END
