x2694-x0978-x0691-x0771-x2776
     RDKit          3D

 59 64  0  0  0  0  0  0  0  0999 V2000
    6.9450   -1.2270   21.6290 N   0  0  0  0  0  0  0  0  0  0  0  0
    6.0780   -2.4760   21.4510 C   0  0  0  0  0  0  0  0  0  0  0  0
    4.7970   -2.8820   21.0530 O   0  0  0  0  0  0  0  0  0  0  0  0
    6.5570    0.2080   21.5290 C   0  0  1  0  0  0  0  0  0  0  0  0
    8.2260   -1.3430   22.4170 C   0  0  0  0  0  0  0  0  0  0  0  0
    6.8860   -3.6120   21.8360 C   0  0  0  0  0  0  0  0  0  0  0  0
    7.7130    1.2500   21.7830 C   0  0  0  0  0  0  0  0  0  0  0  0
    6.0730    0.6020   20.1600 C   0  0  0  0  0  0  0  0  0  0  0  0
    8.3200   -1.4580   23.7860 N   0  0  0  0  0  0  0  0  0  0  0  0
    9.5580   -1.3540   22.0210 C   0  0  0  0  0  0  0  0  0  0  0  0
    6.7400   -4.6650   20.7830 C   0  0  0  0  0  0  0  0  0  0  0  0
    7.5030    2.2310   22.8940 N   0  0  0  0  0  0  0  0  0  0  0  0
    8.7350    1.3180   21.0900 O   0  0  0  0  0  0  0  0  0  0  0  0
    4.9670    1.3960   20.0540 C   0  0  0  0  0  0  0  0  0  0  0  0
    6.7140    0.2220   18.9470 C   0  0  0  0  0  0  0  0  0  0  0  0
    9.6700   -1.5380   24.1990 O   0  0  0  0  0  0  0  0  0  0  0  0
   10.5260   -1.4820   23.1420 C   0  0  0  0  0  0  0  0  0  0  0  0
   12.0240   -1.5630   23.3990 C   0  0  0  0  0  0  0  0  0  0  0  0
    6.3210    0.5940   17.7150 N   0  0  0  0  0  0  0  0  0  0  0  0
    4.5200    1.8060   18.8340 C   0  0  0  0  0  0  0  0  0  0  0  0
    8.4170    3.3980   23.1300 C   0  0  0  0  0  0  0  0  0  0  0  0
    6.8690   -5.8490   21.6420 N   0  0  0  0  0  0  0  0  0  0  0  0
   12.5640   -0.2250   23.8960 C   0  0  0  0  0  0  0  0  0  0  0  0
   12.7500   -1.9570   22.1310 C   0  0  0  0  0  0  0  0  0  0  0  0
   12.2000   -2.6510   24.4880 C   0  0  0  0  0  0  0  0  0  0  0  0
    5.1790    1.4240   17.6910 C   0  0  0  0  0  0  0  0  0  0  0  0
    9.6640    3.1980   23.7000 C   0  0  0  0  0  0  0  0  0  0  0  0
    8.0780    4.7040   22.8040 C   0  0  0  0  0  0  0  0  0  0  0  0
    5.5990   -6.4770   22.0890 C   0  0  0  0  0  0  0  0  0  0  0  0
    7.6280   -5.6950   22.7540 C   0  0  0  0  0  0  0  0  0  0  0  0
   10.1400    1.8660   24.0910 C   0  0  0  0  0  0  0  0  0  0  0  0
   13.4610   -2.6930   25.0630 C   0  0  0  0  0  0  0  0  0  0  0  0
   10.4950    4.3080   23.9140 C   0  0  0  0  0  0  0  0  0  0  0  0
    8.9130    5.7940   23.0310 C   0  0  0  0  0  0  0  0  0  0  0  0
    4.8060   -5.7080   22.9860 C   0  0  2  0  0  0  0  0  0  0  0  0
    7.0450   -5.2180   24.0840 C   0  0  0  0  0  0  0  0  0  0  0  0
    3.3920   -6.4850   23.1960 C   0  0  2  0  0  0  0  0  0  0  0  0
    4.4690   -4.4570   22.3440 O   0  0  0  0  0  0  0  0  0  0  0  0
   10.1880    5.6470   23.6140 C   0  0  0  0  0  0  0  0  0  0  0  0
    5.5760   -5.3650   24.2110 N   0  0  0  0  0  0  0  0  0  0  0  0
   10.9550    6.7620   23.8190 O   0  0  0  0  0  0  0  0  0  0  0  0
    2.2740   -5.5470   23.0180 N   0  0  0  0  0  0  0  0  0  0  0  0
    3.1810   -7.0400   24.4730 C   0  0  1  0  0  0  0  0  0  0  0  0
    4.8180   -5.5850   25.6880 S   0  0  1  0  0  0  0  0  0  0  0  0
   11.8720    6.7000   24.9100 C   0  0  0  0  0  0  0  0  0  0  0  0
    2.5220   -8.2610   24.4270 C   0  0  0  0  0  0  0  0  0  0  0  0
    4.2170   -7.1360   25.3190 N   0  0  0  0  0  0  0  0  0  0  0  0
    1.0710   -6.0880   22.6460 C   0  0  0  0  0  0  0  0  0  0  0  0
    5.8520   -5.6290   26.6980 O   0  0  0  0  0  0  0  0  0  0  0  0
    3.6500   -4.3880   25.8830 C   0  0  0  0  0  0  0  0  0  0  0  0
    1.0320   -7.1890   22.0910 O   0  0  0  0  0  0  0  0  0  0  0  0
   -0.1290   -5.4260   22.8670 C   0  0  0  0  0  0  0  0  0  0  0  0
    2.2840   -4.6930   25.9960 C   0  0  0  0  0  0  0  0  0  0  0  0
    4.0180   -3.0460   25.9310 C   0  0  0  0  0  0  0  0  0  0  0  0
    1.3230   -3.7030   26.1450 C   0  0  0  0  0  0  0  0  0  0  0  0
    3.0490   -2.0450   26.0830 C   0  0  0  0  0  0  0  0  0  0  0  0
    3.4370   -0.7610   26.1230 F   0  0  0  0  0  0  0  0  0  0  0  0
    1.7020   -2.3630   26.1910 C   0  0  0  0  0  0  0  0  0  0  0  0
    0.6730   -1.2860   26.3570 C   0  0  0  0  0  0  0  0  0  0  0  0
  1  2  1  0
  2  3  2  0
  1  4  1  0
  1  5  1  0
  2  6  1  0
  4  7  1  6
  4  8  1  0
  5  9  2  0
  5 10  1  0
  6 11  1  0
  7 12  1  0
  7 13  2  0
  8 14  2  0
  8 15  1  0
  9 16  1  0
 10 17  2  0
 16 17  1  0
 17 18  1  0
 15 19  2  0
 14 20  1  0
 12 21  1  0
 11 22  1  0
 18 23  1  0
 18 24  1  0
 18 25  1  0
 19 26  1  0
 20 26  2  0
 21 27  2  0
 21 28  1  0
 22 29  1  0
 22 30  1  0
 27 31  1  0
 25 32  1  0
 27 33  1  0
 28 34  2  0
 29 35  1  0
 30 36  1  0
 35 37  1  0
 35 38  1  6
 33 39  2  0
 34 39  1  0
 35 40  1  0
 36 40  1  0
 39 41  1  0
 37 42  1  1
 37 43  1  0
 40 44  1  0
 41 45  1  0
 43 46  1  6
 43 47  1  0
 44 47  2  0
 42 48  1  0
 44 49  2  0
 44 50  1  1
 48 51  2  0
 48 52  1  0
 50 53  2  0
 50 54  1  0
 53 55  1  0
 54 56  2  0
 56 57  1  0
 55 58  2  0
 56 58  1  0
 58 59  1  0
M  END
