x2694-x1348-x2764
     RDKit          3D

 46 50  0  0  0  0  0  0  0  0999 V2000
    7.0600   -1.4550   21.2250 N   0  0  0  0  0  0  0  0  0  0  0  0
    6.2010   -2.7080   21.2200 C   0  0  0  0  0  0  0  0  0  0  0  0
    4.8930   -3.0090   21.0190 O   0  0  0  0  0  0  0  0  0  0  0  0
    6.5830   -0.0270   21.3090 C   0  0  1  0  0  0  0  0  0  0  0  0
    8.5540   -1.6840   21.3960 N   0  0  0  0  0  0  0  0  0  0  0  0
    7.0120   -3.9290   21.4930 C   0  0  2  0  0  0  0  0  0  0  0  0
    7.5530    1.1740   21.6320 C   0  0  0  0  0  0  0  0  0  0  0  0
    6.0790    0.4740   20.0190 C   0  0  0  0  0  0  0  0  0  0  0  0
    9.2150   -1.3260   22.6660 C   0  0  0  0  0  0  0  0  0  0  0  0
    6.9780   -4.7290   20.2310 C   0  0  0  0  0  0  0  0  0  0  0  0
    6.9290    2.2150   22.5210 N   0  0  0  0  0  0  0  0  0  0  0  0
    8.6870    1.2720   21.1430 O   0  0  0  0  0  0  0  0  0  0  0  0
    4.8390    1.3270   20.0350 C   0  0  0  0  0  0  0  0  0  0  0  0
    6.7220    0.1980   18.8430 C   0  0  0  0  0  0  0  0  0  0  0  0
   10.4990   -1.3790   23.2830 C   0  0  0  0  0  0  0  0  0  0  0  0
    8.4310   -0.7740   23.5980 C   0  0  0  0  0  0  0  0  0  0  0  0
    6.3630   -4.6960   22.6070 C   0  0  0  0  0  0  0  0  0  0  0  0
   11.9710   -1.7900   23.1250 C   0  0  0  0  0  0  0  0  0  0  0  0
    6.9830    3.5830   22.3220 C   0  0  0  0  0  0  0  0  0  0  0  0
    6.3230    0.6610   17.6630 N   0  0  0  0  0  0  0  0  0  0  0  0
    4.4510    1.7910   18.7900 C   0  0  0  0  0  0  0  0  0  0  0  0
    8.9210   -0.4170   24.7780 N   0  0  0  0  0  0  0  0  0  0  0  0
   10.2690   -0.7970   24.6070 O   0  0  0  0  0  0  0  0  0  0  0  0
    6.7990   -4.6280   23.8340 N   0  0  0  0  0  0  0  0  0  0  0  0
    5.0030   -5.6810   22.2980 S   0  0  0  0  0  0  0  0  0  0  0  0
   12.7670   -1.2280   22.1400 C   0  0  0  0  0  0  0  0  0  0  0  0
   12.8230   -0.5940   23.4390 C   0  0  0  0  0  0  0  0  0  0  0  0
   12.5250   -2.7160   24.0620 C   0  0  0  0  0  0  0  0  0  0  0  0
    5.1760    1.4690   17.6690 C   0  0  0  0  0  0  0  0  0  0  0  0
    8.3030    4.0390   22.8360 C   0  0  0  0  0  0  0  0  0  0  0  0
    6.0320   -5.3730   24.6420 C   0  0  0  0  0  0  0  0  0  0  0  0
    5.0030   -6.0250   24.0150 C   0  0  0  0  0  0  0  0  0  0  0  0
    8.7940    5.3280   23.0890 C   0  0  0  0  0  0  0  0  0  0  0  0
    9.2180    2.9160   23.1220 C   0  0  0  0  0  0  0  0  0  0  0  0
    6.2370   -5.5110   26.0900 C   0  0  0  0  0  0  0  0  0  0  0  0
    4.0800   -6.8900   24.8660 C   0  0  0  0  0  0  0  0  0  0  0  0
    7.2880   -4.8360   26.6440 O   0  0  0  0  0  0  0  0  0  0  0  0
   10.4690    3.0640   23.5920 C   0  0  0  0  0  0  0  0  0  0  0  0
   10.2310    5.5220   23.6380 C   0  0  0  0  0  0  0  0  0  0  0  0
    4.3240   -6.9720   26.2200 C   0  0  0  0  0  0  0  0  0  0  0  0
    5.3930   -6.2940   26.8530 C   0  0  0  0  0  0  0  0  0  0  0  0
   10.6750    6.7930   23.8810 O   0  0  0  0  0  0  0  0  0  0  0  0
   11.2580    1.8200   23.8170 C   0  0  0  0  0  0  0  0  0  0  0  0
    7.7710   -5.5130   27.8160 C   0  0  0  0  0  0  0  0  0  0  0  0
   10.9810    4.3470   23.8470 C   0  0  0  0  0  0  0  0  0  0  0  0
   11.8250    6.8700   24.7210 C   0  0  0  0  0  0  0  0  0  0  0  0
  1  2  1  0
  2  3  2  0
  1  4  1  0
  1  5  1  0
  2  6  1  0
  4  7  1  6
  4  8  1  0
  5  9  1  0
  6 10  1  6
  7 11  1  0
  7 12  2  0
  8 13  2  0
  8 14  1  0
  9 15  2  0
  9 16  1  0
  6 17  1  0
 15 18  1  0
 11 19  1  0
 14 20  2  0
 13 21  1  0
 16 22  2  0
 15 23  1  0
 22 23  1  0
 17 24  2  0
 17 25  1  0
 18 26  1  0
 18 27  1  0
 18 28  1  0
 20 29  1  0
 21 29  2  0
 19 30  1  0
 24 31  1  0
 25 32  1  0
 31 32  2  0
 30 33  2  0
 30 34  1  0
 31 35  1  0
 32 36  1  0
 35 37  1  0
 34 38  2  0
 33 39  1  0
 36 40  2  0
 35 41  2  0
 40 41  1  0
 39 42  1  0
 38 43  1  0
 37 44  1  0
 38 45  1  0
 39 45  2  0
 42 46  1  0
M  END
