x2694-x1351-x0426
     RDKit          3D

 60 66  0  0  0  0  0  0  0  0999 V2000
    7.0190   -1.3590   21.7680 C   0  0  1  0  0  0  0  0  0  0  0  0
    6.0840   -2.7260   21.3290 C   0  0  0  0  0  0  0  0  0  0  0  0
    4.8730   -2.9560   20.7950 O   0  0  0  0  0  0  0  0  0  0  0  0
    6.6720    0.1440   21.5840 C   0  0  1  0  0  0  0  0  0  0  0  0
    6.5380   -1.9290   23.0430 C   0  0  0  0  0  0  0  0  0  0  0  0
    8.4890   -1.3700   22.3870 C   0  0  0  0  0  0  0  0  0  0  0  0
    7.7070    1.1690   21.7450 C   0  0  0  0  0  0  0  0  0  0  0  0
    6.0360    0.5190   20.3630 C   0  0  0  0  0  0  0  0  0  0  0  0
    8.7380   -1.2640   23.7790 N   0  0  0  0  0  0  0  0  0  0  0  0
    9.9750   -1.4490   22.0100 C   0  0  0  0  0  0  0  0  0  0  0  0
    6.7040   -3.9740   21.8050 C   0  0  2  0  0  0  0  0  0  0  0  0
    7.3210   -3.2900   23.0100 C   0  0  2  0  0  0  0  0  0  0  0  0
    7.8810   -4.5360   21.0320 C   0  0  0  0  0  0  0  0  0  0  0  0
    7.5400    2.2190   22.8030 N   0  0  0  0  0  0  0  0  0  0  0  0
    8.7000    1.2170   21.0080 O   0  0  0  0  0  0  0  0  0  0  0  0
    4.7540    1.0550   20.2490 C   0  0  0  0  0  0  0  0  0  0  0  0
    6.7800    0.3600   19.0550 C   0  0  0  0  0  0  0  0  0  0  0  0
   10.0770   -1.2770   24.1890 O   0  0  0  0  0  0  0  0  0  0  0  0
   10.8120   -1.3870   23.0940 C   0  0  0  0  0  0  0  0  0  0  0  0
    7.1850   -3.9140   24.1340 C   0  0  0  0  0  0  0  0  0  0  0  0
    5.6940   -5.0300   22.2880 C   0  0  0  0  0  0  0  0  0  0  0  0
   12.3620   -1.4150   23.1920 C   0  0  0  0  0  0  0  0  0  0  0  0
    3.8440    1.2730   21.3080 C   0  0  0  0  0  0  0  0  0  0  0  0
    6.3660    0.6930   17.8380 N   0  0  0  0  0  0  0  0  0  0  0  0
    4.2960    1.4190   18.9910 C   0  0  0  0  0  0  0  0  0  0  0  0
    8.4110    3.3280   23.0560 C   0  0  0  0  0  0  0  0  0  0  0  0
    5.9050   -4.1890   24.4950 C   0  0  2  0  0  0  0  0  0  0  0  0
    5.0610   -4.5700   23.4440 C   0  0  0  0  0  0  0  0  0  0  0  0
   12.6940   -0.0860   23.4560 C   0  0  0  0  0  0  0  0  0  0  0  0
   12.8830   -1.9470   21.8910 C   0  0  0  0  0  0  0  0  0  0  0  0
   12.7610   -2.4300   24.2170 C   0  0  0  0  0  0  0  0  0  0  0  0
    4.3610    2.0290   22.3460 C   0  0  0  0  0  0  0  0  0  0  0  0
    5.4400   -2.9990   25.2290 N   0  0  0  0  0  0  0  0  0  0  0  0
    5.1510    1.2350   17.7430 C   0  0  0  0  0  0  0  0  0  0  0  0
    9.6830    3.1500   23.6350 C   0  0  0  0  0  0  0  0  0  0  0  0
    7.9810    4.6320   22.7150 C   0  0  0  0  0  0  0  0  0  0  0  0
   10.2010    1.7960   24.0270 C   0  0  0  0  0  0  0  0  0  0  0  0
    3.2340    2.6150   22.8410 N   0  0  0  0  0  0  0  0  0  0  0  0
    6.1140   -2.5880   26.4820 C   0  0  0  0  0  0  0  0  0  0  0  0
   10.5980    4.3520   23.8930 C   0  0  0  0  0  0  0  0  0  0  0  0
    8.7830    5.7690   22.9430 C   0  0  0  0  0  0  0  0  0  0  0  0
    2.2610    1.8360   23.6660 C   0  0  0  0  0  0  0  0  0  0  0  0
    6.8500   -3.4960   27.2890 O   0  0  0  0  0  0  0  0  0  0  0  0
   10.0670    5.6950   23.5190 C   0  0  0  0  0  0  0  0  0  0  0  0
    6.0120   -1.1770   26.9550 C   0  0  0  0  0  0  0  0  0  0  0  0
   10.9160    6.7430   23.7890 O   0  0  0  0  0  0  0  0  0  0  0  0
    2.2770    0.4770   23.7230 O   0  0  0  0  0  0  0  0  0  0  0  0
    1.2340    2.5880   24.4460 C   0  0  0  0  0  0  0  0  0  0  0  0
    6.7730   -0.8020   28.0730 C   0  0  0  0  0  0  0  0  0  0  0  0
    5.1990   -0.1950   26.3650 C   0  0  0  0  0  0  0  0  0  0  0  0
   11.8520    6.5780   24.8570 C   0  0  0  0  0  0  0  0  0  0  0  0
    1.5360    3.8740   25.2150 C   0  0  0  0  0  0  0  0  0  0  0  0
   -0.0710    2.0900   24.4750 C   0  0  0  0  0  0  0  0  0  0  0  0
    6.7360    0.4830   28.5970 C   0  0  0  0  0  0  0  0  0  0  0  0
    5.1580    1.1070   26.8920 C   0  0  0  0  0  0  0  0  0  0  0  0
    2.7690    4.4070   25.2310 F   0  0  0  0  0  0  0  0  0  0  0  0
   -1.0150    2.8050   25.2060 C   0  0  0  0  0  0  0  0  0  0  0  0
    0.5220    4.5280   25.9250 C   0  0  0  0  0  0  0  0  0  0  0  0
    5.9250    1.4470   28.0100 C   0  0  0  0  0  0  0  0  0  0  0  0
   -0.7570    3.9720   25.9070 C   0  0  0  0  0  0  0  0  0  0  0  0
  1  2  1  0
  2  3  2  0
  1  4  1  0
  1  5  1  0
  1  6  1  1
  4  7  1  6
  4  8  1  0
  6  9  2  0
  6 10  1  0
  2 11  1  0
 12  5  1  1
 11 12  1  0
 11 13  1  6
  7 14  1  0
  7 15  2  0
  8 16  1  0
  8 17  2  0
  9 18  1  0
 10 19  2  0
 18 19  1  0
 12 20  1  0
 11 21  1  0
 19 22  1  0
 16 23  1  0
 17 24  1  0
 16 25  2  0
 14 26  1  0
 20 27  1  0
 21 28  1  0
 27 28  1  0
 22 29  1  0
 22 30  1  0
 22 31  1  0
 23 32  1  0
 27 33  1  6
 24 34  2  0
 25 34  1  0
 26 35  2  0
 26 36  1  0
 35 37  1  0
 32 38  1  0
 33 39  1  0
 35 40  1  0
 36 41  2  0
 38 42  1  0
 39 43  2  0
 40 44  2  0
 41 44  1  0
 39 45  1  0
 44 46  1  0
 42 47  2  0
 42 48  1  0
 45 49  2  0
 45 50  1  0
 46 51  1  0
 48 52  2  0
 48 53  1  0
 49 54  1  0
 50 55  2  0
 52 56  1  0
 53 57  2  0
 52 58  1  0
 54 59  2  0
 55 59  1  0
 57 60  1  0
 58 60  2  0
M  END
