x2694-x0978-x2703
     RDKit          3D

 48 50  0  0  0  0  0  0  0  0999 V2000
    7.0370   -1.4450   21.7310 N   0  0  0  0  0  0  0  0  0  0  0  0
    6.1860   -2.7190   21.6570 C   0  0  0  0  0  0  0  0  0  0  0  0
    4.9110   -3.0650   21.1810 O   0  0  0  0  0  0  0  0  0  0  0  0
    6.6640   -0.0580   21.6200 C   0  0  1  0  0  0  0  0  0  0  0  0
    8.3570   -1.5550   22.5300 C   0  0  0  0  0  0  0  0  0  0  0  0
    6.9520   -3.9460   22.2250 C   0  0  0  0  0  0  0  0  0  0  0  0
    7.8600    0.9840   21.8510 C   0  0  0  0  0  0  0  0  0  0  0  0
    6.1000    0.3560   20.3220 C   0  0  0  0  0  0  0  0  0  0  0  0
    8.4980   -1.7730   23.9830 N   0  0  0  0  0  0  0  0  0  0  0  0
    9.6700   -1.4580   22.0650 C   0  0  0  0  0  0  0  0  0  0  0  0
    6.9590   -5.0870   21.2230 C   0  0  0  0  0  0  0  0  0  0  0  0
    7.3630    2.3330   22.3550 N   0  0  0  0  0  0  0  0  0  0  0  0
    9.0560    0.8020   21.6170 O   0  0  0  0  0  0  0  0  0  0  0  0
    4.8050    1.0860   20.2060 C   0  0  0  0  0  0  0  0  0  0  0  0
    6.8630    0.0620   19.0650 C   0  0  0  0  0  0  0  0  0  0  0  0
    9.8990   -1.7840   24.2500 O   0  0  0  0  0  0  0  0  0  0  0  0
   10.6480   -1.5810   23.0320 C   0  0  0  0  0  0  0  0  0  0  0  0
   12.2420   -1.5260   22.9440 C   0  0  0  0  0  0  0  0  0  0  0  0
    5.5740   -5.7050   21.3470 N   0  0  0  0  0  0  0  0  0  0  0  0
    6.3350    0.5240   17.7660 N   0  0  0  0  0  0  0  0  0  0  0  0
    4.3670    1.4870   18.9780 C   0  0  0  0  0  0  0  0  0  0  0  0
    8.3110    3.3670   22.7250 C   0  0  0  0  0  0  0  0  0  0  0  0
    6.0260    2.8500   21.9740 C   0  0  0  0  0  0  0  0  0  0  0  0
   12.6610   -0.1580   23.5390 C   0  0  0  0  0  0  0  0  0  0  0  0
   12.7680   -1.8000   21.5620 C   0  0  0  0  0  0  0  0  0  0  0  0
   12.8210   -2.6770   23.7880 C   0  0  0  0  0  0  0  0  0  0  0  0
    4.6070   -5.3770   22.5320 C   0  0  0  0  0  0  0  0  0  0  0  0
    5.1680    1.1970   17.7480 C   0  0  0  0  0  0  0  0  0  0  0  0
    9.5770    3.0670   23.5070 C   0  0  0  0  0  0  0  0  0  0  0  0
    8.1860    4.8350   22.4050 C   0  0  0  0  0  0  0  0  0  0  0  0
    5.6100    4.1440   22.5550 C   0  0  0  0  0  0  0  0  0  0  0  0
   10.1320    1.6990   24.0550 C   0  0  0  0  0  0  0  0  0  0  0  0
   12.9260   -2.3240   25.2050 C   0  0  0  0  0  0  0  0  0  0  0  0
    3.5200   -6.3620   23.0390 C   0  0  2  0  0  0  0  0  0  0  0  0
    4.6630   -4.1180   23.1960 O   0  0  0  0  0  0  0  0  0  0  0  0
   10.5300    4.1600   23.8790 C   0  0  0  0  0  0  0  0  0  0  0  0
    9.1520    5.8560   22.8110 C   0  0  0  0  0  0  0  0  0  0  0  0
    9.1710    1.0660   25.0720 C   0  0  0  0  0  0  0  0  0  0  0  0
    2.3050   -5.5520   22.9560 N   0  0  0  0  0  0  0  0  0  0  0  0
    3.5600   -7.1570   24.3240 C   0  0  1  0  0  0  0  0  0  0  0  0
   10.2450    5.5680   23.5000 C   0  0  0  0  0  0  0  0  0  0  0  0
   11.0420    6.6640   23.8060 O   0  0  0  0  0  0  0  0  0  0  0  0
    2.5160   -8.0120   24.6460 C   0  0  0  0  0  0  0  0  0  0  0  0
    4.6250   -7.9720   24.2360 O   0  0  0  0  0  0  0  0  0  0  0  0
    1.0850   -6.1900   22.5970 C   0  0  0  0  0  0  0  0  0  0  0  0
   11.8660    6.5610   24.9660 C   0  0  0  0  0  0  0  0  0  0  0  0
    1.0130   -7.4790   21.9990 O   0  0  0  0  0  0  0  0  0  0  0  0
   -0.0960   -5.4810   22.8420 C   0  0  0  0  0  0  0  0  0  0  0  0
  1  2  1  0
  2  3  2  0
  1  4  1  0
  1  5  1  0
  2  6  1  0
  4  7  1  6
  4  8  1  0
  5  9  2  0
  5 10  1  0
  6 11  1  0
  7 12  1  0
  7 13  2  0
  8 14  2  0
  8 15  1  0
  9 16  1  0
 10 17  2  0
 16 17  1  0
 17 18  1  0
 11 19  1  0
 15 20  2  0
 14 21  1  0
 12 22  1  0
 12 23  1  0
 18 24  1  0
 18 25  1  0
 18 26  1  0
 19 27  1  0
 20 28  1  0
 21 28  2  0
 22 29  2  0
 22 30  1  0
 23 31  1  0
 29 32  1  0
 26 33  1  0
 27 34  1  0
 27 35  2  0
 29 36  1  0
 30 37  2  0
 32 38  1  0
 34 39  1  1
 34 40  1  0
 36 41  2  0
 37 41  1  0
 41 42  1  0
 40 43  1  6
 40 44  1  0
 39 45  1  0
 42 46  1  0
 45 47  2  0
 45 48  1  0
M  END
