x2694-x2776-x0426
     RDKit          3D

 46 49  0  0  0  0  0  0  0  0999 V2000
    7.0490   -1.5540   21.7600 N   0  0  0  0  0  0  0  0  0  0  0  0
    6.1820   -2.7890   21.5430 C   0  0  0  0  0  0  0  0  0  0  0  0
    4.8710   -3.0360   21.2180 O   0  0  0  0  0  0  0  0  0  0  0  0
    6.5070   -0.1090   21.6440 C   0  0  1  0  0  0  0  0  0  0  0  0
    8.3180   -1.5900   22.5550 C   0  0  0  0  0  0  0  0  0  0  0  0
    6.9790   -4.0340   21.7200 C   0  0  0  0  0  0  0  0  0  0  0  0
    7.7940    0.8300   21.9110 C   0  0  0  0  0  0  0  0  0  0  0  0
    6.0810    0.3940   20.2890 C   0  0  0  0  0  0  0  0  0  0  0  0
    8.3800   -1.7070   23.9220 N   0  0  0  0  0  0  0  0  0  0  0  0
    9.6580   -1.5040   22.1150 C   0  0  0  0  0  0  0  0  0  0  0  0
    6.8400   -4.8000   20.4140 C   0  0  0  0  0  0  0  0  0  0  0  0
    7.6550    1.9200   22.7590 N   0  0  0  0  0  0  0  0  0  0  0  0
    8.8940    0.7060   21.3880 O   0  0  0  0  0  0  0  0  0  0  0  0
    4.8270    1.2250   20.0640 C   0  0  0  0  0  0  0  0  0  0  0  0
    6.8520    0.1140   19.1670 C   0  0  0  0  0  0  0  0  0  0  0  0
    9.7720   -1.6890   24.3230 O   0  0  0  0  0  0  0  0  0  0  0  0
   10.5320   -1.5630   23.2100 C   0  0  0  0  0  0  0  0  0  0  0  0
   12.1240   -1.4830   23.0820 C   0  0  0  0  0  0  0  0  0  0  0  0
    3.8040    1.6570   21.0960 C   0  0  0  0  0  0  0  0  0  0  0  0
    6.4600    0.6250   17.8650 N   0  0  0  0  0  0  0  0  0  0  0  0
    4.5060    1.6870   18.8070 C   0  0  0  0  0  0  0  0  0  0  0  0
    8.4730    3.1010   23.0040 C   0  0  0  0  0  0  0  0  0  0  0  0
   12.6400   -0.2360   23.4740 C   0  0  0  0  0  0  0  0  0  0  0  0
   12.6750   -1.8490   21.6510 C   0  0  0  0  0  0  0  0  0  0  0  0
   12.8530   -2.6450   23.8530 C   0  0  0  0  0  0  0  0  0  0  0  0
    4.2480    1.7270   22.4070 C   0  0  0  0  0  0  0  0  0  0  0  0
    5.2600    1.4430   17.6770 C   0  0  0  0  0  0  0  0  0  0  0  0
    9.7730    2.9940   23.6210 C   0  0  0  0  0  0  0  0  0  0  0  0
    8.0400    4.3940   22.6640 C   0  0  0  0  0  0  0  0  0  0  0  0
   10.3070    1.7390   24.0110 C   0  0  0  0  0  0  0  0  0  0  0  0
   13.0040   -2.4030   25.2130 C   0  0  0  0  0  0  0  0  0  0  0  0
    3.2500    2.4960   23.2130 N   0  0  0  0  0  0  0  0  0  0  0  0
   10.5800    4.1380   23.8730 C   0  0  0  0  0  0  0  0  0  0  0  0
    8.8800    5.6470   22.9310 C   0  0  0  0  0  0  0  0  0  0  0  0
    2.2560    1.8460   23.8440 C   0  0  0  0  0  0  0  0  0  0  0  0
   10.1170    5.5770   23.5180 C   0  0  0  0  0  0  0  0  0  0  0  0
   10.8390    6.7270   23.7490 O   0  0  0  0  0  0  0  0  0  0  0  0
    2.1810    0.4200   23.8490 O   0  0  0  0  0  0  0  0  0  0  0  0
    1.2160    2.6060   24.5510 C   0  0  0  0  0  0  0  0  0  0  0  0
   11.8320    6.5890   24.7680 C   0  0  0  0  0  0  0  0  0  0  0  0
    1.5110    3.8030   25.2100 C   0  0  0  0  0  0  0  0  0  0  0  0
   -0.2230    2.0610   24.5620 C   0  0  0  0  0  0  0  0  0  0  0  0
    2.7720    4.2980   25.2110 F   0  0  0  0  0  0  0  0  0  0  0  0
   -1.3170    2.8330   25.2920 C   0  0  0  0  0  0  0  0  0  0  0  0
    0.5380    4.5400   25.8890 C   0  0  0  0  0  0  0  0  0  0  0  0
   -0.9250    4.1340   25.9900 C   0  0  0  0  0  0  0  0  0  0  0  0
  1  2  1  0
  2  3  2  0
  1  4  1  0
  1  5  1  0
  2  6  1  0
  4  7  1  6
  4  8  1  0
  5  9  2  0
  5 10  1  0
  6 11  1  0
  7 12  1  0
  7 13  2  0
  8 14  1  0
  8 15  2  0
  9 16  1  0
 10 17  2  0
 16 17  1  0
 17 18  1  0
 14 19  1  0
 15 20  1  0
 14 21  2  0
 12 22  1  0
 18 23  1  0
 18 24  1  0
 18 25  1  0
 19 26  1  0
 20 27  2  0
 21 27  1  0
 22 28  2  0
 22 29  1  0
 28 30  1  0
 25 31  1  0
 26 32  1  0
 28 33  1  0
 29 34  2  0
 32 35  1  0
 33 36  2  0
 34 36  1  0
 36 37  1  0
 35 38  2  0
 35 39  1  0
 37 40  1  0
 39 41  2  0
 39 42  1  0
 41 43  1  0
 42 44  2  0
 41 45  1  0
 44 46  1  0
 45 46  2  0
M  END
