x2694-x0161
     RDKit          3D

 39 42  0  0  0  0  0  0  0  0999 V2000
    7.1380   -1.4310   21.5660 N   0  0  0  0  0  0  0  0  0  0  0  0
    5.9600   -2.3710   21.3280 C   0  0  0  0  0  0  0  0  0  0  0  0
    5.0750   -3.3530   21.1630 O   0  0  0  0  0  0  0  0  0  0  0  0
    6.7250    0.0110   21.6030 C   0  0  1  0  0  0  0  0  0  0  0  0
    8.3750   -1.5850   22.3660 C   0  0  0  0  0  0  0  0  0  0  0  0
    6.9160   -3.5700   21.5970 C   0  0  0  0  0  0  0  0  0  0  0  0
    7.7580    1.2240   21.8440 C   0  0  0  0  0  0  0  0  0  0  0  0
    6.1480    0.4750   20.2910 C   0  0  0  0  0  0  0  0  0  0  0  0
    8.3890   -1.8180   23.7210 N   0  0  0  0  0  0  0  0  0  0  0  0
    9.7280   -1.5340   22.0550 C   0  0  0  0  0  0  0  0  0  0  0  0
    6.7180   -3.6370   20.0420 C   0  0  0  0  0  0  0  0  0  0  0  0
    7.3340    2.2840   22.8040 N   0  0  0  0  0  0  0  0  0  0  0  0
    8.8220    1.3350   21.2370 O   0  0  0  0  0  0  0  0  0  0  0  0
    5.0610    1.2550   20.1560 C   0  0  0  0  0  0  0  0  0  0  0  0
    6.8830    0.0310   19.0390 C   0  0  0  0  0  0  0  0  0  0  0  0
    9.7650   -1.8970   24.1330 O   0  0  0  0  0  0  0  0  0  0  0  0
   10.6390   -1.7210   23.0740 C   0  0  0  0  0  0  0  0  0  0  0  0
   12.1650   -1.7770   23.2550 C   0  0  0  0  0  0  0  0  0  0  0  0
    6.3520    0.5100   17.7670 N   0  0  0  0  0  0  0  0  0  0  0  0
    4.5660    1.6990   18.8830 C   0  0  0  0  0  0  0  0  0  0  0  0
    8.0010    3.5080   23.1290 C   0  0  0  0  0  0  0  0  0  0  0  0
   12.9280   -0.5100   23.6610 C   0  0  0  0  0  0  0  0  0  0  0  0
   12.7830   -2.2480   21.9290 C   0  0  0  0  0  0  0  0  0  0  0  0
   12.5540   -2.7200   24.3870 C   0  0  0  0  0  0  0  0  0  0  0  0
    5.2080    1.3280   17.7850 C   0  0  0  0  0  0  0  0  0  0  0  0
    8.4940    3.9060   24.4910 C   0  0  0  0  0  0  0  0  0  0  0  0
    8.3290    4.5990   22.1870 C   0  0  0  0  0  0  0  0  0  0  0  0
    9.1730    4.9350   25.1890 C   0  0  0  0  0  0  0  0  0  0  0  0
    9.0240    5.6960   22.7080 C   0  0  0  0  0  0  0  0  0  0  0  0
   12.2890    0.8120   23.5610 C   0  0  0  0  0  0  0  0  0  0  0  0
    9.8390    6.0550   25.5960 O   0  0  0  0  0  0  0  0  0  0  0  0
    9.4080    5.8260   24.0590 C   0  0  0  0  0  0  0  0  0  0  0  0
   12.9360    1.8660   22.9650 C   0  0  0  0  0  0  0  0  0  0  0  0
   11.0460    1.0020   24.0680 C   0  0  0  0  0  0  0  0  0  0  0  0
   10.1120    7.0140   24.2250 O   0  0  0  0  0  0  0  0  0  0  0  0
   12.3580    3.1120   22.8650 C   0  0  0  0  0  0  0  0  0  0  0  0
   10.4090    2.3650   23.9670 C   0  0  0  0  0  0  0  0  0  0  0  0
   11.5460    6.9400   24.3990 C   0  0  0  0  0  0  0  0  0  0  0  0
   11.1050    3.4090   23.3480 C   0  0  0  0  0  0  0  0  0  0  0  0
  1  2  1  0
  2  3  2  0
  1  4  1  0
  1  5  1  0
  2  6  1  0
  4  7  1  6
  4  8  1  0
  5  9  2  0
  5 10  1  0
  6 11  1  0
  7 12  1  0
  7 13  2  0
  8 14  2  0
  8 15  1  0
  9 16  1  0
 10 17  2  0
 16 17  1  0
 17 18  1  0
 15 19  2  0
 14 20  1  0
 12 21  1  0
 18 22  1  0
 18 23  1  0
 18 24  1  0
 19 25  1  0
 20 25  2  0
 21 26  2  0
 21 27  1  0
 26 28  1  0
 27 29  2  0
 22 30  1  0
 28 31  1  0
 28 32  2  0
 29 32  1  0
 30 33  2  0
 30 34  1  0
 32 35  1  0
 33 36  1  0
 34 37  2  0
 35 38  1  0
 36 39  2  0
 37 39  1  0
M  END
