x2694-x0752
     RDKit          3D

 43 47  0  0  0  0  0  0  0  0999 V2000
    7.0070   -1.4970   21.8900 N   0  0  0  0  0  0  0  0  0  0  0  0
    6.2240   -2.7670   21.5260 C   0  0  0  0  0  0  0  0  0  0  0  0
    4.8940   -3.0800   21.2630 O   0  0  0  0  0  0  0  0  0  0  0  0
    6.6250   -0.0520   21.6620 C   0  0  1  0  0  0  0  0  0  0  0  0
    8.3280   -1.5630   22.6260 C   0  0  0  0  0  0  0  0  0  0  0  0
    7.1400   -3.9670   21.4160 C   0  0  2  0  0  0  0  0  0  0  0  0
    7.7660    0.9770   21.9360 C   0  0  0  0  0  0  0  0  0  0  0  0
    6.2190    0.3640   20.2700 C   0  0  0  0  0  0  0  0  0  0  0  0
    8.4970   -1.6580   24.0890 N   0  0  0  0  0  0  0  0  0  0  0  0
    9.6150   -1.5180   22.1410 C   0  0  0  0  0  0  0  0  0  0  0  0
    6.8630   -4.5150   20.0630 C   0  0  0  0  0  0  0  0  0  0  0  0
    7.5270    2.0390   22.7870 N   0  0  0  0  0  0  0  0  0  0  0  0
    8.8630    0.8970   21.3890 O   0  0  0  0  0  0  0  0  0  0  0  0
    6.8570   -5.0760   22.4460 C   0  0  0  0  0  0  0  0  0  0  0  0
    5.1170    1.2260   20.2660 C   0  0  0  0  0  0  0  0  0  0  0  0
    6.8350   -0.0060   19.0690 C   0  0  0  0  0  0  0  0  0  0  0  0
    9.9010   -1.6550   24.2910 O   0  0  0  0  0  0  0  0  0  0  0  0
   10.6140   -1.5660   23.1050 C   0  0  0  0  0  0  0  0  0  0  0  0
   12.1390   -1.5380   23.1890 C   0  0  0  0  0  0  0  0  0  0  0  0
    6.3800    0.4940   17.7420 N   0  0  0  0  0  0  0  0  0  0  0  0
    4.5520    1.8010   18.9780 C   0  0  0  0  0  0  0  0  0  0  0  0
    8.3430    3.2070   23.0140 C   0  0  0  0  0  0  0  0  0  0  0  0
    5.7360   -4.5930   23.2830 C   0  0  0  0  0  0  0  0  0  0  0  0
   12.6610   -0.1160   23.4810 C   0  0  0  0  0  0  0  0  0  0  0  0
   12.8030   -1.9860   21.8630 C   0  0  0  0  0  0  0  0  0  0  0  0
   12.6420   -2.4770   24.3120 C   0  0  0  0  0  0  0  0  0  0  0  0
    5.2270    1.4150   17.6810 C   0  0  0  0  0  0  0  0  0  0  0  0
    9.7150    3.0690   23.6840 C   0  0  0  0  0  0  0  0  0  0  0  0
    7.8690    4.6210   22.5980 C   0  0  0  0  0  0  0  0  0  0  0  0
    4.5300   -5.2980   23.3400 C   0  0  0  0  0  0  0  0  0  0  0  0
    5.9240   -3.4030   23.9980 C   0  0  0  0  0  0  0  0  0  0  0  0
   10.2030    1.7100   24.1050 C   0  0  0  0  0  0  0  0  0  0  0  0
   10.5580    4.3300   23.9100 C   0  0  0  0  0  0  0  0  0  0  0  0
    8.7420    5.8650   22.8520 C   0  0  0  0  0  0  0  0  0  0  0  0
    3.5430   -4.7500   24.1250 C   0  0  0  0  0  0  0  0  0  0  0  0
    4.9200   -2.8740   24.7760 C   0  0  0  0  0  0  0  0  0  0  0  0
   10.0990    5.7210   23.5170 C   0  0  0  0  0  0  0  0  0  0  0  0
    3.7370   -3.5610   24.8230 C   0  0  0  0  0  0  0  0  0  0  0  0
    2.2990   -5.2580   24.3210 O   0  0  0  0  0  0  0  0  0  0  0  0
   10.9810    6.7350   23.8140 O   0  0  0  0  0  0  0  0  0  0  0  0
    2.5890   -3.1840   25.5530 O   0  0  0  0  0  0  0  0  0  0  0  0
    1.7370   -4.3090   25.2620 C   0  0  0  0  0  0  0  0  0  0  0  0
   11.8300    6.5720   24.9530 C   0  0  0  0  0  0  0  0  0  0  0  0
  1  2  1  0
  2  3  2  0
  1  4  1  0
  1  5  1  0
  2  6  1  0
  4  7  1  6
  4  8  1  0
  5  9  2  0
  5 10  1  0
  6 11  1  6
  7 12  1  0
  7 13  2  0
  6 14  1  0
  8 15  2  0
  8 16  1  0
  9 17  1  0
 10 18  2  0
 17 18  1  0
 18 19  1  0
 16 20  2  0
 15 21  1  0
 12 22  1  0
 14 23  1  0
 19 24  1  0
 19 25  1  0
 19 26  1  0
 20 27  1  0
 21 27  2  0
 22 28  2  0
 22 29  1  0
 23 30  2  0
 23 31  1  0
 28 32  1  0
 28 33  1  0
 29 34  2  0
 30 35  1  0
 31 36  2  0
 33 37  2  0
 34 37  1  0
 35 38  2  0
 36 38  1  0
 35 39  1  0
 37 40  1  0
 38 41  1  0
 39 42  1  0
 41 42  1  0
 40 43  1  0
M  END
