x2694-x1348-x0426
     RDKit          3D

 56 61  0  0  0  0  0  0  0  0999 V2000
    7.0320   -1.4510   21.7120 N   0  0  0  0  0  0  0  0  0  0  0  0
    6.1630   -2.6780   21.4280 C   0  0  0  0  0  0  0  0  0  0  0  0
    4.8430   -2.9710   21.1480 O   0  0  0  0  0  0  0  0  0  0  0  0
    6.6630    0.0270   21.5550 C   0  0  1  0  0  0  0  0  0  0  0  0
    8.2880   -1.4860   22.5140 C   0  0  0  0  0  0  0  0  0  0  0  0
    6.9580   -3.9270   21.4640 C   0  0  2  0  0  0  0  0  0  0  0  0
    7.8000    1.1590   21.7660 C   0  0  0  0  0  0  0  0  0  0  0  0
    6.0230    0.4610   20.2600 C   0  0  0  0  0  0  0  0  0  0  0  0
    8.3530   -1.5140   23.8890 N   0  0  0  0  0  0  0  0  0  0  0  0
    9.6410   -1.4740   22.1180 C   0  0  0  0  0  0  0  0  0  0  0  0
    6.7750   -4.5370   20.1180 C   0  0  0  0  0  0  0  0  0  0  0  0
    7.5880    2.1080   22.7860 N   0  0  0  0  0  0  0  0  0  0  0  0
    8.7890    1.2200   21.0420 O   0  0  0  0  0  0  0  0  0  0  0  0
    4.7320    1.0260   20.1480 C   0  0  0  0  0  0  0  0  0  0  0  0
    6.8170    0.2830   19.1030 C   0  0  0  0  0  0  0  0  0  0  0  0
    9.7230   -1.5150   24.2850 O   0  0  0  0  0  0  0  0  0  0  0  0
   10.5280   -1.4900   23.1850 C   0  0  0  0  0  0  0  0  0  0  0  0
    6.3620   -4.6930   22.5730 C   0  0  0  0  0  0  0  0  0  0  0  0
   12.0700   -1.4750   23.1670 C   0  0  0  0  0  0  0  0  0  0  0  0
    3.8040    1.2490   21.1120 C   0  0  0  0  0  0  0  0  0  0  0  0
    6.4840    0.6270   17.8520 N   0  0  0  0  0  0  0  0  0  0  0  0
    4.3660    1.4000   18.8750 C   0  0  0  0  0  0  0  0  0  0  0  0
    8.3920    3.2900   23.0170 C   0  0  0  0  0  0  0  0  0  0  0  0
    6.8400   -4.6000   23.8190 N   0  0  0  0  0  0  0  0  0  0  0  0
    4.9980   -5.7150   22.2890 S   0  0  0  0  0  0  0  0  0  0  0  0
   12.6120   -0.0440   23.3920 C   0  0  0  0  0  0  0  0  0  0  0  0
   12.6360   -1.9650   21.8170 C   0  0  0  0  0  0  0  0  0  0  0  0
   12.6560   -2.3920   24.2680 C   0  0  0  0  0  0  0  0  0  0  0  0
    4.2940    1.8600   22.2800 C   0  0  0  0  0  0  0  0  0  0  0  0
    5.1510    1.2430   17.7750 C   0  0  0  0  0  0  0  0  0  0  0  0
    9.6640    3.1400   23.6110 C   0  0  0  0  0  0  0  0  0  0  0  0
    7.9860    4.5940   22.6880 C   0  0  0  0  0  0  0  0  0  0  0  0
    6.0810   -5.3510   24.6300 C   0  0  0  0  0  0  0  0  0  0  0  0
    5.0770   -6.0000   24.0080 C   0  0  0  0  0  0  0  0  0  0  0  0
   10.2650    1.9160   24.0250 C   0  0  0  0  0  0  0  0  0  0  0  0
    3.2770    2.5620   23.0920 N   0  0  0  0  0  0  0  0  0  0  0  0
   10.5320    4.2250   23.8830 C   0  0  0  0  0  0  0  0  0  0  0  0
    8.8150    5.6970   22.9480 C   0  0  0  0  0  0  0  0  0  0  0  0
    6.2370   -5.5030   26.0010 C   0  0  0  0  0  0  0  0  0  0  0  0
    4.1210   -6.8840   24.7780 C   0  0  0  0  0  0  0  0  0  0  0  0
    2.3200    1.8340   23.7320 C   0  0  0  0  0  0  0  0  0  0  0  0
    7.2700   -4.8450   26.6390 O   0  0  0  0  0  0  0  0  0  0  0  0
   10.0730    5.5970   23.5340 C   0  0  0  0  0  0  0  0  0  0  0  0
    4.3220   -6.9910   26.1430 C   0  0  0  0  0  0  0  0  0  0  0  0
    5.3770   -6.3090   26.7820 C   0  0  0  0  0  0  0  0  0  0  0  0
   10.9380    6.6320   23.8230 O   0  0  0  0  0  0  0  0  0  0  0  0
    2.2630    0.6020   23.7120 O   0  0  0  0  0  0  0  0  0  0  0  0
    7.7070   -5.5670   27.8080 C   0  0  0  0  0  0  0  0  0  0  0  0
    1.2910    2.6090   24.4960 C   0  0  0  0  0  0  0  0  0  0  0  0
   11.8420    6.4920   24.9230 C   0  0  0  0  0  0  0  0  0  0  0  0
    1.6120    3.7820   25.1730 C   0  0  0  0  0  0  0  0  0  0  0  0
   -0.0240    2.0990   24.5020 C   0  0  0  0  0  0  0  0  0  0  0  0
    2.8430    4.3020   25.1970 F   0  0  0  0  0  0  0  0  0  0  0  0
   -1.0680    2.7390   25.1800 C   0  0  0  0  0  0  0  0  0  0  0  0
    0.4420    4.4680   25.9120 C   0  0  0  0  0  0  0  0  0  0  0  0
   -0.8300    3.9210   25.8820 C   0  0  0  0  0  0  0  0  0  0  0  0
  1  2  1  0
  2  3  2  0
  1  4  1  0
  1  5  1  0
  2  6  1  0
  4  7  1  6
  4  8  1  0
  5  9  2  0
  5 10  1  0
  6 11  1  6
  7 12  1  0
  7 13  2  0
  8 14  1  0
  8 15  2  0
  9 16  1  0
 10 17  2  0
 16 17  1  0
  6 18  1  0
 17 19  1  0
 14 20  1  0
 15 21  1  0
 14 22  2  0
 12 23  1  0
 18 24  2  0
 18 25  1  0
 19 26  1  0
 19 27  1  0
 19 28  1  0
 20 29  1  0
 21 30  2  0
 22 30  1  0
 23 31  2  0
 23 32  1  0
 24 33  1  0
 25 34  1  0
 33 34  2  0
 31 35  1  0
 29 36  1  0
 31 37  1  0
 32 38  2  0
 33 39  1  0
 34 40  1  0
 36 41  1  0
 39 42  1  0
 37 43  2  0
 38 43  1  0
 40 44  2  0
 39 45  2  0
 44 45  1  0
 43 46  1  0
 41 47  2  0
 42 48  1  0
 41 49  1  0
 46 50  1  0
 49 51  2  0
 49 52  1  0
 51 53  1  0
 52 54  2  0
 51 55  1  0
 54 56  1  0
 55 56  2  0
M  END
