x2694-x0978-x1402-x0771-x2703
     RDKit          3D

 61 66  0  0  0  0  0  0  0  0999 V2000
    7.0030   -1.2440   21.7200 N   0  0  0  0  0  0  0  0  0  0  0  0
    6.1120   -2.4900   21.4980 C   0  0  0  0  0  0  0  0  0  0  0  0
    4.8120   -2.9050   21.1090 O   0  0  0  0  0  0  0  0  0  0  0  0
    6.6370    0.2390   21.6760 C   0  0  1  0  0  0  0  0  0  0  0  0
    8.2910   -1.4460   22.4740 C   0  0  0  0  0  0  0  0  0  0  0  0
    6.9230   -3.6220   21.8240 C   0  0  0  0  0  0  0  0  0  0  0  0
    7.7130    1.1870   21.8910 C   0  0  0  0  0  0  0  0  0  0  0  0
    6.0800    0.6330   20.3660 C   0  0  0  0  0  0  0  0  0  0  0  0
    8.4100   -1.7930   23.7790 N   0  0  0  0  0  0  0  0  0  0  0  0
    9.5370   -1.2540   21.8530 C   0  0  0  0  0  0  0  0  0  0  0  0
    6.7410   -4.6470   20.7500 C   0  0  0  0  0  0  0  0  0  0  0  0
    7.4390    2.3670   22.6250 N   0  0  0  0  0  0  0  0  0  0  0  0
    8.8410    1.0360   21.4240 O   0  0  0  0  0  0  0  0  0  0  0  0
    4.7820    1.3920   20.2410 C   0  0  0  0  0  0  0  0  0  0  0  0
    6.7020    0.3590   19.2430 C   0  0  0  0  0  0  0  0  0  0  0  0
    9.8420   -1.8470   24.1040 O   0  0  0  0  0  0  0  0  0  0  0  0
   10.6040   -1.5360   23.0070 C   0  0  0  0  0  0  0  0  0  0  0  0
   12.0070   -1.4920   23.0010 C   0  0  0  0  0  0  0  0  0  0  0  0
    6.3450    0.6800   17.9880 N   0  0  0  0  0  0  0  0  0  0  0  0
    4.4150    1.7350   18.8670 C   0  0  0  0  0  0  0  0  0  0  0  0
    8.3690    3.4310   22.9130 C   0  0  0  0  0  0  0  0  0  0  0  0
    6.8620   -5.9050   21.5290 N   0  0  0  0  0  0  0  0  0  0  0  0
    6.0420    2.8490   22.9410 C   0  0  0  0  0  0  0  0  0  0  0  0
   12.4440   -0.3790   23.7450 C   0  0  0  0  0  0  0  0  0  0  0  0
   12.6160   -1.6270   21.7440 C   0  0  0  0  0  0  0  0  0  0  0  0
   12.5870   -2.7320   23.7020 C   0  0  0  0  0  0  0  0  0  0  0  0
    5.2340    1.3760   17.6620 C   0  0  0  0  0  0  0  0  0  0  0  0
    9.5950    3.1630   23.5370 C   0  0  0  0  0  0  0  0  0  0  0  0
    8.1640    4.7830   22.6230 C   0  0  0  0  0  0  0  0  0  0  0  0
    5.6410   -6.4450   21.9580 C   0  0  0  0  0  0  0  0  0  0  0  0
    7.7180   -5.7070   22.7310 C   0  0  0  0  0  0  0  0  0  0  0  0
    5.5890    3.7230   21.9550 C   0  0  0  0  0  0  0  0  0  0  0  0
   10.0750    1.7940   23.9600 C   0  0  0  0  0  0  0  0  0  0  0  0
   12.9290   -2.5230   25.1580 C   0  0  0  0  0  0  0  0  0  0  0  0
   10.5920    4.3020   23.8550 C   0  0  0  0  0  0  0  0  0  0  0  0
    9.0500    5.8190   22.9100 C   0  0  0  0  0  0  0  0  0  0  0  0
    4.8160   -5.7580   22.8850 C   0  0  2  0  0  0  0  0  0  0  0  0
    7.1030   -5.3400   23.9370 C   0  0  0  0  0  0  0  0  0  0  0  0
    9.1490    1.1730   25.0110 C   0  0  0  0  0  0  0  0  0  0  0  0
    3.3640   -6.4630   23.1540 C   0  0  2  0  0  0  0  0  0  0  0  0
    4.4470   -4.4730   22.3140 O   0  0  0  0  0  0  0  0  0  0  0  0
   10.2250    5.6050   23.5080 C   0  0  0  0  0  0  0  0  0  0  0  0
    5.6240   -5.4550   24.0920 N   0  0  0  0  0  0  0  0  0  0  0  0
   11.1370    6.5820   23.8240 O   0  0  0  0  0  0  0  0  0  0  0  0
    2.3520   -5.5730   23.0520 N   0  0  0  0  0  0  0  0  0  0  0  0
    3.1720   -7.0830   24.5580 C   0  0  1  0  0  0  0  0  0  0  0  0
    4.9060   -5.6890   25.6180 S   0  0  1  0  0  0  0  0  0  0  0  0
   11.8450    6.4790   25.0560 C   0  0  0  0  0  0  0  0  0  0  0  0
    2.5980   -8.3450   24.5750 C   0  0  0  0  0  0  0  0  0  0  0  0
    4.2070   -7.2140   25.3280 N   0  0  0  0  0  0  0  0  0  0  0  0
    1.0980   -6.2420   22.6070 C   0  0  0  0  0  0  0  0  0  0  0  0
    5.9330   -5.6650   26.6330 O   0  0  0  0  0  0  0  0  0  0  0  0
    3.7160   -4.3910   25.8780 C   0  0  0  0  0  0  0  0  0  0  0  0
    1.0700   -7.3330   22.0480 O   0  0  0  0  0  0  0  0  0  0  0  0
   -0.1790   -5.4410   22.8960 C   0  0  0  0  0  0  0  0  0  0  0  0
    2.3370   -4.5750   25.7650 C   0  0  0  0  0  0  0  0  0  0  0  0
    4.1720   -2.9920   26.2390 C   0  0  0  0  0  0  0  0  0  0  0  0
    1.3660   -3.5610   25.9630 C   0  0  0  0  0  0  0  0  0  0  0  0
    3.0910   -1.9370   26.4420 C   0  0  0  0  0  0  0  0  0  0  0  0
    1.7350   -2.2830   26.2930 C   0  0  0  0  0  0  0  0  0  0  0  0
    0.6720   -1.2450   26.5020 C   0  0  0  0  0  0  0  0  0  0  0  0
  1  2  1  0
  2  3  2  0
  1  4  1  0
  1  5  1  0
  2  6  1  0
  4  7  1  6
  4  8  1  0
  5  9  2  0
  5 10  1  0
  6 11  1  0
  7 12  1  0
  7 13  2  0
  8 14  2  0
  8 15  1  0
  9 16  1  0
 10 17  2  0
 16 17  1  0
 17 18  1  0
 15 19  2  0
 14 20  1  0
 12 21  1  0
 11 22  1  0
 12 23  1  0
 18 24  1  0
 18 25  1  0
 18 26  1  0
 19 27  1  0
 20 27  2  0
 21 28  2  0
 21 29  1  0
 22 30  1  0
 22 31  1  0
 23 32  1  0
 28 33  1  0
 26 34  1  0
 28 35  1  0
 29 36  2  0
 30 37  1  0
 31 38  1  0
 33 39  1  0
 37 40  1  0
 37 41  1  6
 35 42  2  0
 36 42  1  0
 37 43  1  0
 38 43  1  0
 42 44  1  0
 40 45  1  1
 40 46  1  0
 43 47  1  0
 44 48  1  0
 46 49  1  6
 46 50  1  0
 47 50  2  0
 45 51  1  0
 47 52  2  0
 47 53  1  1
 51 54  2  0
 51 55  1  0
 53 56  2  0
 53 57  1  0
 56 58  1  0
 57 59  2  0
 58 60  2  0
 59 60  1  0
 60 61  1  0
M  END
