x2694-x0978-x3117-x0731-x0995
     RDKit          3D

 59 64  0  0  0  0  0  0  0  0999 V2000
    6.9470   -1.2500   21.7620 N   0  0  0  0  0  0  0  0  0  0  0  0
    6.1510   -2.5590   21.5120 C   0  0  0  0  0  0  0  0  0  0  0  0
    4.8540   -2.9700   21.1280 O   0  0  0  0  0  0  0  0  0  0  0  0
    6.5880    0.1800   21.5930 C   0  0  1  0  0  0  0  0  0  0  0  0
    8.2880   -1.3730   22.5290 C   0  0  0  0  0  0  0  0  0  0  0  0
    7.0060   -3.6150   21.7830 C   0  0  0  0  0  0  0  0  0  0  0  0
    7.7350    1.2580   21.7600 C   0  0  0  0  0  0  0  0  0  0  0  0
    6.1290    0.5720   20.1920 C   0  0  0  0  0  0  0  0  0  0  0  0
    8.4290   -1.5450   23.8760 N   0  0  0  0  0  0  0  0  0  0  0  0
    9.6280   -1.3310   22.0770 C   0  0  0  0  0  0  0  0  0  0  0  0
    6.8310   -4.6860   20.7750 C   0  0  0  0  0  0  0  0  0  0  0  0
    7.6060    2.2670   22.8520 N   0  0  0  0  0  0  0  0  0  0  0  0
    8.6960    1.2810   20.9930 O   0  0  0  0  0  0  0  0  0  0  0  0
    4.9960    1.3120   20.1290 C   0  0  0  0  0  0  0  0  0  0  0  0
    6.8060    0.2180   19.0380 C   0  0  0  0  0  0  0  0  0  0  0  0
    9.8100   -1.6040   24.2090 O   0  0  0  0  0  0  0  0  0  0  0  0
   10.5660   -1.4690   23.0830 C   0  0  0  0  0  0  0  0  0  0  0  0
   12.1350   -1.4780   23.0790 C   0  0  0  0  0  0  0  0  0  0  0  0
    6.4290    0.5720   17.8110 N   0  0  0  0  0  0  0  0  0  0  0  0
    4.5440    1.7120   18.8950 C   0  0  0  0  0  0  0  0  0  0  0  0
    8.4310    3.4170   23.0770 C   0  0  0  0  0  0  0  0  0  0  0  0
    6.9100   -5.9050   21.6250 N   0  0  0  0  0  0  0  0  0  0  0  0
   12.6830   -0.3710   23.6070 C   0  0  0  0  0  0  0  0  0  0  0  0
   12.7540   -1.6530   21.6800 C   0  0  0  0  0  0  0  0  0  0  0  0
   12.6690   -2.6940   23.8600 C   0  0  0  0  0  0  0  0  0  0  0  0
    3.4010    2.4440   18.9650 N   0  0  0  0  0  0  0  0  0  0  0  0
    5.2100    1.3850   17.7280 C   0  0  0  0  0  0  0  0  0  0  0  0
    9.7000    3.2170   23.6690 C   0  0  0  0  0  0  0  0  0  0  0  0
    8.0100    4.7340   22.7250 C   0  0  0  0  0  0  0  0  0  0  0  0
    7.7400   -5.6990   22.8200 C   0  0  0  0  0  0  0  0  0  0  0  0
    5.6040   -6.4960   22.0190 C   0  0  0  0  0  0  0  0  0  0  0  0
   10.2420    1.8380   24.0830 C   0  0  0  0  0  0  0  0  0  0  0  0
   12.9560   -2.4990   25.1840 C   0  0  0  0  0  0  0  0  0  0  0  0
   10.4740    4.3580   23.8760 C   0  0  0  0  0  0  0  0  0  0  0  0
    8.8890    5.8150   22.9940 C   0  0  0  0  0  0  0  0  0  0  0  0
    7.0070   -5.2890   23.9540 C   0  0  0  0  0  0  0  0  0  0  0  0
    4.8220   -5.6890   22.8760 C   0  0  1  0  0  0  0  0  0  0  0  0
    3.4560   -6.4950   23.2870 C   0  0  2  0  0  0  0  0  0  0  0  0
   10.1430    5.6570   23.5790 C   0  0  0  0  0  0  0  0  0  0  0  0
    5.6130   -5.1460   23.9290 C   0  0  2  0  0  0  0  0  0  0  0  0
   11.0390    6.6570   23.8720 O   0  0  0  0  0  0  0  0  0  0  0  0
    2.3240   -5.5980   22.9310 N   0  0  0  0  0  0  0  0  0  0  0  0
    3.3030   -7.0830   24.5750 C   0  0  1  0  0  0  0  0  0  0  0  0
    5.2670   -3.7520   23.7800 O   0  0  0  0  0  0  0  0  0  0  0  0
    4.9890   -5.5390   25.5900 S   0  0  1  0  0  0  0  0  0  0  0  0
   11.8490    6.5210   25.0350 C   0  0  0  0  0  0  0  0  0  0  0  0
    2.5570   -8.2710   24.4690 C   0  0  0  0  0  0  0  0  0  0  0  0
    4.3370   -7.0870   25.3870 N   0  0  0  0  0  0  0  0  0  0  0  0
    1.0940   -6.1950   22.6020 C   0  0  0  0  0  0  0  0  0  0  0  0
    6.0530   -5.4680   26.5630 O   0  0  0  0  0  0  0  0  0  0  0  0
    3.8410   -4.2020   25.8360 C   0  0  0  0  0  0  0  0  0  0  0  0
    1.0700   -7.3060   22.0780 O   0  0  0  0  0  0  0  0  0  0  0  0
   -0.0750   -5.4830   22.8720 C   0  0  0  0  0  0  0  0  0  0  0  0
    2.5210   -4.2550   25.4400 C   0  0  0  0  0  0  0  0  0  0  0  0
    4.2250   -3.0410   26.4210 C   0  0  0  0  0  0  0  0  0  0  0  0
    1.6270   -3.2150   25.6170 C   0  0  0  0  0  0  0  0  0  0  0  0
    3.2970   -1.8450   26.6510 C   0  0  0  0  0  0  0  0  0  0  0  0
    1.9990   -1.9970   26.2260 C   0  0  0  0  0  0  0  0  0  0  0  0
    1.0110   -0.8900   26.4150 C   0  0  0  0  0  0  0  0  0  0  0  0
  1  2  1  0
  2  3  2  0
  1  4  1  0
  1  5  1  0
  2  6  1  0
  4  7  1  6
  4  8  1  0
  5  9  2  0
  5 10  1  0
  6 11  1  0
  7 12  1  0
  7 13  2  0
  8 14  2  0
  8 15  1  0
  9 16  1  0
 10 17  2  0
 16 17  1  0
 17 18  1  0
 15 19  2  0
 14 20  1  0
 12 21  1  0
 11 22  1  0
 18 23  1  0
 18 24  1  0
 18 25  1  0
 20 26  1  0
 19 27  1  0
 20 27  2  0
 21 28  2  0
 21 29  1  0
 22 30  1  0
 22 31  1  0
 28 32  1  0
 25 33  1  0
 28 34  1  0
 29 35  2  0
 30 36  1  0
 37 31  1  1
 37 38  1  0
 34 39  2  0
 35 39  1  0
 36 40  1  0
 37 40  1  0
 39 41  1  0
 38 42  1  1
 38 43  1  0
 40 44  1  6
 40 45  1  0
 41 46  1  0
 43 47  1  6
 43 48  1  0
 45 48  2  0
 42 49  1  0
 45 50  2  0
 45 51  1  1
 49 52  2  0
 49 53  1  0
 51 54  2  0
 51 55  1  0
 54 56  1  0
 55 57  2  0
 56 58  2  0
 57 58  1  0
 58 59  1  0
M  END
