x2694-x2193-x1308-x0426-x0995
     RDKit          3D

 67 73  0  0  0  0  0  0  0  0999 V2000
    6.8000   -1.2140   21.9870 N   0  0  0  0  0  0  0  0  0  0  0  0
    6.0090   -2.3120   21.2720 C   0  0  0  0  0  0  0  0  0  0  0  0
    4.8160   -3.0380   21.3850 O   0  0  0  0  0  0  0  0  0  0  0  0
    6.6050    0.1450   21.7170 C   0  0  1  0  0  0  0  0  0  0  0  0
    8.1140   -1.3890   22.5860 C   0  0  0  0  0  0  0  0  0  0  0  0
    6.7600   -2.6630   20.0870 C   0  0  0  0  0  0  0  0  0  0  0  0
    7.7470    1.1750   21.8910 C   0  0  0  0  0  0  0  0  0  0  0  0
    6.0470    0.5240   20.3950 C   0  0  0  0  0  0  0  0  0  0  0  0
    8.3380   -1.7500   23.8800 N   0  0  0  0  0  0  0  0  0  0  0  0
    9.5590   -1.1940   22.0180 C   0  0  0  0  0  0  0  0  0  0  0  0
    6.9650   -4.1170   20.0250 C   0  0  0  0  0  0  0  0  0  0  0  0
    7.6540    2.2010   22.9650 N   0  0  0  0  0  0  0  0  0  0  0  0
    8.7060    1.2010   21.1140 O   0  0  0  0  0  0  0  0  0  0  0  0
    4.7720    1.1210   20.1820 C   0  0  0  0  0  0  0  0  0  0  0  0
    6.7800    0.3330   19.2300 C   0  0  0  0  0  0  0  0  0  0  0  0
    9.7540   -1.7700   24.0990 O   0  0  0  0  0  0  0  0  0  0  0  0
   10.5190   -1.4330   23.0000 C   0  0  0  0  0  0  0  0  0  0  0  0
   12.0580   -1.4030   23.1340 C   0  0  0  0  0  0  0  0  0  0  0  0
    3.7560    1.4180   21.2850 C   0  0  0  0  0  0  0  0  0  0  0  0
    6.4520    0.6710   17.8370 N   0  0  0  0  0  0  0  0  0  0  0  0
    4.3490    1.5120   18.8070 C   0  0  0  0  0  0  0  0  0  0  0  0
    8.4390    3.3810   23.1050 C   0  0  0  0  0  0  0  0  0  0  0  0
    6.9270   -4.9210   21.3360 N   0  0  0  0  0  0  0  0  0  0  0  0
   12.4700   -0.0370   23.6780 C   0  0  0  0  0  0  0  0  0  0  0  0
   12.7550   -1.8570   21.8140 C   0  0  0  0  0  0  0  0  0  0  0  0
   12.4520   -2.2510   24.0500 C   0  0  0  0  0  0  0  0  0  0  0  0
    4.1190    2.2470   22.3730 C   0  0  0  0  0  0  0  0  0  0  0  0
    5.2690    1.2560   17.6750 C   0  0  0  0  0  0  0  0  0  0  0  0
    9.7470    3.2630   23.6390 C   0  0  0  0  0  0  0  0  0  0  0  0
    7.9770    4.7860   22.7250 C   0  0  0  0  0  0  0  0  0  0  0  0
    7.5180   -4.3950   22.5470 C   0  0  0  0  0  0  0  0  0  0  0  0
    5.9580   -6.0000   21.6210 C   0  0  0  0  0  0  0  0  0  0  0  0
   10.3100    1.9280   24.0490 C   0  0  0  0  0  0  0  0  0  0  0  0
    3.1030    2.9090   23.1170 N   0  0  0  0  0  0  0  0  0  0  0  0
   10.6270    4.3570   23.8420 C   0  0  0  0  0  0  0  0  0  0  0  0
    8.9090    5.9230   22.9510 C   0  0  0  0  0  0  0  0  0  0  0  0
    6.4590   -4.1180   23.6350 C   0  0  0  0  0  0  0  0  0  0  0  0
    5.0540   -5.8470   22.9040 C   0  0  0  0  0  0  0  0  0  0  0  0
    2.3900    2.1880   24.1740 C   0  0  0  0  0  0  0  0  0  0  0  0
   10.2590    5.6690   23.5310 C   0  0  0  0  0  0  0  0  0  0  0  0
    5.7750   -5.3470   24.0790 N   0  0  0  0  0  0  0  0  0  0  0  0
   11.0100    6.6350   23.7180 O   0  0  0  0  0  0  0  0  0  0  0  0
    2.7590    1.1090   24.5960 O   0  0  0  0  0  0  0  0  0  0  0  0
    5.2440   -5.5230   25.7020 S   0  0  2  0  0  0  0  0  0  0  0  0
    1.3240    2.7760   24.7070 C   0  0  0  0  0  0  0  0  0  0  0  0
   11.8600    6.5820   24.8640 C   0  0  0  0  0  0  0  0  0  0  0  0
    6.5780   -5.4050   26.7170 N   0  0  0  0  0  0  0  0  0  0  0  0
    4.6390   -6.8300   25.8060 O   0  0  0  0  0  0  0  0  0  0  0  0
    1.4590    4.1290   25.4080 C   0  0  0  0  0  0  0  0  0  0  0  0
   -0.0480    2.1290   24.6410 C   0  0  0  0  0  0  0  0  0  0  0  0
    3.9890   -4.3100   26.0440 C   0  0  0  0  0  0  0  0  0  0  0  0
    2.6550    4.7310   25.4870 F   0  0  0  0  0  0  0  0  0  0  0  0
   -1.2710    2.7990   25.2530 C   0  0  0  0  0  0  0  0  0  0  0  0
    0.3500    4.7580   25.9750 C   0  0  0  0  0  0  0  0  0  0  0  0
    7.8160   -5.0610   25.9540 C   0  0  2  0  0  0  0  0  0  0  0  0
    4.3340   -3.0470   26.5240 C   0  0  0  0  0  0  0  0  0  0  0  0
    2.6520   -4.6620   25.8120 C   0  0  0  0  0  0  0  0  0  0  0  0
   -1.0650    4.1610   25.9450 C   0  0  0  0  0  0  0  0  0  0  0  0
    8.8180   -6.0530   26.2830 N   0  0  0  0  0  0  0  0  0  0  0  0
    8.3660   -3.8750   26.3740 C   0  0  0  0  0  0  0  0  0  0  0  0
    3.3160   -2.1400   26.7700 C   0  0  0  0  0  0  0  0  0  0  0  0
    1.6340   -3.8010   26.0430 C   0  0  0  0  0  0  0  0  0  0  0  0
    9.7260   -3.6980   25.7830 N   0  0  0  0  0  0  0  0  0  0  0  0
    9.8240   -5.8170   25.2840 C   0  0  0  0  0  0  0  0  0  0  0  0
    1.8430   -2.5020   26.5260 C   0  0  0  0  0  0  0  0  0  0  0  0
    0.5510   -1.4030   26.8140 Cl  0  0  0  0  0  0  0  0  0  0  0  0
    9.8500   -4.4020   24.6770 C   0  0  0  0  0  0  0  0  0  0  0  0
  1  2  1  0
  2  3  2  0
  1  4  1  0
  1  5  1  0
  2  6  1  0
  4  7  1  6
  4  8  1  0
  5  9  2  0
  5 10  1  0
  6 11  1  0
  7 12  1  0
  7 13  2  0
  8 14  1  0
  8 15  2  0
  9 16  1  0
 10 17  2  0
 16 17  1  0
 17 18  1  0
 14 19  1  0
 15 20  1  0
 14 21  2  0
 12 22  1  0
 11 23  1  0
 18 24  1  0
 18 25  1  0
 18 26  1  0
 19 27  1  0
 20 28  2  0
 21 28  1  0
 22 29  2  0
 22 30  1  0
 23 31  1  0
 23 32  1  0
 29 33  1  0
 27 34  1  0
 29 35  1  0
 30 36  2  0
 31 37  1  0
 32 38  1  0
 34 39  1  0
 35 40  2  0
 36 40  1  0
 37 41  1  0
 38 41  1  0
 40 42  1  0
 39 43  2  0
 41 44  1  0
 39 45  1  0
 42 46  1  0
 44 47  2  0
 44 48  2  0
 45 49  2  0
 45 50  1  0
 44 51  1  1
 49 52  1  0
 50 53  2  0
 49 54  1  0
 55 47  1  1
 51 56  2  0
 51 57  1  0
 53 58  1  0
 54 58  2  0
 55 59  1  0
 55 60  1  0
 56 61  1  0
 57 62  2  0
 60 63  1  0
 59 64  1  0
 61 65  2  0
 62 65  1  0
 65 66  1  0
 63 67  1  0
 64 67  1  0
M  END
