x2694-x0978-x3115-x1402-x2703
     RDKit          3D

 61 66  0  0  0  0  0  0  0  0999 V2000
    6.9100   -1.2400   21.6920 N   0  0  0  0  0  0  0  0  0  0  0  0
    6.0980   -2.4940   21.4590 C   0  0  0  0  0  0  0  0  0  0  0  0
    4.8120   -2.9160   21.1170 O   0  0  0  0  0  0  0  0  0  0  0  0
    6.4090    0.2000   21.5140 C   0  0  1  0  0  0  0  0  0  0  0  0
    8.1910   -1.3430   22.4800 C   0  0  0  0  0  0  0  0  0  0  0  0
    7.0480   -3.5440   21.6960 C   0  0  0  0  0  0  0  0  0  0  0  0
    7.6720    1.1020   21.8990 C   0  0  0  0  0  0  0  0  0  0  0  0
    6.0240    0.5780   20.1990 C   0  0  0  0  0  0  0  0  0  0  0  0
    8.3940   -1.5330   23.9230 N   0  0  0  0  0  0  0  0  0  0  0  0
    9.5460   -1.2850   22.0270 C   0  0  0  0  0  0  0  0  0  0  0  0
    6.7880   -4.5960   20.6800 C   0  0  0  0  0  0  0  0  0  0  0  0
    7.4500    2.2700   22.6180 N   0  0  0  0  0  0  0  0  0  0  0  0
    8.8280    0.8990   21.5450 O   0  0  0  0  0  0  0  0  0  0  0  0
    4.9030    1.3560   20.0770 C   0  0  0  0  0  0  0  0  0  0  0  0
    6.7540    0.2060   19.0680 C   0  0  0  0  0  0  0  0  0  0  0  0
    9.8360   -1.5660   24.2070 O   0  0  0  0  0  0  0  0  0  0  0  0
   10.5450   -1.4120   23.0380 C   0  0  0  0  0  0  0  0  0  0  0  0
   12.0950   -1.4010   23.0390 C   0  0  0  0  0  0  0  0  0  0  0  0
    6.3690    0.6390   17.7310 N   0  0  0  0  0  0  0  0  0  0  0  0
    4.5080    1.7880   18.8350 C   0  0  0  0  0  0  0  0  0  0  0  0
    8.4400    3.3220   22.9210 C   0  0  0  0  0  0  0  0  0  0  0  0
    6.8600   -5.8220   21.4920 N   0  0  0  0  0  0  0  0  0  0  0  0
    6.1080    2.7000   22.9900 C   0  0  0  0  0  0  0  0  0  0  0  0
   12.6490   -0.2250   23.5750 C   0  0  0  0  0  0  0  0  0  0  0  0
   12.7600   -1.6880   21.6420 C   0  0  0  0  0  0  0  0  0  0  0  0
   12.6970   -2.6680   23.7390 C   0  0  0  0  0  0  0  0  0  0  0  0
    5.1880    1.4850   17.6140 C   0  0  0  0  0  0  0  0  0  0  0  0
    9.7350    2.9770   23.6370 C   0  0  0  0  0  0  0  0  0  0  0  0
    8.1150    4.7390   22.5080 C   0  0  0  0  0  0  0  0  0  0  0  0
    7.6470   -5.7600   22.7450 C   0  0  0  0  0  0  0  0  0  0  0  0
    5.6400   -6.4460   21.8210 C   0  0  0  0  0  0  0  0  0  0  0  0
    5.5960    3.5940   22.0360 C   0  0  0  0  0  0  0  0  0  0  0  0
   10.1120    1.6690   24.0570 C   0  0  0  0  0  0  0  0  0  0  0  0
   12.9320   -2.4960   25.2170 C   0  0  0  0  0  0  0  0  0  0  0  0
   10.6460    4.1870   23.8940 C   0  0  0  0  0  0  0  0  0  0  0  0
    8.9850    5.7840   22.7820 C   0  0  0  0  0  0  0  0  0  0  0  0
    6.9540   -5.2590   24.0780 C   0  0  0  0  0  0  0  0  0  0  0  0
    4.7360   -5.6770   22.7810 C   0  0  1  0  0  0  0  0  0  0  0  0
    8.5710    7.1470   22.3350 C   0  0  0  0  0  0  0  0  0  0  0  0
    9.1430    1.1210   25.1310 C   0  0  0  0  0  0  0  0  0  0  0  0
    3.4770   -6.4120   23.2290 C   0  0  2  0  0  0  0  0  0  0  0  0
   10.2010    5.5730   23.4470 C   0  0  0  0  0  0  0  0  0  0  0  0
    5.4060   -5.1590   24.0480 C   0  0  2  0  0  0  0  0  0  0  0  0
   10.9890    6.7250   23.6770 O   0  0  0  0  0  0  0  0  0  0  0  0
    2.3400   -5.6510   23.1660 N   0  0  0  0  0  0  0  0  0  0  0  0
    3.7310   -6.9190   24.5130 C   0  0  1  0  0  0  0  0  0  0  0  0
    5.2520   -3.7660   23.7540 O   0  0  0  0  0  0  0  0  0  0  0  0
    4.5260   -5.7030   25.4920 S   0  0  0  0  0  0  0  0  0  0  0  0
   11.8710    6.6780   24.8000 C   0  0  0  0  0  0  0  0  0  0  0  0
    2.6520   -7.5080   25.1540 C   0  0  0  0  0  0  0  0  0  0  0  0
    4.5270   -8.0160   24.4040 O   0  0  0  0  0  0  0  0  0  0  0  0
    1.0480   -6.1820   22.6530 C   0  0  0  0  0  0  0  0  0  0  0  0
    5.7060   -5.6830   26.3490 O   0  0  0  0  0  0  0  0  0  0  0  0
    3.6670   -4.1820   25.8030 C   0  0  0  0  0  0  0  0  0  0  0  0
    0.9770   -7.2450   22.0160 O   0  0  0  0  0  0  0  0  0  0  0  0
   -0.1230   -5.4500   22.8940 C   0  0  0  0  0  0  0  0  0  0  0  0
    2.0340   -3.7830   25.8230 S   0  0  0  0  0  0  0  0  0  0  0  0
    4.3050   -2.9710   26.0960 C   0  0  0  0  0  0  0  0  0  0  0  0
    3.4690   -1.8880   26.2990 C   0  0  0  0  0  0  0  0  0  0  0  0
    2.0930   -2.1130   26.1950 C   0  0  0  0  0  0  0  0  0  0  0  0
    0.7680   -0.9740   26.3980 Cl  0  0  0  0  0  0  0  0  0  0  0  0
  1  2  1  0
  2  3  2  0
  1  4  1  0
  1  5  1  0
  2  6  1  0
  4  7  1  6
  4  8  1  0
  5  9  2  0
  5 10  1  0
  6 11  1  0
  7 12  1  0
  7 13  2  0
  8 14  2  0
  8 15  1  0
  9 16  1  0
 10 17  2  0
 16 17  1  0
 17 18  1  0
 15 19  2  0
 14 20  1  0
 12 21  1  0
 11 22  1  0
 12 23  1  0
 18 24  1  0
 18 25  1  0
 18 26  1  0
 19 27  1  0
 20 27  2  0
 21 28  2  0
 21 29  1  0
 22 30  1  0
 22 31  1  0
 23 32  1  0
 28 33  1  0
 26 34  1  0
 28 35  1  0
 29 36  2  0
 30 37  1  0
 38 31  1  1
 36 39  1  0
 33 40  1  0
 38 41  1  0
 35 42  2  0
 36 42  1  0
 37 43  1  0
 38 43  1  0
 42 44  1  0
 41 45  1  1
 41 46  1  0
 43 47  1  6
 43 48  1  0
 46 48  1  0
 44 49  1  0
 46 50  1  1
 46 51  1  0
 45 52  1  0
 48 53  2  0
 48 54  1  0
 52 55  2  0
 52 56  1  0
 54 57  1  0
 54 58  2  0
 58 59  1  0
 57 60  1  0
 59 60  2  0
 60 61  1  0
M  END
