x2694-x3115-x1308-x0771-x2776
     RDKit          3D

 58 63  0  0  0  0  0  0  0  0999 V2000
    6.6780   -1.2340   21.9490 C   0  0  1  0  0  0  0  0  0  0  0  0
    5.8780   -2.1620   20.9010 C   0  0  0  0  0  0  0  0  0  0  0  0
    4.7370   -2.8460   21.0360 O   0  0  0  0  0  0  0  0  0  0  0  0
    6.5300    0.2720   21.6980 C   0  0  1  0  0  0  0  0  0  0  0  0
    5.6350   -1.8780   22.9200 C   0  0  0  0  0  0  0  0  0  0  0  0
    8.1720   -1.3880   22.4780 C   0  0  0  0  0  0  0  0  0  0  0  0
    6.4220   -2.4300   19.6610 C   0  0  0  0  0  0  0  0  0  0  0  0
    7.7200    1.3140   21.8670 C   0  0  0  0  0  0  0  0  0  0  0  0
    5.2200   -3.1650   22.3420 C   0  0  0  0  0  0  0  0  0  0  0  0
    6.0400    0.6380   20.3660 C   0  0  0  0  0  0  0  0  0  0  0  0
    8.3290   -1.6480   23.9330 N   0  0  0  0  0  0  0  0  0  0  0  0
    9.4290   -1.3100   21.9290 C   0  0  0  0  0  0  0  0  0  0  0  0
    6.6810   -3.8390   19.9730 C   0  0  0  0  0  0  0  0  0  0  0  0
    7.5130    2.2130   22.9190 N   0  0  0  0  0  0  0  0  0  0  0  0
    8.7020    1.3440   21.1130 O   0  0  0  0  0  0  0  0  0  0  0  0
    4.7420    1.3750   20.1200 C   0  0  0  0  0  0  0  0  0  0  0  0
    6.7570    0.3500   19.1930 C   0  0  0  0  0  0  0  0  0  0  0  0
    9.7190   -1.7070   24.1710 O   0  0  0  0  0  0  0  0  0  0  0  0
   10.4820   -1.5130   23.0300 C   0  0  0  0  0  0  0  0  0  0  0  0
    6.3290   -4.1680   21.6230 C   0  0  0  0  0  0  0  0  0  0  0  0
   12.0200   -1.5530   23.2120 C   0  0  0  0  0  0  0  0  0  0  0  0
    6.4090    0.6650   17.9140 N   0  0  0  0  0  0  0  0  0  0  0  0
    4.3960    1.6970   18.8330 C   0  0  0  0  0  0  0  0  0  0  0  0
    8.4540    3.2910   23.1140 C   0  0  0  0  0  0  0  0  0  0  0  0
    5.6310   -5.5260   21.6910 C   0  0  0  0  0  0  0  0  0  0  0  0
    7.3050   -4.1700   22.6000 C   0  0  0  0  0  0  0  0  0  0  0  0
   12.5060   -0.3270   23.6640 C   0  0  0  0  0  0  0  0  0  0  0  0
   12.7120   -1.8120   21.8580 C   0  0  0  0  0  0  0  0  0  0  0  0
   12.3600   -2.6450   24.0650 C   0  0  0  0  0  0  0  0  0  0  0  0
    5.1750    1.3760   17.7510 C   0  0  0  0  0  0  0  0  0  0  0  0
    9.7090    3.0840   23.7090 C   0  0  0  0  0  0  0  0  0  0  0  0
    8.0980    4.5750   22.7040 C   0  0  0  0  0  0  0  0  0  0  0  0
    5.1320   -5.9440   23.0940 C   0  0  0  0  0  0  0  0  0  0  0  0
    6.6360   -4.1630   23.8550 C   0  0  0  0  0  0  0  0  0  0  0  0
   10.1670    1.7370   24.1710 C   0  0  0  0  0  0  0  0  0  0  0  0
   13.3350   -2.3890   25.1850 C   0  0  0  0  0  0  0  0  0  0  0  0
   10.5300    4.1650   23.8680 C   0  0  0  0  0  0  0  0  0  0  0  0
    8.9140    5.7290   22.8480 C   0  0  0  0  0  0  0  0  0  0  0  0
    5.5390   -5.0480   24.0950 C   0  0  0  0  0  0  0  0  0  0  0  0
    8.4420    7.0750   22.3690 C   0  0  0  0  0  0  0  0  0  0  0  0
    4.5080   -5.1590   25.5810 S   0  0  0  0  0  0  0  0  0  0  0  0
    6.3290   -5.9370   25.3850 S   0  0  0  0  0  0  0  0  0  0  0  0
   10.1550    5.5680   23.4440 C   0  0  0  0  0  0  0  0  0  0  0  0
   10.9510    6.6820   23.6060 O   0  0  0  0  0  0  0  0  0  0  0  0
    3.7610   -6.3910   25.4770 O   0  0  0  0  0  0  0  0  0  0  0  0
    5.2680   -4.8690   26.7930 O   0  0  0  0  0  0  0  0  0  0  0  0
    7.6070   -6.2490   24.8430 O   0  0  0  0  0  0  0  0  0  0  0  0
    5.4940   -7.0600   26.1680 O   0  0  0  0  0  0  0  0  0  0  0  0
    3.3040   -3.9430   25.6740 C   0  0  0  0  0  0  0  0  0  0  0  0
   11.8690    6.6660   24.7060 C   0  0  0  0  0  0  0  0  0  0  0  0
    2.0110   -4.3340   25.2990 C   0  0  0  0  0  0  0  0  0  0  0  0
    3.5960   -2.6680   26.1000 C   0  0  0  0  0  0  0  0  0  0  0  0
    1.5600   -5.6850   24.8210 C   0  0  0  0  0  0  0  0  0  0  0  0
    1.0470   -3.3300   25.3930 C   0  0  0  0  0  0  0  0  0  0  0  0
    2.5700   -1.5820   26.2040 C   0  0  0  0  0  0  0  0  0  0  0  0
    1.2910   -1.9230   25.8470 C   0  0  0  0  0  0  0  0  0  0  0  0
    0.1990   -0.9330   25.9090 C   0  0  0  0  0  0  0  0  0  0  0  0
   -0.1570   -0.6970   27.5550 Cl  0  0  0  0  0  0  0  0  0  0  0  0
  1  2  1  0
  2  3  2  0
  1  4  1  0
  1  5  1  0
  1  6  1  1
  2  7  1  0
  4  8  1  6
  5  9  1  0
  4 10  1  0
  6 11  2  0
  6 12  1  0
  7 13  1  0
  8 14  1  0
  8 15  2  0
 10 16  2  0
 10 17  1  0
 11 18  1  0
 12 19  2  0
 18 19  1  0
 20  9  1  0
 13 20  1  0
 19 21  1  0
 17 22  2  0
 16 23  1  0
 14 24  1  0
 20 25  1  0
 20 26  1  0
 21 27  1  0
 21 28  1  0
 21 29  1  0
 22 30  1  0
 23 30  2  0
 24 31  2  0
 24 32  1  0
 25 33  1  0
 26 34  1  0
 31 35  1  0
 29 36  1  0
 31 37  1  0
 32 38  2  0
 33 39  1  0
 34 39  1  0
 38 40  1  0
 39 41  1  0
 39 42  1  0
 37 43  2  0
 38 43  1  0
 43 44  1  0
 41 45  2  0
 41 46  2  0
 42 47  2  0
 42 48  2  0
 41 49  1  0
 44 50  1  0
 49 51  2  0
 49 52  1  0
 51 53  1  0
 51 54  1  0
 52 55  2  0
 54 56  2  0
 55 56  1  0
 56 57  1  0
 57 58  1  0
M  END
