x2694-x0689
     RDKit          3D

 49 54  0  0  0  0  0  0  0  0999 V2000
    6.8470   -1.3000   22.0090 C   0  0  1  0  0  0  0  0  0  0  0  0
    6.4540   -2.7020   21.3290 C   0  0  0  0  0  0  0  0  0  0  0  0
    5.1520   -3.3150   20.9090 O   0  0  0  0  0  0  0  0  0  0  0  0
    6.6620    0.1790   21.5460 C   0  0  1  0  0  0  0  0  0  0  0  0
    5.7160   -1.9000   22.8450 C   0  0  0  0  0  0  0  0  0  0  0  0
    8.3170   -1.3400   22.6460 C   0  0  0  0  0  0  0  0  0  0  0  0
    8.0150   -3.0920   21.4580 C   0  0  0  0  0  0  0  0  0  0  0  0
    7.6630    1.2000   21.8220 C   0  0  0  0  0  0  0  0  0  0  0  0
    6.0780   -3.2790   23.1050 C   0  0  0  0  0  0  0  0  0  0  0  0
    6.1370    0.4650   20.1960 C   0  0  0  0  0  0  0  0  0  0  0  0
    8.5470   -1.4880   24.0900 N   0  0  0  0  0  0  0  0  0  0  0  0
    9.6430   -1.2600   22.1560 C   0  0  0  0  0  0  0  0  0  0  0  0
    7.5740   -4.3270   20.9430 C   0  0  0  0  0  0  0  0  0  0  0  0
    7.5440    1.9940   22.6870 N   0  0  0  0  0  0  0  0  0  0  0  0
    8.6360    1.2730   21.0640 O   0  0  0  0  0  0  0  0  0  0  0  0
    4.9860    1.2630   20.1020 C   0  0  0  0  0  0  0  0  0  0  0  0
    6.8360   -0.0440   19.1030 C   0  0  0  0  0  0  0  0  0  0  0  0
    9.9380   -1.4840   24.2990 O   0  0  0  0  0  0  0  0  0  0  0  0
   10.6450   -1.3550   23.1300 C   0  0  0  0  0  0  0  0  0  0  0  0
    6.4170   -4.5440   22.0350 C   0  0  0  0  0  0  0  0  0  0  0  0
   12.1790   -1.3500   23.1930 C   0  0  0  0  0  0  0  0  0  0  0  0
    6.2930    0.3330   17.8030 N   0  0  0  0  0  0  0  0  0  0  0  0
    4.4670    1.6160   18.8870 C   0  0  0  0  0  0  0  0  0  0  0  0
    8.3590    3.2250   23.0020 C   0  0  0  0  0  0  0  0  0  0  0  0
    5.4110   -5.4790   21.7890 C   0  0  0  0  0  0  0  0  0  0  0  0
    7.2770   -5.3560   23.0440 C   0  0  0  0  0  0  0  0  0  0  0  0
   12.7830    0.0400   23.2390 C   0  0  0  0  0  0  0  0  0  0  0  0
   12.7550   -1.9500   21.8910 C   0  0  0  0  0  0  0  0  0  0  0  0
   12.6510   -2.2030   24.3540 C   0  0  0  0  0  0  0  0  0  0  0  0
    5.1150    1.1650   17.7780 C   0  0  0  0  0  0  0  0  0  0  0  0
    9.7200    3.0660   23.2240 C   0  0  0  0  0  0  0  0  0  0  0  0
    7.7330    4.6260   23.0920 C   0  0  0  0  0  0  0  0  0  0  0  0
    4.5550   -5.6480   22.9130 C   0  0  0  0  0  0  0  0  0  0  0  0
    6.7260   -5.3470   24.2910 C   0  0  0  0  0  0  0  0  0  0  0  0
   10.3040    1.7010   23.0980 C   0  0  0  0  0  0  0  0  0  0  0  0
   10.6260    4.0990   23.5610 C   0  0  0  0  0  0  0  0  0  0  0  0
    8.7420    5.6740   23.4480 C   0  0  0  0  0  0  0  0  0  0  0  0
    5.2910   -5.6300   24.2240 N   0  0  0  0  0  0  0  0  0  0  0  0
    4.4840   -5.3980   25.6930 S   0  0  0  0  0  0  0  0  0  0  0  0
   10.1350    5.4560   23.6880 C   0  0  0  0  0  0  0  0  0  0  0  0
   10.8970    6.5610   24.0170 O   0  0  0  0  0  0  0  0  0  0  0  0
    3.6880   -6.5720   25.9710 O   0  0  0  0  0  0  0  0  0  0  0  0
    5.4920   -4.9710   26.6430 O   0  0  0  0  0  0  0  0  0  0  0  0
    3.3100   -4.0560   25.6320 C   0  0  0  0  0  0  0  0  0  0  0  0
   11.8910    6.3660   25.0190 C   0  0  0  0  0  0  0  0  0  0  0  0
    3.9200   -2.4450   25.9500 S   0  0  0  0  0  0  0  0  0  0  0  0
    1.8160   -4.0060   25.3600 C   0  0  0  0  0  0  0  0  0  0  0  0
    1.2820   -2.6240   25.4460 C   0  0  0  0  0  0  0  0  0  0  0  0
    2.3980   -1.6510   25.7770 C   0  0  0  0  0  0  0  0  0  0  0  0
  1  2  1  0
  2  3  2  0
  1  4  1  0
  1  5  1  0
  1  6  1  1
  2  7  1  0
  4  8  1  6
  5  9  1  0
  4 10  1  0
  6 11  2  0
  6 12  1  0
  7 13  1  0
  8 14  1  0
  8 15  2  0
 10 16  2  0
 10 17  1  0
 11 18  1  0
 12 19  2  0
 18 19  1  0
 20  9  1  0
 13 20  1  0
 19 21  1  0
 17 22  2  0
 16 23  1  0
 14 24  1  0
 20 25  1  0
 20 26  1  0
 21 27  1  0
 21 28  1  0
 21 29  1  0
 22 30  1  0
 23 30  2  0
 24 31  2  0
 24 32  1  0
 25 33  1  0
 26 34  1  0
 31 35  1  0
 31 36  1  0
 32 37  2  0
 33 38  1  0
 34 38  1  0
 38 39  1  0
 36 40  2  0
 37 40  1  0
 40 41  1  0
 39 42  2  0
 39 43  2  0
 39 44  1  0
 41 45  1  0
 44 46  1  0
 44 47  2  0
 47 48  1  0
 46 49  1  0
 48 49  2  0
M  END
