x2694-x2193-x3115-x1308-x0995
     RDKit          3D

 58 63  0  0  0  0  0  0  0  0999 V2000
    6.9390   -1.4400   21.8380 N   0  0  0  0  0  0  0  0  0  0  0  0
    6.0440   -2.4360   21.0610 C   0  0  0  0  0  0  0  0  0  0  0  0
    4.9240   -3.1630   21.3420 O   0  0  0  0  0  0  0  0  0  0  0  0
    6.6950    0.0200   21.5870 C   0  0  1  0  0  0  0  0  0  0  0  0
    8.2230   -1.5650   22.5310 C   0  0  0  0  0  0  0  0  0  0  0  0
    6.4560   -2.5360   19.6360 C   0  0  0  0  0  0  0  0  0  0  0  0
    7.8280    1.1490   21.8170 C   0  0  0  0  0  0  0  0  0  0  0  0
    6.0690    0.5210   20.2850 C   0  0  0  0  0  0  0  0  0  0  0  0
    8.3540   -1.8380   23.8420 N   0  0  0  0  0  0  0  0  0  0  0  0
    9.4920   -1.3900   21.9700 C   0  0  0  0  0  0  0  0  0  0  0  0
    6.8040   -3.9860   20.0510 C   0  0  0  0  0  0  0  0  0  0  0  0
    7.6330    2.0650   22.9520 N   0  0  0  0  0  0  0  0  0  0  0  0
    8.7940    1.3070   21.0820 O   0  0  0  0  0  0  0  0  0  0  0  0
    4.8930    1.2170   20.1730 C   0  0  0  0  0  0  0  0  0  0  0  0
    6.8300    0.2200   19.1490 C   0  0  0  0  0  0  0  0  0  0  0  0
    9.7480   -1.8290   24.0880 O   0  0  0  0  0  0  0  0  0  0  0  0
   10.4870   -1.5520   22.9520 C   0  0  0  0  0  0  0  0  0  0  0  0
   12.0760   -1.5010   23.0950 C   0  0  0  0  0  0  0  0  0  0  0  0
    6.4090    0.6230   17.9140 N   0  0  0  0  0  0  0  0  0  0  0  0
    4.4910    1.6140   18.9420 C   0  0  0  0  0  0  0  0  0  0  0  0
    8.4330    3.2490   23.0740 C   0  0  0  0  0  0  0  0  0  0  0  0
    6.5520   -4.4500   21.4390 N   0  0  0  0  0  0  0  0  0  0  0  0
   12.5520   -0.2330   23.7600 C   0  0  0  0  0  0  0  0  0  0  0  0
   12.8030   -1.5720   21.7420 C   0  0  0  0  0  0  0  0  0  0  0  0
   12.6100   -2.7380   23.8360 C   0  0  0  0  0  0  0  0  0  0  0  0
    3.2430    2.3590   18.8780 N   0  0  0  0  0  0  0  0  0  0  0  0
    5.2310    1.3310   17.8130 C   0  0  0  0  0  0  0  0  0  0  0  0
    9.6870    3.1570   23.6660 C   0  0  0  0  0  0  0  0  0  0  0  0
    8.0530    4.6010   22.6310 C   0  0  0  0  0  0  0  0  0  0  0  0
    7.6070   -4.4490   22.4570 C   0  0  0  0  0  0  0  0  0  0  0  0
    5.8330   -5.7240   21.6670 C   0  0  0  0  0  0  0  0  0  0  0  0
   10.1900    1.8330   24.1480 C   0  0  0  0  0  0  0  0  0  0  0  0
   13.0330   -2.6330   25.2600 C   0  0  0  0  0  0  0  0  0  0  0  0
   10.5280    4.2590   23.8500 C   0  0  0  0  0  0  0  0  0  0  0  0
    8.9280    5.6910   22.8340 C   0  0  0  0  0  0  0  0  0  0  0  0
    6.9070   -4.2570   23.8070 C   0  0  0  0  0  0  0  0  0  0  0  0
    5.1340   -5.6930   23.0440 C   0  0  0  0  0  0  0  0  0  0  0  0
    8.5170    7.0530   22.3700 C   0  0  0  0  0  0  0  0  0  0  0  0
   10.1990    5.5730   23.4590 C   0  0  0  0  0  0  0  0  0  0  0  0
    6.0120   -5.3660   24.2010 N   0  0  0  0  0  0  0  0  0  0  0  0
   11.0030    6.6720   23.6450 O   0  0  0  0  0  0  0  0  0  0  0  0
    5.4140   -5.3690   25.8090 S   0  0  2  0  0  0  0  0  0  0  0  0
   11.8680    6.6250   24.7840 C   0  0  0  0  0  0  0  0  0  0  0  0
    6.6320   -4.8340   26.8880 N   0  0  0  0  0  0  0  0  0  0  0  0
    4.9540   -6.7160   26.0950 O   0  0  0  0  0  0  0  0  0  0  0  0
    4.0460   -4.2410   25.9840 C   0  0  0  0  0  0  0  0  0  0  0  0
    7.9120   -5.3270   26.8380 C   0  0  1  0  0  0  0  0  0  0  0  0
    4.2940   -2.9490   26.3900 C   0  0  0  0  0  0  0  0  0  0  0  0
    2.7430   -4.6460   25.7180 C   0  0  0  0  0  0  0  0  0  0  0  0
    8.2830   -6.1550   25.9010 N   0  0  0  0  0  0  0  0  0  0  0  0
    8.9640   -4.4700   27.0220 C   0  0  0  0  0  0  0  0  0  0  0  0
    3.1900   -1.9030   26.5760 C   0  0  0  0  0  0  0  0  0  0  0  0
    1.6140   -3.7960   25.8430 C   0  0  0  0  0  0  0  0  0  0  0  0
    9.3080   -3.6570   25.8490 N   0  0  0  0  0  0  0  0  0  0  0  0
    9.5360   -5.9200   25.1580 C   0  0  0  0  0  0  0  0  0  0  0  0
    1.7690   -2.3490   26.2910 C   0  0  0  0  0  0  0  0  0  0  0  0
    0.4290   -1.2890   26.4670 Cl  0  0  0  0  0  0  0  0  0  0  0  0
    9.8340   -4.5940   24.8420 C   0  0  0  0  0  0  0  0  0  0  0  0
  1  2  1  0
  2  3  2  0
  1  4  1  0
  1  5  1  0
  2  6  1  0
  4  7  1  6
  4  8  1  0
  5  9  2  0
  5 10  1  0
  6 11  1  0
  7 12  1  0
  7 13  2  0
  8 14  2  0
  8 15  1  0
  9 16  1  0
 10 17  2  0
 16 17  1  0
 17 18  1  0
 15 19  2  0
 14 20  1  0
 12 21  1  0
 11 22  1  0
 18 23  1  0
 18 24  1  0
 18 25  1  0
 20 26  1  0
 19 27  1  0
 20 27  2  0
 21 28  2  0
 21 29  1  0
 22 30  1  0
 22 31  1  0
 28 32  1  0
 25 33  1  0
 28 34  1  0
 29 35  2  0
 30 36  1  0
 31 37  1  0
 35 38  1  0
 34 39  2  0
 35 39  1  0
 36 40  1  0
 37 40  1  0
 39 41  1  0
 40 42  1  0
 41 43  1  0
 42 44  2  0
 42 45  2  0
 42 46  1  6
 47 44  1  6
 46 48  2  0
 46 49  1  0
 47 50  1  0
 47 51  1  0
 48 52  1  0
 49 53  2  0
 51 54  1  0
 50 55  1  0
 52 56  2  0
 53 56  1  0
 56 57  1  0
 54 58  1  0
 55 58  1  0
M  END
