x2694-x1348-x1380
     RDKit          3D

 51 56  0  0  0  0  0  0  0  0999 V2000
    7.0100   -1.3440   21.6780 N   0  0  0  0  0  0  0  0  0  0  0  0
    6.1390   -2.5960   21.4010 C   0  0  0  0  0  0  0  0  0  0  0  0
    4.8080   -2.9300   21.1620 O   0  0  0  0  0  0  0  0  0  0  0  0
    6.6490    0.1380   21.5220 C   0  0  1  0  0  0  0  0  0  0  0  0
    8.3310   -1.4670   22.4990 C   0  0  0  0  0  0  0  0  0  0  0  0
    6.9290   -3.8480   21.3880 C   0  0  2  0  0  0  0  0  0  0  0  0
    7.7160    1.1240   21.7330 C   0  0  0  0  0  0  0  0  0  0  0  0
    6.1550    0.4740   20.3400 C   0  0  0  0  0  0  0  0  0  0  0  0
    8.4400   -1.6770   23.9430 N   0  0  0  0  0  0  0  0  0  0  0  0
    9.6390   -1.3830   22.0720 C   0  0  0  0  0  0  0  0  0  0  0  0
    6.7230   -4.3480   19.9830 C   0  0  0  0  0  0  0  0  0  0  0  0
    7.5110    2.0890   22.6910 N   0  0  0  0  0  0  0  0  0  0  0  0
    8.7530    1.1680   21.0720 O   0  0  0  0  0  0  0  0  0  0  0  0
    5.0210    1.2480   20.2400 C   0  0  0  0  0  0  0  0  0  0  0  0
    6.8110    0.0570   19.1110 C   0  0  0  0  0  0  0  0  0  0  0  0
    9.8360   -1.6850   24.1800 O   0  0  0  0  0  0  0  0  0  0  0  0
   10.5740   -1.5020   23.0230 C   0  0  0  0  0  0  0  0  0  0  0  0
    6.3950   -4.6180   22.5190 C   0  0  0  0  0  0  0  0  0  0  0  0
   12.1000   -1.4840   23.1510 C   0  0  0  0  0  0  0  0  0  0  0  0
    6.3250    0.4360   17.8170 N   0  0  0  0  0  0  0  0  0  0  0  0
    4.5810    1.5940   18.9720 C   0  0  0  0  0  0  0  0  0  0  0  0
    8.3410    3.2350   22.9710 C   0  0  0  0  0  0  0  0  0  0  0  0
    6.8520   -4.6470   23.8700 N   0  0  0  0  0  0  0  0  0  0  0  0
    4.9220   -5.6560   22.1720 S   0  0  0  0  0  0  0  0  0  0  0  0
   12.5910   -0.1990   23.4430 C   0  0  0  0  0  0  0  0  0  0  0  0
   12.7790   -1.9520   21.8400 C   0  0  0  0  0  0  0  0  0  0  0  0
   12.6010   -2.4300   24.2780 C   0  0  0  0  0  0  0  0  0  0  0  0
    5.2080    1.2100   17.7870 C   0  0  0  0  0  0  0  0  0  0  0  0
    9.7230    3.0820   23.6530 C   0  0  0  0  0  0  0  0  0  0  0  0
    8.0620    4.5800   22.7000 C   0  0  0  0  0  0  0  0  0  0  0  0
    5.8950   -5.5260   24.5620 C   0  0  0  0  0  0  0  0  0  0  0  0
    4.8960   -6.0780   23.8220 C   0  0  0  0  0  0  0  0  0  0  0  0
   10.3280    1.7560   24.0810 C   0  0  0  0  0  0  0  0  0  0  0  0
   10.3920    4.1760   23.8650 C   0  0  0  0  0  0  0  0  0  0  0  0
    8.8800    5.6850   22.9880 C   0  0  0  0  0  0  0  0  0  0  0  0
    5.9890   -5.7870   25.9150 C   0  0  0  0  0  0  0  0  0  0  0  0
    3.9330   -6.9070   24.3450 C   0  0  0  0  0  0  0  0  0  0  0  0
    6.9940   -5.2490   26.6290 O   0  0  0  0  0  0  0  0  0  0  0  0
   10.1080    5.4730   23.6060 C   0  0  0  0  0  0  0  0  0  0  0  0
    3.9200   -7.2340   25.6960 C   0  0  0  0  0  0  0  0  0  0  0  0
    5.0490   -6.6150   26.5350 C   0  0  0  0  0  0  0  0  0  0  0  0
   10.8570    6.5930   23.8680 O   0  0  0  0  0  0  0  0  0  0  0  0
    6.7430   -4.0040   27.2230 C   0  0  2  0  0  0  0  0  0  0  0  0
   11.8610    6.5220   24.8830 C   0  0  0  0  0  0  0  0  0  0  0  0
    7.1090   -4.2170   28.5460 C   0  0  0  0  0  0  0  0  0  0  0  0
    5.3350   -3.6920   27.0440 N   0  0  0  0  0  0  0  0  0  0  0  0
    4.8650   -3.1760   25.7750 C   0  0  0  0  0  0  0  0  0  0  0  0
    6.2990   -5.1120   29.1890 C   0  0  0  0  0  0  0  0  0  0  0  0
    4.5470   -3.6150   28.1910 C   0  0  0  0  0  0  0  0  0  0  0  0
    4.9710   -1.8820   25.2920 O   0  0  0  0  0  0  0  0  0  0  0  0
    4.8650   -4.6220   29.2710 C   0  0  0  0  0  0  0  0  0  0  0  0
  1  2  1  0
  2  3  2  0
  1  4  1  0
  1  5  1  0
  2  6  1  0
  4  7  1  6
  4  8  1  0
  5  9  2  0
  5 10  1  0
  6 11  1  6
  7 12  1  0
  7 13  2  0
  8 14  2  0
  8 15  1  0
  9 16  1  0
 10 17  2  0
 16 17  1  0
  6 18  1  0
 17 19  1  0
 15 20  2  0
 14 21  1  0
 12 22  1  0
 18 23  2  0
 18 24  1  0
 19 25  1  0
 19 26  1  0
 19 27  1  0
 20 28  1  0
 21 28  2  0
 22 29  2  0
 22 30  1  0
 23 31  1  0
 24 32  1  0
 31 32  2  0
 29 33  1  0
 29 34  1  0
 30 35  2  0
 31 36  1  0
 32 37  1  0
 36 38  1  0
 34 39  2  0
 35 39  1  0
 37 40  2  0
 36 41  2  0
 40 41  1  0
 39 42  1  0
 43 38  1  6
 42 44  1  0
 43 45  1  0
 43 46  1  0
 46 47  1  0
 45 48  1  0
 46 49  1  0
 47 50  2  0
 48 51  1  0
 49 51  1  0
M  END
