x2694-x1348-x1358
     RDKit          3D

 55 60  0  0  0  0  0  0  0  0999 V2000
    6.9660   -1.3560   21.7960 N   0  0  0  0  0  0  0  0  0  0  0  0
    6.1380   -2.6180   21.4650 C   0  0  0  0  0  0  0  0  0  0  0  0
    4.8230   -2.9410   21.1450 O   0  0  0  0  0  0  0  0  0  0  0  0
    6.6250    0.0080   21.5260 C   0  0  1  0  0  0  0  0  0  0  0  0
    8.3060   -1.4390   22.4160 C   0  0  0  0  0  0  0  0  0  0  0  0
    6.8880   -3.9300   21.4810 C   0  0  2  0  0  0  0  0  0  0  0  0
    7.7820    1.0990   21.7070 C   0  0  0  0  0  0  0  0  0  0  0  0
    6.2790    0.3720   20.1040 C   0  0  0  0  0  0  0  0  0  0  0  0
    8.6050   -1.7430   23.8510 N   0  0  0  0  0  0  0  0  0  0  0  0
    9.6910   -1.2430   21.9220 C   0  0  0  0  0  0  0  0  0  0  0  0
    6.7690   -4.5430   20.1120 C   0  0  0  0  0  0  0  0  0  0  0  0
    7.5530    2.1220   22.7870 N   0  0  0  0  0  0  0  0  0  0  0  0
    8.8040    1.1830   21.0190 O   0  0  0  0  0  0  0  0  0  0  0  0
    5.1240    1.3170   20.1290 C   0  0  0  0  0  0  0  0  0  0  0  0
    6.8460   -0.0070   18.9040 C   0  0  0  0  0  0  0  0  0  0  0  0
   10.0320   -1.7120   24.0860 O   0  0  0  0  0  0  0  0  0  0  0  0
   10.7680   -1.4100   22.9500 C   0  0  0  0  0  0  0  0  0  0  0  0
    6.3500   -4.6970   22.6000 C   0  0  0  0  0  0  0  0  0  0  0  0
   12.2850   -1.3220   23.0050 C   0  0  0  0  0  0  0  0  0  0  0  0
    6.3780    0.4720   17.7490 N   0  0  0  0  0  0  0  0  0  0  0  0
    4.6380    1.8070   18.9430 C   0  0  0  0  0  0  0  0  0  0  0  0
    8.3780    3.2850   23.0380 C   0  0  0  0  0  0  0  0  0  0  0  0
    6.8130   -4.6330   23.8330 N   0  0  0  0  0  0  0  0  0  0  0  0
    4.9910   -5.7220   22.2740 S   0  0  0  0  0  0  0  0  0  0  0  0
   12.6990    0.1210   23.3640 C   0  0  0  0  0  0  0  0  0  0  0  0
   12.8780   -1.8190   21.7120 C   0  0  0  0  0  0  0  0  0  0  0  0
   12.8600   -2.2240   24.1060 C   0  0  0  0  0  0  0  0  0  0  0  0
    5.2480    1.4030   17.7540 C   0  0  0  0  0  0  0  0  0  0  0  0
    9.6310    3.1210   23.6580 C   0  0  0  0  0  0  0  0  0  0  0  0
    8.0220    4.6020   22.7030 C   0  0  0  0  0  0  0  0  0  0  0  0
    6.0160   -5.4050   24.5510 C   0  0  0  0  0  0  0  0  0  0  0  0
    4.9200   -6.1200   23.9140 C   0  0  0  0  0  0  0  0  0  0  0  0
   10.1590    1.7800   24.0860 C   0  0  0  0  0  0  0  0  0  0  0  0
   10.4540    4.2370   23.9080 C   0  0  0  0  0  0  0  0  0  0  0  0
    8.8560    5.8410   22.9540 C   0  0  0  0  0  0  0  0  0  0  0  0
    6.2890   -5.5020   26.0520 C   0  0  0  0  0  0  0  0  0  0  0  0
    4.0500   -6.9630   24.7500 C   0  0  0  0  0  0  0  0  0  0  0  0
    7.3420   -4.8040   26.5660 N   0  0  0  0  0  0  0  0  0  0  0  0
   10.0300    5.6190   23.5430 C   0  0  0  0  0  0  0  0  0  0  0  0
    4.2850   -7.0820   26.2530 C   0  0  0  0  0  0  0  0  0  0  0  0
    5.4690   -6.2940   26.8610 C   0  0  0  0  0  0  0  0  0  0  0  0
   10.8900    6.6500   23.8350 O   0  0  0  0  0  0  0  0  0  0  0  0
    7.7270   -5.2060   27.9250 C   0  0  0  0  0  0  0  0  0  0  0  0
    7.4850   -3.4470   26.1750 C   0  0  0  0  0  0  0  0  0  0  0  0
   11.8290    6.4870   24.9010 C   0  0  0  0  0  0  0  0  0  0  0  0
    6.3490   -2.6000   26.3230 N   0  0  0  0  0  0  0  0  0  0  0  0
    5.2460   -2.8400   25.4110 C   0  0  0  0  0  0  0  0  0  0  0  0
    6.4750   -1.4500   27.1890 C   0  0  0  0  0  0  0  0  0  0  0  0
    4.1790   -3.3950   25.6150 O   0  0  0  0  0  0  0  0  0  0  0  0
    5.8450   -0.2650   26.8130 C   0  0  0  0  0  0  0  0  0  0  0  0
    7.2620   -1.4870   28.4850 C   0  0  0  0  0  0  0  0  0  0  0  0
    5.1330   -0.2030   25.6470 O   0  0  0  0  0  0  0  0  0  0  0  0
    7.3270   -0.3450   29.2600 C   0  0  0  0  0  0  0  0  0  0  0  0
    5.9450    0.8530   27.6320 C   0  0  0  0  0  0  0  0  0  0  0  0
    6.6790    0.8060   28.8440 C   0  0  0  0  0  0  0  0  0  0  0  0
  1  2  1  0
  2  3  2  0
  1  4  1  0
  1  5  1  0
  2  6  1  0
  4  7  1  6
  4  8  1  0
  5  9  2  0
  5 10  1  0
  6 11  1  6
  7 12  1  0
  7 13  2  0
  8 14  2  0
  8 15  1  0
  9 16  1  0
 10 17  2  0
 16 17  1  0
  6 18  1  0
 17 19  1  0
 15 20  2  0
 14 21  1  0
 12 22  1  0
 18 23  2  0
 18 24  1  0
 19 25  1  0
 19 26  1  0
 19 27  1  0
 20 28  1  0
 21 28  2  0
 22 29  2  0
 22 30  1  0
 23 31  1  0
 24 32  1  0
 31 32  2  0
 29 33  1  0
 29 34  1  0
 30 35  2  0
 31 36  1  0
 32 37  1  0
 36 38  1  0
 34 39  2  0
 35 39  1  0
 37 40  2  0
 36 41  2  0
 40 41  1  0
 39 42  1  0
 38 43  1  0
 38 44  1  0
 42 45  1  0
 44 46  1  0
 46 47  1  0
 46 48  1  0
 47 49  2  0
 48 50  2  0
 48 51  1  0
 50 52  1  0
 51 53  2  0
 50 54  1  0
 53 55  1  0
 54 55  2  0
M  END
