x2694-x0769
     RDKit          3D

 51 56  0  0  0  0  0  0  0  0999 V2000
    6.7930   -1.2430   21.8570 C   0  0  1  0  0  0  0  0  0  0  0  0
    5.9030   -2.2500   20.8930 C   0  0  0  0  0  0  0  0  0  0  0  0
    4.8580   -3.0150   21.1010 O   0  0  0  0  0  0  0  0  0  0  0  0
    6.7290    0.2900   21.5470 C   0  0  1  0  0  0  0  0  0  0  0  0
    5.7770   -1.6360   22.9280 C   0  0  0  0  0  0  0  0  0  0  0  0
    8.2660   -1.4350   22.4470 C   0  0  0  0  0  0  0  0  0  0  0  0
    6.2280   -2.2300   19.4850 C   0  0  0  0  0  0  0  0  0  0  0  0
    7.7960    1.2080   21.8860 C   0  0  0  0  0  0  0  0  0  0  0  0
    5.4090   -2.9850   22.6910 C   0  0  0  0  0  0  0  0  0  0  0  0
    6.1500    0.6540   20.2140 C   0  0  0  0  0  0  0  0  0  0  0  0
    8.4640   -1.7900   23.8680 N   0  0  0  0  0  0  0  0  0  0  0  0
    9.5920   -1.3220   22.0040 C   0  0  0  0  0  0  0  0  0  0  0  0
    6.5650   -3.6200   20.0320 C   0  0  0  0  0  0  0  0  0  0  0  0
    7.7360    1.9360   22.8120 N   0  0  0  0  0  0  0  0  0  0  0  0
    8.7740    1.2830   21.1330 O   0  0  0  0  0  0  0  0  0  0  0  0
    4.9330    1.3440   20.1370 C   0  0  0  0  0  0  0  0  0  0  0  0
    6.8910    0.2950   19.0900 C   0  0  0  0  0  0  0  0  0  0  0  0
    9.8420   -1.8400   24.1200 O   0  0  0  0  0  0  0  0  0  0  0  0
   10.5700   -1.5530   22.9990 C   0  0  0  0  0  0  0  0  0  0  0  0
    6.2590   -3.9960   21.6700 C   0  0  0  0  0  0  0  0  0  0  0  0
   12.0990   -1.5490   23.1360 C   0  0  0  0  0  0  0  0  0  0  0  0
    6.3540    0.6830   17.7950 N   0  0  0  0  0  0  0  0  0  0  0  0
    4.4020    1.7210   18.9200 C   0  0  0  0  0  0  0  0  0  0  0  0
    8.4810    3.2200   23.0310 C   0  0  0  0  0  0  0  0  0  0  0  0
    5.5240   -5.3390   21.6620 C   0  0  0  0  0  0  0  0  0  0  0  0
    7.4160   -4.5230   22.5570 C   0  0  0  0  0  0  0  0  0  0  0  0
   12.6260   -0.1410   23.4050 C   0  0  0  0  0  0  0  0  0  0  0  0
   12.7610   -2.0040   21.8100 C   0  0  0  0  0  0  0  0  0  0  0  0
   12.5270   -2.4830   24.2500 C   0  0  0  0  0  0  0  0  0  0  0  0
    5.1080    1.3990   17.7870 C   0  0  0  0  0  0  0  0  0  0  0  0
    9.7340    3.1380   23.6270 C   0  0  0  0  0  0  0  0  0  0  0  0
    7.9090    4.5940   22.6260 C   0  0  0  0  0  0  0  0  0  0  0  0
    4.7940   -5.6840   22.9810 C   0  0  0  0  0  0  0  0  0  0  0  0
    7.0050   -4.8350   24.0040 C   0  0  0  0  0  0  0  0  0  0  0  0
   10.2880    1.8020   24.0250 C   0  0  0  0  0  0  0  0  0  0  0  0
   10.5610    4.2350   23.9060 C   0  0  0  0  0  0  0  0  0  0  0  0
    8.8470    5.7150   22.9680 C   0  0  0  0  0  0  0  0  0  0  0  0
    5.6240   -5.3810   24.1740 N   0  0  0  0  0  0  0  0  0  0  0  0
    4.8720   -5.4170   25.7070 S   0  0  0  0  0  0  0  0  0  0  0  0
   10.1270    5.5710   23.5880 C   0  0  0  0  0  0  0  0  0  0  0  0
   10.8660    6.7110   23.8430 O   0  0  0  0  0  0  0  0  0  0  0  0
    5.8880   -5.2950   26.7270 O   0  0  0  0  0  0  0  0  0  0  0  0
    4.0310   -6.5950   25.7100 O   0  0  0  0  0  0  0  0  0  0  0  0
    3.7890   -3.9960   25.7990 C   0  0  0  0  0  0  0  0  0  0  0  0
   11.8440    6.6220   24.8820 C   0  0  0  0  0  0  0  0  0  0  0  0
    4.3600   -2.6020   26.0850 C   0  0  0  0  0  0  0  0  0  0  0  0
    2.4210   -4.1630   25.6160 C   0  0  0  0  0  0  0  0  0  0  0  0
    5.6740   -2.4190   26.2650 F   0  0  0  0  0  0  0  0  0  0  0  0
    1.4440   -2.9770   25.6970 C   0  0  0  0  0  0  0  0  0  0  0  0
    3.5370   -1.4860   26.1710 C   0  0  0  0  0  0  0  0  0  0  0  0
    2.0290   -1.5800   25.9880 C   0  0  0  0  0  0  0  0  0  0  0  0
  1  2  1  0
  2  3  2  0
  1  4  1  0
  1  5  1  0
  1  6  1  1
  2  7  1  0
  4  8  1  6
  5  9  1  0
  4 10  1  0
  6 11  2  0
  6 12  1  0
  7 13  1  0
  8 14  1  0
  8 15  2  0
 10 16  2  0
 10 17  1  0
 11 18  1  0
 12 19  2  0
 18 19  1  0
 20  9  1  0
 13 20  1  0
 19 21  1  0
 17 22  2  0
 16 23  1  0
 14 24  1  0
 20 25  1  0
 20 26  1  0
 21 27  1  0
 21 28  1  0
 21 29  1  0
 22 30  1  0
 23 30  2  0
 24 31  2  0
 24 32  1  0
 25 33  1  0
 26 34  1  0
 31 35  1  0
 31 36  1  0
 32 37  2  0
 33 38  1  0
 34 38  1  0
 38 39  1  0
 36 40  2  0
 37 40  1  0
 40 41  1  0
 39 42  2  0
 39 43  2  0
 39 44  1  0
 41 45  1  0
 44 46  2  0
 44 47  1  0
 46 48  1  0
 47 49  2  0
 46 50  1  0
 49 51  1  0
 50 51  2  0
M  END
