x2694-x2193-x0769
     RDKit          3D

 56 61  0  0  0  0  0  0  0  0999 V2000
    6.8440   -1.2140   21.9490 N   0  0  0  0  0  0  0  0  0  0  0  0
    5.9850   -2.3040   21.2340 C   0  0  0  0  0  0  0  0  0  0  0  0
    4.7860   -3.0130   21.4280 O   0  0  0  0  0  0  0  0  0  0  0  0
    6.5500    0.1800   21.6900 C   0  0  1  0  0  0  0  0  0  0  0  0
    8.1780   -1.4210   22.5900 C   0  0  0  0  0  0  0  0  0  0  0  0
    6.5780   -2.7280   19.9870 C   0  0  0  0  0  0  0  0  0  0  0  0
    7.7610    1.2380   21.9170 C   0  0  0  0  0  0  0  0  0  0  0  0
    6.1150    0.5280   20.2970 C   0  0  0  0  0  0  0  0  0  0  0  0
    8.3160   -1.8420   23.8730 N   0  0  0  0  0  0  0  0  0  0  0  0
    9.4090   -1.1720   21.9940 C   0  0  0  0  0  0  0  0  0  0  0  0
    6.9770   -4.1690   20.1560 C   0  0  0  0  0  0  0  0  0  0  0  0
    7.6140    2.0820   23.0210 N   0  0  0  0  0  0  0  0  0  0  0  0
    8.7260    1.3400   21.1440 O   0  0  0  0  0  0  0  0  0  0  0  0
    4.9820    1.3190   20.1440 C   0  0  0  0  0  0  0  0  0  0  0  0
    6.8550    0.0950   19.0410 C   0  0  0  0  0  0  0  0  0  0  0  0
    9.7010   -1.8420   24.0850 O   0  0  0  0  0  0  0  0  0  0  0  0
   10.4230   -1.4350   22.9810 C   0  0  0  0  0  0  0  0  0  0  0  0
   11.9660   -1.3770   23.1250 C   0  0  0  0  0  0  0  0  0  0  0  0
    6.3610    0.5260   17.8650 N   0  0  0  0  0  0  0  0  0  0  0  0
    4.5340    1.7190   18.9050 C   0  0  0  0  0  0  0  0  0  0  0  0
    8.4230    3.2670   23.1220 C   0  0  0  0  0  0  0  0  0  0  0  0
    6.7690   -4.7780   21.4770 N   0  0  0  0  0  0  0  0  0  0  0  0
   12.4060   -0.1040   23.5110 C   0  0  0  0  0  0  0  0  0  0  0  0
   12.7370   -1.7460   21.8490 C   0  0  0  0  0  0  0  0  0  0  0  0
   12.4450   -2.3460   24.2270 C   0  0  0  0  0  0  0  0  0  0  0  0
    5.1610    1.3780   17.7330 C   0  0  0  0  0  0  0  0  0  0  0  0
    9.6980    3.1700   23.6610 C   0  0  0  0  0  0  0  0  0  0  0  0
    8.0240    4.6530   22.7080 C   0  0  0  0  0  0  0  0  0  0  0  0
    5.7610   -5.8530   21.7110 C   0  0  0  0  0  0  0  0  0  0  0  0
    7.5350   -4.4570   22.6900 C   0  0  0  0  0  0  0  0  0  0  0  0
   10.2200    1.8130   24.1180 C   0  0  0  0  0  0  0  0  0  0  0  0
   10.5340    4.2970   23.8090 C   0  0  0  0  0  0  0  0  0  0  0  0
    8.9590    5.8420   22.8900 C   0  0  0  0  0  0  0  0  0  0  0  0
    4.8550   -5.6500   22.9520 C   0  0  0  0  0  0  0  0  0  0  0  0
    6.5540   -4.1080   23.8280 C   0  0  0  0  0  0  0  0  0  0  0  0
   10.1640    5.5870   23.4390 C   0  0  0  0  0  0  0  0  0  0  0  0
    5.5570   -5.1610   24.1670 N   0  0  0  0  0  0  0  0  0  0  0  0
   11.1290    6.5360   23.6870 O   0  0  0  0  0  0  0  0  0  0  0  0
    4.8800   -5.1030   25.4600 S   0  0  2  0  0  0  0  0  0  0  0  0
   11.8430    6.4560   24.9200 C   0  0  0  0  0  0  0  0  0  0  0  0
    6.0080   -4.7460   26.6890 N   0  0  0  0  0  0  0  0  0  0  0  0
    4.2490   -6.3890   25.6910 O   0  0  0  0  0  0  0  0  0  0  0  0
    3.7470   -3.8310   25.6610 C   0  0  0  0  0  0  0  0  0  0  0  0
    6.8090   -5.6780   27.1850 C   0  0  0  0  0  0  0  0  0  0  0  0
    4.1960   -2.5470   26.0180 C   0  0  0  0  0  0  0  0  0  0  0  0
    2.3970   -4.1060   25.4700 C   0  0  0  0  0  0  0  0  0  0  0  0
    5.4970   -2.2710   26.2090 F   0  0  0  0  0  0  0  0  0  0  0  0
    8.2500   -5.4940   26.6360 C   0  0  1  0  0  0  0  0  0  0  0  0
    1.4720   -3.0590   25.6440 C   0  0  0  0  0  0  0  0  0  0  0  0
    3.2720   -1.5270   26.1850 C   0  0  0  0  0  0  0  0  0  0  0  0
    8.2600   -5.8250   25.3500 N   0  0  0  0  0  0  0  0  0  0  0  0
    8.7610   -4.2110   26.6930 C   0  0  0  0  0  0  0  0  0  0  0  0
    1.9040   -1.7690   26.0020 C   0  0  0  0  0  0  0  0  0  0  0  0
    9.2600   -3.6060   25.5780 N   0  0  0  0  0  0  0  0  0  0  0  0
    9.5080   -5.8100   24.9090 C   0  0  0  0  0  0  0  0  0  0  0  0
   10.0460   -4.5510   24.7890 C   0  0  0  0  0  0  0  0  0  0  0  0
  1  2  1  0
  2  3  2  0
  1  4  1  0
  1  5  1  0
  2  6  1  0
  4  7  1  6
  4  8  1  0
  5  9  2  0
  5 10  1  0
  6 11  1  0
  7 12  1  0
  7 13  2  0
  8 14  2  0
  8 15  1  0
  9 16  1  0
 10 17  2  0
 16 17  1  0
 17 18  1  0
 15 19  2  0
 14 20  1  0
 12 21  1  0
 11 22  1  0
 18 23  1  0
 18 24  1  0
 18 25  1  0
 19 26  1  0
 20 26  2  0
 21 27  2  0
 21 28  1  0
 22 29  1  0
 22 30  1  0
 27 31  1  0
 27 32  1  0
 28 33  2  0
 29 34  1  0
 30 35  1  0
 32 36  2  0
 33 36  1  0
 34 37  1  0
 35 37  1  0
 36 38  1  0
 37 39  1  0
 38 40  1  0
 39 41  2  0
 39 42  2  0
 39 43  1  6
 41 44  1  0
 43 45  2  0
 43 46  1  0
 45 47  1  0
 48 44  1  6
 46 49  2  0
 45 50  1  0
 48 51  1  0
 48 52  1  0
 49 53  1  0
 50 53  2  0
 52 54  1  0
 51 55  1  0
 54 56  1  0
 55 56  1  0
M  END
