x2694-x0731
     RDKit          3D

 51 56  0  0  0  0  0  0  0  0999 V2000
    6.6820   -1.2950   22.0150 C   0  0  1  0  0  0  0  0  0  0  0  0
    5.8370   -2.1920   20.9830 C   0  0  0  0  0  0  0  0  0  0  0  0
    4.7080   -2.8660   21.1980 O   0  0  0  0  0  0  0  0  0  0  0  0
    6.4870    0.2750   21.7530 C   0  0  1  0  0  0  0  0  0  0  0  0
    5.8890   -2.0250   23.1260 C   0  0  0  0  0  0  0  0  0  0  0  0
    8.1560   -1.4050   22.4910 C   0  0  0  0  0  0  0  0  0  0  0  0
    6.2180   -2.5060   19.6940 C   0  0  0  0  0  0  0  0  0  0  0  0
    7.6490    1.2960   21.9670 C   0  0  0  0  0  0  0  0  0  0  0  0
    5.4150   -3.4440   22.6100 C   0  0  0  0  0  0  0  0  0  0  0  0
    6.0380    0.6440   20.3720 C   0  0  0  0  0  0  0  0  0  0  0  0
    8.4400   -1.6000   23.9520 N   0  0  0  0  0  0  0  0  0  0  0  0
    9.4310   -1.3430   21.9610 C   0  0  0  0  0  0  0  0  0  0  0  0
    6.5860   -3.9040   19.9560 C   0  0  0  0  0  0  0  0  0  0  0  0
    7.5980    2.2960   23.0400 N   0  0  0  0  0  0  0  0  0  0  0  0
    8.7240    1.2440   21.0290 O   0  0  0  0  0  0  0  0  0  0  0  0
    4.8760    1.3640   20.1870 C   0  0  0  0  0  0  0  0  0  0  0  0
    6.7880    0.2810   19.2600 C   0  0  0  0  0  0  0  0  0  0  0  0
    9.8500   -1.6330   24.1750 O   0  0  0  0  0  0  0  0  0  0  0  0
   10.5820   -1.4770   23.0190 C   0  0  0  0  0  0  0  0  0  0  0  0
    6.3560   -4.3330   21.5800 C   0  0  0  0  0  0  0  0  0  0  0  0
   12.1120   -1.4770   23.1360 C   0  0  0  0  0  0  0  0  0  0  0  0
    6.4070    0.6330   17.8890 N   0  0  0  0  0  0  0  0  0  0  0  0
    4.4960    1.7090   18.9100 C   0  0  0  0  0  0  0  0  0  0  0  0
    8.4260    3.4460   23.2010 C   0  0  0  0  0  0  0  0  0  0  0  0
    7.6170   -4.5450   22.4330 C   0  0  0  0  0  0  0  0  0  0  0  0
    5.8800   -5.8170   21.6710 C   0  0  0  0  0  0  0  0  0  0  0  0
   12.5180   -0.2430   23.6520 C   0  0  0  0  0  0  0  0  0  0  0  0
   12.7800   -1.9420   21.7980 C   0  0  0  0  0  0  0  0  0  0  0  0
   12.5300   -2.4550   24.2110 C   0  0  0  0  0  0  0  0  0  0  0  0
    5.2130    1.3750   17.7870 C   0  0  0  0  0  0  0  0  0  0  0  0
    9.7100    3.2680   23.7120 C   0  0  0  0  0  0  0  0  0  0  0  0
    8.0070    4.7430   22.8720 C   0  0  0  0  0  0  0  0  0  0  0  0
    7.3090   -4.8130   23.9090 C   0  0  0  0  0  0  0  0  0  0  0  0
    5.3520   -6.2360   23.0490 C   0  0  0  0  0  0  0  0  0  0  0  0
   10.2410    1.9070   24.0880 C   0  0  0  0  0  0  0  0  0  0  0  0
   10.5580    4.3670   23.8950 C   0  0  0  0  0  0  0  0  0  0  0  0
    8.8640    5.8350   23.0660 C   0  0  0  0  0  0  0  0  0  0  0  0
    5.9320   -5.3700   24.1170 N   0  0  0  0  0  0  0  0  0  0  0  0
    5.2330   -5.4690   25.6550 S   0  0  0  0  0  0  0  0  0  0  0  0
   10.1460    5.6460   23.5860 C   0  0  0  0  0  0  0  0  0  0  0  0
   11.0490    6.6730   23.8180 O   0  0  0  0  0  0  0  0  0  0  0  0
    6.2180   -5.1140   26.8900 O   0  0  0  0  0  0  0  0  0  0  0  0
    4.4930   -6.7040   25.6430 O   0  0  0  0  0  0  0  0  0  0  0  0
    4.0080   -4.1810   25.7400 C   0  0  0  0  0  0  0  0  0  0  0  0
   11.8510    6.5640   24.9910 C   0  0  0  0  0  0  0  0  0  0  0  0
    2.7200   -4.3530   25.2410 C   0  0  0  0  0  0  0  0  0  0  0  0
    4.3830   -2.9810   26.3470 C   0  0  0  0  0  0  0  0  0  0  0  0
    1.7890   -3.3270   25.3590 C   0  0  0  0  0  0  0  0  0  0  0  0
    3.4530   -1.9530   26.4660 C   0  0  0  0  0  0  0  0  0  0  0  0
    2.1370   -2.1230   25.9760 C   0  0  0  0  0  0  0  0  0  0  0  0
    1.1530   -1.0090   26.1400 C   0  0  0  0  0  0  0  0  0  0  0  0
  1  2  1  0
  2  3  2  0
  1  4  1  0
  1  5  1  0
  1  6  1  1
  2  7  1  0
  4  8  1  6
  5  9  1  0
  4 10  1  0
  6 11  2  0
  6 12  1  0
  7 13  1  0
  8 14  1  0
  8 15  2  0
 10 16  2  0
 10 17  1  0
 11 18  1  0
 12 19  2  0
 18 19  1  0
 20  9  1  0
 13 20  1  0
 19 21  1  0
 17 22  2  0
 16 23  1  0
 14 24  1  0
 20 25  1  0
 20 26  1  0
 21 27  1  0
 21 28  1  0
 21 29  1  0
 22 30  1  0
 23 30  2  0
 24 31  2  0
 24 32  1  0
 25 33  1  0
 26 34  1  0
 31 35  1  0
 31 36  1  0
 32 37  2  0
 33 38  1  0
 34 38  1  0
 38 39  1  0
 36 40  2  0
 37 40  1  0
 40 41  1  0
 39 42  2  0
 39 43  2  0
 39 44  1  0
 41 45  1  0
 44 46  2  0
 44 47  1  0
 46 48  1  0
 47 49  2  0
 48 50  2  0
 49 50  1  0
 50 51  1  0
M  END
