x2694-x0540-x3115
     RDKit          3D

 47 50  0  0  0  0  0  0  0  0999 V2000
    7.1160   -1.6260   21.8130 N   0  0  0  0  0  0  0  0  0  0  0  0
    6.2040   -2.8370   21.5730 C   0  0  0  0  0  0  0  0  0  0  0  0
    4.8810   -3.0510   21.2330 O   0  0  0  0  0  0  0  0  0  0  0  0
    6.7550   -0.1720   21.5960 C   0  0  1  0  0  0  0  0  0  0  0  0
    8.3710   -1.7260   22.5880 C   0  0  0  0  0  0  0  0  0  0  0  0
    6.9070   -4.1460   21.7230 C   0  0  0  0  0  0  0  0  0  0  0  0
    7.8280    1.0020   21.9000 C   0  0  0  0  0  0  0  0  0  0  0  0
    6.1990    0.2740   20.2830 C   0  0  0  0  0  0  0  0  0  0  0  0
    8.4770   -2.0210   23.9140 N   0  0  0  0  0  0  0  0  0  0  0  0
    9.7980   -1.4910   22.0670 C   0  0  0  0  0  0  0  0  0  0  0  0
    6.7810   -4.8580   20.3840 C   0  0  0  0  0  0  0  0  0  0  0  0
    7.6950    1.9680   22.9060 N   0  0  0  0  0  0  0  0  0  0  0  0
    8.9950    1.2400   21.0920 O   0  0  0  0  0  0  0  0  0  0  0  0
    4.9780    0.9000   20.2540 C   0  0  0  0  0  0  0  0  0  0  0  0
    6.9040    0.1110   18.9680 C   0  0  0  0  0  0  0  0  0  0  0  0
    9.8640   -1.9900   24.2780 O   0  0  0  0  0  0  0  0  0  0  0  0
   10.6730   -1.6620   23.1240 C   0  0  0  0  0  0  0  0  0  0  0  0
   12.2010   -1.4910   22.9500 C   0  0  0  0  0  0  0  0  0  0  0  0
    4.1550    1.0960   21.4810 C   0  0  0  0  0  0  0  0  0  0  0  0
    6.3520    0.6250   17.7040 N   0  0  0  0  0  0  0  0  0  0  0  0
    4.4000    1.4310   18.9630 C   0  0  0  0  0  0  0  0  0  0  0  0
    8.5230    3.1260   23.1150 C   0  0  0  0  0  0  0  0  0  0  0  0
   12.6170   -0.0360   23.2300 C   0  0  0  0  0  0  0  0  0  0  0  0
   12.7590   -1.8830   21.5670 C   0  0  0  0  0  0  0  0  0  0  0  0
   13.0250   -2.3420   23.9300 C   0  0  0  0  0  0  0  0  0  0  0  0
    4.7900    1.9120   22.4210 C   0  0  0  0  0  0  0  0  0  0  0  0
    5.1700    1.2620   17.6980 C   0  0  0  0  0  0  0  0  0  0  0  0
    9.7580    3.0530   23.7450 C   0  0  0  0  0  0  0  0  0  0  0  0
    8.0190    4.5110   22.6160 C   0  0  0  0  0  0  0  0  0  0  0  0
   10.2270    1.7180   24.2130 C   0  0  0  0  0  0  0  0  0  0  0  0
   12.3860   -2.8000   25.0140 C   0  0  0  0  0  0  0  0  0  0  0  0
    4.0440    2.9780   22.8080 N   0  0  0  0  0  0  0  0  0  0  0  0
   10.5250    4.2100   23.9250 C   0  0  0  0  0  0  0  0  0  0  0  0
    8.8670    5.6160   22.8510 C   0  0  0  0  0  0  0  0  0  0  0  0
    8.3490    6.9350   22.3500 C   0  0  0  0  0  0  0  0  0  0  0  0
    2.8600    2.4820   23.5380 C   0  0  0  0  0  0  0  0  0  0  0  0
   10.0970    5.4580   23.5040 C   0  0  0  0  0  0  0  0  0  0  0  0
   10.8410    6.6050   23.6950 O   0  0  0  0  0  0  0  0  0  0  0  0
    2.8800    1.5670   24.3700 O   0  0  0  0  0  0  0  0  0  0  0  0
    1.7610    3.1770   23.1650 N   0  0  0  0  0  0  0  0  0  0  0  0
   11.8290    6.5900   24.7300 C   0  0  0  0  0  0  0  0  0  0  0  0
    0.6280    3.2380   24.0340 C   0  0  0  0  0  0  0  0  0  0  0  0
    0.5690    4.4930   24.6610 C   0  0  0  0  0  0  0  0  0  0  0  0
   -0.5430    2.8820   23.3640 C   0  0  0  0  0  0  0  0  0  0  0  0
   -0.7880    4.9920   25.1420 C   0  0  0  0  0  0  0  0  0  0  0  0
   -1.7910    3.3000   23.8800 C   0  0  0  0  0  0  0  0  0  0  0  0
   -1.8640    4.6850   24.0850 C   0  0  0  0  0  0  0  0  0  0  0  0
  1  2  1  0
  2  3  2  0
  1  4  1  0
  1  5  1  0
  2  6  1  0
  4  7  1  6
  4  8  1  0
  5  9  2  0
  5 10  1  0
  6 11  1  0
  7 12  1  0
  7 13  2  0
  8 14  1  0
  8 15  2  0
  9 16  1  0
 10 17  2  0
 16 17  1  0
 17 18  1  0
 14 19  1  0
 15 20  1  0
 14 21  2  0
 12 22  1  0
 18 23  1  0
 18 24  1  0
 18 25  1  0
 19 26  1  0
 20 27  2  0
 21 27  1  0
 22 28  2  0
 22 29  1  0
 28 30  1  0
 25 31  1  0
 26 32  1  0
 28 33  1  0
 29 34  2  0
 34 35  1  0
 32 36  1  0
 33 37  2  0
 34 37  1  0
 37 38  1  0
 36 39  2  0
 36 40  1  0
 38 41  1  0
 40 42  1  0
 42 43  1  0
 42 44  1  0
 43 45  1  0
 44 46  1  0
 45 47  1  0
 46 47  1  0
M  END
