x2694-x3124-x0771
     RDKit          3D

 53 58  0  0  0  0  0  0  0  0999 V2000
    6.7430   -1.2310   21.9180 C   0  0  1  0  0  0  0  0  0  0  0  0
    5.8070   -2.2440   20.9850 C   0  0  0  0  0  0  0  0  0  0  0  0
    4.6740   -2.8640   21.2630 O   0  0  0  0  0  0  0  0  0  0  0  0
    6.4790    0.2650   21.6430 C   0  0  1  0  0  0  0  0  0  0  0  0
    5.9950   -1.8140   23.0440 C   0  0  0  0  0  0  0  0  0  0  0  0
    8.2470   -1.3820   22.4500 C   0  0  0  0  0  0  0  0  0  0  0  0
    6.2810   -2.6540   19.7240 C   0  0  0  0  0  0  0  0  0  0  0  0
    7.7100    1.2290   21.8400 C   0  0  0  0  0  0  0  0  0  0  0  0
    5.9920   -3.2310   22.8680 C   0  0  0  0  0  0  0  0  0  0  0  0
    6.0560    0.6430   20.2400 C   0  0  0  0  0  0  0  0  0  0  0  0
    8.4400   -1.6960   23.8640 N   0  0  0  0  0  0  0  0  0  0  0  0
    9.6240   -1.2680   21.9270 C   0  0  0  0  0  0  0  0  0  0  0  0
    7.2880   -3.5380   20.2930 C   0  0  0  0  0  0  0  0  0  0  0  0
    7.6220    2.1710   22.8730 N   0  0  0  0  0  0  0  0  0  0  0  0
    8.6990    1.2210   21.0880 O   0  0  0  0  0  0  0  0  0  0  0  0
    4.9170    1.3970   20.0780 C   0  0  0  0  0  0  0  0  0  0  0  0
    6.8520    0.2350   19.0170 C   0  0  0  0  0  0  0  0  0  0  0  0
    9.7070   -1.7410   24.0800 O   0  0  0  0  0  0  0  0  0  0  0  0
   10.5070   -1.4930   22.9650 C   0  0  0  0  0  0  0  0  0  0  0  0
    6.6550   -4.2470   21.7180 C   0  0  0  0  0  0  0  0  0  0  0  0
   12.0230   -1.5270   23.1730 C   0  0  0  0  0  0  0  0  0  0  0  0
    6.3550    0.6860   17.7210 N   0  0  0  0  0  0  0  0  0  0  0  0
    4.5140    1.7780   18.8410 C   0  0  0  0  0  0  0  0  0  0  0  0
    8.4440    3.3540   23.0910 C   0  0  0  0  0  0  0  0  0  0  0  0
    5.7990   -5.3530   21.5370 C   0  0  0  0  0  0  0  0  0  0  0  0
    7.7010   -4.9590   22.5490 C   0  0  0  0  0  0  0  0  0  0  0  0
   12.5400   -0.1830   23.7000 C   0  0  0  0  0  0  0  0  0  0  0  0
   12.7930   -1.8400   21.8770 C   0  0  0  0  0  0  0  0  0  0  0  0
   12.3600   -2.6520   24.1740 C   0  0  0  0  0  0  0  0  0  0  0  0
    5.2300    1.4240   17.7290 C   0  0  0  0  0  0  0  0  0  0  0  0
    9.7310    3.2250   23.6660 C   0  0  0  0  0  0  0  0  0  0  0  0
    8.0660    4.6610   22.7740 C   0  0  0  0  0  0  0  0  0  0  0  0
    5.0620   -5.7730   22.6840 C   0  0  0  0  0  0  0  0  0  0  0  0
    7.1780   -5.2270   23.9360 C   0  0  0  0  0  0  0  0  0  0  0  0
   10.2950    1.8750   24.0660 C   0  0  0  0  0  0  0  0  0  0  0  0
   13.3080   -2.3230   25.1250 C   0  0  0  0  0  0  0  0  0  0  0  0
   10.5020    4.3370   23.8760 C   0  0  0  0  0  0  0  0  0  0  0  0
    8.8800    5.7710   23.0060 C   0  0  0  0  0  0  0  0  0  0  0  0
    5.7580   -5.4470   23.9490 N   0  0  0  0  0  0  0  0  0  0  0  0
    5.0070   -5.6630   25.4970 S   0  0  0  0  0  0  0  0  0  0  0  0
   10.1370    5.6500   23.5740 C   0  0  0  0  0  0  0  0  0  0  0  0
   11.0390    6.6480   23.8640 O   0  0  0  0  0  0  0  0  0  0  0  0
    4.3970   -6.9740   25.4650 O   0  0  0  0  0  0  0  0  0  0  0  0
    6.0160   -5.4230   26.5050 O   0  0  0  0  0  0  0  0  0  0  0  0
    3.7750   -4.5190   25.6770 C   0  0  0  0  0  0  0  0  0  0  0  0
   11.8330    6.5250   25.0450 C   0  0  0  0  0  0  0  0  0  0  0  0
    2.4340   -4.8410   25.3690 C   0  0  0  0  0  0  0  0  0  0  0  0
    4.1260   -3.2040   26.1640 C   0  0  0  0  0  0  0  0  0  0  0  0
    2.0390   -6.1960   24.8600 C   0  0  0  0  0  0  0  0  0  0  0  0
    1.4520   -3.8530   25.5560 C   0  0  0  0  0  0  0  0  0  0  0  0
    3.2010   -2.1880   26.3680 C   0  0  0  0  0  0  0  0  0  0  0  0
    1.7650   -2.4620   26.0720 C   0  0  0  0  0  0  0  0  0  0  0  0
    0.7070   -1.4210   26.2770 C   0  0  0  0  0  0  0  0  0  0  0  0
  1  2  1  0
  2  3  2  0
  1  4  1  0
  1  5  1  0
  1  6  1  1
  2  7  1  0
  4  8  1  6
  5  9  1  0
  4 10  1  0
  6 11  2  0
  6 12  1  0
  7 13  1  0
  8 14  1  0
  8 15  2  0
 10 16  2  0
 10 17  1  0
 11 18  1  0
 12 19  2  0
 18 19  1  0
 20  9  1  0
 13 20  1  0
 19 21  1  0
 17 22  2  0
 16 23  1  0
 14 24  1  0
 20 25  1  0
 20 26  1  0
 21 27  1  0
 21 28  1  0
 21 29  1  0
 22 30  1  0
 23 30  2  0
 24 31  2  0
 24 32  1  0
 25 33  1  0
 26 34  1  0
 31 35  1  0
 29 36  1  0
 31 37  1  0
 32 38  2  0
 33 39  1  0
 34 39  1  0
 39 40  1  0
 37 41  2  0
 38 41  1  0
 41 42  1  0
 40 43  2  0
 40 44  2  0
 40 45  1  0
 42 46  1  0
 45 47  2  0
 45 48  1  0
 47 49  1  0
 47 50  1  0
 48 51  2  0
 50 52  2  0
 51 52  1  0
 52 53  1  0
M  END
