x2694-x0540-x1374
     RDKit          3D

 61 66  0  0  0  0  0  0  0  0999 V2000
    7.0800   -2.0270   21.8710 N   0  0  0  0  0  0  0  0  0  0  0  0
    6.1720   -3.2340   21.7990 C   0  0  0  0  0  0  0  0  0  0  0  0
    4.9450   -3.2730   21.3540 O   0  0  0  0  0  0  0  0  0  0  0  0
    6.5630   -0.6560   21.7140 C   0  0  1  0  0  0  0  0  0  0  0  0
    8.4780   -2.0840   22.4080 C   0  0  0  0  0  0  0  0  0  0  0  0
    6.6880   -4.6270   22.2590 C   0  0  2  0  0  0  0  0  0  0  0  0
    7.6390    0.5050   21.7900 C   0  0  0  0  0  0  0  0  0  0  0  0
    5.8170   -0.3360   20.4110 C   0  0  0  0  0  0  0  0  0  0  0  0
    8.9810   -2.2990   23.7810 N   0  0  0  0  0  0  0  0  0  0  0  0
    9.7430   -1.9430   21.8070 C   0  0  0  0  0  0  0  0  0  0  0  0
    6.8000   -5.5430   21.0260 C   0  0  0  0  0  0  0  0  0  0  0  0
    7.6670    1.4270   22.9380 N   0  0  0  0  0  0  0  0  0  0  0  0
    8.4810    0.7370   20.9220 O   0  0  0  0  0  0  0  0  0  0  0  0
    4.5210    0.3040   20.3060 C   0  0  0  0  0  0  0  0  0  0  0  0
    6.5030   -0.6940   19.2050 C   0  0  0  0  0  0  0  0  0  0  0  0
   10.3760   -2.2450   23.8290 O   0  0  0  0  0  0  0  0  0  0  0  0
   10.8940   -2.0130   22.5880 C   0  0  0  0  0  0  0  0  0  0  0  0
    5.9180   -5.2730   23.4850 C   0  0  0  0  0  0  0  0  0  0  0  0
   12.4280   -1.8920   22.4090 C   0  0  0  0  0  0  0  0  0  0  0  0
    3.6730    0.7380   21.3880 C   0  0  0  0  0  0  0  0  0  0  0  0
    5.8970   -0.3940   17.9570 N   0  0  0  0  0  0  0  0  0  0  0  0
    4.0050    0.5550   19.0010 C   0  0  0  0  0  0  0  0  0  0  0  0
    8.5440    2.6320   23.0290 C   0  0  0  0  0  0  0  0  0  0  0  0
    6.4300   -5.0970   24.7400 C   0  0  0  0  0  0  0  0  0  0  0  0
    4.5900   -6.1130   23.4040 C   0  0  0  0  0  0  0  0  0  0  0  0
   12.8770   -0.4650   22.9010 C   0  0  0  0  0  0  0  0  0  0  0  0
   12.8650   -2.0200   20.9040 C   0  0  0  0  0  0  0  0  0  0  0  0
   13.2030   -2.9510   23.2610 C   0  0  0  0  0  0  0  0  0  0  0  0
    4.0470    1.9650   22.0130 C   0  0  0  0  0  0  0  0  0  0  0  0
    4.6760    0.2180   17.8000 C   0  0  0  0  0  0  0  0  0  0  0  0
    9.7290    2.6060   23.8530 C   0  0  0  0  0  0  0  0  0  0  0  0
    8.2080    3.7860   22.2990 C   0  0  0  0  0  0  0  0  0  0  0  0
    5.7670   -5.6420   25.7710 C   0  0  0  0  0  0  0  0  0  0  0  0
    3.6800   -6.8190   24.4510 C   0  0  0  0  0  0  0  0  0  0  0  0
   10.1460    1.4630   24.6340 C   0  0  0  0  0  0  0  0  0  0  0  0
    3.0790    2.8480   22.7590 N   0  0  0  0  0  0  0  0  0  0  0  0
    6.2960   -5.4810   27.1870 C   0  0  0  0  0  0  0  0  0  0  0  0
   10.5250    3.8060   23.8800 C   0  0  0  0  0  0  0  0  0  0  0  0
    9.0060    4.9570   22.3410 C   0  0  0  0  0  0  0  0  0  0  0  0
    4.5530   -6.3910   25.5740 C   0  0  0  0  0  0  0  0  0  0  0  0
    2.7510   -7.2750   23.2580 C   0  0  0  0  0  0  0  0  0  0  0  0
    2.1400    2.3660   23.6730 C   0  0  0  0  0  0  0  0  0  0  0  0
   10.1940    4.9890   23.1380 C   0  0  0  0  0  0  0  0  0  0  0  0
    1.7110   -6.2170   22.6500 C   0  0  0  0  0  0  0  0  0  0  0  0
   10.8950    6.1880   23.1050 O   0  0  0  0  0  0  0  0  0  0  0  0
    2.4260    1.5970   24.5980 O   0  0  0  0  0  0  0  0  0  0  0  0
    0.7750    2.9090   23.3500 N   0  0  0  0  0  0  0  0  0  0  0  0
    0.5260   -5.6110   23.4950 C   0  0  2  0  0  0  0  0  0  0  0  0
   12.3430    6.2010   23.1110 C   0  0  0  0  0  0  0  0  0  0  0  0
   -0.3250    3.0420   24.3380 C   0  0  0  0  0  0  0  0  0  0  0  0
    1.0330   -4.8290   24.5420 C   0  0  0  0  0  0  0  0  0  0  0  0
   -0.4270   -6.7060   24.0120 C   0  0  0  0  0  0  0  0  0  0  0  0
   -0.3520    4.4790   24.8850 C   0  0  0  0  0  0  0  0  0  0  0  0
   -1.5410    2.4910   23.8370 C   0  0  0  0  0  0  0  0  0  0  0  0
   -0.7730   -6.2420   25.7240 S   0  0  0  0  0  0  0  0  0  0  0  0
    0.5090   -4.9820   25.7860 C   0  0  0  0  0  0  0  0  0  0  0  0
   -1.5980    4.9000   25.4470 C   0  0  0  0  0  0  0  0  0  0  0  0
   -2.7650    3.0810   24.2870 C   0  0  0  0  0  0  0  0  0  0  0  0
   -2.1130   -5.6820   25.7860 O   0  0  0  0  0  0  0  0  0  0  0  0
   -0.4340   -7.3410   26.6100 O   0  0  0  0  0  0  0  0  0  0  0  0
   -2.7420    4.4270   24.7350 C   0  0  0  0  0  0  0  0  0  0  0  0
  1  2  1  0
  2  3  2  0
  1  4  1  0
  1  5  1  0
  2  6  1  0
  4  7  1  6
  4  8  1  0
  5  9  2  0
  5 10  1  0
  6 11  1  6
  7 12  1  0
  7 13  2  0
  8 14  1  0
  8 15  2  0
  9 16  1  0
 10 17  2  0
 16 17  1  0
  6 18  1  0
 17 19  1  0
 14 20  1  0
 15 21  1  0
 14 22  2  0
 12 23  1  0
 18 24  2  0
 18 25  1  0
 19 26  1  0
 19 27  1  0
 19 28  1  0
 20 29  1  0
 21 30  2  0
 22 30  1  0
 23 31  2  0
 23 32  1  0
 24 33  1  0
 25 34  2  0
 31 35  1  0
 29 36  1  0
 33 37  1  0
 31 38  1  0
 32 39  2  0
 33 40  2  0
 34 40  1  0
 34 41  1  0
 36 42  1  0
 38 43  2  0
 39 43  1  0
 41 44  1  0
 43 45  1  0
 42 46  2  0
 42 47  1  0
 48 44  1  1
 45 49  1  0
 47 50  1  0
 48 51  1  0
 48 52  1  0
 50 53  1  0
 50 54  1  0
 52 55  1  0
 51 56  2  0
 55 56  1  0
 53 57  1  0
 54 58  1  0
 55 59  1  0
 55 60  1  0
 57 61  1  0
 58 61  1  0
M  END
