x2694-x0771-x1493-x2776-x2703
     RDKit          3D

 59 64  0  0  0  0  0  0  0  0999 V2000
    6.7610   -1.1630   21.7470 C   0  0  1  0  0  0  0  0  0  0  0  0
    5.9150   -2.2170   20.7760 C   0  0  0  0  0  0  0  0  0  0  0  0
    4.7360   -2.8300   20.9490 O   0  0  0  0  0  0  0  0  0  0  0  0
    6.5880    0.2840   21.4690 C   0  0  1  0  0  0  0  0  0  0  0  0
    5.8940   -1.7200   22.8100 C   0  0  0  0  0  0  0  0  0  0  0  0
    8.2480   -1.3420   22.4250 C   0  0  0  0  0  0  0  0  0  0  0  0
    6.5500   -2.6700   19.6010 C   0  0  0  0  0  0  0  0  0  0  0  0
    7.7020    1.3850   21.6820 C   0  0  0  0  0  0  0  0  0  0  0  0
    5.6160   -3.0930   22.5680 C   0  0  0  0  0  0  0  0  0  0  0  0
    5.9860    0.7140   20.1730 C   0  0  0  0  0  0  0  0  0  0  0  0
    8.3680   -1.5820   23.9250 N   0  0  0  0  0  0  0  0  0  0  0  0
    9.5650   -1.2900   21.9630 C   0  0  0  0  0  0  0  0  0  0  0  0
    7.4210   -3.5610   20.3580 C   0  0  0  0  0  0  0  0  0  0  0  0
    7.4050    2.5900   22.4540 N   0  0  0  0  0  0  0  0  0  0  0  0
    8.8130    1.2880   21.1500 O   0  0  0  0  0  0  0  0  0  0  0  0
    4.7920    1.3940   20.1100 C   0  0  0  0  0  0  0  0  0  0  0  0
    6.7800    0.3750   18.9200 C   0  0  0  0  0  0  0  0  0  0  0  0
    9.7440   -1.6470   24.2330 O   0  0  0  0  0  0  0  0  0  0  0  0
   10.5360   -1.4820   23.1310 C   0  0  0  0  0  0  0  0  0  0  0  0
    6.6960   -4.1100   21.8010 C   0  0  2  0  0  0  0  0  0  0  0  0
   12.0890   -1.5060   23.2710 C   0  0  0  0  0  0  0  0  0  0  0  0
    6.3380    0.7570   17.6420 N   0  0  0  0  0  0  0  0  0  0  0  0
    4.4010    1.7550   18.8180 C   0  0  0  0  0  0  0  0  0  0  0  0
    8.3800    3.5780   22.8160 C   0  0  0  0  0  0  0  0  0  0  0  0
    5.8740   -5.2070   21.7170 C   0  0  0  0  0  0  0  0  0  0  0  0
    7.6270   -4.2370   22.8310 C   0  0  0  0  0  0  0  0  0  0  0  0
    6.0590    3.0710   22.0210 C   0  0  0  0  0  0  0  0  0  0  0  0
   12.5850   -0.3670   23.9000 C   0  0  0  0  0  0  0  0  0  0  0  0
   12.7640   -1.6280   21.9080 C   0  0  0  0  0  0  0  0  0  0  0  0
   12.4440   -2.6690   24.0560 C   0  0  0  0  0  0  0  0  0  0  0  0
    5.1490    1.4480   17.6890 C   0  0  0  0  0  0  0  0  0  0  0  0
    9.5420    3.2390   23.5320 C   0  0  0  0  0  0  0  0  0  0  0  0
    8.2320    5.0660   22.4550 C   0  0  0  0  0  0  0  0  0  0  0  0
    5.1420   -5.4170   23.0650 C   0  0  0  0  0  0  0  0  0  0  0  0
    7.0020   -4.0780   24.1180 C   0  0  0  0  0  0  0  0  0  0  0  0
    5.6670    4.3470   22.4480 C   0  0  0  0  0  0  0  0  0  0  0  0
    9.9660    1.8470   24.0240 C   0  0  0  0  0  0  0  0  0  0  0  0
   13.3170   -2.4430   25.1200 C   0  0  0  0  0  0  0  0  0  0  0  0
   10.4530    4.2630   23.8620 C   0  0  0  0  0  0  0  0  0  0  0  0
    9.2120    5.9650   22.8550 C   0  0  0  0  0  0  0  0  0  0  0  0
    5.8440   -4.8920   24.2190 C   0  0  1  0  0  0  0  0  0  0  0  0
    9.0820    1.1760   25.0720 C   0  0  0  0  0  0  0  0  0  0  0  0
    4.8810   -4.9120   25.7870 S   0  0  0  0  0  0  0  0  0  0  0  0
    6.4430   -6.0970   24.6930 C   0  0  0  0  0  0  0  0  0  0  0  0
   10.3510    5.6270   23.5680 C   0  0  0  0  0  0  0  0  0  0  0  0
   11.2710    6.6120   23.9220 O   0  0  0  0  0  0  0  0  0  0  0  0
    4.3770   -6.2680   25.9240 O   0  0  0  0  0  0  0  0  0  0  0  0
    5.7670   -4.4100   26.8200 O   0  0  0  0  0  0  0  0  0  0  0  0
    6.9100   -6.1300   26.0070 C   0  0  0  0  0  0  0  0  0  0  0  0
    3.5740   -3.9400   25.8060 C   0  0  0  0  0  0  0  0  0  0  0  0
   11.8640    6.5250   25.2110 C   0  0  0  0  0  0  0  0  0  0  0  0
    7.9140   -5.6160   26.4510 O   0  0  0  0  0  0  0  0  0  0  0  0
    2.2500   -4.5260   25.3840 C   0  0  0  0  0  0  0  0  0  0  0  0
    3.7310   -2.4990   26.2670 C   0  0  0  0  0  0  0  0  0  0  0  0
    1.9730   -5.9260   24.9100 C   0  0  0  0  0  0  0  0  0  0  0  0
    1.1040   -3.5350   25.4800 C   0  0  0  0  0  0  0  0  0  0  0  0
    2.6030   -1.6720   26.3160 C   0  0  0  0  0  0  0  0  0  0  0  0
    1.3120   -2.1070   25.9580 C   0  0  0  0  0  0  0  0  0  0  0  0
    0.1550   -1.1690   26.0520 C   0  0  0  0  0  0  0  0  0  0  0  0
  1  2  1  0
  2  3  2  0
  1  4  1  0
  1  5  1  0
  1  6  1  1
  2  7  1  0
  4  8  1  6
  5  9  1  0
  4 10  1  0
  6 11  2  0
  6 12  1  0
  7 13  1  0
  8 14  1  0
  8 15  2  0
 10 16  2  0
 10 17  1  0
 11 18  1  0
 12 19  2  0
 18 19  1  0
 20  9  1  1
 13 20  1  0
 19 21  1  0
 17 22  2  0
 16 23  1  0
 14 24  1  0
 20 25  1  0
 20 26  1  0
 14 27  1  0
 21 28  1  0
 21 29  1  0
 21 30  1  0
 22 31  1  0
 23 31  2  0
 24 32  2  0
 24 33  1  0
 25 34  1  0
 26 35  1  0
 27 36  1  0
 32 37  1  0
 30 38  1  0
 32 39  1  0
 33 40  2  0
 34 41  1  0
 35 41  1  0
 37 42  1  0
 41 43  1  0
 41 44  1  1
 39 45  2  0
 40 45  1  0
 45 46  1  0
 43 47  2  0
 43 48  2  0
 44 49  1  0
 43 50  1  0
 46 51  1  0
 49 52  2  0
 50 53  2  0
 50 54  1  0
 53 55  1  0
 53 56  1  0
 54 57  2  0
 56 58  2  0
 57 58  1  0
 58 59  1  0
M  END
