x2694-x0540-x0387
     RDKit          3D

 54 59  0  0  0  0  0  0  0  0999 V2000
    6.9120   -1.2340   21.8710 N   0  0  0  0  0  0  0  0  0  0  0  0
    6.1720   -2.5510   21.4320 C   0  0  0  0  0  0  0  0  0  0  0  0
    4.8290   -3.0060   21.3080 O   0  0  0  0  0  0  0  0  0  0  0  0
    6.5730    0.1660   21.4890 C   0  0  1  0  0  0  0  0  0  0  0  0
    8.1290   -1.0960   22.7130 C   0  0  1  0  0  0  0  0  0  0  0  0
    7.1290   -3.6060   21.0160 C   0  0  0  0  0  0  0  0  0  0  0  0
    7.6880    1.2900   21.6920 C   0  0  0  0  0  0  0  0  0  0  0  0
    6.0680    0.4830   20.1180 C   0  0  0  0  0  0  0  0  0  0  0  0
    8.2310   -1.9260   23.7400 N   0  0  0  0  0  0  0  0  0  0  0  0
    9.4540   -1.0000   22.1360 C   0  0  0  0  0  0  0  0  0  0  0  0
    7.2120   -3.4200   19.5170 C   0  0  0  0  0  0  0  0  0  0  0  0
    7.4300    2.3060   22.7840 N   0  0  0  0  0  0  0  0  0  0  0  0
    8.6990    1.3890   20.9940 O   0  0  0  0  0  0  0  0  0  0  0  0
    4.8590    1.1260   20.0580 C   0  0  0  0  0  0  0  0  0  0  0  0
    6.8550    0.1350   19.0550 C   0  0  0  0  0  0  0  0  0  0  0  0
    9.5230   -1.9530   24.0930 C   0  0  2  0  0  0  0  0  0  0  0  0
   10.3820   -1.4660   23.0760 C   0  0  2  0  0  0  0  0  0  0  0  0
    4.0390    1.4700   21.2610 C   0  0  0  0  0  0  0  0  0  0  0  0
    6.3190    0.5420   17.7530 N   0  0  0  0  0  0  0  0  0  0  0  0
    4.3890    1.4850   18.8300 C   0  0  0  0  0  0  0  0  0  0  0  0
    8.2800    3.4310   22.9880 C   0  0  0  0  0  0  0  0  0  0  0  0
    9.5610   -3.3110   24.5880 N   0  0  0  0  0  0  0  0  0  0  0  0
   11.5160   -0.4610   23.5520 C   0  0  1  0  0  0  0  0  0  0  0  0
   11.1400   -2.4110   22.2000 C   0  0  0  0  0  0  0  0  0  0  0  0
   12.1310   -0.9260   24.8560 C   0  0  0  0  0  0  0  0  0  0  0  0
    4.4540    2.6570   21.8610 C   0  0  0  0  0  0  0  0  0  0  0  0
    5.1460    1.1860   17.7210 C   0  0  0  0  0  0  0  0  0  0  0  0
    9.5140    3.2360   23.6340 C   0  0  0  0  0  0  0  0  0  0  0  0
    7.9560    4.7440   22.5870 C   0  0  0  0  0  0  0  0  0  0  0  0
    8.2940   -3.5990   25.3280 C   0  0  0  0  0  0  0  0  0  0  0  0
   10.7280   -3.6840   25.3360 C   0  0  0  0  0  0  0  0  0  0  0  0
   12.8200   -1.8810   21.6480 S   0  0  0  0  0  0  0  0  0  0  0  0
   12.7270   -0.4570   22.6750 C   0  0  0  0  0  0  0  0  0  0  0  0
    9.8640    2.0310   24.0320 C   0  0  0  0  0  0  0  0  0  0  0  0
   13.0590   -2.1480   24.7120 C   0  0  0  0  0  0  0  0  0  0  0  0
    4.1560    2.5670   23.3080 N   0  0  0  0  0  0  0  0  0  0  0  0
   10.4650    4.2910   23.9120 C   0  0  0  0  0  0  0  0  0  0  0  0
    8.8580    5.7810   22.8540 C   0  0  0  0  0  0  0  0  0  0  0  0
    8.2180   -4.8500   25.9110 C   0  0  0  0  0  0  0  0  0  0  0  0
   10.5720   -4.8260   26.1000 C   0  0  0  0  0  0  0  0  0  0  0  0
    2.9350    2.3010   23.7920 C   0  0  0  0  0  0  0  0  0  0  0  0
   10.1660    5.5360   23.5510 C   0  0  0  0  0  0  0  0  0  0  0  0
    9.2420   -5.1400   26.7880 C   0  0  0  0  0  0  0  0  0  0  0  0
   10.9490    6.6590   23.7550 O   0  0  0  0  0  0  0  0  0  0  0  0
    2.6890    1.2800   24.7530 O   0  0  0  0  0  0  0  0  0  0  0  0
    1.9480    3.1560   23.2560 N   0  0  0  0  0  0  0  0  0  0  0  0
    9.1120   -4.3100   27.9390 O   0  0  0  0  0  0  0  0  0  0  0  0
   11.8620    6.6130   24.8520 C   0  0  0  0  0  0  0  0  0  0  0  0
    0.6530    3.3300   23.9470 C   0  0  0  0  0  0  0  0  0  0  0  0
    0.6230    4.5280   24.6730 C   0  0  0  0  0  0  0  0  0  0  0  0
   -0.5350    3.0370   23.0190 C   0  0  0  0  0  0  0  0  0  0  0  0
   -0.6170    5.2000   24.7130 C   0  0  0  0  0  0  0  0  0  0  0  0
   -1.7480    3.3820   23.6100 C   0  0  0  0  0  0  0  0  0  0  0  0
   -1.6890    4.3020   24.6520 C   0  0  0  0  0  0  0  0  0  0  0  0
  1  2  1  0
  2  3  2  0
  1  4  1  0
  5  1  1  6
  2  6  1  0
  4  7  1  6
  4  8  1  0
  5  9  1  0
  5 10  1  0
  6 11  1  0
  7 12  1  0
  7 13  2  0
  8 14  1  0
  8 15  2  0
  9 16  1  0
 17 10  1  6
 16 17  1  0
 14 18  1  0
 15 19  1  0
 14 20  2  0
 12 21  1  0
 16 22  1  6
 17 23  1  0
 17 24  1  0
 23 25  1  1
 18 26  1  0
 19 27  2  0
 20 27  1  0
 21 28  2  0
 21 29  1  0
 22 30  1  0
 22 31  1  0
 24 32  2  0
 23 33  1  0
 32 33  2  0
 28 34  1  0
 25 35  1  0
 26 36  1  0
 28 37  1  0
 29 38  2  0
 30 39  1  0
 31 40  1  0
 36 41  1  0
 37 42  2  0
 38 42  1  0
 39 43  1  0
 40 43  1  0
 42 44  1  0
 41 45  2  0
 41 46  1  0
 43 47  1  0
 44 48  1  0
 46 49  1  0
 49 50  1  0
 49 51  1  0
 50 52  1  0
 51 53  1  0
 52 54  1  0
 53 54  1  0
M  END
