x2694-x3115-x1380
     RDKit          3D

 49 54  0  0  0  0  0  0  0  0999 V2000
    7.1260   -1.4740   21.7640 C   0  0  2  0  0  0  0  0  0  0  0  0
    6.1720   -2.8520   21.3850 C   0  0  0  0  0  0  0  0  0  0  0  0
    4.9400   -3.0470   20.8670 O   0  0  0  0  0  0  0  0  0  0  0  0
    6.7180   -0.0140   21.5900 C   0  0  1  0  0  0  0  0  0  0  0  0
    6.5470   -2.0210   23.0130 C   0  0  0  0  0  0  0  0  0  0  0  0
    8.5170   -1.4280   22.5560 C   0  0  0  0  0  0  0  0  0  0  0  0
    7.8340    1.1310   21.7590 C   0  0  0  0  0  0  0  0  0  0  0  0
    6.1930    0.4360   20.2530 C   0  0  0  0  0  0  0  0  0  0  0  0
    8.6620   -1.1930   23.8950 N   0  0  0  0  0  0  0  0  0  0  0  0
    9.8070   -1.6030   22.0360 C   0  0  0  0  0  0  0  0  0  0  0  0
    6.8230   -4.0990   21.8910 C   0  0  2  0  0  0  0  0  0  0  0  0
    7.2410   -3.3610   23.1810 C   0  0  2  0  0  0  0  0  0  0  0  0
    8.0630   -4.5500   21.1080 C   0  0  0  0  0  0  0  0  0  0  0  0
    7.6290    2.1270   22.7650 N   0  0  0  0  0  0  0  0  0  0  0  0
    8.8200    1.1950   21.0350 O   0  0  0  0  0  0  0  0  0  0  0  0
    5.0850    1.2520   20.1980 C   0  0  0  0  0  0  0  0  0  0  0  0
    6.8120    0.0650   19.0590 C   0  0  0  0  0  0  0  0  0  0  0  0
   10.0210   -1.2170   24.2160 O   0  0  0  0  0  0  0  0  0  0  0  0
   10.7240   -1.4620   23.0840 C   0  0  0  0  0  0  0  0  0  0  0  0
    5.6870   -5.1730   22.1740 C   0  0  0  0  0  0  0  0  0  0  0  0
    6.9130   -4.0490   24.2580 C   0  0  0  0  0  0  0  0  0  0  0  0
   12.2400   -1.5460   23.0450 C   0  0  0  0  0  0  0  0  0  0  0  0
    6.3600    0.5010   17.7980 N   0  0  0  0  0  0  0  0  0  0  0  0
    4.6390    1.6780   18.9700 C   0  0  0  0  0  0  0  0  0  0  0  0
    8.4320    3.2940   22.9850 C   0  0  0  0  0  0  0  0  0  0  0  0
    5.1720   -5.2470   23.5090 C   0  0  0  0  0  0  0  0  0  0  0  0
    5.6000   -4.1910   24.2820 C   0  0  1  0  0  0  0  0  0  0  0  0
   12.8120   -0.2080   23.5600 C   0  0  0  0  0  0  0  0  0  0  0  0
   12.7980   -1.7510   21.6300 C   0  0  0  0  0  0  0  0  0  0  0  0
   12.7500   -2.7330   23.8770 C   0  0  0  0  0  0  0  0  0  0  0  0
    5.0240   -3.8420   25.6640 C   0  0  0  0  0  0  0  0  0  0  0  0
    5.1910    1.3740   17.7510 C   0  0  0  0  0  0  0  0  0  0  0  0
    9.6680    3.1460   23.6310 C   0  0  0  0  0  0  0  0  0  0  0  0
    8.0560    4.5810   22.5860 C   0  0  0  0  0  0  0  0  0  0  0  0
   10.2370    1.9310   24.1090 C   0  0  0  0  0  0  0  0  0  0  0  0
   13.3750   -2.4470   25.2430 C   0  0  0  0  0  0  0  0  0  0  0  0
    4.0320   -3.1430   25.7410 O   0  0  0  0  0  0  0  0  0  0  0  0
   10.5240    4.2330   23.8910 C   0  0  0  0  0  0  0  0  0  0  0  0
    8.8580    5.7140   22.8160 C   0  0  0  0  0  0  0  0  0  0  0  0
    5.6040   -4.2420   26.8120 N   0  0  0  0  0  0  0  0  0  0  0  0
    8.3840    6.9840   22.3630 C   0  0  0  0  0  0  0  0  0  0  0  0
   10.0890    5.5910   23.4650 C   0  0  0  0  0  0  0  0  0  0  0  0
    6.4800   -3.3630   27.5340 C   0  0  0  0  0  0  0  0  0  0  0  0
    4.6450   -4.7390   27.7410 C   0  0  0  0  0  0  0  0  0  0  0  0
   10.9650    6.6170   23.7580 O   0  0  0  0  0  0  0  0  0  0  0  0
    6.9330   -4.0280   28.6710 C   0  0  0  0  0  0  0  0  0  0  0  0
    5.2730   -5.5140   28.7150 C   0  0  0  0  0  0  0  0  0  0  0  0
   11.8160    6.4950   24.9020 C   0  0  0  0  0  0  0  0  0  0  0  0
    6.6430   -5.3650   28.7390 C   0  0  0  0  0  0  0  0  0  0  0  0
  1  2  1  0
  2  3  2  0
  1  4  1  0
  1  5  1  0
  1  6  1  1
  4  7  1  6
  4  8  1  0
  6  9  2  0
  6 10  1  0
  2 11  1  0
 12  5  1  1
 11 12  1  0
 11 13  1  6
  7 14  1  0
  7 15  2  0
  8 16  2  0
  8 17  1  0
  9 18  1  0
 10 19  2  0
 18 19  1  0
 11 20  1  0
 12 21  1  0
 19 22  1  0
 17 23  2  0
 16 24  1  0
 14 25  1  0
 20 26  1  0
 21 27  1  0
 26 27  1  0
 22 28  1  0
 22 29  1  0
 22 30  1  0
 27 31  1  1
 23 32  1  0
 24 32  2  0
 25 33  2  0
 25 34  1  0
 33 35  1  0
 30 36  1  0
 31 37  2  0
 33 38  1  0
 34 39  2  0
 31 40  1  0
 39 41  1  0
 38 42  2  0
 39 42  1  0
 40 43  1  0
 40 44  1  0
 42 45  1  0
 43 46  1  0
 44 47  1  0
 45 48  1  0
 46 49  1  0
 47 49  1  0
M  END
