x2705-x0540
     RDKit          3D

 45 48  0  0  0  0  0  0  0  0999 V2000
    7.1000   -1.6550   21.7950 N   0  0  0  0  0  0  0  0  0  0  0  0
    6.1960   -2.8770   21.6230 C   0  0  0  0  0  0  0  0  0  0  0  0
    4.9150   -3.1060   21.2240 O   0  0  0  0  0  0  0  0  0  0  0  0
    6.7630   -0.1960   21.5530 C   0  0  1  0  0  0  0  0  0  0  0  0
    8.3420   -1.6750   22.5360 C   0  0  0  0  0  0  0  0  0  0  0  0
    6.9320   -4.1440   21.9770 C   0  0  0  0  0  0  0  0  0  0  0  0
    7.8120    0.7590   21.8360 C   0  0  0  0  0  0  0  0  0  0  0  0
    6.1840    0.1800   20.2130 C   0  0  0  0  0  0  0  0  0  0  0  0
    8.4450   -1.7460   23.9000 N   0  0  0  0  0  0  0  0  0  0  0  0
    9.7860   -1.5950   22.0400 C   0  0  0  0  0  0  0  0  0  0  0  0
    6.9310   -5.0720   20.7640 C   0  0  0  0  0  0  0  0  0  0  0  0
    7.5160    1.8150   22.7230 N   0  0  0  0  0  0  0  0  0  0  0  0
    8.9060    0.6790   21.2950 O   0  0  0  0  0  0  0  0  0  0  0  0
    4.8330    0.8010   20.1520 C   0  0  0  0  0  0  0  0  0  0  0  0
    6.9380   -0.0440   19.0490 C   0  0  0  0  0  0  0  0  0  0  0  0
    9.7730   -1.7100   24.2440 N   0  0  0  0  0  0  0  0  0  0  0  0
   10.5770   -1.6220   23.1630 C   0  0  0  0  0  0  0  0  0  0  0  0
   12.1050   -1.5620   23.2960 C   0  0  0  0  0  0  0  0  0  0  0  0
    4.0000    1.0200   21.3710 C   0  0  0  0  0  0  0  0  0  0  0  0
    6.3850    0.3650   17.8890 N   0  0  0  0  0  0  0  0  0  0  0  0
    4.3620    1.1770   18.9170 C   0  0  0  0  0  0  0  0  0  0  0  0
    8.1570    3.1130   22.8480 C   0  0  0  0  0  0  0  0  0  0  0  0
   12.6130   -0.1580   23.6720 C   0  0  0  0  0  0  0  0  0  0  0  0
   12.5900   -2.5540   24.3710 C   0  0  0  0  0  0  0  0  0  0  0  0
   12.7790   -1.9370   21.9560 C   0  0  0  0  0  0  0  0  0  0  0  0
    4.7950    1.7750   22.4630 C   0  0  0  0  0  0  0  0  0  0  0  0
    5.1740    0.9470   17.8250 C   0  0  0  0  0  0  0  0  0  0  0  0
    9.4600    3.1380   23.4580 C   0  0  0  0  0  0  0  0  0  0  0  0
    7.5650    4.3260   22.4120 C   0  0  0  0  0  0  0  0  0  0  0  0
   10.1490    1.8790   23.9440 C   0  0  0  0  0  0  0  0  0  0  0  0
    6.2190    4.4690   21.7560 C   0  0  0  0  0  0  0  0  0  0  0  0
    3.9360    2.8310   22.8940 N   0  0  0  0  0  0  0  0  0  0  0  0
   10.1730    4.3360   23.6400 C   0  0  0  0  0  0  0  0  0  0  0  0
    8.3060    5.6680   22.5910 C   0  0  0  0  0  0  0  0  0  0  0  0
    9.3010    1.2550   24.8740 C   0  0  0  0  0  0  0  0  0  0  0  0
    2.7340    2.4490   23.6370 C   0  0  0  0  0  0  0  0  0  0  0  0
    9.5570    5.6750   23.1800 C   0  0  0  0  0  0  0  0  0  0  0  0
    2.7280    1.5750   24.5090 O   0  0  0  0  0  0  0  0  0  0  0  0
    1.6600    3.1770   23.2290 N   0  0  0  0  0  0  0  0  0  0  0  0
    0.5140    3.2980   24.0940 C   0  0  0  0  0  0  0  0  0  0  0  0
    0.4330    4.7360   24.6330 C   0  0  0  0  0  0  0  0  0  0  0  0
   -0.6120    2.8040   23.4590 C   0  0  0  0  0  0  0  0  0  0  0  0
   -0.8950    5.0320   25.1450 C   0  0  0  0  0  0  0  0  0  0  0  0
   -1.8900    3.3360   23.5650 C   0  0  0  0  0  0  0  0  0  0  0  0
   -1.9750    4.6310   24.3350 C   0  0  0  0  0  0  0  0  0  0  0  0
  1  2  1  0
  2  3  2  0
  1  4  1  0
  1  5  1  0
  2  6  1  0
  4  7  1  6
  4  8  1  0
  5  9  2  0
  5 10  1  0
  6 11  1  0
  7 12  1  0
  7 13  2  0
  8 14  1  0
  8 15  2  0
  9 16  1  0
 10 17  2  0
 16 17  1  0
 17 18  1  0
 14 19  1  0
 15 20  1  0
 14 21  2  0
 12 22  1  0
 18 23  1  0
 18 24  1  0
 18 25  1  0
 19 26  1  0
 20 27  2  0
 21 27  1  0
 22 28  2  0
 22 29  1  0
 28 30  1  0
 29 31  1  0
 26 32  1  0
 28 33  1  0
 29 34  2  0
 30 35  1  0
 32 36  1  0
 33 37  2  0
 34 37  1  0
 36 38  2  0
 36 39  1  0
 39 40  1  0
 40 41  1  0
 40 42  1  0
 41 43  1  0
 42 44  1  0
 43 45  1  0
 44 45  1  0
M  END
