x2703-x3115
     RDKit          3D

 34 36  0  0  0  0  0  0  0  0999 V2000
    6.8780   -1.5590   21.8490 N   0  0  0  0  0  0  0  0  0  0  0  0
    6.0560   -2.7900   21.6050 C   0  0  0  0  0  0  0  0  0  0  0  0
    4.8030   -3.0070   21.2660 O   0  0  0  0  0  0  0  0  0  0  0  0
    6.4480   -0.2150   21.7430 C   0  0  1  0  0  0  0  0  0  0  0  0
    8.1850   -1.7080   22.4350 C   0  0  0  0  0  0  0  0  0  0  0  0
    6.7940   -4.0960   21.7650 C   0  0  0  0  0  0  0  0  0  0  0  0
    7.6430    0.7650   21.9470 C   0  0  0  0  0  0  0  0  0  0  0  0
    5.9000    0.2840   20.4090 C   0  0  0  0  0  0  0  0  0  0  0  0
    9.3160   -1.5310   21.6460 C   0  0  0  0  0  0  0  0  0  0  0  0
    8.3350   -2.0050   23.7850 C   0  0  0  0  0  0  0  0  0  0  0  0
    6.7330   -4.8050   20.4130 C   0  0  0  0  0  0  0  0  0  0  0  0
    7.6310    1.6630   23.1200 N   0  0  0  0  0  0  0  0  0  0  0  0
    8.5930    0.8690   21.1790 O   0  0  0  0  0  0  0  0  0  0  0  0
    4.7350    1.0370   20.2300 C   0  0  0  0  0  0  0  0  0  0  0  0
    6.6810   -0.0390   19.2890 C   0  0  0  0  0  0  0  0  0  0  0  0
   10.6110   -1.6330   22.1590 C   0  0  0  0  0  0  0  0  0  0  0  0
    9.6140   -2.1100   24.3390 C   0  0  0  0  0  0  0  0  0  0  0  0
    6.4010    0.3490   17.9140 N   0  0  0  0  0  0  0  0  0  0  0  0
    4.3720    1.4530   19.0160 C   0  0  0  0  0  0  0  0  0  0  0  0
   10.8180   -1.9420   23.6350 C   0  0  0  0  0  0  0  0  0  0  0  0
    8.2050    2.9490   23.0630 C   0  0  0  0  0  0  0  0  0  0  0  0
    7.5170    1.1880   24.5040 C   0  0  0  0  0  0  0  0  0  0  0  0
   12.1980   -2.0450   24.2320 C   0  0  0  0  0  0  0  0  0  0  0  0
    5.2570    1.0860   17.8370 C   0  0  0  0  0  0  0  0  0  0  0  0
    9.4800    3.2030   23.5960 C   0  0  0  0  0  0  0  0  0  0  0  0
    7.4940    4.0220   22.4680 C   0  0  0  0  0  0  0  0  0  0  0  0
    8.7920    0.8070   24.9150 C   0  0  0  0  0  0  0  0  0  0  0  0
   13.2760   -2.2540   23.2730 C   0  0  0  0  0  0  0  0  0  0  0  0
   12.1010   -3.2080   25.2080 C   0  0  0  0  0  0  0  0  0  0  0  0
   12.4910   -0.7570   25.0110 C   0  0  0  0  0  0  0  0  0  0  0  0
    6.1270    3.8880   21.8560 C   0  0  0  0  0  0  0  0  0  0  0  0
   10.0480    4.4790   23.5540 C   0  0  0  0  0  0  0  0  0  0  0  0
    8.0750    5.2940   22.4330 C   0  0  0  0  0  0  0  0  0  0  0  0
    9.3410    5.5260   22.9720 C   0  0  0  0  0  0  0  0  0  0  0  0
  1  2  1  0
  2  3  2  0
  1  4  1  0
  1  5  1  0
  2  6  1  0
  4  7  1  6
  4  8  1  0
  5  9  2  0
  5 10  1  0
  6 11  1  0
  7 12  1  0
  7 13  2  0
  8 14  2  0
  8 15  1  0
  9 16  1  0
 10 17  2  0
 15 18  2  0
 14 19  1  0
 16 20  2  0
 17 20  1  0
 12 21  1  0
 12 22  1  0
 20 23  1  0
 18 24  1  0
 19 24  2  0
 21 25  2  0
 21 26  1  0
 22 27  1  0
 23 28  1  0
 23 29  1  0
 23 30  1  0
 26 31  1  0
 25 32  1  0
 26 33  2  0
 32 34  2  0
 33 34  1  0
M  END
