x2705-x1375
     RDKit          3D

 49 53  0  0  0  0  0  0  0  0999 V2000
    7.0680   -1.5370   21.6540 N   0  0  0  0  0  0  0  0  0  0  0  0
    6.2620   -2.8360   21.4100 C   0  0  0  0  0  0  0  0  0  0  0  0
    4.9410   -3.1060   21.1350 O   0  0  0  0  0  0  0  0  0  0  0  0
    6.6470   -0.0740   21.5180 C   0  0  1  0  0  0  0  0  0  0  0  0
    8.3280   -1.4470   22.4360 C   0  0  0  0  0  0  0  0  0  0  0  0
    7.0480   -4.1510   21.5020 C   0  0  1  0  0  0  0  0  0  0  0  0
    7.6640    0.8750   21.8710 C   0  0  0  0  0  0  0  0  0  0  0  0
    6.1140    0.3710   20.2080 C   0  0  0  0  0  0  0  0  0  0  0  0
    8.4180   -1.0820   23.7360 N   0  0  0  0  0  0  0  0  0  0  0  0
    9.6670   -1.6530   22.1050 C   0  0  0  0  0  0  0  0  0  0  0  0
    8.3780   -4.3160   20.7900 C   0  0  0  0  0  0  0  0  0  0  0  0
    7.3130    1.9440   22.7060 N   0  0  0  0  0  0  0  0  0  0  0  0
    8.8000    0.7780   21.4060 O   0  0  0  0  0  0  0  0  0  0  0  0
    4.9510    1.1470   20.1820 C   0  0  0  0  0  0  0  0  0  0  0  0
    6.8100    0.0370   18.8860 C   0  0  0  0  0  0  0  0  0  0  0  0
    9.7450   -1.0840   24.1030 N   0  0  0  0  0  0  0  0  0  0  0  0
   10.6120   -1.4370   23.1020 C   0  0  0  0  0  0  0  0  0  0  0  0
    7.7680   -4.3730   22.8510 C   0  0  0  0  0  0  0  0  0  0  0  0
   12.1290   -1.4960   23.2670 C   0  0  0  0  0  0  0  0  0  0  0  0
    6.3850    0.4570   17.6850 N   0  0  0  0  0  0  0  0  0  0  0  0
    4.4530    1.6330   18.8060 C   0  0  0  0  0  0  0  0  0  0  0  0
    8.0490    3.1760   22.8730 C   0  0  0  0  0  0  0  0  0  0  0  0
    8.0940   -3.4400   23.7770 C   0  0  0  0  0  0  0  0  0  0  0  0
    8.2480   -5.6710   23.1820 C   0  0  0  0  0  0  0  0  0  0  0  0
   12.6410   -0.1500   23.8180 C   0  0  0  0  0  0  0  0  0  0  0  0
   12.5530   -2.6030   24.2510 C   0  0  0  0  0  0  0  0  0  0  0  0
   12.8380   -1.7220   21.9240 C   0  0  0  0  0  0  0  0  0  0  0  0
    5.1650    1.2810   17.7250 C   0  0  0  0  0  0  0  0  0  0  0  0
    9.3430    3.2270   23.4910 C   0  0  0  0  0  0  0  0  0  0  0  0
    7.4370    4.3630   22.3990 C   0  0  0  0  0  0  0  0  0  0  0  0
    8.7690   -3.3770   24.9810 C   0  0  0  0  0  0  0  0  0  0  0  0
    9.1070   -5.8540   24.5270 C   0  0  0  0  0  0  0  0  0  0  0  0
    8.4810   -4.6960   24.3320 C   0  0  0  0  0  0  0  0  0  0  0  0
   10.0660    2.0210   24.0220 C   0  0  0  0  0  0  0  0  0  0  0  0
    6.0780    4.3520   21.7420 C   0  0  0  0  0  0  0  0  0  0  0  0
   10.0670    4.5670   23.6420 C   0  0  0  0  0  0  0  0  0  0  0  0
    8.0590    5.6160   22.5130 C   0  0  0  0  0  0  0  0  0  0  0  0
    9.4040   -4.7920   25.4590 C   0  0  0  0  0  0  0  0  0  0  0  0
    7.1940   -4.9910   25.3080 C   0  0  0  0  0  0  0  0  0  0  0  0
    9.2690    1.4030   24.9940 C   0  0  0  0  0  0  0  0  0  0  0  0
   10.1390   -5.0150   26.5610 F   0  0  0  0  0  0  0  0  0  0  0  0
    9.4370    5.7060   23.1670 C   0  0  0  0  0  0  0  0  0  0  0  0
    5.9620   -5.5050   24.7840 C   0  0  0  0  0  0  0  0  0  0  0  0
    5.5010   -5.4300   23.3040 C   0  0  0  0  0  0  0  0  0  0  0  0
    4.9670   -6.1920   25.5620 C   0  0  0  0  0  0  0  0  0  0  0  0
    4.0630   -5.9580   22.9760 C   0  0  0  0  0  0  0  0  0  0  0  0
    3.6510   -6.7820   24.4700 S   0  0  0  0  0  0  0  0  0  0  0  0
    2.3640   -6.3120   24.9080 O   0  0  0  0  0  0  0  0  0  0  0  0
    3.9130   -8.1730   24.3000 O   0  0  0  0  0  0  0  0  0  0  0  0
  1  2  1  0
  2  3  2  0
  1  4  1  0
  1  5  1  0
  2  6  1  0
  4  7  1  6
  4  8  1  0
  5  9  2  0
  5 10  1  0
  6 11  1  6
  7 12  1  0
  7 13  2  0
  8 14  2  0
  8 15  1  0
  9 16  1  0
 10 17  2  0
 16 17  1  0
  6 18  1  0
 17 19  1  0
 15 20  2  0
 14 21  1  0
 12 22  1  0
 18 23  1  0
 18 24  2  0
 19 25  1  0
 19 26  1  0
 19 27  1  0
 20 28  1  0
 21 28  2  0
 22 29  2  0
 22 30  1  0
 23 31  2  0
 24 32  1  0
 23 33  1  0
 29 34  1  0
 30 35  1  0
 29 36  1  0
 30 37  2  0
 31 38  1  0
 32 38  2  0
 33 39  1  0
 34 40  1  0
 38 41  1  0
 36 42  2  0
 37 42  1  0
 39 43  1  0
 43 44  1  0
 43 45  2  0
 44 46  1  0
 45 47  1  0
 46 47  1  0
 47 48  1  0
 47 49  1  0
M  END
