x2703-x1458
     RDKit          3D

 46 50  0  0  0  0  0  0  0  0999 V2000
    6.8850   -1.6300   21.8780 C   0  0  1  0  0  0  0  0  0  0  0  0
    5.9890   -2.9040   21.3130 C   0  0  0  0  0  0  0  0  0  0  0  0
    4.8670   -2.9790   20.6970 O   0  0  0  0  0  0  0  0  0  0  0  0
    6.4330   -0.1840   21.5560 C   0  0  1  0  0  0  0  0  0  0  0  0
    6.3470   -2.2610   23.1170 C   0  0  0  0  0  0  0  0  0  0  0  0
    8.3780   -1.7030   22.4000 C   0  0  0  0  0  0  0  0  0  0  0  0
    7.6110    0.7930   21.8040 C   0  0  0  0  0  0  0  0  0  0  0  0
    5.9560    0.3020   20.2460 C   0  0  0  0  0  0  0  0  0  0  0  0
    8.6950   -1.3350   23.7060 C   0  0  0  0  0  0  0  0  0  0  0  0
    9.4410   -2.1150   21.6490 C   0  0  0  0  0  0  0  0  0  0  0  0
    6.5250   -4.2400   21.7390 C   0  0  2  0  0  0  0  0  0  0  0  0
    7.2090   -3.5190   22.8730 C   0  0  2  0  0  0  0  0  0  0  0  0
    7.6680   -4.8770   20.9900 C   0  0  0  0  0  0  0  0  0  0  0  0
    7.3010    1.9120   22.7150 N   0  0  0  0  0  0  0  0  0  0  0  0
    8.7050    0.6660   21.2730 O   0  0  0  0  0  0  0  0  0  0  0  0
    4.7890    1.0750   20.1490 C   0  0  0  0  0  0  0  0  0  0  0  0
    6.7510   -0.0400   19.1140 C   0  0  0  0  0  0  0  0  0  0  0  0
   10.7340   -2.1790   22.0530 N   0  0  0  0  0  0  0  0  0  0  0  0
   10.0000   -1.3760   24.1960 C   0  0  0  0  0  0  0  0  0  0  0  0
    7.3630   -4.2700   23.8830 C   0  0  0  0  0  0  0  0  0  0  0  0
    5.4960   -5.3010   22.1850 C   0  0  0  0  0  0  0  0  0  0  0  0
    6.3450    0.4430   17.8040 N   0  0  0  0  0  0  0  0  0  0  0  0
    4.4320    1.5150   18.8980 C   0  0  0  0  0  0  0  0  0  0  0  0
   11.0700   -1.7870   23.4090 C   0  0  0  0  0  0  0  0  0  0  0  0
    7.9770    3.1800   22.8440 C   0  0  0  0  0  0  0  0  0  0  0  0
    6.2560   -4.7810   24.4760 C   0  0  2  0  0  0  0  0  0  0  0  0
    5.1150   -5.1660   23.5140 C   0  0  0  0  0  0  0  0  0  0  0  0
   12.5380   -1.8330   23.8640 C   0  0  0  0  0  0  0  0  0  0  0  0
    5.7890   -3.8390   25.5770 C   0  0  0  0  0  0  0  0  0  0  0  0
    5.1820    1.2130   17.7940 C   0  0  0  0  0  0  0  0  0  0  0  0
    9.2380    3.1660   23.4650 C   0  0  0  0  0  0  0  0  0  0  0  0
    7.4110    4.3700   22.3740 C   0  0  0  0  0  0  0  0  0  0  0  0
    9.9060    1.9290   23.9950 C   0  0  0  0  0  0  0  0  0  0  0  0
    6.0750    4.3930   21.7120 C   0  0  0  0  0  0  0  0  0  0  0  0
   12.8600   -2.9320   24.8860 C   0  0  0  0  0  0  0  0  0  0  0  0
   12.7290   -0.5390   24.5400 C   0  0  0  0  0  0  0  0  0  0  0  0
    6.4290   -3.8650   26.7570 N   0  0  0  0  0  0  0  0  0  0  0  0
    4.6840   -2.9680   25.3380 O   0  0  0  0  0  0  0  0  0  0  0  0
    9.9290    4.3870   23.6080 C   0  0  0  0  0  0  0  0  0  0  0  0
    8.1090    5.5690   22.5250 C   0  0  0  0  0  0  0  0  0  0  0  0
    9.0610    1.3020   25.0030 C   0  0  0  0  0  0  0  0  0  0  0  0
    6.6020   -5.0070   27.4950 C   0  0  0  0  0  0  0  0  0  0  0  0
    6.6000   -2.5410   27.3890 C   0  0  0  0  0  0  0  0  0  0  0  0
    9.3450    5.5550   23.1350 C   0  0  0  0  0  0  0  0  0  0  0  0
    7.2960   -4.8750   28.6250 C   0  0  0  0  0  0  0  0  0  0  0  0
    5.3630   -5.8390   27.7300 C   0  0  0  0  0  0  0  0  0  0  0  0
  1  2  1  0
  2  3  2  0
  1  4  1  0
  1  5  1  0
  1  6  1  1
  4  7  1  6
  4  8  1  0
  6  9  2  0
  6 10  1  0
  2 11  1  0
 12  5  1  1
 11 12  1  0
 11 13  1  6
  7 14  1  0
  7 15  2  0
  8 16  2  0
  8 17  1  0
 10 18  2  0
  9 19  1  0
 12 20  1  0
 11 21  1  0
 17 22  2  0
 16 23  1  0
 18 24  1  0
 19 24  2  0
 14 25  1  0
 20 26  1  0
 21 27  1  0
 26 27  1  0
 24 28  1  0
 26 29  1  1
 22 30  1  0
 23 30  2  0
 25 31  2  0
 25 32  1  0
 31 33  1  0
 32 34  1  0
 28 35  1  0
 28 36  1  0
 29 37  1  0
 29 38  2  0
 31 39  1  0
 32 40  2  0
 33 41  1  0
 37 42  1  0
 37 43  1  0
 39 44  2  0
 40 44  1  0
 42 45  1  0
 42 46  1  0
M  END
