x2705-x1458-x3115-x3124
     RDKit          3D

 47 51  0  0  0  0  0  0  0  0999 V2000
    6.9680   -1.4710   21.8070 C   0  0  1  0  0  0  0  0  0  0  0  0
    6.0800   -2.8060   21.2870 C   0  0  0  0  0  0  0  0  0  0  0  0
    4.8830   -2.9790   20.7590 O   0  0  0  0  0  0  0  0  0  0  0  0
    6.5950    0.0250   21.6270 C   0  0  1  0  0  0  0  0  0  0  0  0
    6.4570   -2.1330   23.0630 C   0  0  0  0  0  0  0  0  0  0  0  0
    8.4240   -1.4200   22.4840 C   0  0  0  0  0  0  0  0  0  0  0  0
    7.5880    1.0710   21.7770 C   0  0  0  0  0  0  0  0  0  0  0  0
    6.0240    0.4140   20.3010 C   0  0  0  0  0  0  0  0  0  0  0  0
    8.5700   -0.9910   23.7890 N   0  0  0  0  0  0  0  0  0  0  0  0
    9.7900   -1.7690   21.9030 C   0  0  0  0  0  0  0  0  0  0  0  0
    6.7340   -4.0430   21.6770 C   0  0  2  0  0  0  0  0  0  0  0  0
    7.3020   -3.4510   22.9080 C   0  0  2  0  0  0  0  0  0  0  0  0
    7.9470   -4.5100   20.9450 C   0  0  0  0  0  0  0  0  0  0  0  0
    7.3500    2.0700   22.8540 N   0  0  0  0  0  0  0  0  0  0  0  0
    8.5740    1.1740   21.0280 O   0  0  0  0  0  0  0  0  0  0  0  0
    4.8430    1.1440   20.1880 C   0  0  0  0  0  0  0  0  0  0  0  0
    6.7320    0.0490   19.1240 C   0  0  0  0  0  0  0  0  0  0  0  0
    9.9570   -1.0070   24.1220 N   0  0  0  0  0  0  0  0  0  0  0  0
   10.7380   -1.4530   23.0160 C   0  0  0  0  0  0  0  0  0  0  0  0
    7.2530   -4.2200   23.9400 C   0  0  0  0  0  0  0  0  0  0  0  0
    5.6770   -5.1180   22.0230 C   0  0  0  0  0  0  0  0  0  0  0  0
   12.2580   -1.5130   23.1530 C   0  0  0  0  0  0  0  0  0  0  0  0
    6.3720    0.3560   17.8660 N   0  0  0  0  0  0  0  0  0  0  0  0
    4.4050    1.5120   18.7990 C   0  0  0  0  0  0  0  0  0  0  0  0
    8.0840    3.3170   22.9430 C   0  0  0  0  0  0  0  0  0  0  0  0
    6.0460   -4.7310   24.3250 C   0  0  2  0  0  0  0  0  0  0  0  0
    5.1220   -4.9010   23.2900 C   0  0  0  0  0  0  0  0  0  0  0  0
   12.7050   -0.2130   23.8340 C   0  0  0  0  0  0  0  0  0  0  0  0
   12.5700   -2.7780   23.8950 C   0  0  0  0  0  0  0  0  0  0  0  0
   12.7810   -1.7750   21.7800 C   0  0  0  0  0  0  0  0  0  0  0  0
    5.5950   -3.8300   25.4860 C   0  0  0  0  0  0  0  0  0  0  0  0
    5.1920    1.1010   17.7710 C   0  0  0  0  0  0  0  0  0  0  0  0
    9.3790    3.3240   23.4980 C   0  0  0  0  0  0  0  0  0  0  0  0
    7.4670    4.4810   22.4680 C   0  0  0  0  0  0  0  0  0  0  0  0
   10.0640    2.0290   24.0120 C   0  0  0  0  0  0  0  0  0  0  0  0
    6.0590    4.4000   21.8670 C   0  0  0  0  0  0  0  0  0  0  0  0
   13.3210   -2.6540   25.1690 C   0  0  0  0  0  0  0  0  0  0  0  0
    6.5240   -3.7130   26.6160 N   0  0  0  0  0  0  0  0  0  0  0  0
    4.5210   -3.2300   25.4830 O   0  0  0  0  0  0  0  0  0  0  0  0
   10.1540    4.4920   23.6290 C   0  0  0  0  0  0  0  0  0  0  0  0
    8.2060    5.8080   22.5570 C   0  0  0  0  0  0  0  0  0  0  0  0
    9.0860    1.5550   24.9620 C   0  0  0  0  0  0  0  0  0  0  0  0
    6.3830   -4.7540   27.6610 C   0  0  0  0  0  0  0  0  0  0  0  0
    6.6500   -2.2920   27.0170 C   0  0  0  0  0  0  0  0  0  0  0  0
    9.6190    5.8460   23.1640 C   0  0  0  0  0  0  0  0  0  0  0  0
    7.4350   -4.9180   28.7340 C   0  0  0  0  0  0  0  0  0  0  0  0
    6.1300   -5.9350   26.9970 C   0  0  0  0  0  0  0  0  0  0  0  0
  1  2  1  0
  2  3  2  0
  1  4  1  0
  1  5  1  0
  1  6  1  1
  4  7  1  6
  4  8  1  0
  6  9  2  0
  6 10  1  0
  2 11  1  0
 12  5  1  1
 11 12  1  0
 11 13  1  6
  7 14  1  0
  7 15  2  0
  8 16  2  0
  8 17  1  0
  9 18  1  0
 10 19  2  0
 18 19  1  0
 12 20  1  0
 11 21  1  0
 19 22  1  0
 17 23  2  0
 16 24  1  0
 14 25  1  0
 20 26  1  0
 21 27  1  0
 26 27  1  0
 22 28  1  0
 22 29  1  0
 22 30  1  0
 26 31  1  1
 23 32  1  0
 24 32  2  0
 25 33  2  0
 25 34  1  0
 33 35  1  0
 34 36  1  0
 29 37  1  0
 31 38  1  0
 31 39  2  0
 33 40  1  0
 34 41  2  0
 35 42  1  0
 38 43  1  0
 38 44  1  0
 40 45  2  0
 41 45  1  0
 43 46  1  0
 43 47  1  0
M  END
