x2705-x1425-x3115
     RDKit          3D

 48 53  0  0  0  0  0  0  0  0999 V2000
    7.0530   -1.5060   21.8170 C   0  0  1  0  0  0  0  0  0  0  0  0
    6.1380   -2.8780   21.3290 C   0  0  0  0  0  0  0  0  0  0  0  0
    4.9480   -3.0610   20.7740 O   0  0  0  0  0  0  0  0  0  0  0  0
    6.5820   -0.1000   21.5890 C   0  0  1  0  0  0  0  0  0  0  0  0
    6.5010   -2.1170   23.0590 C   0  0  0  0  0  0  0  0  0  0  0  0
    8.4530   -1.5360   22.5040 C   0  0  0  0  0  0  0  0  0  0  0  0
    7.6990    1.0170   21.7550 C   0  0  0  0  0  0  0  0  0  0  0  0
    6.1430    0.3390   20.2340 C   0  0  0  0  0  0  0  0  0  0  0  0
    8.6980   -1.5860   24.0280 N   0  0  0  0  0  0  0  0  0  0  0  0
    9.7510   -1.5000   22.0080 C   0  0  0  0  0  0  0  0  0  0  0  0
    6.8070   -4.0910   21.7800 C   0  0  2  0  0  0  0  0  0  0  0  0
    7.2590   -3.5040   23.0870 C   0  0  2  0  0  0  0  0  0  0  0  0
    8.0090   -4.5570   20.9980 C   0  0  0  0  0  0  0  0  0  0  0  0
    7.4520    1.9930   22.8400 N   0  0  0  0  0  0  0  0  0  0  0  0
    8.6930    1.1370   21.0360 O   0  0  0  0  0  0  0  0  0  0  0  0
    4.9350    1.2190   20.0740 C   0  0  0  0  0  0  0  0  0  0  0  0
    6.8460   -0.0300   19.0940 C   0  0  0  0  0  0  0  0  0  0  0  0
   10.0700   -1.5780   24.2520 N   0  0  0  0  0  0  0  0  0  0  0  0
   10.6940   -1.5250   23.0550 C   0  0  0  0  0  0  0  0  0  0  0  0
    6.8780   -4.1790   24.1770 C   0  0  0  0  0  0  0  0  0  0  0  0
    5.8290   -5.2770   21.9890 C   0  0  0  0  0  0  0  0  0  0  0  0
   12.2470   -1.4930   22.9570 C   0  0  0  0  0  0  0  0  0  0  0  0
    6.3580    0.4950   17.8080 N   0  0  0  0  0  0  0  0  0  0  0  0
    4.5030    1.6890   18.8630 C   0  0  0  0  0  0  0  0  0  0  0  0
    8.1500    3.2600   22.9250 C   0  0  0  0  0  0  0  0  0  0  0  0
    5.4680   -4.2120   24.0030 N   0  0  0  0  0  0  0  0  0  0  0  0
    4.9530   -5.2410   23.0950 C   0  0  0  0  0  0  0  0  0  0  0  0
   12.7770   -0.1150   23.4060 C   0  0  0  0  0  0  0  0  0  0  0  0
   12.9080   -2.6150   23.7700 C   0  0  0  0  0  0  0  0  0  0  0  0
   12.7590   -1.7720   21.5380 C   0  0  0  0  0  0  0  0  0  0  0  0
    5.1710    1.3730   17.7050 C   0  0  0  0  0  0  0  0  0  0  0  0
    9.5020    3.2760   23.4530 C   0  0  0  0  0  0  0  0  0  0  0  0
    7.5480    4.4770   22.5070 C   0  0  0  0  0  0  0  0  0  0  0  0
    4.6830   -3.6510   25.0900 C   0  0  0  0  0  0  0  0  0  0  0  0
   10.1760    2.0880   23.8800 C   0  0  0  0  0  0  0  0  0  0  0  0
    6.1010    4.3810   21.9390 C   0  0  0  0  0  0  0  0  0  0  0  0
   12.9880   -2.3310   25.2510 C   0  0  0  0  0  0  0  0  0  0  0  0
   10.1750    4.5050   23.5430 C   0  0  0  0  0  0  0  0  0  0  0  0
    8.2540    5.8380   22.5910 C   0  0  0  0  0  0  0  0  0  0  0  0
    5.2230   -2.6180   26.0550 C   0  0  0  0  0  0  0  0  0  0  0  0
    3.2560   -4.1000   25.3010 C   0  0  0  0  0  0  0  0  0  0  0  0
    9.3020    1.2510   24.7150 C   0  0  0  0  0  0  0  0  0  0  0  0
    9.5260    5.8370   23.0960 C   0  0  0  0  0  0  0  0  0  0  0  0
    4.4200   -2.1360   27.0750 C   0  0  0  0  0  0  0  0  0  0  0  0
    2.4940   -3.4740   26.4760 C   0  0  0  0  0  0  0  0  0  0  0  0
    3.0980   -2.5220   27.3170 C   0  0  0  0  0  0  0  0  0  0  0  0
    2.4820   -1.9050   28.4140 O   0  0  0  0  0  0  0  0  0  0  0  0
    1.1090   -2.2180   28.6040 C   0  0  0  0  0  0  0  0  0  0  0  0
  1  2  1  0
  2  3  2  0
  1  4  1  0
  1  5  1  0
  1  6  1  1
  4  7  1  6
  4  8  1  0
  6  9  2  0
  6 10  1  0
  2 11  1  0
 12  5  1  1
 11 12  1  0
 11 13  1  6
  7 14  1  0
  7 15  2  0
  8 16  2  0
  8 17  1  0
  9 18  1  0
 10 19  2  0
 18 19  1  0
 12 20  1  0
 11 21  1  0
 19 22  1  0
 17 23  2  0
 16 24  1  0
 14 25  1  0
 20 26  1  0
 21 27  1  0
 26 27  1  0
 22 28  1  0
 22 29  1  0
 22 30  1  0
 23 31  1  0
 24 31  2  0
 25 32  2  0
 25 33  1  0
 26 34  1  0
 32 35  1  0
 33 36  1  0
 29 37  1  0
 32 38  1  0
 33 39  2  0
 34 40  2  0
 34 41  1  0
 35 42  1  0
 38 43  2  0
 39 43  1  0
 40 44  1  0
 41 45  2  0
 44 46  2  0
 45 46  1  0
 46 47  1  0
 47 48  1  0
M  END
