x2705-x0731
     RDKit          3D

 51 56  0  0  0  0  0  0  0  0999 V2000
    6.8160   -1.3350   22.0200 C   0  0  1  0  0  0  0  0  0  0  0  0
    5.6590   -2.2780   21.3750 C   0  0  0  0  0  0  0  0  0  0  0  0
    4.9050   -3.0350   20.6550 O   0  0  0  0  0  0  0  0  0  0  0  0
    6.6200    0.1880   21.7100 C   0  0  1  0  0  0  0  0  0  0  0  0
    6.0270   -1.9800   23.1900 C   0  0  0  0  0  0  0  0  0  0  0  0
    8.3320   -1.4840   22.5890 C   0  0  0  0  0  0  0  0  0  0  0  0
    6.4810   -2.4050   20.1980 C   0  0  0  0  0  0  0  0  0  0  0  0
    7.7180    1.0400   21.9290 C   0  0  0  0  0  0  0  0  0  0  0  0
    5.6740   -3.3240   22.8000 C   0  0  0  0  0  0  0  0  0  0  0  0
    6.1010    0.5540   20.3500 C   0  0  0  0  0  0  0  0  0  0  0  0
    8.4690   -1.7710   23.9010 N   0  0  0  0  0  0  0  0  0  0  0  0
    9.6190   -1.3370   22.0430 C   0  0  0  0  0  0  0  0  0  0  0  0
    6.7550   -3.8470   20.2190 C   0  0  0  0  0  0  0  0  0  0  0  0
    7.4830    2.1010   22.9200 N   0  0  0  0  0  0  0  0  0  0  0  0
    8.7760    0.9430   21.3180 O   0  0  0  0  0  0  0  0  0  0  0  0
    4.9260    1.2800   20.2420 C   0  0  0  0  0  0  0  0  0  0  0  0
    6.7820    0.1980   19.0110 C   0  0  0  0  0  0  0  0  0  0  0  0
    9.8000   -1.7800   24.1440 N   0  0  0  0  0  0  0  0  0  0  0  0
   10.5940   -1.5150   23.0560 C   0  0  0  0  0  0  0  0  0  0  0  0
    6.5560   -4.3270   21.7750 C   0  0  0  0  0  0  0  0  0  0  0  0
   12.1230   -1.4670   23.1720 C   0  0  0  0  0  0  0  0  0  0  0  0
    6.3330    0.5450   17.8050 N   0  0  0  0  0  0  0  0  0  0  0  0
    4.4610    1.6460   18.8550 C   0  0  0  0  0  0  0  0  0  0  0  0
    8.1710    3.3420   22.9820 C   0  0  0  0  0  0  0  0  0  0  0  0
    7.8140   -4.6800   22.5600 C   0  0  0  0  0  0  0  0  0  0  0  0
    5.8180   -5.7160   21.7080 C   0  0  0  0  0  0  0  0  0  0  0  0
   12.5620   -0.2080   23.6350 C   0  0  0  0  0  0  0  0  0  0  0  0
   12.6020   -2.5270   24.1920 C   0  0  0  0  0  0  0  0  0  0  0  0
   12.8230   -1.7270   21.8310 C   0  0  0  0  0  0  0  0  0  0  0  0
    5.2070    1.2520   17.7510 C   0  0  0  0  0  0  0  0  0  0  0  0
    9.4890    3.3250   23.5180 C   0  0  0  0  0  0  0  0  0  0  0  0
    7.5860    4.5500   22.5340 C   0  0  0  0  0  0  0  0  0  0  0  0
    7.4350   -4.9820   24.0080 C   0  0  0  0  0  0  0  0  0  0  0  0
    5.4070   -6.2540   23.0710 C   0  0  0  0  0  0  0  0  0  0  0  0
   10.1760    2.0660   24.0030 C   0  0  0  0  0  0  0  0  0  0  0  0
    6.1960    4.6300   21.9440 C   0  0  0  0  0  0  0  0  0  0  0  0
   10.2800    4.6540   23.6150 C   0  0  0  0  0  0  0  0  0  0  0  0
    8.2620    5.7730   22.6030 C   0  0  0  0  0  0  0  0  0  0  0  0
    6.0170   -5.4700   24.1740 N   0  0  0  0  0  0  0  0  0  0  0  0
    9.3210    1.3120   24.8300 C   0  0  0  0  0  0  0  0  0  0  0  0
    5.2370   -5.5190   25.7130 S   0  0  0  0  0  0  0  0  0  0  0  0
    9.6900    5.8390   23.1760 C   0  0  0  0  0  0  0  0  0  0  0  0
    6.1100   -5.1140   26.7750 O   0  0  0  0  0  0  0  0  0  0  0  0
    4.5420   -6.7780   25.7720 O   0  0  0  0  0  0  0  0  0  0  0  0
    4.0110   -4.2380   25.7440 C   0  0  0  0  0  0  0  0  0  0  0  0
    2.7260   -4.4190   25.2460 C   0  0  0  0  0  0  0  0  0  0  0  0
    4.3760   -2.8610   26.3720 C   0  0  0  0  0  0  0  0  0  0  0  0
    1.7180   -3.2820   25.3400 C   0  0  0  0  0  0  0  0  0  0  0  0
    3.4250   -1.8520   26.4360 C   0  0  0  0  0  0  0  0  0  0  0  0
    2.1280   -2.0610   25.9380 C   0  0  0  0  0  0  0  0  0  0  0  0
    1.1450   -0.9330   26.0590 C   0  0  0  0  0  0  0  0  0  0  0  0
  1  2  1  0
  2  3  2  0
  1  4  1  0
  1  5  1  0
  1  6  1  6
  2  7  1  0
  4  8  1  6
  5  9  1  0
  4 10  1  0
  6 11  2  0
  6 12  1  0
  7 13  1  0
  8 14  1  0
  8 15  2  0
 10 16  2  0
 10 17  1  0
 11 18  1  0
 12 19  2  0
 18 19  1  0
 20  9  1  0
 13 20  1  0
 19 21  1  0
 17 22  2  0
 16 23  1  0
 14 24  1  0
 20 25  1  0
 20 26  1  0
 21 27  1  0
 21 28  1  0
 21 29  1  0
 22 30  1  0
 23 30  2  0
 24 31  2  0
 24 32  1  0
 25 33  1  0
 26 34  1  0
 31 35  1  0
 32 36  1  0
 31 37  1  0
 32 38  2  0
 33 39  1  0
 34 39  1  0
 35 40  1  0
 39 41  1  0
 37 42  2  0
 38 42  1  0
 41 43  2  0
 41 44  2  0
 41 45  1  0
 45 46  2  0
 45 47  1  0
 46 48  1  0
 47 49  2  0
 48 50  2  0
 49 50  1  0
 50 51  1  0
M  END
