x2705-x2694-x2193-x1375-x1493
     RDKit          3D

 57 63  0  0  0  0  0  0  0  0999 V2000
    6.8730   -1.3820   21.9160 N   0  0  0  0  0  0  0  0  0  0  0  0
    6.1400   -2.6440   21.4880 C   0  0  0  0  0  0  0  0  0  0  0  0
    4.8460   -3.0330   21.2630 O   0  0  0  0  0  0  0  0  0  0  0  0
    6.5700    0.0720   21.6040 C   0  0  1  0  0  0  0  0  0  0  0  0
    8.1430   -1.4180   22.6520 C   0  0  0  0  0  0  0  0  0  0  0  0
    7.1430   -3.7100   21.2680 C   0  0  2  0  0  0  0  0  0  0  0  0
    7.6440    0.9800   21.8480 C   0  0  0  0  0  0  0  0  0  0  0  0
    6.1080    0.4400   20.2260 C   0  0  0  0  0  0  0  0  0  0  0  0
    8.2960   -1.4120   24.0050 N   0  0  0  0  0  0  0  0  0  0  0  0
    9.5760   -1.4340   22.0900 C   0  0  0  0  0  0  0  0  0  0  0  0
    6.9230   -4.2740   19.8700 C   0  0  0  0  0  0  0  0  0  0  0  0
    7.3950    2.0280   22.7340 N   0  0  0  0  0  0  0  0  0  0  0  0
    8.7230    0.8620   21.2740 O   0  0  0  0  0  0  0  0  0  0  0  0
    4.9770    1.2680   20.0850 C   0  0  0  0  0  0  0  0  0  0  0  0
    6.8150   -0.0220   19.0880 C   0  0  0  0  0  0  0  0  0  0  0  0
    9.6310   -1.4130   24.3740 N   0  0  0  0  0  0  0  0  0  0  0  0
   10.5370   -1.4260   23.2790 C   0  0  0  0  0  0  0  0  0  0  0  0
    7.0960   -4.7510   22.4260 C   0  0  1  0  0  0  0  0  0  0  0  0
   12.0700   -1.4210   23.4360 C   0  0  0  0  0  0  0  0  0  0  0  0
    6.3850    0.3650   17.8740 N   0  0  0  0  0  0  0  0  0  0  0  0
    4.5410    1.6590   18.8410 C   0  0  0  0  0  0  0  0  0  0  0  0
    8.1340    3.2480   22.9260 C   0  0  0  0  0  0  0  0  0  0  0  0
    6.4140   -4.3580   23.6060 C   0  0  0  0  0  0  0  0  0  0  0  0
    6.5990   -6.0580   22.0390 N   0  0  0  0  0  0  0  0  0  0  0  0
   12.5380   -0.1900   24.2150 C   0  0  0  0  0  0  0  0  0  0  0  0
   12.5720   -2.6420   24.2260 C   0  0  0  0  0  0  0  0  0  0  0  0
   12.7960   -1.3800   22.0840 C   0  0  0  0  0  0  0  0  0  0  0  0
    5.2100    1.2440   17.7200 C   0  0  0  0  0  0  0  0  0  0  0  0
    9.3960    3.1860   23.5220 C   0  0  0  0  0  0  0  0  0  0  0  0
    7.6340    4.6440   22.5230 C   0  0  0  0  0  0  0  0  0  0  0  0
    5.4240   -5.4120   23.9550 N   0  0  0  0  0  0  0  0  0  0  0  0
    5.1500   -5.9820   21.7380 C   0  0  0  0  0  0  0  0  0  0  0  0
   10.0390    1.8990   23.9720 C   0  0  0  0  0  0  0  0  0  0  0  0
    6.3010    4.8900   21.8590 C   0  0  0  0  0  0  0  0  0  0  0  0
    5.6060   -6.1930   25.2460 C   0  0  0  0  0  0  0  0  0  0  0  0
   10.1570    4.3480   23.7470 C   0  0  0  0  0  0  0  0  0  0  0  0
    8.4460    5.7730   22.7770 C   0  0  0  0  0  0  0  0  0  0  0  0
    4.4010   -5.5840   22.8550 C   0  0  1  0  0  0  0  0  0  0  0  0
    9.2420    1.3250   24.9750 C   0  0  0  0  0  0  0  0  0  0  0  0
    4.6970   -6.9360   25.6890 O   0  0  0  0  0  0  0  0  0  0  0  0
    6.8850   -6.1140   25.9580 N   0  0  0  0  0  0  0  0  0  0  0  0
    9.7110    5.6270   23.3960 C   0  0  0  0  0  0  0  0  0  0  0  0
    2.9980   -6.4310   23.0010 C   0  0  2  0  0  0  0  0  0  0  0  0
   10.5430    6.6990   23.6780 O   0  0  0  0  0  0  0  0  0  0  0  0
    8.0880   -5.5350   25.8220 N   0  0  0  0  0  0  0  0  0  0  0  0
    1.6510   -5.7860   22.9830 C   0  0  0  0  0  0  0  0  0  0  0  0
    3.3530   -6.5800   24.6680 S   0  0  0  0  0  0  0  0  0  0  0  0
   11.6450    6.6030   24.5950 C   0  0  0  0  0  0  0  0  0  0  0  0
    4.5140   -7.3120   24.2660 O   0  0  0  0  0  0  0  0  0  0  0  0
    8.8910   -5.1210   26.9540 C   0  0  0  0  0  0  0  0  0  0  0  0
    8.9180   -5.9240   24.6380 C   0  0  0  0  0  0  0  0  0  0  0  0
    2.1960   -5.7890   25.5730 C   0  0  0  0  0  0  0  0  0  0  0  0
    1.4770   -5.5730   24.2410 C   0  0  0  0  0  0  0  0  0  0  0  0
    9.8140   -4.1140   26.3340 C   0  0  1  0  0  0  0  0  0  0  0  0
    9.5910   -4.7590   24.2390 C   0  0  0  0  0  0  0  0  0  0  0  0
   11.0680   -4.5580   26.2470 F   0  0  0  0  0  0  0  0  0  0  0  0
    9.4010   -3.7220   25.0490 N   0  0  0  0  0  0  0  0  0  0  0  0
  1  2  1  0
  2  3  2  0
  1  4  1  0
  1  5  1  0
  2  6  1  0
  4  7  1  6
  4  8  1  0
  5  9  2  0
  5 10  1  0
  6 11  1  6
  7 12  1  0
  7 13  2  0
  8 14  2  0
  8 15  1  0
  9 16  1  0
 10 17  2  0
 16 17  1  0
  6 18  1  0
 17 19  1  0
 15 20  2  0
 14 21  1  0
 12 22  1  0
 18 23  1  1
 18 24  1  0
 19 25  1  0
 19 26  1  0
 19 27  1  0
 20 28  1  0
 21 28  2  0
 22 29  2  0
 22 30  1  0
 23 31  1  0
 24 32  1  0
 29 33  1  0
 30 34  1  0
 31 35  1  0
 29 36  1  0
 30 37  2  0
 31 38  1  0
 38 32  1  6
 33 39  1  0
 35 40  1  0
 35 41  2  3
 36 42  2  0
 37 42  1  0
 38 43  1  0
 42 44  1  0
 41 45  1  0
 43 46  1  1
 40 47  1  0
 43 47  1  0
 44 48  1  0
 47 49  1  0
 45 50  1  0
 45 51  1  0
 47 52  2  0
 46 53  2  0
 52 53  1  0
 50 54  1  0
 51 55  1  0
 54 56  1  6
 54 57  1  0
 55 57  1  0
M  END
