x2705-x1382
     RDKit          3D

 33 36  0  0  0  0  0  0  0  0999 V2000
    7.0620   -1.5810   21.6680 N   0  0  0  0  0  0  0  0  0  0  0  0
    6.1400   -2.7280   21.5590 C   0  0  0  0  0  0  0  0  0  0  0  0
    4.8840   -3.0700   21.2050 O   0  0  0  0  0  0  0  0  0  0  0  0
    6.7760   -0.0850   21.6040 C   0  0  1  0  0  0  0  0  0  0  0  0
    8.0820   -2.3850   22.3050 C   0  0  2  0  0  0  0  0  0  0  0  0
    7.1150   -3.6670   22.0110 C   0  0  2  0  0  0  0  0  0  0  0  0
    7.8200    0.7930   21.9780 C   0  0  0  0  0  0  0  0  0  0  0  0
    6.1640    0.3620   20.2850 C   0  0  0  0  0  0  0  0  0  0  0  0
    8.2040   -2.0800   23.6730 N   0  0  0  0  0  0  0  0  0  0  0  0
    9.5320   -2.3850   21.9180 C   0  0  0  0  0  0  0  0  0  0  0  0
    7.1180   -4.7160   20.8420 C   0  0  0  0  0  0  0  0  0  0  0  0
    7.4110    1.9320   22.6800 N   0  0  0  0  0  0  0  0  0  0  0  0
    8.9880    0.5730   21.6680 O   0  0  0  0  0  0  0  0  0  0  0  0
    4.9900    1.1250   20.3140 C   0  0  0  0  0  0  0  0  0  0  0  0
    6.8020    0.0110   19.1110 C   0  0  0  0  0  0  0  0  0  0  0  0
    9.4260   -1.5910   23.9540 N   0  0  0  0  0  0  0  0  0  0  0  0
   10.3470   -1.8790   22.9940 C   0  0  0  0  0  0  0  0  0  0  0  0
   11.8750   -1.6660   23.1990 C   0  0  0  0  0  0  0  0  0  0  0  0
    6.4030    0.3520   17.8810 N   0  0  0  0  0  0  0  0  0  0  0  0
    4.4510    1.5590   19.1010 C   0  0  0  0  0  0  0  0  0  0  0  0
    8.1330    3.1610   22.8610 C   0  0  0  0  0  0  0  0  0  0  0  0
   12.2460   -0.2370   23.6540 C   0  0  0  0  0  0  0  0  0  0  0  0
   12.4060   -2.6210   24.2890 C   0  0  0  0  0  0  0  0  0  0  0  0
   12.6830   -1.9370   21.9080 C   0  0  0  0  0  0  0  0  0  0  0  0
    5.1860    1.1690   17.8000 C   0  0  0  0  0  0  0  0  0  0  0  0
    9.4350    3.1960   23.4480 C   0  0  0  0  0  0  0  0  0  0  0  0
    7.4970    4.3550   22.4330 C   0  0  0  0  0  0  0  0  0  0  0  0
   10.1610    1.9590   23.9180 C   0  0  0  0  0  0  0  0  0  0  0  0
    6.1240    4.3520   21.8060 C   0  0  0  0  0  0  0  0  0  0  0  0
   10.1590    4.5370   23.6240 C   0  0  0  0  0  0  0  0  0  0  0  0
    8.1150    5.6050   22.5720 C   0  0  0  0  0  0  0  0  0  0  0  0
    9.3600    1.2550   24.8360 C   0  0  0  0  0  0  0  0  0  0  0  0
    9.5070    5.6860   23.1970 C   0  0  0  0  0  0  0  0  0  0  0  0
  1  2  1  0
  2  3  2  0
  1  4  1  0
  1  5  1  0
  2  6  1  0
  5  6  1  0
  4  7  1  6
  4  8  1  0
  5  9  1  0
  5 10  1  6
  6 11  1  6
  7 12  1  0
  7 13  2  0
  8 14  2  0
  8 15  1  0
  9 16  2  0
 10 17  2  0
 16 17  1  0
 17 18  1  0
 15 19  2  0
 14 20  1  0
 12 21  1  0
 18 22  1  0
 18 23  1  0
 18 24  1  0
 19 25  1  0
 20 25  2  0
 21 26  2  0
 21 27  1  0
 26 28  1  0
 27 29  1  0
 26 30  1  0
 27 31  2  0
 28 32  1  0
 30 33  2  0
 31 33  1  0
M  END
