x2703-x0769
     RDKit          3D

 50 55  0  0  0  0  0  0  0  0999 V2000
    6.7410   -1.5680   21.9950 C   0  0  1  0  0  0  0  0  0  0  0  0
    5.8170   -2.4810   21.0860 C   0  0  0  0  0  0  0  0  0  0  0  0
    4.7260   -3.0310   21.4480 O   0  0  0  0  0  0  0  0  0  0  0  0
    6.2910   -0.1750   21.9270 C   0  0  1  0  0  0  0  0  0  0  0  0
    6.1530   -2.3030   23.0940 C   0  0  0  0  0  0  0  0  0  0  0  0
    8.3290   -1.7600   22.3970 C   0  0  0  0  0  0  0  0  0  0  0  0
    6.1020   -2.8600   19.7720 C   0  0  0  0  0  0  0  0  0  0  0  0
    7.4740    0.8540   22.0300 C   0  0  0  0  0  0  0  0  0  0  0  0
    5.7540    0.3550   20.5740 C   0  0  0  0  0  0  0  0  0  0  0  0
    8.6960   -1.5280   23.7330 C   0  0  0  0  0  0  0  0  0  0  0  0
    9.3390   -2.1200   21.5520 C   0  0  0  0  0  0  0  0  0  0  0  0
    6.7300   -3.8020   22.8620 C   0  0  2  0  0  0  0  0  0  0  0  0
    6.5650   -4.2330   20.0630 C   0  0  0  0  0  0  0  0  0  0  0  0
    7.2510    1.9920   22.9100 N   0  0  0  0  0  0  0  0  0  0  0  0
    8.5080    0.7150   21.3740 O   0  0  0  0  0  0  0  0  0  0  0  0
    4.5850    1.0460   20.3210 C   0  0  0  0  0  0  0  0  0  0  0  0
    6.6280    0.1060   19.3170 C   0  0  0  0  0  0  0  0  0  0  0  0
   10.6510   -2.2560   21.8960 N   0  0  0  0  0  0  0  0  0  0  0  0
   10.0080   -1.6440   24.1780 C   0  0  0  0  0  0  0  0  0  0  0  0
    6.5640   -4.6820   21.5630 N   0  0  0  0  0  0  0  0  0  0  0  0
    6.6940   -4.4910   24.0770 C   0  0  0  0  0  0  0  0  0  0  0  0
    6.3640    0.4950   18.0470 N   0  0  0  0  0  0  0  0  0  0  0  0
    4.3790    1.4410   18.8770 C   0  0  0  0  0  0  0  0  0  0  0  0
   10.9950   -2.0020   23.2830 C   0  0  0  0  0  0  0  0  0  0  0  0
    8.0330    3.2210   22.9440 C   0  0  0  0  0  0  0  0  0  0  0  0
    5.7180   -5.8440   21.9070 C   0  0  0  0  0  0  0  0  0  0  0  0
    5.5030   -5.3620   24.2160 N   0  0  0  0  0  0  0  0  0  0  0  0
   12.4450   -2.1370   23.6830 C   0  0  0  0  0  0  0  0  0  0  0  0
    4.7020   -5.3730   25.7370 S   0  0  0  0  0  0  0  0  0  0  0  0
    5.2310    1.1720   17.8280 C   0  0  0  0  0  0  0  0  0  0  0  0
    9.3530    3.2190   23.4350 C   0  0  0  0  0  0  0  0  0  0  0  0
    7.5000    4.4200   22.4920 C   0  0  0  0  0  0  0  0  0  0  0  0
    4.7740   -5.6190   22.9250 C   0  0  0  0  0  0  0  0  0  0  0  0
   10.0490    1.9680   23.9380 C   0  0  0  0  0  0  0  0  0  0  0  0
    6.1130    4.7000   21.8990 C   0  0  0  0  0  0  0  0  0  0  0  0
   12.7190   -2.6490   24.9450 C   0  0  0  0  0  0  0  0  0  0  0  0
   12.9060   -1.0090   24.5850 C   0  0  0  0  0  0  0  0  0  0  0  0
    5.7340   -5.2970   26.7440 O   0  0  0  0  0  0  0  0  0  0  0  0
    3.7630   -6.4690   25.7440 O   0  0  0  0  0  0  0  0  0  0  0  0
   10.0780    4.4190   23.4650 C   0  0  0  0  0  0  0  0  0  0  0  0
    8.2150    5.6250   22.5160 C   0  0  0  0  0  0  0  0  0  0  0  0
    3.7760   -3.8700   25.8330 C   0  0  0  0  0  0  0  0  0  0  0  0
    9.1320    1.1860   24.8840 C   0  0  0  0  0  0  0  0  0  0  0  0
    9.5220    5.6220   23.0130 C   0  0  0  0  0  0  0  0  0  0  0  0
    4.3420   -2.6100   26.0850 C   0  0  0  0  0  0  0  0  0  0  0  0
    2.3950   -4.0620   25.6380 C   0  0  0  0  0  0  0  0  0  0  0  0
    5.6510   -2.3960   26.2770 F   0  0  0  0  0  0  0  0  0  0  0  0
    1.5210   -2.9540   25.6970 C   0  0  0  0  0  0  0  0  0  0  0  0
    3.4190   -1.5480   26.1290 C   0  0  0  0  0  0  0  0  0  0  0  0
    2.0530   -1.6880   25.9470 C   0  0  0  0  0  0  0  0  0  0  0  0
  1  2  1  0
  2  3  2  0
  1  4  1  0
  1  5  1  0
  1  6  1  6
  2  7  1  0
  4  8  1  6
  4  9  1  0
  6 10  2  0
  6 11  1  0
 12  5  1  1
  7 13  1  0
  8 14  1  0
  8 15  2  0
  9 16  2  0
  9 17  1  0
 11 18  2  0
 10 19  1  0
 12 20  1  0
 13 20  1  0
 12 21  1  0
 17 22  2  0
 16 23  1  0
 18 24  1  0
 19 24  2  0
 14 25  1  0
 20 26  1  0
 21 27  1  0
 24 28  1  0
 27 29  1  0
 22 30  1  0
 23 30  2  0
 25 31  2  0
 25 32  1  0
 26 33  1  0
 27 33  1  0
 31 34  1  0
 32 35  1  0
 28 36  1  0
 28 37  1  0
 29 38  2  0
 29 39  2  0
 31 40  1  0
 32 41  2  0
 29 42  1  0
 34 43  1  0
 40 44  2  0
 41 44  1  0
 42 45  2  0
 42 46  1  0
 45 47  1  0
 46 48  2  0
 45 49  1  0
 48 50  1  0
 49 50  2  0
M  END
