x2703-x1458-x3124
     RDKit          3D

 47 51  0  0  0  0  0  0  0  0999 V2000
    6.8220   -1.6590   21.8040 C   0  0  1  0  0  0  0  0  0  0  0  0
    5.9880   -2.9220   21.1920 C   0  0  0  0  0  0  0  0  0  0  0  0
    4.9020   -3.0340   20.5270 O   0  0  0  0  0  0  0  0  0  0  0  0
    6.3780   -0.1530   21.6060 C   0  0  1  0  0  0  0  0  0  0  0  0
    6.2370   -2.2740   23.1720 C   0  0  0  0  0  0  0  0  0  0  0  0
    8.2950   -1.6990   22.3550 C   0  0  0  0  0  0  0  0  0  0  0  0
    7.5700    0.8340   21.8650 C   0  0  0  0  0  0  0  0  0  0  0  0
    5.9390    0.3500   20.2740 C   0  0  0  0  0  0  0  0  0  0  0  0
    8.5770   -1.3280   23.6980 C   0  0  0  0  0  0  0  0  0  0  0  0
    9.4000   -2.0770   21.6630 C   0  0  0  0  0  0  0  0  0  0  0  0
    6.5840   -4.1740   21.7260 C   0  0  2  0  0  0  0  0  0  0  0  0
    7.0670   -3.5440   23.0040 C   0  0  2  0  0  0  0  0  0  0  0  0
    7.7830   -4.7350   20.9790 C   0  0  0  0  0  0  0  0  0  0  0  0
    7.3270    1.8990   22.8140 N   0  0  0  0  0  0  0  0  0  0  0  0
    8.6320    0.7240   21.2710 O   0  0  0  0  0  0  0  0  0  0  0  0
    4.7090    1.2000   20.0390 C   0  0  0  0  0  0  0  0  0  0  0  0
    6.6610    0.0890   19.1160 C   0  0  0  0  0  0  0  0  0  0  0  0
   10.8450   -2.1610   22.1260 N   0  0  0  0  0  0  0  0  0  0  0  0
    9.8310   -1.3530   24.2650 C   0  0  0  0  0  0  0  0  0  0  0  0
    7.2330   -4.3830   23.9770 C   0  0  0  0  0  0  0  0  0  0  0  0
    5.5640   -5.2770   22.0540 C   0  0  0  0  0  0  0  0  0  0  0  0
    6.2650    0.6100   17.7840 N   0  0  0  0  0  0  0  0  0  0  0  0
    4.3400    1.6840   18.8000 C   0  0  0  0  0  0  0  0  0  0  0  0
   11.0330   -1.7900   23.4660 C   0  0  0  0  0  0  0  0  0  0  0  0
    8.0370    3.1500   22.9100 C   0  0  0  0  0  0  0  0  0  0  0  0
    5.9770   -4.9540   24.5230 C   0  0  2  0  0  0  0  0  0  0  0  0
    4.9120   -5.0280   23.4240 C   0  0  0  0  0  0  0  0  0  0  0  0
   12.4710   -1.8710   23.9380 C   0  0  0  0  0  0  0  0  0  0  0  0
    5.6140   -3.9150   25.5920 C   0  0  0  0  0  0  0  0  0  0  0  0
    5.1430    1.3740   17.7130 C   0  0  0  0  0  0  0  0  0  0  0  0
    9.2920    3.2280   23.4780 C   0  0  0  0  0  0  0  0  0  0  0  0
    7.4010    4.4210   22.3760 C   0  0  0  0  0  0  0  0  0  0  0  0
    9.9360    1.9580   24.0160 C   0  0  0  0  0  0  0  0  0  0  0  0
    6.0360    4.4400   21.7380 C   0  0  0  0  0  0  0  0  0  0  0  0
   12.6990   -2.8860   24.8410 C   0  0  0  0  0  0  0  0  0  0  0  0
   12.7200   -0.5630   24.6780 C   0  0  0  0  0  0  0  0  0  0  0  0
   13.3650   -1.9630   22.8540 C   0  0  0  0  0  0  0  0  0  0  0  0
    6.3390   -3.8300   26.7310 N   0  0  0  0  0  0  0  0  0  0  0  0
    4.5190   -3.0120   25.4400 O   0  0  0  0  0  0  0  0  0  0  0  0
   10.0370    4.3710   23.6110 C   0  0  0  0  0  0  0  0  0  0  0  0
    8.1970    5.5780   22.5320 C   0  0  0  0  0  0  0  0  0  0  0  0
    9.0180    1.2870   25.0730 C   0  0  0  0  0  0  0  0  0  0  0  0
    6.4600   -4.9700   27.4720 C   0  0  0  0  0  0  0  0  0  0  0  0
    6.5450   -2.6340   27.3500 C   0  0  0  0  0  0  0  0  0  0  0  0
    9.4560    5.6750   23.1000 C   0  0  0  0  0  0  0  0  0  0  0  0
    7.2250   -4.9830   28.6500 C   0  0  0  0  0  0  0  0  0  0  0  0
    5.1520   -5.6520   27.7780 C   0  0  0  0  0  0  0  0  0  0  0  0
  1  2  1  0
  2  3  2  0
  1  4  1  0
  1  5  1  0
  1  6  1  1
  4  7  1  6
  4  8  1  0
  6  9  2  0
  6 10  1  0
  2 11  1  0
 12  5  1  1
 11 12  1  0
 11 13  1  6
  7 14  1  0
  7 15  2  0
  8 16  2  0
  8 17  1  0
 10 18  2  0
  9 19  1  0
 12 20  1  0
 11 21  1  0
 17 22  2  0
 16 23  1  0
 18 24  1  0
 19 24  2  0
 14 25  1  0
 20 26  1  0
 21 27  1  0
 26 27  1  0
 24 28  1  0
 26 29  1  1
 22 30  1  0
 23 30  2  0
 25 31  2  0
 25 32  1  0
 31 33  1  0
 32 34  1  0
 28 35  1  0
 28 36  1  0
 28 37  1  0
 29 38  1  0
 29 39  2  0
 31 40  1  0
 32 41  2  0
 33 42  1  0
 38 43  1  0
 38 44  1  0
 40 45  2  0
 41 45  1  0
 43 46  1  0
 43 47  1  0
M  END
