x2705-x0771-x3115
     RDKit          3D

 52 57  0  0  0  0  0  0  0  0999 V2000
    6.8120   -1.4060   22.0820 C   0  0  1  0  0  0  0  0  0  0  0  0
    5.9270   -2.4190   21.1260 C   0  0  0  0  0  0  0  0  0  0  0  0
    4.8260   -3.0920   21.3780 O   0  0  0  0  0  0  0  0  0  0  0  0
    6.3450    0.1170   21.8280 C   0  0  1  0  0  0  0  0  0  0  0  0
    6.3350   -2.2120   23.0140 C   0  0  0  0  0  0  0  0  0  0  0  0
    8.3410   -1.4780   22.6060 C   0  0  0  0  0  0  0  0  0  0  0  0
    6.4210   -2.6180   19.8370 C   0  0  0  0  0  0  0  0  0  0  0  0
    7.5960    1.0610   22.1600 C   0  0  0  0  0  0  0  0  0  0  0  0
    5.9610    0.4960   20.4290 C   0  0  0  0  0  0  0  0  0  0  0  0
    8.6250   -1.6450   23.9550 N   0  0  0  0  0  0  0  0  0  0  0  0
    9.6540   -1.4050   22.0720 C   0  0  0  0  0  0  0  0  0  0  0  0
    7.0070   -3.6660   22.7420 C   0  0  2  0  0  0  0  0  0  0  0  0
    6.7730   -4.0340   19.9920 C   0  0  0  0  0  0  0  0  0  0  0  0
    7.3000    2.2590   23.0050 N   0  0  0  0  0  0  0  0  0  0  0  0
    8.7320    0.8950   21.7190 O   0  0  0  0  0  0  0  0  0  0  0  0
    4.7150    1.2020   20.2060 C   0  0  0  0  0  0  0  0  0  0  0  0
    6.7870    0.1970   19.3340 C   0  0  0  0  0  0  0  0  0  0  0  0
    9.9850   -1.6720   24.2150 N   0  0  0  0  0  0  0  0  0  0  0  0
   10.7050   -1.5170   23.0230 C   0  0  0  0  0  0  0  0  0  0  0  0
    6.7120   -4.4640   21.4550 N   0  0  0  0  0  0  0  0  0  0  0  0
    6.7850   -4.4910   24.0070 C   0  0  0  0  0  0  0  0  0  0  0  0
   12.2960   -1.4760   22.8230 C   0  0  0  0  0  0  0  0  0  0  0  0
    6.4440    0.5840   17.9580 N   0  0  0  0  0  0  0  0  0  0  0  0
    4.3200    1.6040   18.9470 C   0  0  0  0  0  0  0  0  0  0  0  0
    7.8590    3.6750   22.8410 C   0  0  0  0  0  0  0  0  0  0  0  0
    5.9440   -5.6990   21.6970 C   0  0  0  0  0  0  0  0  0  0  0  0
    5.8350   -5.4550   24.0680 N   0  0  0  0  0  0  0  0  0  0  0  0
   12.8010   -0.1830   23.1240 C   0  0  0  0  0  0  0  0  0  0  0  0
   12.9910   -2.5070   23.7230 C   0  0  0  0  0  0  0  0  0  0  0  0
   12.7820   -1.9090   21.4310 C   0  0  0  0  0  0  0  0  0  0  0  0
    5.0680   -5.7250   25.5830 S   0  0  0  0  0  0  0  0  0  0  0  0
    5.1930    1.3070   17.7610 C   0  0  0  0  0  0  0  0  0  0  0  0
    9.0840    3.9980   23.4400 C   0  0  0  0  0  0  0  0  0  0  0  0
    7.1950    4.6680   22.1360 C   0  0  0  0  0  0  0  0  0  0  0  0
    5.0340   -5.5450   22.9230 C   0  0  0  0  0  0  0  0  0  0  0  0
    9.7500    2.9960   24.2110 C   0  0  0  0  0  0  0  0  0  0  0  0
    5.8740    4.5290   21.4490 C   0  0  0  0  0  0  0  0  0  0  0  0
   12.9440   -2.3340   25.2280 C   0  0  0  0  0  0  0  0  0  0  0  0
    4.2300   -7.3310   25.5190 O   0  0  0  0  0  0  0  0  0  0  0  0
    6.0410   -5.4540   26.6070 O   0  0  0  0  0  0  0  0  0  0  0  0
    9.6960    5.2580   23.3580 C   0  0  0  0  0  0  0  0  0  0  0  0
    7.8360    5.9240   22.0750 C   0  0  0  0  0  0  0  0  0  0  0  0
    3.7860   -4.5120   25.7340 C   0  0  0  0  0  0  0  0  0  0  0  0
    8.9430    2.8440   25.0870 C   0  0  0  0  0  0  0  0  0  0  0  0
    9.0490    6.2350   22.6560 C   0  0  0  0  0  0  0  0  0  0  0  0
    2.3300   -4.8290   25.3790 C   0  0  0  0  0  0  0  0  0  0  0  0
    4.1150   -3.1000   26.2420 C   0  0  0  0  0  0  0  0  0  0  0  0
    1.8450   -6.1530   24.8670 C   0  0  0  0  0  0  0  0  0  0  0  0
    1.3100   -3.7050   25.5740 C   0  0  0  0  0  0  0  0  0  0  0  0
    3.0070   -2.0640   26.3920 C   0  0  0  0  0  0  0  0  0  0  0  0
    1.6800   -2.3290   26.0880 C   0  0  0  0  0  0  0  0  0  0  0  0
    0.6270   -1.2820   26.2700 C   0  0  0  0  0  0  0  0  0  0  0  0
  1  2  1  0
  2  3  2  0
  1  4  1  0
  1  5  1  0
  1  6  1  6
  2  7  1  0
  4  8  1  6
  4  9  1  0
  6 10  2  0
  6 11  1  0
 12  5  1  1
  7 13  1  0
  8 14  1  0
  8 15  2  0
  9 16  2  0
  9 17  1  0
 10 18  1  0
 11 19  2  0
 18 19  1  0
 12 20  1  0
 13 20  1  0
 12 21  1  0
 19 22  1  0
 17 23  2  0
 16 24  1  0
 14 25  1  0
 20 26  1  0
 21 27  1  0
 22 28  1  0
 22 29  1  0
 22 30  1  0
 27 31  1  0
 23 32  1  0
 24 32  2  0
 25 33  2  0
 25 34  1  0
 26 35  1  0
 27 35  1  0
 33 36  1  0
 34 37  1  0
 29 38  1  0
 31 39  2  0
 31 40  2  0
 33 41  1  0
 34 42  2  0
 31 43  1  0
 36 44  1  0
 41 45  2  0
 42 45  1  0
 43 46  2  0
 43 47  1  0
 46 48  1  0
 46 49  1  0
 47 50  2  0
 49 51  2  0
 50 51  1  0
 51 52  1  0
M  END
