x2705-x0771
     RDKit          3D

 51 56  0  0  0  0  0  0  0  0999 V2000
    6.8180   -1.4460   22.0600 C   0  0  1  0  0  0  0  0  0  0  0  0
    5.9140   -2.3940   21.1080 C   0  0  0  0  0  0  0  0  0  0  0  0
    4.7970   -3.0430   21.3570 O   0  0  0  0  0  0  0  0  0  0  0  0
    6.4710    0.0840   21.8260 C   0  0  1  0  0  0  0  0  0  0  0  0
    6.3470   -2.4230   23.0780 C   0  0  0  0  0  0  0  0  0  0  0  0
    8.3550   -1.4740   22.5470 C   0  0  0  0  0  0  0  0  0  0  0  0
    6.3610   -2.6590   19.8180 C   0  0  0  0  0  0  0  0  0  0  0  0
    7.5230    1.0310   21.9200 C   0  0  0  0  0  0  0  0  0  0  0  0
    5.9690    0.4610   20.4500 C   0  0  0  0  0  0  0  0  0  0  0  0
    8.4810   -1.2540   23.8710 N   0  0  0  0  0  0  0  0  0  0  0  0
    9.6440   -1.6410   22.0510 C   0  0  0  0  0  0  0  0  0  0  0  0
    7.0650   -3.8200   22.7670 C   0  0  2  0  0  0  0  0  0  0  0  0
    6.7640   -4.0520   20.0150 C   0  0  0  0  0  0  0  0  0  0  0  0
    7.0970    2.3570   22.4540 N   0  0  0  0  0  0  0  0  0  0  0  0
    8.6640    0.7990   21.5340 O   0  0  0  0  0  0  0  0  0  0  0  0
    4.7710    1.1300   20.2890 C   0  0  0  0  0  0  0  0  0  0  0  0
    6.7320    0.1720   19.1120 C   0  0  0  0  0  0  0  0  0  0  0  0
    9.8080   -1.2800   24.1450 N   0  0  0  0  0  0  0  0  0  0  0  0
   10.6260   -1.5140   23.0590 C   0  0  0  0  0  0  0  0  0  0  0  0
    6.7030   -4.5730   21.4630 N   0  0  0  0  0  0  0  0  0  0  0  0
    6.9560   -4.6720   24.0100 C   0  0  0  0  0  0  0  0  0  0  0  0
   12.1570   -1.5700   23.1480 C   0  0  0  0  0  0  0  0  0  0  0  0
    6.3120    0.5320   17.8760 N   0  0  0  0  0  0  0  0  0  0  0  0
    4.3890    1.4890   18.8890 C   0  0  0  0  0  0  0  0  0  0  0  0
    7.8260    3.5900   22.5910 C   0  0  0  0  0  0  0  0  0  0  0  0
    6.0800   -5.8810   21.7120 C   0  0  0  0  0  0  0  0  0  0  0  0
    5.6440   -5.3260   24.1110 N   0  0  0  0  0  0  0  0  0  0  0  0
   12.7000   -0.2910   23.4000 C   0  0  0  0  0  0  0  0  0  0  0  0
   12.5790   -2.5040   24.3080 C   0  0  0  0  0  0  0  0  0  0  0  0
   12.7760   -2.1020   21.8400 C   0  0  0  0  0  0  0  0  0  0  0  0
    4.9850   -5.6670   25.6110 S   0  0  0  0  0  0  0  0  0  0  0  0
    5.1570    1.1870   17.7820 C   0  0  0  0  0  0  0  0  0  0  0  0
    9.1420    3.5640   23.0990 C   0  0  0  0  0  0  0  0  0  0  0  0
    7.2660    4.8220   22.2410 C   0  0  0  0  0  0  0  0  0  0  0  0
    5.0380   -5.8680   22.8610 C   0  0  0  0  0  0  0  0  0  0  0  0
    9.7910    2.3120   23.4790 C   0  0  0  0  0  0  0  0  0  0  0  0
    5.8710    4.9450   21.6840 C   0  0  0  0  0  0  0  0  0  0  0  0
    4.3690   -6.9750   25.5520 O   0  0  0  0  0  0  0  0  0  0  0  0
    5.9660   -5.3430   26.6130 O   0  0  0  0  0  0  0  0  0  0  0  0
    9.9670    4.8570   23.2890 C   0  0  0  0  0  0  0  0  0  0  0  0
    7.9540    6.0350   22.3820 C   0  0  0  0  0  0  0  0  0  0  0  0
    3.6810   -4.4840   25.7640 C   0  0  0  0  0  0  0  0  0  0  0  0
    8.9070    1.6630   24.3530 C   0  0  0  0  0  0  0  0  0  0  0  0
    9.3900    6.0670   22.9410 C   0  0  0  0  0  0  0  0  0  0  0  0
    2.3640   -4.7850   25.4390 C   0  0  0  0  0  0  0  0  0  0  0  0
    4.0130   -3.0480   26.2840 C   0  0  0  0  0  0  0  0  0  0  0  0
    1.8930   -6.1190   24.9230 C   0  0  0  0  0  0  0  0  0  0  0  0
    1.3160   -3.7060   25.6130 C   0  0  0  0  0  0  0  0  0  0  0  0
    3.0050   -2.1020   26.4210 C   0  0  0  0  0  0  0  0  0  0  0  0
    1.6730   -2.4230   26.0950 C   0  0  0  0  0  0  0  0  0  0  0  0
    0.6130   -1.3780   26.2670 C   0  0  0  0  0  0  0  0  0  0  0  0
  1  2  1  0
  2  3  2  0
  1  4  1  0
  1  5  1  0
  1  6  1  6
  2  7  1  0
  4  8  1  6
  4  9  1  0
  6 10  2  0
  6 11  1  0
 12  5  1  1
  7 13  1  0
  8 14  1  0
  8 15  2  0
  9 16  2  0
  9 17  1  0
 10 18  1  0
 11 19  2  0
 18 19  1  0
 12 20  1  0
 13 20  1  0
 12 21  1  0
 19 22  1  0
 17 23  2  0
 16 24  1  0
 14 25  1  0
 20 26  1  0
 21 27  1  0
 22 28  1  0
 22 29  1  0
 22 30  1  0
 27 31  1  0
 23 32  1  0
 24 32  2  0
 25 33  2  0
 25 34  1  0
 26 35  1  0
 27 35  1  0
 33 36  1  0
 34 37  1  0
 31 38  2  0
 31 39  2  0
 33 40  1  0
 34 41  2  0
 31 42  1  0
 36 43  1  0
 40 44  2  0
 41 44  1  0
 42 45  2  0
 42 46  1  0
 45 47  1  0
 45 48  1  0
 46 49  2  0
 48 50  2  0
 49 50  1  0
 50 51  1  0
M  END
