x2705-x2193-x0689-x2776-x1311
     RDKit          3D

 58 63  0  0  0  0  0  0  0  0999 V2000
    4.3500   -6.6630   27.0370 O   0  0  0  0  0  0  0  0  0  0  0  0
    4.3200   -5.3490   26.4330 S   0  0  1  0  0  0  0  0  0  0  0  0
    5.6070   -4.6200   27.2280 N   0  0  0  0  0  0  0  0  0  0  0  0
    4.7710   -5.8580   24.8460 C   0  0  2  0  0  0  0  0  0  0  0  0
    3.3580   -3.9010   26.0550 C   0  0  0  0  0  0  0  0  0  0  0  0
    5.0390   -4.9550   23.6450 C   0  0  0  0  0  0  0  0  0  0  0  0
    3.5940   -7.0900   24.3450 S   0  0  1  0  0  0  0  0  0  0  0  0
    4.0220   -2.3010   26.0750 S   0  0  0  0  0  0  0  0  0  0  0  0
    1.9830   -3.8930   25.7220 C   0  0  0  0  0  0  0  0  0  0  0  0
    6.7640   -5.4800   27.6420 C   0  0  0  0  0  0  0  0  0  0  0  0
    2.1990   -6.4260   24.7250 O   0  0  0  0  0  0  0  0  0  0  0  0
    4.4540   -5.6710   22.4120 C   0  0  0  0  0  0  0  0  0  0  0  0
    3.5990   -6.8400   22.6850 C   0  0  0  0  0  0  0  0  0  0  0  0
    1.4090   -2.5400   25.4730 C   0  0  0  0  0  0  0  0  0  0  0  0
    2.5350   -1.5350   25.6570 C   0  0  0  0  0  0  0  0  0  0  0  0
    7.7950   -5.2750   26.5160 C   0  0  2  0  0  0  0  0  0  0  0  0
    8.7520   -6.1380   26.3550 N   0  0  0  0  0  0  0  0  0  0  0  0
    8.5030   -3.9950   26.7940 C   0  0  0  0  0  0  0  0  0  0  0  0
    8.8590   -3.6240   25.5390 N   0  0  0  0  0  0  0  0  0  0  0  0
    9.1330   -5.8430   25.0230 C   0  0  0  0  0  0  0  0  0  0  0  0
    9.6500   -4.5650   24.8520 C   0  0  0  0  0  0  0  0  0  0  0  0
    7.8780   -2.7320   24.9370 C   0  0  0  0  0  0  0  0  0  0  0  0
    8.6150   -2.1180   23.8770 N   0  0  0  0  0  0  0  0  0  0  0  0
   10.0080   -2.0500   24.1630 N   0  0  0  0  0  0  0  0  0  0  0  0
    8.2390   -1.5600   22.5710 C   0  0  0  0  0  0  0  0  0  0  0  0
    6.9330   -1.3660   21.8120 N   0  0  0  0  0  0  0  0  0  0  0  0
    9.5140   -1.1910   22.1210 C   0  0  0  0  0  0  0  0  0  0  0  0
   10.5850   -1.4440   22.9900 C   0  0  0  0  0  0  0  0  0  0  0  0
    6.1130   -2.6060   21.4190 C   0  0  0  0  0  0  0  0  0  0  0  0
    6.5790    0.0870   21.5950 C   0  0  1  0  0  0  0  0  0  0  0  0
   12.0970   -1.2300   22.9500 C   0  0  0  0  0  0  0  0  0  0  0  0
    4.8050   -3.0100   21.3280 O   0  0  0  0  0  0  0  0  0  0  0  0
    7.0190   -3.7200   20.9710 C   0  0  0  0  0  0  0  0  0  0  0  0
    7.6140    1.0730   21.8590 C   0  0  0  0  0  0  0  0  0  0  0  0
   12.6360    0.0650   23.5000 C   0  0  0  0  0  0  0  0  0  0  0  0
   12.8510   -1.5430   24.2440 C   0  0  0  0  0  0  0  0  0  0  0  0
   12.8750   -1.7530   21.7230 C   0  0  0  0  0  0  0  0  0  0  0  0
    6.0850    0.3760   20.3540 C   0  0  0  0  0  0  0  0  0  0  0  0
    7.2220   -3.4190   19.5010 C   0  0  0  0  0  0  0  0  0  0  0  0
    7.5070    1.9430   22.8900 N   0  0  0  0  0  0  0  0  0  0  0  0
    8.7220    1.2050   20.9840 O   0  0  0  0  0  0  0  0  0  0  0  0
   12.4910   -2.8780   24.8400 C   0  0  0  0  0  0  0  0  0  0  0  0
    4.9410    1.0210   20.2090 C   0  0  0  0  0  0  0  0  0  0  0  0
    6.7790    0.0330   19.0440 C   0  0  0  0  0  0  0  0  0  0  0  0
    6.3280    0.3410   17.8300 N   0  0  0  0  0  0  0  0  0  0  0  0
    4.4550    1.3500   18.9490 C   0  0  0  0  0  0  0  0  0  0  0  0
    8.0600    3.2160   22.9540 C   0  0  0  0  0  0  0  0  0  0  0  0
    5.1660    1.0030   17.8190 C   0  0  0  0  0  0  0  0  0  0  0  0
    9.3550    3.3740   23.5150 C   0  0  0  0  0  0  0  0  0  0  0  0
    7.3390    4.3330   22.4710 C   0  0  0  0  0  0  0  0  0  0  0  0
   10.1080    2.1440   23.9990 C   0  0  0  0  0  0  0  0  0  0  0  0
    5.9690    4.2260   21.8540 C   0  0  0  0  0  0  0  0  0  0  0  0
    9.9980    4.7970   23.6300 C   0  0  0  0  0  0  0  0  0  0  0  0
    7.8870    5.6320   22.5460 C   0  0  0  0  0  0  0  0  0  0  0  0
    9.2410    1.3220   24.9870 C   0  0  0  0  0  0  0  0  0  0  0  0
   11.2450    4.9830   24.1820 O   0  0  0  0  0  0  0  0  0  0  0  0
    9.2520    5.8460   23.1480 C   0  0  0  0  0  0  0  0  0  0  0  0
   11.5370    6.2380   24.7940 C   0  0  0  0  0  0  0  0  0  0  0  0
  1  2  2  0
  2  3  2  0
  2  4  1  0
  2  5  1  6
  4  6  1  6
  4  7  1  0
  5  8  1  0
  5  9  2  0
  3 10  1  0
  7 11  1  1
  6 12  1  0
  7 13  1  0
 12 13  2  0
  9 14  1  0
  8 15  1  0
 14 15  2  0
 16 10  1  1
 16 17  1  0
 16 18  1  0
 18 19  1  0
 17 20  1  0
 19 21  1  0
 20 21  1  0
 19 22  1  0
 22 23  1  0
 23 24  1  0
 23 25  1  0
 25 26  1  0
 25 27  2  0
 24 28  2  0
 27 28  1  0
 26 29  1  0
 26 30  1  0
 28 31  1  0
 29 32  2  0
 29 33  1  0
 30 34  1  6
 31 35  1  0
 31 36  1  0
 31 37  1  0
 30 38  1  0
 33 39  1  0
 34 40  1  0
 34 41  2  0
 36 42  1  0
 38 43  2  0
 38 44  1  0
 44 45  2  0
 43 46  1  0
 40 47  1  0
 45 48  1  0
 46 48  2  0
 47 49  2  0
 47 50  1  0
 49 51  1  0
 50 52  1  0
 49 53  1  0
 50 54  2  0
 51 55  1  0
 53 56  1  0
 53 57  2  0
 54 57  1  0
 56 58  1  0
M  END
