x2705-x1380
     RDKit          3D

 47 52  0  0  0  0  0  0  0  0999 V2000
    7.0410   -1.5420   21.8310 C   0  0  1  0  0  0  0  0  0  0  0  0
    6.1250   -2.8930   21.4130 C   0  0  0  0  0  0  0  0  0  0  0  0
    4.9420   -3.0640   20.8590 O   0  0  0  0  0  0  0  0  0  0  0  0
    6.6460   -0.0370   21.5510 C   0  0  1  0  0  0  0  0  0  0  0  0
    6.4480   -2.0240   23.1180 C   0  0  0  0  0  0  0  0  0  0  0  0
    8.4790   -1.5220   22.4390 C   0  0  0  0  0  0  0  0  0  0  0  0
    7.6700    0.9150   21.8220 C   0  0  0  0  0  0  0  0  0  0  0  0
    6.1190    0.3870   20.2200 C   0  0  0  0  0  0  0  0  0  0  0  0
    8.6370   -1.1520   23.7550 N   0  0  0  0  0  0  0  0  0  0  0  0
    9.9010   -1.7930   21.9970 C   0  0  0  0  0  0  0  0  0  0  0  0
    6.7190   -4.1710   21.9130 C   0  0  2  0  0  0  0  0  0  0  0  0
    7.1520   -3.4020   23.1780 C   0  0  2  0  0  0  0  0  0  0  0  0
    7.9590   -4.6330   21.1110 C   0  0  0  0  0  0  0  0  0  0  0  0
    7.3730    1.8960   22.7700 N   0  0  0  0  0  0  0  0  0  0  0  0
    8.7420    0.8920   21.2230 O   0  0  0  0  0  0  0  0  0  0  0  0
    4.9610    1.1630   20.0970 C   0  0  0  0  0  0  0  0  0  0  0  0
    6.7470    0.0660   19.0200 C   0  0  0  0  0  0  0  0  0  0  0  0
    9.9560   -1.1590   24.1160 N   0  0  0  0  0  0  0  0  0  0  0  0
   10.8200   -1.5200   23.1340 C   0  0  0  0  0  0  0  0  0  0  0  0
    5.7590   -5.3240   22.3550 C   0  0  0  0  0  0  0  0  0  0  0  0
    6.8720   -4.0830   24.2690 C   0  0  0  0  0  0  0  0  0  0  0  0
   12.3090   -1.5650   23.3230 C   0  0  0  0  0  0  0  0  0  0  0  0
    6.3460    0.4410   17.7910 N   0  0  0  0  0  0  0  0  0  0  0  0
    4.5010    1.5780   18.8620 C   0  0  0  0  0  0  0  0  0  0  0  0
    8.0790    3.2170   22.9030 C   0  0  0  0  0  0  0  0  0  0  0  0
    5.1420   -5.3170   23.7070 C   0  0  0  0  0  0  0  0  0  0  0  0
    5.4350   -4.1040   24.3210 C   0  0  1  0  0  0  0  0  0  0  0  0
   12.7950   -0.2010   23.8230 C   0  0  0  0  0  0  0  0  0  0  0  0
   12.7270   -2.6440   24.3390 C   0  0  0  0  0  0  0  0  0  0  0  0
   12.9700   -1.8310   21.9610 C   0  0  0  0  0  0  0  0  0  0  0  0
    5.0030   -3.8670   25.5730 C   0  0  0  0  0  0  0  0  0  0  0  0
    5.2290    1.1980   17.7410 C   0  0  0  0  0  0  0  0  0  0  0  0
    9.3550    3.2790   23.4850 C   0  0  0  0  0  0  0  0  0  0  0  0
    7.4640    4.5370   22.4250 C   0  0  0  0  0  0  0  0  0  0  0  0
   10.0770    2.0570   24.0000 C   0  0  0  0  0  0  0  0  0  0  0  0
    6.1060    4.6440   21.7770 C   0  0  0  0  0  0  0  0  0  0  0  0
    3.9680   -3.2370   25.6760 O   0  0  0  0  0  0  0  0  0  0  0  0
   10.0240    4.5120   23.6160 C   0  0  0  0  0  0  0  0  0  0  0  0
    8.1790    5.7300   22.5820 C   0  0  0  0  0  0  0  0  0  0  0  0
    5.6300   -4.2020   26.7540 N   0  0  0  0  0  0  0  0  0  0  0  0
    9.2320    1.4020   24.9080 C   0  0  0  0  0  0  0  0  0  0  0  0
    9.4520    5.7170   23.1740 C   0  0  0  0  0  0  0  0  0  0  0  0
    6.5510   -3.3240   27.4620 C   0  0  0  0  0  0  0  0  0  0  0  0
    4.6620   -4.7290   27.7090 C   0  0  0  0  0  0  0  0  0  0  0  0
    6.9810   -3.8970   28.6710 C   0  0  0  0  0  0  0  0  0  0  0  0
    5.3450   -5.5280   28.7830 C   0  0  0  0  0  0  0  0  0  0  0  0
    6.7050   -5.3890   28.7660 C   0  0  0  0  0  0  0  0  0  0  0  0
  1  2  1  0
  2  3  2  0
  1  4  1  0
  1  5  1  0
  1  6  1  1
  4  7  1  6
  4  8  1  0
  6  9  2  0
  6 10  1  0
  2 11  1  0
 12  5  1  1
 11 12  1  0
 11 13  1  6
  7 14  1  0
  7 15  2  0
  8 16  2  0
  8 17  1  0
  9 18  1  0
 10 19  2  0
 18 19  1  0
 11 20  1  0
 12 21  1  0
 19 22  1  0
 17 23  2  0
 16 24  1  0
 14 25  1  0
 20 26  1  0
 21 27  1  0
 26 27  1  0
 22 28  1  0
 22 29  1  0
 22 30  1  0
 27 31  1  1
 23 32  1  0
 24 32  2  0
 25 33  2  0
 25 34  1  0
 33 35  1  0
 34 36  1  0
 31 37  2  0
 33 38  1  0
 34 39  2  0
 31 40  1  0
 35 41  1  0
 38 42  2  0
 39 42  1  0
 40 43  1  0
 40 44  1  0
 43 45  1  0
 44 46  1  0
 45 47  1  0
 46 47  1  0
M  END
