x2703-x0771-x0305-x2694
     RDKit          3D

 63 69  0  0  0  0  0  0  0  0999 V2000
    6.7140   -1.2870   21.8840 C   0  0  1  0  0  0  0  0  0  0  0  0
    5.7570   -2.2560   20.9800 C   0  0  0  0  0  0  0  0  0  0  0  0
    4.6550   -2.8620   21.2910 O   0  0  0  0  0  0  0  0  0  0  0  0
    6.4150    0.1860   21.5540 C   0  0  1  0  0  0  0  0  0  0  0  0
    5.9420   -1.8610   23.0060 C   0  0  0  0  0  0  0  0  0  0  0  0
    8.2400   -1.3160   22.4400 C   0  0  1  0  0  0  0  0  0  0  0  0
    6.1110   -2.6280   19.6900 C   0  0  0  0  0  0  0  0  0  0  0  0
    7.4870    1.3530   21.7140 C   0  0  0  0  0  0  0  0  0  0  0  0
    5.6240   -3.2400   22.7990 C   0  0  0  0  0  0  0  0  0  0  0  0
    6.1110    0.5240   20.1120 C   0  0  0  0  0  0  0  0  0  0  0  0
    8.7260   -1.9960   23.6800 N   0  0  0  0  0  0  0  0  0  0  0  0
    9.3730   -0.8690   21.9050 C   0  0  0  0  0  0  0  0  0  0  0  0
    6.6380   -3.9450   20.0590 C   0  0  0  0  0  0  0  0  0  0  0  0
    7.0820    2.3150   22.6210 N   0  0  0  0  0  0  0  0  0  0  0  0
    8.5380    1.3960   21.0480 O   0  0  0  0  0  0  0  0  0  0  0  0
    4.9200    1.2360   19.9050 C   0  0  0  0  0  0  0  0  0  0  0  0
    7.0680    0.1060   19.1430 C   0  0  0  0  0  0  0  0  0  0  0  0
    9.5650   -0.8520   24.1370 N   0  0  0  0  0  0  0  0  0  0  0  0
    9.7250   -0.0310   22.9220 C   0  0  1  0  0  0  0  0  0  0  0  0
    6.4040   -4.2670   21.7360 C   0  0  0  0  0  0  0  0  0  0  0  0
    6.4250    0.6600   17.8860 N   0  0  0  0  0  0  0  0  0  0  0  0
    4.4400    1.6800   18.7550 C   0  0  0  0  0  0  0  0  0  0  0  0
    7.7100    3.5160   22.9680 C   0  0  0  0  0  0  0  0  0  0  0  0
   10.7660   -1.0560   24.8970 C   0  0  0  0  0  0  0  0  0  0  0  0
   10.9550    0.8000   22.7740 C   0  0  0  0  0  0  0  0  0  0  0  0
    5.6690   -5.4690   21.7020 C   0  0  0  0  0  0  0  0  0  0  0  0
    7.5900   -4.7860   22.5940 C   0  0  0  0  0  0  0  0  0  0  0  0
    5.6400    2.6560   22.6020 C   0  0  0  0  0  0  0  0  0  0  0  0
    5.2010    1.3970   17.7250 C   0  0  0  0  0  0  0  0  0  0  0  0
    7.8440    3.6990   24.3100 C   0  0  0  0  0  0  0  0  0  0  0  0
    8.1440    4.4700   22.1300 C   0  0  0  0  0  0  0  0  0  0  0  0
   12.1030   -0.4370   24.5670 N   0  0  0  0  0  0  0  0  0  0  0  0
   12.1640    0.6410   23.5920 C   0  0  0  0  0  0  0  0  0  0  0  0
    5.1250   -5.9880   22.8900 C   0  0  0  0  0  0  0  0  0  0  0  0
    7.2190   -5.0600   23.9310 C   0  0  0  0  0  0  0  0  0  0  0  0
    5.4100    3.7210   21.6820 C   0  0  0  0  0  0  0  0  0  0  0  0
    7.4540    2.6700   25.2360 C   0  0  0  0  0  0  0  0  0  0  0  0
   13.0220   -1.3290   24.1910 C   0  0  1  0  0  0  0  0  0  0  0  0
    8.4040    4.9730   24.7990 C   0  0  0  0  0  0  0  0  0  0  0  0
    8.7210    5.6160   22.5740 C   0  0  0  0  0  0  0  0  0  0  0  0
    5.8210   -5.5410   24.0860 N   0  0  0  0  0  0  0  0  0  0  0  0
   13.6520   -2.0460   25.3120 C   0  0  0  0  0  0  0  0  0  0  0  0
    8.3580    1.3970   25.3320 C   0  0  0  0  0  0  0  0  0  0  0  0
    5.0800   -5.7110   25.6370 S   0  0  0  0  0  0  0  0  0  0  0  0
    8.8400    5.8290   23.8690 C   0  0  0  0  0  0  0  0  0  0  0  0
   12.3170   -2.2270   23.1760 C   0  0  0  0  0  0  0  0  0  0  0  0
    9.4660    6.9880   24.2780 O   0  0  0  0  0  0  0  0  0  0  0  0
   13.2470   -3.4170   25.4500 C   0  0  0  0  0  0  0  0  0  0  0  0
    8.5220    0.8850   26.6430 C   0  0  0  0  0  0  0  0  0  0  0  0
    4.4280   -6.9990   25.7140 O   0  0  0  0  0  0  0  0  0  0  0  0
    6.0020   -5.2690   26.6470 O   0  0  0  0  0  0  0  0  0  0  0  0
    3.8820   -4.5480   25.7390 C   0  0  0  0  0  0  0  0  0  0  0  0
   13.2080   -2.2950   21.9530 C   0  0  0  0  0  0  0  0  0  0  0  0
   10.8630    7.0860   23.9290 C   0  0  0  0  0  0  0  0  0  0  0  0
    7.6970   -0.2340   26.7660 C   0  0  0  0  0  0  0  0  0  0  0  0
    2.4260   -4.8600   25.3860 C   0  0  0  0  0  0  0  0  0  0  0  0
    4.1600   -3.1010   26.2020 C   0  0  0  0  0  0  0  0  0  0  0  0
   12.4790   -2.2300   20.7290 N   0  0  0  0  0  0  0  0  0  0  0  0
    1.9120   -6.1890   24.9110 C   0  0  0  0  0  0  0  0  0  0  0  0
    1.4350   -3.7220   25.5400 C   0  0  0  0  0  0  0  0  0  0  0  0
    3.1020   -2.1410   26.2920 C   0  0  0  0  0  0  0  0  0  0  0  0
    1.7780   -2.4520   25.9710 C   0  0  0  0  0  0  0  0  0  0  0  0
    0.7340   -1.4220   26.0940 C   0  0  0  0  0  0  0  0  0  0  0  0
  1  2  1  0
  2  3  2  0
  1  4  1  0
  1  5  1  1
  1  6  1  0
  2  7  1  0
  4  8  1  6
  5  9  1  0
  4 10  1  0
  6 11  1  0
  6 12  1  6
  7 13  1  0
  8 14  1  0
  8 15  2  0
 10 16  2  0
 10 17  1  0
 11 18  1  0
 19 12  1  6
 18 19  1  0
 20  9  1  0
 13 20  1  0
 17 21  2  0
 16 22  1  0
 14 23  1  0
 18 24  1  0
 19 25  1  0
 20 26  1  0
 20 27  1  0
 14 28  1  0
 21 29  1  0
 22 29  2  0
 23 30  2  0
 23 31  1  0
 24 32  1  0
 25 33  2  0
 32 33  1  0
 26 34  1  0
 27 35  1  0
 28 36  1  0
 30 37  1  0
 32 38  1  0
 30 39  1  0
 31 40  2  0
 34 41  1  0
 35 41  1  0
 38 42  1  1
 37 43  1  0
 41 44  1  0
 39 45  2  0
 40 45  1  0
 38 46  1  0
 45 47  1  0
 42 48  1  0
 43 49  1  0
 44 50  2  0
 44 51  2  0
 44 52  1  0
 46 53  1  0
 47 54  1  0
 49 55  1  0
 52 56  2  0
 52 57  1  0
 53 58  1  0
 56 59  1  0
 56 60  1  0
 57 61  2  0
 60 62  2  0
 61 62  1  0
 62 63  1  0
M  END
