x2703-x0691
     RDKit          3D

 51 56  0  0  0  0  0  0  0  0999 V2000
    6.6570   -1.4670   21.8190 C   0  0  1  0  0  0  0  0  0  0  0  0
    5.7460   -2.3820   20.9210 C   0  0  0  0  0  0  0  0  0  0  0  0
    4.6430   -2.8580   21.2610 O   0  0  0  0  0  0  0  0  0  0  0  0
    6.3490   -0.0300   21.7480 C   0  0  1  0  0  0  0  0  0  0  0  0
    5.7120   -1.8050   22.8570 C   0  0  0  0  0  0  0  0  0  0  0  0
    8.1180   -1.6170   22.4130 C   0  0  0  0  0  0  0  0  0  0  0  0
    6.0660   -2.8840   19.6730 C   0  0  0  0  0  0  0  0  0  0  0  0
    7.5620    0.9420   21.9350 C   0  0  0  0  0  0  0  0  0  0  0  0
    5.5220   -3.3550   22.8580 C   0  0  0  0  0  0  0  0  0  0  0  0
    5.8880    0.4090   20.4160 C   0  0  0  0  0  0  0  0  0  0  0  0
    8.2770   -1.3580   23.7680 C   0  0  0  0  0  0  0  0  0  0  0  0
    9.3050   -1.9490   21.7660 C   0  0  0  0  0  0  0  0  0  0  0  0
    6.5480   -4.1860   20.1750 C   0  0  0  0  0  0  0  0  0  0  0  0
    7.3080    2.0290   22.8720 N   0  0  0  0  0  0  0  0  0  0  0  0
    8.6190    0.8080   21.3200 O   0  0  0  0  0  0  0  0  0  0  0  0
    4.7130    1.1240   20.2140 C   0  0  0  0  0  0  0  0  0  0  0  0
    6.7140    0.1110   19.1630 C   0  0  0  0  0  0  0  0  0  0  0  0
   10.5630   -2.0240   22.3100 N   0  0  0  0  0  0  0  0  0  0  0  0
    9.5010   -1.4070   24.4030 C   0  0  0  0  0  0  0  0  0  0  0  0
    6.2950   -4.4150   21.8310 C   0  0  0  0  0  0  0  0  0  0  0  0
    6.4040    0.4890   17.9110 N   0  0  0  0  0  0  0  0  0  0  0  0
    4.3370    1.5440   18.9590 C   0  0  0  0  0  0  0  0  0  0  0  0
   10.6850   -1.7190   23.7560 C   0  0  0  0  0  0  0  0  0  0  0  0
    8.0870    3.2120   22.9600 C   0  0  0  0  0  0  0  0  0  0  0  0
    5.4100   -5.6910   21.8410 C   0  0  0  0  0  0  0  0  0  0  0  0
    7.4470   -4.9950   22.7010 C   0  0  0  0  0  0  0  0  0  0  0  0
   11.9560   -1.7000   24.5660 C   0  0  0  0  0  0  0  0  0  0  0  0
    5.1790    1.2480   17.7490 C   0  0  0  0  0  0  0  0  0  0  0  0
    9.3860    3.2130   23.5220 C   0  0  0  0  0  0  0  0  0  0  0  0
    7.5290    4.4010   22.4710 C   0  0  0  0  0  0  0  0  0  0  0  0
    5.0600   -6.3560   23.1800 C   0  0  0  0  0  0  0  0  0  0  0  0
    7.0400   -5.1760   24.1790 C   0  0  0  0  0  0  0  0  0  0  0  0
    9.9930    2.1200   24.0000 C   0  0  0  0  0  0  0  0  0  0  0  0
    6.1540    4.4450   21.8540 C   0  0  0  0  0  0  0  0  0  0  0  0
   12.6780   -2.9010   24.6290 C   0  0  0  0  0  0  0  0  0  0  0  0
   13.2140   -1.4650   23.7810 C   0  0  0  0  0  0  0  0  0  0  0  0
   10.0920    4.4200   23.5880 C   0  0  0  0  0  0  0  0  0  0  0  0
    8.2470    5.5910   22.5440 C   0  0  0  0  0  0  0  0  0  0  0  0
    5.5890   -5.5330   24.2910 N   0  0  0  0  0  0  0  0  0  0  0  0
    9.0740    1.4240   25.0140 C   0  0  0  0  0  0  0  0  0  0  0  0
    4.8220   -5.6180   25.8230 S   0  0  0  0  0  0  0  0  0  0  0  0
    9.5340    5.5990   23.1080 C   0  0  0  0  0  0  0  0  0  0  0  0
    4.1060   -6.8710   25.8900 O   0  0  0  0  0  0  0  0  0  0  0  0
    5.7890   -5.2600   26.8290 O   0  0  0  0  0  0  0  0  0  0  0  0
    3.5840   -4.3360   25.7740 C   0  0  0  0  0  0  0  0  0  0  0  0
    3.9600   -3.0040   25.8700 C   0  0  0  0  0  0  0  0  0  0  0  0
    2.2250   -4.6440   25.6450 C   0  0  0  0  0  0  0  0  0  0  0  0
    2.9710   -2.0100   25.8400 C   0  0  0  0  0  0  0  0  0  0  0  0
    1.2520   -3.6460   25.6160 C   0  0  0  0  0  0  0  0  0  0  0  0
    3.2790   -0.7050   25.9330 F   0  0  0  0  0  0  0  0  0  0  0  0
    1.6220   -2.3500   25.7140 C   0  0  0  0  0  0  0  0  0  0  0  0
  1  2  1  0
  2  3  2  0
  1  4  1  0
  1  5  1  0
  1  6  1  1
  2  7  1  0
  4  8  1  6
  5  9  1  0
  4 10  1  0
  6 11  2  0
  6 12  1  0
  7 13  1  0
  8 14  1  0
  8 15  2  0
 10 16  2  0
 10 17  1  0
 12 18  2  0
 11 19  1  0
 20  9  1  0
 13 20  1  0
 17 21  2  0
 16 22  1  0
 18 23  1  0
 19 23  2  0
 14 24  1  0
 20 25  1  0
 20 26  1  0
 23 27  1  0
 21 28  1  0
 22 28  2  0
 24 29  2  0
 24 30  1  0
 25 31  1  0
 26 32  1  0
 29 33  1  0
 30 34  1  0
 27 35  1  0
 27 36  1  0
 29 37  1  0
 30 38  2  0
 31 39  1  0
 32 39  1  0
 33 40  1  0
 39 41  1  0
 37 42  2  0
 38 42  1  0
 41 43  2  0
 41 44  2  0
 41 45  1  0
 45 46  2  0
 45 47  1  0
 46 48  1  0
 47 49  2  0
 48 50  1  0
 48 51  2  0
 49 51  1  0
M  END
