x2705-x2703
     RDKit          3D

 34 36  0  0  0  0  0  0  0  0999 V2000
    6.9900   -1.5450   21.8260 N   0  0  0  0  0  0  0  0  0  0  0  0
    6.1410   -2.7920   21.6180 C   0  0  0  0  0  0  0  0  0  0  0  0
    4.8790   -3.0620   21.2130 O   0  0  0  0  0  0  0  0  0  0  0  0
    6.6350   -0.0680   21.6140 C   0  0  1  0  0  0  0  0  0  0  0  0
    8.2450   -1.5810   22.6460 C   0  0  0  0  0  0  0  0  0  0  0  0
    6.9270   -4.0380   21.9550 C   0  0  0  0  0  0  0  0  0  0  0  0
    7.6940    0.8430   21.9280 C   0  0  0  0  0  0  0  0  0  0  0  0
    6.1020    0.3370   20.2510 C   0  0  0  0  0  0  0  0  0  0  0  0
    8.3940   -1.6010   23.9740 N   0  0  0  0  0  0  0  0  0  0  0  0
    9.4970   -1.5730   22.0090 C   0  0  0  0  0  0  0  0  0  0  0  0
    6.9000   -4.9950   20.7670 C   0  0  0  0  0  0  0  0  0  0  0  0
    7.4020    1.8790   22.8190 N   0  0  0  0  0  0  0  0  0  0  0  0
    8.7980    0.7450   21.3970 O   0  0  0  0  0  0  0  0  0  0  0  0
    4.9280    1.0950   20.2450 C   0  0  0  0  0  0  0  0  0  0  0  0
    6.7920   -0.0210   19.0840 C   0  0  0  0  0  0  0  0  0  0  0  0
    9.7160   -1.6020   24.2460 N   0  0  0  0  0  0  0  0  0  0  0  0
   10.5310   -1.5860   23.1550 C   0  0  0  0  0  0  0  0  0  0  0  0
   12.0520   -1.5830   23.2160 C   0  0  0  0  0  0  0  0  0  0  0  0
    6.3940    0.3470   17.8380 N   0  0  0  0  0  0  0  0  0  0  0  0
    4.4310    1.5240   19.0400 C   0  0  0  0  0  0  0  0  0  0  0  0
    8.0640    3.1560   22.9190 C   0  0  0  0  0  0  0  0  0  0  0  0
   12.5690   -0.2540   23.7970 C   0  0  0  0  0  0  0  0  0  0  0  0
   12.5570   -2.7670   24.0440 C   0  0  0  0  0  0  0  0  0  0  0  0
   12.6730   -1.7590   21.8130 C   0  0  0  0  0  0  0  0  0  0  0  0
    5.1700    1.1630   17.7580 C   0  0  0  0  0  0  0  0  0  0  0  0
    9.3550    3.1960   23.4930 C   0  0  0  0  0  0  0  0  0  0  0  0
    7.4900    4.3620   22.4780 C   0  0  0  0  0  0  0  0  0  0  0  0
   10.0710    1.9560   23.9910 C   0  0  0  0  0  0  0  0  0  0  0  0
    6.1210    4.4320   21.8440 C   0  0  0  0  0  0  0  0  0  0  0  0
   13.4300   -2.4700   25.2310 C   0  0  0  0  0  0  0  0  0  0  0  0
   10.0360    4.4250   23.6180 C   0  0  0  0  0  0  0  0  0  0  0  0
    8.1790    5.5830   22.6070 C   0  0  0  0  0  0  0  0  0  0  0  0
    9.2330    1.3050   24.9110 C   0  0  0  0  0  0  0  0  0  0  0  0
    9.4500    5.6140   23.1790 C   0  0  0  0  0  0  0  0  0  0  0  0
  1  2  1  0
  2  3  2  0
  1  4  1  0
  1  5  1  0
  2  6  1  0
  4  7  1  6
  4  8  1  0
  5  9  2  0
  5 10  1  0
  6 11  1  0
  7 12  1  0
  7 13  2  0
  8 14  2  0
  8 15  1  0
  9 16  1  0
 10 17  2  0
 16 17  1  0
 17 18  1  0
 15 19  2  0
 14 20  1  0
 12 21  1  0
 18 22  1  0
 18 23  1  0
 18 24  1  0
 19 25  1  0
 20 25  2  0
 21 26  2  0
 21 27  1  0
 26 28  1  0
 27 29  1  0
 23 30  1  0
 26 31  1  0
 27 32  2  0
 28 33  1  0
 31 34  2  0
 32 34  1  0
M  END
