x2705-x1374-x2694-x1402
     RDKit          3D

 60 65  0  0  0  0  0  0  0  0999 V2000
    6.7380   -1.2550   22.0040 N   0  0  0  0  0  0  0  0  0  0  0  0
    6.2550   -2.4960   21.3240 C   0  0  0  0  0  0  0  0  0  0  0  0
    4.9980   -3.1200   21.0270 O   0  0  0  0  0  0  0  0  0  0  0  0
    6.4430    0.1540   21.6560 C   0  0  1  0  0  0  0  0  0  0  0  0
    8.0650   -1.2940   22.6820 C   0  0  0  0  0  0  0  0  0  0  0  0
    7.6660   -3.0210   21.1060 C   0  0  2  0  0  0  0  0  0  0  0  0
    7.5740    1.0280   21.8210 C   0  0  0  0  0  0  0  0  0  0  0  0
    6.0570    0.4720   20.2350 C   0  0  0  0  0  0  0  0  0  0  0  0
    8.3150   -1.4220   24.1670 N   0  0  0  0  0  0  0  0  0  0  0  0
    9.4730   -1.2130   22.1270 C   0  0  0  0  0  0  0  0  0  0  0  0
    7.0800   -3.6310   19.8660 C   0  0  0  0  0  0  0  0  0  0  0  0
    7.3140    2.1840   22.7240 N   0  0  0  0  0  0  0  0  0  0  0  0
    8.6680    0.9260   21.2690 O   0  0  0  0  0  0  0  0  0  0  0  0
    4.7990    1.3600   20.1220 C   0  0  0  0  0  0  0  0  0  0  0  0
    6.7870    0.0250   19.1430 C   0  0  0  0  0  0  0  0  0  0  0  0
    9.6730   -1.4090   24.3710 N   0  0  0  0  0  0  0  0  0  0  0  0
   10.5510   -1.2870   23.1910 C   0  0  0  0  0  0  0  0  0  0  0  0
    8.0120   -3.9240   22.2180 C   0  0  0  0  0  0  0  0  0  0  0  0
   12.0950   -1.2620   23.2340 C   0  0  0  0  0  0  0  0  0  0  0  0
    6.3690    0.4200   17.8140 N   0  0  0  0  0  0  0  0  0  0  0  0
    4.4750    1.6880   18.8170 C   0  0  0  0  0  0  0  0  0  0  0  0
    8.1750    3.2990   22.9720 C   0  0  0  0  0  0  0  0  0  0  0  0
    9.1120   -3.9680   23.0850 C   0  0  0  0  0  0  0  0  0  0  0  0
    6.9640   -4.8990   22.3410 C   0  0  0  0  0  0  0  0  0  0  0  0
   12.6070    0.0040   23.5280 C   0  0  0  0  0  0  0  0  0  0  0  0
   12.6160   -2.2920   24.2700 C   0  0  0  0  0  0  0  0  0  0  0  0
   12.6540   -1.6480   22.0180 C   0  0  0  0  0  0  0  0  0  0  0  0
    5.1800    1.2830   17.7030 C   0  0  0  0  0  0  0  0  0  0  0  0
    9.4390    3.1720   23.5690 C   0  0  0  0  0  0  0  0  0  0  0  0
    7.7290    4.5840   22.6020 C   0  0  0  0  0  0  0  0  0  0  0  0
    9.1500   -4.9680   24.0600 C   0  0  0  0  0  0  0  0  0  0  0  0
    6.9650   -5.9420   23.3330 C   0  0  0  0  0  0  0  0  0  0  0  0
    9.9950    1.8170   23.9950 C   0  0  0  0  0  0  0  0  0  0  0  0
    6.3880    4.8270   21.9430 C   0  0  0  0  0  0  0  0  0  0  0  0
   10.2210   -5.2160   25.0050 C   0  0  0  0  0  0  0  0  0  0  0  0
   10.3400    4.3640   23.8360 C   0  0  0  0  0  0  0  0  0  0  0  0
    8.5270    5.7300   22.8360 C   0  0  0  0  0  0  0  0  0  0  0  0
    8.1750   -5.8800   24.2210 C   0  0  0  0  0  0  0  0  0  0  0  0
    5.7910   -6.8270   23.2430 C   0  0  0  0  0  0  0  0  0  0  0  0
    9.1440    1.3150   24.9810 C   0  0  0  0  0  0  0  0  0  0  0  0
    9.8080    5.7550   23.4320 C   0  0  0  0  0  0  0  0  0  0  0  0
    4.8860   -6.2310   22.5010 C   0  0  0  0  0  0  0  0  0  0  0  0
   10.5180    6.9860   23.6270 O   0  0  0  0  0  0  0  0  0  0  0  0
    4.1020   -5.2890   23.3850 C   0  0  2  0  0  0  0  0  0  0  0  0
   11.6210    6.9210   24.4480 C   0  0  0  0  0  0  0  0  0  0  0  0
    4.2460   -5.5660   24.9000 C   0  0  0  0  0  0  0  0  0  0  0  0
    2.7030   -5.8650   23.1510 C   0  0  0  0  0  0  0  0  0  0  0  0
    5.1580   -4.7610   26.1210 S   0  0  0  0  0  0  0  0  0  0  0  0
    2.7440   -7.2570   24.2300 S   0  0  0  0  0  0  0  0  0  0  0  0
    3.5620   -6.5560   25.4380 C   0  0  0  0  0  0  0  0  0  0  0  0
    1.3640   -7.5290   24.5220 O   0  0  0  0  0  0  0  0  0  0  0  0
    3.5510   -8.3040   23.7070 O   0  0  0  0  0  0  0  0  0  0  0  0
    4.8000   -5.4290   27.3440 O   0  0  0  0  0  0  0  0  0  0  0  0
    6.5120   -4.4890   25.7530 O   0  0  0  0  0  0  0  0  0  0  0  0
    4.3060   -3.3510   26.1440 C   0  0  0  0  0  0  0  0  0  0  0  0
    2.5910   -3.5890   26.0560 S   0  0  0  0  0  0  0  0  0  0  0  0
    4.6270   -2.0080   26.2140 C   0  0  0  0  0  0  0  0  0  0  0  0
    3.5040   -1.2140   26.1980 C   0  0  0  0  0  0  0  0  0  0  0  0
    2.3280   -1.9290   26.1200 C   0  0  0  0  0  0  0  0  0  0  0  0
    0.7280   -1.3200   26.0870 Cl  0  0  0  0  0  0  0  0  0  0  0  0
  1  2  1  0
  2  3  2  0
  1  4  1  0
  1  5  1  0
  2  6  1  0
  4  7  1  6
  4  8  1  0
  5  9  2  0
  5 10  1  0
  6 11  1  6
  7 12  1  0
  7 13  2  0
  8 14  2  0
  8 15  1  0
  9 16  1  0
 10 17  2  0
 16 17  1  0
  6 18  1  0
 17 19  1  0
 15 20  2  0
 14 21  1  0
 12 22  1  0
 18 23  2  0
 18 24  1  0
 19 25  1  0
 19 26  1  0
 19 27  1  0
 20 28  1  0
 21 28  2  0
 22 29  2  0
 22 30  1  0
 23 31  1  0
 24 32  2  0
 29 33  1  0
 30 34  1  0
 31 35  1  0
 29 36  1  0
 30 37  2  0
 31 38  2  0
 32 38  1  0
 32 39  1  0
 33 40  1  0
 36 41  2  0
 37 41  1  0
 39 42  1  0
 41 43  1  0
 44 42  1  6
 43 45  1  0
 44 46  1  0
 44 47  1  0
 48 46  1  0
 47 49  1  0
 46 50  2  0
 49 50  1  0
 49 51  1  0
 49 52  1  0
 48 53  2  0
 48 54  2  0
 48 55  1  0
 55 56  1  0
 55 57  2  0
 57 58  1  0
 56 59  1  0
 58 59  2  0
 59 60  1  0
M  END
