x2705-x2694-x3117-x1493-x2703
     RDKit          3D

 46 49  0  0  0  0  0  0  0  0999 V2000
    6.6590   -1.3560   22.2310 C   0  0  1  0  0  0  0  0  0  0  0  0
    5.8610   -2.7220   21.5960 C   0  0  0  0  0  0  0  0  0  0  0  0
    4.6060   -2.9450   21.5500 O   0  0  0  0  0  0  0  0  0  0  0  0
    6.4200    0.1010   21.6060 C   0  0  1  0  0  0  0  0  0  0  0  0
    5.9310   -1.1050   23.5720 C   0  0  0  0  0  0  0  0  0  0  0  0
    8.2020   -1.4750   22.6960 C   0  0  0  0  0  0  0  0  0  0  0  0
    6.5500   -3.8530   20.9960 C   0  0  1  0  0  0  0  0  0  0  0  0
    7.6890    0.9870   21.9690 C   0  0  0  0  0  0  0  0  0  0  0  0
    5.9860    0.4980   20.2400 C   0  0  0  0  0  0  0  0  0  0  0  0
    8.5290   -1.6140   24.1340 N   0  0  0  0  0  0  0  0  0  0  0  0
    9.4720   -1.4500   22.1090 C   0  0  0  0  0  0  0  0  0  0  0  0
    6.9580   -3.2960   19.6000 C   0  0  0  0  0  0  0  0  0  0  0  0
    7.3730    2.1820   22.7760 N   0  0  0  0  0  0  0  0  0  0  0  0
    8.8360    0.7920   21.5870 O   0  0  0  0  0  0  0  0  0  0  0  0
    4.8300    1.2260   20.0420 C   0  0  0  0  0  0  0  0  0  0  0  0
    6.7580    0.1690   19.1430 C   0  0  0  0  0  0  0  0  0  0  0  0
    9.9370   -1.6420   24.2870 N   0  0  0  0  0  0  0  0  0  0  0  0
   10.6650   -1.5430   23.1170 C   0  0  0  0  0  0  0  0  0  0  0  0
    7.4530   -4.5150   22.0840 C   0  0  1  0  0  0  0  0  0  0  0  0
   12.2290   -1.5160   22.9480 C   0  0  0  0  0  0  0  0  0  0  0  0
    6.4310    0.5630   17.7880 N   0  0  0  0  0  0  0  0  0  0  0  0
    4.4460    1.6520   18.7350 C   0  0  0  0  0  0  0  0  0  0  0  0
    8.2100    3.3020   22.9840 C   0  0  0  0  0  0  0  0  0  0  0  0
    7.0080   -4.1670   23.5270 C   0  0  0  0  0  0  0  0  0  0  0  0
    7.3950   -5.8170   21.7710 N   0  0  0  0  0  0  0  0  0  0  0  0
   12.6730   -0.1880   23.1690 C   0  0  0  0  0  0  0  0  0  0  0  0
   13.0680   -2.3890   23.9060 C   0  0  0  0  0  0  0  0  0  0  0  0
   12.6980   -1.9090   21.5350 C   0  0  0  0  0  0  0  0  0  0  0  0
    5.2250    1.3430   17.6370 C   0  0  0  0  0  0  0  0  0  0  0  0
    9.6060    3.1850   23.5920 C   0  0  0  0  0  0  0  0  0  0  0  0
    7.7530    4.5900   22.6300 C   0  0  0  0  0  0  0  0  0  0  0  0
    6.0710   -5.2090   24.0850 N   0  0  0  0  0  0  0  0  0  0  0  0
    6.0830   -6.4920   21.9740 C   0  0  0  0  0  0  0  0  0  0  0  0
   10.2240    1.8740   24.0060 C   0  0  0  0  0  0  0  0  0  0  0  0
    6.3940    4.7920   22.0080 C   0  0  0  0  0  0  0  0  0  0  0  0
   12.4220   -2.8830   24.9290 C   0  0  0  0  0  0  0  0  0  0  0  0
    5.7920   -5.3580   25.5210 C   0  0  0  0  0  0  0  0  0  0  0  0
   10.3440    4.3410   23.7780 C   0  0  0  0  0  0  0  0  0  0  0  0
    8.5530    5.7300   22.8480 C   0  0  0  0  0  0  0  0  0  0  0  0
    5.2420   -5.8280   23.0510 C   0  0  0  0  0  0  0  0  0  0  0  0
    9.4960    1.2740   24.7570 C   0  0  0  0  0  0  0  0  0  0  0  0
    4.8310   -6.2860   25.9160 C   0  0  0  0  0  0  0  0  0  0  0  0
    6.3600   -4.6770   26.6040 O   0  0  0  0  0  0  0  0  0  0  0  0
    9.8480    5.7340   23.4150 C   0  0  0  0  0  0  0  0  0  0  0  0
   10.6180    6.8960   23.6310 O   0  0  0  0  0  0  0  0  0  0  0  0
   11.7140    6.7850   24.5550 C   0  0  0  0  0  0  0  0  0  0  0  0
  1  2  1  0
  2  3  2  0
  1  4  1  0
  1  5  1  1
  1  6  1  0
  2  7  1  0
  4  8  1  6
  4  9  1  0
  6 10  2  0
  6 11  1  0
  7 12  1  6
  8 13  1  0
  8 14  2  0
  9 15  2  0
  9 16  1  0
 10 17  1  0
 11 18  2  0
 17 18  1  0
  7 19  1  0
 18 20  1  0
 16 21  2  0
 15 22  1  0
 13 23  1  0
 19 24  1  1
 19 25  1  0
 20 26  1  0
 20 27  1  0
 20 28  1  0
 21 29  1  0
 22 29  2  0
 23 30  2  0
 23 31  1  0
 24 32  1  0
 25 33  1  0
 30 34  1  0
 31 35  1  0
 27 36  1  0
 32 37  1  0
 30 38  1  0
 31 39  2  0
 32 40  1  0
 33 40  1  0
 34 41  1  0
 37 42  1  0
 37 43  2  0
 38 44  2  0
 39 44  1  0
 44 45  1  0
 45 46  1  0
M  END
