x2705-x0995-x2776-x0769
     RDKit          3D

 55 60  0  0  0  0  0  0  0  0999 V2000
    6.7900   -1.3530   21.8770 C   0  0  1  0  0  0  0  0  0  0  0  0
    5.8600   -2.3430   20.9510 C   0  0  0  0  0  0  0  0  0  0  0  0
    4.7080   -2.8900   21.2450 O   0  0  0  0  0  0  0  0  0  0  0  0
    6.5870    0.1420   21.6410 C   0  0  1  0  0  0  0  0  0  0  0  0
    5.9130   -1.8550   22.9930 C   0  0  0  0  0  0  0  0  0  0  0  0
    8.2750   -1.4750   22.5000 C   0  0  0  0  0  0  0  0  0  0  0  0
    6.3060   -2.8330   19.7310 C   0  0  0  0  0  0  0  0  0  0  0  0
    7.7540    1.1870   21.7680 C   0  0  0  0  0  0  0  0  0  0  0  0
    5.8860   -3.2850   22.9700 C   0  0  0  0  0  0  0  0  0  0  0  0
    6.0570    0.5370   20.3030 C   0  0  0  0  0  0  0  0  0  0  0  0
    8.3140   -1.6600   23.8710 N   0  0  0  0  0  0  0  0  0  0  0  0
    9.6230   -1.4110   22.0510 C   0  0  0  0  0  0  0  0  0  0  0  0
    7.2150   -3.7210   20.4010 C   0  0  0  0  0  0  0  0  0  0  0  0
    7.5780    2.1190   22.8090 N   0  0  0  0  0  0  0  0  0  0  0  0
    8.7320    1.2500   21.0330 O   0  0  0  0  0  0  0  0  0  0  0  0
    4.8980    1.2490   20.1770 C   0  0  0  0  0  0  0  0  0  0  0  0
    6.7470    0.1950   19.1440 C   0  0  0  0  0  0  0  0  0  0  0  0
    9.7830   -1.6910   24.2320 N   0  0  0  0  0  0  0  0  0  0  0  0
   10.5180   -1.5400   23.1330 C   0  0  0  0  0  0  0  0  0  0  0  0
    6.6010   -4.3270   21.8750 C   0  0  0  0  0  0  0  0  0  0  0  0
   12.0540   -1.5120   23.1460 C   0  0  0  0  0  0  0  0  0  0  0  0
    6.3560    0.5280   17.8520 N   0  0  0  0  0  0  0  0  0  0  0  0
    4.4600    1.6090   18.9270 C   0  0  0  0  0  0  0  0  0  0  0  0
    8.1940    3.4520   22.9690 C   0  0  0  0  0  0  0  0  0  0  0  0
    5.6290   -5.5020   21.7050 C   0  0  0  0  0  0  0  0  0  0  0  0
    7.5860   -5.0750   22.7980 C   0  0  0  0  0  0  0  0  0  0  0  0
   12.4270   -0.1900   23.6030 C   0  0  0  0  0  0  0  0  0  0  0  0
   12.3390   -2.6620   23.8500 C   0  0  0  0  0  0  0  0  0  0  0  0
   12.5700   -1.7900   21.8620 C   0  0  0  0  0  0  0  0  0  0  0  0
    3.3240    2.3110   18.8390 N   0  0  0  0  0  0  0  0  0  0  0  0
    5.2170    1.2330   17.8280 C   0  0  0  0  0  0  0  0  0  0  0  0
    9.4800    3.5550   23.5760 C   0  0  0  0  0  0  0  0  0  0  0  0
    7.5120    4.5290   22.5340 C   0  0  0  0  0  0  0  0  0  0  0  0
    5.1500   -6.0920   22.8890 C   0  0  0  0  0  0  0  0  0  0  0  0
    7.0480   -5.1790   24.0930 C   0  0  0  0  0  0  0  0  0  0  0  0
   10.1020    2.1820   23.9810 C   0  0  0  0  0  0  0  0  0  0  0  0
    6.1580    4.5360   21.8720 C   0  0  0  0  0  0  0  0  0  0  0  0
   13.2850   -2.5410   25.0650 C   0  0  0  0  0  0  0  0  0  0  0  0
   10.2990    4.6580   23.8790 C   0  0  0  0  0  0  0  0  0  0  0  0
    8.1280    5.7000   22.7240 C   0  0  0  0  0  0  0  0  0  0  0  0
    5.6820   -5.3750   24.0900 N   0  0  0  0  0  0  0  0  0  0  0  0
    9.2160    1.5010   24.8310 C   0  0  0  0  0  0  0  0  0  0  0  0
   10.7220    6.0240   23.9730 O   0  0  0  0  0  0  0  0  0  0  0  0
    4.8920   -5.4520   25.5740 S   0  0  0  0  0  0  0  0  0  0  0  0
    9.3670    5.7400   23.3270 C   0  0  0  0  0  0  0  0  0  0  0  0
   11.8340    6.3090   24.7160 C   0  0  0  0  0  0  0  0  0  0  0  0
    5.8760   -5.3060   26.6150 O   0  0  0  0  0  0  0  0  0  0  0  0
    3.9530   -6.7390   25.5490 O   0  0  0  0  0  0  0  0  0  0  0  0
    3.8320   -4.0310   25.7010 C   0  0  0  0  0  0  0  0  0  0  0  0
    4.3710   -2.7330   25.9970 C   0  0  0  0  0  0  0  0  0  0  0  0
    2.4430   -4.1490   25.5220 C   0  0  0  0  0  0  0  0  0  0  0  0
    5.6840   -2.5350   26.1850 F   0  0  0  0  0  0  0  0  0  0  0  0
    1.4530   -2.9980   25.6190 C   0  0  0  0  0  0  0  0  0  0  0  0
    3.5190   -1.6220   26.1000 C   0  0  0  0  0  0  0  0  0  0  0  0
    2.1470   -1.6760   25.9360 C   0  0  0  0  0  0  0  0  0  0  0  0
  1  2  1  0
  2  3  2  0
  1  4  1  0
  1  5  1  0
  1  6  1  1
  2  7  1  0
  4  8  1  6
  5  9  1  0
  4 10  1  0
  6 11  2  0
  6 12  1  0
  7 13  1  0
  8 14  1  0
  8 15  2  0
 10 16  2  0
 10 17  1  0
 11 18  1  0
 12 19  2  0
 18 19  1  0
 20  9  1  0
 13 20  1  0
 19 21  1  0
 17 22  2  0
 16 23  1  0
 14 24  1  0
 20 25  1  0
 20 26  1  0
 21 27  1  0
 21 28  1  0
 21 29  1  0
 23 30  1  0
 22 31  1  0
 23 31  2  0
 24 32  2  0
 24 33  1  0
 25 34  1  0
 26 35  1  0
 32 36  1  0
 33 37  1  0
 28 38  1  0
 32 39  1  0
 33 40  2  0
 34 41  1  0
 35 41  1  0
 36 42  1  0
 39 43  1  0
 41 44  1  0
 39 45  2  0
 40 45  1  0
 43 46  1  0
 44 47  2  0
 44 48  2  0
 44 49  1  0
 49 50  2  0
 49 51  1  0
 50 52  1  0
 51 53  2  0
 50 54  1  0
 53 55  1  0
 54 55  2  0
M  END
