x2705-x2694-x2193-x0731-x0540
     RDKit          3D

 69 75  0  0  0  0  0  0  0  0999 V2000
    6.9120   -1.5190   21.8440 N   0  0  0  0  0  0  0  0  0  0  0  0
    5.9700   -2.5680   21.2390 C   0  0  0  0  0  0  0  0  0  0  0  0
    4.7550   -3.0600   21.5190 O   0  0  0  0  0  0  0  0  0  0  0  0
    6.6430   -0.0690   21.5410 C   0  0  1  0  0  0  0  0  0  0  0  0
    8.1780   -1.5690   22.6620 C   0  0  0  0  0  0  0  0  0  0  0  0
    6.4460   -3.2360   20.0450 C   0  0  0  0  0  0  0  0  0  0  0  0
    7.8450    0.9330   21.8910 C   0  0  0  0  0  0  0  0  0  0  0  0
    6.1770    0.3220   20.2850 C   0  0  0  0  0  0  0  0  0  0  0  0
    8.3470   -1.6360   24.0160 N   0  0  0  0  0  0  0  0  0  0  0  0
    9.5340   -1.5060   22.0830 C   0  0  0  0  0  0  0  0  0  0  0  0
    7.6360   -4.0370   20.4470 C   0  0  0  0  0  0  0  0  0  0  0  0
    7.5690    1.9810   22.7760 N   0  0  0  0  0  0  0  0  0  0  0  0
    8.9470    0.8090   21.3670 O   0  0  0  0  0  0  0  0  0  0  0  0
    5.0110    1.0260   20.1290 C   0  0  0  0  0  0  0  0  0  0  0  0
    6.8080    0.0960   19.0120 C   0  0  0  0  0  0  0  0  0  0  0  0
    9.7060   -1.6110   24.2790 N   0  0  0  0  0  0  0  0  0  0  0  0
   10.4240   -1.5320   23.1500 C   0  0  0  0  0  0  0  0  0  0  0  0
   11.9780   -1.4790   23.2320 C   0  0  0  0  0  0  0  0  0  0  0  0
    4.0680    1.4350   21.2700 C   0  0  0  0  0  0  0  0  0  0  0  0
    6.4390    0.4740   17.7740 N   0  0  0  0  0  0  0  0  0  0  0  0
    4.5850    1.4550   18.7870 C   0  0  0  0  0  0  0  0  0  0  0  0
    8.3210    3.1950   22.9770 C   0  0  0  0  0  0  0  0  0  0  0  0
    7.4580   -5.1380   21.4570 N   0  0  0  0  0  0  0  0  0  0  0  0
   12.4040   -0.2190   23.6790 C   0  0  0  0  0  0  0  0  0  0  0  0
   12.5650   -2.4980   24.2320 C   0  0  0  0  0  0  0  0  0  0  0  0
   12.6680   -1.7050   21.8780 C   0  0  0  0  0  0  0  0  0  0  0  0
    4.7470    2.0110   22.2680 C   0  0  0  0  0  0  0  0  0  0  0  0
    5.2910    1.1850   17.6760 C   0  0  0  0  0  0  0  0  0  0  0  0
    9.5650    3.1280   23.5610 C   0  0  0  0  0  0  0  0  0  0  0  0
    7.8210    4.4560   22.5990 C   0  0  0  0  0  0  0  0  0  0  0  0
    8.0570   -4.8030   22.7340 C   0  0  0  0  0  0  0  0  0  0  0  0
    6.2130   -5.9370   21.6470 C   0  0  0  0  0  0  0  0  0  0  0  0
   10.1730    1.8210   23.9890 C   0  0  0  0  0  0  0  0  0  0  0  0
    6.4860    4.7000   21.9410 C   0  0  0  0  0  0  0  0  0  0  0  0
    3.8740    2.9540   22.6700 N   0  0  0  0  0  0  0  0  0  0  0  0
   10.2830    4.2890   23.7700 C   0  0  0  0  0  0  0  0  0  0  0  0
    8.6020    5.6230   22.8410 C   0  0  0  0  0  0  0  0  0  0  0  0
    7.1450   -4.2680   23.6460 C   0  0  0  0  0  0  0  0  0  0  0  0
    5.4240   -5.7320   22.8200 C   0  0  0  0  0  0  0  0  0  0  0  0
    9.3530    1.1760   24.9520 C   0  0  0  0  0  0  0  0  0  0  0  0
    2.7550    2.5670   23.5140 C   0  0  0  0  0  0  0  0  0  0  0  0
    9.8790    5.6900   23.4380 C   0  0  0  0  0  0  0  0  0  0  0  0
    6.1190   -5.2180   24.0150 N   0  0  0  0  0  0  0  0  0  0  0  0
   10.5680    6.8630   23.6470 O   0  0  0  0  0  0  0  0  0  0  0  0
    2.8440    1.5980   24.5580 O   0  0  0  0  0  0  0  0  0  0  0  0
    1.6230    3.2680   23.1540 N   0  0  0  0  0  0  0  0  0  0  0  0
    5.4850   -5.2800   25.6010 S   0  0  2  0  0  0  0  0  0  0  0  0
   11.6920    6.7860   24.5670 C   0  0  0  0  0  0  0  0  0  0  0  0
    6.6190   -4.5660   26.6140 N   0  0  0  0  0  0  0  0  0  0  0  0
    4.9460   -6.6120   25.7640 O   0  0  0  0  0  0  0  0  0  0  0  0
    0.4750    3.2920   24.0380 C   0  0  0  0  0  0  0  0  0  0  0  0
    4.1050   -4.1610   25.6960 C   0  0  0  0  0  0  0  0  0  0  0  0
    0.4640    4.6710   24.7070 C   0  0  0  0  0  0  0  0  0  0  0  0
   -0.7840    2.9720   23.1810 C   0  0  0  0  0  0  0  0  0  0  0  0
    7.8370   -5.1760   26.9040 C   0  0  1  0  0  0  0  0  0  0  0  0
    2.6960   -4.4020   25.1820 C   0  0  0  0  0  0  0  0  0  0  0  0
    4.3270   -2.8240   26.3610 C   0  0  0  0  0  0  0  0  0  0  0  0
   -0.8290    4.9710   25.1720 C   0  0  0  0  0  0  0  0  0  0  0  0
   -1.9270    3.5000   23.7810 C   0  0  0  0  0  0  0  0  0  0  0  0
    8.1320   -6.0580   25.8130 N   0  0  0  0  0  0  0  0  0  0  0  0
    8.8510   -4.2730   27.0820 C   0  0  0  0  0  0  0  0  0  0  0  0
    1.7220   -3.3940   25.3630 C   0  0  0  0  0  0  0  0  0  0  0  0
    3.3150   -1.8870   26.4970 C   0  0  0  0  0  0  0  0  0  0  0  0
   -1.9150    4.8060   24.2870 C   0  0  0  0  0  0  0  0  0  0  0  0
    9.3140   -3.6450   25.8220 N   0  0  0  0  0  0  0  0  0  0  0  0
    9.5190   -5.9710   25.3140 C   0  0  0  0  0  0  0  0  0  0  0  0
    2.0180   -2.1590   26.0110 C   0  0  0  0  0  0  0  0  0  0  0  0
    0.9450   -1.1260   26.1860 C   0  0  0  0  0  0  0  0  0  0  0  0
   10.0500   -4.6960   25.1130 C   0  0  0  0  0  0  0  0  0  0  0  0
  1  2  1  0
  2  3  2  0
  1  4  1  0
  1  5  1  0
  2  6  1  0
  4  7  1  6
  4  8  1  0
  5  9  2  0
  5 10  1  0
  6 11  1  0
  7 12  1  0
  7 13  2  0
  8 14  1  0
  8 15  2  0
  9 16  1  0
 10 17  2  0
 16 17  1  0
 17 18  1  0
 14 19  1  0
 15 20  1  0
 14 21  2  0
 12 22  1  0
 11 23  1  0
 18 24  1  0
 18 25  1  0
 18 26  1  0
 19 27  1  0
 20 28  2  0
 21 28  1  0
 22 29  2  0
 22 30  1  0
 23 31  1  0
 23 32  1  0
 29 33  1  0
 30 34  1  0
 27 35  1  0
 29 36  1  0
 30 37  2  0
 31 38  1  0
 32 39  1  0
 33 40  1  0
 35 41  1  0
 36 42  2  0
 37 42  1  0
 38 43  1  0
 39 43  1  0
 42 44  1  0
 41 45  2  0
 41 46  1  0
 43 47  1  0
 44 48  1  0
 47 49  2  0
 47 50  2  0
 46 51  1  0
 47 52  1  6
 51 53  1  0
 51 54  1  0
 55 49  1  6
 52 56  2  0
 52 57  1  0
 53 58  1  0
 54 59  1  0
 55 60  1  0
 55 61  1  0
 56 62  1  0
 57 63  2  0
 58 64  1  0
 59 64  1  0
 61 65  1  0
 60 66  1  0
 62 67  2  0
 63 67  1  0
 67 68  1  0
 65 69  1  0
 66 69  1  0
M  END
