x2705-x1493-x2776-x2703
     RDKit          3D

 46 49  0  0  0  0  0  0  0  0999 V2000
    6.6030   -1.2080   22.3450 C   0  0  1  0  0  0  0  0  0  0  0  0
    6.0330   -2.5830   21.6570 C   0  0  0  0  0  0  0  0  0  0  0  0
    4.8070   -3.0090   21.2900 O   0  0  0  0  0  0  0  0  0  0  0  0
    6.5030    0.1820   21.6560 C   0  0  1  0  0  0  0  0  0  0  0  0
    5.7640   -1.0380   23.6120 C   0  0  0  0  0  0  0  0  0  0  0  0
    8.1410   -1.2910   22.8480 C   0  0  0  0  0  0  0  0  0  0  0  0
    7.0520   -3.5300   21.4970 C   0  0  2  0  0  0  0  0  0  0  0  0
    7.6230    1.2460   21.9070 C   0  0  0  0  0  0  0  0  0  0  0  0
    6.0680    0.4780   20.2450 C   0  0  0  0  0  0  0  0  0  0  0  0
    8.4370   -1.3750   24.2400 N   0  0  0  0  0  0  0  0  0  0  0  0
    9.4150   -1.2780   22.2070 C   0  0  0  0  0  0  0  0  0  0  0  0
    6.7510   -4.2250   20.1750 C   0  0  0  0  0  0  0  0  0  0  0  0
    7.5610    2.1420   22.9080 N   0  0  0  0  0  0  0  0  0  0  0  0
    8.6260    1.2100   20.9850 O   0  0  0  0  0  0  0  0  0  0  0  0
    4.9490    1.2240   20.0700 C   0  0  0  0  0  0  0  0  0  0  0  0
    6.7740    0.0430   19.1340 C   0  0  0  0  0  0  0  0  0  0  0  0
    9.8250   -1.3920   24.3070 N   0  0  0  0  0  0  0  0  0  0  0  0
   10.4900   -1.3320   23.0630 C   0  0  0  0  0  0  0  0  0  0  0  0
    7.3570   -4.4390   22.7020 C   0  0  1  0  0  0  0  0  0  0  0  0
   11.9840   -1.3300   23.0140 C   0  0  0  0  0  0  0  0  0  0  0  0
    6.3970    0.3460   17.8760 N   0  0  0  0  0  0  0  0  0  0  0  0
    4.5240    1.5600   18.8180 C   0  0  0  0  0  0  0  0  0  0  0  0
    8.1800    3.4260   22.9710 C   0  0  0  0  0  0  0  0  0  0  0  0
    6.8310   -4.1840   23.9570 C   0  0  0  0  0  0  0  0  0  0  0  0
    7.1880   -5.7920   22.1580 N   0  0  0  0  0  0  0  0  0  0  0  0
   12.5350   -0.1030   23.4040 C   0  0  0  0  0  0  0  0  0  0  0  0
   12.6510   -1.4580   24.3850 C   0  0  0  0  0  0  0  0  0  0  0  0
   12.5860   -2.0660   21.9630 C   0  0  0  0  0  0  0  0  0  0  0  0
    5.2420    1.1340   17.7260 C   0  0  0  0  0  0  0  0  0  0  0  0
    9.4860    3.5770   23.5000 C   0  0  0  0  0  0  0  0  0  0  0  0
    7.4430    4.5270   22.4990 C   0  0  0  0  0  0  0  0  0  0  0  0
    5.9910   -5.2650   24.4070 N   0  0  0  0  0  0  0  0  0  0  0  0
    5.8590   -6.3860   22.3450 C   0  0  0  0  0  0  0  0  0  0  0  0
   10.2510    2.3560   23.9690 C   0  0  0  0  0  0  0  0  0  0  0  0
    6.0570    4.4520   21.9080 C   0  0  0  0  0  0  0  0  0  0  0  0
   13.0500   -2.8860   24.8070 C   0  0  0  0  0  0  0  0  0  0  0  0
    6.0830   -5.6540   25.7270 C   0  0  0  0  0  0  0  0  0  0  0  0
   10.0310    4.8980   23.5630 C   0  0  0  0  0  0  0  0  0  0  0  0
    8.0760    5.7740   22.6000 C   0  0  0  0  0  0  0  0  0  0  0  0
    5.1350   -5.8870   23.4000 C   0  0  0  0  0  0  0  0  0  0  0  0
    9.3730    1.4550   24.8490 C   0  0  0  0  0  0  0  0  0  0  0  0
   11.2970    5.1050   24.0850 O   0  0  0  0  0  0  0  0  0  0  0  0
    4.8780   -6.1420   26.2230 C   0  0  0  0  0  0  0  0  0  0  0  0
    7.1080   -5.5970   26.4050 O   0  0  0  0  0  0  0  0  0  0  0  0
    9.3460    6.0130   23.1190 C   0  0  0  0  0  0  0  0  0  0  0  0
   11.5790    6.3250   24.8170 C   0  0  0  0  0  0  0  0  0  0  0  0
  1  2  1  0
  2  3  2  0
  1  4  1  0
  1  5  1  1
  1  6  1  0
  2  7  1  0
  4  8  1  6
  4  9  1  0
  6 10  2  0
  6 11  1  0
  7 12  1  6
  8 13  1  0
  8 14  2  0
  9 15  2  0
  9 16  1  0
 10 17  1  0
 11 18  2  0
 17 18  1  0
  7 19  1  0
 18 20  1  0
 16 21  2  0
 15 22  1  0
 13 23  1  0
 19 24  1  1
 19 25  1  0
 20 26  1  0
 20 27  1  0
 20 28  1  0
 21 29  1  0
 22 29  2  0
 23 30  2  0
 23 31  1  0
 24 32  1  0
 25 33  1  0
 30 34  1  0
 31 35  1  0
 27 36  1  0
 32 37  1  0
 30 38  1  0
 31 39  2  0
 32 40  1  0
 33 40  1  0
 34 41  1  0
 38 42  1  0
 37 43  1  0
 37 44  2  0
 38 45  2  0
 39 45  1  0
 42 46  1  0
M  END
