x2703-x0995-x2694-x1308
     RDKit          3D

 56 61  0  0  0  0  0  0  0  0999 V2000
    6.8890   -1.2080   21.9610 C   0  0  1  0  0  0  0  0  0  0  0  0
    5.7100   -2.1720   21.3560 C   0  0  0  0  0  0  0  0  0  0  0  0
    4.8940   -2.9920   20.6880 O   0  0  0  0  0  0  0  0  0  0  0  0
    6.6780    0.3260   21.6440 C   0  0  1  0  0  0  0  0  0  0  0  0
    6.1910   -1.7270   23.2170 C   0  0  0  0  0  0  0  0  0  0  0  0
    8.4280   -1.3840   22.5420 C   0  0  0  0  0  0  0  0  0  0  0  0
    6.5900   -2.4110   20.2150 C   0  0  0  0  0  0  0  0  0  0  0  0
    7.6090    1.4270   21.7410 C   0  0  0  0  0  0  0  0  0  0  0  0
    5.6650   -3.1930   22.8540 C   0  0  0  0  0  0  0  0  0  0  0  0
    6.0970    0.6240   20.3240 C   0  0  0  0  0  0  0  0  0  0  0  0
    8.5670   -1.4810   23.9100 N   0  0  0  0  0  0  0  0  0  0  0  0
    9.6400   -1.4160   21.9800 C   0  0  0  0  0  0  0  0  0  0  0  0
    6.7980   -3.8830   20.3190 C   0  0  0  0  0  0  0  0  0  0  0  0
    7.2060    2.6780   22.4070 N   0  0  0  0  0  0  0  0  0  0  0  0
    8.9060    1.3940   21.1440 O   0  0  0  0  0  0  0  0  0  0  0  0
    4.9340    1.3050   20.1870 C   0  0  0  0  0  0  0  0  0  0  0  0
    6.7950    0.2020   19.1950 C   0  0  0  0  0  0  0  0  0  0  0  0
    9.7960   -1.5550   24.1960 O   0  0  0  0  0  0  0  0  0  0  0  0
   10.5300   -1.5190   23.0530 C   0  0  0  0  0  0  0  0  0  0  0  0
    6.5170   -4.2980   21.9050 C   0  0  0  0  0  0  0  0  0  0  0  0
   12.0380   -1.5810   23.2470 C   0  0  0  0  0  0  0  0  0  0  0  0
    6.3160    0.4870   17.9680 N   0  0  0  0  0  0  0  0  0  0  0  0
    4.4560    1.5930   18.9130 C   0  0  0  0  0  0  0  0  0  0  0  0
    8.2040    3.7460   22.7760 C   0  0  0  0  0  0  0  0  0  0  0  0
    7.6170   -4.6230   22.6740 C   0  0  0  0  0  0  0  0  0  0  0  0
    5.7430   -5.6500   21.8710 C   0  0  0  0  0  0  0  0  0  0  0  0
    5.8220    3.1780   22.5960 C   0  0  0  0  0  0  0  0  0  0  0  0
   13.1070   -1.7310   22.3920 C   0  0  0  0  0  0  0  0  0  0  0  0
   12.6480   -0.3100   22.7050 C   0  0  0  0  0  0  0  0  0  0  0  0
   12.4060   -1.6970   24.6210 C   0  0  0  0  0  0  0  0  0  0  0  0
    3.2120    2.3350   18.8820 N   0  0  0  0  0  0  0  0  0  0  0  0
    5.1700    1.1760   17.8180 C   0  0  0  0  0  0  0  0  0  0  0  0
    9.1110    3.2530   23.6690 C   0  0  0  0  0  0  0  0  0  0  0  0
    8.0540    5.0390   22.1880 C   0  0  0  0  0  0  0  0  0  0  0  0
    7.2870   -4.9040   24.0020 C   0  0  0  0  0  0  0  0  0  0  0  0
    5.0760   -5.8810   23.0740 C   0  0  0  0  0  0  0  0  0  0  0  0
    5.4570    4.0160   21.5420 C   0  0  0  0  0  0  0  0  0  0  0  0
    8.8860    1.8370   24.0360 C   0  0  0  0  0  0  0  0  0  0  0  0
   13.1480   -2.9720   25.0270 C   0  0  0  0  0  0  0  0  0  0  0  0
   10.1190    4.0090   24.1890 C   0  0  0  0  0  0  0  0  0  0  0  0
    9.1480    5.7690   22.7910 C   0  0  0  0  0  0  0  0  0  0  0  0
    5.9380   -5.5700   24.2400 N   0  0  0  0  0  0  0  0  0  0  0  0
    7.8640    1.8000   25.1930 C   0  0  0  0  0  0  0  0  0  0  0  0
    5.2360   -5.7420   25.7780 S   0  0  0  0  0  0  0  0  0  0  0  0
   10.1420    5.4190   23.7060 C   0  0  0  0  0  0  0  0  0  0  0  0
   11.0640    6.3660   24.1040 O   0  0  0  0  0  0  0  0  0  0  0  0
    6.1830   -5.5710   26.8380 O   0  0  0  0  0  0  0  0  0  0  0  0
    4.4380   -6.9480   25.7420 O   0  0  0  0  0  0  0  0  0  0  0  0
    4.0700   -4.4070   25.9420 C   0  0  0  0  0  0  0  0  0  0  0  0
   11.8870    6.1040   25.1510 C   0  0  0  0  0  0  0  0  0  0  0  0
    4.4680   -2.9630   26.3340 C   0  0  0  0  0  0  0  0  0  0  0  0
    2.5990   -4.7530   25.6840 C   0  0  0  0  0  0  0  0  0  0  0  0
    3.3230   -1.9060   26.4600 C   0  0  0  0  0  0  0  0  0  0  0  0
    1.4820   -3.7400   25.8010 C   0  0  0  0  0  0  0  0  0  0  0  0
    1.8630   -2.2990   26.2010 C   0  0  0  0  0  0  0  0  0  0  0  0
    0.6290   -1.1140   26.3650 Cl  0  0  0  0  0  0  0  0  0  0  0  0
  1  2  1  0
  2  3  2  0
  1  4  1  0
  1  5  1  0
  1  6  1  1
  2  7  1  0
  4  8  1  6
  5  9  1  0
  4 10  1  0
  6 11  2  0
  6 12  1  0
  7 13  1  0
  8 14  1  0
  8 15  2  0
 10 16  2  0
 10 17  1  0
 11 18  1  0
 12 19  2  0
 18 19  1  0
 20  9  1  0
 13 20  1  0
 19 21  1  0
 17 22  2  0
 16 23  1  0
 14 24  1  0
 20 25  1  0
 20 26  1  0
 14 27  1  0
 21 28  1  0
 21 29  1  0
 21 30  1  0
 23 31  1  0
 22 32  1  0
 23 32  2  0
 24 33  2  0
 24 34  1  0
 25 35  1  0
 26 36  1  0
 27 37  1  0
 33 38  1  0
 30 39  1  0
 33 40  1  0
 34 41  2  0
 35 42  1  0
 36 42  1  0
 38 43  1  0
 42 44  1  0
 40 45  2  0
 41 45  1  0
 45 46  1  0
 44 47  2  0
 44 48  2  0
 44 49  1  0
 46 50  1  0
 49 51  2  0
 49 52  1  0
 51 53  1  0
 52 54  2  0
 53 55  2  0
 54 55  1  0
 55 56  1  0
M  END
