x2705-x2764
     RDKit          3D

 34 36  0  0  0  0  0  0  0  0999 V2000
    7.1700   -1.4940   21.5820 C   0  0  2  0  0  0  0  0  0  0  0  0
    6.1620   -2.8570   21.5400 C   0  0  0  0  0  0  0  0  0  0  0  0
    4.8670   -3.0510   21.2230 O   0  0  0  0  0  0  0  0  0  0  0  0
    6.5910   -0.0370   21.5640 C   0  0  1  0  0  0  0  0  0  0  0  0
    7.8490   -1.5150   20.5120 N   0  0  0  0  0  0  0  0  0  0  0  0
    8.4470   -1.5710   22.4940 C   0  0  0  0  0  0  0  0  0  0  0  0
    6.8420   -4.1590   21.8490 C   0  0  0  0  0  0  0  0  0  0  0  0
    7.6190    0.9210   21.8240 C   0  0  0  0  0  0  0  0  0  0  0  0
    6.0650    0.4650   20.2220 C   0  0  0  0  0  0  0  0  0  0  0  0
    8.4380   -1.6850   23.8330 N   0  0  0  0  0  0  0  0  0  0  0  0
    9.7880   -1.5040   22.0660 C   0  0  0  0  0  0  0  0  0  0  0  0
    6.8020   -5.0160   20.5710 C   0  0  0  0  0  0  0  0  0  0  0  0
    7.2850    2.0280   22.7570 N   0  0  0  0  0  0  0  0  0  0  0  0
    8.7210    0.8620   21.2890 O   0  0  0  0  0  0  0  0  0  0  0  0
    4.8650    1.1890   20.1940 C   0  0  0  0  0  0  0  0  0  0  0  0
    6.7560    0.2410   18.9970 C   0  0  0  0  0  0  0  0  0  0  0  0
    9.7270   -1.6850   24.2750 N   0  0  0  0  0  0  0  0  0  0  0  0
   10.6740   -1.5810   23.3000 C   0  0  0  0  0  0  0  0  0  0  0  0
   12.1910   -1.5500   23.4720 C   0  0  0  0  0  0  0  0  0  0  0  0
    6.3780    0.6720   17.7680 N   0  0  0  0  0  0  0  0  0  0  0  0
    4.3770    1.6840   19.0030 C   0  0  0  0  0  0  0  0  0  0  0  0
    8.0590    3.2280   22.9060 C   0  0  0  0  0  0  0  0  0  0  0  0
   12.6040   -0.2720   23.8940 C   0  0  0  0  0  0  0  0  0  0  0  0
   12.6760   -2.5980   24.4960 C   0  0  0  0  0  0  0  0  0  0  0  0
   12.8810   -1.8540   22.1210 C   0  0  0  0  0  0  0  0  0  0  0  0
    5.1390    1.4450   17.7070 C   0  0  0  0  0  0  0  0  0  0  0  0
    9.3550    3.2450   23.4560 C   0  0  0  0  0  0  0  0  0  0  0  0
    7.4910    4.4420   22.4830 C   0  0  0  0  0  0  0  0  0  0  0  0
   10.0760    2.0000   23.9340 C   0  0  0  0  0  0  0  0  0  0  0  0
    6.1140    4.5150   21.8720 C   0  0  0  0  0  0  0  0  0  0  0  0
   10.0550    4.4590   23.5840 C   0  0  0  0  0  0  0  0  0  0  0  0
    8.1950    5.6490   22.6130 C   0  0  0  0  0  0  0  0  0  0  0  0
    9.2900    1.2750   24.8440 C   0  0  0  0  0  0  0  0  0  0  0  0
    9.4760    5.6630   23.1650 C   0  0  0  0  0  0  0  0  0  0  0  0
  1  2  1  0
  2  3  2  0
  1  4  1  0
  1  5  1  6
  1  6  1  0
  2  7  1  0
  4  8  1  6
  4  9  1  0
  6 10  2  0
  6 11  1  0
  7 12  1  0
  8 13  1  0
  8 14  2  0
  9 15  2  0
  9 16  1  0
 10 17  1  0
 11 18  2  0
 17 18  1  0
 18 19  1  0
 16 20  2  0
 15 21  1  0
 13 22  1  0
 19 23  1  0
 19 24  1  0
 19 25  1  0
 20 26  1  0
 21 26  2  0
 22 27  2  0
 22 28  1  0
 27 29  1  0
 28 30  1  0
 27 31  1  0
 28 32  2  0
 29 33  1  0
 31 34  2  0
 32 34  1  0
M  END
