x2705-x1374-x3117-x1458-x1311
     RDKit          3D

 54 58  0  0  0  0  0  0  0  0999 V2000
    6.7560   -1.0950   21.3100 N   0  0  0  0  0  0  0  0  0  0  0  0
    5.5080   -2.0060   21.3650 C   0  0  0  0  0  0  0  0  0  0  0  0
    4.4680   -2.7700   21.4080 O   0  0  0  0  0  0  0  0  0  0  0  0
    6.3830    0.3350   21.2510 C   0  0  1  0  0  0  0  0  0  0  0  0
    8.0180   -1.2750   22.0970 C   0  0  0  0  0  0  0  0  0  0  0  0
    6.0940   -3.3170   20.5150 C   0  0  1  0  0  0  0  0  0  0  0  0
    7.3750    1.3840   21.5340 C   0  0  0  0  0  0  0  0  0  0  0  0
    5.8220    0.7940   19.8500 C   0  0  0  0  0  0  0  0  0  0  0  0
    8.1620   -1.3420   23.4500 N   0  0  0  0  0  0  0  0  0  0  0  0
    9.2590   -1.3940   21.5170 C   0  0  0  0  0  0  0  0  0  0  0  0
    6.9670   -3.1050   19.2140 C   0  0  0  0  0  0  0  0  0  0  0  0
    7.1160    2.2500   22.5740 N   0  0  0  0  0  0  0  0  0  0  0  0
    8.4110    1.5170   20.8460 O   0  0  0  0  0  0  0  0  0  0  0  0
    4.4770    1.4720   19.6280 C   0  0  0  0  0  0  0  0  0  0  0  0
    6.6100    0.6260   18.5660 C   0  0  0  0  0  0  0  0  0  0  0  0
    9.5000   -1.5030   23.7910 N   0  0  0  0  0  0  0  0  0  0  0  0
   10.2960   -1.5470   22.6460 C   0  0  0  0  0  0  0  0  0  0  0  0
    6.9710   -4.0770   21.6370 C   0  0  0  0  0  0  0  0  0  0  0  0
   11.8160   -1.7020   22.5290 C   0  0  0  0  0  0  0  0  0  0  0  0
    6.1960    1.0310   17.3400 N   0  0  0  0  0  0  0  0  0  0  0  0
    4.0720    1.8840   18.3640 C   0  0  0  0  0  0  0  0  0  0  0  0
    7.9530    3.4500   22.8030 C   0  0  0  0  0  0  0  0  0  0  0  0
    7.7870   -4.7840   22.6810 C   0  0  0  0  0  0  0  0  0  0  0  0
    6.2480   -5.4150   21.2770 C   0  0  0  0  0  0  0  0  0  0  0  0
   12.3720   -0.2680   22.7910 C   0  0  0  0  0  0  0  0  0  0  0  0
   12.2830   -2.8100   23.5350 C   0  0  0  0  0  0  0  0  0  0  0  0
   12.1500   -2.2700   21.1640 C   0  0  0  0  0  0  0  0  0  0  0  0
    4.8660    1.7050   17.2080 C   0  0  0  0  0  0  0  0  0  0  0  0
    9.1710    3.3930   23.6030 C   0  0  0  0  0  0  0  0  0  0  0  0
    7.5350    4.8050   22.1790 C   0  0  0  0  0  0  0  0  0  0  0  0
    7.9650   -6.0790   23.2560 C   0  0  0  0  0  0  0  0  0  0  0  0
    6.3460   -6.7580   21.7760 C   0  0  0  0  0  0  0  0  0  0  0  0
    9.6870    2.1030   24.2630 C   0  0  0  0  0  0  0  0  0  0  0  0
    6.3700    5.2160   21.3200 C   0  0  0  0  0  0  0  0  0  0  0  0
   12.6880   -2.4250   24.9450 C   0  0  0  0  0  0  0  0  0  0  0  0
    9.0110   -6.2300   24.4050 C   0  0  0  0  0  0  0  0  0  0  0  0
    9.9980    4.5560   23.8330 C   0  0  0  0  0  0  0  0  0  0  0  0
    8.5040    5.9830   22.4950 C   0  0  0  0  0  0  0  0  0  0  0  0
    7.2020   -7.1200   22.7700 C   0  0  0  0  0  0  0  0  0  0  0  0
    8.8220    1.8070   25.3960 C   0  0  0  0  0  0  0  0  0  0  0  0
    8.6360   -6.0530   25.8230 C   0  0  2  0  0  0  0  0  0  0  0  0
    9.6410    5.8050   23.2760 C   0  0  0  0  0  0  0  0  0  0  0  0
    7.4190   -5.2750   26.0170 N   0  0  0  0  0  0  0  0  0  0  0  0
    9.7300   -5.5690   26.5940 C   0  0  0  0  0  0  0  0  0  0  0  0
    7.3610   -3.8900   26.3810 C   0  0  0  0  0  0  0  0  0  0  0  0
    6.2410   -6.0250   26.1710 C   0  0  0  0  0  0  0  0  0  0  0  0
    5.2480   -6.0590   25.2390 N   0  0  0  0  0  0  0  0  0  0  0  0
    4.0310   -6.8670   25.3060 C   0  0  0  0  0  0  0  0  0  0  0  0
    3.2260   -6.9150   24.1380 C   0  0  0  0  0  0  0  0  0  0  0  0
    3.5640   -7.5910   26.3430 C   0  0  0  0  0  0  0  0  0  0  0  0
    2.3390   -8.0030   24.0980 C   0  0  0  0  0  0  0  0  0  0  0  0
    2.0740   -8.3280   25.7570 S   0  0  0  0  0  0  0  0  0  0  0  0
    0.8870   -7.5810   26.1580 O   0  0  0  0  0  0  0  0  0  0  0  0
    2.1460   -9.7580   25.9360 O   0  0  0  0  0  0  0  0  0  0  0  0
  1  2  1  0
  2  3  2  0
  1  4  1  0
  1  5  1  0
  2  6  1  0
  4  7  1  6
  4  8  1  0
  5  9  2  0
  5 10  1  0
  6 11  1  6
  7 12  1  0
  7 13  2  0
  8 14  2  0
  8 15  1  0
  9 16  1  0
 10 17  2  0
 16 17  1  0
  6 18  1  0
 17 19  1  0
 15 20  2  0
 14 21  1  0
 12 22  1  0
 18 23  2  0
 18 24  1  0
 19 25  1  0
 19 26  1  0
 19 27  1  0
 20 28  1  0
 21 28  2  0
 22 29  2  0
 22 30  1  0
 23 31  1  0
 24 32  2  0
 29 33  1  0
 30 34  1  0
 26 35  1  0
 31 36  1  0
 29 37  1  0
 30 38  2  0
 31 39  2  0
 32 39  1  0
 33 40  1  0
 36 41  1  0
 37 42  2  0
 38 42  1  0
 41 43  1  0
 41 44  1  1
 43 45  1  0
 43 46  1  0
 46 47  2  3
 47 48  1  0
 48 49  1  0
 48 50  2  0
 49 51  1  0
 50 52  1  0
 51 52  1  0
 52 53  1  0
 52 54  1  0
M  END
