x2703-x0995
     RDKit          3D

 34 36  0  0  0  0  0  0  0  0999 V2000
    6.8840   -1.6420   21.9180 N   0  0  0  0  0  0  0  0  0  0  0  0
    6.0790   -2.8640   21.6310 C   0  0  0  0  0  0  0  0  0  0  0  0
    4.8340   -3.0450   21.2630 O   0  0  0  0  0  0  0  0  0  0  0  0
    6.5860   -0.2870   21.6170 C   0  0  1  0  0  0  0  0  0  0  0  0
    8.2220   -1.7270   22.5070 C   0  0  0  0  0  0  0  0  0  0  0  0
    6.8070   -4.1780   21.7800 C   0  0  0  0  0  0  0  0  0  0  0  0
    7.7060    0.7110   21.9750 C   0  0  0  0  0  0  0  0  0  0  0  0
    6.0990    0.1250   20.2510 C   0  0  0  0  0  0  0  0  0  0  0  0
    8.4900   -1.5390   23.8630 C   0  0  0  0  0  0  0  0  0  0  0  0
    9.3000   -1.9750   21.6870 C   0  0  0  0  0  0  0  0  0  0  0  0
    6.6930   -4.9190   20.4420 C   0  0  0  0  0  0  0  0  0  0  0  0
    7.3200    1.8550   22.8130 N   0  0  0  0  0  0  0  0  0  0  0  0
    8.8620    0.6360   21.5750 O   0  0  0  0  0  0  0  0  0  0  0  0
    4.9780    0.9220   20.2180 C   0  0  0  0  0  0  0  0  0  0  0  0
    6.8030   -0.2760   19.1190 C   0  0  0  0  0  0  0  0  0  0  0  0
   10.6360   -2.0290   22.1140 N   0  0  0  0  0  0  0  0  0  0  0  0
    9.8180   -1.5790   24.3610 C   0  0  0  0  0  0  0  0  0  0  0  0
    6.2910    0.2120   17.8310 N   0  0  0  0  0  0  0  0  0  0  0  0
    4.4510    1.4060   19.0500 C   0  0  0  0  0  0  0  0  0  0  0  0
   10.9140   -1.8100   23.5260 C   0  0  0  0  0  0  0  0  0  0  0  0
    8.0590    3.0330   22.9260 C   0  0  0  0  0  0  0  0  0  0  0  0
   12.3610   -1.8260   23.9850 C   0  0  0  0  0  0  0  0  0  0  0  0
    3.2560    2.2770   18.8960 N   0  0  0  0  0  0  0  0  0  0  0  0
    5.1050    1.0490   17.9490 C   0  0  0  0  0  0  0  0  0  0  0  0
    9.3430    3.0680   23.5040 C   0  0  0  0  0  0  0  0  0  0  0  0
    7.4720    4.2210   22.4380 C   0  0  0  0  0  0  0  0  0  0  0  0
    9.9480    1.9700   23.9750 C   0  0  0  0  0  0  0  0  0  0  0  0
    6.1050    4.2540   21.8020 C   0  0  0  0  0  0  0  0  0  0  0  0
   12.7460   -2.9680   24.9190 C   0  0  0  0  0  0  0  0  0  0  0  0
   12.6450   -0.5350   24.6300 C   0  0  0  0  0  0  0  0  0  0  0  0
   10.0260    4.2870   23.5950 C   0  0  0  0  0  0  0  0  0  0  0  0
    8.1610    5.4290   22.5340 C   0  0  0  0  0  0  0  0  0  0  0  0
    9.0840    1.3710   24.9910 C   0  0  0  0  0  0  0  0  0  0  0  0
    9.4290    5.4460   23.1130 C   0  0  0  0  0  0  0  0  0  0  0  0
  1  2  1  0
  2  3  2  0
  1  4  1  0
  1  5  1  0
  2  6  1  0
  4  7  1  6
  4  8  1  0
  5  9  2  0
  5 10  1  0
  6 11  1  0
  7 12  1  0
  7 13  2  0
  8 14  2  0
  8 15  1  0
 10 16  2  0
  9 17  1  0
 15 18  2  0
 14 19  1  0
 16 20  1  0
 17 20  2  0
 12 21  1  0
 20 22  1  0
 19 23  1  0
 18 24  1  0
 19 24  2  0
 21 25  2  0
 21 26  1  0
 25 27  1  0
 26 28  1  0
 22 29  1  0
 22 30  1  0
 25 31  1  0
 26 32  2  0
 27 33  1  0
 31 34  2  0
 32 34  1  0
M  END
