x2705-x1478
     RDKit          3D

 41 44  0  0  0  0  0  0  0  0999 V2000
    7.0310   -1.5510   21.5080 N   0  0  0  0  0  0  0  0  0  0  0  0
    6.0840   -2.7600   21.2240 C   0  0  0  0  0  0  0  0  0  0  0  0
    4.8330   -2.9160   20.8280 O   0  0  0  0  0  0  0  0  0  0  0  0
    6.6610   -0.0700   21.4440 C   0  0  1  0  0  0  0  0  0  0  0  0
    8.2590   -1.5570   22.3750 C   0  0  0  0  0  0  0  0  0  0  0  0
    6.5340   -4.1450   21.4780 C   0  0  1  0  0  0  0  0  0  0  0  0
    7.6900    0.8460   21.8380 C   0  0  0  0  0  0  0  0  0  0  0  0
    6.1210    0.4100   20.1570 C   0  0  0  0  0  0  0  0  0  0  0  0
    8.3220   -1.4440   23.7270 N   0  0  0  0  0  0  0  0  0  0  0  0
    9.6150   -1.6280   22.0550 C   0  0  0  0  0  0  0  0  0  0  0  0
    7.9470   -4.3900   20.9560 C   0  0  0  0  0  0  0  0  0  0  0  0
    7.3310    1.9160   22.6690 N   0  0  0  0  0  0  0  0  0  0  0  0
    8.8370    0.7260   21.4150 O   0  0  0  0  0  0  0  0  0  0  0  0
    4.9600    1.1870   20.1540 C   0  0  0  0  0  0  0  0  0  0  0  0
    6.8120    0.1060   18.8240 C   0  0  0  0  0  0  0  0  0  0  0  0
    9.6420   -1.4500   24.1200 N   0  0  0  0  0  0  0  0  0  0  0  0
   10.5430   -1.5590   23.0880 C   0  0  0  0  0  0  0  0  0  0  0  0
    6.0710   -4.0380   22.9160 C   0  0  1  0  0  0  0  0  0  0  0  0
   12.0660   -1.5700   23.2510 C   0  0  0  0  0  0  0  0  0  0  0  0
    6.3880    0.5530   17.6350 N   0  0  0  0  0  0  0  0  0  0  0  0
    4.4600    1.7060   18.7920 C   0  0  0  0  0  0  0  0  0  0  0  0
    8.0690    3.1430   22.8580 C   0  0  0  0  0  0  0  0  0  0  0  0
    5.2410   -4.9470   23.6220 N   0  0  0  0  0  0  0  0  0  0  0  0
    6.9630   -3.4590   23.7380 C   0  0  0  0  0  0  0  0  0  0  0  0
   12.5510   -0.1960   23.7460 C   0  0  0  0  0  0  0  0  0  0  0  0
   12.5250   -2.6230   24.2770 C   0  0  0  0  0  0  0  0  0  0  0  0
   12.7900   -1.8270   21.9190 C   0  0  0  0  0  0  0  0  0  0  0  0
    5.1690    1.3800   17.6970 C   0  0  0  0  0  0  0  0  0  0  0  0
    9.3690    3.1740   23.4590 C   0  0  0  0  0  0  0  0  0  0  0  0
    7.4500    4.3450   22.4220 C   0  0  0  0  0  0  0  0  0  0  0  0
    6.3350   -2.6970   24.9770 C   0  0  0  0  0  0  0  0  0  0  0  0
    4.2990   -4.0970   24.3140 C   0  0  0  0  0  0  0  0  0  0  0  0
    4.9880   -6.2720   23.0820 C   0  0  0  0  0  0  0  0  0  0  0  0
   10.0980    1.9450   23.9470 C   0  0  0  0  0  0  0  0  0  0  0  0
    6.0850    4.3550   21.7830 C   0  0  0  0  0  0  0  0  0  0  0  0
   10.0980    4.5090   23.6350 C   0  0  0  0  0  0  0  0  0  0  0  0
    8.0770    5.5920   22.5620 C   0  0  0  0  0  0  0  0  0  0  0  0
    4.7880   -2.8170   25.0560 C   0  0  0  0  0  0  0  0  0  0  0  0
    6.5480   -6.7560   22.4270 Cl  0  0  0  0  0  0  0  0  0  0  0  0
    9.2940    1.2670   24.8750 C   0  0  0  0  0  0  0  0  0  0  0  0
    9.4620    5.6620   23.1990 C   0  0  0  0  0  0  0  0  0  0  0  0
  1  2  1  0
  2  3  2  0
  1  4  1  0
  1  5  1  0
  2  6  1  0
  4  7  1  6
  4  8  1  0
  5  9  2  0
  5 10  1  0
  6 11  1  1
  7 12  1  0
  7 13  2  0
  8 14  2  0
  8 15  1  0
  9 16  1  0
 10 17  2  0
 16 17  1  0
  6 18  1  0
 17 19  1  0
 15 20  2  0
 14 21  1  0
 12 22  1  0
 18 23  1  0
 18 24  1  1
 19 25  1  0
 19 26  1  0
 19 27  1  0
 20 28  1  0
 21 28  2  0
 22 29  2  0
 22 30  1  0
 24 31  2  0
 23 32  1  0
 23 33  1  0
 29 34  1  0
 30 35  1  0
 29 36  1  0
 30 37  2  0
 31 38  1  0
 32 38  2  0
 33 39  1  0
 34 40  1  0
 36 41  2  0
 37 41  1  0
M  END
