x2705-x2193
     RDKit          3D

 40 43  0  0  0  0  0  0  0  0999 V2000
    7.0920   -1.4090   21.6770 N   0  0  0  0  0  0  0  0  0  0  0  0
    5.9150   -2.3680   21.5150 C   0  0  0  0  0  0  0  0  0  0  0  0
    5.0480   -3.3790   21.3030 O   0  0  0  0  0  0  0  0  0  0  0  0
    6.8080    0.0740   21.5360 C   0  0  1  0  0  0  0  0  0  0  0  0
    8.3180   -1.5700   22.5090 C   0  0  0  0  0  0  0  0  0  0  0  0
    6.9350   -3.4340   21.1200 C   0  0  0  0  0  0  0  0  0  0  0  0
    7.8310    0.9860   21.8760 C   0  0  0  0  0  0  0  0  0  0  0  0
    6.2250    0.4720   20.2290 C   0  0  0  0  0  0  0  0  0  0  0  0
    8.2840   -1.9190   23.8370 N   0  0  0  0  0  0  0  0  0  0  0  0
    9.6190   -1.3690   22.0750 C   0  0  0  0  0  0  0  0  0  0  0  0
    7.0780   -3.4140   19.5990 C   0  0  0  0  0  0  0  0  0  0  0  0
    7.4510    2.0220   22.7190 N   0  0  0  0  0  0  0  0  0  0  0  0
    8.9600    0.8840   21.4120 O   0  0  0  0  0  0  0  0  0  0  0  0
    5.0630    1.2590   20.2310 C   0  0  0  0  0  0  0  0  0  0  0  0
    6.8830    0.0550   18.9010 C   0  0  0  0  0  0  0  0  0  0  0  0
    9.6910   -1.8490   23.9730 N   0  0  0  0  0  0  0  0  0  0  0  0
   10.5800   -1.5320   22.9900 C   0  0  0  0  0  0  0  0  0  0  0  0
    8.5130   -2.2680   25.2230 C   0  0  0  0  0  0  0  0  0  0  0  0
   12.1080   -1.4460   23.1290 C   0  0  0  0  0  0  0  0  0  0  0  0
    6.3930    0.4330   17.7080 N   0  0  0  0  0  0  0  0  0  0  0  0
    4.5350    1.6690   18.8470 C   0  0  0  0  0  0  0  0  0  0  0  0
    8.1630    3.2470   22.9060 C   0  0  0  0  0  0  0  0  0  0  0  0
    8.4790   -3.7250   25.3300 N   0  0  0  0  0  0  0  0  0  0  0  0
   12.5460   -0.0300   23.5360 C   0  0  0  0  0  0  0  0  0  0  0  0
   12.6310   -2.4290   24.2010 C   0  0  0  0  0  0  0  0  0  0  0  0
   12.8270   -1.7720   21.8130 C   0  0  0  0  0  0  0  0  0  0  0  0
    5.1850    1.2670   17.7510 C   0  0  0  0  0  0  0  0  0  0  0  0
    9.4550    3.2700   23.5010 C   0  0  0  0  0  0  0  0  0  0  0  0
    7.5260    4.4370   22.4720 C   0  0  0  0  0  0  0  0  0  0  0  0
    8.6110   -4.1340   26.7350 C   0  0  0  0  0  0  0  0  0  0  0  0
    9.4520   -4.4780   24.5100 C   0  0  0  0  0  0  0  0  0  0  0  0
   10.1790    2.0290   23.9710 C   0  0  0  0  0  0  0  0  0  0  0  0
    6.1620    4.4300   21.8310 C   0  0  0  0  0  0  0  0  0  0  0  0
   10.1760    4.6080   23.6860 C   0  0  0  0  0  0  0  0  0  0  0  0
    8.1450    5.6880   22.6180 C   0  0  0  0  0  0  0  0  0  0  0  0
    8.3910   -5.6240   26.8910 C   0  0  0  0  0  0  0  0  0  0  0  0
    9.1510   -5.9470   24.7340 C   0  0  0  0  0  0  0  0  0  0  0  0
    9.3300    1.2970   24.8170 C   0  0  0  0  0  0  0  0  0  0  0  0
    9.5290    5.7600   23.2550 C   0  0  0  0  0  0  0  0  0  0  0  0
    9.3720   -6.2510   26.0460 N   0  0  0  0  0  0  0  0  0  0  0  0
  1  2  1  0
  2  3  2  0
  1  4  1  0
  1  5  1  0
  2  6  1  0
  4  7  1  6
  4  8  1  0
  5  9  1  0
  5 10  2  0
  6 11  1  0
  7 12  1  0
  7 13  2  0
  8 14  2  0
  8 15  1  0
  9 16  1  0
 10 17  1  0
 16 17  2  0
  9 18  1  0
 17 19  1  0
 15 20  2  0
 14 21  1  0
 12 22  1  0
 18 23  1  0
 19 24  1  0
 19 25  1  0
 19 26  1  0
 20 27  1  0
 21 27  2  0
 22 28  2  0
 22 29  1  0
 23 30  1  0
 23 31  1  0
 28 32  1  0
 29 33  1  0
 28 34  1  0
 29 35  2  0
 30 36  1  0
 31 37  1  0
 32 38  1  0
 34 39  2  0
 35 39  1  0
 36 40  1  0
 37 40  1  0
M  END
