x2703-x0946
     RDKit          3D

 42 45  0  0  0  0  0  0  0  0999 V2000
    7.0970   -1.6420   21.7550 N   0  0  0  0  0  0  0  0  0  0  0  0
    6.1420   -2.8410   21.5490 C   0  0  0  0  0  0  0  0  0  0  0  0
    4.8630   -3.0200   21.1650 O   0  0  0  0  0  0  0  0  0  0  0  0
    6.6660   -0.2650   21.6170 C   0  0  1  0  0  0  0  0  0  0  0  0
    8.4300   -1.8310   22.3340 C   0  0  2  0  0  0  0  0  0  0  0  0
    6.7410   -4.2050   21.8120 C   0  0  0  0  0  0  0  0  0  0  0  0
    7.6650    0.9240   21.7920 C   0  0  0  0  0  0  0  0  0  0  0  0
    5.9850    0.2070   20.3460 C   0  0  0  0  0  0  0  0  0  0  0  0
    8.5010   -1.5820   23.7140 C   0  0  0  0  0  0  0  0  0  0  0  0
    9.6170   -1.2190   21.8260 C   0  0  0  0  0  0  0  0  0  0  0  0
    6.7060   -4.9770   20.4920 C   0  0  0  0  0  0  0  0  0  0  0  0
    7.3910    1.8770   22.8880 N   0  0  0  0  0  0  0  0  0  0  0  0
    8.6090    1.1740   21.0360 O   0  0  0  0  0  0  0  0  0  0  0  0
    4.7620    0.8550   20.2280 C   0  0  0  0  0  0  0  0  0  0  0  0
    6.7550   -0.0410   19.1970 C   0  0  0  0  0  0  0  0  0  0  0  0
   10.8500   -1.7090   22.2750 N   0  0  0  0  0  0  0  0  0  0  0  0
    9.7460   -1.7390   24.3790 C   0  0  0  0  0  0  0  0  0  0  0  0
   11.8910   -0.7530   22.2600 O   0  0  0  0  0  0  0  0  0  0  0  0
    6.3310    0.3720   17.8610 N   0  0  0  0  0  0  0  0  0  0  0  0
    4.3020    1.2620   19.0620 C   0  0  0  0  0  0  0  0  0  0  0  0
   10.8660   -2.1860   23.6520 C   0  0  2  0  0  0  0  0  0  0  0  0
    7.7580    3.3260   22.9220 C   0  0  0  0  0  0  0  0  0  0  0  0
   12.3050   -1.9080   24.1800 C   0  0  0  0  0  0  0  0  0  0  0  0
    5.1280    1.0160   17.8150 C   0  0  0  0  0  0  0  0  0  0  0  0
    8.7740    3.8850   23.6420 C   0  0  0  0  0  0  0  0  0  0  0  0
    7.0970    4.3320   22.2300 C   0  0  0  0  0  0  0  0  0  0  0  0
   11.6870    0.5040   22.8280 C   0  0  0  0  0  0  0  0  0  0  0  0
    6.0400    4.0940   21.4590 C   0  0  0  0  0  0  0  0  0  0  0  0
   12.8920   -3.0430   25.0110 C   0  0  0  0  0  0  0  0  0  0  0  0
   12.4560   -0.6640   25.0550 C   0  0  0  0  0  0  0  0  0  0  0  0
    9.3430    5.1170   23.8920 C   0  0  0  0  0  0  0  0  0  0  0  0
    7.5530    5.7030   22.3430 C   0  0  0  0  0  0  0  0  0  0  0  0
   12.5120    1.5890   22.6460 C   0  0  0  0  0  0  0  0  0  0  0  0
   10.5910    0.6390   23.6160 C   0  0  0  0  0  0  0  0  0  0  0  0
   10.3910    5.5260   24.6990 O   0  0  0  0  0  0  0  0  0  0  0  0
    8.6670    6.0970   23.1650 C   0  0  0  0  0  0  0  0  0  0  0  0
   12.2260    2.8040   23.1880 C   0  0  0  0  0  0  0  0  0  0  0  0
   10.2750    1.8090   24.2070 C   0  0  0  0  0  0  0  0  0  0  0  0
    9.0480    1.7640   25.0720 C   0  0  0  0  0  0  0  0  0  0  0  0
   11.0940    2.9130   23.9740 C   0  0  0  0  0  0  0  0  0  0  0  0
   11.2470    6.6160   24.3530 C   0  0  0  0  0  0  0  0  0  0  0  0
   12.3030    6.2120   23.5090 O   0  0  0  0  0  0  0  0  0  0  0  0
  1  2  1  0
  2  3  2  0
  1  4  1  0
  5  1  1  6
  2  6  1  0
  4  7  1  6
  4  8  1  0
  5  9  1  0
  5 10  1  0
  6 11  1  0
  7 12  1  0
  7 13  2  0
  8 14  2  0
  8 15  1  0
 10 16  1  0
  9 17  2  0
 16 18  1  0
 15 19  2  0
 14 20  1  0
 16 21  1  0
 17 21  1  0
 12 22  1  0
 21 23  1  1
 19 24  1  0
 20 24  2  0
 22 25  2  0
 22 26  1  0
 18 27  1  0
 26 28  1  0
 23 29  1  0
 23 30  1  0
 25 31  1  0
 26 32  2  0
 27 33  2  0
 27 34  1  0
 31 35  1  0
 31 36  2  0
 32 36  1  0
 33 37  1  0
 34 38  2  0
 38 39  1  0
 37 40  2  0
 38 40  1  0
 35 41  1  0
 41 42  1  0
M  END
