x2703-x0107
     RDKit          3D

 33 36  0  0  0  0  0  0  0  0999 V2000
    7.1540   -1.8050   21.7340 N   0  0  0  0  0  0  0  0  0  0  0  0
    6.1270   -2.9220   21.5170 C   0  0  0  0  0  0  0  0  0  0  0  0
    4.8510   -3.0070   21.1390 O   0  0  0  0  0  0  0  0  0  0  0  0
    6.8580   -0.4050   21.6080 C   0  0  1  0  0  0  0  0  0  0  0  0
    8.3990   -2.2520   22.3880 C   0  0  1  0  0  0  0  0  0  0  0  0
    6.6210   -4.3370   21.7510 C   0  0  0  0  0  0  0  0  0  0  0  0
    8.0330    0.6180   21.7660 C   0  0  2  0  0  0  0  0  0  0  0  0
    6.1780    0.0780   20.3230 C   0  0  0  0  0  0  0  0  0  0  0  0
    9.5460   -1.5060   22.3610 N   0  0  0  0  0  0  0  0  0  0  0  0
    8.1380   -2.6710   23.6890 C   0  0  0  0  0  0  0  0  0  0  0  0
    6.6310   -5.0430   20.3960 C   0  0  0  0  0  0  0  0  0  0  0  0
    7.6720    1.6050   22.8090 N   0  0  0  0  0  0  0  0  0  0  0  0
    8.3610    1.2470   20.7660 O   0  0  0  0  0  0  0  0  0  0  0  0
    9.3720   -0.1130   22.0200 C   0  0  0  0  0  0  0  0  0  0  0  0
    4.8850    0.8660   20.2430 C   0  0  0  0  0  0  0  0  0  0  0  0
    6.8140   -0.2020   19.1120 C   0  0  0  0  0  0  0  0  0  0  0  0
   10.2390   -1.5430   23.7220 C   0  0  1  0  0  0  0  0  0  0  0  0
    9.1890   -2.2860   24.4560 C   0  0  0  0  0  0  0  0  0  0  0  0
   11.6750   -2.0620   23.8600 C   0  0  0  0  0  0  0  0  0  0  0  0
    6.3440    0.1980   17.9410 N   0  0  0  0  0  0  0  0  0  0  0  0
    4.3860    1.2860   19.0400 C   0  0  0  0  0  0  0  0  0  0  0  0
    8.2190    2.8980   22.9090 C   0  0  0  0  0  0  0  0  0  0  0  0
   11.7200   -3.1260   24.9760 C   0  0  0  0  0  0  0  0  0  0  0  0
   12.6320   -0.9640   24.1880 C   0  0  0  0  0  0  0  0  0  0  0  0
    5.0950    0.9690   17.9020 C   0  0  0  0  0  0  0  0  0  0  0  0
    9.4600    3.1230   23.5220 C   0  0  0  0  0  0  0  0  0  0  0  0
    7.5090    3.9960   22.3880 C   0  0  0  0  0  0  0  0  0  0  0  0
   10.1690    2.1190   24.0290 C   0  0  0  0  0  0  0  0  0  0  0  0
    6.1660    3.8820   21.7100 C   0  0  0  0  0  0  0  0  0  0  0  0
   10.0190    4.4110   23.6340 C   0  0  0  0  0  0  0  0  0  0  0  0
    8.0610    5.2650   22.4980 C   0  0  0  0  0  0  0  0  0  0  0  0
    9.2830    1.3130   24.8860 C   0  0  0  0  0  0  0  0  0  0  0  0
    9.2970    5.4850   23.1100 C   0  0  0  0  0  0  0  0  0  0  0  0
  1  2  1  0
  2  3  2  0
  1  4  1  0
  1  5  1  0
  2  6  1  0
  4  7  1  0
  4  8  1  6
  5  9  1  0
  5 10  1  1
  6 11  1  0
  7 12  1  0
  7 13  1  6
  7 14  1  0
  9 14  1  0
  8 15  2  0
  8 16  1  0
  9 17  1  0
 10 18  2  0
 17 18  1  0
 17 19  1  6
 16 20  2  0
 15 21  1  0
 12 22  1  0
 19 23  1  0
 19 24  1  0
 20 25  1  0
 21 25  2  0
 22 26  2  0
 22 27  1  0
 26 28  1  0
 27 29  1  0
 26 30  1  0
 27 31  2  0
 28 32  1  0
 30 33  2  0
 31 33  1  0
M  END
