x2705-x0995
     RDKit          3D

 34 36  0  0  0  0  0  0  0  0999 V2000
    7.0070   -1.5770   21.8360 N   0  0  0  0  0  0  0  0  0  0  0  0
    6.1570   -2.8240   21.6060 C   0  0  0  0  0  0  0  0  0  0  0  0
    4.8740   -3.0700   21.2570 O   0  0  0  0  0  0  0  0  0  0  0  0
    6.6830   -0.1020   21.6110 C   0  0  1  0  0  0  0  0  0  0  0  0
    8.3260   -1.6230   22.5070 C   0  0  0  0  0  0  0  0  0  0  0  0
    6.9200   -4.1020   21.8020 C   0  0  0  0  0  0  0  0  0  0  0  0
    7.7180    0.8290   21.9350 C   0  0  0  0  0  0  0  0  0  0  0  0
    6.1560    0.2870   20.2800 C   0  0  0  0  0  0  0  0  0  0  0  0
    8.4010   -1.6630   23.9520 N   0  0  0  0  0  0  0  0  0  0  0  0
    9.6540   -1.6080   22.1040 C   0  0  0  0  0  0  0  0  0  0  0  0
    6.8220   -4.8910   20.5000 C   0  0  0  0  0  0  0  0  0  0  0  0
    7.3610    1.9200   22.7330 N   0  0  0  0  0  0  0  0  0  0  0  0
    8.8550    0.7040   21.4880 O   0  0  0  0  0  0  0  0  0  0  0  0
    5.0150    1.0430   20.2500 C   0  0  0  0  0  0  0  0  0  0  0  0
    6.8130   -0.0740   18.9060 C   0  0  0  0  0  0  0  0  0  0  0  0
    9.7380   -1.6580   24.2960 N   0  0  0  0  0  0  0  0  0  0  0  0
   10.5820   -1.6220   23.1490 C   0  0  0  0  0  0  0  0  0  0  0  0
   12.1080   -1.5980   23.2470 C   0  0  0  0  0  0  0  0  0  0  0  0
    6.3430    0.3060   17.8830 N   0  0  0  0  0  0  0  0  0  0  0  0
    4.5070    1.4660   18.9150 C   0  0  0  0  0  0  0  0  0  0  0  0
    8.1000    3.1430   22.8980 C   0  0  0  0  0  0  0  0  0  0  0  0
   12.5890   -0.1830   23.6250 C   0  0  0  0  0  0  0  0  0  0  0  0
   12.6040   -2.5770   24.3330 C   0  0  0  0  0  0  0  0  0  0  0  0
   12.7810   -1.9660   21.9080 C   0  0  0  0  0  0  0  0  0  0  0  0
    3.3140    2.2660   18.8510 N   0  0  0  0  0  0  0  0  0  0  0  0
    5.2110    1.0670   17.8530 C   0  0  0  0  0  0  0  0  0  0  0  0
    9.4050    3.1830   23.4770 C   0  0  0  0  0  0  0  0  0  0  0  0
    7.4800    4.3390   22.4580 C   0  0  0  0  0  0  0  0  0  0  0  0
   10.1440    1.9560   23.9640 C   0  0  0  0  0  0  0  0  0  0  0  0
    6.1070    4.3420   21.8330 C   0  0  0  0  0  0  0  0  0  0  0  0
   10.1270    4.5230   23.6260 C   0  0  0  0  0  0  0  0  0  0  0  0
    8.1090    5.5840   22.5780 C   0  0  0  0  0  0  0  0  0  0  0  0
    9.3150    1.2530   24.8510 C   0  0  0  0  0  0  0  0  0  0  0  0
    9.5050    5.6930   23.1950 C   0  0  0  0  0  0  0  0  0  0  0  0
  1  2  1  0
  2  3  2  0
  1  4  1  0
  1  5  1  0
  2  6  1  0
  4  7  1  6
  4  8  1  0
  5  9  2  0
  5 10  1  0
  6 11  1  0
  7 12  1  0
  7 13  2  0
  8 14  2  0
  8 15  1  0
  9 16  1  0
 10 17  2  0
 16 17  1  0
 17 18  1  0
 15 19  2  0
 14 20  1  0
 12 21  1  0
 18 22  1  0
 18 23  1  0
 18 24  1  0
 20 25  1  0
 19 26  1  0
 20 26  2  0
 21 27  2  0
 21 28  1  0
 27 29  1  0
 28 30  1  0
 27 31  1  0
 28 32  2  0
 29 33  1  0
 31 34  2  0
 32 34  1  0
M  END
