x2705-x0755
     RDKit          3D

 52 57  0  0  0  0  0  0  0  0999 V2000
    6.7560   -1.3320   21.9380 C   0  0  1  0  0  0  0  0  0  0  0  0
    5.7570   -2.3080   21.0800 C   0  0  0  0  0  0  0  0  0  0  0  0
    4.6530   -2.9030   21.3940 O   0  0  0  0  0  0  0  0  0  0  0  0
    6.5170    0.1710   21.6050 C   0  0  1  0  0  0  0  0  0  0  0  0
    5.8380   -1.8740   23.0120 C   0  0  0  0  0  0  0  0  0  0  0  0
    8.2170   -1.5210   22.5500 C   0  0  0  0  0  0  0  0  0  0  0  0
    6.0090   -2.6730   19.7670 C   0  0  0  0  0  0  0  0  0  0  0  0
    7.6060    1.0400   21.8610 C   0  0  0  0  0  0  0  0  0  0  0  0
    5.3970   -3.3660   22.6640 C   0  0  0  0  0  0  0  0  0  0  0  0
    6.0580    0.5660   20.2340 C   0  0  0  0  0  0  0  0  0  0  0  0
    8.4250   -1.8600   23.8530 N   0  0  0  0  0  0  0  0  0  0  0  0
    9.6450   -1.3630   22.0510 C   0  0  0  0  0  0  0  0  0  0  0  0
    6.5090   -4.0150   20.0600 C   0  0  0  0  0  0  0  0  0  0  0  0
    7.3520    2.1030   22.8540 N   0  0  0  0  0  0  0  0  0  0  0  0
    8.6830    0.9480   21.2770 O   0  0  0  0  0  0  0  0  0  0  0  0
    4.8020    1.3670   20.0650 C   0  0  0  0  0  0  0  0  0  0  0  0
    6.7450    0.2410   19.0570 C   0  0  0  0  0  0  0  0  0  0  0  0
    9.7710   -1.8890   24.1070 N   0  0  0  0  0  0  0  0  0  0  0  0
   10.6030   -1.5890   23.0490 C   0  0  0  0  0  0  0  0  0  0  0  0
    6.3400   -4.3400   21.7070 C   0  0  0  0  0  0  0  0  0  0  0  0
   12.1340   -1.5490   23.1350 C   0  0  0  0  0  0  0  0  0  0  0  0
    6.3530    0.6110   17.8150 N   0  0  0  0  0  0  0  0  0  0  0  0
    4.4140    1.7380   18.7900 C   0  0  0  0  0  0  0  0  0  0  0  0
    8.1110    3.3020   22.9690 C   0  0  0  0  0  0  0  0  0  0  0  0
    7.5410   -4.6530   22.5620 C   0  0  0  0  0  0  0  0  0  0  0  0
    5.6370   -5.7310   21.8300 C   0  0  0  0  0  0  0  0  0  0  0  0
   12.5570   -0.2540   23.5040 C   0  0  0  0  0  0  0  0  0  0  0  0
   12.6200   -2.5350   24.2210 C   0  0  0  0  0  0  0  0  0  0  0  0
   12.8220   -1.9050   21.8060 C   0  0  0  0  0  0  0  0  0  0  0  0
    5.2160    1.3440   17.7200 C   0  0  0  0  0  0  0  0  0  0  0  0
    9.4360    3.3090   23.5190 C   0  0  0  0  0  0  0  0  0  0  0  0
    7.5340    4.4950   22.5290 C   0  0  0  0  0  0  0  0  0  0  0  0
    7.2370   -4.9000   24.0580 C   0  0  0  0  0  0  0  0  0  0  0  0
    5.0540   -6.0240   23.2130 C   0  0  0  0  0  0  0  0  0  0  0  0
   10.1520    2.0620   24.0090 C   0  0  0  0  0  0  0  0  0  0  0  0
    6.1080    4.4210   21.9310 C   0  0  0  0  0  0  0  0  0  0  0  0
   10.1680    4.5060   23.6360 C   0  0  0  0  0  0  0  0  0  0  0  0
    8.2700    5.8380   22.6240 C   0  0  0  0  0  0  0  0  0  0  0  0
    5.8490   -5.3910   24.3200 N   0  0  0  0  0  0  0  0  0  0  0  0
    9.3170    1.3110   24.8520 C   0  0  0  0  0  0  0  0  0  0  0  0
    5.0840   -5.2730   25.8690 S   0  0  0  0  0  0  0  0  0  0  0  0
    9.5510    5.8500   23.1640 C   0  0  0  0  0  0  0  0  0  0  0  0
    4.3440   -6.4950   26.0860 O   0  0  0  0  0  0  0  0  0  0  0  0
    6.0470   -4.8190   26.8290 O   0  0  0  0  0  0  0  0  0  0  0  0
    3.9050   -3.9460   25.8410 C   0  0  0  0  0  0  0  0  0  0  0  0
    2.3900   -4.2300   25.6780 C   0  0  0  0  0  0  0  0  0  0  0  0
    4.2970   -2.6040   25.9780 C   0  0  0  0  0  0  0  0  0  0  0  0
    1.9410   -5.4850   25.5450 F   0  0  0  0  0  0  0  0  0  0  0  0
    5.5780   -2.2510   26.1300 F   0  0  0  0  0  0  0  0  0  0  0  0
    3.3520   -1.5680   25.9680 C   0  0  0  0  0  0  0  0  0  0  0  0
    1.4480   -3.1970   25.6680 C   0  0  0  0  0  0  0  0  0  0  0  0
    1.8640   -1.8800   25.8080 C   0  0  0  0  0  0  0  0  0  0  0  0
  1  2  1  0
  2  3  2  0
  1  4  1  0
  1  5  1  0
  1  6  1  1
  2  7  1  0
  4  8  1  6
  5  9  1  0
  4 10  1  0
  6 11  2  0
  6 12  1  0
  7 13  1  0
  8 14  1  0
  8 15  2  0
 10 16  2  0
 10 17  1  0
 11 18  1  0
 12 19  2  0
 18 19  1  0
 20  9  1  0
 13 20  1  0
 19 21  1  0
 17 22  2  0
 16 23  1  0
 14 24  1  0
 20 25  1  0
 20 26  1  0
 21 27  1  0
 21 28  1  0
 21 29  1  0
 22 30  1  0
 23 30  2  0
 24 31  2  0
 24 32  1  0
 25 33  1  0
 26 34  1  0
 31 35  1  0
 32 36  1  0
 31 37  1  0
 32 38  2  0
 33 39  1  0
 34 39  1  0
 35 40  1  0
 39 41  1  0
 37 42  2  0
 38 42  1  0
 41 43  2  0
 41 44  2  0
 41 45  1  0
 45 46  2  0
 45 47  1  0
 46 48  1  0
 47 49  1  0
 47 50  2  0
 46 51  1  0
 50 52  1  0
 51 52  2  0
M  END
