x2705-x3115-x2694-x0731
     RDKit          3D

 54 59  0  0  0  0  0  0  0  0999 V2000
    6.7890   -1.2910   21.9540 C   0  0  1  0  0  0  0  0  0  0  0  0
    5.6220   -2.2460   21.3360 C   0  0  0  0  0  0  0  0  0  0  0  0
    4.8850   -3.0100   20.6110 O   0  0  0  0  0  0  0  0  0  0  0  0
    6.5080    0.1760   21.7090 C   0  0  1  0  0  0  0  0  0  0  0  0
    5.9590   -1.8700   23.0650 C   0  0  0  0  0  0  0  0  0  0  0  0
    8.2650   -1.4660   22.5270 C   0  0  0  0  0  0  0  0  0  0  0  0
    6.4350   -2.3680   20.1730 C   0  0  0  0  0  0  0  0  0  0  0  0
    7.5980    1.2600   21.8940 C   0  0  0  0  0  0  0  0  0  0  0  0
    5.4650   -3.3400   22.7260 C   0  0  0  0  0  0  0  0  0  0  0  0
    6.0080    0.5340   20.3400 C   0  0  0  0  0  0  0  0  0  0  0  0
    8.4250   -1.7200   23.8700 N   0  0  0  0  0  0  0  0  0  0  0  0
    9.5840   -1.3980   22.0350 C   0  0  0  0  0  0  0  0  0  0  0  0
    6.6320   -3.8320   20.1440 C   0  0  0  0  0  0  0  0  0  0  0  0
    7.4010    2.2890   22.8250 N   0  0  0  0  0  0  0  0  0  0  0  0
    8.7730    1.2480   21.0660 O   0  0  0  0  0  0  0  0  0  0  0  0
    4.7080    1.2340   20.2080 C   0  0  0  0  0  0  0  0  0  0  0  0
    6.7410    0.2400   19.2560 C   0  0  0  0  0  0  0  0  0  0  0  0
    9.7930   -1.7820   24.1220 N   0  0  0  0  0  0  0  0  0  0  0  0
   10.5540   -1.5900   23.0340 C   0  0  0  0  0  0  0  0  0  0  0  0
    6.3950   -4.3140   21.7330 C   0  0  0  0  0  0  0  0  0  0  0  0
   12.1100   -1.6000   23.0470 C   0  0  0  0  0  0  0  0  0  0  0  0
    6.3970    0.5520   17.9200 N   0  0  0  0  0  0  0  0  0  0  0  0
    4.3040    1.5840   18.8430 C   0  0  0  0  0  0  0  0  0  0  0  0
    8.2780    3.3670   23.0480 C   0  0  0  0  0  0  0  0  0  0  0  0
    7.6490   -4.6020   22.5280 C   0  0  0  0  0  0  0  0  0  0  0  0
    5.8340   -5.7780   21.7100 C   0  0  0  0  0  0  0  0  0  0  0  0
   12.5870   -0.4120   23.6310 C   0  0  0  0  0  0  0  0  0  0  0  0
   12.6180   -2.7550   23.8430 C   0  0  0  0  0  0  0  0  0  0  0  0
   12.6440   -1.7690   21.7360 C   0  0  0  0  0  0  0  0  0  0  0  0
    5.2320    1.2010   17.7560 C   0  0  0  0  0  0  0  0  0  0  0  0
    9.5490    3.1900   23.5770 C   0  0  0  0  0  0  0  0  0  0  0  0
    7.8340    4.6720   22.7180 C   0  0  0  0  0  0  0  0  0  0  0  0
    7.3210   -4.8410   23.8710 C   0  0  0  0  0  0  0  0  0  0  0  0
    5.3580   -6.2280   22.9270 C   0  0  0  0  0  0  0  0  0  0  0  0
   10.1490    1.8290   23.9590 C   0  0  0  0  0  0  0  0  0  0  0  0
    6.4530    4.8170   22.1230 C   0  0  0  0  0  0  0  0  0  0  0  0
   13.3160   -2.4840   25.1320 C   0  0  0  0  0  0  0  0  0  0  0  0
   10.4000    4.4230   23.7950 C   0  0  0  0  0  0  0  0  0  0  0  0
    8.6170    5.7840   22.9260 C   0  0  0  0  0  0  0  0  0  0  0  0
    5.9510   -5.4700   24.0510 N   0  0  0  0  0  0  0  0  0  0  0  0
    9.3090    1.2370   24.8300 C   0  0  0  0  0  0  0  0  0  0  0  0
    5.2480   -5.4540   25.6120 S   0  0  0  0  0  0  0  0  0  0  0  0
    9.8800    5.7950   23.4500 C   0  0  0  0  0  0  0  0  0  0  0  0
   10.6000    7.0230   23.6350 O   0  0  0  0  0  0  0  0  0  0  0  0
    6.1890   -5.0770   26.6220 O   0  0  0  0  0  0  0  0  0  0  0  0
    4.5740   -6.7210   25.7700 O   0  0  0  0  0  0  0  0  0  0  0  0
    4.0080   -4.1760   25.6930 C   0  0  0  0  0  0  0  0  0  0  0  0
   11.7300    6.9230   24.5160 C   0  0  0  0  0  0  0  0  0  0  0  0
    2.6870   -4.3610   25.2020 C   0  0  0  0  0  0  0  0  0  0  0  0
    4.3870   -2.9780   26.2800 C   0  0  0  0  0  0  0  0  0  0  0  0
    1.8070   -3.3290   25.3370 C   0  0  0  0  0  0  0  0  0  0  0  0
    3.3750   -1.8310   26.4170 C   0  0  0  0  0  0  0  0  0  0  0  0
    2.1030   -2.0140   25.9550 C   0  0  0  0  0  0  0  0  0  0  0  0
    1.0680   -0.9400   26.0760 C   0  0  0  0  0  0  0  0  0  0  0  0
  1  2  1  0
  2  3  2  0
  1  4  1  0
  1  5  1  0
  1  6  1  1
  2  7  1  0
  4  8  1  6
  5  9  1  0
  4 10  1  0
  6 11  2  0
  6 12  1  0
  7 13  1  0
  8 14  1  0
  8 15  2  0
 10 16  2  0
 10 17  1  0
 11 18  1  0
 12 19  2  0
 18 19  1  0
 20  9  1  0
 13 20  1  0
 19 21  1  0
 17 22  2  0
 16 23  1  0
 14 24  1  0
 20 25  1  0
 20 26  1  0
 21 27  1  0
 21 28  1  0
 21 29  1  0
 22 30  1  0
 23 30  2  0
 24 31  2  0
 24 32  1  0
 25 33  1  0
 26 34  1  0
 31 35  1  0
 32 36  1  0
 28 37  1  0
 31 38  1  0
 32 39  2  0
 33 40  1  0
 34 40  1  0
 35 41  1  0
 40 42  1  0
 38 43  2  0
 39 43  1  0
 43 44  1  0
 42 45  2  0
 42 46  2  0
 42 47  1  0
 44 48  1  0
 47 49  2  0
 47 50  1  0
 49 51  1  0
 50 52  2  0
 51 53  2  0
 52 53  1  0
 53 54  1  0
M  END
