x2703-x1374-x2694
     RDKit          3D

 53 57  0  0  0  0  0  0  0  0999 V2000
    6.8680   -1.2320   22.0250 N   0  0  0  0  0  0  0  0  0  0  0  0
    6.2830   -2.5300   21.4960 C   0  0  0  0  0  0  0  0  0  0  0  0
    4.9620   -3.1160   21.2090 O   0  0  0  0  0  0  0  0  0  0  0  0
    6.4940    0.2080   21.7010 C   0  0  1  0  0  0  0  0  0  0  0  0
    8.2380   -1.2760   22.7550 C   0  0  0  0  0  0  0  0  0  0  0  0
    7.5840   -3.2870   21.2930 C   0  0  2  0  0  0  0  0  0  0  0  0
    7.6200    1.3520   21.7920 C   0  0  0  0  0  0  0  0  0  0  0  0
    6.0510    0.5230   20.3220 C   0  0  0  0  0  0  0  0  0  0  0  0
    8.4340   -1.3830   24.1290 N   0  0  0  0  0  0  0  0  0  0  0  0
    9.4980   -1.1930   22.1360 C   0  0  0  0  0  0  0  0  0  0  0  0
    7.4010   -4.4820   20.4100 C   0  0  0  0  0  0  0  0  0  0  0  0
    7.4850    2.5260   22.5430 N   0  0  0  0  0  0  0  0  0  0  0  0
    8.8370    1.3110   21.0280 O   0  0  0  0  0  0  0  0  0  0  0  0
    4.8120    1.3740   20.1430 C   0  0  0  0  0  0  0  0  0  0  0  0
    6.7800    0.0780   19.1550 C   0  0  0  0  0  0  0  0  0  0  0  0
    9.7300   -1.3640   24.3990 O   0  0  0  0  0  0  0  0  0  0  0  0
   10.5350   -1.2480   23.2620 C   0  0  0  0  0  0  0  0  0  0  0  0
    8.5560   -3.4310   22.5210 C   0  0  0  0  0  0  0  0  0  0  0  0
   12.1290   -1.1870   23.2350 C   0  0  0  0  0  0  0  0  0  0  0  0
    6.3480    0.4560   17.8220 N   0  0  0  0  0  0  0  0  0  0  0  0
    4.4340    1.7240   18.7550 C   0  0  0  0  0  0  0  0  0  0  0  0
    8.4650    3.5770   22.6910 C   0  0  0  0  0  0  0  0  0  0  0  0
    9.3240   -3.7150   23.6820 C   0  0  0  0  0  0  0  0  0  0  0  0
    7.5700   -4.5400   22.6250 C   0  0  0  0  0  0  0  0  0  0  0  0
    6.1960    3.0510   22.8560 C   0  0  0  0  0  0  0  0  0  0  0  0
   12.6470    0.2560   23.2710 C   0  0  0  0  0  0  0  0  0  0  0  0
   12.7070   -1.7930   21.9440 C   0  0  0  0  0  0  0  0  0  0  0  0
   12.8400   -1.8760   24.4310 C   0  0  0  0  0  0  0  0  0  0  0  0
    5.1640    1.2940   17.6870 C   0  0  0  0  0  0  0  0  0  0  0  0
    9.8270    3.2720   22.9580 C   0  0  0  0  0  0  0  0  0  0  0  0
    8.0690    4.9290   22.5790 C   0  0  0  0  0  0  0  0  0  0  0  0
    9.1990   -4.7860   24.7610 C   0  0  0  0  0  0  0  0  0  0  0  0
    7.3640   -5.6410   23.5880 C   0  0  0  0  0  0  0  0  0  0  0  0
    5.4880    3.7710   21.8840 C   0  0  0  0  0  0  0  0  0  0  0  0
   10.2580    2.0150   23.0940 C   0  0  0  0  0  0  0  0  0  0  0  0
   12.1370   -2.9240   24.9360 C   0  0  0  0  0  0  0  0  0  0  0  0
   10.1400   -4.8460   25.9320 C   0  0  0  0  0  0  0  0  0  0  0  0
   10.7460    4.2770   23.1110 C   0  0  0  0  0  0  0  0  0  0  0  0
    8.9620    5.9830   22.7280 C   0  0  0  0  0  0  0  0  0  0  0  0
    8.2210   -5.6970   24.6680 C   0  0  0  0  0  0  0  0  0  0  0  0
    6.2270   -6.5540   23.2420 C   0  0  0  0  0  0  0  0  0  0  0  0
    9.2920    1.1300   23.8710 C   0  0  0  0  0  0  0  0  0  0  0  0
   10.4250    5.6320   23.0220 C   0  0  0  0  0  0  0  0  0  0  0  0
    5.4200   -6.0460   22.2610 C   0  0  0  0  0  0  0  0  0  0  0  0
   11.2610    6.7950   23.1640 O   0  0  0  0  0  0  0  0  0  0  0  0
    4.2180   -5.3500   22.8930 C   0  0  2  0  0  0  0  0  0  0  0  0
   12.0960    6.9540   24.3010 C   0  0  0  0  0  0  0  0  0  0  0  0
    4.5340   -4.7260   24.1020 C   0  0  0  0  0  0  0  0  0  0  0  0
    3.2020   -6.2960   22.9470 C   0  0  0  0  0  0  0  0  0  0  0  0
    3.2740   -6.7920   24.6230 S   0  0  0  0  0  0  0  0  0  0  0  0
    4.1000   -5.3480   25.2040 C   0  0  0  0  0  0  0  0  0  0  0  0
    1.8910   -6.8630   25.0110 O   0  0  0  0  0  0  0  0  0  0  0  0
    4.1440   -7.9290   24.7780 O   0  0  0  0  0  0  0  0  0  0  0  0
  1  2  1  0
  2  3  2  0
  1  4  1  0
  1  5  1  0
  2  6  1  0
  4  7  1  6
  4  8  1  0
  5  9  2  0
  5 10  1  0
  6 11  1  1
  7 12  1  0
  7 13  2  0
  8 14  2  0
  8 15  1  0
  9 16  1  0
 10 17  2  0
 16 17  1  0
  6 18  1  0
 17 19  1  0
 15 20  2  0
 14 21  1  0
 12 22  1  0
 18 23  2  0
 18 24  1  0
 12 25  1  0
 19 26  1  0
 19 27  1  0
 19 28  1  0
 20 29  1  0
 21 29  2  0
 22 30  2  0
 22 31  1  0
 23 32  1  0
 24 33  2  0
 25 34  1  0
 30 35  1  0
 28 36  1  0
 32 37  1  0
 30 38  1  0
 31 39  2  0
 32 40  2  0
 33 40  1  0
 33 41  1  0
 35 42  1  0
 38 43  2  0
 39 43  1  0
 41 44  1  0
 43 45  1  0
 46 44  1  1
 45 47  1  0
 46 48  1  0
 46 49  1  0
 49 50  1  0
 48 51  2  0
 50 51  1  0
 50 52  1  0
 50 53  1  0
M  END
