x2705-x1374-x0689-x2694
     RDKit          3D

 59 64  0  0  0  0  0  0  0  0999 V2000
    6.7570   -1.2130   22.0950 N   0  0  0  0  0  0  0  0  0  0  0  0
    6.1970   -2.4480   21.4560 C   0  0  0  0  0  0  0  0  0  0  0  0
    4.9020   -3.0470   21.2150 O   0  0  0  0  0  0  0  0  0  0  0  0
    6.5070    0.1580   21.5890 C   0  0  1  0  0  0  0  0  0  0  0  0
    8.1230   -1.2150   22.7050 C   0  0  0  0  0  0  0  0  0  0  0  0
    7.4600   -3.1320   21.0690 C   0  0  2  0  0  0  0  0  0  0  0  0
    7.6570    1.2060   21.7590 C   0  0  0  0  0  0  0  0  0  0  0  0
    6.0280    0.4940   20.2400 C   0  0  0  0  0  0  0  0  0  0  0  0
    8.2100   -1.2590   24.0940 N   0  0  0  0  0  0  0  0  0  0  0  0
    9.4080   -1.1780   22.1370 C   0  0  0  0  0  0  0  0  0  0  0  0
    7.0540   -3.8700   19.8360 C   0  0  0  0  0  0  0  0  0  0  0  0
    7.3970    2.2310   22.8070 N   0  0  0  0  0  0  0  0  0  0  0  0
    8.6840    1.2480   21.0730 O   0  0  0  0  0  0  0  0  0  0  0  0
    4.8920    1.2510   20.0860 C   0  0  0  0  0  0  0  0  0  0  0  0
    6.7920    0.0330   19.1620 C   0  0  0  0  0  0  0  0  0  0  0  0
    9.5600   -1.2560   24.4060 N   0  0  0  0  0  0  0  0  0  0  0  0
   10.3940   -1.2120   23.2790 C   0  0  0  0  0  0  0  0  0  0  0  0
    7.9560   -3.8410   22.3280 C   0  0  0  0  0  0  0  0  0  0  0  0
   11.9730   -1.2030   23.2010 C   0  0  0  0  0  0  0  0  0  0  0  0
    6.3660    0.3910   17.8150 N   0  0  0  0  0  0  0  0  0  0  0  0
    4.4550    1.6110   18.8520 C   0  0  0  0  0  0  0  0  0  0  0  0
    8.2230    3.4270   22.9910 C   0  0  0  0  0  0  0  0  0  0  0  0
    9.0110   -3.6590   23.2220 C   0  0  0  0  0  0  0  0  0  0  0  0
    7.1470   -4.8180   22.5530 C   0  0  0  0  0  0  0  0  0  0  0  0
   12.6500    0.1460   23.4180 C   0  0  0  0  0  0  0  0  0  0  0  0
   12.5070   -2.1260   24.3230 C   0  0  0  0  0  0  0  0  0  0  0  0
   12.5420   -1.7920   21.8930 C   0  0  0  0  0  0  0  0  0  0  0  0
    5.1560    1.2120   17.7420 C   0  0  0  0  0  0  0  0  0  0  0  0
    9.5110    3.3140   23.5370 C   0  0  0  0  0  0  0  0  0  0  0  0
    7.7710    4.6730   22.6470 C   0  0  0  0  0  0  0  0  0  0  0  0
    9.1490   -4.5180   24.3390 C   0  0  0  0  0  0  0  0  0  0  0  0
    7.2180   -5.6530   23.5580 C   0  0  0  0  0  0  0  0  0  0  0  0
   10.0950    1.9460   23.9330 C   0  0  0  0  0  0  0  0  0  0  0  0
    6.3780    4.7750   22.0350 C   0  0  0  0  0  0  0  0  0  0  0  0
   10.2830   -4.2910   25.2930 C   0  0  0  0  0  0  0  0  0  0  0  0
   10.2430    4.4090   23.7220 C   0  0  0  0  0  0  0  0  0  0  0  0
    8.5830    5.8130   22.8610 C   0  0  0  0  0  0  0  0  0  0  0  0
    8.2300   -5.5640   24.5410 C   0  0  0  0  0  0  0  0  0  0  0  0
    6.0750   -6.5830   23.3910 C   0  0  0  0  0  0  0  0  0  0  0  0
    9.1570    1.4410   25.0260 C   0  0  0  0  0  0  0  0  0  0  0  0
    9.8660    5.7120   23.4220 C   0  0  0  0  0  0  0  0  0  0  0  0
    5.1990   -5.9750   22.5320 C   0  0  0  0  0  0  0  0  0  0  0  0
   10.6250    6.8460   23.6310 O   0  0  0  0  0  0  0  0  0  0  0  0
    3.9560   -5.5670   23.2970 C   0  0  2  0  0  0  0  0  0  0  0  0
   11.7070    6.7360   24.5700 C   0  0  0  0  0  0  0  0  0  0  0  0
    4.0080   -5.6200   24.7150 C   0  0  0  0  0  0  0  0  0  0  0  0
    2.9990   -6.4600   22.8860 C   0  0  0  0  0  0  0  0  0  0  0  0
    4.7920   -4.4760   25.8170 S   0  0  0  0  0  0  0  0  0  0  0  0
    2.7130   -7.5140   24.2380 S   0  0  0  0  0  0  0  0  0  0  0  0
    3.4090   -6.5590   25.3950 C   0  0  0  0  0  0  0  0  0  0  0  0
    1.2860   -7.6220   24.3530 O   0  0  0  0  0  0  0  0  0  0  0  0
    3.5180   -8.6700   24.0810 O   0  0  0  0  0  0  0  0  0  0  0  0
    4.7680   -5.1440   27.0980 O   0  0  0  0  0  0  0  0  0  0  0  0
    6.0690   -3.9280   25.4540 O   0  0  0  0  0  0  0  0  0  0  0  0
    3.5410   -3.2460   25.8170 C   0  0  0  0  0  0  0  0  0  0  0  0
    3.7660   -1.5810   26.1840 S   0  0  0  0  0  0  0  0  0  0  0  0
    2.2240   -3.5390   25.5100 C   0  0  0  0  0  0  0  0  0  0  0  0
    1.4360   -2.4430   25.5790 C   0  0  0  0  0  0  0  0  0  0  0  0
    2.0790   -1.2750   25.9290 C   0  0  0  0  0  0  0  0  0  0  0  0
  1  2  1  0
  2  3  2  0
  1  4  1  0
  1  5  1  0
  2  6  1  0
  4  7  1  6
  4  8  1  0
  5  9  2  0
  5 10  1  0
  6 11  1  6
  7 12  1  0
  7 13  2  0
  8 14  2  0
  8 15  1  0
  9 16  1  0
 10 17  2  0
 16 17  1  0
  6 18  1  0
 17 19  1  0
 15 20  2  0
 14 21  1  0
 12 22  1  0
 18 23  2  0
 18 24  1  0
 19 25  1  0
 19 26  1  0
 19 27  1  0
 20 28  1  0
 21 28  2  0
 22 29  2  0
 22 30  1  0
 23 31  1  0
 24 32  2  0
 29 33  1  0
 30 34  1  0
 31 35  1  0
 29 36  1  0
 30 37  2  0
 31 38  2  0
 32 38  1  0
 32 39  1  0
 33 40  1  0
 36 41  2  0
 37 41  1  0
 39 42  1  0
 41 43  1  0
 44 42  1  6
 43 45  1  0
 44 46  1  0
 44 47  1  0
 48 46  1  0
 47 49  1  0
 46 50  2  0
 49 50  1  0
 49 51  1  0
 49 52  1  0
 48 53  2  0
 48 54  2  0
 48 55  1  0
 55 56  1  0
 55 57  2  0
 57 58  1  0
 56 59  1  0
 58 59  2  0
M  END
