x2705-x2193-x0107-x0731
     RDKit          3D

 55 60  0  0  0  0  0  0  0  0999 V2000
    6.9160   -1.4450   21.7000 N   0  0  0  0  0  0  0  0  0  0  0  0
    6.0160   -2.4860   21.0120 C   0  0  0  0  0  0  0  0  0  0  0  0
    4.9350   -3.2090   21.3710 O   0  0  0  0  0  0  0  0  0  0  0  0
    6.6080    0.0260   21.5450 C   0  0  1  0  0  0  0  0  0  0  0  0
    8.1850   -1.5750   22.5480 C   0  0  0  0  0  0  0  0  0  0  0  0
    6.3240   -2.6540   19.5690 C   0  0  0  0  0  0  0  0  0  0  0  0
    7.7340    0.9150   21.7540 C   0  0  0  0  0  0  0  0  0  0  0  0
    6.0810    0.4570   20.2460 C   0  0  0  0  0  0  0  0  0  0  0  0
    8.3700   -1.8260   23.8790 N   0  0  0  0  0  0  0  0  0  0  0  0
    9.4380   -1.3770   21.9270 C   0  0  0  0  0  0  0  0  0  0  0  0
    6.8720   -4.0020   20.0930 C   0  0  0  0  0  0  0  0  0  0  0  0
    7.4390    2.0750   22.6530 N   0  0  0  0  0  0  0  0  0  0  0  0
    8.8430    0.8270   21.2510 O   0  0  0  0  0  0  0  0  0  0  0  0
    4.8870    1.1530   20.1210 C   0  0  0  0  0  0  0  0  0  0  0  0
    6.8430    0.1550   19.1250 C   0  0  0  0  0  0  0  0  0  0  0  0
    9.7170   -1.7940   24.1310 N   0  0  0  0  0  0  0  0  0  0  0  0
   10.4960   -1.5070   22.9580 C   0  0  0  0  0  0  0  0  0  0  0  0
   12.0450   -1.4130   23.0460 C   0  0  0  0  0  0  0  0  0  0  0  0
    6.4680    0.5280   17.8800 N   0  0  0  0  0  0  0  0  0  0  0  0
    4.4630    1.5570   18.8770 C   0  0  0  0  0  0  0  0  0  0  0  0
    8.1230    3.2660   22.7950 C   0  0  0  0  0  0  0  0  0  0  0  0
    6.6540   -4.5400   21.4750 N   0  0  0  0  0  0  0  0  0  0  0  0
   12.4570   -0.1220   23.4220 C   0  0  0  0  0  0  0  0  0  0  0  0
   12.6040   -2.4100   24.0930 C   0  0  0  0  0  0  0  0  0  0  0  0
   12.6930   -1.7090   21.8570 C   0  0  0  0  0  0  0  0  0  0  0  0
    5.1990    1.2860   17.7470 C   0  0  0  0  0  0  0  0  0  0  0  0
    9.5750    3.4030   23.2870 C   0  0  0  0  0  0  0  0  0  0  0  0
    7.4160    4.4350   22.4570 C   0  0  0  0  0  0  0  0  0  0  0  0
    7.6290   -4.3880   22.5330 C   0  0  0  0  0  0  0  0  0  0  0  0
    6.0160   -5.8470   21.6330 C   0  0  0  0  0  0  0  0  0  0  0  0
   10.3470    2.1670   23.6230 C   0  0  0  0  0  0  0  0  0  0  0  0
    5.9590    4.3830   21.9360 C   0  0  0  0  0  0  0  0  0  0  0  0
   10.0980    4.6890   23.3860 C   0  0  0  0  0  0  0  0  0  0  0  0
    8.0300    5.7030   22.5860 C   0  0  0  0  0  0  0  0  0  0  0  0
    6.8270   -4.0850   23.6360 C   0  0  0  0  0  0  0  0  0  0  0  0
    5.3280   -6.0000   22.9700 C   0  0  0  0  0  0  0  0  0  0  0  0
    9.5820    1.4330   24.4960 C   0  0  0  0  0  0  0  0  0  0  0  0
    9.3400    5.9580   23.0350 C   0  0  0  0  0  0  0  0  0  0  0  0
    6.0250   -5.2860   24.0630 N   0  0  0  0  0  0  0  0  0  0  0  0
    5.3810   -5.2520   25.6310 S   0  0  2  0  0  0  0  0  0  0  0  0
    6.4900   -4.8400   26.7890 N   0  0  0  0  0  0  0  0  0  0  0  0
    4.8700   -6.5770   25.9110 O   0  0  0  0  0  0  0  0  0  0  0  0
    4.1460   -4.1440   25.7540 C   0  0  0  0  0  0  0  0  0  0  0  0
    7.9130   -5.1630   26.7640 C   0  0  1  0  0  0  0  0  0  0  0  0
    2.8430   -4.3350   25.2860 C   0  0  0  0  0  0  0  0  0  0  0  0
    4.3980   -2.7680   26.4400 C   0  0  0  0  0  0  0  0  0  0  0  0
    8.1440   -6.1160   25.7500 N   0  0  0  0  0  0  0  0  0  0  0  0
    8.6270   -4.0140   26.5810 C   0  0  0  0  0  0  0  0  0  0  0  0
    1.7410   -3.2920   25.4370 C   0  0  0  0  0  0  0  0  0  0  0  0
    3.2050   -1.7710   26.5430 C   0  0  0  0  0  0  0  0  0  0  0  0
    9.3240   -3.7070   25.4820 N   0  0  0  0  0  0  0  0  0  0  0  0
    9.5110   -6.0210   25.2440 C   0  0  0  0  0  0  0  0  0  0  0  0
    1.9290   -2.0650   26.0480 C   0  0  0  0  0  0  0  0  0  0  0  0
    0.8370   -1.0480   26.2050 C   0  0  0  0  0  0  0  0  0  0  0  0
    9.8630   -4.7470   24.8390 C   0  0  0  0  0  0  0  0  0  0  0  0
  1  2  1  0
  2  3  2  0
  1  4  1  0
  1  5  1  0
  2  6  1  0
  4  7  1  6
  4  8  1  0
  5  9  2  0
  5 10  1  0
  6 11  1  0
  7 12  1  0
  7 13  2  0
  8 14  2  0
  8 15  1  0
  9 16  1  0
 10 17  2  0
 16 17  1  0
 17 18  1  0
 15 19  2  0
 14 20  1  0
 12 21  1  0
 11 22  1  0
 18 23  1  0
 18 24  1  0
 18 25  1  0
 19 26  1  0
 20 26  2  0
 21 27  2  0
 21 28  1  0
 22 29  1  0
 22 30  1  0
 27 31  1  0
 28 32  1  0
 27 33  1  0
 28 34  2  0
 29 35  1  0
 30 36  1  0
 31 37  1  0
 33 38  2  0
 34 38  1  0
 35 39  1  0
 36 39  1  0
 39 40  1  0
 40 41  2  0
 40 42  2  0
 40 43  1  6
 44 41  1  6
 43 45  2  0
 43 46  1  0
 44 47  1  0
 44 48  1  0
 45 49  1  0
 46 50  2  0
 48 51  1  0
 47 52  1  0
 49 53  2  0
 50 53  1  0
 53 54  1  0
 51 55  1  0
 52 55  1  0
M  END
