x2703-x0978-x0689-x3124
     RDKit          3D

 56 61  0  0  0  0  0  0  0  0999 V2000
    6.9590   -1.4780   21.4610 N   0  0  0  0  0  0  0  0  0  0  0  0
    6.1190   -2.6880   21.4020 C   0  0  0  0  0  0  0  0  0  0  0  0
    4.9050   -3.0150   20.9410 O   0  0  0  0  0  0  0  0  0  0  0  0
    6.4850   -0.0990   21.4770 C   0  0  1  0  0  0  0  0  0  0  0  0
    8.1660   -1.5560   22.3050 C   0  0  0  0  0  0  0  0  0  0  0  0
    6.9780   -3.6540   22.1320 C   0  0  0  0  0  0  0  0  0  0  0  0
    7.5480    1.0710   21.7440 C   0  0  0  0  0  0  0  0  0  0  0  0
    5.9600    0.4300   20.1650 C   0  0  0  0  0  0  0  0  0  0  0  0
    8.3130   -1.5490   23.7280 C   0  0  0  0  0  0  0  0  0  0  0  0
    9.3480   -1.6440   21.6010 C   0  0  0  0  0  0  0  0  0  0  0  0
    6.7730   -4.6390   20.9600 C   0  0  0  0  0  0  0  0  0  0  0  0
    7.3170    1.9500   22.8880 N   0  0  0  0  0  0  0  0  0  0  0  0
    8.5160    1.2690   21.0120 O   0  0  0  0  0  0  0  0  0  0  0  0
    4.8300    1.1920   19.9920 C   0  0  0  0  0  0  0  0  0  0  0  0
    6.6680    0.1650   19.0310 C   0  0  0  0  0  0  0  0  0  0  0  0
   10.6310   -1.7250   22.0830 N   0  0  0  0  0  0  0  0  0  0  0  0
    9.5980   -1.6200   24.3150 C   0  0  0  0  0  0  0  0  0  0  0  0
    6.3950    0.5700   17.7900 N   0  0  0  0  0  0  0  0  0  0  0  0
    4.4110    1.6920   18.7870 C   0  0  0  0  0  0  0  0  0  0  0  0
   10.8270   -1.7130   23.3960 C   0  0  0  0  0  0  0  0  0  0  0  0
    8.0830    3.1930   22.9590 C   0  0  0  0  0  0  0  0  0  0  0  0
    6.8170   -5.7850   21.7720 N   0  0  0  0  0  0  0  0  0  0  0  0
   12.2250   -1.7710   23.9720 C   0  0  0  0  0  0  0  0  0  0  0  0
    5.1490    1.4340   17.6330 C   0  0  0  0  0  0  0  0  0  0  0  0
    9.3840    3.1860   23.5180 C   0  0  0  0  0  0  0  0  0  0  0  0
    7.4750    4.3760   22.4580 C   0  0  0  0  0  0  0  0  0  0  0  0
    5.5420   -6.4350   21.9190 C   0  0  0  0  0  0  0  0  0  0  0  0
    7.5730   -5.7330   23.0510 C   0  0  0  0  0  0  0  0  0  0  0  0
    9.9840    1.9740   24.0080 C   0  0  0  0  0  0  0  0  0  0  0  0
    6.1170    4.4000   21.8600 C   0  0  0  0  0  0  0  0  0  0  0  0
   12.4700   -2.9670   24.8530 C   0  0  0  0  0  0  0  0  0  0  0  0
   12.4800   -0.5270   24.8340 C   0  0  0  0  0  0  0  0  0  0  0  0
   13.2120   -1.7760   22.8410 C   0  0  0  0  0  0  0  0  0  0  0  0
   10.0710    4.3930   23.5780 C   0  0  0  0  0  0  0  0  0  0  0  0
    8.2540    5.5500   22.5630 C   0  0  0  0  0  0  0  0  0  0  0  0
    4.6910   -5.6220   22.9150 C   0  0  2  0  0  0  0  0  0  0  0  0
    6.7560   -5.2790   24.2770 C   0  0  0  0  0  0  0  0  0  0  0  0
    9.1280    1.3710   24.9470 C   0  0  0  0  0  0  0  0  0  0  0  0
    3.3770   -6.3840   23.3470 C   0  0  2  0  0  0  0  0  0  0  0  0
    4.3230   -4.4000   22.3620 O   0  0  0  0  0  0  0  0  0  0  0  0
    9.5250    5.5730   23.1110 C   0  0  0  0  0  0  0  0  0  0  0  0
    5.3520   -5.2850   24.1310 N   0  0  0  0  0  0  0  0  0  0  0  0
    2.1540   -5.5820   23.1790 N   0  0  0  0  0  0  0  0  0  0  0  0
    3.6250   -6.6420   24.7150 C   0  0  1  0  0  0  0  0  0  0  0  0
    4.5130   -5.3060   25.3880 S   0  0  0  0  0  0  0  0  0  0  0  0
    2.5400   -6.9570   25.4730 C   0  0  0  0  0  0  0  0  0  0  0  0
    4.4730   -7.7750   24.7440 O   0  0  0  0  0  0  0  0  0  0  0  0
    0.9410   -6.1940   22.6020 C   0  0  0  0  0  0  0  0  0  0  0  0
    4.7940   -5.9250   26.6560 O   0  0  0  0  0  0  0  0  0  0  0  0
    3.4530   -4.0150   25.5320 C   0  0  0  0  0  0  0  0  0  0  0  0
    0.9470   -7.2880   22.0320 O   0  0  0  0  0  0  0  0  0  0  0  0
   -0.2920   -5.4450   22.7210 C   0  0  0  0  0  0  0  0  0  0  0  0
    3.6900   -2.3400   25.8980 S   0  0  0  0  0  0  0  0  0  0  0  0
    1.9510   -4.0240   25.3640 C   0  0  0  0  0  0  0  0  0  0  0  0
    1.3150   -2.8420   25.5350 C   0  0  0  0  0  0  0  0  0  0  0  0
    2.0800   -1.7060   25.8520 C   0  0  0  0  0  0  0  0  0  0  0  0
  1  2  1  0
  2  3  2  0
  1  4  1  0
  1  5  1  0
  2  6  1  0
  4  7  1  6
  4  8  1  0
  5  9  2  0
  5 10  1  0
  6 11  1  0
  7 12  1  0
  7 13  2  0
  8 14  2  0
  8 15  1  0
 10 16  2  0
  9 17  1  0
 15 18  2  0
 14 19  1  0
 16 20  1  0
 17 20  2  0
 12 21  1  0
 11 22  1  0
 20 23  1  0
 18 24  1  0
 19 24  2  0
 21 25  2  0
 21 26  1  0
 22 27  1  0
 22 28  1  0
 25 29  1  0
 26 30  1  0
 23 31  1  0
 23 32  1  0
 23 33  1  0
 25 34  1  0
 26 35  2  0
 27 36  1  0
 28 37  1  0
 29 38  1  0
 36 39  1  0
 36 40  1  6
 34 41  2  0
 35 41  1  0
 36 42  1  0
 37 42  1  0
 39 43  1  1
 39 44  1  0
 42 45  1  0
 44 45  1  0
 44 46  1  1
 44 47  1  0
 43 48  1  0
 45 49  2  0
 45 50  1  0
 48 51  2  0
 48 52  1  0
 50 53  1  0
 50 54  2  0
 54 55  1  0
 53 56  1  0
 55 56  2  0
M  END
