x2705-x1374-x2694-x3115-x0769
     RDKit          3D

 62 67  0  0  0  0  0  0  0  0999 V2000
    6.7650   -1.1700   22.0550 N   0  0  0  0  0  0  0  0  0  0  0  0
    6.1430   -2.4060   21.4780 C   0  0  0  0  0  0  0  0  0  0  0  0
    4.8540   -3.0070   21.2550 O   0  0  0  0  0  0  0  0  0  0  0  0
    6.4510    0.2200   21.6210 C   0  0  1  0  0  0  0  0  0  0  0  0
    8.0960   -1.2450   22.7200 C   0  0  0  0  0  0  0  0  0  0  0  0
    7.3580   -3.1440   21.0980 C   0  0  2  0  0  0  0  0  0  0  0  0
    7.5920    1.2500   21.7990 C   0  0  0  0  0  0  0  0  0  0  0  0
    6.0150    0.4880   20.2590 C   0  0  0  0  0  0  0  0  0  0  0  0
    8.3050   -1.3320   24.1960 N   0  0  0  0  0  0  0  0  0  0  0  0
    9.4840   -1.2350   22.0690 C   0  0  0  0  0  0  0  0  0  0  0  0
    6.9840   -3.8820   19.8570 C   0  0  0  0  0  0  0  0  0  0  0  0
    7.4290    2.1390   22.8230 N   0  0  0  0  0  0  0  0  0  0  0  0
    8.5790    1.3210   21.0560 O   0  0  0  0  0  0  0  0  0  0  0  0
    4.8630    1.2250   20.0780 C   0  0  0  0  0  0  0  0  0  0  0  0
    6.7780    0.0160   19.2000 C   0  0  0  0  0  0  0  0  0  0  0  0
    9.6810   -1.3680   24.3990 N   0  0  0  0  0  0  0  0  0  0  0  0
   10.4220   -1.3220   23.2590 C   0  0  0  0  0  0  0  0  0  0  0  0
    7.9010   -3.9390   22.2710 C   0  0  0  0  0  0  0  0  0  0  0  0
   11.9920   -1.3670   23.2650 C   0  0  0  0  0  0  0  0  0  0  0  0
    6.3830    0.3040   17.9340 N   0  0  0  0  0  0  0  0  0  0  0  0
    4.4430    1.5280   18.8190 C   0  0  0  0  0  0  0  0  0  0  0  0
    8.2500    3.2920   23.0180 C   0  0  0  0  0  0  0  0  0  0  0  0
    9.0100   -3.9980   23.0990 C   0  0  0  0  0  0  0  0  0  0  0  0
    6.9170   -4.7910   22.4220 C   0  0  0  0  0  0  0  0  0  0  0  0
   12.4780   -0.1140   23.6510 C   0  0  0  0  0  0  0  0  0  0  0  0
   12.4730   -2.6240   24.0590 C   0  0  0  0  0  0  0  0  0  0  0  0
   12.5670   -1.5710   21.8930 C   0  0  0  0  0  0  0  0  0  0  0  0
    5.1980    1.0760   17.7730 C   0  0  0  0  0  0  0  0  0  0  0  0
    9.5340    3.2550   23.5900 C   0  0  0  0  0  0  0  0  0  0  0  0
    7.7420    4.5520   22.6210 C   0  0  0  0  0  0  0  0  0  0  0  0
    9.0810   -4.9690   24.0950 C   0  0  0  0  0  0  0  0  0  0  0  0
    6.9480   -5.7260   23.3650 C   0  0  0  0  0  0  0  0  0  0  0  0
   10.1000    2.0080   24.0010 C   0  0  0  0  0  0  0  0  0  0  0  0
    6.3530    4.6930   21.9750 C   0  0  0  0  0  0  0  0  0  0  0  0
   13.3750   -2.4150   25.2480 C   0  0  0  0  0  0  0  0  0  0  0  0
   10.1740   -5.2500   25.0360 C   0  0  0  0  0  0  0  0  0  0  0  0
   10.2410    4.4480   23.7530 C   0  0  0  0  0  0  0  0  0  0  0  0
    8.5190    5.7140   22.8210 C   0  0  0  0  0  0  0  0  0  0  0  0
    8.0330   -5.8100   24.2180 C   0  0  0  0  0  0  0  0  0  0  0  0
    5.7620   -6.6110   23.3770 C   0  0  0  0  0  0  0  0  0  0  0  0
    9.0950    1.3880   25.0170 C   0  0  0  0  0  0  0  0  0  0  0  0
    9.7950    5.6940   23.4000 C   0  0  0  0  0  0  0  0  0  0  0  0
    4.8790   -6.0340   22.5170 C   0  0  0  0  0  0  0  0  0  0  0  0
   10.6400    6.7810   23.6510 O   0  0  0  0  0  0  0  0  0  0  0  0
    3.9280   -5.2800   23.4080 C   0  0  2  0  0  0  0  0  0  0  0  0
   11.7010    6.6190   24.6370 C   0  0  0  0  0  0  0  0  0  0  0  0
    4.1340   -5.5680   24.9230 C   0  0  0  0  0  0  0  0  0  0  0  0
    2.6330   -5.9820   23.1360 C   0  0  0  0  0  0  0  0  0  0  0  0
    4.9360   -4.7210   26.1030 S   0  0  0  0  0  0  0  0  0  0  0  0
    2.7810   -7.3550   24.2200 S   0  0  0  0  0  0  0  0  0  0  0  0
    3.5450   -6.6250   25.4420 C   0  0  0  0  0  0  0  0  0  0  0  0
    1.0500   -7.8260   24.5600 O   0  0  0  0  0  0  0  0  0  0  0  0
    3.7330   -8.2640   23.7140 O   0  0  0  0  0  0  0  0  0  0  0  0
    6.2400   -4.2480   25.7750 O   0  0  0  0  0  0  0  0  0  0  0  0
    4.6260   -5.4540   27.3000 O   0  0  0  0  0  0  0  0  0  0  0  0
    3.7560   -3.4140   26.1020 C   0  0  0  0  0  0  0  0  0  0  0  0
    4.3450   -2.0490   26.2890 C   0  0  0  0  0  0  0  0  0  0  0  0
    2.2590   -3.6850   25.9160 C   0  0  0  0  0  0  0  0  0  0  0  0
    5.6460   -1.8140   26.4490 F   0  0  0  0  0  0  0  0  0  0  0  0
    1.3920   -2.5720   25.9230 C   0  0  0  0  0  0  0  0  0  0  0  0
    3.3180   -0.9090   26.2790 C   0  0  0  0  0  0  0  0  0  0  0  0
    1.8510   -1.2550   26.0920 C   0  0  0  0  0  0  0  0  0  0  0  0
  1  2  1  0
  2  3  2  0
  1  4  1  0
  1  5  1  0
  2  6  1  0
  4  7  1  6
  4  8  1  0
  5  9  2  0
  5 10  1  0
  6 11  1  6
  7 12  1  0
  7 13  2  0
  8 14  2  0
  8 15  1  0
  9 16  1  0
 10 17  2  0
 16 17  1  0
  6 18  1  0
 17 19  1  0
 15 20  2  0
 14 21  1  0
 12 22  1  0
 18 23  2  0
 18 24  1  0
 19 25  1  0
 19 26  1  0
 19 27  1  0
 20 28  1  0
 21 28  2  0
 22 29  2  0
 22 30  1  0
 23 31  1  0
 24 32  2  0
 29 33  1  0
 30 34  1  0
 26 35  1  0
 31 36  1  0
 29 37  1  0
 30 38  2  0
 31 39  2  0
 32 39  1  0
 32 40  1  0
 33 41  1  0
 37 42  2  0
 38 42  1  0
 40 43  1  0
 42 44  1  0
 45 43  1  6
 44 46  1  0
 45 47  1  0
 45 48  1  0
 49 47  1  0
 48 50  1  0
 47 51  2  0
 50 51  1  0
 50 52  1  0
 50 53  1  0
 49 54  2  0
 49 55  2  0
 49 56  1  0
 56 57  2  0
 56 58  1  0
 57 59  1  0
 58 60  2  0
 57 61  1  0
 60 62  1  0
 61 62  2  0
M  END
