x2703-x1458-x2776-x3124
     RDKit          3D

 49 53  0  0  0  0  0  0  0  0999 V2000
    6.9180   -1.4880   21.7200 C   0  0  1  0  0  0  0  0  0  0  0  0
    5.9540   -2.7390   21.1010 C   0  0  0  0  0  0  0  0  0  0  0  0
    4.8920   -3.0300   20.4290 O   0  0  0  0  0  0  0  0  0  0  0  0
    6.6710    0.0180   21.5280 C   0  0  1  0  0  0  0  0  0  0  0  0
    6.4210   -1.8910   23.0220 C   0  0  0  0  0  0  0  0  0  0  0  0
    8.3840   -1.5990   22.3010 C   0  0  0  0  0  0  0  0  0  0  0  0
    7.7500    0.9280   21.8400 C   0  0  0  0  0  0  0  0  0  0  0  0
    6.1750    0.4720   20.1460 C   0  0  0  0  0  0  0  0  0  0  0  0
    9.4770   -2.0530   21.6200 C   0  0  0  0  0  0  0  0  0  0  0  0
    8.7010   -1.2200   23.6310 C   0  0  0  0  0  0  0  0  0  0  0  0
    6.6980   -3.8950   21.7580 C   0  0  2  0  0  0  0  0  0  0  0  0
    7.2790   -3.1740   23.0080 C   0  0  2  0  0  0  0  0  0  0  0  0
    7.8130   -4.6580   21.0030 C   0  0  0  0  0  0  0  0  0  0  0  0
    7.5780    1.9830   22.8330 N   0  0  0  0  0  0  0  0  0  0  0  0
    8.7640    0.7500   21.1890 O   0  0  0  0  0  0  0  0  0  0  0  0
    5.0550    1.3220   20.1380 C   0  0  0  0  0  0  0  0  0  0  0  0
    6.8490    0.0510   18.9900 C   0  0  0  0  0  0  0  0  0  0  0  0
   10.7650   -2.1460   22.1140 C   0  0  0  0  0  0  0  0  0  0  0  0
    9.9850   -1.3040   24.1660 C   0  0  0  0  0  0  0  0  0  0  0  0
    7.2910   -3.8120   24.1170 C   0  0  0  0  0  0  0  0  0  0  0  0
    5.7000   -4.9960   22.2800 C   0  0  0  0  0  0  0  0  0  0  0  0
    6.4000    0.5160   17.6750 N   0  0  0  0  0  0  0  0  0  0  0  0
    4.5650    1.8020   18.9510 C   0  0  0  0  0  0  0  0  0  0  0  0
    8.3640    3.1480   23.0040 C   0  0  0  0  0  0  0  0  0  0  0  0
   11.0420   -1.7670   23.4110 C   0  0  0  0  0  0  0  0  0  0  0  0
    5.8630   -4.1000   24.2930 C   0  0  1  0  0  0  0  0  0  0  0  0
    5.5320   -5.2450   23.7130 C   0  0  0  0  0  0  0  0  0  0  0  0
   12.4360   -1.8560   23.9610 C   0  0  2  0  0  0  0  0  0  0  0  0
    5.4530   -3.8140   25.7210 C   0  0  0  0  0  0  0  0  0  0  0  0
    5.2460    1.4090   17.6400 C   0  0  0  0  0  0  0  0  0  0  0  0
    9.6520    3.0780   23.6070 C   0  0  0  0  0  0  0  0  0  0  0  0
    7.8840    4.4150   22.5930 C   0  0  0  0  0  0  0  0  0  0  0  0
   12.4220   -2.5920   25.1740 O   0  0  0  0  0  0  0  0  0  0  0  0
   10.1110    1.7200   24.0310 C   0  0  0  0  0  0  0  0  0  0  0  0
   12.9040   -0.5970   24.2300 C   0  0  0  0  0  0  0  0  0  0  0  0
    6.5320    4.5880   21.9380 C   0  0  0  0  0  0  0  0  0  0  0  0
    6.3610   -3.7740   26.7580 N   0  0  0  0  0  0  0  0  0  0  0  0
    4.2810   -3.5570   25.8960 O   0  0  0  0  0  0  0  0  0  0  0  0
   10.4110    4.2410   23.7860 C   0  0  0  0  0  0  0  0  0  0  0  0
    8.6780    5.5510   22.7990 C   0  0  0  0  0  0  0  0  0  0  0  0
   13.7150   -2.9900   25.5230 C   0  0  0  0  0  0  0  0  0  0  0  0
    9.2070    1.2570   24.9920 C   0  0  0  0  0  0  0  0  0  0  0  0
    6.1930   -4.7830   27.6940 C   0  0  0  0  0  0  0  0  0  0  0  0
    6.5180   -2.3740   27.1860 C   0  0  0  0  0  0  0  0  0  0  0  0
    9.9370    5.4930   23.3950 C   0  0  0  0  0  0  0  0  0  0  0  0
   10.8280    6.5970   23.6600 O   0  0  0  0  0  0  0  0  0  0  0  0
    7.0460   -4.7210   28.7820 C   0  0  0  0  0  0  0  0  0  0  0  0
    6.2070   -6.0730   27.1870 C   0  0  0  0  0  0  0  0  0  0  0  0
   11.7580    6.5090   24.7430 C   0  0  0  0  0  0  0  0  0  0  0  0
  1  2  1  0
  2  3  2  0
  1  4  1  0
  1  5  1  0
  1  6  1  1
  4  7  1  6
  4  8  1  0
  6  9  2  0
  6 10  1  0
  2 11  1  0
 12  5  1  1
 11 12  1  0
 11 13  1  6
  7 14  1  0
  7 15  2  0
  8 16  2  0
  8 17  1  0
  9 18  1  0
 10 19  2  0
 12 20  1  0
 11 21  1  0
 17 22  2  0
 16 23  1  0
 14 24  1  0
 18 25  2  0
 19 25  1  0
 20 26  1  0
 21 27  1  0
 26 27  1  0
 25 28  1  0
 26 29  1  1
 22 30  1  0
 23 30  2  0
 24 31  2  0
 24 32  1  0
 28 33  1  0
 31 34  1  0
 28 35  1  1
 32 36  1  0
 29 37  1  0
 29 38  2  0
 31 39  1  0
 32 40  2  0
 33 41  1  0
 34 42  1  0
 37 43  1  0
 37 44  1  0
 39 45  2  0
 40 45  1  0
 45 46  1  0
 43 47  1  0
 43 48  1  0
 46 49  1  0
M  END
