x2705-x0786-x2694-x2193-x1311
     RDKit          3D

 60 66  0  0  0  0  0  0  0  0999 V2000
    7.1240   -1.6660   21.8180 N   0  0  0  0  0  0  0  0  0  0  0  0
    6.3000   -2.9180   21.4170 C   0  0  0  0  0  0  0  0  0  0  0  0
    4.9760   -3.1460   21.1260 O   0  0  0  0  0  0  0  0  0  0  0  0
    6.6610   -0.2470   21.6090 C   0  0  1  0  0  0  0  0  0  0  0  0
    8.4700   -1.6700   22.5040 C   0  0  0  0  0  0  0  0  0  0  0  0
    7.1470   -4.1930   21.4050 C   0  0  0  0  0  0  0  0  0  0  0  0
    7.7050    0.9810   21.8020 C   0  0  0  0  0  0  0  0  0  0  0  0
    6.0490    0.2340   20.2940 C   0  0  0  0  0  0  0  0  0  0  0  0
    8.7260   -1.9850   23.9480 N   0  0  0  0  0  0  0  0  0  0  0  0
    9.7320   -1.3710   21.9510 C   0  0  0  0  0  0  0  0  0  0  0  0
    7.1610   -3.6280   19.9690 C   0  0  0  0  0  0  0  0  0  0  0  0
    7.4270    1.9470   22.8800 N   0  0  0  0  0  0  0  0  0  0  0  0
    8.6730    1.1690   21.0700 O   0  0  0  0  0  0  0  0  0  0  0  0
    4.8600    0.9360   20.1430 C   0  0  0  0  0  0  0  0  0  0  0  0
    6.8420   -0.0800   19.1900 C   0  0  0  0  0  0  0  0  0  0  0  0
   10.0620   -1.8780   24.2400 N   0  0  0  0  0  0  0  0  0  0  0  0
   10.6860   -1.5000   22.9870 C   0  0  0  0  0  0  0  0  0  0  0  0
    7.9750   -2.3730   25.1190 C   0  0  0  0  0  0  0  0  0  0  0  0
   12.2110   -1.3150   23.0120 C   0  0  0  0  0  0  0  0  0  0  0  0
    6.4480    0.3230   17.9440 N   0  0  0  0  0  0  0  0  0  0  0  0
    4.4470    1.3500   18.9070 C   0  0  0  0  0  0  0  0  0  0  0  0
    8.1720    3.1720   23.0030 C   0  0  0  0  0  0  0  0  0  0  0  0
    8.1810   -3.8600   25.6260 C   0  0  0  0  0  0  0  0  0  0  0  0
   12.6220    0.1070   23.3780 C   0  0  0  0  0  0  0  0  0  0  0  0
   12.7880   -2.2290   24.1360 C   0  0  0  0  0  0  0  0  0  0  0  0
   12.8350   -1.7530   21.7200 C   0  0  0  0  0  0  0  0  0  0  0  0
    5.1920    1.0830   17.7840 C   0  0  0  0  0  0  0  0  0  0  0  0
    9.4520    3.1360   23.5570 C   0  0  0  0  0  0  0  0  0  0  0  0
    7.6880    4.5140   22.5900 C   0  0  0  0  0  0  0  0  0  0  0  0
    8.9180   -4.0010   26.9460 C   0  0  0  0  0  0  0  0  0  0  0  0
    8.7140   -4.6820   24.5980 C   0  0  0  0  0  0  0  0  0  0  0  0
    6.7360   -4.2660   26.1160 C   0  0  0  0  0  0  0  0  0  0  0  0
   10.0620    1.8310   24.0000 C   0  0  0  0  0  0  0  0  0  0  0  0
    6.3430    4.7660   21.9580 C   0  0  0  0  0  0  0  0  0  0  0  0
   10.2360    4.2790   23.7360 C   0  0  0  0  0  0  0  0  0  0  0  0
    8.5180    5.6630   22.7920 C   0  0  0  0  0  0  0  0  0  0  0  0
    9.1700   -5.2950   27.3890 C   0  0  0  0  0  0  0  0  0  0  0  0
    9.5850   -5.8360   25.0330 C   0  0  0  0  0  0  0  0  0  0  0  0
    6.1220   -5.4820   25.5100 C   0  0  0  0  0  0  0  0  0  0  0  0
    9.2780    1.1930   24.9790 C   0  0  0  0  0  0  0  0  0  0  0  0
    9.8220    5.5820   23.3810 C   0  0  0  0  0  0  0  0  0  0  0  0
    9.1470   -6.3160   26.3270 N   0  0  0  0  0  0  0  0  0  0  0  0
    5.7480   -5.2080   24.0530 C   0  0  1  0  0  0  0  0  0  0  0  0
   10.6030    6.7070   23.5820 O   0  0  0  0  0  0  0  0  0  0  0  0
    4.2860   -5.4900   23.8400 C   0  0  1  0  0  0  0  0  0  0  0  0
    6.1280   -3.8790   23.8210 C   0  0  0  0  0  0  0  0  0  0  0  0
   11.6620    6.6080   24.5480 C   0  0  0  0  0  0  0  0  0  0  0  0
    3.3970   -4.3300   24.1900 C   0  0  0  0  0  0  0  0  0  0  0  0
    5.2750   -2.6380   23.9140 C   0  0  0  0  0  0  0  0  0  0  0  0
    4.1480   -5.8820   22.3580 C   0  0  0  0  0  0  0  0  0  0  0  0
    3.3370   -6.9140   24.3240 S   0  0  1  0  0  0  0  0  0  0  0  0
    4.2110   -8.0030   24.6290 O   0  0  0  0  0  0  0  0  0  0  0  0
    3.8500   -2.9040   24.2650 C   0  0  0  0  0  0  0  0  0  0  0  0
    1.8290   -6.9280   24.9790 N   0  0  0  0  0  0  0  0  0  0  0  0
    3.2240   -7.0680   22.6470 C   0  0  0  0  0  0  0  0  0  0  0  0
    1.0980   -5.6850   25.2350 C   0  0  0  0  0  0  0  0  0  0  0  0
    0.8600   -7.9150   24.4560 C   0  0  0  0  0  0  0  0  0  0  0  0
    0.3830   -5.2360   24.1130 C   0  0  0  0  0  0  0  0  0  0  0  0
   -0.4990   -7.7600   24.7040 C   0  0  0  0  0  0  0  0  0  0  0  0
   -1.1340   -6.2380   24.0000 S   0  0  0  0  0  0  0  0  0  0  0  0
  1  2  1  0
  2  3  2  0
  1  4  1  0
  1  5  1  0
  2  6  1  0
  4  7  1  6
  4  8  1  0
  5  9  1  0
  5 10  2  0
  6 11  1  0
  7 12  1  0
  7 13  2  0
  8 14  2  0
  8 15  1  0
  9 16  1  0
 10 17  1  0
 16 17  2  0
  9 18  1  0
 17 19  1  0
 15 20  2  0
 14 21  1  0
 12 22  1  0
 23 18  1  0
 19 24  1  0
 19 25  1  0
 19 26  1  0
 20 27  1  0
 21 27  2  0
 22 28  2  0
 22 29  1  0
 23 30  1  0
 23 31  1  0
 23 32  1  0
 28 33  1  0
 29 34  1  0
 28 35  1  0
 29 36  2  0
 30 37  1  0
 31 38  1  0
 32 39  1  0
 33 40  1  0
 35 41  2  0
 36 41  1  0
 37 42  1  0
 38 42  1  0
 43 39  1  1
 41 44  1  0
 43 45  1  0
 43 46  1  0
 44 47  1  0
 45 48  1  6
 46 49  2  0
 45 50  1  0
 45 51  1  0
 51 52  1  1
 48 53  2  0
 49 53  1  0
 51 54  1  0
 50 55  2  0
 51 55  1  0
 54 56  1  0
 54 57  1  0
 56 58  1  0
 57 59  1  0
 58 60  1  0
 59 60  1  0
M  END
