x2703-x0981-x2694-x1402
     RDKit          3D

 64 69  0  0  0  0  0  0  0  0999 V2000
    6.7050   -1.2230   22.0400 C   0  0  1  0  0  0  0  0  0  0  0  0
    5.6240   -2.3750   21.3440 C   0  0  0  0  0  0  0  0  0  0  0  0
    4.5350   -2.9770   21.7310 O   0  0  0  0  0  0  0  0  0  0  0  0
    6.6570    0.1430   21.6120 C   0  0  1  0  0  0  0  0  0  0  0  0
    7.3550   -2.2050   21.2450 C   0  0  0  0  0  0  0  0  0  0  0  0
    8.0890   -1.3160   22.8630 C   0  0  0  0  0  0  0  0  0  0  0  0
    5.8770   -2.9820   19.9550 C   0  0  0  0  0  0  0  0  0  0  0  0
    7.7500    1.0910   21.8250 C   0  0  0  0  0  0  0  0  0  0  0  0
    7.2190   -3.2960   22.1450 C   0  0  0  0  0  0  0  0  0  0  0  0
    6.2130    0.5110   20.1920 C   0  0  0  0  0  0  0  0  0  0  0  0
    8.3330   -1.3800   24.3280 N   0  0  0  0  0  0  0  0  0  0  0  0
    9.5280   -1.3470   22.3420 C   0  0  0  0  0  0  0  0  0  0  0  0
    6.5520   -4.3440   20.0680 C   0  0  0  0  0  0  0  0  0  0  0  0
    7.4610    2.2860   22.5420 N   0  0  0  0  0  0  0  0  0  0  0  0
    8.8800    0.9040   21.3740 O   0  0  0  0  0  0  0  0  0  0  0  0
    5.0060    1.4070   20.1260 C   0  0  0  0  0  0  0  0  0  0  0  0
    6.9450    0.0260   18.9340 C   0  0  0  0  0  0  0  0  0  0  0  0
    9.7570   -1.4380   24.5640 O   0  0  0  0  0  0  0  0  0  0  0  0
   10.5340   -1.4250   23.4260 C   0  0  0  0  0  0  0  0  0  0  0  0
    6.6480   -4.6630   21.6360 C   0  0  1  0  0  0  0  0  0  0  0  0
   12.1010   -1.4790   23.3970 C   0  0  0  0  0  0  0  0  0  0  0  0
    6.3470    0.5550   17.7010 N   0  0  0  0  0  0  0  0  0  0  0  0
    4.5360    1.8350   18.8710 C   0  0  0  0  0  0  0  0  0  0  0  0
    8.4100    3.3390   22.8730 C   0  0  0  0  0  0  0  0  0  0  0  0
    7.4400   -5.5410   22.3020 C   0  0  0  0  0  0  0  0  0  0  0  0
    5.2310   -5.2980   22.0390 C   0  0  0  0  0  0  0  0  0  0  0  0
    6.0940    2.7410   22.9160 C   0  0  0  0  0  0  0  0  0  0  0  0
   12.6500   -0.3080   23.9040 C   0  0  0  0  0  0  0  0  0  0  0  0
   12.7140   -1.6570   21.9890 C   0  0  0  0  0  0  0  0  0  0  0  0
   12.4210   -2.6320   24.1040 C   0  0  0  0  0  0  0  0  0  0  0  0
    5.1740    1.4390   17.7230 C   0  0  0  0  0  0  0  0  0  0  0  0
    9.6060    3.1060   23.5740 C   0  0  0  0  0  0  0  0  0  0  0  0
    8.1200    4.7980   22.4610 C   0  0  0  0  0  0  0  0  0  0  0  0
    7.1170   -5.5370   23.6780 C   0  0  1  0  0  0  0  0  0  0  0  0
    4.7560   -5.3630   23.3760 C   0  0  1  0  0  0  0  0  0  0  0  0
    5.6100    3.6730   21.9880 C   0  0  0  0  0  0  0  0  0  0  0  0
   10.0240    1.7470   24.0430 C   0  0  0  0  0  0  0  0  0  0  0  0
   13.2940   -2.4520   25.1010 C   0  0  0  0  0  0  0  0  0  0  0  0
    3.3460   -6.1210   23.6610 C   0  0  1  0  0  0  0  0  0  0  0  0
    7.3740   -4.3540   24.3060 O   0  0  0  0  0  0  0  0  0  0  0  0
   10.5220    4.3030   23.8770 C   0  0  0  0  0  0  0  0  0  0  0  0
    9.0780    5.9220   22.8110 C   0  0  0  0  0  0  0  0  0  0  0  0
    5.6900   -5.7170   24.2350 N   0  0  0  0  0  0  0  0  0  0  0  0
    9.0660    1.2310   25.1350 C   0  0  0  0  0  0  0  0  0  0  0  0
    2.9530   -7.1470   22.6880 N   0  0  0  0  0  0  0  0  0  0  0  0
    3.4610   -6.7910   24.8830 C   0  0  0  0  0  0  0  0  0  0  0  0
    5.4950   -5.1950   25.8770 S   0  0  0  0  0  0  0  0  0  0  0  0
   10.2660    5.7570   23.5030 C   0  0  0  0  0  0  0  0  0  0  0  0
   11.1900    6.6880   23.8740 O   0  0  0  0  0  0  0  0  0  0  0  0
    1.5490   -7.3570   22.2110 C   0  0  0  0  0  0  0  0  0  0  0  0
    2.7710   -7.9610   25.0410 C   0  0  0  0  0  0  0  0  0  0  0  0
    4.8370   -6.2220   26.6470 O   0  0  0  0  0  0  0  0  0  0  0  0
    6.7690   -4.7530   26.3700 O   0  0  0  0  0  0  0  0  0  0  0  0
    4.4520   -3.7440   25.9560 C   0  0  0  0  0  0  0  0  0  0  0  0
   11.8750    6.5550   25.1130 C   0  0  0  0  0  0  0  0  0  0  0  0
    1.1940   -8.6590   21.4750 C   0  0  0  0  0  0  0  0  0  0  0  0
    0.6730   -6.5020   22.3640 O   0  0  0  0  0  0  0  0  0  0  0  0
    2.3390   -8.2270   26.3950 N   0  0  0  0  0  0  0  0  0  0  0  0
    2.5300   -8.8690   24.0140 O   0  0  0  0  0  0  0  0  0  0  0  0
    2.7130   -3.8670   26.0040 S   0  0  0  0  0  0  0  0  0  0  0  0
    4.7590   -2.2450   25.9950 C   0  0  0  0  0  0  0  0  0  0  0  0
    3.5110   -1.3880   26.0640 C   0  0  0  0  0  0  0  0  0  0  0  0
    2.3650   -2.1770   26.0770 C   0  0  0  0  0  0  0  0  0  0  0  0
    0.7410   -1.6330   26.1610 Cl  0  0  0  0  0  0  0  0  0  0  0  0
  1  2  1  0
  2  3  2  0
  1  4  1  0
  1  5  1  0
  1  6  1  1
  2  7  1  0
  4  8  1  6
  5  9  1  0
  4 10  1  0
  6 11  2  0
  6 12  1  0
  7 13  1  0
  8 14  1  0
  8 15  2  0
 10 16  2  0
 10 17  1  0
 11 18  1  0
 12 19  2  0
 18 19  1  0
 20  9  1  1
 13 20  1  0
 19 21  1  0
 17 22  2  0
 16 23  1  0
 14 24  1  0
 20 25  1  0
 20 26  1  0
 14 27  1  0
 21 28  1  0
 21 29  1  0
 21 30  1  0
 22 31  1  0
 23 31  2  0
 24 32  2  0
 24 33  1  0
 25 34  1  0
 35 26  1  6
 27 36  1  0
 32 37  1  0
 30 38  1  0
 35 39  1  0
 34 40  1  6
 32 41  1  0
 33 42  2  0
 34 43  1  0
 35 43  1  0
 37 44  1  0
 39 45  1  0
 39 46  1  1
 43 47  1  0
 41 48  2  0
 42 48  1  0
 48 49  1  0
 45 50  1  0
 46 51  1  0
 47 52  2  0
 47 53  2  0
 47 54  1  0
 49 55  1  0
 50 56  1  0
 50 57  2  0
 51 58  1  0
 51 59  2  0
 54 60  1  0
 54 61  2  0
 61 62  1  0
 60 63  1  0
 62 63  2  0
 63 64  1  0
M  END
