x2705-x0995-x2694-x1311
     RDKit          3D

 50 54  0  0  0  0  0  0  0  0999 V2000
    7.1120   -1.5880   21.6460 N   0  0  0  0  0  0  0  0  0  0  0  0
    6.1730   -2.7990   21.5360 C   0  0  0  0  0  0  0  0  0  0  0  0
    4.8750   -3.0070   21.1300 O   0  0  0  0  0  0  0  0  0  0  0  0
    6.7200   -0.2560   21.4660 C   0  0  1  0  0  0  0  0  0  0  0  0
    8.3200   -1.5940   22.5820 C   0  0  0  0  0  0  0  0  0  0  0  0
    6.6570   -4.1720   21.8700 C   0  0  1  0  0  0  0  0  0  0  0  0
    7.7650    0.8160   21.8530 C   0  0  0  0  0  0  0  0  0  0  0  0
    6.2060    0.2110   20.2110 C   0  0  0  0  0  0  0  0  0  0  0  0
    8.2490   -1.5490   23.9550 N   0  0  0  0  0  0  0  0  0  0  0  0
    9.6480   -1.5960   22.1040 C   0  0  0  0  0  0  0  0  0  0  0  0
    6.9370   -5.0340   20.6350 C   0  0  0  0  0  0  0  0  0  0  0  0
    7.3930    1.9700   22.7380 N   0  0  0  0  0  0  0  0  0  0  0  0
    8.8950    0.7490   21.3940 O   0  0  0  0  0  0  0  0  0  0  0  0
    4.9670    1.0640   20.1790 C   0  0  0  0  0  0  0  0  0  0  0  0
    6.8870   -0.1190   19.0440 C   0  0  0  0  0  0  0  0  0  0  0  0
    9.5400   -1.5050   24.3670 N   0  0  0  0  0  0  0  0  0  0  0  0
   10.4350   -1.5350   23.2160 C   0  0  0  0  0  0  0  0  0  0  0  0
    7.3820   -4.6230   23.2100 C   0  0  0  0  0  0  0  0  0  0  0  0
   12.0070   -1.4950   23.2260 C   0  0  0  0  0  0  0  0  0  0  0  0
    6.4190    0.3610   17.8510 N   0  0  0  0  0  0  0  0  0  0  0  0
    4.4960    1.5590   18.8730 C   0  0  0  0  0  0  0  0  0  0  0  0
    8.1730    3.1520   22.9480 C   0  0  0  0  0  0  0  0  0  0  0  0
    8.7150   -5.0110   23.0770 C   0  0  0  0  0  0  0  0  0  0  0  0
    6.7580   -4.7060   24.5110 C   0  0  0  0  0  0  0  0  0  0  0  0
   12.4130   -0.2610   23.7400 C   0  0  0  0  0  0  0  0  0  0  0  0
   12.6080   -2.5400   24.1930 C   0  0  0  0  0  0  0  0  0  0  0  0
   12.5920   -1.6830   21.9930 C   0  0  0  0  0  0  0  0  0  0  0  0
    3.3000    2.3840   18.8740 N   0  0  0  0  0  0  0  0  0  0  0  0
    5.2150    1.2110   17.7770 C   0  0  0  0  0  0  0  0  0  0  0  0
    9.4480    3.1610   23.5340 C   0  0  0  0  0  0  0  0  0  0  0  0
    7.6230    4.4930   22.5330 C   0  0  0  0  0  0  0  0  0  0  0  0
    9.4780   -5.5010   24.1340 C   0  0  0  0  0  0  0  0  0  0  0  0
    7.5390   -5.2340   25.6970 C   0  0  0  0  0  0  0  0  0  0  0  0
    5.3410   -4.3610   24.8820 C   0  0  0  0  0  0  0  0  0  0  0  0
   10.0860    1.8420   23.9830 C   0  0  0  0  0  0  0  0  0  0  0  0
    6.2200    4.5190   21.8740 C   0  0  0  0  0  0  0  0  0  0  0  0
   10.2540    4.4730   23.7560 C   0  0  0  0  0  0  0  0  0  0  0  0
    8.4140    5.7690   22.7540 C   0  0  0  0  0  0  0  0  0  0  0  0
    8.9510   -5.6620   25.4930 C   0  0  0  0  0  0  0  0  0  0  0  0
    4.5020   -5.1270   23.9020 C   0  0  1  0  0  0  0  0  0  0  0  0
    9.2100    1.2750   24.9210 C   0  0  0  0  0  0  0  0  0  0  0  0
    9.8090    5.7480   23.4080 C   0  0  0  0  0  0  0  0  0  0  0  0
    5.4020   -6.1070   23.1800 C   0  0  0  0  0  0  0  0  0  0  0  0
    3.3840   -6.4650   24.3500 S   0  0  0  0  0  0  0  0  0  0  0  0
   10.6710    6.7930   23.6990 O   0  0  0  0  0  0  0  0  0  0  0  0
    4.1260   -7.5090   25.0500 O   0  0  0  0  0  0  0  0  0  0  0  0
    2.1190   -5.9760   24.8330 O   0  0  0  0  0  0  0  0  0  0  0  0
    4.4380   -6.6650   22.2760 C   0  0  0  0  0  0  0  0  0  0  0  0
    3.2360   -6.9340   22.7980 C   0  0  0  0  0  0  0  0  0  0  0  0
   11.7170    6.5860   24.6630 C   0  0  0  0  0  0  0  0  0  0  0  0
  1  2  1  0
  2  3  2  0
  1  4  1  0
  1  5  1  0
  2  6  1  0
  4  7  1  6
  4  8  1  0
  5  9  2  0
  5 10  1  0
  6 11  1  6
  7 12  1  0
  7 13  2  0
  8 14  2  0
  8 15  1  0
  9 16  1  0
 10 17  2  0
 16 17  1  0
  6 18  1  0
 17 19  1  0
 15 20  2  0
 14 21  1  0
 12 22  1  0
 18 23  2  0
 18 24  1  0
 19 25  1  0
 19 26  1  0
 19 27  1  0
 21 28  1  0
 20 29  1  0
 21 29  2  0
 22 30  2  0
 22 31  1  0
 23 32  1  0
 24 33  2  0
 24 34  1  0
 30 35  1  0
 31 36  1  0
 30 37  1  0
 31 38  2  0
 32 39  2  0
 33 39  1  0
 40 34  1  1
 35 41  1  0
 37 42  2  0
 38 42  1  0
 40 43  1  0
 40 44  1  0
 42 45  1  0
 44 46  1  0
 44 47  1  0
 43 48  1  0
 44 49  1  0
 48 49  2  0
 45 50  1  0
M  END
