x2703-x0195
     RDKit          3D

 45 49  0  0  0  0  0  0  0  0999 V2000
    6.8930   -1.6310   21.7940 N   0  0  0  0  0  0  0  0  0  0  0  0
    6.0230   -2.8210   21.5260 C   0  0  0  0  0  0  0  0  0  0  0  0
    4.7890   -2.9590   21.1660 O   0  0  0  0  0  0  0  0  0  0  0  0
    6.4570   -0.2530   21.6670 C   0  0  1  0  0  0  0  0  0  0  0  0
    8.0990   -1.9060   22.4810 C   0  0  2  0  0  0  0  0  0  0  0  0
    6.6540   -4.1930   21.6940 C   0  0  0  0  0  0  0  0  0  0  0  0
    7.4360    0.9220   21.9660 C   0  0  0  0  0  0  0  0  0  0  0  0
    5.8620    0.2330   20.3510 C   0  0  0  0  0  0  0  0  0  0  0  0
    8.5640   -0.9130   23.3320 C   0  0  0  0  0  0  0  0  0  0  0  0
    9.2260   -2.3180   21.7940 C   0  0  0  0  0  0  0  0  0  0  0  0
    6.5850   -4.9140   20.3500 C   0  0  0  0  0  0  0  0  0  0  0  0
    7.0620    1.9380   23.0140 N   0  0  0  0  0  0  0  0  0  0  0  0
    8.4840    1.0840   21.3340 O   0  0  0  0  0  0  0  0  0  0  0  0
    4.6510    0.8880   20.1720 C   0  0  0  0  0  0  0  0  0  0  0  0
    6.6680   -0.0000   19.2280 C   0  0  0  0  0  0  0  0  0  0  0  0
   10.0430   -2.8440   22.7910 N   0  0  0  0  0  0  0  0  0  0  0  0
    9.5670   -1.4270   24.1440 C   0  0  2  0  0  0  0  0  0  0  0  0
   10.0360   -0.3210   25.1200 C   0  0  0  0  0  0  0  0  0  0  0  0
    6.3810    0.3650   17.9660 N   0  0  0  0  0  0  0  0  0  0  0  0
    4.2520    1.3030   18.9790 C   0  0  0  0  0  0  0  0  0  0  0  0
   10.6980   -1.9630   23.5070 C   0  0  1  0  0  0  0  0  0  0  0  0
    7.6890    3.3010   23.0620 C   0  0  0  0  0  0  0  0  0  0  0  0
    5.2090    1.0080   17.8290 C   0  0  0  0  0  0  0  0  0  0  0  0
    8.7650    3.5640   23.9130 C   0  0  0  0  0  0  0  0  0  0  0  0
    7.2240    4.3280   22.2590 C   0  0  0  0  0  0  0  0  0  0  0  0
   11.5130   -2.7140   24.2380 N   0  0  0  0  0  0  0  0  0  0  0  0
   11.4990   -1.1590   22.4110 C   0  0  0  0  0  0  0  0  0  0  0  0
    9.2100    0.9510   25.1280 C   0  0  0  0  0  0  0  0  0  0  0  0
    6.0220    3.9940   21.4050 C   0  0  0  0  0  0  0  0  0  0  0  0
   12.9060   -2.3810   24.1600 C   0  0  2  0  0  0  0  0  0  0  0  0
    9.4100    4.8050   23.9460 C   0  0  0  0  0  0  0  0  0  0  0  0
    7.8900    5.5810   22.2970 C   0  0  0  0  0  0  0  0  0  0  0  0
   12.6320   -0.5190   22.8640 C   0  0  2  0  0  0  0  0  0  0  0  0
    8.1420    0.9350   25.9940 C   0  0  0  0  0  0  0  0  0  0  0  0
   13.6270   -2.8110   25.4180 C   0  0  0  0  0  0  0  0  0  0  0  0
   13.0860   -1.0500   24.1470 C   0  0  0  0  0  0  0  0  0  0  0  0
   10.4640    5.2140   24.6970 O   0  0  0  0  0  0  0  0  0  0  0  0
    8.9970    5.8230   23.1320 C   0  0  0  0  0  0  0  0  0  0  0  0
   12.3750    0.8290   22.8660 C   0  0  0  0  0  0  0  0  0  0  0  0
    9.6530    7.0060   23.1560 N   0  0  0  0  0  0  0  0  0  0  0  0
   11.0890    1.2650   23.0350 C   0  0  0  0  0  0  0  0  0  0  0  0
   13.4010    1.9040   22.6710 C   0  0  0  0  0  0  0  0  0  0  0  0
   13.0080    3.2260   22.6690 C   0  0  0  0  0  0  0  0  0  0  0  0
   10.7340    2.5890   23.0250 C   0  0  0  0  0  0  0  0  0  0  0  0
   11.7020    3.5590   22.8430 C   0  0  0  0  0  0  0  0  0  0  0  0
  1  2  1  0
  2  3  2  0
  1  4  1  0
  5  1  1  6
  2  6  1  0
  4  7  1  6
  4  8  1  0
  5  9  1  0
  5 10  1  0
  6 11  1  0
  7 12  1  0
  7 13  2  0
  8 14  2  0
  8 15  1  0
 10 16  1  0
  9 17  1  0
 17 18  1  1
 15 19  2  0
 14 20  1  0
 21 16  1  0
 17 21  1  0
 12 22  1  0
 19 23  1  0
 20 23  2  0
 22 24  2  0
 22 25  1  0
 21 26  1  0
 21 27  1  6
 18 28  1  0
 25 29  1  0
 26 30  1  0
 24 31  1  0
 25 32  2  0
 27 33  1  0
 28 34  1  0
 30 35  1  1
 30 36  1  0
 33 36  1  0
 31 37  1  0
 31 38  2  0
 32 38  1  0
 33 39  1  1
 38 40  1  0
 39 41  2  0
 39 42  1  0
 42 43  2  0
 41 44  1  0
 43 45  1  0
 44 45  2  0
M  END
