x2705-x0978-x0689-x0771-x2776
     RDKit          3D

 60 65  0  0  0  0  0  0  0  0999 V2000
    6.7490   -1.3230   21.9280 N   0  0  0  0  0  0  0  0  0  0  0  0
    5.8550   -2.3650   21.2800 C   0  0  0  0  0  0  0  0  0  0  0  0
    4.7230   -3.0280   21.5290 O   0  0  0  0  0  0  0  0  0  0  0  0
    6.5630    0.0300   21.6610 C   0  0  1  0  0  0  0  0  0  0  0  0
    8.0810   -1.4370   22.5960 C   0  0  0  0  0  0  0  0  0  0  0  0
    6.3280   -2.7820   20.0000 C   0  0  0  0  0  0  0  0  0  0  0  0
    7.7280    0.9860   21.9260 C   0  0  0  0  0  0  0  0  0  0  0  0
    6.0800    0.4490   20.3290 C   0  0  0  0  0  0  0  0  0  0  0  0
    8.1490   -1.5390   23.9730 N   0  0  0  0  0  0  0  0  0  0  0  0
    9.5790   -1.4320   22.0730 C   0  0  0  0  0  0  0  0  0  0  0  0
    6.7600   -4.1880   20.0520 C   0  0  0  0  0  0  0  0  0  0  0  0
    7.5490    2.0610   22.9290 N   0  0  0  0  0  0  0  0  0  0  0  0
    8.7700    0.8940   21.2940 O   0  0  0  0  0  0  0  0  0  0  0  0
    4.8840    1.2070   20.1530 C   0  0  0  0  0  0  0  0  0  0  0  0
    6.8410    0.1040   19.1980 C   0  0  0  0  0  0  0  0  0  0  0  0
    9.4610   -1.5900   24.3780 N   0  0  0  0  0  0  0  0  0  0  0  0
   10.3250   -1.5230   23.2260 C   0  0  0  0  0  0  0  0  0  0  0  0
   11.8850   -1.5370   23.2070 C   0  0  0  0  0  0  0  0  0  0  0  0
    6.4110    0.5410   17.8510 N   0  0  0  0  0  0  0  0  0  0  0  0
    4.3990    1.6540   18.9680 C   0  0  0  0  0  0  0  0  0  0  0  0
    8.1330    3.3540   22.9930 C   0  0  0  0  0  0  0  0  0  0  0  0
    6.7400   -4.8910   21.4130 N   0  0  0  0  0  0  0  0  0  0  0  0
   12.3760   -0.3440   23.7560 C   0  0  0  0  0  0  0  0  0  0  0  0
   12.3530   -2.7060   24.0990 C   0  0  0  0  0  0  0  0  0  0  0  0
   12.4230   -1.7610   21.9450 C   0  0  0  0  0  0  0  0  0  0  0  0
    5.1860    1.3320   17.7000 C   0  0  0  0  0  0  0  0  0  0  0  0
    9.4340    3.5160   23.5700 C   0  0  0  0  0  0  0  0  0  0  0  0
    7.3750    4.5310   22.4620 C   0  0  0  0  0  0  0  0  0  0  0  0
    5.6690   -5.9350   21.6970 C   0  0  0  0  0  0  0  0  0  0  0  0
    7.1960   -4.2630   22.6860 C   0  0  0  0  0  0  0  0  0  0  0  0
   10.0940    2.2380   24.0380 C   0  0  0  0  0  0  0  0  0  0  0  0
    6.0130    4.5250   21.8250 C   0  0  0  0  0  0  0  0  0  0  0  0
   13.3470   -2.4390   25.1920 C   0  0  0  0  0  0  0  0  0  0  0  0
   10.3560    4.8130   23.8200 C   0  0  0  0  0  0  0  0  0  0  0  0
    7.9990    5.7180   22.5800 C   0  0  0  0  0  0  0  0  0  0  0  0
    4.7610   -5.5650   22.9420 C   0  0  2  0  0  0  0  0  0  0  0  0
    6.9860   -4.9900   23.8760 C   0  0  0  0  0  0  0  0  0  0  0  0
    9.2110    1.5230   24.8710 C   0  0  0  0  0  0  0  0  0  0  0  0
   10.9030    6.0840   23.9010 O   0  0  0  0  0  0  0  0  0  0  0  0
    3.3940   -6.4320   23.1160 C   0  0  2  0  0  0  0  0  0  0  0  0
    4.2750   -4.2730   22.6270 O   0  0  0  0  0  0  0  0  0  0  0  0
    9.3620    5.8290   23.2070 C   0  0  0  0  0  0  0  0  0  0  0  0
    5.6160   -5.4560   24.1160 N   0  0  0  0  0  0  0  0  0  0  0  0
   11.8880    6.2860   24.8930 C   0  0  0  0  0  0  0  0  0  0  0  0
    2.3230   -5.5940   22.9510 N   0  0  0  0  0  0  0  0  0  0  0  0
    3.1830   -7.1370   24.4670 C   0  0  1  0  0  0  0  0  0  0  0  0
    4.9750   -5.6420   25.6610 S   0  0  1  0  0  0  0  0  0  0  0  0
    2.4110   -8.4440   24.4850 C   0  0  0  0  0  0  0  0  0  0  0  0
    4.2910   -7.1420   25.4720 N   0  0  0  0  0  0  0  0  0  0  0  0
    1.1570   -6.2190   22.6150 C   0  0  0  0  0  0  0  0  0  0  0  0
    5.9850   -5.6330   26.6890 O   0  0  0  0  0  0  0  0  0  0  0  0
    3.7470   -4.3800   25.8850 C   0  0  0  0  0  0  0  0  0  0  0  0
    1.0160   -7.4880   21.9840 O   0  0  0  0  0  0  0  0  0  0  0  0
   -0.0150   -5.5350   22.9020 C   0  0  0  0  0  0  0  0  0  0  0  0
    2.2300   -4.6880   25.8610 C   0  0  0  0  0  0  0  0  0  0  0  0
    4.2000   -2.9390   26.0980 C   0  0  0  0  0  0  0  0  0  0  0  0
    1.1750   -3.6260   26.0320 C   0  0  0  0  0  0  0  0  0  0  0  0
    3.1240   -1.8470   26.2770 C   0  0  0  0  0  0  0  0  0  0  0  0
    1.6270   -2.1870   26.2430 C   0  0  0  0  0  0  0  0  0  0  0  0
    0.6000   -1.1130   26.4240 C   0  0  0  0  0  0  0  0  0  0  0  0
  1  2  1  0
  2  3  2  0
  1  4  1  0
  1  5  1  0
  2  6  1  0
  4  7  1  6
  4  8  1  0
  5  9  2  0
  5 10  1  0
  6 11  1  0
  7 12  1  0
  7 13  2  0
  8 14  2  0
  8 15  1  0
  9 16  1  0
 10 17  2  0
 16 17  1  0
 17 18  1  0
 15 19  2  0
 14 20  1  0
 12 21  1  0
 11 22  1  0
 18 23  1  0
 18 24  1  0
 18 25  1  0
 19 26  1  0
 20 26  2  0
 21 27  2  0
 21 28  1  0
 22 29  1  0
 22 30  1  0
 27 31  1  0
 28 32  1  0
 24 33  1  0
 27 34  1  0
 28 35  2  0
 29 36  1  0
 30 37  1  0
 31 38  1  0
 34 39  1  0
 36 40  1  0
 36 41  1  6
 34 42  2  0
 35 42  1  0
 36 43  1  0
 37 43  1  0
 39 44  1  0
 40 45  1  1
 40 46  1  0
 43 47  1  0
 46 48  1  6
 46 49  1  0
 47 49  2  0
 45 50  1  0
 47 51  2  0
 47 52  1  1
 50 53  2  0
 50 54  1  0
 52 55  2  0
 52 56  1  0
 55 57  1  0
 56 58  2  0
 57 59  2  0
 58 59  1  0
 59 60  1  0
M  END
