x2705-x2694-x0978-x2193-x1402
     RDKit          3D

 64 70  0  0  0  0  0  0  0  0999 V2000
    6.7970   -1.2610   21.9450 N   0  0  0  0  0  0  0  0  0  0  0  0
    5.8890   -2.3400   21.2680 C   0  0  0  0  0  0  0  0  0  0  0  0
    4.7240   -3.0020   21.5030 O   0  0  0  0  0  0  0  0  0  0  0  0
    6.4420    0.1070   21.7820 C   0  0  1  0  0  0  0  0  0  0  0  0
    8.1600   -1.2970   22.5820 C   0  0  0  0  0  0  0  0  0  0  0  0
    6.4310   -2.7960   20.0160 C   0  0  0  0  0  0  0  0  0  0  0  0
    7.4430    1.1450   22.0030 C   0  0  0  0  0  0  0  0  0  0  0  0
    6.0200    0.4670   20.3430 C   0  0  0  0  0  0  0  0  0  0  0  0
    8.4020   -1.2750   23.9140 N   0  0  0  0  0  0  0  0  0  0  0  0
    9.4060   -1.3190   21.9440 C   0  0  0  0  0  0  0  0  0  0  0  0
    6.7020   -4.2800   20.0410 C   0  0  0  0  0  0  0  0  0  0  0  0
    7.0030    2.3070   22.6460 N   0  0  0  0  0  0  0  0  0  0  0  0
    8.6040    1.0260   21.5840 O   0  0  0  0  0  0  0  0  0  0  0  0
    4.8010    1.2700   20.0510 C   0  0  0  0  0  0  0  0  0  0  0  0
    6.7960    0.0810   19.1260 C   0  0  0  0  0  0  0  0  0  0  0  0
    9.7600   -1.2770   24.2050 N   0  0  0  0  0  0  0  0  0  0  0  0
   10.5020   -1.2950   23.0460 C   0  0  0  0  0  0  0  0  0  0  0  0
   12.0170   -1.2790   22.9620 C   0  0  0  0  0  0  0  0  0  0  0  0
    6.4370    0.4370   17.8700 N   0  0  0  0  0  0  0  0  0  0  0  0
    4.4700    1.6130   18.7790 C   0  0  0  0  0  0  0  0  0  0  0  0
    7.7250    3.6210   22.6850 C   0  0  0  0  0  0  0  0  0  0  0  0
    6.6420   -5.1640   21.2360 N   0  0  0  0  0  0  0  0  0  0  0  0
   12.4460    0.1650   23.2130 C   0  0  0  0  0  0  0  0  0  0  0  0
   12.4940   -2.2280   24.0170 C   0  0  0  0  0  0  0  0  0  0  0  0
   12.5390   -1.9060   21.7330 C   0  0  0  0  0  0  0  0  0  0  0  0
    5.2190    1.2500   17.6780 C   0  0  0  0  0  0  0  0  0  0  0  0
    8.9210    3.7410   23.3190 C   0  0  0  0  0  0  0  0  0  0  0  0
    7.2410    4.9170   22.0950 C   0  0  0  0  0  0  0  0  0  0  0  0
    6.9900   -4.3750   22.3080 C   0  0  0  0  0  0  0  0  0  0  0  0
    5.6380   -6.1810   21.6680 C   0  0  0  0  0  0  0  0  0  0  0  0
    9.4870    2.6580   23.9810 C   0  0  0  0  0  0  0  0  0  0  0  0
    5.9950    5.2330   21.3560 C   0  0  0  0  0  0  0  0  0  0  0  0
    9.7420    4.8490   23.4800 C   0  0  0  0  0  0  0  0  0  0  0  0
    8.1700    6.1790   22.2800 C   0  0  0  0  0  0  0  0  0  0  0  0
    6.1410   -4.1210   23.3930 C   0  0  0  0  0  0  0  0  0  0  0  0
    4.5710   -5.7030   22.5060 C   0  0  1  0  0  0  0  0  0  0  0  0
    8.9210    3.2460   25.1880 C   0  0  0  0  0  0  0  0  0  0  0  0
    3.4260   -6.4360   23.2070 C   0  0  2  0  0  0  0  0  0  0  0  0
    9.3990    6.0780   22.9780 C   0  0  0  0  0  0  0  0  0  0  0  0
    4.9820   -4.7040   23.5030 C   0  0  2  0  0  0  0  0  0  0  0  0
   10.3500    7.0530   23.2600 O   0  0  0  0  0  0  0  0  0  0  0  0
    2.3160   -5.6650   23.0460 N   0  0  0  0  0  0  0  0  0  0  0  0
    3.8550   -6.6220   24.5500 C   0  0  1  0  0  0  0  0  0  0  0  0
    4.0550   -3.6710   23.1960 O   0  0  0  0  0  0  0  0  0  0  0  0
    4.6790   -5.1850   25.1760 S   0  0  0  0  0  0  0  0  0  0  0  0
   11.3930    6.8450   24.2330 C   0  0  0  0  0  0  0  0  0  0  0  0
    2.7150   -6.9800   25.5270 C   0  0  0  0  0  0  0  0  0  0  0  0
    4.6750   -7.6670   24.2570 O   0  0  0  0  0  0  0  0  0  0  0  0
    1.1100   -6.2680   22.6110 C   0  0  0  0  0  0  0  0  0  0  0  0
    5.8640   -5.7720   26.1860 N   0  0  0  0  0  0  0  0  0  0  0  0
    3.6490   -3.9030   25.7070 C   0  0  0  0  0  0  0  0  0  0  0  0
    1.0960   -7.3840   22.0680 O   0  0  0  0  0  0  0  0  0  0  0  0
   -0.1140   -5.5890   22.7680 C   0  0  0  0  0  0  0  0  0  0  0  0
    7.2460   -5.2580   26.3200 C   0  0  1  0  0  0  0  0  0  0  0  0
    1.8880   -3.8470   25.5150 S   0  0  0  0  0  0  0  0  0  0  0  0
    4.0440   -2.6120   26.3690 C   0  0  0  0  0  0  0  0  0  0  0  0
    8.0440   -6.1210   25.4870 N   0  0  0  0  0  0  0  0  0  0  0  0
    7.4470   -3.8740   25.9980 C   0  0  0  0  0  0  0  0  0  0  0  0
    2.9270   -1.8300   26.5910 C   0  0  0  0  0  0  0  0  0  0  0  0
    1.6450   -2.2840   26.2110 C   0  0  0  0  0  0  0  0  0  0  0  0
    0.1410   -1.4120   26.4160 Cl  0  0  0  0  0  0  0  0  0  0  0  0
    8.0600   -3.4690   24.6840 N   0  0  0  0  0  0  0  0  0  0  0  0
    8.3020   -5.8120   24.1730 C   0  0  0  0  0  0  0  0  0  0  0  0
    8.5710   -4.4960   23.7620 C   0  0  0  0  0  0  0  0  0  0  0  0
  1  2  1  0
  2  3  2  0
  1  4  1  0
  1  5  1  0
  2  6  1  0
  4  7  1  6
  4  8  1  0
  5  9  2  0
  5 10  1  0
  6 11  1  0
  7 12  1  0
  7 13  2  0
  8 14  2  0
  8 15  1  0
  9 16  1  0
 10 17  2  0
 16 17  1  0
 17 18  1  0
 15 19  2  0
 14 20  1  0
 12 21  1  0
 11 22  1  0
 18 23  1  0
 18 24  1  0
 18 25  1  0
 19 26  1  0
 20 26  2  0
 21 27  2  0
 21 28  1  0
 22 29  1  0
 22 30  1  0
 27 31  1  0
 28 32  1  0
 27 33  1  0
 28 34  2  0
 29 35  1  0
 36 30  1  1
 31 37  1  0
 36 38  1  0
 33 39  2  0
 34 39  1  0
 35 40  1  0
 36 40  1  0
 39 41  1  0
 38 42  1  1
 38 43  1  0
 40 44  1  6
 40 45  1  0
 43 45  1  0
 41 46  1  0
 43 47  1  1
 43 48  1  0
 42 49  1  0
 45 50  2  3
 45 51  1  0
 49 52  2  0
 49 53  1  0
 54 50  1  6
 51 55  1  0
 51 56  2  0
 54 57  1  0
 54 58  1  0
 56 59  1  0
 55 60  1  0
 59 60  2  0
 60 61  1  0
 58 62  1  0
 57 63  1  0
 62 64  1  0
 63 64  1  0
M  END
