x2703-x3117
     RDKit          3D

 34 36  0  0  0  0  0  0  0  0999 V2000
    6.8940   -1.4660   21.8790 N   0  0  0  0  0  0  0  0  0  0  0  0
    5.7810   -2.4170   21.6430 C   0  0  0  0  0  0  0  0  0  0  0  0
    4.9880   -3.4060   21.4420 O   0  0  0  0  0  0  0  0  0  0  0  0
    6.6060   -0.1240   21.6160 C   0  0  1  0  0  0  0  0  0  0  0  0
    8.2080   -1.6310   22.4640 C   0  0  0  0  0  0  0  0  0  0  0  0
    6.7480   -3.6060   21.6290 C   0  0  0  0  0  0  0  0  0  0  0  0
    7.7430    0.8520   21.9110 C   0  0  0  0  0  0  0  0  0  0  0  0
    6.0160    0.2990   20.2860 C   0  0  0  0  0  0  0  0  0  0  0  0
    8.4370   -1.4920   23.8330 C   0  0  0  0  0  0  0  0  0  0  0  0
    9.2850   -1.8840   21.6480 C   0  0  0  0  0  0  0  0  0  0  0  0
    6.6130   -4.3750   20.2940 C   0  0  0  0  0  0  0  0  0  0  0  0
    7.3890    1.9730   22.7780 N   0  0  0  0  0  0  0  0  0  0  0  0
    8.8780    0.7750   21.4570 O   0  0  0  0  0  0  0  0  0  0  0  0
    4.7170    1.0610   20.1390 C   0  0  0  0  0  0  0  0  0  0  0  0
    6.7640   -0.0320   19.1350 C   0  0  0  0  0  0  0  0  0  0  0  0
   10.6490   -1.9840   22.1660 N   0  0  0  0  0  0  0  0  0  0  0  0
    9.7410   -1.5720   24.3670 C   0  0  0  0  0  0  0  0  0  0  0  0
    6.3420    0.3340   17.9280 N   0  0  0  0  0  0  0  0  0  0  0  0
    4.3030    1.4250   18.9060 C   0  0  0  0  0  0  0  0  0  0  0  0
   10.8900   -1.8030   23.5840 C   0  0  0  0  0  0  0  0  0  0  0  0
    8.0830    3.2040   22.8950 C   0  0  0  0  0  0  0  0  0  0  0  0
   12.3180   -1.8460   24.0850 C   0  0  0  0  0  0  0  0  0  0  0  0
    5.0890    1.0790   17.8500 C   0  0  0  0  0  0  0  0  0  0  0  0
    9.3640    3.2270   23.4910 C   0  0  0  0  0  0  0  0  0  0  0  0
    7.5670    4.4240   22.4460 C   0  0  0  0  0  0  0  0  0  0  0  0
   10.0230    1.9760   24.0080 C   0  0  0  0  0  0  0  0  0  0  0  0
    6.1790    4.3040   21.8090 C   0  0  0  0  0  0  0  0  0  0  0  0
   12.6690   -3.0100   24.9970 C   0  0  0  0  0  0  0  0  0  0  0  0
   12.5910   -0.5820   24.7810 C   0  0  0  0  0  0  0  0  0  0  0  0
   13.3270   -1.9620   22.9370 C   0  0  0  0  0  0  0  0  0  0  0  0
   10.0280    4.4600   23.6010 C   0  0  0  0  0  0  0  0  0  0  0  0
    8.2160    5.6550   22.5500 C   0  0  0  0  0  0  0  0  0  0  0  0
    9.1550    1.3170   24.9810 C   0  0  0  0  0  0  0  0  0  0  0  0
    9.4720    5.6650   23.1410 C   0  0  0  0  0  0  0  0  0  0  0  0
  1  2  1  0
  2  3  2  0
  1  4  1  0
  1  5  1  0
  2  6  1  0
  4  7  1  6
  4  8  1  0
  5  9  2  0
  5 10  1  0
  6 11  1  0
  7 12  1  0
  7 13  2  0
  8 14  2  0
  8 15  1  0
 10 16  2  0
  9 17  1  0
 15 18  2  0
 14 19  1  0
 16 20  1  0
 17 20  2  0
 12 21  1  0
 20 22  1  0
 18 23  1  0
 19 23  2  0
 21 24  2  0
 21 25  1  0
 24 26  1  0
 25 27  1  0
 22 28  1  0
 22 29  1  0
 22 30  1  0
 24 31  1  0
 25 32  2  0
 26 33  1  0
 31 34  2  0
 32 34  1  0
M  END
