x2705-x2694-x0978-x2193-x0540
     RDKit          3D

 65 69  0  0  0  0  0  0  0  0999 V2000
    7.1480   -1.5730   21.5990 N   0  0  0  0  0  0  0  0  0  0  0  0
    6.2690   -2.8090   21.5690 C   0  0  0  0  0  0  0  0  0  0  0  0
    4.9840   -3.1520   21.1240 O   0  0  0  0  0  0  0  0  0  0  0  0
    6.7160   -0.2560   21.5680 C   0  0  1  0  0  0  0  0  0  0  0  0
    8.4200   -1.5980   22.3690 C   0  0  0  0  0  0  0  0  0  0  0  0
    7.1020   -3.9170   22.1920 C   0  0  0  0  0  0  0  0  0  0  0  0
    7.7580    0.8470   21.8460 C   0  0  0  0  0  0  0  0  0  0  0  0
    6.1180    0.1750   20.2660 C   0  0  0  0  0  0  0  0  0  0  0  0
    8.7090   -1.9660   23.7170 N   0  0  0  0  0  0  0  0  0  0  0  0
    9.7180   -1.2600   21.9790 C   0  0  0  0  0  0  0  0  0  0  0  0
    7.2110   -5.0700   21.2740 C   0  0  0  0  0  0  0  0  0  0  0  0
    7.4720    1.9610   22.7950 N   0  0  0  0  0  0  0  0  0  0  0  0
    8.8190    0.8570   21.2460 O   0  0  0  0  0  0  0  0  0  0  0  0
    4.7840    0.7750   20.2010 C   0  0  0  0  0  0  0  0  0  0  0  0
    6.8800    0.0330   18.9450 C   0  0  0  0  0  0  0  0  0  0  0  0
   10.0310   -1.8550   24.1310 N   0  0  0  0  0  0  0  0  0  0  0  0
   10.7310   -1.4280   23.1100 C   0  0  0  0  0  0  0  0  0  0  0  0
    7.8690   -2.4670   24.7870 C   0  0  0  0  0  0  0  0  0  0  0  0
   12.2020   -1.1910   23.1570 C   0  0  0  0  0  0  0  0  0  0  0  0
    5.7740   -5.6330   21.2700 N   0  0  0  0  0  0  0  0  0  0  0  0
    3.9820    0.9390   21.3100 C   0  0  0  0  0  0  0  0  0  0  0  0
    6.3970    0.4550   17.7670 N   0  0  0  0  0  0  0  0  0  0  0  0
    4.2980    1.2300   18.8560 C   0  0  0  0  0  0  0  0  0  0  0  0
    8.1860    3.1790   22.9610 C   0  0  0  0  0  0  0  0  0  0  0  0
    8.3570   -3.7920   25.2310 N   0  0  0  0  0  0  0  0  0  0  0  0
   12.6490    0.0820   23.4830 C   0  0  0  0  0  0  0  0  0  0  0  0
   12.8010   -2.1240   24.2420 C   0  0  0  0  0  0  0  0  0  0  0  0
   12.8040   -1.5610   21.9850 C   0  0  0  0  0  0  0  0  0  0  0  0
    4.7430   -5.3500   22.4540 C   0  0  0  0  0  0  0  0  0  0  0  0
    4.7010    1.8170   22.3830 C   0  0  0  0  0  0  0  0  0  0  0  0
    5.1840    1.0210   17.7670 C   0  0  0  0  0  0  0  0  0  0  0  0
    9.5670    3.1110   23.6060 C   0  0  0  0  0  0  0  0  0  0  0  0
    7.6570    4.5720   22.5350 C   0  0  0  0  0  0  0  0  0  0  0  0
    8.7260   -3.8740   26.6360 C   0  0  0  0  0  0  0  0  0  0  0  0
    9.3300   -4.5190   24.3940 C   0  0  0  0  0  0  0  0  0  0  0  0
   10.1500    1.7940   24.0360 C   0  0  0  0  0  0  0  0  0  0  0  0
    6.3250    4.8010   21.8810 C   0  0  0  0  0  0  0  0  0  0  0  0
    3.6340   -6.3400   22.9510 C   0  0  2  0  0  0  0  0  0  0  0  0
    4.7680   -4.2720   23.0230 O   0  0  0  0  0  0  0  0  0  0  0  0
    4.0310    2.7990   22.9760 N   0  0  0  0  0  0  0  0  0  0  0  0
   10.4020    4.3710   23.8380 C   0  0  0  0  0  0  0  0  0  0  0  0
    8.5160    5.8290   22.7840 C   0  0  0  0  0  0  0  0  0  0  0  0
    8.6130   -5.1730   27.1010 C   0  0  0  0  0  0  0  0  0  0  0  0
    9.6180   -5.8380   24.9810 C   0  0  0  0  0  0  0  0  0  0  0  0
    9.2980    1.1790   24.9720 C   0  0  0  0  0  0  0  0  0  0  0  0
    2.3410   -5.5400   22.8750 N   0  0  0  0  0  0  0  0  0  0  0  0
    3.6940   -7.0940   24.2880 C   0  0  1  0  0  0  0  0  0  0  0  0
    2.9160    2.4250   23.6200 C   0  0  0  0  0  0  0  0  0  0  0  0
    9.8930    5.7530   23.4410 C   0  0  0  0  0  0  0  0  0  0  0  0
    8.6840   -6.1930   26.0590 N   0  0  0  0  0  0  0  0  0  0  0  0
   10.6320    6.8940   23.6610 O   0  0  0  0  0  0  0  0  0  0  0  0
    2.5230   -7.6860   24.7550 C   0  0  0  0  0  0  0  0  0  0  0  0
    4.7350   -7.9660   24.1370 O   0  0  0  0  0  0  0  0  0  0  0  0
    1.0230   -6.1520   22.5630 C   0  0  0  0  0  0  0  0  0  0  0  0
    2.8960    1.5310   24.4770 O   0  0  0  0  0  0  0  0  0  0  0  0
    1.7550    3.2140   23.1660 N   0  0  0  0  0  0  0  0  0  0  0  0
   11.7260    6.7820   24.5840 C   0  0  0  0  0  0  0  0  0  0  0  0
    0.9720   -7.2740   22.0700 O   0  0  0  0  0  0  0  0  0  0  0  0
   -0.1560   -5.4670   22.8080 C   0  0  0  0  0  0  0  0  0  0  0  0
    0.5960    3.3250   24.0360 C   0  0  0  0  0  0  0  0  0  0  0  0
    0.5090    4.7470   24.6120 C   0  0  0  0  0  0  0  0  0  0  0  0
   -0.6580    2.7730   23.3020 C   0  0  0  0  0  0  0  0  0  0  0  0
   -0.7500    4.9440   25.1570 C   0  0  0  0  0  0  0  0  0  0  0  0
   -1.8540    3.3210   23.7810 C   0  0  0  0  0  0  0  0  0  0  0  0
   -1.8680    4.6690   24.1550 C   0  0  0  0  0  0  0  0  0  0  0  0
  1  2  1  0
  2  3  2  0
  1  4  1  0
  1  5  1  0
  2  6  1  0
  4  7  1  6
  4  8  1  0
  5  9  1  0
  5 10  2  0
  6 11  1  0
  7 12  1  0
  7 13  2  0
  8 14  1  0
  8 15  2  0
  9 16  1  0
 10 17  1  0
 16 17  2  0
  9 18  1  0
 17 19  1  0
 11 20  1  0
 14 21  1  0
 15 22  1  0
 14 23  2  0
 12 24  1  0
 18 25  1  0
 19 26  1  0
 19 27  1  0
 19 28  1  0
 20 29  1  0
 21 30  1  0
 22 31  2  0
 23 31  1  0
 24 32  2  0
 24 33  1  0
 25 34  1  0
 25 35  1  0
 32 36  1  0
 33 37  1  0
 29 38  1  0
 29 39  2  0
 30 40  1  0
 32 41  1  0
 33 42  2  0
 34 43  1  0
 35 44  1  0
 36 45  1  0
 38 46  1  1
 38 47  1  0
 40 48  1  0
 41 49  2  0
 42 49  1  0
 43 50  1  0
 44 50  1  0
 49 51  1  0
 47 52  1  6
 47 53  1  0
 46 54  1  0
 48 55  2  0
 48 56  1  0
 51 57  1  0
 54 58  2  0
 54 59  1  0
 56 60  1  0
 60 61  1  0
 60 62  1  0
 61 63  1  0
 62 64  1  0
 63 65  1  0
 64 65  1  0
M  END
