x2705-x2694-x3124-x2776-x1311
     RDKit          3D

 50 54  0  0  0  0  0  0  0  0999 V2000
    6.9140   -1.4060   22.0230 N   0  0  0  0  0  0  0  0  0  0  0  0
    6.1870   -2.6880   21.6600 C   0  0  0  0  0  0  0  0  0  0  0  0
    4.9000   -3.1210   21.3290 O   0  0  0  0  0  0  0  0  0  0  0  0
    6.5960    0.0030   21.6820 C   0  0  1  0  0  0  0  0  0  0  0  0
    8.2360   -1.4710   22.7310 C   0  0  0  0  0  0  0  0  0  0  0  0
    7.3030   -3.6740   21.6970 C   0  0  2  0  0  0  0  0  0  0  0  0
    7.7770    0.9910   21.9420 C   0  0  0  0  0  0  0  0  0  0  0  0
    6.0660    0.3530   20.3320 C   0  0  0  0  0  0  0  0  0  0  0  0
    8.3690   -1.5500   24.2050 N   0  0  0  0  0  0  0  0  0  0  0  0
    9.5320   -1.4490   22.1840 C   0  0  0  0  0  0  0  0  0  0  0  0
    7.1260   -4.6940   20.5920 C   0  0  0  0  0  0  0  0  0  0  0  0
    7.4620    2.1290   22.8180 N   0  0  0  0  0  0  0  0  0  0  0  0
    8.8710    0.8540   21.4180 O   0  0  0  0  0  0  0  0  0  0  0  0
    4.7720    1.1320   20.2160 C   0  0  0  0  0  0  0  0  0  0  0  0
    6.7770   -0.0110   19.2310 C   0  0  0  0  0  0  0  0  0  0  0  0
    9.7710   -1.5610   24.4050 N   0  0  0  0  0  0  0  0  0  0  0  0
   10.4560   -1.5020   23.2300 C   0  0  0  0  0  0  0  0  0  0  0  0
    7.8110   -4.1410   23.1100 C   0  0  0  0  0  0  0  0  0  0  0  0
   12.0140   -1.4990   23.2900 C   0  0  0  0  0  0  0  0  0  0  0  0
    6.3700    0.3290   17.8710 N   0  0  0  0  0  0  0  0  0  0  0  0
    4.3290    1.4970   18.8230 C   0  0  0  0  0  0  0  0  0  0  0  0
    8.2180    3.3220   22.9970 C   0  0  0  0  0  0  0  0  0  0  0  0
    9.1380   -4.3100   23.2320 C   0  0  0  0  0  0  0  0  0  0  0  0
    6.9540   -4.4080   24.3140 C   0  0  0  0  0  0  0  0  0  0  0  0
   12.4520   -0.4360   24.0700 C   0  0  0  0  0  0  0  0  0  0  0  0
   12.5460   -2.8050   23.9090 C   0  0  0  0  0  0  0  0  0  0  0  0
   12.6110   -1.4580   21.9960 C   0  0  0  0  0  0  0  0  0  0  0  0
    5.1380    1.0910   17.7720 C   0  0  0  0  0  0  0  0  0  0  0  0
    9.4930    3.2430   23.5670 C   0  0  0  0  0  0  0  0  0  0  0  0
    7.7590    4.5840   22.6340 C   0  0  0  0  0  0  0  0  0  0  0  0
    9.7770   -4.7310   24.3670 C   0  0  0  0  0  0  0  0  0  0  0  0
    7.6210   -4.8340   25.4610 C   0  0  0  0  0  0  0  0  0  0  0  0
    5.4680   -4.2980   24.3770 C   0  0  0  0  0  0  0  0  0  0  0  0
   10.0840    2.0010   23.9700 C   0  0  0  0  0  0  0  0  0  0  0  0
    6.4010    4.8190   21.9880 C   0  0  0  0  0  0  0  0  0  0  0  0
   12.9290   -2.8400   25.2750 C   0  0  0  0  0  0  0  0  0  0  0  0
   10.3250    4.5280   23.7880 C   0  0  0  0  0  0  0  0  0  0  0  0
    8.5390    5.7730   22.8450 C   0  0  0  0  0  0  0  0  0  0  0  0
    8.9670   -5.0260   25.5890 C   0  0  0  0  0  0  0  0  0  0  0  0
    5.1940   -5.7510   24.2660 C   0  0  2  0  0  0  0  0  0  0  0  0
    9.2430    1.2380   25.0330 C   0  0  0  0  0  0  0  0  0  0  0  0
    9.8190    5.7530   23.4260 C   0  0  0  0  0  0  0  0  0  0  0  0
    5.6060   -6.1710   23.0630 C   0  0  0  0  0  0  0  0  0  0  0  0
    3.5770   -6.5600   24.4240 S   0  0  0  0  0  0  0  0  0  0  0  0
   10.6570    6.8260   23.6870 O   0  0  0  0  0  0  0  0  0  0  0  0
    3.7720   -7.8140   25.1210 O   0  0  0  0  0  0  0  0  0  0  0  0
    2.5500   -5.6220   24.8130 O   0  0  0  0  0  0  0  0  0  0  0  0
    4.6480   -6.5540   22.2020 C   0  0  0  0  0  0  0  0  0  0  0  0
    3.4300   -6.8380   22.7070 C   0  0  0  0  0  0  0  0  0  0  0  0
   11.6840    6.6660   24.6770 C   0  0  0  0  0  0  0  0  0  0  0  0
  1  2  1  0
  2  3  2  0
  1  4  1  0
  1  5  1  0
  2  6  1  0
  4  7  1  6
  4  8  1  0
  5  9  2  0
  5 10  1  0
  6 11  1  6
  7 12  1  0
  7 13  2  0
  8 14  2  0
  8 15  1  0
  9 16  1  0
 10 17  2  0
 16 17  1  0
  6 18  1  0
 17 19  1  0
 15 20  2  0
 14 21  1  0
 12 22  1  0
 18 23  2  0
 18 24  1  0
 19 25  1  0
 19 26  1  0
 19 27  1  0
 20 28  1  0
 21 28  2  0
 22 29  2  0
 22 30  1  0
 23 31  1  0
 24 32  2  0
 24 33  1  0
 29 34  1  0
 30 35  1  0
 26 36  1  0
 29 37  1  0
 30 38  2  0
 31 39  2  0
 32 39  1  0
 40 33  1  6
 34 41  1  0
 37 42  2  0
 38 42  1  0
 40 43  1  0
 40 44  1  0
 42 45  1  0
 44 46  1  0
 44 47  1  0
 43 48  1  0
 44 49  1  0
 48 49  2  0
 45 50  1  0
M  END
