x2703-x3113
     RDKit          3D

 37 39  0  0  0  0  0  0  0  0999 V2000
    7.0940   -1.7510   21.9740 N   0  0  0  0  0  0  0  0  0  0  0  0
    6.1980   -2.9430   21.5820 C   0  0  0  0  0  0  0  0  0  0  0  0
    4.9070   -3.0920   21.1990 O   0  0  0  0  0  0  0  0  0  0  0  0
    6.9050   -0.3320   21.7250 C   0  0  1  0  0  0  0  0  0  0  0  0
    8.3700   -1.8940   22.5890 C   0  0  0  0  0  0  0  0  0  0  0  0
    6.8470   -4.3290   21.6640 C   0  0  0  0  0  0  0  0  0  0  0  0
    8.1810    0.5730   21.9500 C   0  0  0  0  0  0  0  0  0  0  0  0
    6.2950    0.1530   20.4130 C   0  0  0  0  0  0  0  0  0  0  0  0
    9.5060   -1.7590   21.8060 C   0  0  0  0  0  0  0  0  0  0  0  0
    8.5640   -2.1430   23.9570 C   0  0  0  0  0  0  0  0  0  0  0  0
    8.2390   -4.5050   21.0010 C   0  0  0  0  0  0  0  0  0  0  0  0
    8.2950    1.5740   23.0430 N   0  0  0  0  0  0  0  0  0  0  0  0
    9.1410    0.5460   21.2250 O   0  0  0  0  0  0  0  0  0  0  0  0
    5.1490    0.9680   20.3680 C   0  0  0  0  0  0  0  0  0  0  0  0
    6.9540   -0.2300   19.0860 C   0  0  0  0  0  0  0  0  0  0  0  0
   10.8040   -1.8520   22.3240 C   0  0  0  0  0  0  0  0  0  0  0  0
    9.8720   -2.2350   24.4880 C   0  0  0  0  0  0  0  0  0  0  0  0
    6.3770    0.2750   17.8480 N   0  0  0  0  0  0  0  0  0  0  0  0
    4.5880    1.4500   19.1890 C   0  0  0  0  0  0  0  0  0  0  0  0
   11.0020   -2.0880   23.6950 C   0  0  0  0  0  0  0  0  0  0  0  0
    8.3790    3.0530   22.8680 C   0  0  0  0  0  0  0  0  0  0  0  0
   12.4310   -2.1630   24.3000 C   0  0  0  0  0  0  0  0  0  0  0  0
    5.3010    1.0360   17.9340 C   0  0  0  0  0  0  0  0  0  0  0  0
    9.5270    3.9120   23.1110 C   0  0  0  0  0  0  0  0  0  0  0  0
    7.2140    3.6270   22.4210 C   0  0  0  0  0  0  0  0  0  0  0  0
   10.8860    3.4640   23.5710 N   0  0  0  0  0  0  0  0  0  0  0  0
   13.4310   -2.2030   23.1490 C   0  0  0  0  0  0  0  0  0  0  0  0
   12.7550   -3.2140   25.2860 C   0  0  0  0  0  0  0  0  0  0  0  0
   12.7040   -0.8440   25.0170 C   0  0  0  0  0  0  0  0  0  0  0  0
    9.4150    5.2980   22.9030 C   0  0  0  0  0  0  0  0  0  0  0  0
    7.1020    4.9810   22.2020 C   0  0  0  0  0  0  0  0  0  0  0  0
   11.1890    2.1730   23.0310 C   0  0  0  0  0  0  0  0  0  0  0  0
   11.9420    4.4320   23.1530 C   0  0  0  0  0  0  0  0  0  0  0  0
    5.8040    5.5140   21.7010 C   0  0  0  0  0  0  0  0  0  0  0  0
    8.2030    5.7890   22.4540 C   0  0  0  0  0  0  0  0  0  0  0  0
   11.1260    1.1290   23.9310 C   0  0  0  0  0  0  0  0  0  0  0  0
    9.8620    0.9770   24.7920 C   0  0  0  0  0  0  0  0  0  0  0  0
  1  2  1  0
  2  3  2  0
  1  4  1  0
  1  5  1  0
  2  6  1  0
  4  7  1  6
  4  8  1  0
  5  9  2  0
  5 10  1  0
  6 11  1  0
  7 12  1  0
  7 13  2  0
  8 14  2  0
  8 15  1  0
  9 16  1  0
 10 17  2  0
 15 18  2  0
 14 19  1  0
 16 20  2  0
 17 20  1  0
 12 21  1  0
 20 22  1  0
 18 23  1  0
 19 23  2  0
 21 24  2  0
 21 25  1  0
 24 26  1  0
 22 27  1  0
 22 28  1  0
 22 29  1  0
 24 30  1  0
 25 31  2  0
 26 32  1  0
 26 33  1  0
 31 34  1  0
 30 35  2  0
 31 35  1  0
 32 36  1  0
 36 37  1  0
M  END
