x2705-x0991
     RDKit          3D

 39 41  0  0  0  0  0  0  0  0999 V2000
    6.6060   -2.5360   22.4140 N   0  0  0  0  0  0  0  0  0  0  0  0
    5.5690   -3.4750   21.9950 C   0  0  0  0  0  0  0  0  0  0  0  0
    4.3580   -3.2790   22.1320 O   0  0  0  0  0  0  0  0  0  0  0  0
    6.4250   -0.9970   22.0880 C   0  0  1  0  0  0  0  0  0  0  0  0
    7.5730   -3.0560   23.5000 C   0  0  2  0  0  0  0  0  0  0  0  0
    5.8800   -4.8230   21.3450 C   0  0  0  0  0  0  0  0  0  0  0  0
    7.4650   -0.0510   22.3170 C   0  0  0  0  0  0  0  0  0  0  0  0
    6.8930   -3.2430   24.9220 C   0  0  0  0  0  0  0  0  0  0  0  0
    5.7750   -0.6130   20.7440 C   0  0  0  0  0  0  0  0  0  0  0  0
    9.0170   -2.5290   23.6450 N   0  0  0  0  0  0  0  0  0  0  0  0
    6.1990   -4.6660   19.8640 C   0  0  0  0  0  0  0  0  0  0  0  0
    7.1360    1.1370   22.9750 N   0  0  0  0  0  0  0  0  0  0  0  0
    8.6000   -0.2340   21.8880 O   0  0  0  0  0  0  0  0  0  0  0  0
    5.9310   -2.1200   25.4070 C   0  0  0  0  0  0  0  0  0  0  0  0
    4.5260    0.0210   20.5710 C   0  0  0  0  0  0  0  0  0  0  0  0
    6.4980   -0.8860   19.3850 C   0  0  0  0  0  0  0  0  0  0  0  0
   10.3500   -2.0420   23.7790 N   0  0  0  0  0  0  0  0  0  0  0  0
    9.3830   -3.0650   22.2760 C   0  0  0  0  0  0  0  0  0  0  0  0
    5.4850   -2.2820   26.8990 C   0  0  0  0  0  0  0  0  0  0  0  0
    6.0160   -0.5590   18.1470 N   0  0  0  0  0  0  0  0  0  0  0  0
    4.0330    0.3610   19.1590 C   0  0  0  0  0  0  0  0  0  0  0  0
   10.6630   -2.8200   21.9170 C   0  0  0  0  0  0  0  0  0  0  0  0
   11.2890   -2.1790   22.8520 C   0  0  0  0  0  0  0  0  0  0  0  0
    7.9060    2.3570   22.9530 C   0  0  0  0  0  0  0  0  0  0  0  0
   12.7490   -1.6760   22.9480 C   0  0  0  0  0  0  0  0  0  0  0  0
    5.3160   -3.5140   27.5030 N   0  0  0  0  0  0  0  0  0  0  0  0
    5.2320   -1.1700   27.6460 N   0  0  0  0  0  0  0  0  0  0  0  0
    4.8050    0.0580   17.9900 C   0  0  0  0  0  0  0  0  0  0  0  0
    9.1230    2.5240   23.7580 C   0  0  0  0  0  0  0  0  0  0  0  0
    7.4460    3.4420   22.1010 C   0  0  0  0  0  0  0  0  0  0  0  0
    9.7910    1.4480   24.7300 C   0  0  0  0  0  0  0  0  0  0  0  0
    6.1950    3.3350   21.2410 C   0  0  0  0  0  0  0  0  0  0  0  0
   12.8000   -0.1800   23.3730 C   0  0  0  0  0  0  0  0  0  0  0  0
   13.5450   -2.5160   23.9980 C   0  0  0  0  0  0  0  0  0  0  0  0
   13.4570   -1.7850   21.5470 C   0  0  0  0  0  0  0  0  0  0  0  0
    9.9220    3.8900   23.6840 C   0  0  0  0  0  0  0  0  0  0  0  0
    8.1710    4.6570   22.0450 C   0  0  0  0  0  0  0  0  0  0  0  0
    8.9170    1.0360   25.7600 C   0  0  0  0  0  0  0  0  0  0  0  0
    9.4560    4.9190   22.8540 C   0  0  0  0  0  0  0  0  0  0  0  0
  1  2  1  0
  2  3  2  0
  1  4  1  0
  1  5  1  0
  2  6  1  0
  4  7  1  6
  5  8  1  1
  4  9  1  0
  5 10  1  0
  6 11  1  0
  7 12  1  0
  7 13  2  0
  8 14  1  0
  9 15  2  0
  9 16  1  0
 10 17  1  0
 10 18  1  0
 14 19  1  0
 16 20  2  0
 15 21  1  0
 18 22  2  0
 17 23  2  0
 22 23  1  0
 12 24  1  0
 23 25  1  0
 19 26  2  3
 19 27  1  0
 20 28  1  0
 21 28  2  0
 24 29  2  0
 24 30  1  0
 29 31  1  0
 30 32  1  0
 25 33  1  0
 25 34  1  0
 25 35  1  0
 29 36  1  0
 30 37  2  0
 31 38  1  0
 36 39  2  0
 37 39  1  0
M  END
