x2703-x0978-x3124
     RDKit          3D

 45 47  0  0  0  0  0  0  0  0999 V2000
    6.8750   -1.7950   21.7700 N   0  0  0  0  0  0  0  0  0  0  0  0
    5.9790   -2.9800   21.5950 C   0  0  0  0  0  0  0  0  0  0  0  0
    4.7470   -2.9850   21.3190 O   0  0  0  0  0  0  0  0  0  0  0  0
    6.5490   -0.4190   21.6240 C   0  0  1  0  0  0  0  0  0  0  0  0
    8.1320   -1.8480   22.4430 C   0  0  0  0  0  0  0  0  0  0  0  0
    6.5060   -4.4220   21.6700 C   0  0  2  0  0  0  0  0  0  0  0  0
    7.6490    0.5850   22.0160 C   0  0  0  0  0  0  0  0  0  0  0  0
    6.0230    0.0990   20.3080 C   0  0  0  0  0  0  0  0  0  0  0  0
    8.3800   -1.6580   23.8940 C   0  0  0  0  0  0  0  0  0  0  0  0
    9.2620   -2.0610   21.6760 C   0  0  0  0  0  0  0  0  0  0  0  0
    6.4770   -4.9370   20.2560 C   0  0  0  0  0  0  0  0  0  0  0  0
    7.3390    1.7710   22.8700 N   0  0  0  0  0  0  0  0  0  0  0  0
    8.7840    0.4590   21.5720 O   0  0  0  0  0  0  0  0  0  0  0  0
    5.6880   -5.4150   22.5160 N   0  0  0  0  0  0  0  0  0  0  0  0
    4.7230    0.9230   20.1460 C   0  0  0  0  0  0  0  0  0  0  0  0
    6.7960   -0.1330   19.0180 C   0  0  0  0  0  0  0  0  0  0  0  0
   10.6780   -2.1150   22.1020 N   0  0  0  0  0  0  0  0  0  0  0  0
    9.7790   -1.6860   24.4150 C   0  0  0  0  0  0  0  0  0  0  0  0
    4.3690   -5.1480   23.1850 C   0  0  0  0  0  0  0  0  0  0  0  0
    6.3390    0.4020   17.7510 N   0  0  0  0  0  0  0  0  0  0  0  0
    4.3100    1.4180   18.9350 C   0  0  0  0  0  0  0  0  0  0  0  0
   10.9800   -1.9180   23.5210 C   0  0  0  0  0  0  0  0  0  0  0  0
    8.0410    3.0090   22.9390 C   0  0  0  0  0  0  0  0  0  0  0  0
   12.4890   -1.9310   24.0240 C   0  0  0  0  0  0  0  0  0  0  0  0
    3.3060   -6.2750   23.2960 C   0  0  2  0  0  0  0  0  0  0  0  0
    4.0970   -4.0030   23.6660 O   0  0  0  0  0  0  0  0  0  0  0  0
    5.0900    1.1710   17.7980 C   0  0  0  0  0  0  0  0  0  0  0  0
    9.3370    3.0540   23.5080 C   0  0  0  0  0  0  0  0  0  0  0  0
    7.4090    4.3180   22.4010 C   0  0  0  0  0  0  0  0  0  0  0  0
   10.0140    1.8200   24.0420 C   0  0  0  0  0  0  0  0  0  0  0  0
    6.0430    4.3850   21.7710 C   0  0  0  0  0  0  0  0  0  0  0  0
   12.7500   -2.9150   24.9520 C   0  0  0  0  0  0  0  0  0  0  0  0
   12.7610   -0.5830   24.6810 C   0  0  0  0  0  0  0  0  0  0  0  0
   13.3320   -2.0770   22.9600 C   0  0  0  0  0  0  0  0  0  0  0  0
    2.0390   -5.5460   23.1750 N   0  0  0  0  0  0  0  0  0  0  0  0
    3.3860   -7.0740   24.4420 C   0  0  1  0  0  0  0  0  0  0  0  0
   10.0940    4.3860   23.5930 C   0  0  0  0  0  0  0  0  0  0  0  0
    8.0660    5.5630   22.4590 C   0  0  0  0  0  0  0  0  0  0  0  0
    9.1500    1.2200   24.9690 C   0  0  0  0  0  0  0  0  0  0  0  0
    2.2600   -7.9420   24.5820 C   0  0  0  0  0  0  0  0  0  0  0  0
    4.5720   -7.7320   24.4840 O   0  0  0  0  0  0  0  0  0  0  0  0
    0.8770   -6.2090   22.5500 C   0  0  0  0  0  0  0  0  0  0  0  0
    9.4570    5.6530   23.0680 C   0  0  0  0  0  0  0  0  0  0  0  0
    0.9610   -7.3120   22.0140 O   0  0  0  0  0  0  0  0  0  0  0  0
   -0.4940   -5.3830   22.6180 C   0  0  0  0  0  0  0  0  0  0  0  0
  1  2  1  0
  2  3  2  0
  1  4  1  0
  1  5  1  0
  2  6  1  0
  4  7  1  6
  4  8  1  0
  5  9  2  0
  5 10  1  0
  6 11  1  6
  7 12  1  0
  7 13  2  0
  6 14  1  0
  8 15  2  0
  8 16  1  0
 10 17  2  0
  9 18  1  0
 14 19  1  0
 16 20  2  0
 15 21  1  0
 17 22  1  0
 18 22  2  0
 12 23  1  0
 22 24  1  0
 19 25  1  0
 19 26  2  0
 20 27  1  0
 21 27  2  0
 23 28  2  0
 23 29  1  0
 28 30  1  0
 29 31  1  0
 24 32  1  0
 24 33  1  0
 24 34  1  0
 25 35  1  1
 25 36  1  0
 28 37  1  0
 29 38  2  0
 30 39  1  0
 36 40  1  6
 36 41  1  0
 35 42  1  0
 37 43  2  0
 38 43  1  0
 42 44  2  0
 42 45  1  0
M  END
