x2703-x0731
     RDKit          3D

 50 55  0  0  0  0  0  0  0  0999 V2000
    6.6940   -1.4520   22.0040 C   0  0  1  0  0  0  0  0  0  0  0  0
    5.7660   -2.3930   21.0900 C   0  0  0  0  0  0  0  0  0  0  0  0
    4.6860   -2.9750   21.4360 O   0  0  0  0  0  0  0  0  0  0  0  0
    6.3770   -0.0000   21.8890 C   0  0  1  0  0  0  0  0  0  0  0  0
    6.2260   -2.4760   23.0010 C   0  0  0  0  0  0  0  0  0  0  0  0
    8.1890   -1.5770   22.4490 C   0  0  0  0  0  0  0  0  0  0  0  0
    6.0970   -2.7910   19.7660 C   0  0  0  0  0  0  0  0  0  0  0  0
    7.5560    1.0370   22.0710 C   0  0  0  0  0  0  0  0  0  0  0  0
    5.9210    0.3910   20.5280 C   0  0  0  0  0  0  0  0  0  0  0  0
    8.4010   -1.2860   23.7810 C   0  0  0  0  0  0  0  0  0  0  0  0
    9.3150   -1.9440   21.7270 C   0  0  0  0  0  0  0  0  0  0  0  0
    7.0010   -3.8310   22.6550 C   0  0  2  0  0  0  0  0  0  0  0  0
    6.6000   -4.1750   19.9990 C   0  0  0  0  0  0  0  0  0  0  0  0
    7.2440    2.1780   22.9570 N   0  0  0  0  0  0  0  0  0  0  0  0
    8.6330    0.9140   21.4840 O   0  0  0  0  0  0  0  0  0  0  0  0
    4.7290    1.0580   20.2750 C   0  0  0  0  0  0  0  0  0  0  0  0
    6.7570    0.1030   19.2760 C   0  0  0  0  0  0  0  0  0  0  0  0
   10.5870   -2.0320   22.2400 N   0  0  0  0  0  0  0  0  0  0  0  0
    9.6300   -1.3640   24.3490 C   0  0  0  0  0  0  0  0  0  0  0  0
    6.6960   -4.6570   21.4450 N   0  0  0  0  0  0  0  0  0  0  0  0
    6.9790   -4.6700   23.9270 C   0  0  0  0  0  0  0  0  0  0  0  0
    6.4290    0.4490   18.0100 N   0  0  0  0  0  0  0  0  0  0  0  0
    4.3240    1.4470   19.0220 C   0  0  0  0  0  0  0  0  0  0  0  0
   10.7550   -1.7210   23.6770 C   0  0  0  0  0  0  0  0  0  0  0  0
    7.7970    3.4980   22.8090 C   0  0  0  0  0  0  0  0  0  0  0  0
    5.6220   -5.1960   24.0820 N   0  0  0  0  0  0  0  0  0  0  0  0
    6.1790   -6.0280   21.7480 C   0  0  0  0  0  0  0  0  0  0  0  0
   12.0090   -1.7470   24.4850 C   0  0  0  0  0  0  0  0  0  0  0  0
    5.0790   -5.4360   25.6840 S   0  0  0  0  0  0  0  0  0  0  0  0
    5.1750    1.1590   17.8140 C   0  0  0  0  0  0  0  0  0  0  0  0
    9.0050    3.8900   23.4020 C   0  0  0  0  0  0  0  0  0  0  0  0
    7.1120    4.4510   22.0620 C   0  0  0  0  0  0  0  0  0  0  0  0
    5.2790   -6.1890   23.0150 C   0  0  0  0  0  0  0  0  0  0  0  0
    9.7090    3.1470   24.1460 C   0  0  0  0  0  0  0  0  0  0  0  0
    5.8000    4.1330   21.4060 C   0  0  0  0  0  0  0  0  0  0  0  0
   12.8140   -2.8670   24.3820 C   0  0  0  0  0  0  0  0  0  0  0  0
   13.2420   -1.3180   23.7720 C   0  0  0  0  0  0  0  0  0  0  0  0
    6.1260   -5.1020   26.6110 O   0  0  0  0  0  0  0  0  0  0  0  0
    4.3770   -6.6920   25.7700 O   0  0  0  0  0  0  0  0  0  0  0  0
    9.5260    5.1660   23.2540 C   0  0  0  0  0  0  0  0  0  0  0  0
    7.6350    5.7420   21.9160 C   0  0  0  0  0  0  0  0  0  0  0  0
    3.8870   -4.1360   25.7920 C   0  0  0  0  0  0  0  0  0  0  0  0
    9.1980    3.7600   25.4600 C   0  0  0  0  0  0  0  0  0  0  0  0
    8.8510    6.0950   22.5160 C   0  0  0  0  0  0  0  0  0  0  0  0
    2.5840   -4.3150   25.3020 C   0  0  0  0  0  0  0  0  0  0  0  0
    4.2680   -2.9250   26.3780 C   0  0  0  0  0  0  0  0  0  0  0  0
    1.6760   -3.2830   25.4150 C   0  0  0  0  0  0  0  0  0  0  0  0
    3.3750   -1.9180   26.4850 C   0  0  0  0  0  0  0  0  0  0  0  0
    2.0680   -2.0820   26.0100 C   0  0  0  0  0  0  0  0  0  0  0  0
    1.0990   -0.9540   26.1550 C   0  0  0  0  0  0  0  0  0  0  0  0
  1  2  1  0
  2  3  2  0
  1  4  1  0
  1  5  1  0
  1  6  1  6
  2  7  1  0
  4  8  1  6
  4  9  1  0
  6 10  2  0
  6 11  1  0
 12  5  1  1
  7 13  1  0
  8 14  1  0
  8 15  2  0
  9 16  2  0
  9 17  1  0
 11 18  2  0
 10 19  1  0
 12 20  1  0
 13 20  1  0
 12 21  1  0
 17 22  2  0
 16 23  1  0
 18 24  1  0
 19 24  2  0
 14 25  1  0
 21 26  1  0
 20 27  1  0
 24 28  1  0
 26 29  1  0
 22 30  1  0
 23 30  2  0
 25 31  2  0
 25 32  1  0
 26 33  1  0
 27 33  1  0
 31 34  1  0
 32 35  1  0
 28 36  1  0
 28 37  1  0
 29 38  2  0
 29 39  2  0
 31 40  1  0
 32 41  2  0
 29 42  1  0
 34 43  1  0
 40 44  2  0
 41 44  1  0
 42 45  2  0
 42 46  1  0
 45 47  1  0
 46 48  2  0
 47 49  2  0
 48 49  1  0
 49 50  1  0
M  END
