x2705-x0978-x1493-x0540-x2776
     RDKit          3D

 66 70  0  0  0  0  0  0  0  0999 V2000
    7.0080   -1.4890   21.8570 N   0  0  0  0  0  0  0  0  0  0  0  0
    6.1810   -2.7200   21.5210 C   0  0  0  0  0  0  0  0  0  0  0  0
    4.8750   -3.0550   21.2450 O   0  0  0  0  0  0  0  0  0  0  0  0
    6.6730   -0.0710   21.6280 C   0  0  1  0  0  0  0  0  0  0  0  0
    8.2970   -1.5240   22.5780 C   0  0  0  0  0  0  0  0  0  0  0  0
    7.1300   -3.8570   21.4990 C   0  0  2  0  0  0  0  0  0  0  0  0
    7.8700    0.9370   21.9130 C   0  0  0  0  0  0  0  0  0  0  0  0
    6.0890    0.2540   20.3180 C   0  0  0  0  0  0  0  0  0  0  0  0
    8.3830   -1.5250   23.9500 N   0  0  0  0  0  0  0  0  0  0  0  0
    9.7400   -1.5330   22.0480 C   0  0  0  0  0  0  0  0  0  0  0  0
    6.8780   -4.5470   20.1890 C   0  0  0  0  0  0  0  0  0  0  0  0
    7.5960    2.0580   22.8530 N   0  0  0  0  0  0  0  0  0  0  0  0
    8.9500    0.8210   21.3580 O   0  0  0  0  0  0  0  0  0  0  0  0
    4.8340    0.7960   20.1910 C   0  0  0  0  0  0  0  0  0  0  0  0
    6.9010    0.0150   19.0720 C   0  0  0  0  0  0  0  0  0  0  0  0
    9.7030   -1.5240   24.2880 N   0  0  0  0  0  0  0  0  0  0  0  0
   10.5320   -1.5300   23.1370 C   0  0  0  0  0  0  0  0  0  0  0  0
    7.1930   -4.6270   22.8260 C   0  0  1  0  0  0  0  0  0  0  0  0
   12.0680   -1.5290   23.2880 C   0  0  0  0  0  0  0  0  0  0  0  0
    4.0940    0.9690   21.3760 C   0  0  0  0  0  0  0  0  0  0  0  0
    6.4240    0.3680   17.7620 N   0  0  0  0  0  0  0  0  0  0  0  0
    4.3190    1.1630   18.9360 C   0  0  0  0  0  0  0  0  0  0  0  0
    8.1590    3.3760   22.9170 C   0  0  0  0  0  0  0  0  0  0  0  0
    6.4190   -4.1570   23.8870 C   0  0  0  0  0  0  0  0  0  0  0  0
    6.9590   -6.0330   22.5700 N   0  0  0  0  0  0  0  0  0  0  0  0
   12.5090   -0.3990   23.9740 C   0  0  0  0  0  0  0  0  0  0  0  0
   12.4940   -2.7660   24.0900 C   0  0  0  0  0  0  0  0  0  0  0  0
   12.7150   -1.6470   22.0140 C   0  0  0  0  0  0  0  0  0  0  0  0
    4.7270    1.8320   22.4760 C   0  0  0  0  0  0  0  0  0  0  0  0
    5.0940    0.9580   17.8140 C   0  0  0  0  0  0  0  0  0  0  0  0
    9.4510    3.5300   23.5140 C   0  0  0  0  0  0  0  0  0  0  0  0
    7.4930    4.4850   22.4340 C   0  0  0  0  0  0  0  0  0  0  0  0
    5.2950   -4.8310   24.3400 C   0  0  2  0  0  0  0  0  0  0  0  0
    5.5750   -6.4780   22.5070 C   0  0  0  0  0  0  0  0  0  0  0  0
   10.1440    2.2280   24.0050 C   0  0  0  0  0  0  0  0  0  0  0  0
    6.1440    4.5080   21.7720 C   0  0  0  0  0  0  0  0  0  0  0  0
   13.4290   -2.6040   25.2370 C   0  0  0  0  0  0  0  0  0  0  0  0
    4.4080   -3.7540   24.6360 O   0  0  0  0  0  0  0  0  0  0  0  0
    3.9070    2.8660   22.9720 N   0  0  0  0  0  0  0  0  0  0  0  0
    5.6350   -5.5570   25.6760 C   0  0  0  0  0  0  0  0  0  0  0  0
   10.2950    4.6780   23.7720 C   0  0  0  0  0  0  0  0  0  0  0  0
    8.1010    5.6290   22.5700 C   0  0  0  0  0  0  0  0  0  0  0  0
    4.6470   -5.6800   23.1700 C   0  0  1  0  0  0  0  0  0  0  0  0
    9.2170    1.3810   24.9270 C   0  0  0  0  0  0  0  0  0  0  0  0
   10.7930    5.9720   23.8460 O   0  0  0  0  0  0  0  0  0  0  0  0
    3.2820   -6.5120   23.3320 C   0  0  2  0  0  0  0  0  0  0  0  0
    2.8340    2.3990   23.6190 C   0  0  0  0  0  0  0  0  0  0  0  0
    4.6210   -5.8170   26.5880 C   0  0  0  0  0  0  0  0  0  0  0  0
    6.7660   -5.8930   25.9860 O   0  0  0  0  0  0  0  0  0  0  0  0
    9.3330    5.7310   23.1600 C   0  0  0  0  0  0  0  0  0  0  0  0
   11.8820    6.1300   24.7570 C   0  0  0  0  0  0  0  0  0  0  0  0
    2.1360   -5.6240   23.0230 N   0  0  0  0  0  0  0  0  0  0  0  0
    3.1490   -7.3660   24.5700 C   0  0  1  0  0  0  0  0  0  0  0  0
    2.8230    1.5590   24.5140 O   0  0  0  0  0  0  0  0  0  0  0  0
    1.6730    3.0880   23.0460 N   0  0  0  0  0  0  0  0  0  0  0  0
    2.1590   -8.3460   24.4620 C   0  0  0  0  0  0  0  0  0  0  0  0
    4.3770   -8.0060   24.8290 O   0  0  0  0  0  0  0  0  0  0  0  0
    0.9680   -6.1870   22.5920 C   0  0  0  0  0  0  0  0  0  0  0  0
    0.4760    3.3040   23.8650 C   0  0  0  0  0  0  0  0  0  0  0  0
    0.8470   -7.4120   21.8620 O   0  0  0  0  0  0  0  0  0  0  0  0
   -0.1030   -5.4120   22.9610 C   0  0  0  0  0  0  0  0  0  0  0  0
    0.5510    4.7030   24.4960 C   0  0  0  0  0  0  0  0  0  0  0  0
   -0.6970    3.0700   23.1490 C   0  0  0  0  0  0  0  0  0  0  0  0
   -0.7640    5.0660   25.1930 C   0  0  0  0  0  0  0  0  0  0  0  0
   -1.9120    3.2260   23.7920 C   0  0  0  0  0  0  0  0  0  0  0  0
   -2.0310    4.5910   24.4740 C   0  0  0  0  0  0  0  0  0  0  0  0
  1  2  1  0
  2  3  2  0
  1  4  1  0
  1  5  1  0
  2  6  1  0
  4  7  1  6
  4  8  1  0
  5  9  2  0
  5 10  1  0
  6 11  1  6
  7 12  1  0
  7 13  2  0
  8 14  1  0
  8 15  2  0
  9 16  1  0
 10 17  2  0
 16 17  1  0
  6 18  1  0
 17 19  1  0
 14 20  1  0
 15 21  1  0
 14 22  2  0
 12 23  1  0
 18 24  1  1
 18 25  1  0
 19 26  1  0
 19 27  1  0
 19 28  1  0
 20 29  1  0
 21 30  2  0
 22 30  1  0
 23 31  2  0
 23 32  1  0
 24 33  1  0
 25 34  1  0
 31 35  1  0
 32 36  1  0
 27 37  1  0
 33 38  1  1
 29 39  1  0
 33 40  1  0
 31 41  1  0
 32 42  2  0
 33 43  1  0
 43 34  1  1
 35 44  1  0
 41 45  1  0
 43 46  1  0
 39 47  1  0
 40 48  1  0
 40 49  2  0
 41 50  2  0
 42 50  1  0
 45 51  1  0
 46 52  1  1
 46 53  1  0
 47 54  2  0
 47 55  1  0
 53 56  1  6
 53 57  1  0
 52 58  1  0
 55 59  1  0
 58 60  2  0
 58 61  1  0
 59 62  1  0
 59 63  1  0
 62 64  1  0
 63 65  1  0
 64 66  1  0
 65 66  1  0
M  END
