x2705-x2694-x2193-x1308-x2703
     RDKit          3D

 58 63  0  0  0  0  0  0  0  0999 V2000
    6.7920   -1.3860   21.8690 N   0  0  0  0  0  0  0  0  0  0  0  0
    5.9190   -2.4830   21.2470 C   0  0  0  0  0  0  0  0  0  0  0  0
    4.7030   -2.9980   21.5210 O   0  0  0  0  0  0  0  0  0  0  0  0
    6.4880   -0.0100   21.7460 C   0  0  1  0  0  0  0  0  0  0  0  0
    8.0970   -1.4950   22.6170 C   0  0  0  0  0  0  0  0  0  0  0  0
    6.4490   -3.1700   20.0680 C   0  0  0  0  0  0  0  0  0  0  0  0
    7.6040    0.8950   21.9040 C   0  0  0  0  0  0  0  0  0  0  0  0
    6.0360    0.3820   20.3620 C   0  0  0  0  0  0  0  0  0  0  0  0
    8.2910   -1.6460   23.9700 N   0  0  0  0  0  0  0  0  0  0  0  0
    9.5810   -1.4170   22.0630 C   0  0  0  0  0  0  0  0  0  0  0  0
    7.6240   -4.0050   20.4760 C   0  0  0  0  0  0  0  0  0  0  0  0
    7.3260    2.0710   22.8100 N   0  0  0  0  0  0  0  0  0  0  0  0
    8.6110    0.6440   21.2650 O   0  0  0  0  0  0  0  0  0  0  0  0
    4.9000    1.1330   20.1400 C   0  0  0  0  0  0  0  0  0  0  0  0
    6.8360   -0.0160   19.1280 C   0  0  0  0  0  0  0  0  0  0  0  0
    9.6620   -1.6540   24.2380 N   0  0  0  0  0  0  0  0  0  0  0  0
   10.5530   -1.5100   23.0680 C   0  0  0  0  0  0  0  0  0  0  0  0
   12.0880   -1.4850   23.1360 C   0  0  0  0  0  0  0  0  0  0  0  0
    6.3440    0.4480   17.8000 N   0  0  0  0  0  0  0  0  0  0  0  0
    4.5150    1.5150   18.8850 C   0  0  0  0  0  0  0  0  0  0  0  0
    8.1650    3.2330   22.9950 C   0  0  0  0  0  0  0  0  0  0  0  0
    7.2860   -5.1370   21.4270 N   0  0  0  0  0  0  0  0  0  0  0  0
   12.4890   -0.3790   23.9170 C   0  0  0  0  0  0  0  0  0  0  0  0
   12.6050   -2.7580   23.8680 C   0  0  0  0  0  0  0  0  0  0  0  0
   12.6520   -1.5650   21.8520 C   0  0  0  0  0  0  0  0  0  0  0  0
    5.2320    1.1790   17.7550 C   0  0  0  0  0  0  0  0  0  0  0  0
    9.4590    3.1770   23.5630 C   0  0  0  0  0  0  0  0  0  0  0  0
    7.6660    4.4990   22.5980 C   0  0  0  0  0  0  0  0  0  0  0  0
    7.9050   -4.9470   22.7320 C   0  0  0  0  0  0  0  0  0  0  0  0
    5.8910   -5.6590   21.6090 C   0  0  0  0  0  0  0  0  0  0  0  0
   10.1020    1.8840   24.0110 C   0  0  0  0  0  0  0  0  0  0  0  0
    6.2970    4.6130   21.9740 C   0  0  0  0  0  0  0  0  0  0  0  0
   13.1540   -2.6500   25.2910 C   0  0  0  0  0  0  0  0  0  0  0  0
   10.1800    4.3700   23.7220 C   0  0  0  0  0  0  0  0  0  0  0  0
    8.4490    5.6840   22.7850 C   0  0  0  0  0  0  0  0  0  0  0  0
    6.9680   -4.3850   23.6130 C   0  0  0  0  0  0  0  0  0  0  0  0
    5.5170   -6.1730   22.8980 C   0  0  0  0  0  0  0  0  0  0  0  0
    9.2800    1.1490   25.0700 C   0  0  0  0  0  0  0  0  0  0  0  0
    9.7320    5.6180   23.3660 C   0  0  0  0  0  0  0  0  0  0  0  0
    5.9360   -5.3070   24.0210 N   0  0  0  0  0  0  0  0  0  0  0  0
   10.6730    6.6830   23.6500 O   0  0  0  0  0  0  0  0  0  0  0  0
    5.3620   -5.4190   25.6090 S   0  0  2  0  0  0  0  0  0  0  0  0
   11.6710    6.4860   24.6760 C   0  0  0  0  0  0  0  0  0  0  0  0
    6.5640   -4.9860   26.7180 N   0  0  0  0  0  0  0  0  0  0  0  0
    4.8780   -6.7630   25.8420 O   0  0  0  0  0  0  0  0  0  0  0  0
    4.0410   -4.2500   25.8650 C   0  0  0  0  0  0  0  0  0  0  0  0
    7.9380   -5.5040   26.6980 C   0  0  1  0  0  0  0  0  0  0  0  0
    4.3250   -2.9460   26.3230 C   0  0  0  0  0  0  0  0  0  0  0  0
    2.7650   -4.5930   25.6310 C   0  0  0  0  0  0  0  0  0  0  0  0
    8.1710   -5.8480   25.3290 N   0  0  0  0  0  0  0  0  0  0  0  0
    8.9360   -4.3660   27.0020 C   0  0  0  0  0  0  0  0  0  0  0  0
    3.2930   -2.0360   26.5300 C   0  0  0  0  0  0  0  0  0  0  0  0
    1.5930   -3.7630   25.7980 C   0  0  0  0  0  0  0  0  0  0  0  0
    9.3000   -3.7040   25.8930 N   0  0  0  0  0  0  0  0  0  0  0  0
    9.5780   -5.8850   25.0240 C   0  0  0  0  0  0  0  0  0  0  0  0
    1.8500   -2.4640   26.2550 C   0  0  0  0  0  0  0  0  0  0  0  0
    0.5650   -1.3560   26.5130 Cl  0  0  0  0  0  0  0  0  0  0  0  0
   10.1000   -4.6050   25.0340 C   0  0  0  0  0  0  0  0  0  0  0  0
  1  2  1  0
  2  3  2  0
  1  4  1  0
  1  5  1  0
  2  6  1  0
  4  7  1  6
  4  8  1  0
  5  9  2  0
  5 10  1  0
  6 11  1  0
  7 12  1  0
  7 13  2  0
  8 14  2  0
  8 15  1  0
  9 16  1  0
 10 17  2  0
 16 17  1  0
 17 18  1  0
 15 19  2  0
 14 20  1  0
 12 21  1  0
 11 22  1  0
 18 23  1  0
 18 24  1  0
 18 25  1  0
 19 26  1  0
 20 26  2  0
 21 27  2  0
 21 28  1  0
 22 29  1  0
 22 30  1  0
 27 31  1  0
 28 32  1  0
 24 33  1  0
 27 34  1  0
 28 35  2  0
 29 36  1  0
 30 37  1  0
 31 38  1  0
 34 39  2  0
 35 39  1  0
 36 40  1  0
 37 40  1  0
 39 41  1  0
 40 42  1  0
 41 43  1  0
 42 44  2  0
 42 45  2  0
 42 46  1  6
 47 44  1  6
 46 48  2  0
 46 49  1  0
 47 50  1  0
 47 51  1  0
 48 52  1  0
 49 53  2  0
 51 54  1  0
 50 55  1  0
 52 56  2  0
 53 56  1  0
 56 57  1  0
 54 58  1  0
 55 58  1  0
M  END
