x2705-x0978-x3115-x0769-x2776
     RDKit          3D

 60 65  0  0  0  0  0  0  0  0999 V2000
    6.8960   -1.2480   21.7000 N   0  0  0  0  0  0  0  0  0  0  0  0
    6.0650   -2.4910   21.4790 C   0  0  0  0  0  0  0  0  0  0  0  0
    4.8060   -2.9120   21.0990 O   0  0  0  0  0  0  0  0  0  0  0  0
    6.5410    0.0710   21.5340 C   0  0  1  0  0  0  0  0  0  0  0  0
    8.1740   -1.3430   22.4080 C   0  0  0  0  0  0  0  0  0  0  0  0
    6.9420   -3.5930   21.8100 C   0  0  0  0  0  0  0  0  0  0  0  0
    7.6600    1.1100   21.7640 C   0  0  0  0  0  0  0  0  0  0  0  0
    6.0850    0.4760   20.1860 C   0  0  0  0  0  0  0  0  0  0  0  0
    8.4090   -1.5240   23.8800 N   0  0  0  0  0  0  0  0  0  0  0  0
    9.6610   -1.2820   21.9510 C   0  0  0  0  0  0  0  0  0  0  0  0
    6.7780   -4.6510   20.8060 C   0  0  0  0  0  0  0  0  0  0  0  0
    7.5750    2.1070   22.8570 N   0  0  0  0  0  0  0  0  0  0  0  0
    8.6240    1.1610   21.0040 O   0  0  0  0  0  0  0  0  0  0  0  0
    4.9720    1.2540   20.1380 C   0  0  0  0  0  0  0  0  0  0  0  0
    6.7330    0.1320   19.0170 C   0  0  0  0  0  0  0  0  0  0  0  0
    9.7150   -1.5700   24.2750 N   0  0  0  0  0  0  0  0  0  0  0  0
   10.6220   -1.4280   23.1270 C   0  0  0  0  0  0  0  0  0  0  0  0
   12.2080   -1.4190   23.1030 C   0  0  0  0  0  0  0  0  0  0  0  0
    6.2820    0.5760   17.8310 N   0  0  0  0  0  0  0  0  0  0  0  0
    4.4880    1.7400   18.7680 C   0  0  0  0  0  0  0  0  0  0  0  0
    8.1260    3.4170   22.9390 C   0  0  0  0  0  0  0  0  0  0  0  0
    6.8760   -5.7820   21.5880 N   0  0  0  0  0  0  0  0  0  0  0  0
   12.7180   -0.2450   23.6580 C   0  0  0  0  0  0  0  0  0  0  0  0
   12.8250   -2.6390   23.7970 C   0  0  0  0  0  0  0  0  0  0  0  0
   12.6340   -1.5730   21.8080 C   0  0  0  0  0  0  0  0  0  0  0  0
    5.1840    1.3800   17.6480 C   0  0  0  0  0  0  0  0  0  0  0  0
    9.4190    3.5640   23.5200 C   0  0  0  0  0  0  0  0  0  0  0  0
    7.3560    4.4830   22.4400 C   0  0  0  0  0  0  0  0  0  0  0  0
    5.6160   -6.4570   21.8620 C   0  0  0  0  0  0  0  0  0  0  0  0
    7.6850   -5.7290   22.8280 C   0  0  0  0  0  0  0  0  0  0  0  0
   10.1130    2.3680   23.9700 C   0  0  0  0  0  0  0  0  0  0  0  0
    6.0070    4.2710   21.8300 C   0  0  0  0  0  0  0  0  0  0  0  0
   13.0390   -2.5710   25.2540 C   0  0  0  0  0  0  0  0  0  0  0  0
   10.0120    4.8550   23.6460 C   0  0  0  0  0  0  0  0  0  0  0  0
    7.9040    5.8990   22.5180 C   0  0  0  0  0  0  0  0  0  0  0  0
    4.7820   -5.7090   22.9110 C   0  0  2  0  0  0  0  0  0  0  0  0
    6.9300   -5.2590   24.0950 C   0  0  0  0  0  0  0  0  0  0  0  0
    9.2610    1.6320   24.8190 C   0  0  0  0  0  0  0  0  0  0  0  0
   11.2620    5.0280   24.2180 O   0  0  0  0  0  0  0  0  0  0  0  0
    3.4150   -6.3330   23.2910 C   0  0  2  0  0  0  0  0  0  0  0  0
    4.4430   -4.4460   22.3460 O   0  0  0  0  0  0  0  0  0  0  0  0
    9.2750    6.1010   23.1430 C   0  0  0  0  0  0  0  0  0  0  0  0
    5.5300   -5.4330   24.1120 N   0  0  0  0  0  0  0  0  0  0  0  0
   11.7480    6.2300   24.7920 C   0  0  0  0  0  0  0  0  0  0  0  0
    2.2980   -5.5390   23.2370 N   0  0  0  0  0  0  0  0  0  0  0  0
    3.7770   -6.8020   24.7000 C   0  0  1  0  0  0  0  0  0  0  0  0
    4.7040   -5.5540   25.4970 S   0  0  0  0  0  0  0  0  0  0  0  0
    2.5370   -7.2200   25.5010 C   0  0  0  0  0  0  0  0  0  0  0  0
    4.4530   -7.8260   24.5590 O   0  0  0  0  0  0  0  0  0  0  0  0
    1.1700   -6.1360   22.7230 C   0  0  0  0  0  0  0  0  0  0  0  0
    5.2180   -6.1350   26.7120 O   0  0  0  0  0  0  0  0  0  0  0  0
    3.5570   -4.1760   25.6630 C   0  0  0  0  0  0  0  0  0  0  0  0
    1.1940   -7.2470   22.0850 O   0  0  0  0  0  0  0  0  0  0  0  0
   -0.0390   -5.4830   22.9140 C   0  0  0  0  0  0  0  0  0  0  0  0
    4.1690   -2.7980   25.9730 C   0  0  0  0  0  0  0  0  0  0  0  0
    2.1700   -4.2300   25.5440 C   0  0  0  0  0  0  0  0  0  0  0  0
    5.4950   -2.6170   26.1190 F   0  0  0  0  0  0  0  0  0  0  0  0
    1.3760   -3.0920   25.6940 C   0  0  0  0  0  0  0  0  0  0  0  0
    3.3110   -1.7040   26.1080 C   0  0  0  0  0  0  0  0  0  0  0  0
    1.9410   -1.8450   25.9710 C   0  0  0  0  0  0  0  0  0  0  0  0
  1  2  1  0
  2  3  2  0
  1  4  1  0
  1  5  1  0
  2  6  1  0
  4  7  1  6
  4  8  1  0
  5  9  2  0
  5 10  1  0
  6 11  1  0
  7 12  1  0
  7 13  2  0
  8 14  2  0
  8 15  1  0
  9 16  1  0
 10 17  2  0
 16 17  1  0
 17 18  1  0
 15 19  2  0
 14 20  1  0
 12 21  1  0
 11 22  1  0
 18 23  1  0
 18 24  1  0
 18 25  1  0
 19 26  1  0
 20 26  2  0
 21 27  2  0
 21 28  1  0
 22 29  1  0
 22 30  1  0
 27 31  1  0
 28 32  1  0
 24 33  1  0
 27 34  1  0
 28 35  2  0
 29 36  1  0
 30 37  1  0
 31 38  1  0
 34 39  1  0
 36 40  1  0
 36 41  1  6
 34 42  2  0
 35 42  1  0
 36 43  1  0
 37 43  1  0
 39 44  1  0
 40 45  1  1
 40 46  1  0
 43 47  1  0
 46 47  1  0
 46 48  1  1
 46 49  1  0
 45 50  1  0
 47 51  2  0
 47 52  1  0
 50 53  2  0
 50 54  1  0
 52 55  2  0
 52 56  1  0
 55 57  1  0
 56 58  2  0
 55 59  1  0
 58 60  1  0
 59 60  2  0
M  END
