x2703-x1311
     RDKit          3D

 47 51  0  0  0  0  0  0  0  0999 V2000
    6.8460   -1.5100   21.8260 N   0  0  0  0  0  0  0  0  0  0  0  0
    6.1470   -2.7820   21.6070 C   0  0  0  0  0  0  0  0  0  0  0  0
    4.8810   -3.1400   21.3460 O   0  0  0  0  0  0  0  0  0  0  0  0
    6.3760   -0.1960   21.6490 C   0  0  1  0  0  0  0  0  0  0  0  0
    8.1220   -1.5930   22.5560 C   0  0  0  0  0  0  0  0  0  0  0  0
    7.2110   -3.8450   21.6670 C   0  0  2  0  0  0  0  0  0  0  0  0
    7.5360    0.7920   21.8080 C   0  0  0  0  0  0  0  0  0  0  0  0
    5.9680    0.1800   20.2480 C   0  0  0  0  0  0  0  0  0  0  0  0
    8.1910   -1.7440   23.9360 C   0  0  0  0  0  0  0  0  0  0  0  0
    9.3780   -1.5130   21.9090 C   0  0  0  0  0  0  0  0  0  0  0  0
    7.0360   -4.8590   20.5680 C   0  0  0  0  0  0  0  0  0  0  0  0
    7.2470    1.9710   22.6050 N   0  0  0  0  0  0  0  0  0  0  0  0
    8.6390    0.7040   21.2850 O   0  0  0  0  0  0  0  0  0  0  0  0
    4.8200    0.9180   20.1180 C   0  0  0  0  0  0  0  0  0  0  0  0
    6.7610   -0.1910   19.1660 C   0  0  0  0  0  0  0  0  0  0  0  0
   10.5920   -1.5490   22.4910 N   0  0  0  0  0  0  0  0  0  0  0  0
    9.4410   -1.7790   24.5640 C   0  0  0  0  0  0  0  0  0  0  0  0
    7.7550   -4.2910   23.0710 C   0  0  0  0  0  0  0  0  0  0  0  0
    6.2830    0.2920   17.8570 N   0  0  0  0  0  0  0  0  0  0  0  0
    4.4070    1.3450   18.8920 C   0  0  0  0  0  0  0  0  0  0  0  0
   10.6170   -1.6670   23.8330 C   0  0  0  0  0  0  0  0  0  0  0  0
    8.0480    3.0970   22.6310 C   0  0  0  0  0  0  0  0  0  0  0  0
    9.0930   -4.5290   23.1180 C   0  0  0  0  0  0  0  0  0  0  0  0
    6.9700   -4.4470   24.2100 C   0  0  0  0  0  0  0  0  0  0  0  0
   11.9500   -1.6520   24.5630 C   0  0  0  0  0  0  0  0  0  0  0  0
    5.1130    1.0490   17.8150 C   0  0  0  0  0  0  0  0  0  0  0  0
    9.4370    3.0650   22.8490 C   0  0  0  0  0  0  0  0  0  0  0  0
    7.3970    4.3230   22.4330 C   0  0  0  0  0  0  0  0  0  0  0  0
    9.6950   -4.9260   24.3050 C   0  0  0  0  0  0  0  0  0  0  0  0
    7.6000   -4.8350   25.3920 C   0  0  0  0  0  0  0  0  0  0  0  0
    5.4780   -4.3000   24.3680 C   0  0  0  0  0  0  0  0  0  0  0  0
   10.1570    1.9300   23.0440 C   0  0  0  0  0  0  0  0  0  0  0  0
    5.9170    4.4130   22.1700 C   0  0  0  0  0  0  0  0  0  0  0  0
   12.5060   -3.0160   24.9820 C   0  0  0  0  0  0  0  0  0  0  0  0
   12.9540   -0.8910   23.8040 C   0  0  0  0  0  0  0  0  0  0  0  0
   10.1460    4.2800   22.8830 C   0  0  0  0  0  0  0  0  0  0  0  0
    8.1170    5.5070   22.4760 C   0  0  0  0  0  0  0  0  0  0  0  0
    8.9580   -5.0790   25.4600 C   0  0  0  0  0  0  0  0  0  0  0  0
    5.1960   -5.7840   24.2770 C   0  0  2  0  0  0  0  0  0  0  0  0
    9.4450    1.0320   23.9660 C   0  0  0  0  0  0  0  0  0  0  0  0
    9.4900    5.5010   22.7060 C   0  0  0  0  0  0  0  0  0  0  0  0
    5.6840   -6.1570   23.0430 C   0  0  0  0  0  0  0  0  0  0  0  0
    3.5390   -6.4960   24.4080 S   0  0  0  0  0  0  0  0  0  0  0  0
    3.7110   -7.7330   25.1510 O   0  0  0  0  0  0  0  0  0  0  0  0
    2.5570   -5.5180   24.7980 O   0  0  0  0  0  0  0  0  0  0  0  0
    4.6730   -6.5840   22.2560 C   0  0  0  0  0  0  0  0  0  0  0  0
    3.4560   -6.8240   22.7960 C   0  0  0  0  0  0  0  0  0  0  0  0
  1  2  1  0
  2  3  2  0
  1  4  1  0
  1  5  1  0
  2  6  1  0
  4  7  1  6
  4  8  1  0
  5  9  2  0
  5 10  1  0
  6 11  1  1
  7 12  1  0
  7 13  2  0
  8 14  2  0
  8 15  1  0
 10 16  2  0
  9 17  1  0
  6 18  1  0
 15 19  2  0
 14 20  1  0
 16 21  1  0
 17 21  2  0
 12 22  1  0
 18 23  2  0
 18 24  1  0
 21 25  1  0
 19 26  1  0
 20 26  2  0
 22 27  2  0
 22 28  1  0
 23 29  1  0
 24 30  2  0
 24 31  1  0
 27 32  1  0
 28 33  1  0
 25 34  1  0
 25 35  1  0
 27 36  1  0
 28 37  2  0
 29 38  2  0
 30 38  1  0
 39 31  1  6
 32 40  1  0
 36 41  2  0
 37 41  1  0
 39 42  1  0
 39 43  1  0
 43 44  1  0
 43 45  1  0
 42 46  1  0
 43 47  1  0
 46 47  2  0
M  END
