x2705-x2694-x3115-x0769-x0426
     RDKit          3D

 66 72  0  0  0  0  0  0  0  0999 V2000
    6.7560   -1.3020   21.8760 C   0  0  1  0  0  0  0  0  0  0  0  0
    5.8440   -2.3230   20.9860 C   0  0  0  0  0  0  0  0  0  0  0  0
    4.7000   -2.8950   21.2750 O   0  0  0  0  0  0  0  0  0  0  0  0
    6.3450    0.1490   21.6590 C   0  0  1  0  0  0  0  0  0  0  0  0
    5.8910   -1.9170   22.9430 C   0  0  0  0  0  0  0  0  0  0  0  0
    8.1730   -1.4860   22.5020 C   0  0  0  0  0  0  0  0  0  0  0  0
    6.2200   -2.7740   19.7360 C   0  0  0  0  0  0  0  0  0  0  0  0
    7.5200    1.2040   21.8920 C   0  0  0  0  0  0  0  0  0  0  0  0
    5.8050   -3.2750   22.9030 C   0  0  0  0  0  0  0  0  0  0  0  0
    5.9930    0.5080   20.2380 C   0  0  0  0  0  0  0  0  0  0  0  0
    8.4230   -1.8630   23.9570 N   0  0  0  0  0  0  0  0  0  0  0  0
    9.4180   -1.3040   21.9010 C   0  0  0  0  0  0  0  0  0  0  0  0
    6.6810   -4.0810   20.1850 C   0  0  0  0  0  0  0  0  0  0  0  0
    7.4630    2.1720   22.9220 N   0  0  0  0  0  0  0  0  0  0  0  0
    8.6190    1.1990   20.9930 O   0  0  0  0  0  0  0  0  0  0  0  0
    4.6300    1.1600   20.0370 C   0  0  0  0  0  0  0  0  0  0  0  0
    6.8540    0.2700   19.1790 C   0  0  0  0  0  0  0  0  0  0  0  0
    9.8070   -1.8770   24.1410 N   0  0  0  0  0  0  0  0  0  0  0  0
   10.5390   -1.5400   22.9220 C   0  0  0  0  0  0  0  0  0  0  0  0
    6.4400   -4.3610   21.8530 C   0  0  0  0  0  0  0  0  0  0  0  0
   12.1100   -1.4900   22.9210 C   0  0  0  0  0  0  0  0  0  0  0  0
    3.7400    1.3560   21.1330 C   0  0  0  0  0  0  0  0  0  0  0  0
    6.4810    0.6720   17.8440 N   0  0  0  0  0  0  0  0  0  0  0  0
    4.2790    1.5500   18.7770 C   0  0  0  0  0  0  0  0  0  0  0  0
    8.2720    3.3350   23.0560 C   0  0  0  0  0  0  0  0  0  0  0  0
    5.5710   -5.4810   21.8990 C   0  0  0  0  0  0  0  0  0  0  0  0
    7.5640   -5.0500   22.6720 C   0  0  0  0  0  0  0  0  0  0  0  0
   12.5680   -0.3030   23.5190 C   0  0  0  0  0  0  0  0  0  0  0  0
   12.6410   -2.6780   23.7760 C   0  0  0  0  0  0  0  0  0  0  0  0
   12.8050   -1.7240   21.5690 C   0  0  0  0  0  0  0  0  0  0  0  0
    4.2620    2.1770   22.3000 C   0  0  0  0  0  0  0  0  0  0  0  0
    5.1560    1.3330   17.7230 C   0  0  0  0  0  0  0  0  0  0  0  0
    9.5610    3.2540   23.5780 C   0  0  0  0  0  0  0  0  0  0  0  0
    7.7710    4.5890   22.6710 C   0  0  0  0  0  0  0  0  0  0  0  0
    5.0630   -5.9360   23.1330 C   0  0  0  0  0  0  0  0  0  0  0  0
    7.1750   -5.2010   24.0300 C   0  0  0  0  0  0  0  0  0  0  0  0
   10.1630    1.9430   23.9890 C   0  0  0  0  0  0  0  0  0  0  0  0
    6.3990    4.7630   22.0790 C   0  0  0  0  0  0  0  0  0  0  0  0
   12.8990   -2.4280   25.1260 C   0  0  0  0  0  0  0  0  0  0  0  0
    3.2430    2.7370   23.0450 N   0  0  0  0  0  0  0  0  0  0  0  0
   10.3330    4.4130   23.7340 C   0  0  0  0  0  0  0  0  0  0  0  0
    8.5580    5.7500   22.8340 C   0  0  0  0  0  0  0  0  0  0  0  0
    5.6840   -5.3530   24.1800 N   0  0  0  0  0  0  0  0  0  0  0  0
    9.3000    1.2570   24.8610 C   0  0  0  0  0  0  0  0  0  0  0  0
    2.2470    1.8810   23.7180 C   0  0  0  0  0  0  0  0  0  0  0  0
    4.9280   -5.5420   25.7160 S   0  0  0  0  0  0  0  0  0  0  0  0
    9.8540    5.6750   23.3790 C   0  0  0  0  0  0  0  0  0  0  0  0
   10.7370    6.7170   23.6090 O   0  0  0  0  0  0  0  0  0  0  0  0
    2.2170    0.6580   23.6630 O   0  0  0  0  0  0  0  0  0  0  0  0
    5.9840   -5.4610   26.6890 O   0  0  0  0  0  0  0  0  0  0  0  0
    4.0610   -6.6970   25.7120 O   0  0  0  0  0  0  0  0  0  0  0  0
    1.2270    2.6120   24.5020 C   0  0  0  0  0  0  0  0  0  0  0  0
    3.8920   -4.1430   26.0680 C   0  0  0  0  0  0  0  0  0  0  0  0
   11.7220    6.5700   24.6480 C   0  0  0  0  0  0  0  0  0  0  0  0
    1.5260    3.7880   25.2060 C   0  0  0  0  0  0  0  0  0  0  0  0
   -0.2220    2.0750   24.5520 C   0  0  0  0  0  0  0  0  0  0  0  0
    4.4910   -2.7340   26.2830 C   0  0  0  0  0  0  0  0  0  0  0  0
    2.3670   -4.3320   26.1690 C   0  0  0  0  0  0  0  0  0  0  0  0
    2.7650    4.2960   25.1970 F   0  0  0  0  0  0  0  0  0  0  0  0
    5.8060   -2.5010   26.2150 F   0  0  0  0  0  0  0  0  0  0  0  0
   -1.1980    2.7420   25.2720 C   0  0  0  0  0  0  0  0  0  0  0  0
    0.5350    4.4640   25.9370 C   0  0  0  0  0  0  0  0  0  0  0  0
    1.4530   -3.1210   26.4790 C   0  0  0  0  0  0  0  0  0  0  0  0
    3.6470   -1.6490   26.5620 C   0  0  0  0  0  0  0  0  0  0  0  0
   -0.8870    3.9130   25.9670 C   0  0  0  0  0  0  0  0  0  0  0  0
    2.1230   -1.7470   26.6780 C   0  0  0  0  0  0  0  0  0  0  0  0
  1  2  1  0
  2  3  2  0
  1  4  1  0
  1  5  1  0
  1  6  1  1
  2  7  1  0
  4  8  1  6
  5  9  1  0
  4 10  1  0
  6 11  2  0
  6 12  1  0
  7 13  1  0
  8 14  1  0
  8 15  2  0
 10 16  1  0
 10 17  2  0
 11 18  1  0
 12 19  2  0
 18 19  1  0
 20  9  1  0
 13 20  1  0
 19 21  1  0
 16 22  1  0
 17 23  1  0
 16 24  2  0
 14 25  1  0
 20 26  1  0
 20 27  1  0
 21 28  1  0
 21 29  1  0
 21 30  1  0
 22 31  1  0
 23 32  2  0
 24 32  1  0
 25 33  2  0
 25 34  1  0
 26 35  1  0
 27 36  1  0
 33 37  1  0
 34 38  1  0
 29 39  1  0
 31 40  1  0
 33 41  1  0
 34 42  2  0
 35 43  1  0
 36 43  1  0
 37 44  1  0
 40 45  1  0
 43 46  1  0
 41 47  2  0
 42 47  1  0
 47 48  1  0
 45 49  2  0
 46 50  2  0
 46 51  2  0
 45 52  1  0
 46 53  1  0
 48 54  1  0
 52 55  2  0
 52 56  1  0
 53 57  2  0
 53 58  1  0
 55 59  1  0
 57 60  1  0
 56 61  2  0
 55 62  1  0
 58 63  2  0
 57 64  1  0
 61 65  1  0
 62 65  2  0
 63 66  1  0
 64 66  2  0
M  END
