x2705-x1374-x3115-x0540-x1458
     RDKit          3D

 66 71  0  0  0  0  0  0  0  0999 V2000
    6.9920   -1.5250   21.7960 N   0  0  0  0  0  0  0  0  0  0  0  0
    6.0540   -2.6830   21.5350 C   0  0  0  0  0  0  0  0  0  0  0  0
    4.7350   -2.9180   21.3150 O   0  0  0  0  0  0  0  0  0  0  0  0
    6.7490   -0.0900   21.4870 C   0  0  1  0  0  0  0  0  0  0  0  0
    8.2600   -1.4950   22.5690 C   0  0  0  0  0  0  0  0  0  0  0  0
    6.6510   -3.9720   21.4210 C   0  0  1  0  0  0  0  0  0  0  0  0
    7.9060    0.9540   21.8320 C   0  0  0  0  0  0  0  0  0  0  0  0
    6.1420    0.3260   20.1970 C   0  0  0  0  0  0  0  0  0  0  0  0
    8.3540   -1.3050   23.9100 N   0  0  0  0  0  0  0  0  0  0  0  0
    9.6890   -1.6090   22.1070 C   0  0  0  0  0  0  0  0  0  0  0  0
    6.6600   -4.3420   19.9750 C   0  0  0  0  0  0  0  0  0  0  0  0
    7.5380    2.0210   22.6740 N   0  0  0  0  0  0  0  0  0  0  0  0
    9.0260    0.8400   21.3610 O   0  0  0  0  0  0  0  0  0  0  0  0
    4.8870    0.8730   20.1360 C   0  0  0  0  0  0  0  0  0  0  0  0
    6.8600    0.1920   18.9320 C   0  0  0  0  0  0  0  0  0  0  0  0
    9.6590   -1.2870   24.3270 N   0  0  0  0  0  0  0  0  0  0  0  0
   10.5640   -1.4490   23.3310 C   0  0  0  0  0  0  0  0  0  0  0  0
    7.5000   -4.5250   22.5630 C   0  0  0  0  0  0  0  0  0  0  0  0
   12.1280   -1.4680   23.3520 C   0  0  0  0  0  0  0  0  0  0  0  0
    4.0280    1.0290   21.3690 C   0  0  0  0  0  0  0  0  0  0  0  0
    6.3300    0.6310   17.6710 N   0  0  0  0  0  0  0  0  0  0  0  0
    4.3560    1.3080   18.9110 C   0  0  0  0  0  0  0  0  0  0  0  0
    8.2500    3.2620   22.8300 C   0  0  0  0  0  0  0  0  0  0  0  0
    7.9200   -3.9460   23.7580 C   0  0  0  0  0  0  0  0  0  0  0  0
    7.9250   -5.9510   22.4190 C   0  0  0  0  0  0  0  0  0  0  0  0
   12.5830   -0.3620   23.9600 C   0  0  0  0  0  0  0  0  0  0  0  0
   12.6770   -2.7540   23.9860 C   0  0  0  0  0  0  0  0  0  0  0  0
   12.7180   -1.4660   21.9410 C   0  0  0  0  0  0  0  0  0  0  0  0
    4.6160    1.7660   22.4050 C   0  0  0  0  0  0  0  0  0  0  0  0
    5.1170    1.1720   17.7380 C   0  0  0  0  0  0  0  0  0  0  0  0
    9.5460    3.3180   23.3860 C   0  0  0  0  0  0  0  0  0  0  0  0
    7.6290    4.4550   22.4170 C   0  0  0  0  0  0  0  0  0  0  0  0
    8.6660   -4.6350   24.7130 C   0  0  0  0  0  0  0  0  0  0  0  0
    8.6570   -6.5590   23.3600 C   0  0  0  0  0  0  0  0  0  0  0  0
   10.2790    2.0800   23.8480 C   0  0  0  0  0  0  0  0  0  0  0  0
    6.2540    4.5230   21.8070 C   0  0  0  0  0  0  0  0  0  0  0  0
   13.4400   -2.6270   25.3090 C   0  0  0  0  0  0  0  0  0  0  0  0
    3.8890    2.7710   22.8960 N   0  0  0  0  0  0  0  0  0  0  0  0
    9.0610   -4.0800   26.0370 C   0  0  0  0  0  0  0  0  0  0  0  0
   10.2150    4.5320   23.5360 C   0  0  0  0  0  0  0  0  0  0  0  0
    8.3020    5.6660   22.5680 C   0  0  0  0  0  0  0  0  0  0  0  0
    9.0180   -5.8940   24.4860 C   0  0  0  0  0  0  0  0  0  0  0  0
    9.4030    1.3240   24.8530 C   0  0  0  0  0  0  0  0  0  0  0  0
    2.7900    2.4820   23.6000 C   0  0  0  0  0  0  0  0  0  0  0  0
    7.9320   -4.5260   26.7730 C   0  0  2  0  0  0  0  0  0  0  0  0
    9.5960    5.7200   23.1270 C   0  0  0  0  0  0  0  0  0  0  0  0
    2.7420    1.5880   24.4510 O   0  0  0  0  0  0  0  0  0  0  0  0
    1.7870    3.3060   23.2280 N   0  0  0  0  0  0  0  0  0  0  0  0
    6.8940   -3.6300   26.5700 N   0  0  0  0  0  0  0  0  0  0  0  0
    8.0320   -5.1380   28.0250 C   0  0  0  0  0  0  0  0  0  0  0  0
    7.0490   -2.3340   26.0870 C   0  0  0  0  0  0  0  0  0  0  0  0
    5.8780   -4.3070   25.7930 C   0  0  0  0  0  0  0  0  0  0  0  0
    0.5610    3.3210   23.9080 C   0  0  0  0  0  0  0  0  0  0  0  0
    4.6290   -3.7070   25.3210 N   0  0  0  0  0  0  0  0  0  0  0  0
    0.4120    4.7360   24.4870 C   0  0  0  0  0  0  0  0  0  0  0  0
   -0.6140    2.9080   23.2970 C   0  0  0  0  0  0  0  0  0  0  0  0
   -0.7940    4.9020   25.1630 C   0  0  0  0  0  0  0  0  0  0  0  0
   -1.8320    3.3330   23.8220 C   0  0  0  0  0  0  0  0  0  0  0  0
    4.1710   -4.7750   24.6480 C   0  0  0  0  0  0  0  0  0  0  0  0
   -1.8980    4.6100   24.3850 C   0  0  0  0  0  0  0  0  0  0  0  0
    4.4260   -4.9910   23.1870 C   0  0  0  0  0  0  0  0  0  0  0  0
    3.5300   -5.7460   25.2780 C   0  0  0  0  0  0  0  0  0  0  0  0
    4.4820   -6.5320   23.0010 C   0  0  0  0  0  0  0  0  0  0  0  0
    3.2470   -6.9650   24.1810 S   0  0  0  0  0  0  0  0  0  0  0  0
    1.9790   -6.8400   23.5170 O   0  0  0  0  0  0  0  0  0  0  0  0
    3.6510   -8.3320   24.8830 O   0  0  0  0  0  0  0  0  0  0  0  0
  1  2  1  0
  2  3  2  0
  1  4  1  0
  1  5  1  0
  2  6  1  0
  4  7  1  6
  4  8  1  0
  5  9  2  0
  5 10  1  0
  6 11  1  6
  7 12  1  0
  7 13  2  0
  8 14  1  0
  8 15  2  0
  9 16  1  0
 10 17  2  0
 16 17  1  0
  6 18  1  0
 17 19  1  0
 14 20  1  0
 15 21  1  0
 14 22  2  0
 12 23  1  0
 18 24  2  0
 18 25  1  0
 19 26  1  0
 19 27  1  0
 19 28  1  0
 20 29  1  0
 21 30  2  0
 22 30  1  0
 23 31  2  0
 23 32  1  0
 24 33  1  0
 25 34  2  0
 31 35  1  0
 32 36  1  0
 27 37  1  0
 29 38  1  0
 33 39  1  0
 31 40  1  0
 32 41  2  0
 33 42  2  0
 34 42  1  0
 35 43  1  0
 38 44  1  0
 39 45  1  0
 40 46  2  0
 41 46  1  0
 44 47  2  0
 44 48  1  0
 45 49  1  0
 45 50  1  1
 49 51  1  0
 49 52  1  0
 48 53  1  0
 52 54  2  3
 53 55  1  0
 53 56  1  0
 55 57  1  0
 56 58  1  0
 54 59  1  0
 57 60  1  0
 58 60  1  0
 59 61  1  0
 59 62  2  0
 61 63  1  0
 62 64  1  0
 63 64  1  0
 64 65  1  0
 64 66  1  0
M  END
