x2705-x0689
     RDKit          3D

 49 54  0  0  0  0  0  0  0  0999 V2000
    6.7420   -1.3580   21.9730 C   0  0  1  0  0  0  0  0  0  0  0  0
    5.7680   -2.3340   21.0990 C   0  0  0  0  0  0  0  0  0  0  0  0
    4.6510   -2.9020   21.3920 O   0  0  0  0  0  0  0  0  0  0  0  0
    6.5070    0.1440   21.6270 C   0  0  1  0  0  0  0  0  0  0  0  0
    5.8040   -1.9060   23.0320 C   0  0  0  0  0  0  0  0  0  0  0  0
    8.2010   -1.5470   22.5800 C   0  0  0  0  0  0  0  0  0  0  0  0
    6.0710   -2.7330   19.8140 C   0  0  0  0  0  0  0  0  0  0  0  0
    7.6060    1.0000   21.8880 C   0  0  0  0  0  0  0  0  0  0  0  0
    5.3180   -3.3820   22.6490 C   0  0  0  0  0  0  0  0  0  0  0  0
    6.0550    0.5440   20.2530 C   0  0  0  0  0  0  0  0  0  0  0  0
    8.4140   -1.8670   23.8850 N   0  0  0  0  0  0  0  0  0  0  0  0
    9.6210   -1.4050   22.0650 C   0  0  0  0  0  0  0  0  0  0  0  0
    6.6120   -4.0490   20.1450 C   0  0  0  0  0  0  0  0  0  0  0  0
    7.3460    2.0940   22.8450 N   0  0  0  0  0  0  0  0  0  0  0  0
    8.6960    0.8740   21.3360 O   0  0  0  0  0  0  0  0  0  0  0  0
    4.8000    1.3460   20.0780 C   0  0  0  0  0  0  0  0  0  0  0  0
    6.7470    0.2250   19.0770 C   0  0  0  0  0  0  0  0  0  0  0  0
    9.7620   -1.9000   24.1260 N   0  0  0  0  0  0  0  0  0  0  0  0
   10.5870   -1.6210   23.0570 C   0  0  0  0  0  0  0  0  0  0  0  0
    6.2970   -4.4140   21.7840 C   0  0  0  0  0  0  0  0  0  0  0  0
   12.1150   -1.5890   23.1310 C   0  0  0  0  0  0  0  0  0  0  0  0
    6.3600    0.6000   17.8340 N   0  0  0  0  0  0  0  0  0  0  0  0
    4.4190    1.7240   18.8030 C   0  0  0  0  0  0  0  0  0  0  0  0
    8.1160    3.2900   22.9410 C   0  0  0  0  0  0  0  0  0  0  0  0
    5.5250   -5.6200   21.7080 C   0  0  0  0  0  0  0  0  0  0  0  0
    7.3710   -4.5650   22.5250 C   0  0  0  0  0  0  0  0  0  0  0  0
   12.5490   -0.3060   23.5190 C   0  0  0  0  0  0  0  0  0  0  0  0
   12.5940   -2.5810   24.2170 C   0  0  0  0  0  0  0  0  0  0  0  0
   12.8050   -1.9430   21.8010 C   0  0  0  0  0  0  0  0  0  0  0  0
    5.2270    1.3350   17.7330 C   0  0  0  0  0  0  0  0  0  0  0  0
    9.4550    3.2910   23.4560 C   0  0  0  0  0  0  0  0  0  0  0  0
    7.5330    4.4880   22.5190 C   0  0  0  0  0  0  0  0  0  0  0  0
    4.9180   -5.9680   22.9320 C   0  0  0  0  0  0  0  0  0  0  0  0
    7.0370   -4.7570   23.8890 C   0  0  0  0  0  0  0  0  0  0  0  0
   10.1830    2.0390   23.9230 C   0  0  0  0  0  0  0  0  0  0  0  0
    6.0950    4.4210   21.9590 C   0  0  0  0  0  0  0  0  0  0  0  0
   10.1940    4.4860   23.5550 C   0  0  0  0  0  0  0  0  0  0  0  0
    8.2750    5.8290   22.5970 C   0  0  0  0  0  0  0  0  0  0  0  0
    5.7220   -5.4890   24.1000 N   0  0  0  0  0  0  0  0  0  0  0  0
    9.3360    1.2320   24.7020 C   0  0  0  0  0  0  0  0  0  0  0  0
    4.9010   -5.2980   25.6200 S   0  0  0  0  0  0  0  0  0  0  0  0
    9.5670    5.8350   23.1020 C   0  0  0  0  0  0  0  0  0  0  0  0
    4.2100   -6.5370   25.9020 O   0  0  0  0  0  0  0  0  0  0  0  0
    5.8400   -4.7380   26.5570 O   0  0  0  0  0  0  0  0  0  0  0  0
    3.6200   -4.0550   25.5510 C   0  0  0  0  0  0  0  0  0  0  0  0
    4.0720   -2.4140   25.9010 S   0  0  0  0  0  0  0  0  0  0  0  0
    2.2550   -4.1680   25.2680 C   0  0  0  0  0  0  0  0  0  0  0  0
    1.5290   -2.8540   25.3450 C   0  0  0  0  0  0  0  0  0  0  0  0
    2.5000   -1.7360   25.7110 C   0  0  0  0  0  0  0  0  0  0  0  0
  1  2  1  0
  2  3  2  0
  1  4  1  0
  1  5  1  0
  1  6  1  1
  2  7  1  0
  4  8  1  6
  5  9  1  0
  4 10  1  0
  6 11  2  0
  6 12  1  0
  7 13  1  0
  8 14  1  0
  8 15  2  0
 10 16  2  0
 10 17  1  0
 11 18  1  0
 12 19  2  0
 18 19  1  0
 20  9  1  0
 13 20  1  0
 19 21  1  0
 17 22  2  0
 16 23  1  0
 14 24  1  0
 20 25  1  0
 20 26  1  0
 21 27  1  0
 21 28  1  0
 21 29  1  0
 22 30  1  0
 23 30  2  0
 24 31  2  0
 24 32  1  0
 25 33  1  0
 26 34  1  0
 31 35  1  0
 32 36  1  0
 31 37  1  0
 32 38  2  0
 33 39  1  0
 34 39  1  0
 35 40  1  0
 39 41  1  0
 37 42  2  0
 38 42  1  0
 41 43  2  0
 41 44  2  0
 41 45  1  0
 45 46  1  0
 45 47  2  0
 47 48  1  0
 46 49  1  0
 48 49  2  0
M  END
