x2705-x1458-x0786-x3115
     RDKit          3D

 61 68  0  0  0  0  0  0  0  0999 V2000
    6.9880   -1.4340   21.5480 C   0  0  1  0  0  0  0  0  0  0  0  0
    6.1600   -2.7940   21.2040 C   0  0  0  0  0  0  0  0  0  0  0  0
    4.9350   -3.0440   20.7440 O   0  0  0  0  0  0  0  0  0  0  0  0
    6.3660   -0.0520   21.4120 C   0  0  1  0  0  0  0  0  0  0  0  0
    6.6590   -1.9060   22.9110 C   0  0  0  0  0  0  0  0  0  0  0  0
    8.5360   -1.3850   21.9960 C   0  0  0  0  0  0  0  0  0  0  0  0
    7.2810    1.0750   22.0180 C   0  0  0  0  0  0  0  0  0  0  0  0
    6.0220    0.4450   20.0670 C   0  0  0  0  0  0  0  0  0  0  0  0
    9.4520   -1.4230   23.0650 N   0  0  0  0  0  0  0  0  0  0  0  0
    9.9700   -1.2810   21.7190 C   0  0  0  0  0  0  0  0  0  0  0  0
    6.9230   -3.9750   21.6310 C   0  0  2  0  0  0  0  0  0  0  0  0
    7.4290   -3.2610   22.8730 C   0  0  2  0  0  0  0  0  0  0  0  0
    8.0930   -4.4710   20.8560 C   0  0  0  0  0  0  0  0  0  0  0  0
    7.6100    2.0560   23.0570 N   0  0  0  0  0  0  0  0  0  0  0  0
    8.1990    1.2320   21.1950 O   0  0  0  0  0  0  0  0  0  0  0  0
    4.9570    1.2560   20.0000 C   0  0  0  0  0  0  0  0  0  0  0  0
    6.7540    0.1100   18.9420 C   0  0  0  0  0  0  0  0  0  0  0  0
    9.7360   -1.5040   24.2160 N   0  0  0  0  0  0  0  0  0  0  0  0
   10.6550   -1.3670   23.0540 C   0  0  0  0  0  0  0  0  0  0  0  0
    7.4240   -3.9380   24.0350 C   0  0  0  0  0  0  0  0  0  0  0  0
    5.9890   -5.1260   21.8940 C   0  0  0  0  0  0  0  0  0  0  0  0
   12.1640   -1.3220   23.2390 C   0  0  0  0  0  0  0  0  0  0  0  0
    6.4130    0.6280   17.6160 N   0  0  0  0  0  0  0  0  0  0  0  0
    4.6140    1.7580   18.7700 C   0  0  0  0  0  0  0  0  0  0  0  0
    8.2470    3.3990   22.9890 C   0  0  0  0  0  0  0  0  0  0  0  0
    5.2210   -5.1200   23.1830 C   0  0  2  0  0  0  0  0  0  0  0  0
    6.2840   -3.7450   24.7260 C   0  0  2  0  0  0  0  0  0  0  0  0
   12.6430   -0.2070   23.9230 C   0  0  0  0  0  0  0  0  0  0  0  0
   12.7250   -1.8130   24.5640 C   0  0  0  0  0  0  0  0  0  0  0  0
   12.9270   -1.7570   22.1150 C   0  0  0  0  0  0  0  0  0  0  0  0
    5.2610    1.5090   17.5880 C   0  0  0  0  0  0  0  0  0  0  0  0
    9.5600    3.4050   23.4700 C   0  0  0  0  0  0  0  0  0  0  0  0
    7.4940    4.5090   22.4760 C   0  0  0  0  0  0  0  0  0  0  0  0
    4.1420   -6.1230   23.0170 C   0  0  0  0  0  0  0  0  0  0  0  0
    5.0230   -4.0140   23.9640 C   0  0  2  0  0  0  0  0  0  0  0  0
    6.2550   -2.3890   25.4060 C   0  0  0  0  0  0  0  0  0  0  0  0
   10.2740    2.1600   23.9720 C   0  0  0  0  0  0  0  0  0  0  0  0
    6.0560    4.5290   21.9280 C   0  0  0  0  0  0  0  0  0  0  0  0
   12.0430   -3.0830   25.1220 C   0  0  0  0  0  0  0  0  0  0  0  0
    5.5740   -2.6710   26.6890 C   0  0  2  0  0  0  0  0  0  0  0  0
   10.3080    4.5390   23.5220 C   0  0  0  0  0  0  0  0  0  0  0  0
    8.3950    5.7880   22.5570 C   0  0  0  0  0  0  0  0  0  0  0  0
    4.0570   -6.7110   24.4130 C   0  0  2  0  0  0  0  0  0  0  0  0
    3.9820   -4.2230   25.0720 C   0  0  1  0  0  0  0  0  0  0  0  0
    9.3570    1.2700   24.8250 C   0  0  0  0  0  0  0  0  0  0  0  0
    2.8230   -7.5430   24.4220 C   0  0  0  0  0  0  0  0  0  0  0  0
    6.5380   -3.2530   27.5340 N   0  0  0  0  0  0  0  0  0  0  0  0
    9.7010    5.8400   23.0390 C   0  0  0  0  0  0  0  0  0  0  0  0
    4.0090   -5.6840   25.5430 C   0  0  0  0  0  0  0  0  0  0  0  0
    4.1830   -3.3430   26.3580 C   0  0  0  0  0  0  0  0  0  0  0  0
    2.9630   -8.8890   24.8920 O   0  0  0  0  0  0  0  0  0  0  0  0
    7.1740   -4.5890   27.2800 C   0  0  0  0  0  0  0  0  0  0  0  0
    6.1660   -3.0140   28.8950 C   0  0  0  0  0  0  0  0  0  0  0  0
    1.5510   -6.9950   23.9250 N   0  0  0  0  0  0  0  0  0  0  0  0
    8.5460   -4.5930   27.6270 C   0  0  0  0  0  0  0  0  0  0  0  0
    6.5360   -5.5800   28.2400 C   0  0  0  0  0  0  0  0  0  0  0  0
    1.2520   -5.5870   23.5970 C   0  0  0  0  0  0  0  0  0  0  0  0
    0.4310   -7.9120   23.7770 C   0  0  0  0  0  0  0  0  0  0  0  0
    0.3290   -4.9310   24.5870 C   0  0  0  0  0  0  0  0  0  0  0  0
   -0.6730   -7.4940   24.7390 C   0  0  0  0  0  0  0  0  0  0  0  0
   -1.2580   -5.8110   24.3880 S   0  0  0  0  0  0  0  0  0  0  0  0
  1  2  1  0
  2  3  2  0
  1  4  1  0
  1  5  1  0
  1  6  1  1
  4  7  1  6
  4  8  1  0
  6  9  2  0
  6 10  1  0
  2 11  1  0
 12  5  1  1
 11 12  1  0
 11 13  1  6
  7 14  1  0
  7 15  2  0
  8 16  2  0
  8 17  1  0
  9 18  1  0
 10 19  2  0
 18 19  1  0
 12 20  1  0
 11 21  1  0
 19 22  1  0
 17 23  2  0
 16 24  1  0
 14 25  1  0
 26 21  1  6
 27 20  1  6
 22 28  1  0
 22 29  1  0
 22 30  1  0
 23 31  1  0
 24 31  2  0
 25 32  2  0
 25 33  1  0
 26 34  1  0
 35 26  1  1
 27 35  1  0
 27 36  1  0
 32 37  1  0
 33 38  1  0
 29 39  1  0
 36 40  1  0
 32 41  1  0
 33 42  2  0
 34 43  1  0
 35 44  1  0
 37 45  1  0
 43 46  1  6
 40 47  1  1
 41 48  2  0
 42 48  1  0
 43 49  1  0
 44 49  1  1
 40 50  1  0
 44 50  1  0
 46 51  2  0
 47 52  1  0
 47 53  1  0
 46 54  1  0
 52 55  1  0
 52 56  1  0
 54 57  1  0
 54 58  1  0
 57 59  1  0
 58 60  1  0
 59 61  1  0
 60 61  1  0
M  END
