x2705-x0387-x2608-x1402
     RDKit          3D

 61 64  0  0  0  0  0  0  0  0999 V2000
    6.8110   -1.3640   21.2580 N   0  0  0  0  0  0  0  0  0  0  0  0
    5.9430   -2.5510   21.2450 C   0  0  0  0  0  0  0  0  0  0  0  0
    4.7620   -2.8520   20.8250 O   0  0  0  0  0  0  0  0  0  0  0  0
    6.3480   -0.0530   21.4300 C   0  0  1  0  0  0  0  0  0  0  0  0
    8.2260   -1.4910   20.8430 C   0  0  0  0  0  0  0  0  0  0  0  0
    6.5710   -3.6930   21.8290 C   0  0  0  0  0  0  0  0  0  0  0  0
    7.2750    0.8660   22.0350 C   0  0  0  0  0  0  0  0  0  0  0  0
    5.9390    0.4820   20.1360 C   0  0  0  0  0  0  0  0  0  0  0  0
    9.3300   -2.3690   21.4890 C   0  0  0  0  0  0  0  0  0  0  0  0
    6.5620   -4.8140   20.8280 C   0  0  0  0  0  0  0  0  0  0  0  0
    6.8720    2.1820   22.1970 N   0  0  0  0  0  0  0  0  0  0  0  0
    4.6880    1.3280   20.0180 C   0  0  0  0  0  0  0  0  0  0  0  0
    6.7090    0.2200   19.0150 C   0  0  0  0  0  0  0  0  0  0  0  0
    6.3340    0.7580   17.7170 N   0  0  0  0  0  0  0  0  0  0  0  0
    4.2930    1.8870   18.7110 C   0  0  0  0  0  0  0  0  0  0  0  0
    7.6850    3.3400   21.8360 C   0  0  0  0  0  0  0  0  0  0  0  0
    6.8860   -5.9810   21.6340 N   0  0  0  0  0  0  0  0  0  0  0  0
    5.1210    1.5820   17.6640 C   0  0  0  0  0  0  0  0  0  0  0  0
    7.1990    4.6810   21.9460 C   0  0  1  0  0  0  0  0  0  0  0  0
    7.6140   -5.7830   22.8940 C   0  0  0  0  0  0  0  0  0  0  0  0
    5.6990   -6.6770   22.0360 C   0  0  0  0  0  0  0  0  0  0  0  0
    5.6840    4.7970   21.7400 C   0  0  0  0  0  0  0  0  0  0  0  0
    7.7280    5.5950   22.9060 C   0  0  0  0  0  0  0  0  0  0  0  0
    6.8930   -5.2410   23.9920 C   0  0  0  0  0  0  0  0  0  0  0  0
    4.7830   -5.9670   23.0380 C   0  0  0  0  0  0  0  0  0  0  0  0
    9.0930    5.7590   23.1650 C   0  0  0  0  0  0  0  0  0  0  0  0
    5.5260   -5.7390   24.2780 N   0  0  0  0  0  0  0  0  0  0  0  0
    4.7330   -5.4410   25.7590 S   0  0  1  0  0  0  0  0  0  0  0  0
    9.8120    4.7270   23.7700 C   0  0  0  0  0  0  0  0  0  0  0  0
    3.8260   -6.5290   26.0400 O   0  0  0  0  0  0  0  0  0  0  0  0
    5.7250   -5.1350   27.0700 N   0  0  0  0  0  0  0  0  0  0  0  0
    8.9420    3.6460   24.4250 C   0  0  0  0  0  0  0  0  0  0  0  0
    3.8120   -3.9340   25.8650 C   0  0  0  0  0  0  0  0  0  0  0  0
    9.3530    2.1770   24.1210 C   0  0  2  0  0  0  0  0  0  0  0  0
    6.5360   -6.1300   27.6100 C   0  0  0  0  0  0  0  0  0  0  0  0
    2.1010   -3.8450   25.9430 S   0  0  0  0  0  0  0  0  0  0  0  0
    4.4710   -2.7230   25.9050 C   0  0  0  0  0  0  0  0  0  0  0  0
    9.3970    1.3020   25.2330 C   0  0  0  0  0  0  0  0  0  0  0  0
    7.6070   -5.8240   28.4150 C   0  0  0  0  0  0  0  0  0  0  0  0
   10.8770    2.0700   23.3260 S   0  0  2  0  0  0  0  0  0  0  0  0
    3.4550   -1.6000   26.0240 C   0  0  0  0  0  0  0  0  0  0  0  0
    2.1720   -2.1550   26.0560 C   0  0  0  0  0  0  0  0  0  0  0  0
   10.1760    1.6950   21.9550 O   0  0  0  0  0  0  0  0  0  0  0  0
    8.9640   -5.7220   27.9600 O   0  0  0  0  0  0  0  0  0  0  0  0
    0.7530   -1.2030   26.2100 Cl  0  0  0  0  0  0  0  0  0  0  0  0
   12.0350    0.7100   23.7100 C   0  0  2  0  0  0  0  0  0  0  0  0
   13.1970    0.9240   22.8260 C   0  0  0  0  0  0  0  0  0  0  0  0
   11.6870   -0.7720   24.0090 C   0  0  2  0  0  0  0  0  0  0  0  0
    9.2080   -4.5470   27.2110 C   0  0  0  0  0  0  0  0  0  0  0  0
   12.5230   -1.9180   23.4870 C   0  0  0  0  0  0  0  0  0  0  0  0
   10.2400   -1.1890   23.7950 C   0  0  1  0  0  0  0  0  0  0  0  0
    8.0670   -4.1790   26.5520 C   0  0  0  0  0  0  0  0  0  0  0  0
   10.3780   -4.7540   26.2420 C   0  0  0  0  0  0  0  0  0  0  0  0
   13.4150   -2.4410   24.6010 C   0  0  0  0  0  0  0  0  0  0  0  0
   13.0350   -1.7340   22.0830 C   0  0  0  0  0  0  0  0  0  0  0  0
    9.4270   -1.1950   24.8370 N   0  0  0  0  0  0  0  0  0  0  0  0
    9.5840   -0.3470   22.7650 C   0  0  0  0  0  0  0  0  0  0  0  0
    8.1410   -3.2240   25.5940 C   0  0  0  0  0  0  0  0  0  0  0  0
   10.4590   -3.7370   25.2990 C   0  0  0  0  0  0  0  0  0  0  0  0
    8.0660   -1.0600   24.4020 N   0  0  0  0  0  0  0  0  0  0  0  0
    9.1860   -3.5410   24.6310 N   0  0  0  0  0  0  0  0  0  0  0  0
  1  2  1  0
  2  3  2  0
  1  4  1  0
  1  5  1  0
  2  6  1  0
  4  7  1  6
  4  8  1  0
  5  9  1  0
  6 10  1  0
  7 11  1  0
  8 12  2  0
  8 13  1  0
 13 14  2  0
 12 15  1  0
 11 16  1  0
 10 17  1  0
 14 18  1  0
 15 18  2  0
 16 19  1  0
 17 20  1  0
 17 21  1  0
 19 22  1  1
 19 23  1  0
 20 24  1  0
 21 25  1  0
 23 26  1  0
 24 27  1  0
 25 27  1  0
 27 28  1  0
 26 29  1  0
 28 30  2  0
 28 31  2  0
 29 32  1  0
 28 33  1  6
 32 34  1  0
 31 35  1  0
 33 36  1  0
 33 37  2  0
 34 38  1  1
 35 39  1  0
 34 40  1  0
 37 41  1  0
 36 42  1  0
 41 42  2  0
 40 43  1  6
 39 44  1  0
 42 45  1  0
 40 46  1  0
 46 47  1  6
 46 48  1  0
 44 49  1  0
 48 50  1  6
 48 51  1  0
 49 52  1  0
 49 53  1  0
 50 54  1  0
 50 55  1  0
 51 56  1  0
 51 57  1  6
 52 58  1  0
 53 59  1  0
 56 60  1  0
 58 61  1  0
 59 61  1  0
M  END
