x2705-x2643-x2694-x0731
     RDKit          3D

 53 58  0  0  0  0  0  0  0  0999 V2000
    6.9890   -1.2130   21.5280 N   0  0  0  0  0  0  0  0  0  0  0  0
    5.7820   -2.1450   21.6250 C   0  0  0  0  0  0  0  0  0  0  0  0
    4.8520   -3.0790   21.3110 O   0  0  0  0  0  0  0  0  0  0  0  0
    6.6770    0.1500   21.4720 C   0  0  1  0  0  0  0  0  0  0  0  0
    8.3030   -1.5200   22.2080 C   0  0  0  0  0  0  0  0  0  0  0  0
    6.2650   -2.5720   20.3060 C   0  0  0  0  0  0  0  0  0  0  0  0
    7.7130    1.1230   21.7330 C   0  0  0  0  0  0  0  0  0  0  0  0
    6.1240    0.5760   20.2430 C   0  0  0  0  0  0  0  0  0  0  0  0
    8.6270   -2.3140   23.2570 N   0  0  0  0  0  0  0  0  0  0  0  0
    9.7520   -1.0440   21.9780 C   0  0  0  0  0  0  0  0  0  0  0  0
    6.7770   -3.9890   20.3420 C   0  0  0  0  0  0  0  0  0  0  0  0
    7.5350    2.0130   22.7610 N   0  0  0  0  0  0  0  0  0  0  0  0
    8.7140    1.2080   21.0160 O   0  0  0  0  0  0  0  0  0  0  0  0
    7.8590   -3.0610   23.9760 C   0  0  1  0  0  0  0  0  0  0  0  0
    4.9710    1.3240   20.1460 C   0  0  0  0  0  0  0  0  0  0  0  0
    6.7860    0.2410   18.8960 C   0  0  0  0  0  0  0  0  0  0  0  0
    9.9710   -2.4150   23.7340 N   0  0  0  0  0  0  0  0  0  0  0  0
   10.7000   -1.5630   22.8600 C   0  0  0  0  0  0  0  0  0  0  0  0
   12.2130   -1.4150   23.0460 C   0  0  0  0  0  0  0  0  0  0  0  0
    7.1180   -2.3520   24.9260 C   0  0  0  0  0  0  0  0  0  0  0  0
    6.3460    0.6270   17.6850 N   0  0  0  0  0  0  0  0  0  0  0  0
    4.4620    1.7480   18.9570 C   0  0  0  0  0  0  0  0  0  0  0  0
    8.2140    3.2600   22.9530 C   0  0  0  0  0  0  0  0  0  0  0  0
    7.0290   -4.6400   21.7340 N   0  0  0  0  0  0  0  0  0  0  0  0
    6.8530   -3.9620   23.1180 C   0  0  1  0  0  0  0  0  0  0  0  0
   12.4770    0.0630   23.3640 C   0  0  0  0  0  0  0  0  0  0  0  0
   12.6400   -2.3580   24.1580 C   0  0  0  0  0  0  0  0  0  0  0  0
   12.8330   -1.9910   21.8200 C   0  0  0  0  0  0  0  0  0  0  0  0
    5.1860    1.3900   17.6930 C   0  0  0  0  0  0  0  0  0  0  0  0
    9.4870    3.1700   23.5530 C   0  0  0  0  0  0  0  0  0  0  0  0
    7.6920    4.5250   22.5860 C   0  0  0  0  0  0  0  0  0  0  0  0
    6.8020   -4.9120   24.0780 C   0  0  0  0  0  0  0  0  0  0  0  0
    6.3180   -5.9850   21.7920 C   0  0  0  0  0  0  0  0  0  0  0  0
   10.0900    1.8560   23.9550 C   0  0  0  0  0  0  0  0  0  0  0  0
    6.3010    4.5650   21.9240 C   0  0  0  0  0  0  0  0  0  0  0  0
   10.3250    4.4220   23.8230 C   0  0  0  0  0  0  0  0  0  0  0  0
    8.4300    5.7070   22.8230 C   0  0  0  0  0  0  0  0  0  0  0  0
    5.6700   -5.5240   24.0830 N   0  0  0  0  0  0  0  0  0  0  0  0
    5.1470   -6.0760   22.8470 C   0  0  0  0  0  0  0  0  0  0  0  0
    9.2070    1.2190   24.9050 C   0  0  0  0  0  0  0  0  0  0  0  0
    4.9420   -5.6930   25.6150 S   0  0  0  0  0  0  0  0  0  0  0  0
    9.7170    5.7260   23.4260 C   0  0  0  0  0  0  0  0  0  0  0  0
   10.5190    6.8180   23.7100 O   0  0  0  0  0  0  0  0  0  0  0  0
    5.9640   -5.4910   26.6150 O   0  0  0  0  0  0  0  0  0  0  0  0
    4.1270   -6.8770   25.6110 O   0  0  0  0  0  0  0  0  0  0  0  0
    3.8640   -4.2890   25.7480 C   0  0  0  0  0  0  0  0  0  0  0  0
   11.6320    6.6390   24.6020 C   0  0  0  0  0  0  0  0  0  0  0  0
    2.5600   -4.3930   25.2320 C   0  0  0  0  0  0  0  0  0  0  0  0
    4.3010   -3.1100   26.3650 C   0  0  0  0  0  0  0  0  0  0  0  0
    1.6520   -3.3330   25.3230 C   0  0  0  0  0  0  0  0  0  0  0  0
    3.5140   -1.9950   26.5180 C   0  0  0  0  0  0  0  0  0  0  0  0
    2.0850   -2.0440   25.9920 C   0  0  0  0  0  0  0  0  0  0  0  0
    1.1700   -0.8700   26.1420 C   0  0  0  0  0  0  0  0  0  0  0  0
  1  2  1  0
  2  3  2  0
  1  4  1  0
  1  5  1  0
  2  6  1  0
  4  7  1  6
  4  8  1  0
  5  9  1  0
  5 10  2  0
  6 11  1  0
  7 12  1  0
  7 13  2  0
  9 14  1  0
  8 15  2  0
  8 16  1  0
  9 17  1  0
 10 18  1  0
 17 18  2  0
 18 19  1  0
 14 20  1  1
 16 21  2  0
 15 22  1  0
 12 23  1  0
 11 24  1  0
 14 25  1  0
 24 25  1  0
 19 26  1  0
 19 27  1  0
 19 28  1  0
 21 29  1  0
 22 29  2  0
 23 30  2  0
 23 31  1  0
 25 32  1  1
 24 33  1  0
 30 34  1  0
 31 35  1  0
 30 36  1  0
 31 37  2  0
 32 38  1  0
 33 39  1  0
 38 39  1  0
 34 40  1  0
 38 41  1  0
 36 42  2  0
 37 42  1  0
 42 43  1  0
 41 44  2  0
 41 45  2  0
 41 46  1  0
 43 47  1  0
 46 48  2  0
 46 49  1  0
 48 50  1  0
 49 51  2  0
 50 52  2  0
 51 52  1  0
 52 53  1  0
M  END
