x2705-x2694-x1425-x0426-x0540
     RDKit          3D

 63 70  0  0  0  0  0  0  0  0999 V2000
    7.0320   -1.4790   21.8270 C   0  0  1  0  0  0  0  0  0  0  0  0
    6.1120   -2.7970   21.3270 C   0  0  0  0  0  0  0  0  0  0  0  0
    4.8990   -2.9880   20.7930 O   0  0  0  0  0  0  0  0  0  0  0  0
    6.7190    0.0090   21.5790 C   0  0  1  0  0  0  0  0  0  0  0  0
    6.4210   -2.0510   23.0850 C   0  0  0  0  0  0  0  0  0  0  0  0
    8.4960   -1.4850   22.5150 C   0  0  0  0  0  0  0  0  0  0  0  0
    7.7960    1.1320   21.7790 C   0  0  0  0  0  0  0  0  0  0  0  0
    6.1710    0.4220   20.2680 C   0  0  0  0  0  0  0  0  0  0  0  0
    8.6360   -1.4800   23.9060 N   0  0  0  0  0  0  0  0  0  0  0  0
    9.7850   -1.4720   22.0240 C   0  0  0  0  0  0  0  0  0  0  0  0
    6.7380   -4.0480   21.7420 C   0  0  2  0  0  0  0  0  0  0  0  0
    7.1520   -3.4450   23.0730 C   0  0  2  0  0  0  0  0  0  0  0  0
    7.9610   -4.5050   20.9910 C   0  0  0  0  0  0  0  0  0  0  0  0
    7.6680    1.8820   22.6780 N   0  0  0  0  0  0  0  0  0  0  0  0
    8.7350    1.2680   21.0020 O   0  0  0  0  0  0  0  0  0  0  0  0
    5.1020    1.3160   20.2260 C   0  0  0  0  0  0  0  0  0  0  0  0
    6.6980   -0.0240   19.0610 C   0  0  0  0  0  0  0  0  0  0  0  0
    9.9680   -1.4680   24.2110 N   0  0  0  0  0  0  0  0  0  0  0  0
   10.7080   -1.4610   23.0670 C   0  0  0  0  0  0  0  0  0  0  0  0
    6.9500   -4.3280   24.2160 C   0  0  0  0  0  0  0  0  0  0  0  0
    5.8460   -5.2680   22.0280 C   0  0  0  0  0  0  0  0  0  0  0  0
   12.2340   -1.4410   23.1670 C   0  0  0  0  0  0  0  0  0  0  0  0
    4.3720    1.9490   21.4160 C   0  0  1  0  0  0  0  0  0  0  0  0
    6.2510    0.3520   17.8440 N   0  0  0  0  0  0  0  0  0  0  0  0
    4.6000    1.7330   18.8360 C   0  0  0  0  0  0  0  0  0  0  0  0
    8.3200    3.1620   22.8780 C   0  0  0  0  0  0  0  0  0  0  0  0
    5.5490   -4.6210   24.2870 N   0  0  0  0  0  0  0  0  0  0  0  0
    4.9010   -5.0040   23.0060 C   0  0  0  0  0  0  0  0  0  0  0  0
   12.6280   -0.1190   23.3900 C   0  0  0  0  0  0  0  0  0  0  0  0
   12.7000   -2.5180   24.2160 C   0  0  0  0  0  0  0  0  0  0  0  0
   12.8450   -1.8050   21.8480 C   0  0  0  0  0  0  0  0  0  0  0  0
    3.7790    1.4840   22.4390 C   0  0  1  0  0  0  0  0  0  0  0  0
    5.1250    2.2390   22.6420 C   0  0  0  0  0  0  0  0  0  0  0  0
    5.2300    1.2120   17.7320 C   0  0  0  0  0  0  0  0  0  0  0  0
    9.5790    3.1200   23.4840 C   0  0  0  0  0  0  0  0  0  0  0  0
    7.8200    4.4420   22.5280 C   0  0  0  0  0  0  0  0  0  0  0  0
    4.8640   -3.9010   25.3420 C   0  0  0  0  0  0  0  0  0  0  0  0
   10.2210    1.8360   23.8990 C   0  0  0  0  0  0  0  0  0  0  0  0
    6.4920    4.7120   21.8600 C   0  0  0  0  0  0  0  0  0  0  0  0
    2.6230    2.0360   22.7020 N   0  0  0  0  0  0  0  0  0  0  0  0
   10.3090    4.2730   23.7440 C   0  0  0  0  0  0  0  0  0  0  0  0
    8.5690    5.6120   22.7990 C   0  0  0  0  0  0  0  0  0  0  0  0
    5.3640   -2.7310   25.9410 C   0  0  0  0  0  0  0  0  0  0  0  0
    3.6690   -4.4660   25.7190 C   0  0  0  0  0  0  0  0  0  0  0  0
    9.2940    1.1830   24.9680 C   0  0  0  0  0  0  0  0  0  0  0  0
    1.8770    1.5520   23.8340 C   0  0  0  0  0  0  0  0  0  0  0  0
    2.4490    3.4090   22.4890 N   0  0  0  0  0  0  0  0  0  0  0  0
    9.8320    5.5390   23.4190 C   0  0  0  0  0  0  0  0  0  0  0  0
    4.6910   -2.0490   26.9660 C   0  0  0  0  0  0  0  0  0  0  0  0
    2.8760   -3.8040   26.8110 C   0  0  0  0  0  0  0  0  0  0  0  0
   10.5110    6.7170   23.6670 O   0  0  0  0  0  0  0  0  0  0  0  0
    1.9630    0.3930   24.2270 O   0  0  0  0  0  0  0  0  0  0  0  0
    0.9060    2.5110   24.6090 C   0  0  0  0  0  0  0  0  0  0  0  0
    3.3470   -2.6490   27.4210 C   0  0  0  0  0  0  0  0  0  0  0  0
   11.6810    6.6420   24.5350 C   0  0  0  0  0  0  0  0  0  0  0  0
    2.5630   -2.1200   28.4080 O   0  0  0  0  0  0  0  0  0  0  0  0
    1.4970    3.6780   25.1900 C   0  0  0  0  0  0  0  0  0  0  0  0
   -0.5460    2.0380   24.6260 C   0  0  0  0  0  0  0  0  0  0  0  0
    2.7990    3.9930   25.1080 F   0  0  0  0  0  0  0  0  0  0  0  0
    1.2240   -2.3040   28.2300 C   0  0  0  0  0  0  0  0  0  0  0  0
   -1.5020    2.9860   25.3960 C   0  0  0  0  0  0  0  0  0  0  0  0
    0.5260    4.6230   25.9600 C   0  0  0  0  0  0  0  0  0  0  0  0
   -0.9750    4.2550   26.0510 C   0  0  0  0  0  0  0  0  0  0  0  0
  1  2  1  0
  2  3  2  0
  1  4  1  0
  1  5  1  0
  1  6  1  1
  4  7  1  6
  4  8  1  0
  6  9  2  0
  6 10  1  0
  2 11  1  0
 12  5  1  1
 11 12  1  0
 11 13  1  6
  7 14  1  0
  7 15  2  0
  8 16  1  0
  8 17  2  0
  9 18  1  0
 10 19  2  0
 18 19  1  0
 12 20  1  0
 11 21  1  0
 19 22  1  0
 23 16  1  6
 17 24  1  0
 16 25  2  0
 14 26  1  0
 20 27  1  0
 21 28  1  0
 27 28  1  0
 22 29  1  0
 22 30  1  0
 22 31  1  0
 23 32  1  0
 23 33  1  0
 32 33  1  0
 24 34  2  0
 25 34  1  0
 26 35  2  0
 26 36  1  0
 27 37  1  0
 35 38  1  0
 36 39  1  0
 32 40  1  1
 35 41  1  0
 36 42  2  0
 37 43  2  0
 37 44  1  0
 38 45  1  0
 40 46  1  0
 40 47  1  0
 41 48  2  0
 42 48  1  0
 43 49  1  0
 44 50  2  0
 48 51  1  0
 46 52  2  0
 46 53  1  0
 49 54  2  0
 50 54  1  0
 51 55  1  0
 54 56  1  0
 53 57  2  0
 53 58  1  0
 57 59  1  0
 56 60  1  0
 58 61  2  0
 57 62  1  0
 61 63  1  0
 62 63  2  0
M  END
