x2705-x3115-x1308-x0755-x1311
     RDKit          3D

 60 67  0  0  0  0  0  0  0  0999 V2000
    6.8130   -1.4300   21.8330 N   0  0  0  0  0  0  0  0  0  0  0  0
    5.8370   -2.5200   21.3200 C   0  0  0  0  0  0  0  0  0  0  0  0
    4.6500   -3.0070   21.6290 O   0  0  0  0  0  0  0  0  0  0  0  0
    6.5060    0.0610   21.6890 C   0  0  1  0  0  0  0  0  0  0  0  0
    8.1230   -1.5380   22.5450 C   0  0  0  0  0  0  0  0  0  0  0  0
    6.2040   -3.2770   20.1550 C   0  0  0  0  0  0  0  0  0  0  0  0
    7.6350    0.9060   21.9390 C   0  0  0  0  0  0  0  0  0  0  0  0
    5.9050    0.4950   20.3490 C   0  0  0  0  0  0  0  0  0  0  0  0
    8.3620   -1.7140   24.0180 N   0  0  0  0  0  0  0  0  0  0  0  0
    9.5710   -1.4370   22.0840 C   0  0  0  0  0  0  0  0  0  0  0  0
    7.2650   -4.1760   20.6290 C   0  0  0  0  0  0  0  0  0  0  0  0
    7.4490    1.9570   22.8390 N   0  0  0  0  0  0  0  0  0  0  0  0
    8.7200    0.7870   21.3730 O   0  0  0  0  0  0  0  0  0  0  0  0
    4.6220    1.2370   20.1690 C   0  0  0  0  0  0  0  0  0  0  0  0
    6.7280    0.1490   19.1250 C   0  0  0  0  0  0  0  0  0  0  0  0
    9.7270   -1.6810   24.2150 N   0  0  0  0  0  0  0  0  0  0  0  0
   10.4660   -1.5140   23.0750 C   0  0  0  0  0  0  0  0  0  0  0  0
   12.0320   -1.4350   23.1530 C   0  0  0  0  0  0  0  0  0  0  0  0
    6.3730    0.4900   17.8800 N   0  0  0  0  0  0  0  0  0  0  0  0
    4.3140    1.5740   18.7390 C   0  0  0  0  0  0  0  0  0  0  0  0
    8.1290    3.1820   22.9480 C   0  0  0  0  0  0  0  0  0  0  0  0
    6.9010   -5.3140   21.6380 N   0  0  0  0  0  0  0  0  0  0  0  0
   12.3920   -0.2440   23.8030 C   0  0  0  0  0  0  0  0  0  0  0  0
   12.7240   -2.6440   23.8310 C   0  0  0  0  0  0  0  0  0  0  0  0
   12.7120   -1.4300   21.7920 C   0  0  0  0  0  0  0  0  0  0  0  0
    5.2090    1.1810   17.7440 C   0  0  0  0  0  0  0  0  0  0  0  0
    9.4420    3.2780   23.5110 C   0  0  0  0  0  0  0  0  0  0  0  0
    7.4340    4.3280   22.4660 C   0  0  0  0  0  0  0  0  0  0  0  0
    7.6080   -5.4120   22.8190 C   0  0  0  0  0  0  0  0  0  0  0  0
    5.4780   -5.7520   21.9410 C   0  0  0  0  0  0  0  0  0  0  0  0
   10.1990    2.0780   24.0140 C   0  0  0  0  0  0  0  0  0  0  0  0
    6.0320    4.2310   21.8520 C   0  0  0  0  0  0  0  0  0  0  0  0
   13.0470   -2.4320   25.2820 C   0  0  0  0  0  0  0  0  0  0  0  0
   10.0860    4.4580   23.6220 C   0  0  0  0  0  0  0  0  0  0  0  0
    8.2210    5.7050   22.6120 C   0  0  0  0  0  0  0  0  0  0  0  0
    8.8900   -5.7790   22.6870 C   0  0  0  0  0  0  0  0  0  0  0  0
    7.1010   -5.1850   24.0980 C   0  0  0  0  0  0  0  0  0  0  0  0
    4.9160   -5.4700   23.2640 C   0  0  1  0  0  0  0  0  0  0  0  0
    9.2040    1.3800   24.9160 C   0  0  0  0  0  0  0  0  0  0  0  0
    9.5620    5.5990   23.2240 C   0  0  0  0  0  0  0  0  0  0  0  0
    9.7120   -5.9340   23.9250 C   0  0  0  0  0  0  0  0  0  0  0  0
    7.9340   -5.3410   25.2070 C   0  0  0  0  0  0  0  0  0  0  0  0
    3.4630   -4.9890   23.1330 C   0  0  0  0  0  0  0  0  0  0  0  0
    4.3040   -6.9060   24.2170 S   0  0  2  0  0  0  0  0  0  0  0  0
    5.7840   -4.8340   24.2960 N   0  0  0  0  0  0  0  0  0  0  0  0
    4.7980   -6.7190   25.7790 N   0  0  0  0  0  0  0  0  0  0  0  0
    3.1420   -6.3610   24.8890 O   0  0  0  0  0  0  0  0  0  0  0  0
    5.1390   -5.0690   25.8950 S   0  0  1  0  0  0  0  0  0  0  0  0
    9.1730   -5.7020   25.1160 C   0  0  0  0  0  0  0  0  0  0  0  0
    2.7330   -6.1020   22.7490 C   0  0  0  0  0  0  0  0  0  0  0  0
    3.0770   -7.3030   23.2030 C   0  0  0  0  0  0  0  0  0  0  0  0
    6.0660   -4.4700   26.8110 O   0  0  0  0  0  0  0  0  0  0  0  0
    3.7280   -3.9820   26.0300 C   0  0  0  0  0  0  0  0  0  0  0  0
    2.3840   -4.3640   26.1160 C   0  0  0  0  0  0  0  0  0  0  0  0
    4.1360   -2.4890   26.0510 C   0  0  0  0  0  0  0  0  0  0  0  0
    5.4000   -2.0500   25.9790 F   0  0  0  0  0  0  0  0  0  0  0  0
    3.0080   -1.4610   26.1670 C   0  0  0  0  0  0  0  0  0  0  0  0
    1.3450   -3.4400   26.2200 C   0  0  0  0  0  0  0  0  0  0  0  0
    1.7030   -1.9580   26.2470 C   0  0  0  0  0  0  0  0  0  0  0  0
    0.4010   -0.8550   26.3960 Cl  0  0  0  0  0  0  0  0  0  0  0  0
  1  2  1  0
  2  3  2  0
  1  4  1  0
  1  5  1  0
  2  6  1  0
  4  7  1  6
  4  8  1  0
  5  9  2  0
  5 10  1  0
  6 11  1  0
  7 12  1  0
  7 13  2  0
  8 14  2  0
  8 15  1  0
  9 16  1  0
 10 17  2  0
 16 17  1  0
 17 18  1  0
 15 19  2  0
 14 20  1  0
 12 21  1  0
 11 22  1  0
 18 23  1  0
 18 24  1  0
 18 25  1  0
 19 26  1  0
 20 26  2  0
 21 27  2  0
 21 28  1  0
 22 29  1  0
 22 30  1  0
 27 31  1  0
 28 32  1  0
 24 33  1  0
 27 34  1  0
 28 35  2  0
 29 36  1  0
 29 37  2  0
 38 30  1  6
 31 39  1  0
 34 40  2  0
 35 40  1  0
 36 41  2  0
 37 42  1  0
 38 43  1  0
 38 44  1  0
 37 45  1  0
 38 45  1  0
 44 46  1  0
 44 47  1  1
 45 48  1  0
 46 48  2  0
 41 49  1  0
 42 49  2  0
 43 50  1  0
 44 51  1  0
 50 51  2  0
 48 52  2  0
 48 53  1  6
 53 54  2  0
 53 55  1  0
 55 56  1  0
 55 57  2  0
 54 58  1  0
 57 59  1  0
 58 59  2  0
 59 60  1  0
M  END
