x2705-x0978
     RDKit          3D

 44 46  0  0  0  0  0  0  0  0999 V2000
    7.0280   -1.5390   21.8610 N   0  0  0  0  0  0  0  0  0  0  0  0
    6.1940   -2.8120   21.7340 C   0  0  0  0  0  0  0  0  0  0  0  0
    4.9320   -3.1340   21.2510 O   0  0  0  0  0  0  0  0  0  0  0  0
    6.6590   -0.0730   21.5850 C   0  0  1  0  0  0  0  0  0  0  0  0
    8.2920   -1.5670   22.5620 C   0  0  0  0  0  0  0  0  0  0  0  0
    7.0240   -3.9920   22.2630 C   0  0  0  0  0  0  0  0  0  0  0  0
    7.6940    0.8540   21.9190 C   0  0  0  0  0  0  0  0  0  0  0  0
    6.1750    0.2730   20.2170 C   0  0  0  0  0  0  0  0  0  0  0  0
    8.4150   -1.6070   23.9130 N   0  0  0  0  0  0  0  0  0  0  0  0
    9.5970   -1.5380   22.0600 C   0  0  0  0  0  0  0  0  0  0  0  0
    6.9740   -5.1330   21.2620 C   0  0  0  0  0  0  0  0  0  0  0  0
    7.3760    1.9270   22.7550 N   0  0  0  0  0  0  0  0  0  0  0  0
    8.8180    0.7400   21.4380 O   0  0  0  0  0  0  0  0  0  0  0  0
    5.0220    1.0360   20.1340 C   0  0  0  0  0  0  0  0  0  0  0  0
    6.8480   -0.1180   19.0510 C   0  0  0  0  0  0  0  0  0  0  0  0
    9.7410   -1.5960   24.2580 N   0  0  0  0  0  0  0  0  0  0  0  0
   10.6130   -1.5530   23.2120 C   0  0  0  0  0  0  0  0  0  0  0  0
   12.1310   -1.5260   23.3240 C   0  0  0  0  0  0  0  0  0  0  0  0
    5.5630   -5.6890   21.3670 N   0  0  0  0  0  0  0  0  0  0  0  0
    6.3090    0.3150   17.8830 N   0  0  0  0  0  0  0  0  0  0  0  0
    4.5300    1.4340   18.9190 C   0  0  0  0  0  0  0  0  0  0  0  0
    8.0780    3.1620   22.9100 C   0  0  0  0  0  0  0  0  0  0  0  0
   12.6570   -0.1510   23.7710 C   0  0  0  0  0  0  0  0  0  0  0  0
   12.6170   -2.5790   24.3430 C   0  0  0  0  0  0  0  0  0  0  0  0
   12.7750   -1.8350   21.9570 C   0  0  0  0  0  0  0  0  0  0  0  0
    4.6580   -5.4270   22.5230 C   0  0  0  0  0  0  0  0  0  0  0  0
    5.1880    1.0720   17.7790 C   0  0  0  0  0  0  0  0  0  0  0  0
    9.3770    3.2210   23.5080 C   0  0  0  0  0  0  0  0  0  0  0  0
    7.4510    4.3530   22.4500 C   0  0  0  0  0  0  0  0  0  0  0  0
   10.1170    2.0000   24.0170 C   0  0  0  0  0  0  0  0  0  0  0  0
    6.0900    4.3460   21.8080 C   0  0  0  0  0  0  0  0  0  0  0  0
    3.4970   -6.3960   22.9250 C   0  0  2  0  0  0  0  0  0  0  0  0
    4.7740   -4.4010   23.1840 O   0  0  0  0  0  0  0  0  0  0  0  0
   10.0380    4.4680   23.6440 C   0  0  0  0  0  0  0  0  0  0  0  0
    8.1680    5.7180   22.5980 C   0  0  0  0  0  0  0  0  0  0  0  0
    9.2830    1.2920   24.8980 C   0  0  0  0  0  0  0  0  0  0  0  0
    2.2990   -5.6820   22.9680 N   0  0  0  0  0  0  0  0  0  0  0  0
    3.6400   -7.1450   24.2940 C   0  0  1  0  0  0  0  0  0  0  0  0
    9.4280    5.8430   23.1710 C   0  0  0  0  0  0  0  0  0  0  0  0
    2.5250   -7.7830   24.7450 C   0  0  0  0  0  0  0  0  0  0  0  0
    4.6210   -7.8390   24.1740 O   0  0  0  0  0  0  0  0  0  0  0  0
    1.0270   -6.2720   22.5570 C   0  0  0  0  0  0  0  0  0  0  0  0
    0.9420   -7.3670   22.0080 O   0  0  0  0  0  0  0  0  0  0  0  0
   -0.2410   -5.4140   22.8460 C   0  0  0  0  0  0  0  0  0  0  0  0
  1  2  1  0
  2  3  2  0
  1  4  1  0
  1  5  1  0
  2  6  1  0
  4  7  1  6
  4  8  1  0
  5  9  2  0
  5 10  1  0
  6 11  1  0
  7 12  1  0
  7 13  2  0
  8 14  2  0
  8 15  1  0
  9 16  1  0
 10 17  2  0
 16 17  1  0
 17 18  1  0
 11 19  1  0
 15 20  2  0
 14 21  1  0
 12 22  1  0
 18 23  1  0
 18 24  1  0
 18 25  1  0
 19 26  1  0
 20 27  1  0
 21 27  2  0
 22 28  2  0
 22 29  1  0
 28 30  1  0
 29 31  1  0
 26 32  1  0
 26 33  2  0
 28 34  1  0
 29 35  2  0
 30 36  1  0
 32 37  1  1
 32 38  1  0
 34 39  2  0
 35 39  1  0
 38 40  1  6
 38 41  1  0
 37 42  1  0
 42 43  2  0
 42 44  1  0
M  END
