x2705-x0978-x0691-x2776-x2703
     RDKit          3D

 60 65  0  0  0  0  0  0  0  0999 V2000
    7.0550   -1.3650   21.5140 N   0  0  0  0  0  0  0  0  0  0  0  0
    6.1950   -2.6550   21.4660 C   0  0  0  0  0  0  0  0  0  0  0  0
    4.9370   -3.0340   20.9790 O   0  0  0  0  0  0  0  0  0  0  0  0
    6.5890    0.0240   21.3530 C   0  0  1  0  0  0  0  0  0  0  0  0
    8.2580   -1.3950   22.3350 C   0  0  0  0  0  0  0  0  0  0  0  0
    6.8480   -3.7030   22.1260 C   0  0  0  0  0  0  0  0  0  0  0  0
    7.6720    1.1440   21.6560 C   0  0  0  0  0  0  0  0  0  0  0  0
    6.1080    0.5140   20.0490 C   0  0  0  0  0  0  0  0  0  0  0  0
    8.2140   -1.3980   23.6980 N   0  0  0  0  0  0  0  0  0  0  0  0
    9.5930   -1.4150   22.0280 C   0  0  0  0  0  0  0  0  0  0  0  0
    7.4530   -4.8170   21.2760 C   0  0  0  0  0  0  0  0  0  0  0  0
    7.4500    2.0500   22.8220 N   0  0  0  0  0  0  0  0  0  0  0  0
    8.6510    1.2770   20.9300 O   0  0  0  0  0  0  0  0  0  0  0  0
    5.0130    1.3430   19.9490 C   0  0  0  0  0  0  0  0  0  0  0  0
    6.8300    0.0980   18.9450 C   0  0  0  0  0  0  0  0  0  0  0  0
    9.4510   -1.4170   24.2570 N   0  0  0  0  0  0  0  0  0  0  0  0
   10.4960   -1.4300   23.2250 C   0  0  0  0  0  0  0  0  0  0  0  0
   12.0770   -1.4560   23.3450 C   0  0  0  0  0  0  0  0  0  0  0  0
    6.3470    0.6200   17.7020 N   0  0  0  0  0  0  0  0  0  0  0  0
    4.5470    1.8370   18.7970 C   0  0  0  0  0  0  0  0  0  0  0  0
    8.1080    3.3350   22.9290 C   0  0  0  0  0  0  0  0  0  0  0  0
    6.7730   -6.0230   21.6420 N   0  0  0  0  0  0  0  0  0  0  0  0
   12.4700   -0.2480   23.9500 C   0  0  0  0  0  0  0  0  0  0  0  0
   12.3130   -2.7200   24.1420 C   0  0  0  0  0  0  0  0  0  0  0  0
   12.7220   -1.6820   22.0970 C   0  0  0  0  0  0  0  0  0  0  0  0
    5.1780    1.5200   17.6170 C   0  0  0  0  0  0  0  0  0  0  0  0
    9.3800    3.4830   23.4660 C   0  0  0  0  0  0  0  0  0  0  0  0
    7.3440    4.5540   22.4300 C   0  0  0  0  0  0  0  0  0  0  0  0
    5.2910   -5.9450   21.6730 C   0  0  0  0  0  0  0  0  0  0  0  0
    7.1640   -6.3560   22.9670 C   0  0  0  0  0  0  0  0  0  0  0  0
   10.1710    2.2740   23.9490 C   0  0  0  0  0  0  0  0  0  0  0  0
    5.9750    4.4020   21.8360 C   0  0  0  0  0  0  0  0  0  0  0  0
   13.3920   -2.5570   25.1520 C   0  0  0  0  0  0  0  0  0  0  0  0
    9.9540    4.7790   23.5640 C   0  0  0  0  0  0  0  0  0  0  0  0
    7.9870    5.8000   22.5560 C   0  0  0  0  0  0  0  0  0  0  0  0
    4.5960   -5.4810   22.8500 C   0  0  2  0  0  0  0  0  0  0  0  0
    6.7890   -5.5050   24.0320 C   0  0  0  0  0  0  0  0  0  0  0  0
    9.2410    1.4380   24.8720 C   0  0  0  0  0  0  0  0  0  0  0  0
   11.2060    4.9590   24.1030 O   0  0  0  0  0  0  0  0  0  0  0  0
    3.3590   -6.4220   23.1890 C   0  0  2  0  0  0  0  0  0  0  0  0
    4.0750   -4.2440   22.6020 O   0  0  0  0  0  0  0  0  0  0  0  0
    9.2570    5.8800   23.1140 C   0  0  0  0  0  0  0  0  0  0  0  0
    5.3190   -5.3870   24.1610 N   0  0  0  0  0  0  0  0  0  0  0  0
   11.4860    6.2290   24.7170 C   0  0  0  0  0  0  0  0  0  0  0  0
    2.2090   -5.6800   23.2010 N   0  0  0  0  0  0  0  0  0  0  0  0
    3.7210   -7.0770   24.3850 C   0  0  1  0  0  0  0  0  0  0  0  0
    4.3440   -5.7830   25.4810 S   0  0  0  0  0  0  0  0  0  0  0  0
    2.6170   -7.9000   25.1020 C   0  0  0  0  0  0  0  0  0  0  0  0
    4.5820   -7.8780   24.0930 O   0  0  0  0  0  0  0  0  0  0  0  0
    1.0090   -6.3070   22.5940 C   0  0  0  0  0  0  0  0  0  0  0  0
    5.4870   -5.7920   26.3770 O   0  0  0  0  0  0  0  0  0  0  0  0
    3.3550   -4.3130   25.6480 C   0  0  0  0  0  0  0  0  0  0  0  0
    0.9580   -7.3760   21.9660 O   0  0  0  0  0  0  0  0  0  0  0  0
   -0.1530   -5.5460   22.7860 C   0  0  0  0  0  0  0  0  0  0  0  0
    3.8480   -3.0240   25.7540 C   0  0  0  0  0  0  0  0  0  0  0  0
    1.9980   -4.4300   25.6750 C   0  0  0  0  0  0  0  0  0  0  0  0
    3.0000   -1.9290   25.8790 C   0  0  0  0  0  0  0  0  0  0  0  0
    1.0200   -3.2570   25.8100 C   0  0  0  0  0  0  0  0  0  0  0  0
    3.5100   -0.6920   25.9800 F   0  0  0  0  0  0  0  0  0  0  0  0
    1.5990   -2.0200   25.9090 C   0  0  0  0  0  0  0  0  0  0  0  0
  1  2  1  0
  2  3  2  0
  1  4  1  0
  1  5  1  0
  2  6  1  0
  4  7  1  6
  4  8  1  0
  5  9  2  0
  5 10  1  0
  6 11  1  0
  7 12  1  0
  7 13  2  0
  8 14  2  0
  8 15  1  0
  9 16  1  0
 10 17  2  0
 16 17  1  0
 17 18  1  0
 15 19  2  0
 14 20  1  0
 12 21  1  0
 11 22  1  0
 18 23  1  0
 18 24  1  0
 18 25  1  0
 19 26  1  0
 20 26  2  0
 21 27  2  0
 21 28  1  0
 22 29  1  0
 22 30  1  0
 27 31  1  0
 28 32  1  0
 24 33  1  0
 27 34  1  0
 28 35  2  0
 29 36  1  0
 30 37  1  0
 31 38  1  0
 34 39  1  0
 36 40  1  0
 36 41  1  6
 34 42  2  0
 35 42  1  0
 36 43  1  0
 37 43  1  0
 39 44  1  0
 40 45  1  1
 40 46  1  0
 43 47  1  0
 46 47  1  0
 46 48  1  1
 46 49  1  0
 45 50  1  0
 47 51  2  0
 47 52  1  0
 50 53  2  0
 50 54  1  0
 52 55  2  0
 52 56  1  0
 55 57  1  0
 56 58  2  0
 57 59  1  0
 57 60  2  0
 58 60  1  0
M  END
