x2705-x1374-x3117-x2193-x1493
     RDKit          3D

 53 57  0  0  0  0  0  0  0  0999 V2000
    6.7480   -1.2140   22.1160 N   0  0  0  0  0  0  0  0  0  0  0  0
    6.1380   -2.4580   21.5550 C   0  0  0  0  0  0  0  0  0  0  0  0
    4.8620   -3.0520   21.3140 O   0  0  0  0  0  0  0  0  0  0  0  0
    6.4340    0.1020   21.7670 C   0  0  1  0  0  0  0  0  0  0  0  0
    8.0440   -1.2760   22.7260 C   0  0  0  0  0  0  0  0  0  0  0  0
    7.3680   -3.1740   21.1660 C   0  0  2  0  0  0  0  0  0  0  0  0
    7.6380    1.0280   21.9800 C   0  0  0  0  0  0  0  0  0  0  0  0
    5.9750    0.4080   20.3700 C   0  0  0  0  0  0  0  0  0  0  0  0
    8.2280   -1.2190   24.2060 N   0  0  0  0  0  0  0  0  0  0  0  0
    9.4000   -1.3800   22.2650 C   0  0  0  0  0  0  0  0  0  0  0  0
    7.0260   -3.8170   19.8400 C   0  0  0  0  0  0  0  0  0  0  0  0
    7.3750    2.1690   22.8490 N   0  0  0  0  0  0  0  0  0  0  0  0
    8.7470    0.9180   21.4600 O   0  0  0  0  0  0  0  0  0  0  0  0
    4.8220    1.1090   20.0900 C   0  0  0  0  0  0  0  0  0  0  0  0
    6.8170   -0.0400   19.3420 C   0  0  0  0  0  0  0  0  0  0  0  0
    9.6880   -1.2970   24.4240 N   0  0  0  0  0  0  0  0  0  0  0  0
   10.4720   -1.4050   23.1780 C   0  0  0  0  0  0  0  0  0  0  0  0
    7.9330   -3.9880   22.3950 C   0  0  0  0  0  0  0  0  0  0  0  0
   12.0200   -1.5000   23.1750 C   0  0  0  0  0  0  0  0  0  0  0  0
    6.3830    0.3100   17.9650 N   0  0  0  0  0  0  0  0  0  0  0  0
    4.4060    1.4370   18.8330 C   0  0  0  0  0  0  0  0  0  0  0  0
    8.1560    3.3510   22.9510 C   0  0  0  0  0  0  0  0  0  0  0  0
    8.7790   -3.6320   23.4390 C   0  0  0  0  0  0  0  0  0  0  0  0
    7.5350   -5.2720   22.4470 C   0  0  0  0  0  0  0  0  0  0  0  0
   12.6600   -0.2230   23.7490 C   0  0  0  0  0  0  0  0  0  0  0  0
   12.5210   -2.7080   23.8760 C   0  0  0  0  0  0  0  0  0  0  0  0
   12.5860   -1.6350   21.7500 C   0  0  0  0  0  0  0  0  0  0  0  0
    5.1870    1.0450   17.7870 C   0  0  0  0  0  0  0  0  0  0  0  0
    9.4720    3.3520   23.4720 C   0  0  0  0  0  0  0  0  0  0  0  0
    7.5630    4.5520   22.5100 C   0  0  0  0  0  0  0  0  0  0  0  0
    9.3100   -4.3110   24.5330 C   0  0  0  0  0  0  0  0  0  0  0  0
    8.0090   -6.0530   23.4900 C   0  0  0  0  0  0  0  0  0  0  0  0
    6.7060   -5.7650   21.5010 N   0  0  0  0  0  0  0  0  0  0  0  0
   10.1900    2.1110   23.9520 C   0  0  0  0  0  0  0  0  0  0  0  0
    6.1670    4.5960   21.9350 C   0  0  0  0  0  0  0  0  0  0  0  0
   13.2620   -2.5260   25.2050 C   0  0  0  0  0  0  0  0  0  0  0  0
   10.2320   -3.8830   25.6490 C   0  0  0  0  0  0  0  0  0  0  0  0
   10.1410    4.5710   23.5410 C   0  0  0  0  0  0  0  0  0  0  0  0
    8.2650    5.7580   22.5940 C   0  0  0  0  0  0  0  0  0  0  0  0
    8.8510   -5.6180   24.4940 C   0  0  0  0  0  0  0  0  0  0  0  0
    5.6510   -6.4440   21.8830 C   0  0  0  0  0  0  0  0  0  0  0  0
    9.3680    1.3900   24.9180 C   0  0  0  0  0  0  0  0  0  0  0  0
    9.5650    5.7520   23.1190 C   0  0  0  0  0  0  0  0  0  0  0  0
    4.6600   -5.5570   22.6450 C   0  0  2  0  0  0  0  0  0  0  0  0
    5.1290   -5.1470   23.8890 C   0  0  0  0  0  0  0  0  0  0  0  0
    3.4360   -6.3960   22.8730 C   0  0  0  0  0  0  0  0  0  0  0  0
    3.3100   -6.8430   24.5470 S   0  0  0  0  0  0  0  0  0  0  0  0
    4.5810   -5.6810   25.0180 C   0  0  0  0  0  0  0  0  0  0  0  0
    1.9940   -6.4540   24.9620 O   0  0  0  0  0  0  0  0  0  0  0  0
    3.7350   -8.2010   24.7490 O   0  0  0  0  0  0  0  0  0  0  0  0
    4.9270   -5.4070   26.4190 C   0  0  0  0  0  0  0  0  0  0  0  0
    6.2500   -5.7760   26.6180 C   0  0  0  0  0  0  0  0  0  0  0  0
    7.2260   -5.0950   26.3550 O   0  0  0  0  0  0  0  0  0  0  0  0
  1  2  1  0
  2  3  2  0
  1  4  1  0
  1  5  1  0
  2  6  1  0
  4  7  1  6
  4  8  1  0
  5  9  2  0
  5 10  1  0
  6 11  1  6
  7 12  1  0
  7 13  2  0
  8 14  2  0
  8 15  1  0
  9 16  1  0
 10 17  2  0
 16 17  1  0
  6 18  1  0
 17 19  1  0
 15 20  2  0
 14 21  1  0
 12 22  1  0
 18 23  2  0
 18 24  1  0
 19 25  1  0
 19 26  1  0
 19 27  1  0
 20 28  1  0
 21 28  2  0
 22 29  2  0
 22 30  1  0
 23 31  1  0
 24 32  2  0
 24 33  1  0
 29 34  1  0
 30 35  1  0
 26 36  1  0
 31 37  1  0
 29 38  1  0
 30 39  2  0
 31 40  2  0
 32 40  1  0
 33 41  1  0
 34 42  1  0
 38 43  2  0
 39 43  1  0
 44 41  1  1
 44 45  1  0
 44 46  1  0
 46 47  1  0
 45 48  2  0
 47 48  1  0
 47 49  1  0
 47 50  1  0
 48 51  1  0
 51 52  1  0
 52 53  2  0
M  END
