x2705-x0161
     RDKit          3D

 40 43  0  0  0  0  0  0  0  0999 V2000
    6.9750   -1.4510   21.8770 N   0  0  0  0  0  0  0  0  0  0  0  0
    6.1530   -2.7440   21.6250 C   0  0  0  0  0  0  0  0  0  0  0  0
    4.8640   -3.0520   21.2640 O   0  0  0  0  0  0  0  0  0  0  0  0
    6.5280   -0.0020   21.6660 C   0  0  1  0  0  0  0  0  0  0  0  0
    8.2880   -1.6430   22.6260 C   0  0  0  0  0  0  0  0  0  0  0  0
    6.9590   -4.0050   21.8120 C   0  0  0  0  0  0  0  0  0  0  0  0
    7.4660    1.0460   21.9930 C   0  0  0  0  0  0  0  0  0  0  0  0
    6.1120    0.3550   20.2550 C   0  0  0  0  0  0  0  0  0  0  0  0
    8.4340   -1.8550   23.9660 N   0  0  0  0  0  0  0  0  0  0  0  0
    9.6080   -1.6100   22.0920 C   0  0  0  0  0  0  0  0  0  0  0  0
    6.8410   -4.8240   20.5250 C   0  0  0  0  0  0  0  0  0  0  0  0
    7.0130    2.1030   22.8360 N   0  0  0  0  0  0  0  0  0  0  0  0
    8.6010    1.0090   21.5060 O   0  0  0  0  0  0  0  0  0  0  0  0
    4.8350    1.2040   20.0920 C   0  0  0  0  0  0  0  0  0  0  0  0
    6.8200   -0.0180   19.1310 C   0  0  0  0  0  0  0  0  0  0  0  0
    9.7750   -1.9390   24.1670 N   0  0  0  0  0  0  0  0  0  0  0  0
   10.5950   -1.8050   23.0830 C   0  0  0  0  0  0  0  0  0  0  0  0
   12.1530   -1.8970   23.1670 C   0  0  0  0  0  0  0  0  0  0  0  0
    6.3350    0.4280   17.8150 N   0  0  0  0  0  0  0  0  0  0  0  0
    4.4770    1.5560   18.8680 C   0  0  0  0  0  0  0  0  0  0  0  0
    7.5750    3.4460   22.9390 C   0  0  0  0  0  0  0  0  0  0  0  0
   13.0750   -0.6380   23.5790 C   0  0  0  0  0  0  0  0  0  0  0  0
   12.5280   -2.9090   24.2500 C   0  0  0  0  0  0  0  0  0  0  0  0
   12.7390   -2.3240   21.8020 C   0  0  0  0  0  0  0  0  0  0  0  0
    5.2150    1.1780   17.7780 C   0  0  0  0  0  0  0  0  0  0  0  0
    8.6170    3.8340   23.6850 C   0  0  0  0  0  0  0  0  0  0  0  0
    7.0200    4.4480   22.2370 C   0  0  0  0  0  0  0  0  0  0  0  0
    5.8140    4.2170   21.3610 C   0  0  0  0  0  0  0  0  0  0  0  0
    9.2330    5.2660   23.7940 C   0  0  0  0  0  0  0  0  0  0  0  0
    7.5910    5.8820   22.3070 C   0  0  0  0  0  0  0  0  0  0  0  0
   12.4030    0.6290   23.5480 C   0  0  0  0  0  0  0  0  0  0  0  0
   10.3200    5.4740   24.6120 O   0  0  0  0  0  0  0  0  0  0  0  0
    8.7580    6.5350   23.0670 C   0  0  0  0  0  0  0  0  0  0  0  0
   12.9680    1.7290   22.9450 C   0  0  0  0  0  0  0  0  0  0  0  0
   11.1990    0.6560   24.1410 C   0  0  0  0  0  0  0  0  0  0  0  0
    9.8900    6.7720   23.9140 O   0  0  0  0  0  0  0  0  0  0  0  0
   12.2890    2.9260   22.9170 C   0  0  0  0  0  0  0  0  0  0  0  0
   10.3880    1.8890   24.1730 C   0  0  0  0  0  0  0  0  0  0  0  0
    9.0840    1.6520   24.8970 C   0  0  0  0  0  0  0  0  0  0  0  0
   10.8790    3.0840   23.5630 C   0  0  0  0  0  0  0  0  0  0  0  0
  1  2  1  0
  2  3  2  0
  1  4  1  0
  1  5  1  0
  2  6  1  0
  4  7  1  6
  4  8  1  0
  5  9  2  0
  5 10  1  0
  6 11  1  0
  7 12  1  0
  7 13  2  0
  8 14  2  0
  8 15  1  0
  9 16  1  0
 10 17  2  0
 16 17  1  0
 17 18  1  0
 15 19  2  0
 14 20  1  0
 12 21  1  0
 18 22  1  0
 18 23  1  0
 18 24  1  0
 19 25  1  0
 20 25  2  0
 21 26  2  0
 21 27  1  0
 27 28  1  0
 26 29  1  0
 27 30  2  0
 22 31  1  0
 29 32  1  0
 29 33  2  0
 30 33  1  0
 31 34  2  0
 31 35  1  0
 33 36  1  0
 34 37  1  0
 35 38  2  0
 38 39  1  0
 37 40  2  0
 38 40  1  0
M  END
