x2705-x1374
     RDKit          3D

 49 53  0  0  0  0  0  0  0  0999 V2000
    6.4630   -1.2430   22.0010 N   0  0  0  0  0  0  0  0  0  0  0  0
    5.8100   -2.5830   21.6810 C   0  0  0  0  0  0  0  0  0  0  0  0
    4.5670   -2.8680   21.4680 O   0  0  0  0  0  0  0  0  0  0  0  0
    5.8930    0.1460   21.5850 C   0  0  1  0  0  0  0  0  0  0  0  0
    7.6930   -1.1270   22.9010 C   0  0  0  0  0  0  0  0  0  0  0  0
    6.7610   -3.8040   21.6020 C   0  0  2  0  0  0  0  0  0  0  0  0
    6.7560    1.2900   21.7620 C   0  0  0  0  0  0  0  0  0  0  0  0
    5.4060    0.3230   20.1350 C   0  0  0  0  0  0  0  0  0  0  0  0
    7.7820   -0.9530   24.2220 N   0  0  0  0  0  0  0  0  0  0  0  0
    8.9960   -1.2000   22.3240 C   0  0  0  0  0  0  0  0  0  0  0  0
    6.5910   -4.5810   20.2970 C   0  0  0  0  0  0  0  0  0  0  0  0
    6.3480    2.3590   22.5860 N   0  0  0  0  0  0  0  0  0  0  0  0
    7.8340    1.3670   21.1410 O   0  0  0  0  0  0  0  0  0  0  0  0
    4.1870    1.0460   19.9310 C   0  0  0  0  0  0  0  0  0  0  0  0
    6.1870   -0.1760   19.0450 C   0  0  0  0  0  0  0  0  0  0  0  0
    9.0950   -0.9020   24.5590 N   0  0  0  0  0  0  0  0  0  0  0  0
    9.9850   -1.0400   23.5040 C   0  0  0  0  0  0  0  0  0  0  0  0
    7.0920   -4.5300   22.9420 C   0  0  0  0  0  0  0  0  0  0  0  0
   11.5300   -1.0160   23.5850 C   0  0  0  0  0  0  0  0  0  0  0  0
    5.8550    0.0050   17.7230 N   0  0  0  0  0  0  0  0  0  0  0  0
    3.7530    1.2850   18.6390 C   0  0  0  0  0  0  0  0  0  0  0  0
    6.9100    3.6910   22.4630 C   0  0  0  0  0  0  0  0  0  0  0  0
    8.3920   -4.2730   23.5410 C   0  0  0  0  0  0  0  0  0  0  0  0
    5.9930   -5.4070   23.4610 C   0  0  0  0  0  0  0  0  0  0  0  0
   12.0140    0.4730   23.5680 C   0  0  0  0  0  0  0  0  0  0  0  0
   12.1240   -1.7380   24.8530 C   0  0  0  0  0  0  0  0  0  0  0  0
   12.1450   -1.7080   22.3240 C   0  0  0  0  0  0  0  0  0  0  0  0
    4.6090    0.7580   17.4630 C   0  0  0  0  0  0  0  0  0  0  0  0
    8.1780    3.9760   23.1270 C   0  0  0  0  0  0  0  0  0  0  0  0
    6.2780    4.7330   21.7080 C   0  0  0  0  0  0  0  0  0  0  0  0
    8.2960   -5.0680   24.7640 C   0  0  0  0  0  0  0  0  0  0  0  0
    5.7610   -6.2990   24.6770 C   0  0  0  0  0  0  0  0  0  0  0  0
    8.9940    2.9660   23.9850 C   0  0  0  0  0  0  0  0  0  0  0  0
    4.9510    4.5610   20.9610 C   0  0  0  0  0  0  0  0  0  0  0  0
    9.4400   -5.1600   25.8380 C   0  0  0  0  0  0  0  0  0  0  0  0
    8.7400    5.2880   23.0000 C   0  0  0  0  0  0  0  0  0  0  0  0
    6.8770    6.0240   21.6110 C   0  0  0  0  0  0  0  0  0  0  0  0
    7.0720   -5.9370   25.1890 C   0  0  0  0  0  0  0  0  0  0  0  0
    4.3320   -6.6940   24.1180 C   0  0  0  0  0  0  0  0  0  0  0  0
    8.3310    2.6330   25.1910 C   0  0  0  0  0  0  0  0  0  0  0  0
    8.1020    6.2980   22.2520 C   0  0  0  0  0  0  0  0  0  0  0  0
    3.2240   -5.7900   24.7560 C   0  0  0  0  0  0  0  0  0  0  0  0
    2.3780   -4.8830   23.7610 C   0  0  2  0  0  0  0  0  0  0  0  0
    2.1220   -3.6840   24.4550 C   0  0  0  0  0  0  0  0  0  0  0  0
    1.1700   -5.5370   23.3620 C   0  0  0  0  0  0  0  0  0  0  0  0
   -0.1170   -4.7930   24.4320 S   0  0  0  0  0  0  0  0  0  0  0  0
    0.8840   -3.4230   24.9070 C   0  0  0  0  0  0  0  0  0  0  0  0
   -1.2110   -4.3840   23.5700 O   0  0  0  0  0  0  0  0  0  0  0  0
   -0.3400   -5.6880   25.5410 O   0  0  0  0  0  0  0  0  0  0  0  0
  1  2  1  0
  2  3  2  0
  1  4  1  0
  1  5  1  0
  2  6  1  0
  4  7  1  6
  4  8  1  0
  5  9  2  0
  5 10  1  0
  6 11  1  6
  7 12  1  0
  7 13  2  0
  8 14  2  0
  8 15  1  0
  9 16  1  0
 10 17  2  0
 16 17  1  0
  6 18  1  0
 17 19  1  0
 15 20  2  0
 14 21  1  0
 12 22  1  0
 18 23  2  0
 18 24  1  0
 19 25  1  0
 19 26  1  0
 19 27  1  0
 20 28  1  0
 21 28  2  0
 22 29  2  0
 22 30  1  0
 23 31  1  0
 24 32  2  0
 29 33  1  0
 30 34  1  0
 31 35  1  0
 29 36  1  0
 30 37  2  0
 31 38  2  0
 32 38  1  0
 32 39  1  0
 33 40  1  0
 36 41  2  0
 37 41  1  0
 39 42  1  0
 43 42  1  1
 43 44  1  0
 43 45  1  0
 45 46  1  0
 44 47  2  0
 46 47  1  0
 46 48  1  0
 46 49  1  0
M  END
