x2705-x2694-x0689-x3115-x1119
     RDKit          3D

 76 83  0  0  0  0  0  0  0  0999 V2000
    6.6070   -1.3360   22.0440 C   0  0  1  0  0  0  0  0  0  0  0  0
    5.8440   -2.2720   20.9950 C   0  0  0  0  0  0  0  0  0  0  0  0
    4.6910   -2.8560   21.1730 O   0  0  0  0  0  0  0  0  0  0  0  0
    6.3800    0.1790   21.7380 C   0  0  1  0  0  0  0  0  0  0  0  0
    5.7910   -1.9800   23.1900 C   0  0  0  0  0  0  0  0  0  0  0  0
    8.1090   -1.4510   22.5530 C   0  0  0  0  0  0  0  0  0  0  0  0
    6.2600   -2.7580   19.7510 C   0  0  0  0  0  0  0  0  0  0  0  0
    7.5120    1.0880   21.9230 C   0  0  0  0  0  0  0  0  0  0  0  0
    5.2870   -3.3480   22.6620 C   0  0  0  0  0  0  0  0  0  0  0  0
    6.1270    0.4530   20.2700 C   0  0  0  0  0  0  0  0  0  0  0  0
    8.3630   -1.7920   23.8740 N   0  0  0  0  0  0  0  0  0  0  0  0
    9.4890   -1.2200   21.9150 C   0  0  0  0  0  0  0  0  0  0  0  0
    6.5900   -4.1370   20.1460 C   0  0  0  0  0  0  0  0  0  0  0  0
    7.3540    2.0980   22.8460 N   0  0  0  0  0  0  0  0  0  0  0  0
    8.5490    0.9870   21.2560 O   0  0  0  0  0  0  0  0  0  0  0  0
    4.8940    1.2980   20.1650 C   0  0  0  0  0  0  0  0  0  0  0  0
    6.9300    0.0050   19.1080 C   0  0  0  0  0  0  0  0  0  0  0  0
    9.8240   -1.7710   24.1090 N   0  0  0  0  0  0  0  0  0  0  0  0
   10.5880   -1.4270   22.9840 C   0  0  0  0  0  0  0  0  0  0  0  0
    6.2400   -4.3840   21.8040 C   0  0  0  0  0  0  0  0  0  0  0  0
   12.1250   -1.3100   22.9870 C   0  0  0  0  0  0  0  0  0  0  0  0
    6.4300    0.4580   17.9090 N   0  0  0  0  0  0  0  0  0  0  0  0
    4.5010    1.6810   18.8980 C   0  0  0  0  0  0  0  0  0  0  0  0
    8.1490    3.2420   23.0180 C   0  0  0  0  0  0  0  0  0  0  0  0
    5.4870   -5.7250   21.8620 C   0  0  0  0  0  0  0  0  0  0  0  0
    7.3250   -4.7610   22.8330 C   0  0  0  0  0  0  0  0  0  0  0  0
   12.7650   -2.0260   22.0730 C   0  0  0  0  0  0  0  0  0  0  0  0
   12.9810   -2.3740   23.6310 C   0  0  0  0  0  0  0  0  0  0  0  0
   12.7320    0.0830   22.9950 C   0  0  0  0  0  0  0  0  0  0  0  0
    5.2250    1.2980   17.7770 C   0  0  0  0  0  0  0  0  0  0  0  0
    9.4290    3.1840   23.5810 C   0  0  0  0  0  0  0  0  0  0  0  0
    7.6380    4.6240   22.5950 C   0  0  0  0  0  0  0  0  0  0  0  0
    4.6580   -5.9730   23.1260 C   0  0  0  0  0  0  0  0  0  0  0  0
    6.8130   -4.9630   24.2280 C   0  0  0  0  0  0  0  0  0  0  0  0
   10.1090    1.8490   24.0450 C   0  0  0  0  0  0  0  0  0  0  0  0
    6.2960    4.8930   21.9570 C   0  0  0  0  0  0  0  0  0  0  0  0
   12.4400   -2.6950   24.9880 C   0  0  0  0  0  0  0  0  0  0  0  0
   10.1600    4.3520   23.7500 C   0  0  0  0  0  0  0  0  0  0  0  0
    8.4790    5.7310   22.8200 C   0  0  0  0  0  0  0  0  0  0  0  0
    5.4510   -5.5580   24.3440 N   0  0  0  0  0  0  0  0  0  0  0  0
    9.2050    1.1230   25.0440 C   0  0  0  0  0  0  0  0  0  0  0  0
    4.6230   -5.3630   25.8160 S   0  0  0  0  0  0  0  0  0  0  0  0
    9.7470    5.6330   23.4030 C   0  0  0  0  0  0  0  0  0  0  0  0
   10.5710    6.7170   23.6360 O   0  0  0  0  0  0  0  0  0  0  0  0
    3.8200   -6.5360   26.0490 O   0  0  0  0  0  0  0  0  0  0  0  0
    5.5910   -4.9320   26.7970 O   0  0  0  0  0  0  0  0  0  0  0  0
    3.4230   -4.0360   25.7000 C   0  0  0  0  0  0  0  0  0  0  0  0
   11.9720    6.3560   23.7200 C   0  0  0  0  0  0  0  0  0  0  0  0
    3.9440   -2.4260   26.0270 S   0  0  0  0  0  0  0  0  0  0  0  0
    2.0670   -4.0310   25.3920 C   0  0  0  0  0  0  0  0  0  0  0  0
   12.2810    5.6440   22.4200 C   0  0  0  0  0  0  0  0  0  0  0  0
    1.4850   -2.7820   25.4280 C   0  0  0  0  0  0  0  0  0  0  0  0
    2.3760   -1.7800   25.7600 C   0  0  0  0  0  0  0  0  0  0  0  0
   13.6600    5.6040   22.1670 C   0  0  0  0  0  0  0  0  0  0  0  0
   14.3410    4.5980   22.8470 C   0  0  0  0  0  0  0  0  0  0  0  0
   15.8350    4.5740   22.3880 C   0  0  0  0  0  0  0  0  0  0  0  0
   16.7380    4.9940   23.6290 C   0  0  0  0  0  0  0  0  0  0  0  0
   17.7630    4.2530   22.8210 C   0  0  0  0  0  0  0  0  0  0  0  0
   18.4680    5.3460   23.4740 C   0  0  0  0  0  0  0  0  0  0  0  0
   19.5050    6.0880   22.9770 N   0  0  0  0  0  0  0  0  0  0  0  0
   20.8730    5.5650   23.3040 C   0  0  0  0  0  0  0  0  0  0  0  0
   22.1610    5.9170   22.9110 C   0  0  0  0  0  0  0  0  0  0  0  0
   20.6990    4.5240   24.1630 C   0  0  0  0  0  0  0  0  0  0  0  0
   23.3830    5.1440   23.4280 C   0  0  0  0  0  0  0  0  0  0  0  0
   21.8310    3.7240   24.7020 C   0  0  0  0  0  0  0  0  0  0  0  0
   23.1100    3.9660   24.3940 C   0  0  0  0  0  0  0  0  0  0  0  0
   24.1040    2.7730   25.2340 S   0  0  0  0  0  0  0  0  0  0  0  0
   23.2640    1.5940   25.3480 O   0  0  0  0  0  0  0  0  0  0  0  0
   24.2040    3.2840   26.8390 N   0  0  0  0  0  0  0  0  0  0  0  0
   25.4150    2.7500   24.6590 O   0  0  0  0  0  0  0  0  0  0  0  0
   25.0150    4.3610   27.1830 C   0  0  0  0  0  0  0  0  0  0  0  0
   25.1330    4.7430   28.6010 N   0  0  0  0  0  0  0  0  0  0  0  0
   25.7460    5.1340   26.2890 C   0  0  0  0  0  0  0  0  0  0  0  0
   25.9850    5.8770   28.9840 C   0  0  0  0  0  0  0  0  0  0  0  0
   26.5570    6.2080   26.6220 C   0  0  0  0  0  0  0  0  0  0  0  0
   26.6620    6.5600   27.9640 C   0  0  0  0  0  0  0  0  0  0  0  0
  1  2  1  0
  2  3  2  0
  1  4  1  0
  1  5  1  0
  1  6  1  1
  2  7  1  0
  4  8  1  6
  5  9  1  0
  4 10  1  0
  6 11  2  0
  6 12  1  0
  7 13  1  0
  8 14  1  0
  8 15  2  0
 10 16  2  0
 10 17  1  0
 11 18  1  0
 12 19  2  0
 18 19  1  0
 20  9  1  0
 13 20  1  0
 19 21  1  0
 17 22  2  0
 16 23  1  0
 14 24  1  0
 20 25  1  0
 20 26  1  0
 21 27  1  0
 21 28  1  0
 21 29  1  0
 22 30  1  0
 23 30  2  0
 24 31  2  0
 24 32  1  0
 25 33  1  0
 26 34  1  0
 31 35  1  0
 32 36  1  0
 28 37  1  0
 31 38  1  0
 32 39  2  0
 33 40  1  0
 34 40  1  0
 35 41  1  0
 40 42  1  0
 38 43  2  0
 39 43  1  0
 43 44  1  0
 42 45  2  0
 42 46  2  0
 42 47  1  0
 44 48  1  0
 47 49  1  0
 47 50  2  0
 48 51  1  0
 50 52  1  0
 49 53  1  0
 52 53  2  0
 51 54  1  0
 54 55  1  0
 55 56  1  0
 56 57  1  0
 57 58  1  0
 58 59  1  0
 59 60  1  0
 60 61  1  0
 61 62  2  0
 61 63  1  0
 62 64  1  0
 63 65  2  0
 64 66  2  0
 65 66  1  0
 66 67  1  0
 67 68  2  0
 67 69  1  0
 67 70  2  0
 69 71  1  0
 71 72  2  0
 71 73  1  0
 72 74  1  0
 73 75  2  0
 74 76  2  0
 75 76  1  0
M  END
