x2703-x0978-x2694
     RDKit          3D

 48 50  0  0  0  0  0  0  0  0999 V2000
    6.9320   -1.3630   21.8410 N   0  0  0  0  0  0  0  0  0  0  0  0
    6.0700   -2.6040   21.6520 C   0  0  0  0  0  0  0  0  0  0  0  0
    4.7680   -2.9320   21.2950 O   0  0  0  0  0  0  0  0  0  0  0  0
    6.4570    0.1030   21.6370 C   0  0  1  0  0  0  0  0  0  0  0  0
    8.2460   -1.4570   22.5570 C   0  0  0  0  0  0  0  0  0  0  0  0
    6.8900   -3.7830   21.9080 C   0  0  0  0  0  0  0  0  0  0  0  0
    7.7350    1.0430   21.9580 C   0  0  0  0  0  0  0  0  0  0  0  0
    6.0150    0.4540   20.3190 C   0  0  0  0  0  0  0  0  0  0  0  0
    8.5080   -1.7000   23.9950 N   0  0  0  0  0  0  0  0  0  0  0  0
    9.5600   -1.3300   22.0810 C   0  0  0  0  0  0  0  0  0  0  0  0
    6.4600   -4.6700   20.7670 C   0  0  0  0  0  0  0  0  0  0  0  0
    7.5080    2.3160   22.4950 N   0  0  0  0  0  0  0  0  0  0  0  0
    8.8970    0.7940   21.6870 O   0  0  0  0  0  0  0  0  0  0  0  0
    4.8490    1.1420   20.1680 C   0  0  0  0  0  0  0  0  0  0  0  0
    6.7110    0.1690   19.1530 C   0  0  0  0  0  0  0  0  0  0  0  0
    9.9970   -1.6680   24.1740 O   0  0  0  0  0  0  0  0  0  0  0  0
   10.6290   -1.4320   22.9720 C   0  0  0  0  0  0  0  0  0  0  0  0
   12.1790   -1.3430   22.9660 C   0  0  0  0  0  0  0  0  0  0  0  0
    5.7460   -5.8510   21.3860 N   0  0  0  0  0  0  0  0  0  0  0  0
    6.3390    0.5270   17.9050 N   0  0  0  0  0  0  0  0  0  0  0  0
    4.4010    1.5460   18.9300 C   0  0  0  0  0  0  0  0  0  0  0  0
    8.4810    3.3660   22.9350 C   0  0  0  0  0  0  0  0  0  0  0  0
    6.7550    3.0290   21.4520 C   0  0  0  0  0  0  0  0  0  0  0  0
   12.6870   -0.1060   23.3960 C   0  0  0  0  0  0  0  0  0  0  0  0
   12.8280   -1.7060   21.5790 C   0  0  0  0  0  0  0  0  0  0  0  0
   12.9220   -2.4920   23.7130 C   0  0  0  0  0  0  0  0  0  0  0  0
    4.7750   -5.5770   22.5780 C   0  0  0  0  0  0  0  0  0  0  0  0
    5.1680    1.2430   17.7370 C   0  0  0  0  0  0  0  0  0  0  0  0
    9.7970    3.0010   23.6230 C   0  0  0  0  0  0  0  0  0  0  0  0
    8.1150    4.8390   22.6690 C   0  0  0  0  0  0  0  0  0  0  0  0
    5.5330    3.7980   21.9500 C   0  0  0  0  0  0  0  0  0  0  0  0
   10.2600    1.6970   23.9530 C   0  0  0  0  0  0  0  0  0  0  0  0
   12.5440   -2.6310   25.1580 C   0  0  0  0  0  0  0  0  0  0  0  0
    3.5080   -6.4560   22.9950 C   0  0  2  0  0  0  0  0  0  0  0  0
    4.9280   -4.5760   23.2720 O   0  0  0  0  0  0  0  0  0  0  0  0
   10.6360    4.2460   23.9610 C   0  0  0  0  0  0  0  0  0  0  0  0
    8.9880    5.8570   23.0520 C   0  0  0  0  0  0  0  0  0  0  0  0
    9.3200    1.0470   24.9810 C   0  0  0  0  0  0  0  0  0  0  0  0
    2.2720   -5.5890   22.9540 N   0  0  0  0  0  0  0  0  0  0  0  0
    3.5460   -7.2100   24.1670 C   0  0  1  0  0  0  0  0  0  0  0  0
   10.2070    5.6640   23.6720 C   0  0  0  0  0  0  0  0  0  0  0  0
   10.9620    6.8150   23.9940 O   0  0  0  0  0  0  0  0  0  0  0  0
    2.4070   -7.9750   24.4170 C   0  0  0  0  0  0  0  0  0  0  0  0
    4.5730   -7.7790   24.4690 O   0  0  0  0  0  0  0  0  0  0  0  0
    0.9980   -6.2270   22.5260 C   0  0  0  0  0  0  0  0  0  0  0  0
   11.8870    6.6870   25.0690 C   0  0  0  0  0  0  0  0  0  0  0  0
    0.8890   -7.3520   22.0010 O   0  0  0  0  0  0  0  0  0  0  0  0
   -0.1900   -5.5210   22.6980 C   0  0  0  0  0  0  0  0  0  0  0  0
  1  2  1  0
  2  3  2  0
  1  4  1  0
  1  5  1  0
  2  6  1  0
  4  7  1  6
  4  8  1  0
  5  9  2  0
  5 10  1  0
  6 11  1  0
  7 12  1  0
  7 13  2  0
  8 14  2  0
  8 15  1  0
  9 16  1  0
 10 17  2  0
 16 17  1  0
 17 18  1  0
 11 19  1  0
 15 20  2  0
 14 21  1  0
 12 22  1  0
 12 23  1  0
 18 24  1  0
 18 25  1  0
 18 26  1  0
 19 27  1  0
 20 28  1  0
 21 28  2  0
 22 29  2  0
 22 30  1  0
 23 31  1  0
 29 32  1  0
 26 33  1  0
 27 34  1  0
 27 35  2  0
 29 36  1  0
 30 37  2  0
 32 38  1  0
 34 39  1  1
 34 40  1  0
 36 41  2  0
 37 41  1  0
 41 42  1  0
 40 43  1  6
 40 44  1  0
 39 45  1  0
 42 46  1  0
 45 47  2  0
 45 48  1  0
M  END
