x2705-x0786-x2694-x3117-x0426
     RDKit          3D

 64 69  0  0  0  0  0  0  0  0999 V2000
    6.9490   -1.4870   22.0980 C   0  0  2  0  0  0  0  0  0  0  0  0
    6.2130   -2.7800   21.3670 C   0  0  0  0  0  0  0  0  0  0  0  0
    4.9120   -3.1040   21.1990 O   0  0  0  0  0  0  0  0  0  0  0  0
    6.5870   -0.0170   21.7080 C   0  0  1  0  0  0  0  0  0  0  0  0
    8.4830   -1.5030   22.5990 C   0  0  0  0  0  0  0  0  0  0  0  0
    6.3600   -1.9190   23.4420 C   0  0  0  0  0  0  0  0  0  0  0  0
    7.0660   -3.7810   20.8660 C   0  0  0  0  0  0  0  0  0  0  0  0
    7.6250    1.1560   21.9390 C   0  0  0  0  0  0  0  0  0  0  0  0
    6.0630    0.3550   20.3190 C   0  0  0  0  0  0  0  0  0  0  0  0
    8.7340   -1.5930   23.9330 N   0  0  0  0  0  0  0  0  0  0  0  0
    9.7250   -1.4220   21.9730 C   0  0  0  0  0  0  0  0  0  0  0  0
    6.8990   -3.3310   23.8260 C   0  0  0  0  0  0  0  0  0  0  0  0
    7.2660   -3.3570   19.4390 C   0  0  0  0  0  0  0  0  0  0  0  0
    7.4910    2.1220   22.8780 N   0  0  0  0  0  0  0  0  0  0  0  0
    8.6560    1.1520   21.0390 O   0  0  0  0  0  0  0  0  0  0  0  0
    4.8420    0.9390   20.1390 C   0  0  0  0  0  0  0  0  0  0  0  0
    6.8620    0.1100   19.2110 C   0  0  0  0  0  0  0  0  0  0  0  0
   10.0620   -1.5660   24.0780 N   0  0  0  0  0  0  0  0  0  0  0  0
   10.7190   -1.4630   22.9050 C   0  0  0  0  0  0  0  0  0  0  0  0
    5.7520   -4.0540   24.3500 C   0  0  0  0  0  0  0  0  0  0  0  0
   12.2010   -1.4100   22.8440 C   0  0  0  0  0  0  0  0  0  0  0  0
    3.9430    1.2140   21.1540 C   0  0  0  0  0  0  0  0  0  0  0  0
    6.4260    0.4910   17.8880 N   0  0  0  0  0  0  0  0  0  0  0  0
    4.4020    1.3140   18.8850 C   0  0  0  0  0  0  0  0  0  0  0  0
    8.2830    3.3060   23.0350 C   0  0  0  0  0  0  0  0  0  0  0  0
    5.2470   -5.2710   23.8700 C   0  0  0  0  0  0  0  0  0  0  0  0
    5.2210   -3.3520   25.4020 C   0  0  0  0  0  0  0  0  0  0  0  0
   12.7360   -0.2880   23.4760 C   0  0  0  0  0  0  0  0  0  0  0  0
   13.0030   -1.8250   24.0670 C   0  0  0  0  0  0  0  0  0  0  0  0
   12.7620   -1.9500   21.6650 C   0  0  0  0  0  0  0  0  0  0  0  0
    4.2160    2.1090   22.1840 C   0  0  0  0  0  0  0  0  0  0  0  0
    5.1820    1.1060   17.7630 C   0  0  0  0  0  0  0  0  0  0  0  0
    9.5830    3.2350   23.5860 C   0  0  0  0  0  0  0  0  0  0  0  0
    7.7280    4.5410   22.6300 C   0  0  0  0  0  0  0  0  0  0  0  0
    3.9940   -5.8120   24.6260 C   0  0  0  0  0  0  0  0  0  0  0  0
    4.0290   -3.8180   26.1570 C   0  0  0  0  0  0  0  0  0  0  0  0
   10.1930    1.9150   24.0070 C   0  0  0  0  0  0  0  0  0  0  0  0
    6.3570    4.7030   22.0190 C   0  0  0  0  0  0  0  0  0  0  0  0
   12.3490   -2.8230   24.7920 C   0  0  0  0  0  0  0  0  0  0  0  0
    3.0030    2.6020   22.8890 N   0  0  0  0  0  0  0  0  0  0  0  0
   10.3360    4.4120   23.7530 C   0  0  0  0  0  0  0  0  0  0  0  0
    8.5320    5.6850   22.8270 C   0  0  0  0  0  0  0  0  0  0  0  0
    3.3160   -7.0570   24.2850 C   0  0  0  0  0  0  0  0  0  0  0  0
    3.4180   -4.9980   25.8080 C   0  0  0  0  0  0  0  0  0  0  0  0
    9.2520    1.2050   24.9840 C   0  0  0  0  0  0  0  0  0  0  0  0
    2.3720    2.1000   24.0750 C   0  0  0  0  0  0  0  0  0  0  0  0
    9.8240    5.6450   23.3870 C   0  0  0  0  0  0  0  0  0  0  0  0
    3.8860   -8.0890   24.6020 O   0  0  0  0  0  0  0  0  0  0  0  0
    2.0710   -6.9660   23.6700 N   0  0  0  0  0  0  0  0  0  0  0  0
   10.6500    6.7340   23.6110 O   0  0  0  0  0  0  0  0  0  0  0  0
    2.8020    1.0910   24.6200 O   0  0  0  0  0  0  0  0  0  0  0  0
    1.2320    2.7790   24.6890 C   0  0  0  0  0  0  0  0  0  0  0  0
    1.4770   -5.6890   23.2580 C   0  0  0  0  0  0  0  0  0  0  0  0
    1.1090   -8.0540   23.8760 C   0  0  0  0  0  0  0  0  0  0  0  0
   11.6740    6.5700   24.6200 C   0  0  0  0  0  0  0  0  0  0  0  0
    1.4890    3.9920   25.3200 C   0  0  0  0  0  0  0  0  0  0  0  0
   -0.0100    2.2090   24.6250 C   0  0  0  0  0  0  0  0  0  0  0  0
    0.4830   -5.1380   24.2970 C   0  0  0  0  0  0  0  0  0  0  0  0
   -0.0310   -7.7020   24.8770 C   0  0  0  0  0  0  0  0  0  0  0  0
    2.7240    4.5120   25.3590 F   0  0  0  0  0  0  0  0  0  0  0  0
   -1.1480    2.7810   25.1840 C   0  0  0  0  0  0  0  0  0  0  0  0
    0.4420    4.6530   25.9120 C   0  0  0  0  0  0  0  0  0  0  0  0
   -0.9720   -6.2130   24.3950 S   0  0  0  0  0  0  0  0  0  0  0  0
   -0.9180    3.9820   25.8150 C   0  0  0  0  0  0  0  0  0  0  0  0
  1  2  1  0
  2  3  2  0
  1  4  1  0
  1  5  1  0
  1  6  1  1
  2  7  1  0
  4  8  1  6
  4  9  1  0
  5 10  2  0
  5 11  1  0
  6 12  1  0
  7 13  1  0
  8 14  1  0
  8 15  2  0
  9 16  1  0
  9 17  2  0
 10 18  1  0
 11 19  2  0
 18 19  1  0
 12 20  1  0
 19 21  1  0
 16 22  1  0
 17 23  1  0
 16 24  2  0
 14 25  1  0
 20 26  2  0
 20 27  1  0
 21 28  1  0
 21 29  1  0
 21 30  1  0
 22 31  1  0
 23 32  2  0
 24 32  1  0
 25 33  2  0
 25 34  1  0
 26 35  1  0
 27 36  2  0
 33 37  1  0
 34 38  1  0
 29 39  1  0
 31 40  1  0
 33 41  1  0
 34 42  2  0
 35 43  1  0
 35 44  2  0
 36 44  1  0
 37 45  1  0
 40 46  1  0
 41 47  2  0
 42 47  1  0
 43 48  2  0
 43 49  1  0
 47 50  1  0
 46 51  2  0
 46 52  1  0
 49 53  1  0
 49 54  1  0
 50 55  1  0
 52 56  2  0
 52 57  1  0
 53 58  1  0
 54 59  1  0
 56 60  1  0
 57 61  2  0
 56 62  1  0
 58 63  1  0
 59 63  1  0
 61 64  1  0
 62 64  2  0
M  END
