x2705-x3110
     RDKit          3D

 40 43  0  0  0  0  0  0  0  0999 V2000
    7.8460    1.8030   22.8870 N   0  0  0  0  0  0  0  0  0  0  0  0
    7.9110    0.8030   21.8430 C   0  0  0  0  0  0  0  0  0  0  0  0
    8.8770    0.7970   21.1170 O   0  0  0  0  0  0  0  0  0  0  0  0
    8.0200    3.2700   22.8530 C   0  0  0  0  0  0  0  0  0  0  0  0
    6.8160   -0.1450   21.6210 C   0  0  2  0  0  0  0  0  0  0  0  0
    9.2700    3.9570   23.0400 C   0  0  0  0  0  0  0  0  0  0  0  0
    6.8700    4.2280   22.6050 C   0  0  0  0  0  0  0  0  0  0  0  0
    7.1200   -1.6830   21.7860 N   0  0  0  0  0  0  0  0  0  0  0  0
   10.6590    3.5650   23.2480 N   0  0  0  0  0  0  0  0  0  0  0  0
    5.4560    3.8320   22.3470 C   0  0  0  0  0  0  0  0  0  0  0  0
    6.2190    0.2890   20.3090 C   0  0  0  0  0  0  0  0  0  0  0  0
    9.5750    5.5030   23.0520 C   0  0  0  0  0  0  0  0  0  0  0  0
    7.1170    5.6130   22.6070 C   0  0  0  0  0  0  0  0  0  0  0  0
   11.1580    2.4660   23.4600 C   0  0  0  0  0  0  0  0  0  0  0  0
    6.2120   -2.8880   21.4680 C   0  0  0  0  0  0  0  0  0  0  0  0
    5.0800    1.0900   20.3040 C   0  0  0  0  0  0  0  0  0  0  0  0
    6.8640   -0.1150   18.9480 C   0  0  0  0  0  0  0  0  0  0  0  0
    8.3880   -1.8030   22.5210 C   0  0  0  0  0  0  0  0  0  0  0  0
    8.4070    6.4000   22.8220 C   0  0  0  0  0  0  0  0  0  0  0  0
   12.3610    2.4940   23.4640 O   0  0  0  0  0  0  0  0  0  0  0  0
   10.5310    1.1010   23.6580 C   0  0  0  0  0  0  0  0  0  0  0  0
    4.9020   -3.0550   21.1350 O   0  0  0  0  0  0  0  0  0  0  0  0
    6.8800   -4.2580   21.5650 C   0  0  0  0  0  0  0  0  0  0  0  0
    6.2800    0.3570   17.8220 N   0  0  0  0  0  0  0  0  0  0  0  0
    4.5360    1.5390   18.9790 C   0  0  0  0  0  0  0  0  0  0  0  0
    9.6000   -1.5900   21.8320 C   0  0  0  0  0  0  0  0  0  0  0  0
    8.5040   -2.0990   23.8850 C   0  0  0  0  0  0  0  0  0  0  0  0
   12.9620    3.4750   22.5640 C   0  0  0  0  0  0  0  0  0  0  0  0
    8.2980   -4.4090   20.9550 C   0  0  0  0  0  0  0  0  0  0  0  0
    9.5070    1.0770   24.8220 C   0  0  0  0  0  0  0  0  0  0  0  0
    5.1940    1.1330   17.8350 C   0  0  0  0  0  0  0  0  0  0  0  0
   10.8500   -1.6730   22.5100 C   0  0  0  0  0  0  0  0  0  0  0  0
    9.7620   -2.1660   24.5200 C   0  0  0  0  0  0  0  0  0  0  0  0
   13.1630    4.8350   23.1960 C   0  0  0  0  0  0  0  0  0  0  0  0
   12.2780   -1.4890   22.0180 C   0  0  0  0  0  0  0  0  0  0  0  0
   10.9600   -1.9490   23.8500 C   0  0  0  0  0  0  0  0  0  0  0  0
   12.3450   -1.9670   24.4280 C   0  0  0  0  0  0  0  0  0  0  0  0
   13.1850   -1.9880   23.1640 C   0  0  0  0  0  0  0  0  0  0  0  0
   12.6110   -0.7820   25.1140 C   0  0  0  0  0  0  0  0  0  0  0  0
   12.7710   -3.1600   25.2930 C   0  0  0  0  0  0  0  0  0  0  0  0
  1  2  1  0
  2  3  2  0
  1  4  1  0
  5  2  1  6
  4  6  2  0
  4  7  1  0
  5  8  1  0
  6  9  1  0
  7 10  1  0
  5 11  1  0
  6 12  1  0
  7 13  2  0
  9 14  2  3
  8 15  1  0
 11 16  2  0
 11 17  1  0
  8 18  1  0
 12 19  2  0
 13 19  1  0
 14 20  1  0
 14 21  1  0
 15 22  2  0
 15 23  1  0
 17 24  2  0
 16 25  1  0
 18 26  2  0
 18 27  1  0
 20 28  1  0
 23 29  1  0
 21 30  1  0
 24 31  1  0
 25 31  2  0
 26 32  1  0
 27 33  2  0
 28 34  1  0
 32 35  1  0
 32 36  2  0
 33 36  1  0
 36 37  1  0
 35 38  1  0
 37 38  1  0
 37 39  1  0
 37 40  1  0
M  END
