x2703-x0771-x3124-x1308
     RDKit          3D

 56 61  0  0  0  0  0  0  0  0999 V2000
    6.6470   -1.4880   21.9340 C   0  0  1  0  0  0  0  0  0  0  0  0
    5.7650   -2.4590   21.0460 C   0  0  0  0  0  0  0  0  0  0  0  0
    4.6550   -2.9390   21.4200 O   0  0  0  0  0  0  0  0  0  0  0  0
    6.3810    0.0570   21.7110 C   0  0  1  0  0  0  0  0  0  0  0  0
    6.1870   -2.2200   23.1070 C   0  0  0  0  0  0  0  0  0  0  0  0
    8.1790   -1.6080   22.3380 C   0  0  0  0  0  0  0  0  0  0  0  0
    6.1620   -3.0320   19.8260 C   0  0  0  0  0  0  0  0  0  0  0  0
    7.4940    1.1030   21.9420 C   0  0  0  0  0  0  0  0  0  0  0  0
    5.9540    0.4360   20.2940 C   0  0  0  0  0  0  0  0  0  0  0  0
    8.5220   -1.2710   23.7810 C   0  0  0  0  0  0  0  0  0  0  0  0
    9.2180   -1.9710   21.5490 C   0  0  0  0  0  0  0  0  0  0  0  0
    6.6790   -3.7320   23.0720 C   0  0  2  0  0  0  0  0  0  0  0  0
    7.2560   -3.8380   20.3520 C   0  0  0  0  0  0  0  0  0  0  0  0
    7.4100    2.0050   23.0800 N   0  0  0  0  0  0  0  0  0  0  0  0
    8.5390    1.1660   20.9640 O   0  0  0  0  0  0  0  0  0  0  0  0
    4.7830    1.1450   20.1530 C   0  0  0  0  0  0  0  0  0  0  0  0
    6.7030    0.1140   19.1650 C   0  0  0  0  0  0  0  0  0  0  0  0
   10.6510   -2.0750   21.9760 N   0  0  0  0  0  0  0  0  0  0  0  0
    9.9570   -1.3750   24.1840 C   0  0  0  0  0  0  0  0  0  0  0  0
    6.7620   -4.4890   21.6930 N   0  0  0  0  0  0  0  0  0  0  0  0
    5.6650   -4.2350   23.8780 C   0  0  0  0  0  0  0  0  0  0  0  0
    6.3530    0.4700   17.9030 N   0  0  0  0  0  0  0  0  0  0  0  0
    4.3600    1.5440   18.9190 C   0  0  0  0  0  0  0  0  0  0  0  0
   10.9500   -1.7630   23.3210 C   0  0  0  0  0  0  0  0  0  0  0  0
    8.0860    3.2470   23.0360 C   0  0  0  0  0  0  0  0  0  0  0  0
    6.2650   -5.8750   21.7420 C   0  0  0  0  0  0  0  0  0  0  0  0
    5.8260   -5.5150   24.2960 C   0  0  2  0  0  0  0  0  0  0  0  0
   12.3850   -1.8720   23.7510 C   0  0  0  0  0  0  0  0  0  0  0  0
    4.5060   -6.0170   25.4080 S   0  0  0  0  0  0  0  0  0  0  0  0
    6.9660   -5.5720   25.6730 S   0  0  0  0  0  0  0  0  0  0  0  0
    5.1220    1.2270   17.8070 C   0  0  0  0  0  0  0  0  0  0  0  0
    9.3760    3.2400   23.5370 C   0  0  0  0  0  0  0  0  0  0  0  0
    7.5310    4.4300   22.5310 C   0  0  0  0  0  0  0  0  0  0  0  0
    6.1310   -6.3990   23.0630 C   0  0  0  0  0  0  0  0  0  0  0  0
   10.0280    1.9820   24.0750 C   0  0  0  0  0  0  0  0  0  0  0  0
    6.1300    4.4150   21.9730 C   0  0  0  0  0  0  0  0  0  0  0  0
   12.6540   -2.6950   24.8420 C   0  0  0  0  0  0  0  0  0  0  0  0
   12.8260   -0.9670   24.9020 C   0  0  0  0  0  0  0  0  0  0  0  0
   13.4030   -2.2140   22.7350 C   0  0  0  0  0  0  0  0  0  0  0  0
    3.7940   -7.1440   24.8840 O   0  0  0  0  0  0  0  0  0  0  0  0
    5.2300   -6.0820   26.8730 O   0  0  0  0  0  0  0  0  0  0  0  0
    6.7410   -4.4230   26.4950 O   0  0  0  0  0  0  0  0  0  0  0  0
    8.2320   -5.9380   25.1990 O   0  0  0  0  0  0  0  0  0  0  0  0
   10.1070    4.4420   23.5450 C   0  0  0  0  0  0  0  0  0  0  0  0
    8.2770    5.6180   22.5470 C   0  0  0  0  0  0  0  0  0  0  0  0
    3.4770   -4.6110   25.6650 C   0  0  0  0  0  0  0  0  0  0  0  0
    9.0480    1.3920   25.0950 C   0  0  0  0  0  0  0  0  0  0  0  0
    9.5790    5.6350   23.0600 C   0  0  0  0  0  0  0  0  0  0  0  0
    2.0120   -4.6170   25.2720 C   0  0  0  0  0  0  0  0  0  0  0  0
    4.0080   -3.2910   26.3030 C   0  0  0  0  0  0  0  0  0  0  0  0
    1.2820   -5.8050   24.6310 C   0  0  0  0  0  0  0  0  0  0  0  0
    1.2670   -3.4200   25.5230 C   0  0  0  0  0  0  0  0  0  0  0  0
    3.0890   -2.1230   26.4940 C   0  0  0  0  0  0  0  0  0  0  0  0
    1.7690   -2.2290   26.1030 C   0  0  0  0  0  0  0  0  0  0  0  0
    0.9180   -1.0250   26.3270 C   0  0  0  0  0  0  0  0  0  0  0  0
   -0.7340   -1.4260   26.2650 Cl  0  0  0  0  0  0  0  0  0  0  0  0
  1  2  1  0
  2  3  2  0
  1  4  1  0
  1  5  1  0
  1  6  1  6
  2  7  1  0
  4  8  1  6
  4  9  1  0
  6 10  2  0
  6 11  1  0
 12  5  1  6
  7 13  1  0
  8 14  1  0
  8 15  2  0
  9 16  2  0
  9 17  1  0
 11 18  2  0
 10 19  1  0
 12 20  1  0
 13 20  1  0
 12 21  1  0
 17 22  2  0
 16 23  1  0
 18 24  1  0
 19 24  2  0
 14 25  1  0
 20 26  1  0
 27 21  1  0
 24 28  1  0
 27 29  1  0
 27 30  1  1
 22 31  1  0
 23 31  2  0
 25 32  2  0
 25 33  1  0
 26 34  1  0
 27 34  1  0
 32 35  1  0
 33 36  1  0
 28 37  1  0
 28 38  1  0
 28 39  1  0
 29 40  2  0
 29 41  2  0
 30 42  2  0
 30 43  2  0
 32 44  1  0
 33 45  2  0
 29 46  1  0
 35 47  1  0
 44 48  2  0
 45 48  1  0
 46 49  2  0
 46 50  1  0
 49 51  1  0
 49 52  1  0
 50 53  2  0
 52 54  2  0
 53 54  1  0
 54 55  1  0
 55 56  1  0
M  END
