x2705-x2193-x0689-x3115-x1311
     RDKit          3D

 56 61  0  0  0  0  0  0  0  0999 V2000
    3.9570   -6.2660   26.8070 O   0  0  0  0  0  0  0  0  0  0  0  0
    4.4610   -5.1150   26.0850 S   0  0  1  0  0  0  0  0  0  0  0  0
    5.6560   -4.4050   26.7220 N   0  0  0  0  0  0  0  0  0  0  0  0
    4.2550   -5.4230   24.3950 C   0  0  1  0  0  0  0  0  0  0  0  0
    3.3000   -3.7810   26.0530 C   0  0  0  0  0  0  0  0  0  0  0  0
    5.3630   -5.6520   23.5400 C   0  0  0  0  0  0  0  0  0  0  0  0
    3.0580   -6.7420   24.2470 S   0  0  1  0  0  0  0  0  0  0  0  0
    3.9340   -2.1610   26.2440 S   0  0  0  0  0  0  0  0  0  0  0  0
    1.9150   -3.7910   25.8700 C   0  0  0  0  0  0  0  0  0  0  0  0
    6.7410   -5.2800   27.1940 C   0  0  0  0  0  0  0  0  0  0  0  0
    1.6760   -5.9640   24.1290 O   0  0  0  0  0  0  0  0  0  0  0  0
    4.8050   -6.3610   22.3390 C   0  0  0  0  0  0  0  0  0  0  0  0
    3.5050   -6.9830   22.6300 C   0  0  0  0  0  0  0  0  0  0  0  0
    1.4200   -2.3760   25.8970 C   0  0  0  0  0  0  0  0  0  0  0  0
    2.3950   -1.4340   26.0880 C   0  0  0  0  0  0  0  0  0  0  0  0
    7.8580   -4.9790   26.2680 C   0  0  2  0  0  0  0  0  0  0  0  0
    8.6890   -6.0980   25.9780 N   0  0  0  0  0  0  0  0  0  0  0  0
    8.6490   -3.9180   26.5230 C   0  0  0  0  0  0  0  0  0  0  0  0
    9.2170   -3.3370   25.4640 N   0  0  0  0  0  0  0  0  0  0  0  0
    9.4770   -5.7600   24.8120 C   0  0  0  0  0  0  0  0  0  0  0  0
    9.2930   -4.2770   24.3830 C   0  0  0  0  0  0  0  0  0  0  0  0
    8.5860   -2.0200   25.2350 C   0  0  0  0  0  0  0  0  0  0  0  0
    8.3430   -1.7910   23.8360 N   0  0  0  0  0  0  0  0  0  0  0  0
    9.7590   -1.7480   24.0020 N   0  0  0  0  0  0  0  0  0  0  0  0
    8.3520   -1.5600   22.4940 C   0  0  0  0  0  0  0  0  0  0  0  0
    6.9650   -1.4840   21.7980 N   0  0  0  0  0  0  0  0  0  0  0  0
    9.6100   -1.4020   21.9320 C   0  0  0  0  0  0  0  0  0  0  0  0
   10.5230   -1.5320   22.9350 C   0  0  0  0  0  0  0  0  0  0  0  0
    6.1810   -2.7450   21.4120 C   0  0  0  0  0  0  0  0  0  0  0  0
    6.5390   -0.0050   21.6550 C   0  0  1  0  0  0  0  0  0  0  0  0
   12.0840   -1.4750   23.0290 C   0  0  0  0  0  0  0  0  0  0  0  0
    4.8590   -3.0870   21.3430 O   0  0  0  0  0  0  0  0  0  0  0  0
    7.0970   -3.8190   20.9610 C   0  0  0  0  0  0  0  0  0  0  0  0
    7.6550    1.0710   21.8400 C   0  0  0  0  0  0  0  0  0  0  0  0
   12.4840   -0.2780   23.6600 C   0  0  0  0  0  0  0  0  0  0  0  0
   12.5750   -2.7020   23.8740 C   0  0  0  0  0  0  0  0  0  0  0  0
   12.6950   -1.6080   21.8000 C   0  0  0  0  0  0  0  0  0  0  0  0
    6.0320    0.3980   20.2900 C   0  0  0  0  0  0  0  0  0  0  0  0
    7.3310   -3.4220   19.5120 C   0  0  0  0  0  0  0  0  0  0  0  0
    7.3780    1.9510   22.8370 N   0  0  0  0  0  0  0  0  0  0  0  0
    8.7570    1.1690   21.0570 O   0  0  0  0  0  0  0  0  0  0  0  0
   13.2310   -2.4920   25.2470 C   0  0  0  0  0  0  0  0  0  0  0  0
    4.8410    1.1210   20.1170 C   0  0  0  0  0  0  0  0  0  0  0  0
    6.7680    0.0740   19.1470 C   0  0  0  0  0  0  0  0  0  0  0  0
    6.4130    0.4250   17.8580 N   0  0  0  0  0  0  0  0  0  0  0  0
    4.4080    1.5170   18.8620 C   0  0  0  0  0  0  0  0  0  0  0  0
    8.1040    3.2480   22.9280 C   0  0  0  0  0  0  0  0  0  0  0  0
    5.1730    1.1850   17.7760 C   0  0  0  0  0  0  0  0  0  0  0  0
    9.5510    3.2540   23.4930 C   0  0  0  0  0  0  0  0  0  0  0  0
    7.4910    4.4430   22.5120 C   0  0  0  0  0  0  0  0  0  0  0  0
   10.3170    2.0390   23.9530 C   0  0  0  0  0  0  0  0  0  0  0  0
    6.0980    4.5400   21.9390 C   0  0  0  0  0  0  0  0  0  0  0  0
   10.1750    4.4910   23.5690 C   0  0  0  0  0  0  0  0  0  0  0  0
    8.1620    5.6850   22.6030 C   0  0  0  0  0  0  0  0  0  0  0  0
    9.4720    1.2990   24.7750 C   0  0  0  0  0  0  0  0  0  0  0  0
    9.4580    5.7590   23.1090 C   0  0  0  0  0  0  0  0  0  0  0  0
  1  2  2  0
  2  3  2  0
  2  4  1  0
  2  5  1  1
  4  6  1  1
  4  7  1  0
  5  8  1  0
  5  9  2  0
  3 10  1  0
  7 11  1  6
  6 12  1  0
  7 13  1  0
 12 13  2  0
  9 14  1  0
  8 15  1  0
 14 15  2  0
 16 10  1  1
 16 17  1  0
 16 18  1  0
 18 19  1  0
 17 20  1  0
 19 21  1  0
 20 21  1  0
 19 22  1  0
 22 23  1  0
 23 24  1  0
 23 25  1  0
 25 26  1  0
 25 27  2  0
 24 28  2  0
 27 28  1  0
 26 29  1  0
 26 30  1  0
 28 31  1  0
 29 32  2  0
 29 33  1  0
 30 34  1  6
 31 35  1  0
 31 36  1  0
 31 37  1  0
 30 38  1  0
 33 39  1  0
 34 40  1  0
 34 41  2  0
 36 42  1  0
 38 43  2  0
 38 44  1  0
 44 45  2  0
 43 46  1  0
 40 47  1  0
 45 48  1  0
 46 48  2  0
 47 49  2  0
 47 50  1  0
 49 51  1  0
 50 52  1  0
 49 53  1  0
 50 54  2  0
 51 55  1  0
 53 56  2  0
 54 56  1  0
M  END
