x2705-x1348
     RDKit          3D

 44 48  0  0  0  0  0  0  0  0999 V2000
    7.1150   -1.5900   21.7210 N   0  0  0  0  0  0  0  0  0  0  0  0
    6.2540   -2.8480   21.5940 C   0  0  0  0  0  0  0  0  0  0  0  0
    4.9800   -3.1480   21.1260 O   0  0  0  0  0  0  0  0  0  0  0  0
    6.6450   -0.2510   21.6560 C   0  0  1  0  0  0  0  0  0  0  0  0
    8.3250   -1.5680   22.4940 C   0  0  0  0  0  0  0  0  0  0  0  0
    7.0280   -4.0660   22.1280 C   0  0  2  0  0  0  0  0  0  0  0  0
    7.7730    0.7800   21.9390 C   0  0  0  0  0  0  0  0  0  0  0  0
    5.9990    0.2400   20.3860 C   0  0  0  0  0  0  0  0  0  0  0  0
    8.2710   -1.4350   23.8610 N   0  0  0  0  0  0  0  0  0  0  0  0
    9.6580   -1.6450   22.0160 C   0  0  0  0  0  0  0  0  0  0  0  0
    7.0520   -5.0700   20.9560 C   0  0  0  0  0  0  0  0  0  0  0  0
    7.4070    1.9230   22.8000 N   0  0  0  0  0  0  0  0  0  0  0  0
    8.9070    0.7380   21.4740 O   0  0  0  0  0  0  0  0  0  0  0  0
    4.7950    0.9060   20.2390 C   0  0  0  0  0  0  0  0  0  0  0  0
    6.7720    0.0140   19.0790 C   0  0  0  0  0  0  0  0  0  0  0  0
    9.6920   -1.4140   24.2780 N   0  0  0  0  0  0  0  0  0  0  0  0
   10.5220   -1.5450   23.1000 C   0  0  0  0  0  0  0  0  0  0  0  0
    6.5010   -4.3020   23.4150 N   0  0  0  0  0  0  0  0  0  0  0  0
   12.0590   -1.5430   23.2330 C   0  0  0  0  0  0  0  0  0  0  0  0
    6.3820    0.4170   17.8530 N   0  0  0  0  0  0  0  0  0  0  0  0
    4.4080    1.3350   18.8590 C   0  0  0  0  0  0  0  0  0  0  0  0
    8.1390    3.1130   22.9320 C   0  0  0  0  0  0  0  0  0  0  0  0
    6.2900   -5.5820   24.0270 C   0  0  1  0  0  0  0  0  0  0  0  0
    5.3070   -3.7060   23.4660 C   0  0  0  0  0  0  0  0  0  0  0  0
   12.5750   -0.1410   23.6160 C   0  0  0  0  0  0  0  0  0  0  0  0
   12.5340   -2.5250   24.2410 C   0  0  0  0  0  0  0  0  0  0  0  0
   12.7240   -1.8810   21.8790 C   0  0  0  0  0  0  0  0  0  0  0  0
    5.1900    1.0880   17.7730 C   0  0  0  0  0  0  0  0  0  0  0  0
    9.4310    3.1650   23.4910 C   0  0  0  0  0  0  0  0  0  0  0  0
    7.5280    4.3010   22.4800 C   0  0  0  0  0  0  0  0  0  0  0  0
    6.2920   -5.5460   25.4660 C   0  0  1  0  0  0  0  0  0  0  0  0
    5.0670   -5.9670   23.4280 C   0  0  2  0  0  0  0  0  0  0  0  0
    3.8230   -4.5900   23.3940 S   0  0  0  0  0  0  0  0  0  0  0  0
   10.0720    2.0720   23.9330 C   0  0  0  0  0  0  0  0  0  0  0  0
    6.1520    4.3380   21.8660 C   0  0  0  0  0  0  0  0  0  0  0  0
    6.5850   -4.3260   26.0070 O   0  0  0  0  0  0  0  0  0  0  0  0
   10.1000    4.3980   23.6000 C   0  0  0  0  0  0  0  0  0  0  0  0
    8.2120    5.5080   22.5980 C   0  0  0  0  0  0  0  0  0  0  0  0
    4.4220   -6.9940   24.1210 C   0  0  0  0  0  0  0  0  0  0  0  0
    5.1580   -6.0110   26.1490 C   0  0  0  0  0  0  0  0  0  0  0  0
    9.1980    1.4050   24.8990 C   0  0  0  0  0  0  0  0  0  0  0  0
    6.6950   -4.3350   27.4410 C   0  0  0  0  0  0  0  0  0  0  0  0
    9.4860    5.5680   23.1530 C   0  0  0  0  0  0  0  0  0  0  0  0
    4.4610   -7.0030   25.5040 C   0  0  0  0  0  0  0  0  0  0  0  0
  1  2  1  0
  2  3  2  0
  1  4  1  0
  1  5  1  0
  2  6  1  0
  4  7  1  6
  4  8  1  0
  5  9  2  0
  5 10  1  0
  6 11  1  6
  7 12  1  0
  7 13  2  0
  8 14  2  0
  8 15  1  0
  9 16  1  0
 10 17  2  0
 16 17  1  0
  6 18  1  0
 17 19  1  0
 15 20  2  0
 14 21  1  0
 12 22  1  0
 23 18  1  6
 18 24  1  0
 19 25  1  0
 19 26  1  0
 19 27  1  0
 20 28  1  0
 21 28  2  0
 22 29  2  0
 22 30  1  0
 23 31  1  0
 23 32  1  0
 24 33  2  0
 32 33  1  0
 29 34  1  0
 30 35  1  0
 31 36  1  6
 29 37  1  0
 30 38  2  0
 32 39  1  1
 31 40  1  0
 34 41  1  0
 36 42  1  0
 37 43  2  0
 38 43  1  0
 39 44  2  0
 40 44  1  0
M  END
