x2705-x1374-x2694-x0769-x2776
     RDKit          3D

 62 67  0  0  0  0  0  0  0  0999 V2000
    6.1360   -1.0530   22.1670 N   0  0  0  0  0  0  0  0  0  0  0  0
    5.7400   -2.4120   21.6680 C   0  0  0  0  0  0  0  0  0  0  0  0
    4.5490   -2.9380   21.5820 O   0  0  0  0  0  0  0  0  0  0  0  0
    5.4820    0.1660   21.7220 C   0  0  1  0  0  0  0  0  0  0  0  0
    7.2650   -1.0160   23.1140 C   0  0  0  0  0  0  0  0  0  0  0  0
    6.8890   -3.3360   21.1790 C   0  0  2  0  0  0  0  0  0  0  0  0
    6.3480    1.4470   21.9350 C   0  0  0  0  0  0  0  0  0  0  0  0
    5.1380    0.3570   20.2720 C   0  0  0  0  0  0  0  0  0  0  0  0
    7.2190   -1.2960   24.5230 N   0  0  0  0  0  0  0  0  0  0  0  0
    8.6100   -0.6890   22.7800 C   0  0  0  0  0  0  0  0  0  0  0  0
    6.7000   -3.8110   19.7410 C   0  0  0  0  0  0  0  0  0  0  0  0
    5.9010    2.5120   22.8430 N   0  0  0  0  0  0  0  0  0  0  0  0
    7.4120    1.6720   21.3310 O   0  0  0  0  0  0  0  0  0  0  0  0
    3.9270    1.0050   19.8910 C   0  0  0  0  0  0  0  0  0  0  0  0
    6.0590   -0.0870   19.2310 C   0  0  0  0  0  0  0  0  0  0  0  0
    8.6270   -1.1120   25.0070 N   0  0  0  0  0  0  0  0  0  0  0  0
    9.4420   -0.7370   23.8650 C   0  0  0  0  0  0  0  0  0  0  0  0
    7.5750   -4.3190   22.2020 C   0  0  0  0  0  0  0  0  0  0  0  0
   11.0020   -0.4440   23.8890 C   0  0  0  0  0  0  0  0  0  0  0  0
    5.7550    0.1340   17.9420 N   0  0  0  0  0  0  0  0  0  0  0  0
    3.6920    1.1990   18.5600 C   0  0  0  0  0  0  0  0  0  0  0  0
    6.7590    3.6900   23.1200 C   0  0  0  0  0  0  0  0  0  0  0  0
    8.7970   -4.0940   22.8000 C   0  0  0  0  0  0  0  0  0  0  0  0
    6.8180   -5.5230   22.4930 C   0  0  0  0  0  0  0  0  0  0  0  0
   11.2640    1.0970   23.7750 C   0  0  0  0  0  0  0  0  0  0  0  0
   11.6000   -1.0000   25.1740 C   0  0  0  0  0  0  0  0  0  0  0  0
   11.7130   -1.1030   22.6290 C   0  0  0  0  0  0  0  0  0  0  0  0
    4.5750    0.7840   17.5520 C   0  0  0  0  0  0  0  0  0  0  0  0
    7.6400    3.6450   24.2590 C   0  0  0  0  0  0  0  0  0  0  0  0
    6.6840    4.8110   22.2350 C   0  0  0  0  0  0  0  0  0  0  0  0
    9.2370   -5.0200   23.6810 C   0  0  0  0  0  0  0  0  0  0  0  0
    7.1520   -6.7530   23.4410 C   0  0  0  0  0  0  0  0  0  0  0  0
    7.7460    2.5170   25.1870 C   0  0  0  0  0  0  0  0  0  0  0  0
    5.7870    4.9420   21.0230 C   0  0  0  0  0  0  0  0  0  0  0  0
   13.1490   -1.1140   25.3330 C   0  0  0  0  0  0  0  0  0  0  0  0
   10.5510   -4.8520   24.4340 C   0  0  0  0  0  0  0  0  0  0  0  0
    8.4680    4.7830   24.4730 C   0  0  0  0  0  0  0  0  0  0  0  0
    7.5420    5.9300   22.5020 C   0  0  0  0  0  0  0  0  0  0  0  0
    8.4250   -6.1610   23.8830 C   0  0  0  0  0  0  0  0  0  0  0  0
    5.8130   -7.3770   22.9770 C   0  0  0  0  0  0  0  0  0  0  0  0
    6.6300    2.4210   26.1410 C   0  0  0  0  0  0  0  0  0  0  0  0
    8.4300    5.9110   23.6100 C   0  0  0  0  0  0  0  0  0  0  0  0
    4.6140   -7.2570   23.9980 C   0  0  0  0  0  0  0  0  0  0  0  0
    9.2060    7.0310   23.7460 O   0  0  0  0  0  0  0  0  0  0  0  0
    3.5030   -6.1280   23.8970 C   0  0  2  0  0  0  0  0  0  0  0  0
   10.4330    7.0740   22.9990 C   0  0  0  0  0  0  0  0  0  0  0  0
    2.6470   -6.2790   24.9730 C   0  0  0  0  0  0  0  0  0  0  0  0
    2.6720   -6.3900   22.5990 C   0  0  0  0  0  0  0  0  0  0  0  0
    2.9850   -5.6180   26.6670 S   0  0  0  0  0  0  0  0  0  0  0  0
    1.4080   -7.3830   23.1550 S   0  0  0  0  0  0  0  0  0  0  0  0
    1.4730   -6.9390   24.7810 C   0  0  0  0  0  0  0  0  0  0  0  0
   -0.1420   -6.8650   22.3720 O   0  0  0  0  0  0  0  0  0  0  0  0
    1.7750   -8.7580   22.8790 O   0  0  0  0  0  0  0  0  0  0  0  0
    4.2320   -6.1740   27.1380 O   0  0  0  0  0  0  0  0  0  0  0  0
    1.8150   -5.8090   27.5020 O   0  0  0  0  0  0  0  0  0  0  0  0
    3.1280   -3.8390   26.5120 C   0  0  0  0  0  0  0  0  0  0  0  0
    4.3690   -3.0710   27.1340 C   0  0  0  0  0  0  0  0  0  0  0  0
    2.1480   -3.0690   25.8450 C   0  0  0  0  0  0  0  0  0  0  0  0
    5.3570   -3.6920   27.7910 F   0  0  0  0  0  0  0  0  0  0  0  0
    2.2750   -1.6820   25.7370 C   0  0  0  0  0  0  0  0  0  0  0  0
    4.4830   -1.6560   27.0140 C   0  0  0  0  0  0  0  0  0  0  0  0
    3.4710   -0.9500   26.3350 C   0  0  0  0  0  0  0  0  0  0  0  0
  1  2  1  0
  2  3  2  0
  1  4  1  0
  1  5  1  0
  2  6  1  0
  4  7  1  6
  4  8  1  0
  5  9  2  0
  5 10  1  0
  6 11  1  6
  7 12  1  0
  7 13  2  0
  8 14  2  0
  8 15  1  0
  9 16  1  0
 10 17  2  0
 16 17  1  0
  6 18  1  0
 17 19  1  0
 15 20  2  0
 14 21  1  0
 12 22  1  0
 18 23  2  0
 18 24  1  0
 19 25  1  0
 19 26  1  0
 19 27  1  0
 20 28  1  0
 21 28  2  0
 22 29  2  0
 22 30  1  0
 23 31  1  0
 24 32  2  0
 29 33  1  0
 30 34  1  0
 26 35  1  0
 31 36  1  0
 29 37  1  0
 30 38  2  0
 31 39  2  0
 32 39  1  0
 32 40  1  0
 33 41  1  0
 37 42  2  0
 38 42  1  0
 40 43  1  0
 42 44  1  0
 45 43  1  1
 44 46  1  0
 45 47  1  0
 45 48  1  0
 49 47  1  0
 48 50  1  0
 47 51  2  0
 50 51  1  0
 50 52  1  0
 50 53  1  0
 49 54  2  0
 49 55  2  0
 49 56  1  0
 56 57  2  0
 56 58  1  0
 57 59  1  0
 58 60  2  0
 57 61  1  0
 60 62  1  0
 61 62  2  0
M  END
