x2705-x0771-x2776-x2694
     RDKit          3D

 54 59  0  0  0  0  0  0  0  0999 V2000
    6.7880   -1.4720   22.0130 C   0  0  1  0  0  0  0  0  0  0  0  0
    5.9330   -2.5290   21.0750 C   0  0  0  0  0  0  0  0  0  0  0  0
    4.8260   -3.1050   21.3790 O   0  0  0  0  0  0  0  0  0  0  0  0
    6.3020    0.0450   21.8540 C   0  0  1  0  0  0  0  0  0  0  0  0
    6.4410   -2.4220   23.1410 C   0  0  0  0  0  0  0  0  0  0  0  0
    8.3180   -1.4840   22.4930 C   0  0  0  0  0  0  0  0  0  0  0  0
    6.4380   -2.8900   19.8220 C   0  0  0  0  0  0  0  0  0  0  0  0
    7.6000    0.9510   22.1110 C   0  0  0  0  0  0  0  0  0  0  0  0
    5.8530    0.4920   20.4750 C   0  0  0  0  0  0  0  0  0  0  0  0
    8.5210   -1.1510   23.9260 N   0  0  0  0  0  0  0  0  0  0  0  0
    9.5950   -1.7140   21.9790 C   0  0  0  0  0  0  0  0  0  0  0  0
    7.2380   -3.8010   22.8810 C   0  0  2  0  0  0  0  0  0  0  0  0
    7.5320   -3.7500   20.2750 C   0  0  0  0  0  0  0  0  0  0  0  0
    7.3530    2.1500   22.9410 N   0  0  0  0  0  0  0  0  0  0  0  0
    8.7160    0.7680   21.6330 O   0  0  0  0  0  0  0  0  0  0  0  0
    4.7080    1.1780   20.1540 C   0  0  0  0  0  0  0  0  0  0  0  0
    6.6990    0.1990   19.3830 C   0  0  0  0  0  0  0  0  0  0  0  0
    9.8710   -1.1860   24.2080 N   0  0  0  0  0  0  0  0  0  0  0  0
   10.6390   -1.5070   23.1290 C   0  0  0  0  0  0  0  0  0  0  0  0
    7.0680   -4.5210   21.5440 N   0  0  0  0  0  0  0  0  0  0  0  0
    6.9590   -4.6200   23.9560 C   0  0  0  0  0  0  0  0  0  0  0  0
   12.1760   -1.6140   23.1340 C   0  0  0  0  0  0  0  0  0  0  0  0
    6.4170    0.5920   17.9850 N   0  0  0  0  0  0  0  0  0  0  0  0
    4.3870    1.5840   18.8300 C   0  0  0  0  0  0  0  0  0  0  0  0
    8.0580    3.3870   22.9740 C   0  0  0  0  0  0  0  0  0  0  0  0
    6.1310   -5.6920   21.5460 C   0  0  0  0  0  0  0  0  0  0  0  0
    5.6110   -5.1640   23.8950 N   0  0  0  0  0  0  0  0  0  0  0  0
   12.7200   -0.4030   23.6210 C   0  0  0  0  0  0  0  0  0  0  0  0
   12.6880   -2.7960   23.9670 C   0  0  0  0  0  0  0  0  0  0  0  0
   12.7420   -1.8430   21.7160 C   0  0  0  0  0  0  0  0  0  0  0  0
    4.9960   -5.6660   25.4280 S   0  0  0  0  0  0  0  0  0  0  0  0
    5.1900    1.3290   17.7380 C   0  0  0  0  0  0  0  0  0  0  0  0
    9.5080    3.5410   23.5030 C   0  0  0  0  0  0  0  0  0  0  0  0
    7.3960    4.5390   22.5090 C   0  0  0  0  0  0  0  0  0  0  0  0
    5.2380   -5.8770   22.6550 C   0  0  0  0  0  0  0  0  0  0  0  0
   10.2780    2.3290   23.9820 C   0  0  0  0  0  0  0  0  0  0  0  0
    5.9960    4.4950   21.9580 C   0  0  0  0  0  0  0  0  0  0  0  0
   13.4650   -2.5380   25.2580 C   0  0  0  0  0  0  0  0  0  0  0  0
    4.4130   -6.9800   25.2850 O   0  0  0  0  0  0  0  0  0  0  0  0
    6.0020   -5.3920   26.4330 O   0  0  0  0  0  0  0  0  0  0  0  0
   10.1250    4.8260   23.5390 C   0  0  0  0  0  0  0  0  0  0  0  0
    8.0180    5.7750   22.5400 C   0  0  0  0  0  0  0  0  0  0  0  0
    3.6710   -4.4990   25.6620 C   0  0  0  0  0  0  0  0  0  0  0  0
    9.5720    1.6000   24.6310 C   0  0  0  0  0  0  0  0  0  0  0  0
   11.4050    5.0410   24.0160 O   0  0  0  0  0  0  0  0  0  0  0  0
    9.3000    5.9980   23.0150 C   0  0  0  0  0  0  0  0  0  0  0  0
    2.2070   -4.8390   25.3630 C   0  0  0  0  0  0  0  0  0  0  0  0
    3.9920   -3.0960   26.1810 C   0  0  0  0  0  0  0  0  0  0  0  0
   11.5730    6.2120   24.6920 C   0  0  0  0  0  0  0  0  0  0  0  0
    1.7280   -6.1670   24.8490 C   0  0  0  0  0  0  0  0  0  0  0  0
    1.2200   -3.7020   25.6290 C   0  0  0  0  0  0  0  0  0  0  0  0
    3.0240   -2.1120   26.3960 C   0  0  0  0  0  0  0  0  0  0  0  0
    1.6640   -2.3400   26.1500 C   0  0  0  0  0  0  0  0  0  0  0  0
    0.5410   -1.2930   26.3730 C   0  0  0  0  0  0  0  0  0  0  0  0
  1  2  1  0
  2  3  2  0
  1  4  1  0
  1  5  1  0
  1  6  1  6
  2  7  1  0
  4  8  1  6
  4  9  1  0
  6 10  2  0
  6 11  1  0
 12  5  1  6
  7 13  1  0
  8 14  1  0
  8 15  2  0
  9 16  2  0
  9 17  1  0
 10 18  1  0
 11 19  2  0
 18 19  1  0
 12 20  1  0
 13 20  1  0
 12 21  1  0
 19 22  1  0
 17 23  2  0
 16 24  1  0
 14 25  1  0
 20 26  1  0
 21 27  1  0
 22 28  1  0
 22 29  1  0
 22 30  1  0
 27 31  1  0
 23 32  1  0
 24 32  2  0
 25 33  2  0
 25 34  1  0
 26 35  1  0
 27 35  1  0
 33 36  1  0
 34 37  1  0
 29 38  1  0
 31 39  2  0
 31 40  2  0
 33 41  1  0
 34 42  2  0
 31 43  1  0
 36 44  1  0
 41 45  1  0
 41 46  2  0
 42 46  1  0
 43 47  2  0
 43 48  1  0
 45 49  1  0
 47 50  1  0
 47 51  1  0
 48 52  2  0
 51 53  2  0
 52 53  1  0
 53 54  1  0
M  END
