x2705-x0995-x1374-x2776
     RDKit          3D

 53 57  0  0  0  0  0  0  0  0999 V2000
    6.6540   -1.4220   21.5710 N   0  0  0  0  0  0  0  0  0  0  0  0
    5.8650   -2.5870   20.9420 C   0  0  0  0  0  0  0  0  0  0  0  0
    4.5960   -2.7230   20.9470 O   0  0  0  0  0  0  0  0  0  0  0  0
    6.2610    0.0670   21.3560 C   0  0  1  0  0  0  0  0  0  0  0  0
    7.9580   -1.5800   22.3610 C   0  0  0  0  0  0  0  0  0  0  0  0
    6.4780   -3.9230   20.3750 C   0  0  1  0  0  0  0  0  0  0  0  0
    7.3270    1.0620   21.5710 C   0  0  0  0  0  0  0  0  0  0  0  0
    5.6640    0.6000   20.0050 C   0  0  0  0  0  0  0  0  0  0  0  0
    8.0700   -1.8170   23.7230 N   0  0  0  0  0  0  0  0  0  0  0  0
    9.3610   -1.4800   21.8120 C   0  0  0  0  0  0  0  0  0  0  0  0
    7.2960   -3.0920   19.2790 C   0  0  0  0  0  0  0  0  0  0  0  0
    7.1500    2.0060   22.7210 N   0  0  0  0  0  0  0  0  0  0  0  0
    8.3380    1.2300   20.8550 O   0  0  0  0  0  0  0  0  0  0  0  0
    4.3850    1.4530   19.9970 C   0  0  0  0  0  0  0  0  0  0  0  0
    6.3170    0.3490   18.7710 C   0  0  0  0  0  0  0  0  0  0  0  0
    9.4390   -1.8470   23.9840 N   0  0  0  0  0  0  0  0  0  0  0  0
   10.3340   -1.6300   22.7950 C   0  0  0  0  0  0  0  0  0  0  0  0
    6.8310   -4.7650   21.6060 C   0  0  0  0  0  0  0  0  0  0  0  0
   11.9230   -1.5720   22.6630 C   0  0  0  0  0  0  0  0  0  0  0  0
    5.7810    0.9080   17.5210 N   0  0  0  0  0  0  0  0  0  0  0  0
    3.8450    2.0440   18.6740 C   0  0  0  0  0  0  0  0  0  0  0  0
    7.9200    3.2160   22.9140 C   0  0  0  0  0  0  0  0  0  0  0  0
    7.8850   -5.0400   22.5140 C   0  0  0  0  0  0  0  0  0  0  0  0
    5.8040   -5.6500   22.2530 C   0  0  0  0  0  0  0  0  0  0  0  0
   12.4220   -0.2230   22.7260 C   0  0  0  0  0  0  0  0  0  0  0  0
   12.6230   -2.4800   23.7730 C   0  0  0  0  0  0  0  0  0  0  0  0
   12.2990   -2.1350   21.3950 C   0  0  0  0  0  0  0  0  0  0  0  0
    2.7630    2.8200   18.4480 N   0  0  0  0  0  0  0  0  0  0  0  0
    4.6610    1.6780   17.5600 C   0  0  0  0  0  0  0  0  0  0  0  0
    9.1990    3.2740   23.6650 C   0  0  0  0  0  0  0  0  0  0  0  0
    7.3980    4.3820   22.3330 C   0  0  0  0  0  0  0  0  0  0  0  0
    8.8660   -5.2450   23.2920 C   0  0  0  0  0  0  0  0  0  0  0  0
    6.0540   -6.5790   23.6290 C   0  0  0  0  0  0  0  0  0  0  0  0
    9.7050    2.0220   24.2450 C   0  0  0  0  0  0  0  0  0  0  0  0
    6.0850    4.4760   21.5260 C   0  0  0  0  0  0  0  0  0  0  0  0
   12.7540   -1.9880   25.1970 C   0  0  0  0  0  0  0  0  0  0  0  0
    9.8410   -5.7160   24.4270 C   0  0  0  0  0  0  0  0  0  0  0  0
   10.1890    4.5690   23.9570 C   0  0  0  0  0  0  0  0  0  0  0  0
    8.1550    5.5210   22.5210 C   0  0  0  0  0  0  0  0  0  0  0  0
    7.6920   -6.1090   23.8570 C   0  0  0  0  0  0  0  0  0  0  0  0
    4.5640   -7.0060   23.4220 C   0  0  0  0  0  0  0  0  0  0  0  0
    8.9580    1.5970   25.3740 C   0  0  0  0  0  0  0  0  0  0  0  0
   11.0440    5.7100   24.2060 O   0  0  0  0  0  0  0  0  0  0  0  0
    9.3630    5.5800   23.2290 C   0  0  0  0  0  0  0  0  0  0  0  0
    3.5010   -6.1730   23.9130 C   0  0  0  0  0  0  0  0  0  0  0  0
   12.4660    5.4770   24.1840 C   0  0  0  0  0  0  0  0  0  0  0  0
    2.7670   -6.6100   25.2410 C   0  0  2  0  0  0  0  0  0  0  0  0
    3.5960   -6.9060   26.3300 C   0  0  0  0  0  0  0  0  0  0  0  0
    1.7690   -7.5800   25.0060 C   0  0  0  0  0  0  0  0  0  0  0  0
    1.6860   -8.3280   26.6170 S   0  0  0  0  0  0  0  0  0  0  0  0
    3.1780   -7.8300   27.1980 C   0  0  0  0  0  0  0  0  0  0  0  0
    0.6170   -7.7170   27.3920 O   0  0  0  0  0  0  0  0  0  0  0  0
    1.6610   -9.7590   26.4400 O   0  0  0  0  0  0  0  0  0  0  0  0
  1  2  1  0
  2  3  2  0
  1  4  1  0
  1  5  1  0
  2  6  1  0
  4  7  1  6
  4  8  1  0
  5  9  2  0
  5 10  1  0
  6 11  1  1
  7 12  1  0
  7 13  2  0
  8 14  2  0
  8 15  1  0
  9 16  1  0
 10 17  2  0
 16 17  1  0
  6 18  1  0
 17 19  1  0
 15 20  2  0
 14 21  1  0
 12 22  1  0
 18 23  2  0
 18 24  1  0
 19 25  1  0
 19 26  1  0
 19 27  1  0
 21 28  1  0
 20 29  1  0
 21 29  2  0
 22 30  2  0
 22 31  1  0
 23 32  1  0
 24 33  2  0
 30 34  1  0
 31 35  1  0
 26 36  1  0
 32 37  1  0
 30 38  1  0
 31 39  2  0
 32 40  2  0
 33 40  1  0
 33 41  1  0
 34 42  1  0
 38 43  1  0
 38 44  2  0
 39 44  1  0
 41 45  1  0
 43 46  1  0
 47 45  1  6
 47 48  1  0
 47 49  1  0
 49 50  1  0
 48 51  2  0
 50 51  1  0
 50 52  1  0
 50 53  1  0
M  END
