x2705-x3115-x1311
     RDKit          3D

 48 52  0  0  0  0  0  0  0  0999 V2000
    7.0180   -1.5660   21.6740 N   0  0  0  0  0  0  0  0  0  0  0  0
    6.1090   -2.7790   21.4890 C   0  0  0  0  0  0  0  0  0  0  0  0
    4.8300   -2.9530   21.1020 O   0  0  0  0  0  0  0  0  0  0  0  0
    6.5850   -0.0970   21.6110 C   0  0  1  0  0  0  0  0  0  0  0  0
    8.2320   -1.5770   22.4820 C   0  0  0  0  0  0  0  0  0  0  0  0
    6.6070   -4.1510   21.7450 C   0  0  1  0  0  0  0  0  0  0  0  0
    7.6730    0.8040   21.9070 C   0  0  0  0  0  0  0  0  0  0  0  0
    5.9590    0.4100   20.3030 C   0  0  0  0  0  0  0  0  0  0  0  0
    8.2980   -1.5000   23.9880 N   0  0  0  0  0  0  0  0  0  0  0  0
    9.6850   -1.6000   22.1020 C   0  0  0  0  0  0  0  0  0  0  0  0
    6.8040   -4.9950   20.4670 C   0  0  0  0  0  0  0  0  0  0  0  0
    7.4240    1.8790   22.7730 N   0  0  0  0  0  0  0  0  0  0  0  0
    8.7890    0.7060   21.3990 O   0  0  0  0  0  0  0  0  0  0  0  0
    4.6790    1.1660   20.1830 C   0  0  0  0  0  0  0  0  0  0  0  0
    6.7560    0.1280   19.0530 C   0  0  0  0  0  0  0  0  0  0  0  0
    9.6700   -1.4710   24.3280 N   0  0  0  0  0  0  0  0  0  0  0  0
   10.5060   -1.5340   23.1280 C   0  0  0  0  0  0  0  0  0  0  0  0
    7.4380   -4.5620   22.9750 C   0  0  0  0  0  0  0  0  0  0  0  0
   12.0300   -1.5060   23.2860 C   0  0  0  0  0  0  0  0  0  0  0  0
    6.4080    0.5200   17.8600 N   0  0  0  0  0  0  0  0  0  0  0  0
    4.3340    1.5950   18.7800 C   0  0  0  0  0  0  0  0  0  0  0  0
    8.1010    3.1130   22.9090 C   0  0  0  0  0  0  0  0  0  0  0  0
    8.7770   -4.7880   22.9250 C   0  0  0  0  0  0  0  0  0  0  0  0
    6.8290   -4.7650   24.1990 C   0  0  0  0  0  0  0  0  0  0  0  0
   12.4340   -0.3160   23.9030 C   0  0  0  0  0  0  0  0  0  0  0  0
   12.5380   -2.7560   24.0530 C   0  0  0  0  0  0  0  0  0  0  0  0
   12.7190   -1.6150   21.9160 C   0  0  0  0  0  0  0  0  0  0  0  0
    5.1640    1.2910   17.6970 C   0  0  0  0  0  0  0  0  0  0  0  0
    9.4020    3.2220   23.4940 C   0  0  0  0  0  0  0  0  0  0  0  0
    7.4030    4.2530   22.4280 C   0  0  0  0  0  0  0  0  0  0  0  0
    9.5490   -5.2630   24.1390 C   0  0  0  0  0  0  0  0  0  0  0  0
    7.5270   -5.2000   25.3310 C   0  0  0  0  0  0  0  0  0  0  0  0
    5.3490   -4.6040   24.4360 C   0  0  0  0  0  0  0  0  0  0  0  0
   10.1620    2.0220   24.0000 C   0  0  0  0  0  0  0  0  0  0  0  0
    6.0140    4.1520   21.7930 C   0  0  0  0  0  0  0  0  0  0  0  0
   13.4370   -2.4890   25.2660 C   0  0  0  0  0  0  0  0  0  0  0  0
   10.0600    4.3990   23.6390 C   0  0  0  0  0  0  0  0  0  0  0  0
    8.1790    5.6300   22.6010 C   0  0  0  0  0  0  0  0  0  0  0  0
    8.8260   -5.4450   25.2690 C   0  0  0  0  0  0  0  0  0  0  0  0
    5.0370   -6.0710   24.3720 C   0  0  2  0  0  0  0  0  0  0  0  0
    9.1820    1.3710   24.9540 C   0  0  0  0  0  0  0  0  0  0  0  0
    9.5090    5.5320   23.2320 C   0  0  0  0  0  0  0  0  0  0  0  0
    5.5910   -6.5910   23.1940 C   0  0  0  0  0  0  0  0  0  0  0  0
    3.3580   -6.6030   24.5400 S   0  0  0  0  0  0  0  0  0  0  0  0
    3.4470   -7.9420   25.0950 O   0  0  0  0  0  0  0  0  0  0  0  0
    2.5240   -5.5880   25.1240 O   0  0  0  0  0  0  0  0  0  0  0  0
    4.5740   -6.5420   22.3400 C   0  0  0  0  0  0  0  0  0  0  0  0
    3.2880   -6.5750   22.8020 C   0  0  0  0  0  0  0  0  0  0  0  0
  1  2  1  0
  2  3  2  0
  1  4  1  0
  1  5  1  0
  2  6  1  0
  4  7  1  6
  4  8  1  0
  5  9  2  0
  5 10  1  0
  6 11  1  6
  7 12  1  0
  7 13  2  0
  8 14  2  0
  8 15  1  0
  9 16  1  0
 10 17  2  0
 16 17  1  0
  6 18  1  0
 17 19  1  0
 15 20  2  0
 14 21  1  0
 12 22  1  0
 18 23  2  0
 18 24  1  0
 19 25  1  0
 19 26  1  0
 19 27  1  0
 20 28  1  0
 21 28  2  0
 22 29  2  0
 22 30  1  0
 23 31  1  0
 24 32  2  0
 24 33  1  0
 29 34  1  0
 30 35  1  0
 26 36  1  0
 29 37  1  0
 30 38  2  0
 31 39  2  0
 32 39  1  0
 40 33  1  6
 34 41  1  0
 37 42  2  0
 38 42  1  0
 40 43  1  0
 40 44  1  0
 44 45  1  0
 44 46  1  0
 43 47  1  0
 44 48  1  0
 47 48  2  0
M  END
