x2703-x0540-x0995-x2694
     RDKit          3D

 50 53  0  0  0  0  0  0  0  0999 V2000
    7.1520   -1.6000   21.7730 N   0  0  0  0  0  0  0  0  0  0  0  0
    6.2010   -2.8160   21.5590 C   0  0  0  0  0  0  0  0  0  0  0  0
    4.8860   -3.0550   21.2250 O   0  0  0  0  0  0  0  0  0  0  0  0
    6.7970   -0.1480   21.6300 C   0  0  1  0  0  0  0  0  0  0  0  0
    8.3950   -1.7170   22.5750 C   0  0  0  0  0  0  0  0  0  0  0  0
    6.9280   -4.1130   21.7530 C   0  0  0  0  0  0  0  0  0  0  0  0
    7.9760    0.9370   21.8820 C   0  0  0  0  0  0  0  0  0  0  0  0
    6.1870    0.2890   20.3240 C   0  0  0  0  0  0  0  0  0  0  0  0
    8.5480   -2.0290   23.9140 N   0  0  0  0  0  0  0  0  0  0  0  0
    9.7120   -1.5010   22.1850 C   0  0  0  0  0  0  0  0  0  0  0  0
    6.8500   -4.8400   20.4190 C   0  0  0  0  0  0  0  0  0  0  0  0
    7.6190    2.3460   22.3170 N   0  0  0  0  0  0  0  0  0  0  0  0
    9.1360    0.6730   21.6470 O   0  0  0  0  0  0  0  0  0  0  0  0
    4.9260    0.8560   20.3390 C   0  0  0  0  0  0  0  0  0  0  0  0
    6.8570    0.1650   19.1110 C   0  0  0  0  0  0  0  0  0  0  0  0
    9.8060   -1.9850   24.2590 O   0  0  0  0  0  0  0  0  0  0  0  0
   10.6200   -1.6480   23.2100 C   0  0  0  0  0  0  0  0  0  0  0  0
   12.1880   -1.4780   23.2790 C   0  0  0  0  0  0  0  0  0  0  0  0
    4.0750    1.0230   21.4470 C   0  0  0  0  0  0  0  0  0  0  0  0
    6.4360    0.5620   17.8920 N   0  0  0  0  0  0  0  0  0  0  0  0
    4.3900    1.3200   19.1560 C   0  0  0  0  0  0  0  0  0  0  0  0
    8.5200    3.3970   22.7860 C   0  0  0  0  0  0  0  0  0  0  0  0
    6.9160    3.0490   21.3480 C   0  0  0  0  0  0  0  0  0  0  0  0
   12.7530   -0.1900   23.3910 C   0  0  0  0  0  0  0  0  0  0  0  0
   12.8380   -1.1170   21.9860 C   0  0  0  0  0  0  0  0  0  0  0  0
   12.9850   -2.5280   23.7560 C   0  0  0  0  0  0  0  0  0  0  0  0
    4.6490    1.5090   22.6290 C   0  0  0  0  0  0  0  0  0  0  0  0
    3.2020    1.9220   18.9580 N   0  0  0  0  0  0  0  0  0  0  0  0
    5.2300    1.1420   17.9080 C   0  0  0  0  0  0  0  0  0  0  0  0
    9.7290    3.1190   23.4710 C   0  0  0  0  0  0  0  0  0  0  0  0
    8.2280    4.7670   22.5610 C   0  0  0  0  0  0  0  0  0  0  0  0
    5.7890    3.8590   21.5620 C   0  0  0  0  0  0  0  0  0  0  0  0
   10.3070    1.8020   23.8730 C   0  0  0  0  0  0  0  0  0  0  0  0
   12.6100   -2.9840   25.0820 C   0  0  0  0  0  0  0  0  0  0  0  0
    3.9080    2.5680   23.0420 N   0  0  0  0  0  0  0  0  0  0  0  0
   10.6170    4.1540   23.8940 C   0  0  0  0  0  0  0  0  0  0  0  0
    9.1150    5.8690   22.9930 C   0  0  0  0  0  0  0  0  0  0  0  0
    9.3800    1.0750   24.8480 C   0  0  0  0  0  0  0  0  0  0  0  0
    2.7620    2.3690   23.7050 C   0  0  0  0  0  0  0  0  0  0  0  0
   10.2780    5.6220   23.6370 C   0  0  0  0  0  0  0  0  0  0  0  0
   11.1240    6.6250   24.0440 O   0  0  0  0  0  0  0  0  0  0  0  0
    2.6160    1.5250   24.5860 O   0  0  0  0  0  0  0  0  0  0  0  0
    1.7960    3.2190   23.2700 N   0  0  0  0  0  0  0  0  0  0  0  0
   11.8810    6.4490   25.2300 C   0  0  0  0  0  0  0  0  0  0  0  0
    0.5130    3.3550   23.9520 C   0  0  0  0  0  0  0  0  0  0  0  0
    0.4580    4.7770   24.5380 C   0  0  0  0  0  0  0  0  0  0  0  0
   -0.5320    2.9480   23.1120 C   0  0  0  0  0  0  0  0  0  0  0  0
   -0.6900    4.9050   25.2790 C   0  0  0  0  0  0  0  0  0  0  0  0
   -1.7290    3.2880   23.7560 C   0  0  0  0  0  0  0  0  0  0  0  0
   -1.7340    4.6730   24.3520 C   0  0  0  0  0  0  0  0  0  0  0  0
  1  2  1  0
  2  3  2  0
  1  4  1  0
  1  5  1  0
  2  6  1  0
  4  7  1  6
  4  8  1  0
  5  9  2  0
  5 10  1  0
  6 11  1  0
  7 12  1  0
  7 13  2  0
  8 14  1  0
  8 15  2  0
  9 16  1  0
 10 17  2  0
 16 17  1  0
 17 18  1  0
 14 19  1  0
 15 20  1  0
 14 21  2  0
 12 22  1  0
 12 23  1  0
 18 24  1  0
 18 25  1  0
 18 26  1  0
 19 27  1  0
 21 28  1  0
 20 29  2  0
 21 29  1  0
 22 30  2  0
 22 31  1  0
 23 32  1  0
 30 33  1  0
 26 34  1  0
 27 35  1  0
 30 36  1  0
 31 37  2  0
 33 38  1  0
 35 39  1  0
 36 40  2  0
 37 40  1  0
 40 41  1  0
 39 42  2  0
 39 43  1  0
 41 44  1  0
 43 45  1  0
 45 46  1  0
 45 47  1  0
 46 48  1  0
 47 49  1  0
 48 50  1  0
 49 50  1  0
M  END
