x2705-x1077-x0786
     RDKit          3D

 57 62  0  0  0  0  0  0  0  0999 V2000
    3.9460   -8.0460   24.7520 O   0  0  0  0  0  0  0  0  0  0  0  0
    3.3680   -6.8740   24.2090 C   0  0  0  0  0  0  0  0  0  0  0  0
    4.0970   -5.5160   24.0990 C   0  0  0  0  0  0  0  0  0  0  0  0
    1.9980   -6.9740   23.7610 N   0  0  0  0  0  0  0  0  0  0  0  0
    5.4650   -5.2270   23.5400 C   0  0  0  0  0  0  0  0  0  0  0  0
    3.3630   -4.2230   24.6270 C   0  0  0  0  0  0  0  0  0  0  0  0
    1.2710   -5.9250   23.1470 C   0  0  0  0  0  0  0  0  0  0  0  0
    1.1770   -8.0870   24.0140 C   0  0  0  0  0  0  0  0  0  0  0  0
    5.8860   -3.7740   23.5540 C   0  0  0  0  0  0  0  0  0  0  0  0
    3.9160   -2.9400   24.5700 C   0  0  0  0  0  0  0  0  0  0  0  0
    0.2160   -5.2110   23.9640 C   0  0  0  0  0  0  0  0  0  0  0  0
    0.1280   -7.5050   25.0260 C   0  0  0  0  0  0  0  0  0  0  0  0
    6.5200   -6.1400   22.9770 C   0  0  0  0  0  0  0  0  0  0  0  0
    5.1690   -2.7050   24.0310 C   0  0  0  0  0  0  0  0  0  0  0  0
   -1.0670   -6.3140   24.4240 S   0  0  0  0  0  0  0  0  0  0  0  0
    7.7060   -6.0210   23.7450 C   0  0  2  0  0  0  0  0  0  0  0  0
    7.0370   -5.9370   25.0250 O   0  0  0  0  0  0  0  0  0  0  0  0
    8.5210   -4.9170   23.6320 C   0  0  0  0  0  0  0  0  0  0  0  0
    9.6880   -4.9430   24.3860 C   0  0  0  0  0  0  0  0  0  0  0  0
    7.4980   -5.3530   26.2410 C   0  0  0  0  0  0  0  0  0  0  0  0
    9.4960   -4.4280   25.7290 N   0  0  0  0  0  0  0  0  0  0  0  0
    8.8480   -5.4210   26.5250 C   0  0  0  0  0  0  0  0  0  0  0  0
    8.9400   -3.1000   25.9570 C   0  0  0  0  0  0  0  0  0  0  0  0
    7.9450   -2.3980   24.9560 C   0  0  0  0  0  0  0  0  0  0  0  0
    8.6810   -2.0070   23.7750 N   0  0  0  0  0  0  0  0  0  0  0  0
    9.9860   -1.9440   24.1060 N   0  0  0  0  0  0  0  0  0  0  0  0
    8.3170   -1.6870   22.4150 C   0  0  0  0  0  0  0  0  0  0  0  0
    7.0200   -1.6270   21.7380 N   0  0  0  0  0  0  0  0  0  0  0  0
    9.7210   -1.3950   21.9120 C   0  0  0  0  0  0  0  0  0  0  0  0
   10.7770   -1.5540   22.9760 C   0  0  0  0  0  0  0  0  0  0  0  0
    6.2030   -2.8480   21.2700 C   0  0  0  0  0  0  0  0  0  0  0  0
    6.5460   -0.2280   21.6120 C   0  0  1  0  0  0  0  0  0  0  0  0
   12.2870   -1.3940   23.0650 C   0  0  0  0  0  0  0  0  0  0  0  0
    4.9010   -3.0300   21.0470 O   0  0  0  0  0  0  0  0  0  0  0  0
    6.9730   -4.1470   21.1160 C   0  0  0  0  0  0  0  0  0  0  0  0
    7.4680    0.8290   21.8560 C   0  0  0  0  0  0  0  0  0  0  0  0
   12.6290   -0.0890   23.4170 C   0  0  0  0  0  0  0  0  0  0  0  0
   12.9030   -2.3250   24.1420 C   0  0  0  0  0  0  0  0  0  0  0  0
   12.9270   -1.7290   21.7190 C   0  0  0  0  0  0  0  0  0  0  0  0
    6.1100    0.2180   20.2570 C   0  0  0  0  0  0  0  0  0  0  0  0
    7.2560   -3.4560   19.7840 C   0  0  0  0  0  0  0  0  0  0  0  0
    7.2100    1.9150   22.6270 N   0  0  0  0  0  0  0  0  0  0  0  0
    8.6750    0.7800   21.2180 O   0  0  0  0  0  0  0  0  0  0  0  0
    4.9560    0.9860   20.1490 C   0  0  0  0  0  0  0  0  0  0  0  0
    6.8680   -0.0860   18.9780 C   0  0  0  0  0  0  0  0  0  0  0  0
    6.3830    0.4420   17.7310 N   0  0  0  0  0  0  0  0  0  0  0  0
    4.5130    1.4780   18.9300 C   0  0  0  0  0  0  0  0  0  0  0  0
    7.9780    3.1170   22.6390 C   0  0  0  0  0  0  0  0  0  0  0  0
    5.1700    1.2500   17.7380 C   0  0  0  0  0  0  0  0  0  0  0  0
    9.3470    3.0720   22.8750 C   0  0  0  0  0  0  0  0  0  0  0  0
    7.3510    4.3520   22.4210 C   0  0  0  0  0  0  0  0  0  0  0  0
   10.1610    1.8150   23.1290 C   0  0  0  0  0  0  0  0  0  0  0  0
    5.8890    4.5420   22.1350 C   0  0  0  0  0  0  0  0  0  0  0  0
   10.0760    4.4310   22.8970 C   0  0  0  0  0  0  0  0  0  0  0  0
    8.0580    5.5760   22.4550 C   0  0  0  0  0  0  0  0  0  0  0  0
    9.5390    0.9230   24.0220 C   0  0  0  0  0  0  0  0  0  0  0  0
    9.4250    5.6310   22.6990 C   0  0  0  0  0  0  0  0  0  0  0  0
  1  2  2  0
  2  3  1  0
  2  4  1  0
  3  5  1  0
  3  6  2  0
  4  7  1  0
  4  8  1  0
  5  9  2  0
  6 10  1  0
  7 11  1  0
  8 12  1  0
  5 13  1  0
  9 14  1  0
 10 14  2  0
 11 15  1  0
 12 15  1  0
 16 13  1  6
 16 17  1  0
 16 18  1  0
 18 19  1  0
 17 20  1  0
 19 21  1  0
 20 22  1  0
 21 22  1  0
 21 23  1  0
 23 24  1  0
 24 25  1  0
 25 26  1  0
 25 27  1  0
 27 28  1  0
 27 29  2  0
 26 30  2  0
 29 30  1  0
 28 31  1  0
 28 32  1  0
 30 33  1  0
 31 34  2  0
 31 35  1  0
 32 36  1  6
 33 37  1  0
 33 38  1  0
 33 39  1  0
 32 40  1  0
 35 41  1  0
 36 42  1  0
 36 43  2  0
 40 44  2  0
 40 45  1  0
 45 46  2  0
 44 47  1  0
 42 48  1  0
 46 49  1  0
 47 49  2  0
 48 50  2  0
 48 51  1  0
 50 52  1  0
 51 53  1  0
 50 54  1  0
 51 55  2  0
 52 56  1  0
 54 57  2  0
 55 57  1  0
M  END
