x2705-x3117-x3115-x0731-x2703
     RDKit          3D

 52 57  0  0  0  0  0  0  0  0999 V2000
    6.7310   -1.3690   22.0370 C   0  0  1  0  0  0  0  0  0  0  0  0
    5.8990   -2.2750   20.9790 C   0  0  0  0  0  0  0  0  0  0  0  0
    4.7380   -2.8750   21.1040 O   0  0  0  0  0  0  0  0  0  0  0  0
    6.5350    0.1110   21.7250 C   0  0  1  0  0  0  0  0  0  0  0  0
    5.8600   -2.0020   23.0770 C   0  0  0  0  0  0  0  0  0  0  0  0
    8.2240   -1.4850   22.5710 C   0  0  0  0  0  0  0  0  0  0  0  0
    6.4920   -2.5670   19.7580 C   0  0  0  0  0  0  0  0  0  0  0  0
    7.7000    1.1570   21.8510 C   0  0  0  0  0  0  0  0  0  0  0  0
    5.4550   -3.3380   22.6640 C   0  0  0  0  0  0  0  0  0  0  0  0
    6.0380    0.4780   20.3460 C   0  0  0  0  0  0  0  0  0  0  0  0
    8.4650   -1.7190   23.9150 N   0  0  0  0  0  0  0  0  0  0  0  0
    9.5810   -1.3550   21.9060 C   0  0  0  0  0  0  0  0  0  0  0  0
    6.7420   -3.9690   20.0870 C   0  0  0  0  0  0  0  0  0  0  0  0
    7.5050    2.0770   22.8610 N   0  0  0  0  0  0  0  0  0  0  0  0
    8.6660    1.1710   21.0770 O   0  0  0  0  0  0  0  0  0  0  0  0
    4.8260    1.1050   20.1350 C   0  0  0  0  0  0  0  0  0  0  0  0
    6.7800    0.2240   19.2340 C   0  0  0  0  0  0  0  0  0  0  0  0
    9.8290   -1.7420   24.1360 N   0  0  0  0  0  0  0  0  0  0  0  0
   10.5880   -1.5210   22.9080 C   0  0  0  0  0  0  0  0  0  0  0  0
    6.4620   -4.2980   21.7200 C   0  0  0  0  0  0  0  0  0  0  0  0
   12.1170   -1.5040   22.9340 C   0  0  0  0  0  0  0  0  0  0  0  0
    6.4210    0.5480   17.9470 N   0  0  0  0  0  0  0  0  0  0  0  0
    4.4200    1.4550   18.8810 C   0  0  0  0  0  0  0  0  0  0  0  0
    8.2060    3.3520   22.9560 C   0  0  0  0  0  0  0  0  0  0  0  0
    7.6740   -4.5560   22.5960 C   0  0  0  0  0  0  0  0  0  0  0  0
    5.7070   -5.6770   21.8370 C   0  0  0  0  0  0  0  0  0  0  0  0
   12.5700   -0.3290   23.5570 C   0  0  0  0  0  0  0  0  0  0  0  0
   12.5970   -2.7250   23.7320 C   0  0  0  0  0  0  0  0  0  0  0  0
   12.6110   -1.7200   21.6990 C   0  0  0  0  0  0  0  0  0  0  0  0
    5.1530    1.2200   17.7550 C   0  0  0  0  0  0  0  0  0  0  0  0
    9.5210    3.3360   23.4600 C   0  0  0  0  0  0  0  0  0  0  0  0
    7.5740    4.5100   22.5530 C   0  0  0  0  0  0  0  0  0  0  0  0
    7.3640   -4.5710   24.0840 C   0  0  0  0  0  0  0  0  0  0  0  0
    5.7710   -6.3640   23.2060 C   0  0  0  0  0  0  0  0  0  0  0  0
   10.2370    2.0810   23.8840 C   0  0  0  0  0  0  0  0  0  0  0  0
    6.2330    4.4350   22.0340 C   0  0  0  0  0  0  0  0  0  0  0  0
   13.0710   -2.4660   25.1200 C   0  0  0  0  0  0  0  0  0  0  0  0
   10.2760    4.6120   23.5860 C   0  0  0  0  0  0  0  0  0  0  0  0
    8.1810    5.7370   22.6280 C   0  0  0  0  0  0  0  0  0  0  0  0
    6.1500   -5.4050   24.2770 N   0  0  0  0  0  0  0  0  0  0  0  0
    9.3110    1.2240   24.7670 C   0  0  0  0  0  0  0  0  0  0  0  0
    5.3950   -5.3860   25.7860 S   0  0  0  0  0  0  0  0  0  0  0  0
    9.5920    5.8600   23.1620 C   0  0  0  0  0  0  0  0  0  0  0  0
    6.4030   -5.0390   26.7600 O   0  0  0  0  0  0  0  0  0  0  0  0
    4.6780   -6.6330   25.9230 O   0  0  0  0  0  0  0  0  0  0  0  0
    4.2460   -4.1660   25.8490 C   0  0  0  0  0  0  0  0  0  0  0  0
    2.8270   -4.3570   25.3160 C   0  0  0  0  0  0  0  0  0  0  0  0
    4.5500   -2.7860   26.4540 C   0  0  0  0  0  0  0  0  0  0  0  0
    1.9110   -3.3520   25.3990 C   0  0  0  0  0  0  0  0  0  0  0  0
    3.3950   -1.7990   26.4540 C   0  0  0  0  0  0  0  0  0  0  0  0
    2.1250   -2.1150   25.9360 C   0  0  0  0  0  0  0  0  0  0  0  0
    1.0400   -1.0690   25.9980 C   0  0  0  0  0  0  0  0  0  0  0  0
  1  2  1  0
  2  3  2  0
  1  4  1  0
  1  5  1  0
  1  6  1  1
  2  7  1  0
  4  8  1  6
  5  9  1  0
  4 10  1  0
  6 11  2  0
  6 12  1  0
  7 13  1  0
  8 14  1  0
  8 15  2  0
 10 16  2  0
 10 17  1  0
 11 18  1  0
 12 19  2  0
 18 19  1  0
 20  9  1  0
 13 20  1  0
 19 21  1  0
 17 22  2  0
 16 23  1  0
 14 24  1  0
 20 25  1  0
 20 26  1  0
 21 27  1  0
 21 28  1  0
 21 29  1  0
 22 30  1  0
 23 30  2  0
 24 31  2  0
 24 32  1  0
 25 33  1  0
 26 34  1  0
 31 35  1  0
 32 36  1  0
 28 37  1  0
 31 38  1  0
 32 39  2  0
 33 40  1  0
 34 40  1  0
 35 41  1  0
 40 42  1  0
 38 43  2  0
 39 43  1  0
 42 44  2  0
 42 45  2  0
 42 46  1  0
 46 47  2  0
 46 48  1  0
 47 49  1  0
 48 50  2  0
 49 51  2  0
 50 51  1  0
 51 52  1  0
M  END
