x2754-x0540
     RDKit          3D

 39 42  0  0  0  0  0  0  0  0999 V2000
    5.0340   -3.2550   25.3280 C   0  0  0  0  0  0  0  0  0  0  0  0
    5.5290   -3.0930   26.6850 N   0  0  0  0  0  0  0  0  0  0  0  0
    5.2590   -1.8580   27.4160 C   0  0  0  0  0  0  0  0  0  0  0  0
    3.7290   -2.8000   24.9660 O   0  0  0  0  0  0  0  0  0  0  0  0
    5.9280   -3.9380   24.3180 C   0  0  2  0  0  0  0  0  0  0  0  0
    6.7750   -3.0160   23.6870 C   0  0  0  0  0  0  0  0  0  0  0  0
    5.2360   -4.7840   23.3010 C   0  0  0  0  0  0  0  0  0  0  0  0
    6.8380   -3.6040   26.8000 C   0  0  0  0  0  0  0  0  0  0  0  0
    6.4770   -2.8360   22.2010 C   0  0  2  0  0  0  0  0  0  0  0  0
    6.0920   -5.0930   22.2640 C   0  0  0  0  0  0  0  0  0  0  0  0
    7.1590   -4.8690   27.6540 C   0  0  0  0  0  0  0  0  0  0  0  0
    7.9160   -2.9840   26.1260 C   0  0  0  0  0  0  0  0  0  0  0  0
    5.1370   -2.0810   21.9980 C   0  0  0  0  0  0  0  0  0  0  0  0
    6.5100   -4.0300   21.5440 N   0  0  0  0  0  0  0  0  0  0  0  0
    8.5820   -5.3610   27.7140 C   0  0  0  0  0  0  0  0  0  0  0  0
    9.2380   -3.4830   26.2050 C   0  0  0  0  0  0  0  0  0  0  0  0
    6.1690   -3.9890   20.2080 C   0  0  0  0  0  0  0  0  0  0  0  0
    5.0670   -0.8060   22.8470 C   0  0  0  0  0  0  0  0  0  0  0  0
    9.5770   -4.6970   27.0190 C   0  0  0  0  0  0  0  0  0  0  0  0
    5.1750   -4.6000   19.8640 O   0  0  0  0  0  0  0  0  0  0  0  0
    7.0430   -3.2270   19.2300 C   0  0  0  0  0  0  0  0  0  0  0  0
    5.6650    0.4970   22.1950 C   0  0  2  0  0  0  0  0  0  0  0  0
    5.1510    1.6610   22.7660 C   0  0  0  0  0  0  0  0  0  0  0  0
    5.6820    0.5640   20.6570 C   0  0  0  0  0  0  0  0  0  0  0  0
    3.8170    2.1570   22.3830 N   0  0  0  0  0  0  0  0  0  0  0  0
    6.6930   -0.1420   19.9680 C   0  0  0  0  0  0  0  0  0  0  0  0
    4.8290    1.2480   19.8390 C   0  0  0  0  0  0  0  0  0  0  0  0
    2.8060    2.4660   23.4240 C   0  0  0  0  0  0  0  0  0  0  0  0
    6.9280   -0.2330   18.6510 C   0  0  0  0  0  0  0  0  0  0  0  0
    5.0250    1.2050   18.3490 C   0  0  0  0  0  0  0  0  0  0  0  0
    2.7870    1.6790   24.6320 O   0  0  0  0  0  0  0  0  0  0  0  0
    2.0550    3.3360   23.2150 N   0  0  0  0  0  0  0  0  0  0  0  0
    6.0720    0.4720   17.6680 N   0  0  0  0  0  0  0  0  0  0  0  0
    0.7330    3.4200   23.8560 C   0  0  0  0  0  0  0  0  0  0  0  0
    0.5510    4.6470   24.5220 C   0  0  0  0  0  0  0  0  0  0  0  0
   -0.3480    3.0370   23.1290 C   0  0  0  0  0  0  0  0  0  0  0  0
   -0.7770    4.8270   25.2050 C   0  0  0  0  0  0  0  0  0  0  0  0
   -1.5050    3.0790   23.8250 C   0  0  0  0  0  0  0  0  0  0  0  0
   -1.8500    4.5060   24.1950 C   0  0  0  0  0  0  0  0  0  0  0  0
  1  2  1  0
  2  3  1  0
  1  4  2  0
  5  1  1  6
  5  6  1  0
  5  7  1  0
  2  8  1  0
  6  9  1  0
  7 10  1  0
  8 11  2  0
  8 12  1  0
  9 13  1  1
  9 14  1  0
 10 14  1  0
 11 15  1  0
 12 16  2  0
 14 17  1  0
 13 18  1  0
 15 19  2  0
 16 19  1  0
 17 20  2  0
 17 21  1  0
 22 18  1  6
 22 23  1  0
 22 24  1  0
 23 25  1  0
 24 26  2  0
 24 27  1  0
 25 28  1  0
 26 29  1  0
 27 30  2  0
 28 31  2  0
 28 32  1  0
 29 33  2  0
 30 33  1  0
 32 34  1  0
 34 35  1  0
 34 36  1  0
 35 37  1  0
 36 38  1  0
 37 39  1  0
 38 39  1  0
M  END
