x2754-x2608
     RDKit          3D

 36 39  0  0  0  0  0  0  0  0999 V2000
    4.7910   -3.2170   25.2650 C   0  0  0  0  0  0  0  0  0  0  0  0
    5.6620   -2.9780   26.4180 N   0  0  0  0  0  0  0  0  0  0  0  0
    5.0350   -2.1900   27.5160 C   0  0  0  0  0  0  0  0  0  0  0  0
    3.3810   -3.0530   25.3130 O   0  0  0  0  0  0  0  0  0  0  0  0
    5.4240   -3.6490   23.9650 C   0  0  1  0  0  0  0  0  0  0  0  0
    6.7690   -2.9320   23.7610 C   0  0  0  0  0  0  0  0  0  0  0  0
    5.5130   -5.0100   23.6230 C   0  0  0  0  0  0  0  0  0  0  0  0
    6.8990   -3.6040   26.7010 C   0  0  0  0  0  0  0  0  0  0  0  0
    6.9970   -2.9770   22.2630 C   0  0  2  0  0  0  0  0  0  0  0  0
    6.2380   -5.3410   22.4500 C   0  0  0  0  0  0  0  0  0  0  0  0
    7.0390   -4.7540   27.4760 C   0  0  0  0  0  0  0  0  0  0  0  0
    8.1300   -2.9660   26.1120 C   0  0  0  0  0  0  0  0  0  0  0  0
    6.0810   -1.7510   21.8930 C   0  0  0  0  0  0  0  0  0  0  0  0
    6.4940   -4.1650   21.5890 N   0  0  0  0  0  0  0  0  0  0  0  0
    8.2940   -5.3360   27.7260 C   0  0  0  0  0  0  0  0  0  0  0  0
    9.4320   -3.6440   26.4180 C   0  0  0  0  0  0  0  0  0  0  0  0
    6.1070   -4.0740   20.2780 C   0  0  0  0  0  0  0  0  0  0  0  0
    6.8560   -0.8110   21.0660 N   0  0  0  0  0  0  0  0  0  0  0  0
    9.4670   -4.7840   27.2040 C   0  0  0  0  0  0  0  0  0  0  0  0
    5.1240   -4.6410   19.8670 O   0  0  0  0  0  0  0  0  0  0  0  0
    6.9730   -3.2580   19.3190 C   0  0  0  0  0  0  0  0  0  0  0  0
    7.9460   -0.3070   21.5280 C   0  0  0  0  0  0  0  0  0  0  0  0
    6.2130   -0.0300   20.0120 C   0  0  0  0  0  0  0  0  0  0  0  0
    8.7300   -1.0600   22.5100 N   0  0  0  0  0  0  0  0  0  0  0  0
    8.3510    0.9710   21.0590 O   0  0  0  0  0  0  0  0  0  0  0  0
    6.6900    0.0190   18.5830 C   0  0  0  0  0  0  0  0  0  0  0  0
    5.0980    0.7330   20.3510 C   0  0  0  0  0  0  0  0  0  0  0  0
   10.0430   -0.6290   22.7130 C   0  0  0  0  0  0  0  0  0  0  0  0
    6.0610    0.8200   17.5440 N   0  0  0  0  0  0  0  0  0  0  0  0
    4.4660    1.5180   19.3860 C   0  0  0  0  0  0  0  0  0  0  0  0
   11.1190   -1.4150   22.9970 C   0  0  0  0  0  0  0  0  0  0  0  0
   10.3400    1.1460   22.5680 S   0  0  0  0  0  0  0  0  0  0  0  0
    4.9010    1.5840   18.0610 C   0  0  0  0  0  0  0  0  0  0  0  0
   12.0550    0.7680   22.8790 C   0  0  0  0  0  0  0  0  0  0  0  0
   12.3740   -0.5440   23.1030 C   0  0  0  0  0  0  0  0  0  0  0  0
   12.9840    1.8860   22.8600 C   0  0  0  0  0  0  0  0  0  0  0  0
  1  2  1  0
  2  3  1  0
  1  4  2  0
  5  1  1  1
  5  6  1  0
  5  7  1  0
  2  8  1  0
  6  9  1  0
  7 10  1  0
  8 11  2  0
  8 12  1  0
  9 13  1  6
  9 14  1  0
 10 14  1  0
 11 15  1  0
 12 16  2  0
 14 17  1  0
 13 18  1  0
 15 19  2  0
 16 19  1  0
 17 20  2  0
 17 21  1  0
 18 22  1  0
 18 23  1  0
 22 24  1  0
 22 25  2  0
 23 26  2  0
 23 27  1  0
 24 28  1  0
 26 29  1  0
 27 30  2  0
 28 31  2  0
 28 32  1  0
 29 33  2  0
 30 33  1  0
 32 34  1  0
 31 35  1  0
 34 35  2  0
 34 36  1  0
M  END
