x2754-x0195
     RDKit          3D

 37 40  0  0  0  0  0  0  0  0999 V2000
    4.8910   -2.8360   25.1480 C   0  0  0  0  0  0  0  0  0  0  0  0
    5.5290   -1.8870   26.0440 N   0  0  0  0  0  0  0  0  0  0  0  0
    4.8620   -1.6260   27.3250 C   0  0  0  0  0  0  0  0  0  0  0  0
    3.4910   -3.1120   25.2420 O   0  0  0  0  0  0  0  0  0  0  0  0
    5.7080   -3.5240   24.0960 C   0  0  0  0  0  0  0  0  0  0  0  0
    7.0070   -1.8230   26.0130 C   0  0  1  0  0  0  0  0  0  0  0  0
    6.0190   -2.4010   23.1060 C   0  0  0  0  0  0  0  0  0  0  0  0
    5.1350   -4.6010   23.4980 C   0  0  0  0  0  0  0  0  0  0  0  0
    7.6260   -0.4710   26.4800 C   0  0  0  0  0  0  0  0  0  0  0  0
    7.1240   -2.9480   22.2390 C   0  0  0  0  0  0  0  0  0  0  0  0
    6.0860   -5.0950   22.4290 C   0  0  0  0  0  0  0  0  0  0  0  0
    7.5880   -3.1330   26.5160 C   0  0  0  0  0  0  0  0  0  0  0  0
    8.6120    0.1610   25.4650 C   0  0  0  0  0  0  0  0  0  0  0  0
    6.6900   -4.1400   21.5280 N   0  0  0  0  0  0  0  0  0  0  0  0
    8.6560   -3.9530   25.8960 C   0  0  0  0  0  0  0  0  0  0  0  0
    7.0300   -3.5920   27.6720 C   0  0  0  0  0  0  0  0  0  0  0  0
    6.2470   -4.0320   20.2270 C   0  0  0  0  0  0  0  0  0  0  0  0
    9.9510   -0.5860   25.1940 C   0  0  0  0  0  0  0  0  0  0  0  0
    7.4310   -4.8810   28.3510 C   0  0  0  0  0  0  0  0  0  0  0  0
    9.0350   -5.1520   26.5290 C   0  0  0  0  0  0  0  0  0  0  0  0
    5.2190   -4.5940   19.8840 O   0  0  0  0  0  0  0  0  0  0  0  0
    7.0880   -3.2370   19.2390 C   0  0  0  0  0  0  0  0  0  0  0  0
    8.4140   -5.5580   27.7130 C   0  0  0  0  0  0  0  0  0  0  0  0
   10.6080   -0.2770   23.9010 N   0  0  0  0  0  0  0  0  0  0  0  0
   11.1620    0.8990   23.5820 C   0  0  0  0  0  0  0  0  0  0  0  0
   10.9090   -1.3910   22.9770 C   0  0  0  0  0  0  0  0  0  0  0  0
   12.4220    0.9250   23.1240 C   0  0  0  0  0  0  0  0  0  0  0  0
   12.3330   -1.3290   22.4190 C   0  0  0  0  0  0  0  0  0  0  0  0
   10.5030    2.0920   23.6910 C   0  0  0  0  0  0  0  0  0  0  0  0
   13.1870   -0.1770   22.9810 C   0  0  0  0  0  0  0  0  0  0  0  0
   13.1210    2.2110   22.7260 C   0  0  0  0  0  0  0  0  0  0  0  0
   11.0850    3.2970   23.3430 C   0  0  0  0  0  0  0  0  0  0  0  0
   10.1440    4.8080   23.5090 S   0  0  0  0  0  0  0  0  0  0  0  0
   12.4990    3.3860   22.8150 C   0  0  0  0  0  0  0  0  0  0  0  0
    9.7980    5.1340   24.8660 O   0  0  0  0  0  0  0  0  0  0  0  0
    9.0730    4.7860   22.5530 O   0  0  0  0  0  0  0  0  0  0  0  0
   11.2420    5.9750   22.9810 N   0  0  0  0  0  0  0  0  0  0  0  0
  1  2  1  0
  2  3  1  0
  1  4  2  0
  1  5  1  0
  2  6  1  0
  5  7  1  0
  5  8  1  0
  6  9  1  1
  7 10  1  0
  8 11  1  0
  6 12  1  0
  9 13  1  0
 10 14  1  0
 11 14  1  0
 12 15  2  0
 12 16  1  0
 14 17  1  0
 13 18  1  0
 16 19  2  0
 15 20  1  0
 17 21  2  0
 17 22  1  0
 19 23  1  0
 20 23  2  0
 18 24  1  0
 24 25  1  0
 24 26  1  0
 25 27  2  0
 26 28  1  0
 25 29  1  0
 27 30  1  0
 28 30  1  0
 27 31  1  0
 29 32  2  0
 32 33  1  0
 31 34  2  0
 32 34  1  0
 33 35  2  0
 33 36  2  0
 33 37  1  0
M  END
