x2754-x2703
     RDKit          3D

 48 52  0  0  0  0  0  0  0  0999 V2000
    7.4170   -1.5810   21.8250 N   0  0  0  0  0  0  0  0  0  0  0  0
    6.7940   -0.2000   21.6630 C   0  0  1  0  0  0  0  0  0  0  0  0
    7.7670    1.0260   21.8050 C   0  0  0  0  0  0  0  0  0  0  0  0
    8.6490   -1.6240   22.4520 C   0  0  0  0  0  0  0  0  0  0  0  0
    6.8220   -2.7250   22.3840 C   0  0  2  0  0  0  0  0  0  0  0  0
    6.1650    0.1820   20.3310 C   0  0  0  0  0  0  0  0  0  0  0  0
    8.8690   -1.2780   23.7730 C   0  0  0  0  0  0  0  0  0  0  0  0
    9.7130   -2.0390   21.7910 C   0  0  0  0  0  0  0  0  0  0  0  0
    6.3860   -3.8410   21.5240 N   0  0  0  0  0  0  0  0  0  0  0  0
    5.8620   -2.5250   23.2780 C   0  0  0  0  0  0  0  0  0  0  0  0
    7.3930    1.9500   22.7690 N   0  0  0  0  0  0  0  0  0  0  0  0
    8.7630    1.2010   21.0970 O   0  0  0  0  0  0  0  0  0  0  0  0
    6.0760   -3.8730   20.1920 C   0  0  0  0  0  0  0  0  0  0  0  0
    4.9230    0.8130   20.2910 C   0  0  0  0  0  0  0  0  0  0  0  0
    6.8160   -0.0580   19.1100 C   0  0  0  0  0  0  0  0  0  0  0  0
   11.0840   -2.1260   22.3660 N   0  0  0  0  0  0  0  0  0  0  0  0
   10.1270   -1.3550   24.3420 C   0  0  0  0  0  0  0  0  0  0  0  0
    5.7440   -3.6700   24.1340 C   0  0  1  0  0  0  0  0  0  0  0  0
    5.9700   -5.0130   22.3090 C   0  0  0  0  0  0  0  0  0  0  0  0
    4.8090   -3.2620   25.2870 C   0  0  0  0  0  0  0  0  0  0  0  0
    5.0960   -4.4820   19.8080 O   0  0  0  0  0  0  0  0  0  0  0  0
    7.0280   -3.1590   19.2360 C   0  0  0  0  0  0  0  0  0  0  0  0
    6.3170    0.2960   17.9140 N   0  0  0  0  0  0  0  0  0  0  0  0
    4.4070    1.1780   19.0710 C   0  0  0  0  0  0  0  0  0  0  0  0
   11.2220   -1.7780   23.6050 C   0  0  0  0  0  0  0  0  0  0  0  0
    8.0940    3.1690   22.9030 C   0  0  0  0  0  0  0  0  0  0  0  0
    5.1770   -4.5980   23.3310 C   0  0  0  0  0  0  0  0  0  0  0  0
   12.5980   -1.8360   24.1780 C   0  0  0  0  0  0  0  0  0  0  0  0
    3.4780   -2.9850   25.0640 O   0  0  0  0  0  0  0  0  0  0  0  0
    5.4330   -3.1980   26.6260 N   0  0  0  0  0  0  0  0  0  0  0  0
    5.1260    0.9110   17.9170 C   0  0  0  0  0  0  0  0  0  0  0  0
    9.3680    3.2770   23.4900 C   0  0  0  0  0  0  0  0  0  0  0  0
    7.5890    4.3420   22.4670 C   0  0  0  0  0  0  0  0  0  0  0  0
   10.0480    2.0350   24.0220 C   0  0  0  0  0  0  0  0  0  0  0  0
    6.2310    4.3790   21.8140 C   0  0  0  0  0  0  0  0  0  0  0  0
   12.9600   -2.9830   25.1510 C   0  0  0  0  0  0  0  0  0  0  0  0
   12.7650   -0.5100   24.8430 C   0  0  0  0  0  0  0  0  0  0  0  0
    5.0210   -2.1180   27.5020 C   0  0  0  0  0  0  0  0  0  0  0  0
   10.1350    4.5700   23.6410 C   0  0  0  0  0  0  0  0  0  0  0  0
    8.2800    5.6810   22.5740 C   0  0  0  0  0  0  0  0  0  0  0  0
    6.7480   -3.6990   26.8330 C   0  0  0  0  0  0  0  0  0  0  0  0
    9.1600    1.3570   25.0790 C   0  0  0  0  0  0  0  0  0  0  0  0
    9.5050    5.7730   23.1420 C   0  0  0  0  0  0  0  0  0  0  0  0
    6.9840   -4.8200   27.6570 C   0  0  0  0  0  0  0  0  0  0  0  0
    7.9420   -3.0370   26.1540 C   0  0  0  0  0  0  0  0  0  0  0  0
    8.2390   -5.3190   27.8550 C   0  0  0  0  0  0  0  0  0  0  0  0
    9.3280   -3.6090   26.3840 C   0  0  0  0  0  0  0  0  0  0  0  0
    9.4950   -4.6980   27.1950 C   0  0  0  0  0  0  0  0  0  0  0  0
  1  2  1  0
  2  3  1  6
  1  4  1  0
  5  1  1  6
  2  6  1  0
  4  7  2  0
  4  8  1  0
  5  9  1  0
  5 10  1  0
  3 11  1  0
  3 12  2  0
  9 13  1  0
  6 14  2  0
  6 15  1  0
  8 16  2  0
  7 17  1  0
 10 18  1  0
  9 19  1  0
 18 20  1  1
 13 21  2  0
 13 22  1  0
 15 23  2  0
 14 24  1  0
 16 25  1  0
 17 25  2  0
 11 26  1  0
 18 27  1  0
 19 27  1  0
 25 28  1  0
 20 29  2  0
 20 30  1  0
 23 31  1  0
 24 31  2  0
 26 32  2  0
 26 33  1  0
 32 34  1  0
 33 35  1  0
 28 36  1  0
 28 37  1  0
 30 38  1  0
 32 39  1  0
 33 40  2  0
 30 41  1  0
 34 42  1  0
 39 43  2  0
 40 43  1  0
 41 44  2  0
 41 45  1  0
 44 46  1  0
 45 47  2  0
 46 48  2  0
 47 48  1  0
M  END
