x2754-x2563
     RDKit          3D

 40 44  0  0  0  0  0  0  0  0999 V2000
    4.9420   -3.1570   25.2160 C   0  0  0  0  0  0  0  0  0  0  0  0
    5.6460   -3.0430   26.4870 N   0  0  0  0  0  0  0  0  0  0  0  0
    5.0430   -2.1550   27.5200 C   0  0  0  0  0  0  0  0  0  0  0  0
    3.5610   -2.8840   25.0220 O   0  0  0  0  0  0  0  0  0  0  0  0
    5.8210   -3.6230   24.0790 C   0  0  2  0  0  0  0  0  0  0  0  0
    6.1410   -2.3470   23.2600 C   0  0  0  0  0  0  0  0  0  0  0  0
    5.2510   -4.5310   23.1890 C   0  0  0  0  0  0  0  0  0  0  0  0
    6.9240   -3.5830   26.7240 C   0  0  0  0  0  0  0  0  0  0  0  0
    7.1270   -2.7830   22.1520 C   0  0  2  0  0  0  0  0  0  0  0  0
    6.2160   -5.1090   22.3460 C   0  0  0  0  0  0  0  0  0  0  0  0
    7.1730   -4.6490   27.6040 C   0  0  0  0  0  0  0  0  0  0  0  0
    8.0680   -2.9560   25.9530 C   0  0  0  0  0  0  0  0  0  0  0  0
    7.1230   -1.6570   21.0450 C   0  0  0  0  0  0  0  0  0  0  0  0
    6.6590   -4.0130   21.4940 N   0  0  0  0  0  0  0  0  0  0  0  0
    8.4620   -5.1710   27.8040 C   0  0  0  0  0  0  0  0  0  0  0  0
    9.4030   -3.5800   26.2300 C   0  0  0  0  0  0  0  0  0  0  0  0
    6.2270   -4.0060   20.1730 C   0  0  0  0  0  0  0  0  0  0  0  0
    7.1110   -0.3120   21.3430 C   0  0  1  0  0  0  0  0  0  0  0  0
    9.5450   -4.6310   27.1180 C   0  0  0  0  0  0  0  0  0  0  0  0
    5.2000   -4.5780   19.8560 O   0  0  0  0  0  0  0  0  0  0  0  0
    7.0740   -3.3160   19.0970 C   0  0  0  0  0  0  0  0  0  0  0  0
    8.4820    0.3020   21.2900 C   0  0  0  0  0  0  0  0  0  0  0  0
    6.5020    0.1650   20.2790 C   0  0  0  0  0  0  0  0  0  0  0  0
    8.6470    1.4920   20.9930 O   0  0  0  0  0  0  0  0  0  0  0  0
    9.4600   -0.5940   21.6120 N   0  0  0  0  0  0  0  0  0  0  0  0
    5.3480    0.8910   20.4170 C   0  0  0  0  0  0  0  0  0  0  0  0
    6.9990   -0.0440   19.0190 C   0  0  0  0  0  0  0  0  0  0  0  0
    6.3520    0.4960   17.8240 N   0  0  0  0  0  0  0  0  0  0  0  0
    4.6220    1.4780   19.2020 C   0  0  0  0  0  0  0  0  0  0  0  0
    4.7870    1.1250   21.6850 C   0  0  0  0  0  0  0  0  0  0  0  0
   10.2970   -0.4820   22.6960 C   0  0  0  0  0  0  0  0  0  0  0  0
    5.1260    1.2850   17.9410 C   0  0  0  0  0  0  0  0  0  0  0  0
    3.4450    2.2070   19.4510 C   0  0  0  0  0  0  0  0  0  0  0  0
    3.6360    1.8400   21.9110 C   0  0  0  0  0  0  0  0  0  0  0  0
   11.6770   -0.6560   22.6140 C   0  0  0  0  0  0  0  0  0  0  0  0
    9.7060   -0.1740   23.9320 C   0  0  0  0  0  0  0  0  0  0  0  0
    2.8860    2.4380   20.7080 C   0  0  0  0  0  0  0  0  0  0  0  0
   12.4250   -0.5260   23.7310 C   0  0  0  0  0  0  0  0  0  0  0  0
   10.4880   -0.0490   25.0630 C   0  0  0  0  0  0  0  0  0  0  0  0
   11.8580   -0.2350   24.9320 C   0  0  0  0  0  0  0  0  0  0  0  0
  1  2  1  0
  2  3  1  0
  1  4  2  0
  5  1  1  1
  5  6  1  0
  5  7  1  0
  2  8  1  0
  6  9  1  0
  7 10  1  0
  8 11  2  0
  8 12  1  0
  9 13  1  6
  9 14  1  0
 10 14  1  0
 11 15  1  0
 12 16  2  0
 14 17  1  0
 18 13  1  6
 15 19  2  0
 16 19  1  0
 17 20  2  0
 17 21  1  0
 18 22  1  0
 18 23  1  0
 22 24  2  0
 22 25  1  0
 23 26  1  0
 23 27  2  0
 27 28  1  0
 26 29  2  0
 26 30  1  0
 25 31  1  0
 28 32  2  0
 29 32  1  0
 29 33  1  0
 30 34  2  0
 31 35  2  0
 31 36  1  0
 33 37  2  0
 34 37  1  0
 35 38  1  0
 36 39  2  0
 38 40  2  0
 39 40  1  0
M  END
