x2754-x0874
     RDKit          3D

 32 35  0  0  0  0  0  0  0  0999 V2000
    4.7710   -3.2600   25.3500 C   0  0  0  0  0  0  0  0  0  0  0  0
    5.5320   -2.9580   26.5420 N   0  0  0  0  0  0  0  0  0  0  0  0
    4.8630   -2.1420   27.5570 C   0  0  0  0  0  0  0  0  0  0  0  0
    3.3460   -3.2610   25.3930 O   0  0  0  0  0  0  0  0  0  0  0  0
    5.4390   -3.5790   23.9460 C   0  0  1  0  0  0  0  0  0  0  0  0
    6.7960   -3.2730   23.9180 C   0  0  0  0  0  0  0  0  0  0  0  0
    5.2740   -5.0470   23.5070 C   0  0  0  0  0  0  0  0  0  0  0  0
    6.7870   -3.6210   26.9640 C   0  0  0  0  0  0  0  0  0  0  0  0
    7.1830   -3.0600   22.6190 C   0  0  2  0  0  0  0  0  0  0  0  0
    6.1200   -5.2180   22.2590 C   0  0  0  0  0  0  0  0  0  0  0  0
    7.1780   -4.9120   26.5060 C   0  0  0  0  0  0  0  0  0  0  0  0
    7.5890   -2.9280   27.8440 C   0  0  0  0  0  0  0  0  0  0  0  0
    7.0610   -1.5400   22.4070 C   0  0  0  0  0  0  0  0  0  0  0  0
    6.3970   -3.9520   21.7020 N   0  0  0  0  0  0  0  0  0  0  0  0
    8.3350   -5.5230   26.8890 C   0  0  0  0  0  0  0  0  0  0  0  0
    8.7510   -3.4890   28.2640 C   0  0  0  0  0  0  0  0  0  0  0  0
    6.2020   -3.8510   20.3060 C   0  0  0  0  0  0  0  0  0  0  0  0
    9.1540   -4.7250   27.8340 C   0  0  0  0  0  0  0  0  0  0  0  0
    8.4040   -0.7330   22.4210 C   0  0  1  0  0  0  0  0  0  0  0  0
    5.2320   -4.4610   19.8580 O   0  0  0  0  0  0  0  0  0  0  0  0
    7.1050   -3.1010   19.3270 C   0  0  0  0  0  0  0  0  0  0  0  0
    8.8470    0.2440   23.3450 C   0  0  1  0  0  0  0  0  0  0  0  0
    9.4020   -1.7090   22.4650 C   0  0  0  0  0  0  0  0  0  0  0  0
   10.3010    0.3890   22.8410 C   0  0  2  0  0  0  0  0  0  0  0  0
   10.3550   -0.8790   21.9690 C   0  0  1  0  0  0  0  0  0  0  0  0
    8.1080    1.5680   23.1600 C   0  0  0  0  0  0  0  0  0  0  0  0
   11.4900   -1.5840   22.0820 C   0  0  0  0  0  0  0  0  0  0  0  0
   11.6000    0.3140   23.6260 C   0  0  0  0  0  0  0  0  0  0  0  0
    8.7000    2.1930   22.1210 C   0  0  0  0  0  0  0  0  0  0  0  0
   12.6650   -1.0380   23.1860 S   0  0  0  0  0  0  0  0  0  0  0  0
    9.6540    3.2810   22.4520 N   0  0  0  0  0  0  0  0  0  0  0  0
    8.4750    1.8400   20.8160 O   0  0  0  0  0  0  0  0  0  0  0  0
  1  2  1  0
  2  3  1  0
  1  4  2  0
  5  1  1  1
  5  6  1  0
  5  7  1  0
  2  8  1  0
  6  9  1  0
  7 10  1  0
  8 11  2  0
  8 12  1  0
  9 13  1  6
  9 14  1  0
 10 14  1  0
 11 15  1  0
 12 16  2  0
 14 17  1  0
 15 18  2  0
 16 18  1  0
 19 13  1  1
 17 20  2  0
 17 21  1  0
 19 22  1  0
 19 23  1  0
 22 24  1  0
 25 23  1  1
 24 25  1  0
 22 26  1  6
 25 27  1  0
 24 28  1  1
 26 29  1  0
 27 30  2  0
 28 30  2  0
 29 31  1  0
 29 32  2  0
M  END
