x2754-x2646
     RDKit          3D

 38 41  0  0  0  0  0  0  0  0999 V2000
    4.8730   -3.2670   25.3340 C   0  0  0  0  0  0  0  0  0  0  0  0
    5.5490   -3.1250   26.6200 N   0  0  0  0  0  0  0  0  0  0  0  0
    5.0560   -2.0380   27.5090 C   0  0  0  0  0  0  0  0  0  0  0  0
    3.4970   -2.9770   25.1140 O   0  0  0  0  0  0  0  0  0  0  0  0
    5.7440   -3.7520   24.2040 C   0  0  2  0  0  0  0  0  0  0  0  0
    6.0140   -2.5220   23.3460 C   0  0  0  0  0  0  0  0  0  0  0  0
    5.2860   -4.8270   23.4480 C   0  0  0  0  0  0  0  0  0  0  0  0
    6.8550   -3.6120   26.7900 C   0  0  0  0  0  0  0  0  0  0  0  0
    6.9130   -2.8170   22.1370 C   0  0  1  0  0  0  0  0  0  0  0  0
    6.2590   -5.1740   22.5090 C   0  0  0  0  0  0  0  0  0  0  0  0
    7.1290   -4.7010   27.6250 C   0  0  0  0  0  0  0  0  0  0  0  0
    8.0150   -2.9650   26.0500 C   0  0  0  0  0  0  0  0  0  0  0  0
    8.3570   -2.7140   22.6700 C   0  0  0  0  0  0  0  0  0  0  0  0
    6.5230   -4.0170   21.6340 N   0  0  0  0  0  0  0  0  0  0  0  0
    8.4430   -5.1950   27.7790 C   0  0  0  0  0  0  0  0  0  0  0  0
    9.4220   -3.4610   26.1850 C   0  0  0  0  0  0  0  0  0  0  0  0
    6.1680   -4.0260   20.2930 C   0  0  0  0  0  0  0  0  0  0  0  0
    8.5400   -1.1570   22.9130 C   0  0  2  0  0  0  0  0  0  0  0  0
    9.5510   -4.6360   27.1160 C   0  0  0  0  0  0  0  0  0  0  0  0
    5.2180   -4.6820   19.9070 O   0  0  0  0  0  0  0  0  0  0  0  0
    6.9940   -3.2350   19.2800 C   0  0  0  0  0  0  0  0  0  0  0  0
    8.1140   -0.2360   21.9220 C   0  0  0  0  0  0  0  0  0  0  0  0
   10.0670   -0.8460   23.0260 C   0  0  0  0  0  0  0  0  0  0  0  0
    9.1680    0.6600   21.6090 O   0  0  0  0  0  0  0  0  0  0  0  0
    6.7820   -0.2470   21.3640 N   0  0  0  0  0  0  0  0  0  0  0  0
   10.5970    0.0590   23.9510 C   0  0  0  0  0  0  0  0  0  0  0  0
   10.9850   -1.5850   22.0580 C   0  0  0  0  0  0  0  0  0  0  0  0
    6.3230    0.2750   20.1650 C   0  0  0  0  0  0  0  0  0  0  0  0
   11.9620    0.3020   23.9920 C   0  0  0  0  0  0  0  0  0  0  0  0
   12.3140   -1.2820   22.1760 C   0  0  0  0  0  0  0  0  0  0  0  0
   13.3180   -2.0870   21.1080 Cl  0  0  0  0  0  0  0  0  0  0  0  0
    6.9310   -0.0150   18.7760 C   0  0  0  0  0  0  0  0  0  0  0  0
    5.1210    1.2250   20.1740 C   0  0  0  0  0  0  0  0  0  0  0  0
   12.7710   -0.3680   23.1120 C   0  0  0  0  0  0  0  0  0  0  0  0
    4.3910    1.6250   21.4180 C   0  0  0  0  0  0  0  0  0  0  0  0
    6.3210    0.6400   17.6230 N   0  0  0  0  0  0  0  0  0  0  0  0
    4.7050    1.7240   19.0140 C   0  0  0  0  0  0  0  0  0  0  0  0
    5.2100    1.5000   17.8130 C   0  0  0  0  0  0  0  0  0  0  0  0
  1  2  1  0
  2  3  1  0
  1  4  2  0
  5  1  1  1
  5  6  1  0
  5  7  1  0
  2  8  1  0
  6  9  1  0
  7 10  1  0
  8 11  2  0
  8 12  1  0
  9 13  1  1
  9 14  1  0
 10 14  1  0
 11 15  1  0
 12 16  2  0
 14 17  1  0
 18 13  1  6
 15 19  2  0
 16 19  1  0
 17 20  2  0
 17 21  1  0
 18 22  1  0
 18 23  1  0
 22 24  2  0
 22 25  1  0
 23 26  2  0
 23 27  1  0
 25 28  1  0
 26 29  1  0
 27 30  2  0
 30 31  1  0
 28 32  2  0
 28 33  1  0
 29 34  2  0
 30 34  1  0
 33 35  1  0
 32 36  1  0
 33 37  2  0
 36 38  2  0
 37 38  1  0
M  END
