x2754-x1249
     RDKit          3D

 39 42  0  0  0  0  0  0  0  0999 V2000
    5.1080   -3.3070   25.4230 C   0  0  0  0  0  0  0  0  0  0  0  0
    4.0140   -2.4770   25.1410 N   0  0  0  0  0  0  0  0  0  0  0  0
    3.6590   -2.0970   23.8190 C   0  0  0  0  0  0  0  0  0  0  0  0
    5.3590   -3.5950   26.7220 N   0  0  0  0  0  0  0  0  0  0  0  0
    5.9990   -3.8500   24.2960 C   0  0  0  0  0  0  0  0  0  0  0  0
    4.5920   -2.7510   27.7290 C   0  0  0  0  0  0  0  0  0  0  0  0
    6.3250   -2.8160   23.4250 C   0  0  0  0  0  0  0  0  0  0  0  0
    5.3680   -4.9080   23.4090 C   0  0  0  0  0  0  0  0  0  0  0  0
    6.6820   -3.9110   27.0460 C   0  0  0  0  0  0  0  0  0  0  0  0
    4.3040   -0.8310   23.2840 C   0  0  0  0  0  0  0  0  0  0  0  0
    7.3440   -3.3550   22.4350 C   0  0  0  0  0  0  0  0  0  0  0  0
    6.1900   -5.4310   22.3970 C   0  0  0  0  0  0  0  0  0  0  0  0
    7.1350   -5.3720   27.1600 C   0  0  0  0  0  0  0  0  0  0  0  0
    7.6040   -2.9170   27.2660 C   0  0  0  0  0  0  0  0  0  0  0  0
    6.6650   -4.3990   21.6590 N   0  0  0  0  0  0  0  0  0  0  0  0
    8.5590   -5.6590   27.5060 C   0  0  0  0  0  0  0  0  0  0  0  0
    8.9100   -3.1930   27.5870 C   0  0  0  0  0  0  0  0  0  0  0  0
    4.0930    0.3260   24.2600 C   0  0  2  0  0  0  0  0  0  0  0  0
    6.2290   -4.1560   20.3680 C   0  0  0  0  0  0  0  0  0  0  0  0
    9.4360   -4.6140   27.7190 C   0  0  0  0  0  0  0  0  0  0  0  0
    3.5010    1.3120   23.5220 O   0  0  0  0  0  0  0  0  0  0  0  0
    5.3980    0.8570   24.7650 C   0  0  0  0  0  0  0  0  0  0  0  0
    5.2050   -4.6550   19.9220 O   0  0  0  0  0  0  0  0  0  0  0  0
    7.0930   -3.2910   19.4570 C   0  0  0  0  0  0  0  0  0  0  0  0
    4.2870    1.7710   22.4960 C   0  0  0  0  0  0  0  0  0  0  0  0
    6.1890    1.4840   23.8770 N   0  0  0  0  0  0  0  0  0  0  0  0
    7.6640    1.6390   24.0180 C   0  0  0  0  0  0  0  0  0  0  0  0
    5.4770    2.2960   22.8660 C   0  0  0  0  0  0  0  0  0  0  0  0
    8.1800    0.8700   24.6950 N   0  0  0  0  0  0  0  0  0  0  0  0
    8.3840    2.6720   23.3570 O   0  0  0  0  0  0  0  0  0  0  0  0
    9.5920    1.1570   24.9340 C   0  0  0  0  0  0  0  0  0  0  0  0
   10.5250    0.4040   24.0120 C   0  0  0  0  0  0  0  0  0  0  0  0
   11.8440    0.8080   23.7800 C   0  0  0  0  0  0  0  0  0  0  0  0
   10.0070   -0.6860   23.4310 C   0  0  0  0  0  0  0  0  0  0  0  0
   12.6500    0.1120   22.9810 C   0  0  0  0  0  0  0  0  0  0  0  0
   10.8830   -1.5020   22.5170 C   0  0  0  0  0  0  0  0  0  0  0  0
   12.1460   -1.1280   22.3090 C   0  0  0  0  0  0  0  0  0  0  0  0
   12.8940   -1.9550   21.4670 C   0  0  0  0  0  0  0  0  0  0  0  0
   13.4900   -2.8670   20.7160 N   0  0  0  0  0  0  0  0  0  0  0  0
  1  2  2  3
  2  3  1  0
  1  4  1  0
  1  5  1  0
  4  6  1  0
  5  7  1  0
  5  8  1  0
  4  9  1  0
  3 10  1  0
  7 11  1  0
  8 12  1  0
  9 13  2  0
  9 14  1  0
 11 15  1  0
 12 15  1  0
 13 16  1  0
 14 17  2  0
 18 10  1  6
 15 19  1  0
 16 20  2  0
 17 20  1  0
 18 21  1  0
 18 22  1  0
 19 23  2  0
 19 24  1  0
 21 25  1  0
 22 26  1  0
 26 27  1  0
 25 28  1  0
 26 28  1  0
 27 29  1  0
 27 30  2  0
 29 31  1  0
 31 32  1  0
 32 33  2  0
 32 34  1  0
 33 35  1  0
 34 36  2  0
 35 37  2  0
 36 37  1  0
 37 38  1  0
 38 39  3  0
M  END
