x2754-x2572
     RDKit          3D

 39 42  0  0  0  0  0  0  0  0999 V2000
    4.9670   -3.3800   25.2560 C   0  0  0  0  0  0  0  0  0  0  0  0
    5.3410   -3.2530   26.6650 N   0  0  0  0  0  0  0  0  0  0  0  0
    4.7550   -2.0800   27.3670 C   0  0  0  0  0  0  0  0  0  0  0  0
    3.7040   -2.9360   24.7750 O   0  0  0  0  0  0  0  0  0  0  0  0
    5.9420   -4.0250   24.2380 C   0  0  2  0  0  0  0  0  0  0  0  0
    6.9350   -2.9090   23.8200 C   0  0  0  0  0  0  0  0  0  0  0  0
    5.1450   -4.5060   23.2200 C   0  0  0  0  0  0  0  0  0  0  0  0
    6.6140   -3.7370   27.0960 C   0  0  0  0  0  0  0  0  0  0  0  0
    7.1090   -2.8070   22.2700 C   0  0  2  0  0  0  0  0  0  0  0  0
    5.9800   -4.9630   22.2320 C   0  0  0  0  0  0  0  0  0  0  0  0
    7.0540   -5.0440   26.7830 C   0  0  0  0  0  0  0  0  0  0  0  0
    7.4340   -2.9160   27.8470 C   0  0  0  0  0  0  0  0  0  0  0  0
    6.3620   -1.5270   21.7980 C   0  0  0  0  0  0  0  0  0  0  0  0
    6.6030   -3.9980   21.5460 N   0  0  0  0  0  0  0  0  0  0  0  0
    8.3050   -5.5440   27.1940 C   0  0  0  0  0  0  0  0  0  0  0  0
    8.7770   -3.4260   28.3130 C   0  0  0  0  0  0  0  0  0  0  0  0
    6.1860   -3.9190   20.2400 C   0  0  0  0  0  0  0  0  0  0  0  0
    7.0830   -0.4920   21.0230 N   0  0  0  0  0  0  0  0  0  0  0  0
    9.1960   -4.8020   27.9420 C   0  0  0  0  0  0  0  0  0  0  0  0
    5.1550   -4.4190   19.8250 O   0  0  0  0  0  0  0  0  0  0  0  0
    7.1310   -3.2100   19.2900 C   0  0  0  0  0  0  0  0  0  0  0  0
    8.1770    0.2070   21.7280 C   0  0  0  0  0  0  0  0  0  0  0  0
    6.3940    0.1770   19.9990 C   0  0  0  0  0  0  0  0  0  0  0  0
    8.7650    1.4070   21.2030 O   0  0  0  0  0  0  0  0  0  0  0  0
    8.6950   -0.3860   23.0410 C   0  0  0  0  0  0  0  0  0  0  0  0
    6.9080   -0.0740   18.7260 C   0  0  0  0  0  0  0  0  0  0  0  0
    5.3320    1.0050   20.1800 C   0  0  0  0  0  0  0  0  0  0  0  0
    4.7650    1.2930   21.5390 C   0  0  0  0  0  0  0  0  0  0  0  0
    6.2680    0.5920   17.5870 N   0  0  0  0  0  0  0  0  0  0  0  0
    4.7300    1.6210   19.1520 C   0  0  0  0  0  0  0  0  0  0  0  0
   10.1980   -0.2970   23.0020 C   0  0  0  0  0  0  0  0  0  0  0  0
    5.1880    1.4260   17.8730 C   0  0  0  0  0  0  0  0  0  0  0  0
   10.8730    0.7120   23.6500 C   0  0  0  0  0  0  0  0  0  0  0  0
   10.9240   -1.2250   22.3030 C   0  0  0  0  0  0  0  0  0  0  0  0
   12.2310    0.7870   23.5920 C   0  0  0  0  0  0  0  0  0  0  0  0
   12.4470   -1.2360   22.1740 C   0  0  0  0  0  0  0  0  0  0  0  0
   13.0620   -2.2500   21.4170 C   0  0  0  0  0  0  0  0  0  0  0  0
   13.0910   -0.2000   22.8360 C   0  0  0  0  0  0  0  0  0  0  0  0
   13.5830   -3.3610   20.6290 N   0  0  0  0  0  0  0  0  0  0  0  0
  1  2  1  0
  2  3  1  0
  1  4  2  0
  5  1  1  1
  5  6  1  0
  5  7  1  0
  2  8  1  0
  6  9  1  0
  7 10  1  0
  8 11  2  0
  8 12  1  0
  9 13  1  6
  9 14  1  0
 10 14  1  0
 11 15  1  0
 12 16  2  0
 14 17  1  0
 13 18  1  0
 15 19  2  0
 16 19  1  0
 17 20  2  0
 17 21  1  0
 18 22  1  0
 18 23  1  0
 22 24  2  0
 22 25  1  0
 23 26  2  0
 23 27  1  0
 27 28  1  0
 26 29  1  0
 27 30  2  0
 25 31  1  0
 29 32  2  0
 30 32  1  0
 31 33  2  0
 31 34  1  0
 33 35  1  0
 34 36  2  0
 36 37  1  0
 35 38  2  0
 36 38  1  0
 37 39  3  0
M  END
