x2754-x2694
     RDKit          3D

 49 53  0  0  0  0  0  0  0  0999 V2000
    7.2690   -1.1150   22.4400 C   0  0  2  0  0  0  0  0  0  0  0  0
    6.9580    0.2770   21.7110 C   0  0  1  0  0  0  0  0  0  0  0  0
    7.9890    1.4010   21.7640 C   0  0  0  0  0  0  0  0  0  0  0  0
    6.5040   -0.9210   23.7510 C   0  0  0  0  0  0  0  0  0  0  0  0
    8.7290   -1.0770   22.8350 C   0  0  0  0  0  0  0  0  0  0  0  0
    7.0120   -2.7360   22.1390 C   0  0  2  0  0  0  0  0  0  0  0  0
    6.4420    0.3240   20.3250 C   0  0  0  0  0  0  0  0  0  0  0  0
    9.0750   -0.4520   23.9620 N   0  0  0  0  0  0  0  0  0  0  0  0
    9.9110   -1.5660   22.2920 C   0  0  0  0  0  0  0  0  0  0  0  0
    5.9050   -3.4160   21.4200 N   0  0  0  0  0  0  0  0  0  0  0  0
    7.1530   -3.4170   23.3460 C   0  0  0  0  0  0  0  0  0  0  0  0
    7.6640    2.4780   22.7020 N   0  0  0  0  0  0  0  0  0  0  0  0
    8.9910    1.4170   21.0690 O   0  0  0  0  0  0  0  0  0  0  0  0
    5.9250   -3.6580   20.0900 C   0  0  0  0  0  0  0  0  0  0  0  0
    5.1190    1.0380   20.2440 C   0  0  0  0  0  0  0  0  0  0  0  0
    6.9010   -0.0920   19.0930 C   0  0  0  0  0  0  0  0  0  0  0  0
   10.4390   -0.5460   24.1270 O   0  0  0  0  0  0  0  0  0  0  0  0
   10.9600   -1.2290   23.1050 C   0  0  0  0  0  0  0  0  0  0  0  0
    6.0170   -4.0690   24.0800 C   0  0  1  0  0  0  0  0  0  0  0  0
    5.6760   -4.7700   22.0160 C   0  0  0  0  0  0  0  0  0  0  0  0
   12.4630   -1.4600   23.0500 C   0  0  0  0  0  0  0  0  0  0  0  0
    5.2300   -3.1150   25.0310 C   0  0  0  0  0  0  0  0  0  0  0  0
    5.0560   -4.3940   19.7050 O   0  0  0  0  0  0  0  0  0  0  0  0
    6.9770   -3.0560   19.1450 C   0  0  0  0  0  0  0  0  0  0  0  0
    6.3110    0.0780   17.8960 N   0  0  0  0  0  0  0  0  0  0  0  0
    4.5090    1.2140   19.0120 C   0  0  0  0  0  0  0  0  0  0  0  0
    8.5140    3.6320   23.0110 C   0  0  0  0  0  0  0  0  0  0  0  0
    5.1590   -4.5670   23.1990 C   0  0  0  0  0  0  0  0  0  0  0  0
   13.0050   -0.0130   23.1480 C   0  0  0  0  0  0  0  0  0  0  0  0
   12.8680   -2.0790   21.7190 C   0  0  0  0  0  0  0  0  0  0  0  0
   12.9830   -2.4210   24.2090 C   0  0  0  0  0  0  0  0  0  0  0  0
    4.1330   -2.6350   24.7160 O   0  0  0  0  0  0  0  0  0  0  0  0
    5.8130   -2.8720   26.2820 N   0  0  0  0  0  0  0  0  0  0  0  0
    5.1390    0.7270   17.8910 C   0  0  0  0  0  0  0  0  0  0  0  0
    9.7630    3.4440   23.6350 C   0  0  0  0  0  0  0  0  0  0  0  0
    8.2150    4.9310   22.7460 C   0  0  0  0  0  0  0  0  0  0  0  0
   10.2540    2.0700   23.9990 C   0  0  0  0  0  0  0  0  0  0  0  0
    4.9460   -2.2870   27.3120 C   0  0  0  0  0  0  0  0  0  0  0  0
   10.6760    4.5670   23.9790 C   0  0  0  0  0  0  0  0  0  0  0  0
    9.1150    6.1040   23.0850 C   0  0  0  0  0  0  0  0  0  0  0  0
    6.9600   -3.5800   26.7010 C   0  0  0  0  0  0  0  0  0  0  0  0
   10.3060    5.9100   23.6880 C   0  0  0  0  0  0  0  0  0  0  0  0
    6.9360   -4.5450   27.7120 C   0  0  0  0  0  0  0  0  0  0  0  0
    8.3010   -3.3280   26.0470 C   0  0  0  0  0  0  0  0  0  0  0  0
   11.0470    7.0140   23.9710 O   0  0  0  0  0  0  0  0  0  0  0  0
    8.0790   -5.1900   28.0620 C   0  0  0  0  0  0  0  0  0  0  0  0
    9.5660   -4.0500   26.4480 C   0  0  0  0  0  0  0  0  0  0  0  0
   11.8880    6.8990   25.1110 C   0  0  0  0  0  0  0  0  0  0  0  0
    9.4960   -4.9880   27.4540 C   0  0  0  0  0  0  0  0  0  0  0  0
  1  2  1  0
  2  3  1  6
  1  4  1  1
  1  5  1  0
  1  6  1  0
  2  7  1  0
  5  8  2  0
  5  9  1  0
  6 10  1  0
  6 11  1  1
  3 12  1  0
  3 13  2  0
 10 14  1  0
  7 15  2  0
  7 16  1  0
  8 17  1  0
  9 18  2  0
 17 18  1  0
 11 19  1  0
 10 20  1  0
 18 21  1  0
 19 22  1  6
 14 23  2  0
 14 24  1  0
 16 25  2  0
 15 26  1  0
 12 27  1  0
 19 28  1  0
 20 28  1  0
 21 29  1  0
 21 30  1  0
 21 31  1  0
 22 32  2  0
 22 33  1  0
 25 34  1  0
 26 34  2  0
 27 35  2  0
 27 36  1  0
 35 37  1  0
 33 38  1  0
 35 39  1  0
 36 40  2  0
 33 41  1  0
 39 42  2  0
 40 42  1  0
 41 43  2  0
 41 44  1  0
 42 45  1  0
 43 46  1  0
 44 47  2  0
 45 48  1  0
 46 49  2  0
 47 49  1  0
M  END
