x2754-x1375
     RDKit          3D

 32 34  0  0  0  0  0  0  0  0999 V2000
    4.9110   -2.9820   25.9030 C   0  0  0  0  0  0  0  0  0  0  0  0
    3.5520   -3.3980   26.0510 N   0  0  0  0  0  0  0  0  0  0  0  0
    3.3100   -4.2800   24.9660 C   0  0  0  0  0  0  0  0  0  0  0  0
    5.6280   -2.3260   26.8640 N   0  0  0  0  0  0  0  0  0  0  0  0
    5.6840   -3.3620   24.5810 C   0  0  0  0  0  0  0  0  0  0  0  0
    4.8600   -1.7980   28.0540 C   0  0  0  0  0  0  0  0  0  0  0  0
    5.6240   -2.4980   23.4510 C   0  0  0  0  0  0  0  0  0  0  0  0
    6.8460   -3.0630   26.9820 C   0  0  0  0  0  0  0  0  0  0  0  0
    6.6240   -2.7020   22.2830 C   0  0  0  0  0  0  0  0  0  0  0  0
    7.1500   -4.1630   27.8330 C   0  0  0  0  0  0  0  0  0  0  0  0
    7.7300   -2.5880   26.1160 C   0  0  0  0  0  0  0  0  0  0  0  0
    3.7260   -5.5390   25.1600 C   0  0  0  0  0  0  0  0  0  0  0  0
    6.5740   -3.6820   21.6420 N   0  0  0  0  0  0  0  0  0  0  0  0
    8.4320   -4.7670   27.7130 C   0  0  0  0  0  0  0  0  0  0  0  0
    8.9360   -3.1980   26.0460 C   0  0  0  0  0  0  0  0  0  0  0  0
    3.6390   -6.8180   24.1270 S   0  0  0  0  0  0  0  0  0  0  0  0
    6.3330   -3.7430   20.2560 C   0  0  0  0  0  0  0  0  0  0  0  0
    2.2680   -6.8730   23.6670 O   0  0  0  0  0  0  0  0  0  0  0  0
    4.2380   -7.9940   24.6530 O   0  0  0  0  0  0  0  0  0  0  0  0
    6.2220   -4.9020   22.3140 C   0  0  0  0  0  0  0  0  0  0  0  0
    9.3180   -4.2950   26.8110 C   0  0  0  0  0  0  0  0  0  0  0  0
    4.5230   -6.5810   22.7350 C   0  0  0  0  0  0  0  0  0  0  0  0
    5.3430   -4.3480   19.8380 O   0  0  0  0  0  0  0  0  0  0  0  0
    7.3020   -3.1070   19.2550 C   0  0  0  0  0  0  0  0  0  0  0  0
   10.4330   -4.6560   26.4650 O   0  0  0  0  0  0  0  0  0  0  0  0
    4.7840   -5.2060   22.3760 C   0  0  0  0  0  0  0  0  0  0  0  0
    9.9550   -4.6250   25.1910 C   0  0  0  0  0  0  0  0  0  0  0  0
   10.1860   -3.5350   24.2180 C   0  0  0  0  0  0  0  0  0  0  0  0
    9.1360   -5.6890   24.8210 C   0  0  0  0  0  0  0  0  0  0  0  0
    9.5860   -3.5790   23.0110 C   0  0  0  0  0  0  0  0  0  0  0  0
    8.4600   -5.8470   23.5730 C   0  0  0  0  0  0  0  0  0  0  0  0
    8.6670   -4.8030   22.6700 C   0  0  0  0  0  0  0  0  0  0  0  0
  1  2  2  0
  2  3  1  0
  1  4  1  0
  1  5  1  0
  4  6  1  0
  5  7  1  0
  4  8  1  0
  7  9  1  0
  8 10  2  0
  8 11  1  0
  3 12  2  0
  9 13  1  0
 10 14  1  0
 11 15  2  0
 12 16  1  0
 13 17  1  0
 16 18  1  0
 16 19  1  0
 13 20  1  0
 14 21  2  0
 15 21  1  0
 16 22  1  0
 17 23  2  0
 17 24  1  0
 21 25  1  0
 20 26  1  0
 22 26  1  0
 25 27  1  0
 27 28  2  0
 27 29  1  0
 28 30  1  0
 29 31  2  0
 30 32  2  0
 31 32  1  0
M  END
