x2754-x3115-x0426
     RDKit          3D

 56 60  0  0  0  0  0  0  0  0999 V2000
    7.3400   -1.6350   21.7650 N   0  0  0  0  0  0  0  0  0  0  0  0
    6.6970   -0.2840   21.7290 C   0  0  1  0  0  0  0  0  0  0  0  0
    7.7560    0.8280   22.0120 C   0  0  0  0  0  0  0  0  0  0  0  0
    8.6200   -1.6220   22.3300 C   0  0  0  0  0  0  0  0  0  0  0  0
    6.7310   -2.8620   22.3580 C   0  0  2  0  0  0  0  0  0  0  0  0
    6.0130    0.1980   20.4570 C   0  0  0  0  0  0  0  0  0  0  0  0
    9.8790   -1.1870   21.6250 C   0  0  0  0  0  0  0  0  0  0  0  0
    8.7700   -2.0720   23.6600 C   0  0  0  0  0  0  0  0  0  0  0  0
    6.1760   -3.9480   21.5650 N   0  0  0  0  0  0  0  0  0  0  0  0
    5.8770   -2.5960   23.4050 C   0  0  0  0  0  0  0  0  0  0  0  0
    7.6050    1.7550   22.9810 N   0  0  0  0  0  0  0  0  0  0  0  0
    8.7700    0.9720   21.3340 O   0  0  0  0  0  0  0  0  0  0  0  0
    5.9920   -3.8740   20.2000 C   0  0  0  0  0  0  0  0  0  0  0  0
    4.7610    0.7980   20.2860 C   0  0  0  0  0  0  0  0  0  0  0  0
    6.7960    0.0440   19.1510 C   0  0  0  0  0  0  0  0  0  0  0  0
   11.1740   -1.2960   22.3400 C   0  0  0  0  0  0  0  0  0  0  0  0
    9.9850   -2.1510   24.3010 C   0  0  0  0  0  0  0  0  0  0  0  0
    5.7740   -3.7020   24.2280 C   0  0  1  0  0  0  0  0  0  0  0  0
    5.8850   -5.1670   22.3450 C   0  0  0  0  0  0  0  0  0  0  0  0
    8.0960    3.0310   23.1580 C   0  0  0  0  0  0  0  0  0  0  0  0
    3.8890    1.0190   21.3590 C   0  0  0  0  0  0  0  0  0  0  0  0
    5.0070   -3.3650   25.5350 C   0  0  0  0  0  0  0  0  0  0  0  0
    5.0410   -4.4710   19.7790 O   0  0  0  0  0  0  0  0  0  0  0  0
    6.9350   -3.1420   19.2520 C   0  0  0  0  0  0  0  0  0  0  0  0
    6.4220    0.4240   17.9090 N   0  0  0  0  0  0  0  0  0  0  0  0
    4.3280    1.2120   19.0300 C   0  0  0  0  0  0  0  0  0  0  0  0
   11.1140   -1.7770   23.6130 C   0  0  0  0  0  0  0  0  0  0  0  0
    5.2570   -4.8530   23.5790 C   0  0  0  0  0  0  0  0  0  0  0  0
    7.8090    4.1330   22.3600 C   0  0  0  0  0  0  0  0  0  0  0  0
   12.4510   -1.8760   24.2160 C   0  0  0  0  0  0  0  0  0  0  0  0
    4.3400    1.8740   22.5520 C   0  0  0  0  0  0  0  0  0  0  0  0
    3.6700   -3.5350   25.6080 O   0  0  0  0  0  0  0  0  0  0  0  0
    5.7180   -2.9250   26.5910 N   0  0  0  0  0  0  0  0  0  0  0  0
    5.2280    1.0020   17.8310 C   0  0  0  0  0  0  0  0  0  0  0  0
    8.4740    5.2160   22.8860 O   0  0  0  0  0  0  0  0  0  0  0  0
   13.5070   -2.1600   23.3130 C   0  0  0  0  0  0  0  0  0  0  0  0
   12.3310   -2.9410   25.2310 C   0  0  0  0  0  0  0  0  0  0  0  0
   12.5140   -0.6390   25.0160 C   0  0  0  0  0  0  0  0  0  0  0  0
    3.2360    2.5580   23.2170 N   0  0  0  0  0  0  0  0  0  0  0  0
    5.0930   -2.1290   27.6710 C   0  0  0  0  0  0  0  0  0  0  0  0
    6.8900   -3.7110   26.9600 C   0  0  0  0  0  0  0  0  0  0  0  0
    8.2420    6.4190   22.1460 C   0  0  0  0  0  0  0  0  0  0  0  0
    2.2200    1.8430   23.8090 C   0  0  0  0  0  0  0  0  0  0  0  0
    6.9070   -4.8580   27.7640 C   0  0  0  0  0  0  0  0  0  0  0  0
    8.1600   -3.1850   26.3800 C   0  0  0  0  0  0  0  0  0  0  0  0
    2.1400    0.6180   23.7470 O   0  0  0  0  0  0  0  0  0  0  0  0
    1.1860    2.6180   24.5530 C   0  0  0  0  0  0  0  0  0  0  0  0
    8.1160   -5.5210   28.0330 C   0  0  0  0  0  0  0  0  0  0  0  0
    9.3470   -3.9240   26.7060 C   0  0  0  0  0  0  0  0  0  0  0  0
    1.5040    3.8070   25.2240 C   0  0  0  0  0  0  0  0  0  0  0  0
   -0.2580    2.0420   24.5470 C   0  0  0  0  0  0  0  0  0  0  0  0
    9.2910   -5.0280   27.4960 C   0  0  0  0  0  0  0  0  0  0  0  0
    2.7460    4.3180   25.2400 F   0  0  0  0  0  0  0  0  0  0  0  0
   -1.1630    2.8430   25.2740 C   0  0  0  0  0  0  0  0  0  0  0  0
    0.4870    4.4930   25.9060 C   0  0  0  0  0  0  0  0  0  0  0  0
   -0.7960    4.0100   25.9180 C   0  0  0  0  0  0  0  0  0  0  0  0
  1  2  1  0
  2  3  1  6
  1  4  1  0
  5  1  1  6
  2  6  1  0
  4  7  2  0
  4  8  1  0
  5  9  1  0
  5 10  1  0
  3 11  1  0
  3 12  2  0
  9 13  1  0
  6 14  1  0
  6 15  2  0
  7 16  1  0
  8 17  2  0
 10 18  1  0
  9 19  1  0
 11 20  1  0
 14 21  1  0
 18 22  1  1
 13 23  2  0
 13 24  1  0
 15 25  1  0
 14 26  2  0
 16 27  2  0
 17 27  1  0
 18 28  1  0
 19 28  1  0
 20 29  1  0
 27 30  1  0
 21 31  1  0
 22 32  2  0
 22 33  1  0
 25 34  2  0
 26 34  1  0
 29 35  1  0
 30 36  1  0
 30 37  1  0
 30 38  1  0
 31 39  1  0
 33 40  1  0
 33 41  1  0
 35 42  1  0
 39 43  1  0
 41 44  2  0
 41 45  1  0
 43 46  2  0
 43 47  1  0
 44 48  1  0
 45 49  2  0
 47 50  2  0
 47 51  1  0
 48 52  2  0
 49 52  1  0
 50 53  1  0
 51 54  2  0
 50 55  1  0
 54 56  1  0
 55 56  2  0
M  END
