x2754-x2643-x2694-x3124
     RDKit          3D

 50 54  0  0  0  0  0  0  0  0999 V2000
    7.4410   -1.1860   22.3280 C   0  0  2  0  0  0  0  0  0  0  0  0
    6.9810    0.1480   21.6490 C   0  0  1  0  0  0  0  0  0  0  0  0
    8.0460    1.2800   21.8230 C   0  0  0  0  0  0  0  0  0  0  0  0
    7.0440   -0.6980   23.6940 C   0  0  0  0  0  0  0  0  0  0  0  0
    8.9140   -1.2990   22.7680 C   0  0  0  0  0  0  0  0  0  0  0  0
    6.7780   -2.6510   22.4230 C   0  0  2  0  0  0  0  0  0  0  0  0
    6.3320    0.3630   20.2380 C   0  0  0  0  0  0  0  0  0  0  0  0
    9.1750   -1.5070   24.0920 N   0  0  0  0  0  0  0  0  0  0  0  0
   10.1150   -1.2350   22.1270 C   0  0  0  0  0  0  0  0  0  0  0  0
    6.6790   -3.7550   21.5370 N   0  0  0  0  0  0  0  0  0  0  0  0
    5.5170   -2.5590   22.9770 C   0  0  0  0  0  0  0  0  0  0  0  0
    7.7920    2.2430   22.7960 N   0  0  0  0  0  0  0  0  0  0  0  0
    9.0430    1.3620   21.1200 O   0  0  0  0  0  0  0  0  0  0  0  0
    6.3000   -3.6920   20.1830 C   0  0  0  0  0  0  0  0  0  0  0  0
    5.1210    1.0510   20.2270 C   0  0  0  0  0  0  0  0  0  0  0  0
    6.9660   -0.0880   19.0890 C   0  0  0  0  0  0  0  0  0  0  0  0
   10.5570   -1.5660   24.2520 O   0  0  0  0  0  0  0  0  0  0  0  0
   11.1360   -1.3950   23.0420 C   0  0  0  0  0  0  0  0  0  0  0  0
    5.5570   -3.5920   23.8860 C   0  0  1  0  0  0  0  0  0  0  0  0
    6.5050   -4.9520   22.2510 C   0  0  0  0  0  0  0  0  0  0  0  0
   12.5500   -1.3780   22.8340 C   0  0  0  0  0  0  0  0  0  0  0  0
    4.4330   -3.1840   24.7750 C   0  0  0  0  0  0  0  0  0  0  0  0
    5.2530   -4.2270   19.7970 O   0  0  0  0  0  0  0  0  0  0  0  0
    7.2690   -3.0780   19.2090 C   0  0  0  0  0  0  0  0  0  0  0  0
    6.3620    0.1830   17.9450 N   0  0  0  0  0  0  0  0  0  0  0  0
    4.5300    1.3060   19.0250 C   0  0  0  0  0  0  0  0  0  0  0  0
    8.5770    3.4350   23.0570 C   0  0  0  0  0  0  0  0  0  0  0  0
    5.4640   -4.8080   23.2080 C   0  0  0  0  0  0  0  0  0  0  0  0
   13.0330   -0.0120   23.0150 C   0  0  0  0  0  0  0  0  0  0  0  0
   12.9110   -1.9320   21.4520 C   0  0  0  0  0  0  0  0  0  0  0  0
   13.3230   -2.2510   23.8400 C   0  0  0  0  0  0  0  0  0  0  0  0
    3.2660   -3.3090   24.4450 O   0  0  0  0  0  0  0  0  0  0  0  0
    4.7900   -2.6500   26.0180 N   0  0  0  0  0  0  0  0  0  0  0  0
    5.1660    0.8690   17.8930 C   0  0  0  0  0  0  0  0  0  0  0  0
    9.8400    3.3060   23.6480 C   0  0  0  0  0  0  0  0  0  0  0  0
    8.1100    4.7160   22.7340 C   0  0  0  0  0  0  0  0  0  0  0  0
   10.3700    1.9490   24.0070 C   0  0  0  0  0  0  0  0  0  0  0  0
   12.5620   -2.8750   24.9810 C   0  0  0  0  0  0  0  0  0  0  0  0
    3.8680   -1.8710   26.5960 C   0  0  0  0  0  0  0  0  0  0  0  0
   10.5850    4.4500   23.8950 C   0  0  0  0  0  0  0  0  0  0  0  0
    8.8880    5.8620   23.0040 C   0  0  0  0  0  0  0  0  0  0  0  0
    5.6920   -3.2330   26.8880 C   0  0  0  0  0  0  0  0  0  0  0  0
   10.1460    5.7320   23.5970 C   0  0  0  0  0  0  0  0  0  0  0  0
    5.8420   -4.6380   26.9810 C   0  0  0  0  0  0  0  0  0  0  0  0
    6.5550   -2.3650   27.7900 C   0  0  0  0  0  0  0  0  0  0  0  0
   11.0040    6.7550   23.9200 O   0  0  0  0  0  0  0  0  0  0  0  0
    6.7200   -5.1410   27.8560 C   0  0  0  0  0  0  0  0  0  0  0  0
    7.3980   -2.9700   28.6310 C   0  0  0  0  0  0  0  0  0  0  0  0
   11.8430    6.5800   25.0570 C   0  0  0  0  0  0  0  0  0  0  0  0
    7.4780   -4.3470   28.6610 C   0  0  0  0  0  0  0  0  0  0  0  0
  1  2  1  0
  2  3  1  6
  1  4  1  1
  1  5  1  0
  1  6  1  0
  2  7  1  0
  5  8  2  0
  5  9  1  0
  6 10  1  0
  6 11  1  6
  3 12  1  0
  3 13  2  0
 10 14  1  0
  7 15  2  0
  7 16  1  0
  8 17  1  0
  9 18  2  0
 17 18  1  0
 11 19  1  0
 10 20  1  0
 18 21  1  0
 19 22  1  1
 14 23  2  0
 14 24  1  0
 16 25  2  0
 15 26  1  0
 12 27  1  0
 19 28  1  0
 20 28  1  0
 21 29  1  0
 21 30  1  0
 21 31  1  0
 22 32  2  0
 22 33  1  0
 25 34  1  0
 26 34  2  0
 27 35  2  0
 27 36  1  0
 35 37  1  0
 31 38  1  0
 33 39  1  0
 35 40  1  0
 36 41  2  0
 33 42  1  0
 40 43  2  0
 41 43  1  0
 42 44  2  0
 42 45  1  0
 43 46  1  0
 44 47  1  0
 45 48  2  0
 46 49  1  0
 47 50  2  0
 48 50  1  0
M  END
