x2754-x2569
     RDKit          3D

 38 41  0  0  0  0  0  0  0  0999 V2000
    4.7600   -3.1770   25.2260 C   0  0  0  0  0  0  0  0  0  0  0  0
    5.5960   -2.8970   26.3950 N   0  0  0  0  0  0  0  0  0  0  0  0
    4.9440   -2.1080   27.4460 C   0  0  0  0  0  0  0  0  0  0  0  0
    3.3540   -2.9720   25.3290 O   0  0  0  0  0  0  0  0  0  0  0  0
    5.2660   -3.6690   23.8870 C   0  0  1  0  0  0  0  0  0  0  0  0
    6.2050   -2.5660   23.3570 C   0  0  0  0  0  0  0  0  0  0  0  0
    5.8170   -4.9010   23.8780 C   0  0  0  0  0  0  0  0  0  0  0  0
    6.8480   -3.4140   26.5320 C   0  0  0  0  0  0  0  0  0  0  0  0
    7.3780   -3.2280   22.6290 C   0  0  2  0  0  0  0  0  0  0  0  0
    6.2430   -5.2100   22.4720 C   0  0  0  0  0  0  0  0  0  0  0  0
    7.0370   -4.6710   27.4000 C   0  0  0  0  0  0  0  0  0  0  0  0
    8.0150   -2.8780   25.9380 C   0  0  0  0  0  0  0  0  0  0  0  0
    8.3050   -2.2440   21.9040 C   0  0  0  0  0  0  0  0  0  0  0  0
    6.7020   -4.1950   21.7130 N   0  0  0  0  0  0  0  0  0  0  0  0
    8.2510   -5.2030   27.5660 C   0  0  0  0  0  0  0  0  0  0  0  0
    9.3630   -3.5370   26.1700 C   0  0  0  0  0  0  0  0  0  0  0  0
    6.3160   -4.0440   20.3510 C   0  0  0  0  0  0  0  0  0  0  0  0
    8.4970   -0.8940   22.6530 C   0  0  2  0  0  0  0  0  0  0  0  0
    9.5220   -4.6740   26.9600 C   0  0  0  0  0  0  0  0  0  0  0  0
    5.3290   -4.6750   19.9590 O   0  0  0  0  0  0  0  0  0  0  0  0
    7.1090   -3.2340   19.3410 C   0  0  0  0  0  0  0  0  0  0  0  0
    8.0150    0.1780   21.6970 C   0  0  0  0  0  0  0  0  0  0  0  0
    9.9130   -0.6940   23.0950 C   0  0  0  0  0  0  0  0  0  0  0  0
    8.9280    1.2240   21.2470 O   0  0  0  0  0  0  0  0  0  0  0  0
    6.9130    0.0710   21.3840 N   0  0  0  0  0  0  0  0  0  0  0  0
   10.9850   -1.0870   22.1600 C   0  0  0  0  0  0  0  0  0  0  0  0
   10.4470   -0.1340   24.3770 C   0  0  0  0  0  0  0  0  0  0  0  0
   11.7620   -0.0020   24.6490 N   0  0  0  0  0  0  0  0  0  0  0  0
   12.2760   -0.8910   22.5590 C   0  0  0  0  0  0  0  0  0  0  0  0
    6.3150    0.5010   20.1510 C   0  0  0  0  0  0  0  0  0  0  0  0
   13.2380   -1.2720   21.5710 C   0  0  0  0  0  0  0  0  0  0  0  0
   12.6890   -0.3700   23.7600 C   0  0  0  0  0  0  0  0  0  0  0  0
    6.8700    0.1880   18.9780 C   0  0  0  0  0  0  0  0  0  0  0  0
    5.0610    1.3070   20.2330 C   0  0  0  0  0  0  0  0  0  0  0  0
   14.0510   -1.4720   20.3740 N   0  0  0  0  0  0  0  0  0  0  0  0
    6.3740    0.5740   17.7920 N   0  0  0  0  0  0  0  0  0  0  0  0
    4.5260    1.7200   18.8940 C   0  0  0  0  0  0  0  0  0  0  0  0
    5.2480    1.3070   17.8450 C   0  0  0  0  0  0  0  0  0  0  0  0
  1  2  1  0
  2  3  1  0
  1  4  2  0
  5  1  1  1
  5  6  1  0
  5  7  1  0
  2  8  1  0
  6  9  1  0
  7 10  1  0
  8 11  2  0
  8 12  1  0
  9 13  1  6
  9 14  1  0
 10 14  1  0
 11 15  1  0
 12 16  2  0
 14 17  1  0
 18 13  1  6
 15 19  2  0
 16 19  1  0
 17 20  2  0
 17 21  1  0
 18 22  1  0
 18 23  1  0
 22 24  2  0
 22 25  1  0
 23 26  2  0
 23 27  1  0
 27 28  2  0
 26 29  1  0
 25 30  1  0
 29 31  1  0
 28 32  1  0
 29 32  2  0
 30 33  2  0
 30 34  1  0
 31 35  3  0
 33 36  1  0
 34 37  2  0
 36 38  2  0
 37 38  1  0
M  END
