x2754-x3115-x0161
     RDKit          3D

 54 58  0  0  0  0  0  0  0  0999 V2000
    7.4290   -1.6430   21.7640 N   0  0  0  0  0  0  0  0  0  0  0  0
    6.9240   -0.2980   21.7090 C   0  0  1  0  0  0  0  0  0  0  0  0
    7.9880    0.7520   21.9820 C   0  0  0  0  0  0  0  0  0  0  0  0
    8.7120   -1.7330   22.3860 C   0  0  0  0  0  0  0  0  0  0  0  0
    6.7560   -2.7720   22.3400 C   0  0  2  0  0  0  0  0  0  0  0  0
    6.2440    0.1550   20.4360 C   0  0  0  0  0  0  0  0  0  0  0  0
    9.8520   -1.3930   21.7120 C   0  0  0  0  0  0  0  0  0  0  0  0
    8.7730   -2.1870   23.6510 C   0  0  0  0  0  0  0  0  0  0  0  0
    6.3610   -3.9120   21.5030 N   0  0  0  0  0  0  0  0  0  0  0  0
    5.7250   -2.4760   23.2100 C   0  0  0  0  0  0  0  0  0  0  0  0
    7.6670    1.7430   22.7370 N   0  0  0  0  0  0  0  0  0  0  0  0
    9.0830    0.7340   21.4670 O   0  0  0  0  0  0  0  0  0  0  0  0
    6.0880   -3.8310   20.1620 C   0  0  0  0  0  0  0  0  0  0  0  0
    5.0070    0.8370   20.4370 C   0  0  0  0  0  0  0  0  0  0  0  0
    6.8900   -0.1000   19.2400 C   0  0  0  0  0  0  0  0  0  0  0  0
   11.0850   -1.5110   22.2730 C   0  0  0  0  0  0  0  0  0  0  0  0
   10.0270   -2.3060   24.2160 C   0  0  0  0  0  0  0  0  0  0  0  0
    5.5690   -3.5900   24.0340 C   0  0  1  0  0  0  0  0  0  0  0  0
    5.8930   -5.1030   22.2250 C   0  0  0  0  0  0  0  0  0  0  0  0
    8.0910    3.1090   22.2970 C   0  0  0  0  0  0  0  0  0  0  0  0
    4.6990   -3.2000   25.2490 C   0  0  0  0  0  0  0  0  0  0  0  0
    5.0830   -4.3860   19.7740 O   0  0  0  0  0  0  0  0  0  0  0  0
    7.0480   -3.1350   19.1940 C   0  0  0  0  0  0  0  0  0  0  0  0
    6.3770    0.3040   17.9360 N   0  0  0  0  0  0  0  0  0  0  0  0
    4.4750    1.2450   19.2040 C   0  0  0  0  0  0  0  0  0  0  0  0
   11.1760   -1.9830   23.5590 C   0  0  0  0  0  0  0  0  0  0  0  0
    5.0930   -4.7060   23.3110 C   0  0  0  0  0  0  0  0  0  0  0  0
    7.8870    4.2000   23.3390 C   0  0  0  0  0  0  0  0  0  0  0  0
   12.5640   -2.1080   24.1640 C   0  0  0  0  0  0  0  0  0  0  0  0
    3.4960   -3.0270   25.0740 O   0  0  0  0  0  0  0  0  0  0  0  0
    5.3370   -3.0530   26.5800 N   0  0  0  0  0  0  0  0  0  0  0  0
    5.1380    0.9900   18.0160 C   0  0  0  0  0  0  0  0  0  0  0  0
    8.7670    5.2370   22.9980 N   0  0  0  0  0  0  0  0  0  0  0  0
   13.5060   -2.5450   23.0630 C   0  0  0  0  0  0  0  0  0  0  0  0
   12.8280   -2.9340   25.2200 C   0  0  0  0  0  0  0  0  0  0  0  0
   12.9920   -0.7250   24.4920 C   0  0  0  0  0  0  0  0  0  0  0  0
    4.9060   -2.0600   27.5880 C   0  0  0  0  0  0  0  0  0  0  0  0
    6.5940   -3.7130   26.8560 C   0  0  0  0  0  0  0  0  0  0  0  0
    8.3810    6.4030   22.3350 C   0  0  0  0  0  0  0  0  0  0  0  0
   13.6400   -0.0730   23.6850 O   0  0  0  0  0  0  0  0  0  0  0  0
   10.0250    5.3940   23.8840 S   0  0  0  0  0  0  0  0  0  0  0  0
    6.6750   -4.9500   27.7710 C   0  0  0  0  0  0  0  0  0  0  0  0
    7.9040   -3.1970   26.2390 C   0  0  0  0  0  0  0  0  0  0  0  0
   10.8510    6.4410   23.3070 O   0  0  0  0  0  0  0  0  0  0  0  0
    9.5880    5.4870   25.2560 O   0  0  0  0  0  0  0  0  0  0  0  0
   10.8700    3.8650   23.6240 C   0  0  0  0  0  0  0  0  0  0  0  0
    8.0420   -5.6040   28.0290 C   0  0  0  0  0  0  0  0  0  0  0  0
    9.2480   -3.8840   26.5240 C   0  0  0  0  0  0  0  0  0  0  0  0
   12.1160    3.9620   23.0310 C   0  0  0  0  0  0  0  0  0  0  0  0
   10.3280    2.6280   23.9810 C   0  0  0  0  0  0  0  0  0  0  0  0
    9.3210   -5.1010   27.4330 C   0  0  0  0  0  0  0  0  0  0  0  0
   12.8600    2.8450   22.7640 C   0  0  0  0  0  0  0  0  0  0  0  0
   11.0090    1.4650   23.7390 C   0  0  0  0  0  0  0  0  0  0  0  0
   12.2470    1.5310   23.1390 C   0  0  0  0  0  0  0  0  0  0  0  0
  1  2  1  0
  2  3  1  6
  1  4  1  0
  5  1  1  6
  2  6  1  0
  4  7  2  0
  4  8  1  0
  5  9  1  0
  5 10  1  0
  3 11  1  0
  3 12  2  0
  9 13  1  0
  6 14  2  0
  6 15  1  0
  7 16  1  0
  8 17  2  0
 10 18  1  0
  9 19  1  0
 11 20  1  0
 18 21  1  1
 13 22  2  0
 13 23  1  0
 15 24  2  0
 14 25  1  0
 16 26  2  0
 17 26  1  0
 18 27  1  0
 19 27  1  0
 20 28  1  0
 26 29  1  0
 21 30  2  0
 21 31  1  0
 24 32  1  0
 25 32  2  0
 28 33  1  0
 29 34  1  0
 29 35  1  0
 29 36  1  0
 31 37  1  0
 31 38  1  0
 33 39  1  0
 36 40  2  0
 41 33  1  0
 38 42  2  0
 38 43  1  0
 41 44  2  0
 41 45  2  0
 41 46  1  0
 42 47  1  0
 43 48  2  0
 46 49  2  0
 46 50  1  0
 47 51  2  0
 48 51  1  0
 49 52  1  0
 50 53  2  0
 52 54  2  0
 53 54  1  0
M  END
