x2754-x2608-x3124
     RDKit          3D

 45 49  0  0  0  0  0  0  0  0999 V2000
    7.6470   -1.3440   22.2760 N   0  0  0  0  0  0  0  0  0  0  0  0
    6.9410   -0.0410   21.9410 C   0  0  1  0  0  0  0  0  0  0  0  0
    7.8080    1.1210   22.2450 C   0  0  1  0  0  0  0  0  0  0  0  0
    8.3670   -1.4860   23.6440 C   0  0  1  0  0  0  0  0  0  0  0  0
    6.5540   -2.3500   22.0950 C   0  0  1  0  0  0  0  0  0  0  0  0
    6.3710    0.2760   20.5810 C   0  0  0  0  0  0  0  0  0  0  0  0
    9.5620   -1.0080   24.3490 C   0  0  2  0  0  0  0  0  0  0  0  0
    7.3810   -0.9170   24.5600 C   0  0  0  0  0  0  0  0  0  0  0  0
    6.7270   -3.7400   21.6430 N   0  0  0  0  0  0  0  0  0  0  0  0
    5.3690   -2.4950   23.1070 C   0  0  0  0  0  0  0  0  0  0  0  0
    7.1770    2.1430   22.9070 N   0  0  0  0  0  0  0  0  0  0  0  0
    8.8760    0.8550   22.7150 O   0  0  0  0  0  0  0  0  0  0  0  0
    6.3300   -3.9980   20.3210 C   0  0  0  0  0  0  0  0  0  0  0  0
    5.2050    1.0090   20.4240 C   0  0  0  0  0  0  0  0  0  0  0  0
    7.0500   -0.1810   19.2030 C   0  0  0  0  0  0  0  0  0  0  0  0
    9.0960    0.1610   24.9130 C   0  0  0  0  0  0  0  0  0  0  0  0
   10.9420   -0.7480   23.9030 C   0  0  1  0  0  0  0  0  0  0  0  0
    5.2070   -3.6260   23.9050 C   0  0  2  0  0  0  0  0  0  0  0  0
    6.5250   -4.8980   22.5580 C   0  0  0  0  0  0  0  0  0  0  0  0
    7.7820    0.4420   25.1230 C   0  0  0  0  0  0  0  0  0  0  0  0
    7.8890    3.3590   23.3460 C   0  0  0  0  0  0  0  0  0  0  0  0
   12.0720   -1.8680   24.1800 C   0  0  0  0  0  0  0  0  0  0  0  0
    4.7050   -3.3800   25.3320 C   0  0  0  0  0  0  0  0  0  0  0  0
    5.4390   -4.7920   20.0020 O   0  0  0  0  0  0  0  0  0  0  0  0
    7.1240   -3.2590   19.2770 C   0  0  0  0  0  0  0  0  0  0  0  0
    6.4040    0.2180   17.9250 N   0  0  0  0  0  0  0  0  0  0  0  0
    4.6700    1.3340   19.1890 C   0  0  0  0  0  0  0  0  0  0  0  0
   11.2820    0.1250   22.8940 C   0  0  1  0  0  0  0  0  0  0  0  0
    9.9870    0.4930   21.9430 S   0  0  1  0  0  0  0  0  0  0  0  0
    6.2430   -4.5350   23.8810 C   0  0  0  0  0  0  0  0  0  0  0  0
   13.0380   -1.1190   25.0750 C   0  0  0  0  0  0  0  0  0  0  0  0
   12.8980   -2.3250   22.9600 C   0  0  0  0  0  0  0  0  0  0  0  0
   11.6620   -3.0550   24.9900 C   0  0  0  0  0  0  0  0  0  0  0  0
   12.2390    1.3210   23.1950 C   0  0  0  0  0  0  0  0  0  0  0  0
    3.4970   -3.5120   25.5090 O   0  0  0  0  0  0  0  0  0  0  0  0
    5.5560   -3.0000   26.3740 N   0  0  0  0  0  0  0  0  0  0  0  0
    5.2760    0.9390   18.0340 C   0  0  0  0  0  0  0  0  0  0  0  0
    9.9210   -1.1440   21.5480 C   0  0  0  0  0  0  0  0  0  0  0  0
    5.0390   -2.1320   27.3080 C   0  0  0  0  0  0  0  0  0  0  0  0
    6.7240   -3.6730   26.7460 C   0  0  0  0  0  0  0  0  0  0  0  0
    6.6910   -4.9150   27.4130 C   0  0  0  0  0  0  0  0  0  0  0  0
    8.0570   -3.0640   26.4380 C   0  0  0  0  0  0  0  0  0  0  0  0
    7.8560   -5.6570   27.8320 C   0  0  0  0  0  0  0  0  0  0  0  0
    9.3000   -3.7840   26.8410 C   0  0  0  0  0  0  0  0  0  0  0  0
    9.2460   -5.0880   27.5460 C   0  0  0  0  0  0  0  0  0  0  0  0
  1  2  1  0
  2  3  1  0
  1  4  1  0
  5  1  1  1
  2  6  1  6
  4  7  1  0
  4  8  1  1
  5  9  1  0
  5 10  1  0
  3 11  1  1
  3 12  1  0
  9 13  1  0
  6 14  2  0
  6 15  1  0
  7 16  1  6
  7 17  1  0
 10 18  1  0
  9 19  1  0
  8 20  1  0
 16 20  2  0
 11 21  1  0
 17 22  1  6
 18 23  1  1
 13 24  2  0
 13 25  1  0
 15 26  2  0
 14 27  1  0
 17 28  1  0
 12 29  1  0
 28 29  1  0
 18 30  1  0
 19 30  1  0
 22 31  1  0
 22 32  1  0
 22 33  1  0
 28 34  1  1
 23 35  2  0
 23 36  1  0
 26 37  1  0
 27 37  2  0
 29 38  1  1
 36 39  1  0
 36 40  1  0
 40 41  2  0
 40 42  1  0
 41 43  1  0
 42 44  2  0
 43 45  2  0
 44 45  1  0
M  END
