x2754-x0678
     RDKit          3D

 36 39  0  0  0  0  0  0  0  0999 V2000
    5.0660   -3.1640   25.2100 C   0  0  0  0  0  0  0  0  0  0  0  0
    5.7530   -2.8980   26.4650 N   0  0  0  0  0  0  0  0  0  0  0  0
    4.9490   -2.2620   27.5460 C   0  0  0  0  0  0  0  0  0  0  0  0
    3.7480   -2.7390   24.8840 O   0  0  0  0  0  0  0  0  0  0  0  0
    5.9010   -3.9870   24.2570 C   0  0  2  0  0  0  0  0  0  0  0  0
    7.0740   -3.0480   23.7860 C   0  0  0  0  0  0  0  0  0  0  0  0
    5.2200   -4.5090   23.1670 C   0  0  0  0  0  0  0  0  0  0  0  0
    6.9470   -3.5550   26.8060 C   0  0  0  0  0  0  0  0  0  0  0  0
    7.1590   -2.7770   22.2600 C   0  0  2  0  0  0  0  0  0  0  0  0
    6.1040   -5.0150   22.2300 C   0  0  0  0  0  0  0  0  0  0  0  0
    7.0310   -4.6830   27.6340 C   0  0  0  0  0  0  0  0  0  0  0  0
    8.2030   -2.9800   26.2020 C   0  0  0  0  0  0  0  0  0  0  0  0
    6.5950   -1.2960   22.1190 C   0  0  0  0  0  0  0  0  0  0  0  0
    6.4290   -3.8170   21.5020 N   0  0  0  0  0  0  0  0  0  0  0  0
    8.2550   -5.3080   27.9260 C   0  0  0  0  0  0  0  0  0  0  0  0
    9.4530   -3.7100   26.5640 C   0  0  0  0  0  0  0  0  0  0  0  0
    6.1250   -3.8170   20.1630 C   0  0  0  0  0  0  0  0  0  0  0  0
    7.5230   -0.4780   21.2700 N   0  0  0  0  0  0  0  0  0  0  0  0
    9.4360   -4.8120   27.3890 C   0  0  0  0  0  0  0  0  0  0  0  0
    5.1270   -4.3970   19.7840 O   0  0  0  0  0  0  0  0  0  0  0  0
    7.0530   -3.1410   19.1710 C   0  0  0  0  0  0  0  0  0  0  0  0
    8.5450    0.1460   21.8450 C   0  0  0  0  0  0  0  0  0  0  0  0
    6.8200    0.0840   20.1950 C   0  0  0  0  0  0  0  0  0  0  0  0
    9.0750    1.1330   21.2880 O   0  0  0  0  0  0  0  0  0  0  0  0
    9.1240   -0.2480   23.2470 C   0  0  0  0  0  0  0  0  0  0  0  0
    5.7190    0.9150   20.4080 C   0  0  0  0  0  0  0  0  0  0  0  0
    7.1230   -0.1110   18.8540 C   0  0  0  0  0  0  0  0  0  0  0  0
   10.4330   -1.0960   23.3270 C   0  0  0  0  0  0  0  0  0  0  0  0
    5.0220    1.4750   19.3430 C   0  0  0  0  0  0  0  0  0  0  0  0
    6.4910    0.4070   17.7770 N   0  0  0  0  0  0  0  0  0  0  0  0
   11.2570   -0.9900   22.2250 C   0  0  0  0  0  0  0  0  0  0  0  0
   11.1390   -0.8210   24.6530 C   0  0  0  0  0  0  0  0  0  0  0  0
    5.3410    1.2750   18.0150 C   0  0  0  0  0  0  0  0  0  0  0  0
   12.3920   -1.7090   22.3430 C   0  0  0  0  0  0  0  0  0  0  0  0
   12.4660   -0.4330   24.5340 C   0  0  0  0  0  0  0  0  0  0  0  0
   13.1540   -0.9970   23.4420 C   0  0  0  0  0  0  0  0  0  0  0  0
  1  2  1  0
  2  3  1  0
  1  4  2  0
  5  1  1  1
  5  6  1  0
  5  7  1  0
  2  8  1  0
  6  9  1  0
  7 10  1  0
  8 11  2  0
  8 12  1  0
  9 13  1  1
  9 14  1  0
 10 14  1  0
 11 15  1  0
 12 16  2  0
 14 17  1  0
 13 18  1  0
 15 19  2  0
 16 19  1  0
 17 20  2  0
 17 21  1  0
 18 22  1  0
 18 23  1  0
 22 24  2  0
 22 25  1  0
 23 26  2  0
 23 27  1  0
 25 28  1  0
 26 29  1  0
 27 30  2  0
 28 31  1  0
 28 32  1  0
 29 33  2  0
 30 33  1  0
 31 34  1  0
 32 35  1  0
 34 36  1  0
 35 36  1  0
M  END
