x2764-x0786-x2694-x2193-x3115
     RDKit          3D

 59 64  0  0  0  0  0  0  0  0999 V2000
    7.6150   -0.5520   21.6310 C   0  0  0  0  0  0  0  0  0  0  0  0
    7.0870    0.8040   21.5750 C   0  0  1  0  0  0  0  0  0  0  0  0
    8.0950    1.8130   21.9120 C   0  0  0  0  0  0  0  0  0  0  0  0
    8.9450   -0.9440   21.2720 N   0  0  0  0  0  0  0  0  0  0  0  0
    6.6620   -1.5260   22.0440 N   0  0  0  0  0  0  0  0  0  0  0  0
    6.9820   -2.8700   22.1390 C   0  0  0  0  0  0  0  0  0  0  0  0
    6.4080    0.9530   20.2340 C   0  0  0  0  0  0  0  0  0  0  0  0
    9.9510   -1.6300   21.9960 C   0  0  1  0  0  0  0  0  0  0  0  0
    7.7970    2.4960   22.7600 N   0  0  0  0  0  0  0  0  0  0  0  0
    9.2930    1.8720   21.1760 O   0  0  0  0  0  0  0  0  0  0  0  0
    6.0840   -3.7650   21.8430 N   0  0  0  0  0  0  0  0  0  0  0  0
    5.3290    1.8000   20.2390 C   0  0  0  0  0  0  0  0  0  0  0  0
    6.8610    0.2860   19.1130 C   0  0  0  0  0  0  0  0  0  0  0  0
   10.8690   -0.9860   23.0360 C   0  0  2  0  0  0  0  0  0  0  0  0
    9.4300   -2.5310   22.8190 C   0  0  0  0  0  0  0  0  0  0  0  0
   12.2630   -1.3100   23.1870 C   0  0  0  0  0  0  0  0  0  0  0  0
    6.3510   -4.5910   20.7940 C   0  0  0  0  0  0  0  0  0  0  0  0
    6.2250    0.4430   17.8240 N   0  0  0  0  0  0  0  0  0  0  0  0
    4.6160    2.0100   18.9360 C   0  0  0  0  0  0  0  0  0  0  0  0
    9.0320   -1.9900   23.9670 N   0  0  0  0  0  0  0  0  0  0  0  0
   10.1490   -1.2920   24.2590 O   0  0  0  0  0  0  0  0  0  0  0  0
    8.5810    3.6240   23.0630 C   0  0  0  0  0  0  0  0  0  0  0  0
    5.4180   -4.1400   23.0840 C   0  0  0  0  0  0  0  0  0  0  0  0
   12.9010   -0.2220   24.0550 C   0  0  0  0  0  0  0  0  0  0  0  0
   12.9390   -1.3470   21.8350 C   0  0  0  0  0  0  0  0  0  0  0  0
   12.6040   -2.6760   23.8360 C   0  0  0  0  0  0  0  0  0  0  0  0
    7.8420   -4.9660   20.7470 C   0  0  0  0  0  0  0  0  0  0  0  0
    5.4630   -4.9240   20.0140 O   0  0  0  0  0  0  0  0  0  0  0  0
    5.1400    1.2780   17.7270 C   0  0  0  0  0  0  0  0  0  0  0  0
    9.7480    3.4720   23.7730 C   0  0  0  0  0  0  0  0  0  0  0  0
    8.2150    4.9780   22.6400 C   0  0  0  0  0  0  0  0  0  0  0  0
    4.6720   -5.4670   23.0060 C   0  0  0  0  0  0  0  0  0  0  0  0
    5.4790   -3.3220   24.2200 C   0  0  0  0  0  0  0  0  0  0  0  0
    8.7600   -2.9270   24.9560 C   0  0  0  0  0  0  0  0  0  0  0  0
   10.1690    2.1250   24.2210 C   0  0  0  0  0  0  0  0  0  0  0  0
   12.5890   -2.8280   25.3410 C   0  0  0  0  0  0  0  0  0  0  0  0
   10.5190    4.5670   24.0620 C   0  0  0  0  0  0  0  0  0  0  0  0
    9.0080    6.0470   22.9480 C   0  0  0  0  0  0  0  0  0  0  0  0
    4.0100   -5.8450   24.1780 C   0  0  0  0  0  0  0  0  0  0  0  0
    4.8260   -3.7320   25.3410 C   0  0  0  0  0  0  0  0  0  0  0  0
    9.8080   -3.9210   25.0270 N   0  0  0  0  0  0  0  0  0  0  0  0
    8.5310    7.3700   22.4610 C   0  0  0  0  0  0  0  0  0  0  0  0
    3.2320   -7.0830   24.2490 C   0  0  0  0  0  0  0  0  0  0  0  0
   10.2140    5.8970   23.6880 C   0  0  0  0  0  0  0  0  0  0  0  0
    4.0750   -5.0120   25.3310 C   0  0  0  0  0  0  0  0  0  0  0  0
    9.9500   -4.3270   26.4220 C   0  0  0  0  0  0  0  0  0  0  0  0
    9.5580   -5.0520   24.2810 C   0  0  0  0  0  0  0  0  0  0  0  0
   11.0340    6.9350   24.0270 O   0  0  0  0  0  0  0  0  0  0  0  0
    3.7710   -8.0570   24.7540 O   0  0  0  0  0  0  0  0  0  0  0  0
    1.9310   -7.0220   23.7390 N   0  0  0  0  0  0  0  0  0  0  0  0
    8.7570   -5.0970   26.9420 C   0  0  0  0  0  0  0  0  0  0  0  0
    8.4460   -5.7560   24.6840 C   0  0  0  0  0  0  0  0  0  0  0  0
   11.8690    6.7370   25.1640 C   0  0  0  0  0  0  0  0  0  0  0  0
    1.4000   -5.6920   23.3660 C   0  0  0  0  0  0  0  0  0  0  0  0
    0.9360   -8.0750   23.9450 C   0  0  0  0  0  0  0  0  0  0  0  0
    8.6600   -6.2290   26.0690 N   0  0  0  0  0  0  0  0  0  0  0  0
    0.6180   -5.1090   24.3690 C   0  0  0  0  0  0  0  0  0  0  0  0
   -0.0670   -7.7280   24.8640 C   0  0  0  0  0  0  0  0  0  0  0  0
   -0.8810   -6.1330   24.4160 S   0  0  0  0  0  0  0  0  0  0  0  0
  2  1  1  6
  2  3  1  0
  1  4  1  0
  1  5  2  3
  5  6  1  0
  2  7  1  0
  8  4  1  1
  3  9  1  0
  3 10  2  0
  6 11  1  0
  7 12  2  0
  7 13  1  0
  8 14  1  0
  8 15  1  0
 14 16  1  1
 11 17  1  0
 13 18  2  0
 12 19  1  0
 15 20  1  0
 14 21  1  0
 20 21  1  0
  9 22  1  0
 11 23  1  0
 16 24  1  0
 16 25  1  0
 16 26  1  0
 17 27  1  0
 17 28  2  0
 18 29  1  0
 19 29  2  0
 22 30  2  0
 22 31  1  0
 23 32  2  0
 23 33  1  0
 20 34  1  0
 30 35  1  0
 26 36  1  0
 30 37  1  0
 31 38  2  0
 32 39  1  0
 33 40  2  0
 34 41  1  0
 38 42  1  0
 39 43  1  0
 37 44  2  0
 38 44  1  0
 39 45  2  0
 40 45  1  0
 41 46  1  0
 41 47  1  0
 44 48  1  0
 43 49  2  0
 43 50  1  0
 46 51  1  0
 47 52  1  0
 48 53  1  0
 50 54  1  0
 50 55  1  0
 51 56  1  0
 52 56  1  0
 54 57  1  0
 55 58  1  0
 57 59  1  0
 58 59  1  0
M  END
