x2764-x3113
     RDKit          3D

 32 33  0  0  0  0  0  0  0  0999 V2000
    6.9830   -1.5830   21.3090 N   0  0  0  0  0  0  0  0  0  0  0  0
    6.1370   -2.7970   21.3210 C   0  0  0  0  0  0  0  0  0  0  0  0
    4.8710   -3.0120   21.0530 O   0  0  0  0  0  0  0  0  0  0  0  0
    6.6990   -0.1050   21.4440 C   0  0  1  0  0  0  0  0  0  0  0  0
    8.3680   -1.7520   21.0520 N   0  0  0  0  0  0  0  0  0  0  0  0
    6.8980   -4.0330   21.6850 C   0  0  0  0  0  0  0  0  0  0  0  0
    7.9060    0.8860   21.7770 C   0  0  0  0  0  0  0  0  0  0  0  0
    6.1210    0.4180   20.1720 C   0  0  0  0  0  0  0  0  0  0  0  0
    9.1600   -1.7560   22.2880 C   0  0  0  0  0  0  0  0  0  0  0  0
    6.8730   -4.9110   20.4540 C   0  0  0  0  0  0  0  0  0  0  0  0
    8.0320    1.4420   23.0480 N   0  0  0  0  0  0  0  0  0  0  0  0
    8.6830    1.1960   20.8880 O   0  0  0  0  0  0  0  0  0  0  0  0
    5.0070    1.2050   20.1160 C   0  0  0  0  0  0  0  0  0  0  0  0
    6.8220    0.0530   18.9990 C   0  0  0  0  0  0  0  0  0  0  0  0
   10.5620   -1.8810   22.3880 C   0  0  0  0  0  0  0  0  0  0  0  0
    8.3650   -1.6110   23.4220 C   0  0  0  0  0  0  0  0  0  0  0  0
    8.7660    2.7120   23.0710 C   0  0  2  0  0  0  0  0  0  0  0  0
    6.3350    0.5410   17.8120 N   0  0  0  0  0  0  0  0  0  0  0  0
    4.5630    1.6590   18.9140 C   0  0  0  0  0  0  0  0  0  0  0  0
   11.2100   -1.8570   23.6260 C   0  0  0  0  0  0  0  0  0  0  0  0
    8.9760   -1.5850   24.6540 C   0  0  0  0  0  0  0  0  0  0  0  0
   10.1530    2.0220   23.2760 C   0  0  0  0  0  0  0  0  0  0  0  0
   12.6410   -1.9480   24.0440 C   0  0  0  0  0  0  0  0  0  0  0  0
    8.9020    4.0200   23.4030 N   0  0  0  0  0  0  0  0  0  0  0  0
    5.2350    1.3280   17.7640 C   0  0  0  0  0  0  0  0  0  0  0  0
   10.3570   -1.7050   24.7060 C   0  0  0  0  0  0  0  0  0  0  0  0
   11.2760    2.8550   23.4720 C   0  0  0  0  0  0  0  0  0  0  0  0
   13.3540   -2.1010   22.8340 C   0  0  0  0  0  0  0  0  0  0  0  0
   12.7660   -2.8870   25.0190 C   0  0  0  0  0  0  0  0  0  0  0  0
   12.8450   -0.7260   24.7030 C   0  0  0  0  0  0  0  0  0  0  0  0
   11.5610    3.7400   22.3960 O   0  0  0  0  0  0  0  0  0  0  0  0
   12.8160    4.4210   22.5520 C   0  0  0  0  0  0  0  0  0  0  0  0
  1  2  1  0
  2  3  2  0
  1  4  1  0
  1  5  1  0
  2  6  1  0
  4  7  1  6
  4  8  1  0
  5  9  1  0
  6 10  1  0
  7 11  1  0
  7 12  2  0
  8 13  2  0
  8 14  1  0
  9 15  2  0
  9 16  1  0
 11 17  1  0
 14 18  2  0
 13 19  1  0
 15 20  1  0
 16 21  2  0
 17 22  1  0
 20 23  1  0
 17 24  1  1
 18 25  1  0
 19 25  2  0
 20 26  2  0
 21 26  1  0
 22 27  1  0
 23 28  1  0
 23 29  1  0
 23 30  1  0
 27 31  1  0
 31 32  1  0
M  END
