x2764-x0426-x2705-x2694
     RDKit          3D

 48 51  0  0  0  0  0  0  0  0999 V2000
    7.2580   -1.3900   21.5840 C   0  0  2  0  0  0  0  0  0  0  0  0
    5.9120   -2.3720   21.4650 C   0  0  0  0  0  0  0  0  0  0  0  0
    5.0020   -3.3460   21.3800 O   0  0  0  0  0  0  0  0  0  0  0  0
    6.7350    0.1100   21.5870 C   0  0  1  0  0  0  0  0  0  0  0  0
    8.0240   -1.4970   20.3470 N   0  0  0  0  0  0  0  0  0  0  0  0
    8.4090   -1.5010   22.6470 C   0  0  0  0  0  0  0  0  0  0  0  0
    6.8330   -3.5780   21.5390 C   0  0  0  0  0  0  0  0  0  0  0  0
    7.7650    1.1010   21.7300 C   0  0  0  0  0  0  0  0  0  0  0  0
    6.1480    0.5690   20.2680 C   0  0  0  0  0  0  0  0  0  0  0  0
    8.2660   -1.6310   23.9790 N   0  0  0  0  0  0  0  0  0  0  0  0
    9.7530   -1.4400   22.1950 C   0  0  0  0  0  0  0  0  0  0  0  0
    6.6640   -4.3980   20.2560 C   0  0  0  0  0  0  0  0  0  0  0  0
    7.5480    2.0630   22.7990 N   0  0  0  0  0  0  0  0  0  0  0  0
    8.7490    1.1980   21.0060 O   0  0  0  0  0  0  0  0  0  0  0  0
    4.9230    1.2260   20.0720 C   0  0  0  0  0  0  0  0  0  0  0  0
    6.8420    0.3800   18.9360 C   0  0  0  0  0  0  0  0  0  0  0  0
    9.6750   -1.6480   24.4240 N   0  0  0  0  0  0  0  0  0  0  0  0
   10.5800   -1.5270   23.2750 C   0  0  0  0  0  0  0  0  0  0  0  0
   12.1120   -1.5100   23.3920 C   0  0  0  0  0  0  0  0  0  0  0  0
    3.9010    1.5920   21.1110 C   0  0  0  0  0  0  0  0  0  0  0  0
    6.4240    0.7910   17.6410 N   0  0  0  0  0  0  0  0  0  0  0  0
    4.5360    1.6240   18.8100 C   0  0  0  0  0  0  0  0  0  0  0  0
    8.2830    3.2620   22.9880 C   0  0  0  0  0  0  0  0  0  0  0  0
   12.5720   -0.0520   23.5560 C   0  0  0  0  0  0  0  0  0  0  0  0
   12.6040   -2.5400   24.4130 C   0  0  0  0  0  0  0  0  0  0  0  0
   12.7330   -1.9220   22.0120 C   0  0  0  0  0  0  0  0  0  0  0  0
    4.2400    1.6280   22.5640 C   0  0  0  0  0  0  0  0  0  0  0  0
    5.1680    1.4860   17.5930 C   0  0  0  0  0  0  0  0  0  0  0  0
    9.5630    3.1880   23.5700 C   0  0  0  0  0  0  0  0  0  0  0  0
    7.7660    4.6750   22.5900 C   0  0  0  0  0  0  0  0  0  0  0  0
   10.1300    1.9300   23.9580 C   0  0  0  0  0  0  0  0  0  0  0  0
    6.3940    4.6990   21.9560 C   0  0  0  0  0  0  0  0  0  0  0  0
    3.5430    2.3830   23.4060 N   0  0  0  0  0  0  0  0  0  0  0  0
   10.3520    4.4640   23.7860 C   0  0  0  0  0  0  0  0  0  0  0  0
    8.5740    5.7900   22.8370 C   0  0  0  0  0  0  0  0  0  0  0  0
    9.2830    1.3190   24.8830 C   0  0  0  0  0  0  0  0  0  0  0  0
    2.3010    1.8080   23.9380 C   0  0  0  0  0  0  0  0  0  0  0  0
    9.8380    5.7060   23.4250 C   0  0  0  0  0  0  0  0  0  0  0  0
   10.6180    6.8280   23.6680 O   0  0  0  0  0  0  0  0  0  0  0  0
    2.1120    0.4670   23.8020 O   0  0  0  0  0  0  0  0  0  0  0  0
    1.2350    2.6730   24.6590 C   0  0  0  0  0  0  0  0  0  0  0  0
   11.7360    6.6780   24.5880 C   0  0  0  0  0  0  0  0  0  0  0  0
    1.4380    3.8950   25.3060 C   0  0  0  0  0  0  0  0  0  0  0  0
   -0.0380    2.1210   24.6210 C   0  0  0  0  0  0  0  0  0  0  0  0
    2.6560    4.4560   25.3600 F   0  0  0  0  0  0  0  0  0  0  0  0
   -1.1050    2.7560   25.2130 C   0  0  0  0  0  0  0  0  0  0  0  0
    0.3490    4.5710   25.9260 C   0  0  0  0  0  0  0  0  0  0  0  0
   -0.9120    3.9570   25.8520 C   0  0  0  0  0  0  0  0  0  0  0  0
  1  2  1  0
  2  3  2  0
  1  4  1  0
  1  5  1  6
  1  6  1  0
  2  7  1  0
  4  8  1  6
  4  9  1  0
  6 10  2  0
  6 11  1  0
  7 12  1  0
  8 13  1  0
  8 14  2  0
  9 15  1  0
  9 16  2  0
 10 17  1  0
 11 18  2  0
 17 18  1  0
 18 19  1  0
 15 20  1  0
 16 21  1  0
 15 22  2  0
 13 23  1  0
 19 24  1  0
 19 25  1  0
 19 26  1  0
 20 27  1  0
 21 28  2  0
 22 28  1  0
 23 29  2  0
 23 30  1  0
 29 31  1  0
 30 32  1  0
 27 33  1  0
 29 34  1  0
 30 35  2  0
 31 36  1  0
 33 37  1  0
 34 38  2  0
 35 38  1  0
 38 39  1  0
 37 40  2  0
 37 41  1  0
 39 42  1  0
 41 43  2  0
 41 44  1  0
 43 45  1  0
 44 46  2  0
 43 47  1  0
 46 48  1  0
 47 48  2  0
M  END
