x2764-x1348-x2694-x0426-x2776
     RDKit          3D

 61 66  0  0  0  0  0  0  0  0999 V2000
    7.6260   -1.3360   21.2330 C   0  0  0  0  0  0  0  0  0  0  0  0
    7.1880    0.0910   21.6700 C   0  0  1  0  0  0  0  0  0  0  0  0
    8.3320    1.1890   21.7820 C   0  0  0  0  0  0  0  0  0  0  0  0
    9.0160   -1.7290   21.1500 N   0  0  0  0  0  0  0  0  0  0  0  0
    6.3180   -2.1540   21.0460 C   0  0  0  0  0  0  0  0  0  0  0  0
    6.9450   -3.3300   20.0150 C   0  0  0  0  0  0  0  0  0  0  0  0
    6.2520    0.6480   20.5050 C   0  0  0  0  0  0  0  0  0  0  0  0
    9.6550   -2.0390   22.4630 C   0  0  0  0  0  0  0  0  0  0  0  0
    4.9980   -2.9990   20.8490 C   0  0  0  0  0  0  0  0  0  0  0  0
    8.1460    2.2520   22.6960 N   0  0  0  0  0  0  0  0  0  0  0  0
    9.3030    1.2240   21.0380 O   0  0  0  0  0  0  0  0  0  0  0  0
    6.6040   -4.5680   19.9320 O   0  0  0  0  0  0  0  0  0  0  0  0
    7.8300   -3.0520   18.7480 C   0  0  0  0  0  0  0  0  0  0  0  0
    4.8230    0.9790   20.6370 C   0  0  0  0  0  0  0  0  0  0  0  0
    6.8500    0.8390   19.2250 C   0  0  0  0  0  0  0  0  0  0  0  0
   10.9910   -1.9520   22.8940 C   0  0  0  0  0  0  0  0  0  0  0  0
    8.9930   -2.5330   23.6090 C   0  0  0  0  0  0  0  0  0  0  0  0
    4.6740   -4.1670   21.9570 C   0  0  0  0  0  0  0  0  0  0  0  0
   12.3390   -1.5210   22.2850 C   0  0  0  0  0  0  0  0  0  0  0  0
    8.2330    3.7160   22.3520 C   0  0  0  0  0  0  0  0  0  0  0  0
    4.0130    0.8500   21.8510 C   0  0  0  0  0  0  0  0  0  0  0  0
    6.0970    1.3520   18.0760 N   0  0  0  0  0  0  0  0  0  0  0  0
    4.0890    1.4710   19.5000 C   0  0  0  0  0  0  0  0  0  0  0  0
    9.6960   -2.7530   24.7430 N   0  0  0  0  0  0  0  0  0  0  0  0
   10.9750   -2.3960   24.3020 O   0  0  0  0  0  0  0  0  0  0  0  0
    5.7070   -4.7940   22.9620 N   0  0  0  0  0  0  0  0  0  0  0  0
   12.4120   -0.0430   22.1090 C   0  0  0  0  0  0  0  0  0  0  0  0
   12.5670   -2.2330   20.9050 C   0  0  0  0  0  0  0  0  0  0  0  0
   13.5900   -1.8540   23.1970 C   0  0  0  0  0  0  0  0  0  0  0  0
    3.8770    2.0030   22.6630 C   0  0  0  0  0  0  0  0  0  0  0  0
    4.6660    1.6820   18.2210 C   0  0  0  0  0  0  0  0  0  0  0  0
    8.8960    4.7620   23.3420 C   0  0  0  0  0  0  0  0  0  0  0  0
    5.2590   -5.6200   24.2380 C   0  0  1  0  0  0  0  0  0  0  0  0
    6.7880   -5.5570   22.4720 C   0  0  0  0  0  0  0  0  0  0  0  0
   13.8110   -3.2900   23.7480 C   0  0  0  0  0  0  0  0  0  0  0  0
    2.5430    2.4460   23.1240 N   0  0  0  0  0  0  0  0  0  0  0  0
    9.5150    5.7360   24.2650 C   0  0  0  0  0  0  0  0  0  0  0  0
   10.2790    4.2290   22.7790 C   0  0  0  0  0  0  0  0  0  0  0  0
    4.1960   -4.9900   25.1840 C   0  0  1  0  0  0  0  0  0  0  0  0
    4.8940   -6.9640   23.8030 C   0  0  2  0  0  0  0  0  0  0  0  0
    6.4150   -7.2700   22.8510 S   0  0  0  0  0  0  0  0  0  0  0  0
    1.7480    1.7130   23.9680 C   0  0  0  0  0  0  0  0  0  0  0  0
   11.6750    4.5690   23.0610 C   0  0  0  0  0  0  0  0  0  0  0  0
   10.8280    6.1100   24.6000 C   0  0  0  0  0  0  0  0  0  0  0  0
    4.2490   -3.5290   25.1530 O   0  0  0  0  0  0  0  0  0  0  0  0
    3.5600   -7.1200   23.3740 C   0  0  0  0  0  0  0  0  0  0  0  0
    2.8340   -5.4120   25.0360 C   0  0  0  0  0  0  0  0  0  0  0  0
   11.0120    7.1030   25.5610 O   0  0  0  0  0  0  0  0  0  0  0  0
   12.8090    3.8780   22.3390 C   0  0  0  0  0  0  0  0  0  0  0  0
    1.8710    0.4760   24.1500 O   0  0  0  0  0  0  0  0  0  0  0  0
   11.9100    5.5320   24.0080 C   0  0  0  0  0  0  0  0  0  0  0  0
    0.6060    2.4440   24.7370 C   0  0  0  0  0  0  0  0  0  0  0  0
    5.0120   -2.8280   26.1290 C   0  0  0  0  0  0  0  0  0  0  0  0
    2.5600   -6.3370   23.9960 C   0  0  0  0  0  0  0  0  0  0  0  0
   11.7990    6.8900   26.7510 C   0  0  0  0  0  0  0  0  0  0  0  0
    0.9990    3.2540   25.8540 C   0  0  0  0  0  0  0  0  0  0  0  0
   -0.7660    2.3320   24.3520 C   0  0  0  0  0  0  0  0  0  0  0  0
    2.2660    3.4190   26.2670 F   0  0  0  0  0  0  0  0  0  0  0  0
   -1.7590    3.0470   25.1000 C   0  0  0  0  0  0  0  0  0  0  0  0
   -0.0510    3.9330   26.5530 C   0  0  0  0  0  0  0  0  0  0  0  0
   -1.3570    3.8130   26.1710 C   0  0  0  0  0  0  0  0  0  0  0  0
  2  1  1  6
  2  3  1  0
  1  4  1  0
  1  5  2  3
  5  6  1  0
  2  7  1  0
  4  8  1  0
  5  9  1  0
  3 10  1  0
  3 11  2  0
  6 12  2  0
  6 13  1  0
  7 14  1  0
  7 15  2  0
  8 16  2  0
  8 17  1  0
  9 18  1  0
 16 19  1  0
 10 20  1  0
 14 21  1  0
 15 22  1  0
 14 23  2  0
 17 24  2  0
 16 25  1  0
 24 25  1  0
 18 26  1  0
 19 27  1  0
 19 28  1  0
 19 29  1  0
 21 30  1  0
 22 31  2  0
 23 31  1  0
 20 32  1  0
 33 26  1  6
 26 34  1  0
 29 35  1  0
 30 36  1  0
 32 37  2  0
 32 38  1  0
 33 39  1  0
 33 40  1  0
 34 41  2  0
 40 41  1  0
 36 42  1  0
 38 43  2  0
 37 44  1  0
 39 45  1  6
 40 46  1  6
 39 47  1  0
 44 48  1  0
 43 49  1  0
 42 50  2  0
 43 51  1  0
 44 51  2  0
 42 52  1  0
 45 53  1  0
 46 54  2  0
 47 54  1  0
 48 55  1  0
 52 56  2  0
 52 57  1  0
 56 58  1  0
 57 59  2  0
 56 60  1  0
 59 61  1  0
 60 61  2  0
M  END
