x2764-x2694-x0978-x1402-x2776
     RDKit          3D

 59 64  0  0  0  0  0  0  0  0999 V2000
    6.7990   -1.3730   21.6980 N   0  0  0  0  0  0  0  0  0  0  0  0
    5.8780   -2.4070   21.1290 C   0  0  0  0  0  0  0  0  0  0  0  0
    4.7490   -3.0200   21.4710 O   0  0  0  0  0  0  0  0  0  0  0  0
    6.2750    0.0800   21.6040 C   0  0  1  0  0  0  0  0  0  0  0  0
    8.2480   -1.6010   21.5060 N   0  0  0  0  0  0  0  0  0  0  0  0
    6.3410   -2.8600   19.8660 C   0  0  0  0  0  0  0  0  0  0  0  0
    7.4800    0.9850   21.9950 C   0  0  0  0  0  0  0  0  0  0  0  0
    5.9040    0.5240   20.1860 C   0  0  0  0  0  0  0  0  0  0  0  0
    9.4390   -1.5380   22.2950 C   0  0  0  0  0  0  0  0  0  0  0  0
    6.8060   -4.2720   20.0650 C   0  0  0  0  0  0  0  0  0  0  0  0
    7.1780    2.0390   22.8550 N   0  0  0  0  0  0  0  0  0  0  0  0
    8.6210    0.8390   21.5430 O   0  0  0  0  0  0  0  0  0  0  0  0
    4.7950    1.3140   20.0050 C   0  0  0  0  0  0  0  0  0  0  0  0
    6.6730    0.1740   19.0730 C   0  0  0  0  0  0  0  0  0  0  0  0
   10.5260   -1.4270   23.3190 C   0  0  0  0  0  0  0  0  0  0  0  0
    8.3810   -1.2770   23.4250 C   0  0  0  0  0  0  0  0  0  0  0  0
   12.0510   -1.5510   23.1930 C   0  0  0  0  0  0  0  0  0  0  0  0
    7.1080    3.4870   22.4070 C   0  0  0  0  0  0  0  0  0  0  0  0
    6.3700    0.5920   17.8230 N   0  0  0  0  0  0  0  0  0  0  0  0
    4.4190    1.7900   18.7210 C   0  0  0  0  0  0  0  0  0  0  0  0
    8.8670   -1.0960   24.6150 N   0  0  0  0  0  0  0  0  0  0  0  0
   10.0890   -1.1870   24.5290 O   0  0  0  0  0  0  0  0  0  0  0  0
    6.5710   -4.9100   21.3820 N   0  0  0  0  0  0  0  0  0  0  0  0
   12.6890   -0.4600   23.7860 C   0  0  0  0  0  0  0  0  0  0  0  0
   12.6300   -1.7280   21.7410 C   0  0  0  0  0  0  0  0  0  0  0  0
   12.6460   -2.8550   23.8380 C   0  0  0  0  0  0  0  0  0  0  0  0
    5.2380    1.4080   17.6700 C   0  0  0  0  0  0  0  0  0  0  0  0
    8.4130    4.0230   22.8910 C   0  0  0  0  0  0  0  0  0  0  0  0
    7.4710   -4.7580   22.4860 C   0  0  0  0  0  0  0  0  0  0  0  0
    5.5040   -5.7890   21.6380 C   0  0  0  0  0  0  0  0  0  0  0  0
   13.2110   -2.6670   25.1130 C   0  0  0  0  0  0  0  0  0  0  0  0
    8.8400    5.3130   23.2830 C   0  0  0  0  0  0  0  0  0  0  0  0
    9.4930    3.0260   22.9970 C   0  0  0  0  0  0  0  0  0  0  0  0
    6.9050   -4.9470   23.9160 C   0  0  0  0  0  0  0  0  0  0  0  0
    4.5510   -5.3390   22.7860 C   0  0  1  0  0  0  0  0  0  0  0  0
    3.3950   -6.3080   23.1570 C   0  0  2  0  0  0  0  0  0  0  0  0
   10.8550    3.3080   23.4440 C   0  0  0  0  0  0  0  0  0  0  0  0
   10.1720    5.6160   23.7330 C   0  0  0  0  0  0  0  0  0  0  0  0
    5.3470   -4.9240   24.0230 C   0  0  2  0  0  0  0  0  0  0  0  0
   10.4920    6.9260   24.1090 O   0  0  0  0  0  0  0  0  0  0  0  0
   11.7980    2.1990   23.4790 C   0  0  0  0  0  0  0  0  0  0  0  0
    2.2220   -5.6680   23.2400 N   0  0  0  0  0  0  0  0  0  0  0  0
    3.7230   -6.8300   24.4070 C   0  0  1  0  0  0  0  0  0  0  0  0
    5.0580   -3.5380   23.9950 O   0  0  0  0  0  0  0  0  0  0  0  0
    4.5760   -5.6210   25.5170 S   0  0  0  0  0  0  0  0  0  0  0  0
   11.1390    4.6070   23.7980 C   0  0  0  0  0  0  0  0  0  0  0  0
   11.7400    7.0760   24.7890 C   0  0  0  0  0  0  0  0  0  0  0  0
    2.6770   -7.4350   25.0940 C   0  0  0  0  0  0  0  0  0  0  0  0
    4.6050   -7.9220   24.2750 O   0  0  0  0  0  0  0  0  0  0  0  0
    1.1410   -6.2690   22.6540 C   0  0  0  0  0  0  0  0  0  0  0  0
    5.9190   -5.6600   26.0780 O   0  0  0  0  0  0  0  0  0  0  0  0
    3.9170   -4.1340   25.8980 C   0  0  0  0  0  0  0  0  0  0  0  0
    1.2530   -7.3530   22.0790 O   0  0  0  0  0  0  0  0  0  0  0  0
   -0.2420   -5.4620   22.7650 C   0  0  0  0  0  0  0  0  0  0  0  0
    2.0930   -3.8440   25.7700 S   0  0  0  0  0  0  0  0  0  0  0  0
    4.3940   -2.7840   26.3550 C   0  0  0  0  0  0  0  0  0  0  0  0
    3.3610   -1.8730   26.5030 C   0  0  0  0  0  0  0  0  0  0  0  0
    2.0110   -2.1790   26.2560 C   0  0  0  0  0  0  0  0  0  0  0  0
    0.5660   -1.1810   26.3900 Cl  0  0  0  0  0  0  0  0  0  0  0  0
  1  2  1  0
  2  3  2  0
  1  4  1  0
  1  5  1  0
  2  6  1  0
  4  7  1  6
  4  8  1  0
  5  9  1  0
  6 10  1  0
  7 11  1  0
  7 12  2  0
  8 13  2  0
  8 14  1  0
  9 15  2  0
  9 16  1  0
 15 17  1  0
 11 18  1  0
 14 19  2  0
 13 20  1  0
 16 21  2  0
 15 22  1  0
 21 22  1  0
 10 23  1  0
 17 24  1  0
 17 25  1  0
 17 26  1  0
 19 27  1  0
 20 27  2  0
 18 28  1  0
 23 29  1  0
 23 30  1  0
 26 31  1  0
 28 32  2  0
 28 33  1  0
 29 34  1  0
 35 30  1  6
 35 36  1  0
 33 37  2  0
 32 38  1  0
 34 39  1  0
 35 39  1  0
 38 40  1  0
 37 41  1  0
 36 42  1  1
 36 43  1  0
 39 44  1  1
 39 45  1  0
 43 45  1  0
 37 46  1  0
 38 46  2  0
 40 47  1  0
 43 48  1  1
 43 49  1  0
 42 50  1  0
 45 51  2  0
 45 52  1  0
 50 53  2  0
 50 54  1  0
 52 55  1  0
 52 56  2  0
 56 57  1  0
 55 58  1  0
 57 58  2  0
 58 59  1  0
M  END
