x2764-x0771-x0786-x2694
     RDKit          3D

 59 64  0  0  0  0  0  0  0  0999 V2000
    7.4490   -1.4380   20.7720 N   0  0  0  0  0  0  0  0  0  0  0  0
    6.8560   -0.0210   20.7370 C   0  0  1  0  0  0  0  0  0  0  0  0
    7.7830    1.1020   21.2560 C   0  0  0  0  0  0  0  0  0  0  0  0
    7.8810   -1.6820   22.1740 N   0  0  0  0  0  0  0  0  0  0  0  0
    7.2360   -2.6260   19.9300 C   0  0  0  0  0  0  0  0  0  0  0  0
    6.3060   -2.8600   19.0330 O   0  0  0  0  0  0  0  0  0  0  0  0
    8.2050   -3.7910   20.1220 C   0  0  0  0  0  0  0  0  0  0  0  0
    6.1820    0.5430   19.4990 C   0  0  0  0  0  0  0  0  0  0  0  0
    9.3400   -1.6790   22.6590 C   0  0  0  0  0  0  0  0  0  0  0  0
    7.2080    1.8080   22.4510 N   0  0  0  0  0  0  0  0  0  0  0  0
    8.8720    1.4070   20.7690 O   0  0  0  0  0  0  0  0  0  0  0  0
    7.3320   -4.8020   20.8590 C   0  0  0  0  0  0  0  0  0  0  0  0
    4.6980    0.9720   19.5440 C   0  0  0  0  0  0  0  0  0  0  0  0
    6.8480    0.7580   18.2150 C   0  0  0  0  0  0  0  0  0  0  0  0
   10.6590   -1.5730   23.5280 C   0  0  0  0  0  0  0  0  0  0  0  0
    8.5580   -1.2560   24.0260 C   0  0  0  0  0  0  0  0  0  0  0  0
   12.0980   -1.8230   23.0160 C   0  0  0  0  0  0  0  0  0  0  0  0
    6.9620    3.3100   22.6850 C   0  0  0  0  0  0  0  0  0  0  0  0
    7.5370   -4.8860   22.2000 N   0  0  0  0  0  0  0  0  0  0  0  0
    6.2120    1.2960   17.1570 N   0  0  0  0  0  0  0  0  0  0  0  0
    4.1210    1.5710   18.2910 C   0  0  0  0  0  0  0  0  0  0  0  0
    9.3370   -1.0140   25.2590 N   0  0  0  0  0  0  0  0  0  0  0  0
   10.6180   -1.2240   24.9040 O   0  0  0  0  0  0  0  0  0  0  0  0
   12.9730   -0.5100   22.9840 C   0  0  0  0  0  0  0  0  0  0  0  0
   12.1050   -2.3750   21.5380 C   0  0  0  0  0  0  0  0  0  0  0  0
   12.8150   -2.8590   23.9800 C   0  0  0  0  0  0  0  0  0  0  0  0
    4.9120    1.7130   17.1530 C   0  0  0  0  0  0  0  0  0  0  0  0
    8.0460    4.4610   22.4220 C   0  0  0  0  0  0  0  0  0  0  0  0
    6.7940   -5.6620   23.0710 N   0  0  0  0  0  0  0  0  0  0  0  0
    9.2150    5.4990   22.2510 C   0  0  0  0  0  0  0  0  0  0  0  0
    9.3230    3.9230   23.1370 C   0  0  0  0  0  0  0  0  0  0  0  0
    6.2950   -7.0700   22.8240 C   0  0  0  0  0  0  0  0  0  0  0  0
    6.3880   -4.9100   24.2950 C   0  0  0  0  0  0  0  0  0  0  0  0
   10.4590    3.4450   23.7720 C   0  0  0  0  0  0  0  0  0  0  0  0
   10.8450    5.6400   22.7300 C   0  0  0  0  0  0  0  0  0  0  0  0
    5.0820   -7.3650   23.4960 C   0  0  0  0  0  0  0  0  0  0  0  0
    6.0110   -5.7340   25.3520 C   0  0  0  0  0  0  0  0  0  0  0  0
   11.6250    6.7420   22.3920 O   0  0  0  0  0  0  0  0  0  0  0  0
   10.7220    2.1490   24.5240 C   0  0  0  0  0  0  0  0  0  0  0  0
   11.3180    4.4930   23.5060 C   0  0  0  0  0  0  0  0  0  0  0  0
    4.9490   -6.7410   24.8800 N   0  0  0  0  0  0  0  0  0  0  0  0
   12.5530    7.3220   23.3090 C   0  0  0  0  0  0  0  0  0  0  0  0
    3.5030   -6.9130   25.7780 S   0  0  0  0  0  0  0  0  0  0  0  0
    2.7120   -7.9560   25.1690 O   0  0  0  0  0  0  0  0  0  0  0  0
    3.9200   -7.0880   27.1590 O   0  0  0  0  0  0  0  0  0  0  0  0
    2.6190   -5.3430   25.6970 C   0  0  0  0  0  0  0  0  0  0  0  0
    1.6470   -4.9500   24.6910 C   0  0  0  0  0  0  0  0  0  0  0  0
    2.9510   -4.3090   26.8390 C   0  0  0  0  0  0  0  0  0  0  0  0
    1.1790   -5.7970   23.4790 C   0  0  0  0  0  0  0  0  0  0  0  0
    1.0470   -3.6700   24.7680 C   0  0  0  0  0  0  0  0  0  0  0  0
    2.3090   -3.0530   26.8570 C   0  0  0  0  0  0  0  0  0  0  0  0
    1.3770   -2.6570   25.9010 C   0  0  0  0  0  0  0  0  0  0  0  0
   -0.1530   -6.6230   23.7450 C   0  0  1  0  0  0  0  0  0  0  0  0
    0.6790   -1.3070   25.9070 C   0  0  0  0  0  0  0  0  0  0  0  0
   -1.3330   -5.9800   23.2560 C   0  0  0  0  0  0  0  0  0  0  0  0
    0.0760   -8.0470   23.2810 N   0  0  0  0  0  0  0  0  0  0  0  0
   -1.9840   -6.6250   21.6230 S   0  0  0  0  0  0  0  0  0  0  0  0
   -1.1230   -8.9150   23.1150 C   0  0  0  0  0  0  0  0  0  0  0  0
   -2.1910   -8.3710   22.1230 C   0  0  0  0  0  0  0  0  0  0  0  0
  1  2  1  0
  2  3  1  6
  1  4  1  0
  1  5  1  0
  5  6  2  0
  5  7  1  0
  2  8  1  0
  4  9  1  0
  3 10  1  0
  3 11  2  0
  7 12  1  0
  8 13  2  0
  8 14  1  0
  9 15  2  0
  9 16  1  0
 15 17  1  0
 10 18  1  0
 12 19  2  3
 14 20  2  0
 13 21  1  0
 16 22  2  0
 15 23  1  0
 22 23  1  0
 17 24  1  0
 17 25  1  0
 17 26  1  0
 20 27  1  0
 21 27  2  0
 18 28  1  0
 19 29  1  0
 28 30  2  0
 28 31  1  0
 29 32  1  0
 29 33  1  0
 31 34  2  0
 30 35  1  0
 32 36  1  0
 33 37  1  0
 35 38  1  0
 34 39  1  0
 34 40  1  0
 35 40  2  0
 36 41  1  0
 37 41  1  0
 38 42  1  0
 41 43  1  0
 43 44  2  0
 43 45  2  0
 43 46  1  0
 46 47  1  0
 46 48  2  0
 47 49  1  0
 47 50  2  0
 48 51  1  0
 50 52  1  0
 51 52  2  0
 53 49  1  6
 52 54  1  0
 53 55  1  0
 53 56  1  0
 55 57  1  0
 56 58  1  0
 57 59  1  0
 58 59  1  0
M  END
