x2764-x1348
     RDKit          3D

 35 38  0  0  0  0  0  0  0  0999 V2000
    8.0380   -0.8350   22.2000 N   0  0  0  0  0  0  0  0  0  0  0  0
    7.2140   -1.2230   21.0270 C   0  0  0  0  0  0  0  0  0  0  0  0
    7.2000   -2.6630   20.8360 N   0  0  0  0  0  0  0  0  0  0  0  0
    8.8560   -1.8190   22.7880 C   0  0  1  0  0  0  0  0  0  0  0  0
   10.3180   -1.5660   23.1270 C   0  0  0  0  0  0  0  0  0  0  0  0
    6.5500   -0.1200   20.2160 C   0  0  0  0  0  0  0  0  0  0  0  0
    8.0820   -2.3840   23.9880 C   0  0  0  0  0  0  0  0  0  0  0  0
    6.6360   -3.2730   19.7610 C   0  0  0  0  0  0  0  0  0  0  0  0
   11.5000   -1.6510   22.1830 C   0  0  0  0  0  0  0  0  0  0  0  0
   10.8940   -1.1890   24.4740 C   0  0  0  0  0  0  0  0  0  0  0  0
    6.2890   -0.4130   18.8730 C   0  0  0  0  0  0  0  0  0  0  0  0
    6.1920    1.1150   20.7410 C   0  0  0  0  0  0  0  0  0  0  0  0
    8.0020   -3.7660   23.9210 C   0  0  0  0  0  0  0  0  0  0  0  0
    6.4990    1.3320   22.1190 O   0  0  0  0  0  0  0  0  0  0  0  0
    5.5930   -3.9620   19.7000 O   0  0  0  0  0  0  0  0  0  0  0  0
    7.4990   -3.0740   18.5850 C   0  0  0  0  0  0  0  0  0  0  0  0
   12.7340   -1.3890   22.6900 N   0  0  0  0  0  0  0  0  0  0  0  0
   12.5850   -1.0530   24.2230 S   0  0  0  0  0  0  0  0  0  0  0  0
    5.6490    0.5200   17.9920 C   0  0  0  0  0  0  0  0  0  0  0  0
    5.5650    2.0390   19.9010 C   0  0  0  0  0  0  0  0  0  0  0  0
    6.6390   -4.2750   23.8260 N   0  0  0  0  0  0  0  0  0  0  0  0
    7.6850    2.0690   22.4570 C   0  0  0  0  0  0  0  0  0  0  0  0
    5.3040    1.7380   18.5660 C   0  0  0  0  0  0  0  0  0  0  0  0
    6.3490   -5.4960   24.4330 C   0  0  1  0  0  0  0  0  0  0  0  0
    5.7460   -3.9140   22.6880 C   0  0  0  0  0  0  0  0  0  0  0  0
    7.7970    3.3660   22.0110 C   0  0  0  0  0  0  0  0  0  0  0  0
    6.0990   -5.2450   25.7880 C   0  0  2  0  0  0  0  0  0  0  0  0
    5.3460   -6.3430   23.7700 C   0  0  2  0  0  0  0  0  0  0  0  0
    4.7350   -5.2800   22.4320 S   0  0  0  0  0  0  0  0  0  0  0  0
    7.7520    4.5540   22.8520 N   0  0  0  0  0  0  0  0  0  0  0  0
    7.4190   -5.0200   26.3590 O   0  0  0  0  0  0  0  0  0  0  0  0
    4.3160   -6.8280   24.6000 C   0  0  0  0  0  0  0  0  0  0  0  0
    5.3840   -6.2220   26.6070 C   0  0  0  0  0  0  0  0  0  0  0  0
    7.5150   -5.0100   27.7840 C   0  0  0  0  0  0  0  0  0  0  0  0
    4.2850   -6.7990   25.9830 C   0  0  0  0  0  0  0  0  0  0  0  0
  1  2  1  0
  2  3  2  3
  1  4  1  0
  4  5  1  0
  2  6  1  0
  4  7  1  1
  3  8  1  0
  5  9  1  0
  5 10  2  0
  6 11  2  0
  6 12  1  0
  7 13  1  0
 12 14  1  0
  8 15  2  0
  8 16  1  0
  9 17  2  0
 10 18  1  0
 17 18  1  0
 11 19  1  0
 12 20  2  0
 13 21  1  0
 14 22  1  0
 19 23  2  0
 20 23  1  0
 24 21  1  6
 21 25  1  0
 22 26  1  0
 24 27  1  0
 24 28  1  0
 25 29  2  0
 28 29  1  0
 26 30  3  0
 27 31  1  1
 28 32  1  1
 27 33  1  0
 31 34  1  0
 32 35  2  0
 33 35  1  0
M  END
