x2764-x1308
     RDKit          3D

 39 42  0  0  0  0  0  0  0  0999 V2000
    8.5430   -1.3120   21.5030 N   0  0  0  0  0  0  0  0  0  0  0  0
    7.0680   -1.2310   21.1870 C   0  0  0  0  0  0  0  0  0  0  0  0
    6.0270   -2.1050   21.7820 N   0  0  0  0  0  0  0  0  0  0  0  0
    9.0060   -1.9100   22.6980 C   0  0  0  0  0  0  0  0  0  0  0  0
   10.4940   -1.7390   23.0630 C   0  0  0  0  0  0  0  0  0  0  0  0
    6.4870   -0.2080   20.1670 C   0  0  0  0  0  0  0  0  0  0  0  0
    6.2710   -3.1450   22.7770 C   0  0  0  0  0  0  0  0  0  0  0  0
   11.4740   -1.7250   22.1120 C   0  0  0  0  0  0  0  0  0  0  0  0
   11.0670   -1.5880   24.2560 C   0  0  0  0  0  0  0  0  0  0  0  0
    6.2830   -0.5030   18.8150 C   0  0  0  0  0  0  0  0  0  0  0  0
    6.1320    1.0610   20.6640 C   0  0  0  0  0  0  0  0  0  0  0  0
    6.3680    1.2810   21.9990 O   0  0  0  0  0  0  0  0  0  0  0  0
   12.8550   -1.5560   22.5460 N   0  0  0  0  0  0  0  0  0  0  0  0
   12.7790   -1.4390   24.0800 S   0  0  0  0  0  0  0  0  0  0  0  0
    5.7220    0.4540   18.0040 C   0  0  0  0  0  0  0  0  0  0  0  0
    5.5600    2.0040   19.7840 C   0  0  0  0  0  0  0  0  0  0  0  0
    6.4750   -4.5070   22.1390 C   0  0  0  0  0  0  0  0  0  0  0  0
    7.6260    1.9290   22.2330 C   0  0  0  0  0  0  0  0  0  0  0  0
    6.6350   -4.3740   20.6100 C   0  0  0  0  0  0  0  0  0  0  0  0
    5.3630    1.6580   18.4390 C   0  0  0  0  0  0  0  0  0  0  0  0
    7.5060   -5.1970   22.7300 C   0  0  0  0  0  0  0  0  0  0  0  0
    5.2590   -5.2070   22.2310 C   0  0  0  0  0  0  0  0  0  0  0  0
    7.7800    3.2720   21.9570 C   0  0  0  0  0  0  0  0  0  0  0  0
    7.7740   -3.5090   20.0540 C   0  0  0  0  0  0  0  0  0  0  0  0
    5.7560   -4.9090   19.9640 O   0  0  0  0  0  0  0  0  0  0  0  0
    7.2200   -5.1880   24.1040 C   0  0  0  0  0  0  0  0  0  0  0  0
    5.0690   -5.9430   23.3870 C   0  0  0  0  0  0  0  0  0  0  0  0
    7.8260    4.3370   22.9490 N   0  0  0  0  0  0  0  0  0  0  0  0
    5.7700   -5.4280   24.4090 N   0  0  0  0  0  0  0  0  0  0  0  0
    5.1670   -5.6120   25.8280 S   0  0  0  0  0  0  0  0  0  0  0  0
    6.1420   -5.2130   26.7800 O   0  0  0  0  0  0  0  0  0  0  0  0
    4.5590   -6.9150   25.8770 O   0  0  0  0  0  0  0  0  0  0  0  0
    3.9100   -4.3800   25.9910 C   0  0  0  0  0  0  0  0  0  0  0  0
    4.2630   -3.0930   26.4030 C   0  0  0  0  0  0  0  0  0  0  0  0
    2.5810   -4.7110   25.7150 C   0  0  0  0  0  0  0  0  0  0  0  0
    3.2720   -2.1270   26.5500 C   0  0  0  0  0  0  0  0  0  0  0  0
    1.5860   -3.7360   25.8640 C   0  0  0  0  0  0  0  0  0  0  0  0
    1.9380   -2.4430   26.2870 C   0  0  0  0  0  0  0  0  0  0  0  0
    0.7190   -1.2480   26.4910 Cl  0  0  0  0  0  0  0  0  0  0  0  0
  1  2  1  0
  2  3  2  3
  1  4  1  0
  4  5  1  0
  2  6  1  0
  3  7  1  0
  5  8  1  0
  5  9  2  0
  6 10  2  0
  6 11  1  0
 11 12  1  0
  8 13  2  0
  9 14  1  0
 13 14  1  0
 10 15  1  0
 11 16  2  0
  7 17  1  0
 12 18  1  0
 17 19  1  0
 15 20  2  0
 16 20  1  0
 17 21  1  0
 17 22  1  0
 18 23  1  0
 19 24  1  0
 19 25  2  0
 21 26  1  0
 22 27  1  0
 23 28  3  0
 26 29  1  0
 27 29  1  0
 29 30  1  0
 30 31  2  0
 30 32  2  0
 30 33  1  0
 33 34  2  0
 33 35  1  0
 34 36  1  0
 35 37  2  0
 36 38  2  0
 37 38  1  0
 38 39  1  0
M  END
