x2764-x2649-x0786-x2694
     RDKit          3D

 52 56  0  0  0  0  0  0  0  0999 V2000
    7.6730   -0.7600   21.4670 C   0  0  0  0  0  0  0  0  0  0  0  0
    6.9240    0.5010   21.3820 C   0  0  1  0  0  0  0  0  0  0  0  0
    7.6960    1.6980   21.8350 C   0  0  0  0  0  0  0  0  0  0  0  0
    9.0630   -0.9090   21.3900 N   0  0  0  0  0  0  0  0  0  0  0  0
    6.9220   -1.9390   21.8120 N   0  0  0  0  0  0  0  0  0  0  0  0
    7.4140   -3.2580   22.1010 C   0  0  0  0  0  0  0  0  0  0  0  0
    6.3010    0.7680   20.0520 C   0  0  0  0  0  0  0  0  0  0  0  0
    9.6210   -1.2270   22.5990 C   0  0  0  0  0  0  0  0  0  0  0  0
    7.2680    2.1770   22.8150 N   0  0  0  0  0  0  0  0  0  0  0  0
    8.8060    2.1310   21.0320 O   0  0  0  0  0  0  0  0  0  0  0  0
    6.4840   -4.1960   21.8980 N   0  0  0  0  0  0  0  0  0  0  0  0
    5.1440    1.5030   20.1520 C   0  0  0  0  0  0  0  0  0  0  0  0
    6.8620    0.3350   18.8810 C   0  0  0  0  0  0  0  0  0  0  0  0
   10.9380   -1.5110   23.3160 C   0  0  0  0  0  0  0  0  0  0  0  0
    8.7290   -1.3440   23.6080 C   0  0  0  0  0  0  0  0  0  0  0  0
   12.3340   -1.5820   23.0490 C   0  0  0  0  0  0  0  0  0  0  0  0
    7.2110    3.6750   22.8060 C   0  0  0  0  0  0  0  0  0  0  0  0
    4.5630    1.9250   21.4840 C   0  0  0  0  0  0  0  0  0  0  0  0
    6.1680   -4.6450   20.6120 C   0  0  0  0  0  0  0  0  0  0  0  0
    6.2510    0.6770   17.6220 N   0  0  0  0  0  0  0  0  0  0  0  0
    4.4660    1.8860   18.8830 C   0  0  0  0  0  0  0  0  0  0  0  0
    9.1680   -1.6460   24.8100 N   0  0  0  0  0  0  0  0  0  0  0  0
   10.5200   -1.7540   24.6690 O   0  0  0  0  0  0  0  0  0  0  0  0
    5.6920   -4.3740   23.1010 C   0  0  0  0  0  0  0  0  0  0  0  0
   12.9620   -0.2160   23.3280 C   0  0  0  0  0  0  0  0  0  0  0  0
   12.6620   -2.0400   21.6360 C   0  0  0  0  0  0  0  0  0  0  0  0
   12.9940   -2.4800   24.1280 C   0  0  0  0  0  0  0  0  0  0  0  0
    7.2840   -5.3720   20.0400 C   0  0  0  0  0  0  0  0  0  0  0  0
    5.1800   -4.4640   19.9080 O   0  0  0  0  0  0  0  0  0  0  0  0
    5.1070    1.4330   17.6120 C   0  0  0  0  0  0  0  0  0  0  0  0
    8.5440    4.1400   23.1580 C   0  0  0  0  0  0  0  0  0  0  0  0
    4.8600   -5.6490   23.0840 C   0  0  0  0  0  0  0  0  0  0  0  0
    5.6980   -3.4690   24.1660 C   0  0  0  0  0  0  0  0  0  0  0  0
    8.8760    5.4090   23.6160 C   0  0  0  0  0  0  0  0  0  0  0  0
    9.6510    3.1380   23.0070 C   0  0  0  0  0  0  0  0  0  0  0  0
    4.0710   -5.8890   24.2100 C   0  0  0  0  0  0  0  0  0  0  0  0
    4.9230   -3.7250   25.2550 C   0  0  0  0  0  0  0  0  0  0  0  0
    3.2220   -7.0820   24.2980 C   0  0  0  0  0  0  0  0  0  0  0  0
   10.9110    3.5030   23.2960 C   0  0  0  0  0  0  0  0  0  0  0  0
   10.2160    5.7530   23.9350 C   0  0  0  0  0  0  0  0  0  0  0  0
    4.0840   -4.9560   25.2960 C   0  0  0  0  0  0  0  0  0  0  0  0
   10.6710    6.9580   24.4020 O   0  0  0  0  0  0  0  0  0  0  0  0
   11.9650    2.4960   23.0830 C   0  0  0  0  0  0  0  0  0  0  0  0
    3.7090   -8.0690   24.8300 O   0  0  0  0  0  0  0  0  0  0  0  0
   11.1910    4.7670   23.7520 C   0  0  0  0  0  0  0  0  0  0  0  0
    1.9300   -6.9930   23.7680 N   0  0  0  0  0  0  0  0  0  0  0  0
   11.9520    6.9820   25.0120 C   0  0  0  0  0  0  0  0  0  0  0  0
    1.4090   -5.6700   23.3750 C   0  0  0  0  0  0  0  0  0  0  0  0
    0.9260   -8.0440   23.9300 C   0  0  0  0  0  0  0  0  0  0  0  0
    0.6950   -5.0620   24.4140 C   0  0  0  0  0  0  0  0  0  0  0  0
   -0.1230   -7.6840   24.7900 C   0  0  0  0  0  0  0  0  0  0  0  0
   -0.8400   -6.0360   24.3620 S   0  0  0  0  0  0  0  0  0  0  0  0
  2  1  1  6
  2  3  1  0
  1  4  1  0
  1  5  2  3
  5  6  1  0
  2  7  1  0
  4  8  1  0
  3  9  1  0
  3 10  2  0
  6 11  1  0
  7 12  2  0
  7 13  1  0
  8 14  2  0
  8 15  1  0
 14 16  1  0
  9 17  1  0
 12 18  1  0
 11 19  1  0
 13 20  2  0
 12 21  1  0
 15 22  2  0
 14 23  1  0
 22 23  1  0
 11 24  1  0
 16 25  1  0
 16 26  1  0
 16 27  1  0
 19 28  1  0
 19 29  2  0
 20 30  1  0
 21 30  2  0
 17 31  1  0
 24 32  2  0
 24 33  1  0
 31 34  2  0
 31 35  1  0
 32 36  1  0
 33 37  2  0
 36 38  1  0
 35 39  2  0
 34 40  1  0
 36 41  2  0
 37 41  1  0
 40 42  1  0
 39 43  1  0
 38 44  2  0
 39 45  1  0
 40 45  2  0
 38 46  1  0
 42 47  1  0
 46 48  1  0
 46 49  1  0
 48 50  1  0
 49 51  1  0
 50 52  1  0
 51 52  1  0
M  END
