x2764-x2649-x2754-x2694
     RDKit          3D

 51 55  0  0  0  0  0  0  0  0999 V2000
    7.6560   -1.6260   21.2330 C   0  0  2  0  0  0  0  0  0  0  0  0
    6.7670   -0.2820   21.1600 C   0  0  1  0  0  0  0  0  0  0  0  0
    7.5000    1.0500   21.6240 C   0  0  0  0  0  0  0  0  0  0  0  0
    9.0350   -1.2020   21.0290 N   0  0  0  0  0  0  0  0  0  0  0  0
    7.1300   -3.1900   20.5800 C   0  0  2  0  0  0  0  0  0  0  0  0
    5.7080   -3.1010   20.0280 C   0  0  0  0  0  0  0  0  0  0  0  0
    6.2250    0.3120   19.9200 C   0  0  0  0  0  0  0  0  0  0  0  0
   10.1400   -1.3370   21.9330 C   0  0  0  0  0  0  0  0  0  0  0  0
    7.0920   -4.2690   21.6680 N   0  0  0  0  0  0  0  0  0  0  0  0
    7.0210    1.8440   22.3920 N   0  0  0  0  0  0  0  0  0  0  0  0
    8.5960    1.2430   21.0660 O   0  0  0  0  0  0  0  0  0  0  0  0
    5.0770   -4.1090   19.7070 O   0  0  0  0  0  0  0  0  0  0  0  0
    5.1100    1.1210   19.9750 C   0  0  0  0  0  0  0  0  0  0  0  0
    6.8210    0.1040   18.7060 C   0  0  0  0  0  0  0  0  0  0  0  0
   10.9890   -1.4730   23.0770 C   0  0  0  0  0  0  0  0  0  0  0  0
    9.0470   -1.3110   22.8080 C   0  0  0  0  0  0  0  0  0  0  0  0
    7.5780   -3.8290   22.9850 C   0  0  0  0  0  0  0  0  0  0  0  0
    5.9290   -5.1660   21.9110 C   0  0  0  0  0  0  0  0  0  0  0  0
   12.4750   -1.5540   23.0730 C   0  0  0  0  0  0  0  0  0  0  0  0
    7.0270    3.2400   22.2120 C   0  0  0  0  0  0  0  0  0  0  0  0
    4.3570    1.4580   21.1140 C   0  0  0  0  0  0  0  0  0  0  0  0
    6.3380    0.6900   17.6040 N   0  0  0  0  0  0  0  0  0  0  0  0
    4.6490    1.6970   18.8190 C   0  0  0  0  0  0  0  0  0  0  0  0
    9.1080   -1.4170   24.1270 N   0  0  0  0  0  0  0  0  0  0  0  0
   10.4220   -1.5270   24.2800 O   0  0  0  0  0  0  0  0  0  0  0  0
    6.5710   -3.0560   23.5680 C   0  0  0  0  0  0  0  0  0  0  0  0
    5.0720   -4.6770   22.9670 C   0  0  0  0  0  0  0  0  0  0  0  0
   13.0500   -0.1520   23.1590 C   0  0  0  0  0  0  0  0  0  0  0  0
   12.9700   -2.1480   21.7490 C   0  0  0  0  0  0  0  0  0  0  0  0
   12.8800   -2.3460   24.1370 C   0  0  0  0  0  0  0  0  0  0  0  0
    5.1740    1.5750   17.5500 C   0  0  0  0  0  0  0  0  0  0  0  0
    8.2900    3.9760   22.7950 C   0  0  0  0  0  0  0  0  0  0  0  0
    5.6860   -3.9950   24.0360 C   0  0  0  0  0  0  0  0  0  0  0  0
    4.8970   -3.3670   25.1790 C   0  0  0  0  0  0  0  0  0  0  0  0
    8.7540    5.2930   23.0860 C   0  0  0  0  0  0  0  0  0  0  0  0
    9.2160    2.8270   23.0980 C   0  0  0  0  0  0  0  0  0  0  0  0
    3.7360   -3.0330   24.9680 O   0  0  0  0  0  0  0  0  0  0  0  0
    5.5110   -3.2180   26.3770 N   0  0  0  0  0  0  0  0  0  0  0  0
   10.4300    3.0550   23.6150 C   0  0  0  0  0  0  0  0  0  0  0  0
   10.0660    5.4530   23.6470 C   0  0  0  0  0  0  0  0  0  0  0  0
   10.4850    6.7330   23.9280 O   0  0  0  0  0  0  0  0  0  0  0  0
   11.1970    1.8190   23.8320 C   0  0  0  0  0  0  0  0  0  0  0  0
    4.9990   -2.1750   27.3050 C   0  0  0  0  0  0  0  0  0  0  0  0
   10.8750    4.3370   23.8930 C   0  0  0  0  0  0  0  0  0  0  0  0
    6.8420   -3.7620   26.6560 C   0  0  0  0  0  0  0  0  0  0  0  0
   11.6880    6.8420   24.7200 C   0  0  0  0  0  0  0  0  0  0  0  0
    7.0630   -4.9950   27.6090 C   0  0  0  0  0  0  0  0  0  0  0  0
    7.9760   -3.1830   26.0580 C   0  0  0  0  0  0  0  0  0  0  0  0
    8.3490   -5.4700   27.8280 C   0  0  0  0  0  0  0  0  0  0  0  0
    9.2430   -3.7030   26.3100 C   0  0  0  0  0  0  0  0  0  0  0  0
    9.4710   -4.7610   27.1250 C   0  0  0  0  0  0  0  0  0  0  0  0
  1  2  1  0
  2  3  1  6
  1  4  1  6
  1  5  1  0
  5  6  1  1
  2  7  1  0
  4  8  1  0
  5  9  1  0
  3 10  1  0
  3 11  2  0
  6 12  2  0
  7 13  2  0
  7 14  1  0
  8 15  2  0
  8 16  1  0
  9 17  1  0
  9 18  1  0
 15 19  1  0
 10 20  1  0
 13 21  1  0
 14 22  2  0
 13 23  1  0
 16 24  2  0
 15 25  1  0
 24 25  1  0
 17 26  1  0
 18 27  1  0
 19 28  1  0
 19 29  1  0
 19 30  1  0
 22 31  1  0
 23 31  2  0
 20 32  1  0
 26 33  1  0
 27 33  1  0
 33 34  1  0
 32 35  2  0
 32 36  1  0
 34 37  2  0
 34 38  1  0
 36 39  2  0
 35 40  1  0
 40 41  1  0
 39 42  1  0
 38 43  1  0
 39 44  1  0
 40 44  2  0
 38 45  1  0
 41 46  1  0
 45 47  2  0
 45 48  1  0
 47 49  1  0
 48 50  2  0
 49 51  2  0
 50 51  1  0
M  END
