x2764-x2694-x2193-x0731-x0540
     RDKit          3D

 69 75  0  0  0  0  0  0  0  0999 V2000
    6.6940   -1.5230   21.2000 N   0  0  0  0  0  0  0  0  0  0  0  0
    5.6560   -2.6630   21.1310 C   0  0  0  0  0  0  0  0  0  0  0  0
    4.5690   -2.7040   20.4900 O   0  0  0  0  0  0  0  0  0  0  0  0
    6.3670    0.0060   21.1640 C   0  0  1  0  0  0  0  0  0  0  0  0
    8.0860   -2.0770   21.2320 N   0  0  0  0  0  0  0  0  0  0  0  0
    5.7670   -3.9170   21.8100 C   0  0  0  0  0  0  0  0  0  0  0  0
    7.5270    1.0920   21.3680 C   0  0  0  0  0  0  0  0  0  0  0  0
    5.7190    0.4980   19.8520 C   0  0  0  0  0  0  0  0  0  0  0  0
    9.3280   -1.9890   21.9550 C   0  0  0  0  0  0  0  0  0  0  0  0
    6.3290   -5.0580   20.8730 C   0  0  0  0  0  0  0  0  0  0  0  0
    7.1820    2.5640   21.3380 N   0  0  0  0  0  0  0  0  0  0  0  0
    8.6790    0.7540   21.4840 O   0  0  0  0  0  0  0  0  0  0  0  0
    4.6480    1.5200   19.7480 C   0  0  0  0  0  0  0  0  0  0  0  0
    6.2270   -0.0680   18.6660 C   0  0  0  0  0  0  0  0  0  0  0  0
   10.6160   -1.8980   22.7060 C   0  0  0  0  0  0  0  0  0  0  0  0
    8.6650   -1.9810   23.2900 C   0  0  0  0  0  0  0  0  0  0  0  0
   12.1340   -1.8520   22.2940 C   0  0  0  0  0  0  0  0  0  0  0  0
    7.2850    3.4410   22.4840 C   0  0  0  0  0  0  0  0  0  0  0  0
    3.8620    2.3880   20.8390 C   0  0  0  0  0  0  0  0  0  0  0  0
    5.7120    0.3550   17.3620 N   0  0  0  0  0  0  0  0  0  0  0  0
    4.1920    1.8810   18.4360 C   0  0  0  0  0  0  0  0  0  0  0  0
    9.3090   -1.8960   24.4300 N   0  0  0  0  0  0  0  0  0  0  0  0
   10.5710   -1.8360   24.0540 O   0  0  0  0  0  0  0  0  0  0  0  0
    6.8600   -6.2680   21.5480 N   0  0  0  0  0  0  0  0  0  0  0  0
   12.6690   -0.5850   22.3460 C   0  0  0  0  0  0  0  0  0  0  0  0
   12.3040   -2.3870   20.8050 C   0  0  0  0  0  0  0  0  0  0  0  0
   13.0260   -2.7480   23.2390 C   0  0  0  0  0  0  0  0  0  0  0  0
    3.1500    1.7680   21.8830 C   0  0  0  0  0  0  0  0  0  0  0  0
    4.7450    1.2910   17.3240 C   0  0  0  0  0  0  0  0  0  0  0  0
    8.5090    4.4340   22.4840 C   0  0  0  0  0  0  0  0  0  0  0  0
    7.9150   -6.0860   22.5780 C   0  0  0  0  0  0  0  0  0  0  0  0
    5.8710   -7.2640   22.0090 C   0  0  0  0  0  0  0  0  0  0  0  0
    2.8210    2.6400   22.8890 N   0  0  0  0  0  0  0  0  0  0  0  0
    9.6560    5.3640   22.4850 C   0  0  0  0  0  0  0  0  0  0  0  0
    9.2710    3.2830   23.2090 C   0  0  0  0  0  0  0  0  0  0  0  0
    7.4430   -6.0160   24.0380 C   0  0  0  0  0  0  0  0  0  0  0  0
    5.1960   -6.9990   23.3710 C   0  0  0  0  0  0  0  0  0  0  0  0
    1.5500    2.6080   23.6550 C   0  0  0  0  0  0  0  0  0  0  0  0
   10.6180    3.1800   23.6940 C   0  0  0  0  0  0  0  0  0  0  0  0
   11.0180    5.3560   22.9210 C   0  0  0  0  0  0  0  0  0  0  0  0
    5.9820   -6.1960   24.3590 N   0  0  0  0  0  0  0  0  0  0  0  0
   11.7330    6.5250   22.6660 O   0  0  0  0  0  0  0  0  0  0  0  0
   11.0360    1.8900   24.3620 C   0  0  0  0  0  0  0  0  0  0  0  0
    1.3190    1.7780   24.5250 O   0  0  0  0  0  0  0  0  0  0  0  0
    0.6790    3.6370   23.2920 N   0  0  0  0  0  0  0  0  0  0  0  0
    5.4160   -5.9660   25.9770 S   0  0  2  0  0  0  0  0  0  0  0  0
   11.4350    4.2130   23.5260 C   0  0  0  0  0  0  0  0  0  0  0  0
   12.5800    7.1320   23.6670 C   0  0  0  0  0  0  0  0  0  0  0  0
    6.5120   -5.1460   26.7080 N   0  0  0  0  0  0  0  0  0  0  0  0
    4.9390   -7.2600   26.4130 O   0  0  0  0  0  0  0  0  0  0  0  0
   -0.6410    3.8900   23.9210 C   0  0  0  0  0  0  0  0  0  0  0  0
    3.9840   -4.8880   25.8120 C   0  0  0  0  0  0  0  0  0  0  0  0
   -0.7030    5.3230   24.5510 C   0  0  0  0  0  0  0  0  0  0  0  0
   -1.6790    3.6880   23.0190 C   0  0  0  0  0  0  0  0  0  0  0  0
    7.3790   -5.7460   27.7500 C   0  0  1  0  0  0  0  0  0  0  0  0
    2.6750   -5.4300   25.9490 C   0  0  0  0  0  0  0  0  0  0  0  0
    4.1480   -3.4920   25.5470 C   0  0  0  0  0  0  0  0  0  0  0  0
   -2.0100    5.7190   24.9760 C   0  0  0  0  0  0  0  0  0  0  0  0
   -2.9200    4.1580   23.4090 C   0  0  0  0  0  0  0  0  0  0  0  0
    8.3070   -6.7590   27.1780 N   0  0  0  0  0  0  0  0  0  0  0  0
    8.1100   -4.5280   28.4870 C   0  0  0  0  0  0  0  0  0  0  0  0
    1.5390   -4.5830   25.8250 C   0  0  0  0  0  0  0  0  0  0  0  0
    3.0080   -2.6530   25.4220 C   0  0  0  0  0  0  0  0  0  0  0  0
   -3.0130    5.5060   23.9120 C   0  0  0  0  0  0  0  0  0  0  0  0
    9.5940   -4.3580   28.2720 N   0  0  0  0  0  0  0  0  0  0  0  0
    9.6700   -6.3440   26.7850 C   0  0  0  0  0  0  0  0  0  0  0  0
    1.6890   -3.1950   25.5630 C   0  0  0  0  0  0  0  0  0  0  0  0
    0.4770   -2.3090   25.4280 C   0  0  0  0  0  0  0  0  0  0  0  0
   10.0190   -4.8530   26.9470 C   0  0  0  0  0  0  0  0  0  0  0  0
  1  2  1  0
  2  3  2  0
  1  4  1  0
  1  5  1  0
  2  6  1  0
  4  7  1  6
  4  8  1  0
  5  9  1  0
  6 10  1  0
  7 11  1  0
  7 12  2  0
  8 13  1  0
  8 14  2  0
  9 15  2  0
  9 16  1  0
 15 17  1  0
 11 18  1  0
 13 19  1  0
 14 20  1  0
 13 21  2  0
 16 22  2  0
 15 23  1  0
 22 23  1  0
 10 24  1  0
 17 25  1  0
 17 26  1  0
 17 27  1  0
 19 28  1  0
 20 29  2  0
 21 29  1  0
 18 30  1  0
 24 31  1  0
 24 32  1  0
 28 33  1  0
 30 34  2  0
 30 35  1  0
 31 36  1  0
 32 37  1  0
 33 38  1  0
 35 39  2  0
 34 40  1  0
 36 41  1  0
 37 41  1  0
 40 42  1  0
 39 43  1  0
 38 44  2  0
 38 45  1  0
 41 46  1  0
 39 47  1  0
 40 47  2  0
 42 48  1  0
 46 49  2  0
 46 50  2  0
 45 51  1  0
 46 52  1  6
 51 53  1  0
 51 54  1  0
 55 49  1  6
 52 56  2  0
 52 57  1  0
 53 58  1  0
 54 59  1  0
 55 60  1  0
 55 61  1  0
 56 62  1  0
 57 63  2  0
 58 64  1  0
 59 64  1  0
 61 65  1  0
 60 66  1  0
 62 67  2  0
 63 67  1  0
 67 68  1  0
 65 69  1  0
 66 69  1  0
M  END
