x2764-x0426-x0072-x2694
     RDKit          3D

 56 60  0  0  0  0  0  0  0  0999 V2000
    6.7080   -1.6060   21.4490 N   0  0  0  0  0  0  0  0  0  0  0  0
    5.8290   -2.6630   20.9160 C   0  0  0  0  0  0  0  0  0  0  0  0
    4.7160   -3.0100   21.4210 O   0  0  0  0  0  0  0  0  0  0  0  0
    6.2980   -0.1080   21.4640 C   0  0  1  0  0  0  0  0  0  0  0  0
    8.0950   -2.0460   21.8490 N   0  0  0  0  0  0  0  0  0  0  0  0
    6.1980   -3.4970   19.6720 C   0  0  0  0  0  0  0  0  0  0  0  0
    7.3570    0.8570   21.7470 C   0  0  0  0  0  0  0  0  0  0  0  0
    5.6270    0.3500   20.1290 C   0  0  0  0  0  0  0  0  0  0  0  0
    8.4860   -2.0290   23.2980 C   0  0  2  0  0  0  0  0  0  0  0  0
    7.3540   -3.0210   18.7410 C   0  0  0  0  0  0  0  0  0  0  0  0
    6.9980    2.1320   22.2110 N   0  0  0  0  0  0  0  0  0  0  0  0
    8.5310    0.6150   21.5370 O   0  0  0  0  0  0  0  0  0  0  0  0
    4.2390    0.7190   19.8230 C   0  0  0  0  0  0  0  0  0  0  0  0
    6.5090    0.4570   18.9740 C   0  0  0  0  0  0  0  0  0  0  0  0
    9.8230   -1.6510   23.7380 C   0  0  1  0  0  0  0  0  0  0  0  0
    8.1780   -3.3020   23.7830 C   0  0  0  0  0  0  0  0  0  0  0  0
    7.1020    3.1710   21.3030 C   0  0  0  0  0  0  0  0  0  0  0  0
    3.1600    0.6980   20.7530 C   0  0  0  0  0  0  0  0  0  0  0  0
    6.1250    0.8830   17.6070 N   0  0  0  0  0  0  0  0  0  0  0  0
    3.9200    1.1310   18.5040 C   0  0  0  0  0  0  0  0  0  0  0  0
    8.6530   -3.2110   25.1910 N   0  0  0  0  0  0  0  0  0  0  0  0
    9.8210   -2.3160   25.0570 O   0  0  0  0  0  0  0  0  0  0  0  0
   11.1440   -2.2030   22.8970 C   0  0  1  0  0  0  0  0  0  0  0  0
    9.9870   -0.1500   24.1360 C   0  0  0  0  0  0  0  0  0  0  0  0
    3.0680    1.8540   21.5780 C   0  0  0  0  0  0  0  0  0  0  0  0
    9.0600   -4.4450   25.8850 C   0  0  0  0  0  0  0  0  0  0  0  0
    4.8470    1.2050   17.4740 C   0  0  0  0  0  0  0  0  0  0  0  0
    7.2530    4.7130   21.6820 C   0  0  0  0  0  0  0  0  0  0  0  0
   11.9210   -1.2350   22.2020 C   0  0  0  0  0  0  0  0  0  0  0  0
   11.0420    0.7530   23.5080 C   0  0  0  0  0  0  0  0  0  0  0  0
   12.1730   -3.0890   23.7380 C   0  0  0  0  0  0  0  0  0  0  0  0
    1.9510    2.0760   22.3290 N   0  0  0  0  0  0  0  0  0  0  0  0
    7.8960   -5.0920   26.5570 N   0  0  0  0  0  0  0  0  0  0  0  0
    7.3930    6.1410   22.0330 C   0  0  0  0  0  0  0  0  0  0  0  0
    8.7960    4.4380   22.0310 C   0  0  0  0  0  0  0  0  0  0  0  0
   11.9470    0.1310   22.4340 C   0  0  0  0  0  0  0  0  0  0  0  0
   13.0420   -2.4430   24.6500 C   0  0  0  0  0  0  0  0  0  0  0  0
    1.6390    1.5100   23.5220 C   0  0  0  0  0  0  0  0  0  0  0  0
    7.9580   -5.3160   28.2650 S   0  0  0  0  0  0  0  0  0  0  0  0
    9.8900    5.2780   22.4970 C   0  0  0  0  0  0  0  0  0  0  0  0
    8.4170    7.0240   22.4820 C   0  0  0  0  0  0  0  0  0  0  0  0
    8.0480    8.4060   22.6650 O   0  0  0  0  0  0  0  0  0  0  0  0
   11.2080    4.7090   22.7220 C   0  0  0  0  0  0  0  0  0  0  0  0
    2.3190    0.4150   24.0040 O   0  0  0  0  0  0  0  0  0  0  0  0
    6.7980   -6.5280   28.5480 C   0  0  0  0  0  0  0  0  0  0  0  0
    9.2780   -5.8210   28.5920 O   0  0  0  0  0  0  0  0  0  0  0  0
    7.4520   -4.0800   28.8210 O   0  0  0  0  0  0  0  0  0  0  0  0
    9.6800    6.5800   22.7190 C   0  0  0  0  0  0  0  0  0  0  0  0
    0.5590    2.1180   24.3030 C   0  0  0  0  0  0  0  0  0  0  0  0
    7.8660    8.9290   23.9820 C   0  0  0  0  0  0  0  0  0  0  0  0
    0.9880    3.0300   25.3210 C   0  0  0  0  0  0  0  0  0  0  0  0
   -0.8420    1.9070   24.1670 C   0  0  0  0  0  0  0  0  0  0  0  0
    2.2930    3.2960   25.5420 F   0  0  0  0  0  0  0  0  0  0  0  0
   -1.8150    2.5420   24.9620 C   0  0  0  0  0  0  0  0  0  0  0  0
    0.0640    3.7020   26.1590 C   0  0  0  0  0  0  0  0  0  0  0  0
   -1.3380    3.5260   26.0540 C   0  0  0  0  0  0  0  0  0  0  0  0
  1  2  1  0
  2  3  2  0
  1  4  1  0
  1  5  1  0
  2  6  1  0
  4  7  1  6
  4  8  1  0
  9  5  1  6
  6 10  1  0
  7 11  1  0
  7 12  2  0
  8 13  1  0
  8 14  2  0
  9 15  1  0
  9 16  1  0
 11 17  1  0
 13 18  1  0
 14 19  1  0
 13 20  2  0
 16 21  1  0
 15 22  1  0
 21 22  1  0
 15 23  1  0
 15 24  1  1
 18 25  1  0
 21 26  1  0
 19 27  2  0
 20 27  1  0
 17 28  1  0
 23 29  1  0
 24 30  2  0
 23 31  1  1
 25 32  1  0
 26 33  1  0
 28 34  2  0
 28 35  1  0
 29 36  2  0
 30 36  1  0
 31 37  1  0
 32 38  1  0
 39 33  1  0
 35 40  2  0
 34 41  1  0
 41 42  1  0
 40 43  1  0
 38 44  2  0
 39 45  1  0
 39 46  2  0
 39 47  2  0
 40 48  1  0
 41 48  2  0
 38 49  1  0
 42 50  1  0
 49 51  2  0
 49 52  1  0
 51 53  1  0
 52 54  2  0
 51 55  1  0
 54 56  1  0
 55 56  2  0
M  END
