x2764-x1458-x2776-x2703
     RDKit          3D

 50 54  0  0  0  0  0  0  0  0999 V2000
    7.1870   -1.0960   21.9140 C   0  0  0  0  0  0  0  0  0  0  0  0
    6.8280    0.3310   21.6110 C   0  0  1  0  0  0  0  0  0  0  0  0
    7.9580    1.3820   21.8440 C   0  0  0  0  0  0  0  0  0  0  0  0
    6.3230   -2.2330   21.5700 N   0  0  0  0  0  0  0  0  0  0  0  0
    8.4670   -1.3510   22.5610 C   0  0  0  0  0  0  0  0  0  0  0  0
    6.2880    0.6270   20.2510 C   0  0  0  0  0  0  0  0  0  0  0  0
    9.5780   -1.3560   21.7580 C   0  0  0  0  0  0  0  0  0  0  0  0
    8.5920   -1.5760   23.9380 C   0  0  0  0  0  0  0  0  0  0  0  0
    6.4120   -3.6580   21.6910 C   0  0  1  0  0  0  0  0  0  0  0  0
    7.6780    2.3470   22.6390 N   0  0  0  0  0  0  0  0  0  0  0  0
    9.1520    1.2600   21.1140 O   0  0  0  0  0  0  0  0  0  0  0  0
    6.3870   -4.0890   20.2680 C   0  0  0  0  0  0  0  0  0  0  0  0
    5.1750    1.4490   20.1900 C   0  0  0  0  0  0  0  0  0  0  0  0
    6.8440    0.1510   19.1000 C   0  0  0  0  0  0  0  0  0  0  0  0
   10.8330   -1.5730   22.2600 C   0  0  0  0  0  0  0  0  0  0  0  0
    9.8260   -1.7980   24.5150 C   0  0  0  0  0  0  0  0  0  0  0  0
    7.7750   -4.0670   22.3250 C   0  0  0  0  0  0  0  0  0  0  0  0
    5.2380   -4.1780   22.2330 C   0  0  0  0  0  0  0  0  0  0  0  0
    6.4810    3.1990   22.5590 C   0  0  0  0  0  0  0  0  0  0  0  0
    5.6930   -5.0440   19.9800 O   0  0  0  0  0  0  0  0  0  0  0  0
    7.2400   -3.3150   19.2580 C   0  0  0  0  0  0  0  0  0  0  0  0
    6.3070    0.4980   17.7880 N   0  0  0  0  0  0  0  0  0  0  0  0
    4.5880    1.8300   18.8690 C   0  0  0  0  0  0  0  0  0  0  0  0
    8.5560    3.4390   22.9800 C   0  0  0  0  0  0  0  0  0  0  0  0
   10.9830   -1.8060   23.7400 C   0  0  0  0  0  0  0  0  0  0  0  0
    7.7520   -4.1560   23.7140 C   0  0  0  0  0  0  0  0  0  0  0  0
    5.3880   -4.6760   23.4960 C   0  0  0  0  0  0  0  0  0  0  0  0
   12.3440   -2.0080   24.2700 C   0  0  2  0  0  0  0  0  0  0  0  0
    6.7870    4.6630   22.2030 C   0  0  0  0  0  0  0  0  0  0  0  0
    5.1340    1.3810   17.7170 C   0  0  0  0  0  0  0  0  0  0  0  0
    9.8220    3.2270   23.5210 C   0  0  0  0  0  0  0  0  0  0  0  0
    8.0960    4.7310   22.7560 C   0  0  0  0  0  0  0  0  0  0  0  0
    6.4670   -3.8760   24.1570 C   0  0  1  0  0  0  0  0  0  0  0  0
   12.2120   -2.8790   25.3540 O   0  0  0  0  0  0  0  0  0  0  0  0
   10.3940    1.8780   23.7980 C   0  0  0  0  0  0  0  0  0  0  0  0
   12.9570   -0.6360   24.4270 C   0  0  0  0  0  0  0  0  0  0  0  0
    6.2010   -3.9680   25.6470 C   0  0  0  0  0  0  0  0  0  0  0  0
   10.5830    4.3580   23.8200 C   0  0  0  0  0  0  0  0  0  0  0  0
    8.8730    5.8510   23.0650 C   0  0  0  0  0  0  0  0  0  0  0  0
   13.4660   -3.3530   25.7380 C   0  0  0  0  0  0  0  0  0  0  0  0
    9.4850    1.1780   24.5030 C   0  0  0  0  0  0  0  0  0  0  0  0
    7.1710   -3.4950   26.6060 N   0  0  0  0  0  0  0  0  0  0  0  0
    5.1210   -4.3940   26.0100 O   0  0  0  0  0  0  0  0  0  0  0  0
   10.1470    5.6660   23.6140 C   0  0  0  0  0  0  0  0  0  0  0  0
   10.8450    6.8080   23.9000 O   0  0  0  0  0  0  0  0  0  0  0  0
    7.7350   -4.4580   27.5960 C   0  0  0  0  0  0  0  0  0  0  0  0
    6.5410   -2.2880   27.1650 C   0  0  0  0  0  0  0  0  0  0  0  0
   11.8180    6.7130   24.9360 C   0  0  0  0  0  0  0  0  0  0  0  0
    9.0440   -4.7580   27.2040 C   0  0  0  0  0  0  0  0  0  0  0  0
    6.9930   -5.6350   27.7510 C   0  0  0  0  0  0  0  0  0  0  0  0
  2  1  1  6
  2  3  1  0
  1  4  2  3
  1  5  1  0
  2  6  1  0
  5  7  2  0
  5  8  1  0
  9  4  1  6
  3 10  1  0
  3 11  2  0
  9 12  1  0
  6 13  2  0
  6 14  1  0
  7 15  1  0
  8 16  2  0
  9 17  1  0
  9 18  1  0
 10 19  1  0
 12 20  2  0
 12 21  1  0
 14 22  2  0
 13 23  1  0
 10 24  1  0
 15 25  2  0
 16 25  1  0
 17 26  1  0
 18 27  1  0
 25 28  1  0
 19 29  3  0
 22 30  1  0
 23 30  2  0
 24 31  2  0
 24 32  1  0
 29 32  1  0
 26 33  1  0
 27 33  1  0
 28 34  1  0
 31 35  1  0
 28 36  1  1
 33 37  1  1
 31 38  1  0
 32 39  2  0
 34 40  1  0
 35 41  1  0
 37 42  1  0
 37 43  2  0
 38 44  2  0
 39 44  1  0
 44 45  1  0
 42 46  1  0
 42 47  1  0
 45 48  1  0
 46 49  1  0
 46 50  1  0
M  END
