x2764-x1374
     RDKit          3D

 35 39  0  0  0  0  0  0  0  0999 V2000
    7.7340   -1.8530   22.1980 N   0  0  0  0  0  0  0  0  0  0  0  0
    7.2120   -2.1340   20.7990 C   0  0  0  0  0  0  0  0  0  0  0  0
    6.8370   -3.3290   20.0900 C   0  0  0  0  0  0  0  0  0  0  0  0
    8.8420   -2.6160   22.7260 C   0  0  1  0  0  0  0  0  0  0  0  0
   10.1460   -1.9360   23.0820 C   0  0  0  0  0  0  0  0  0  0  0  0
    6.7740   -0.8170   19.9920 C   0  0  0  0  0  0  0  0  0  0  0  0
    8.2830   -3.7300   23.6510 C   0  0  2  0  0  0  0  0  0  0  0  0
    6.4410   -4.5790   20.8520 C   0  0  0  0  0  0  0  0  0  0  0  0
   11.2850   -1.8140   22.2400 C   0  0  0  0  0  0  0  0  0  0  0  0
   10.5080   -1.3330   24.2310 C   0  0  0  0  0  0  0  0  0  0  0  0
    6.3610   -0.9020   18.6590 C   0  0  0  0  0  0  0  0  0  0  0  0
    6.6990    0.4850   20.6230 C   0  0  0  0  0  0  0  0  0  0  0  0
    9.0340   -4.2240   24.7870 C   0  0  2  0  0  0  0  0  0  0  0  0
    8.0390   -4.8180   22.7770 C   0  0  2  0  0  0  0  0  0  0  0  0
    7.0850    0.6290   21.9310 O   0  0  0  0  0  0  0  0  0  0  0  0
   10.4910   -3.9500   25.0740 C   0  0  0  0  0  0  0  0  0  0  0  0
    6.6830   -4.7380   22.2380 N   0  0  0  0  0  0  0  0  0  0  0  0
    5.7660   -5.3850   20.1460 O   0  0  0  0  0  0  0  0  0  0  0  0
   12.5490   -1.1500   22.6590 N   0  0  0  0  0  0  0  0  0  0  0  0
   12.1810   -0.7380   24.0810 S   0  0  0  0  0  0  0  0  0  0  0  0
    5.8890    0.2130   18.0050 C   0  0  0  0  0  0  0  0  0  0  0  0
    6.2040    1.5840   19.8760 C   0  0  0  0  0  0  0  0  0  0  0  0
    8.3170   -5.9060   23.5650 C   0  0  0  0  0  0  0  0  0  0  0  0
    8.9060   -5.6020   24.7490 C   0  0  0  0  0  0  0  0  0  0  0  0
    8.0400    1.6510   22.2600 C   0  0  0  0  0  0  0  0  0  0  0  0
    5.7970    1.4040   18.5550 C   0  0  0  0  0  0  0  0  0  0  0  0
    5.7610   -5.4150   23.2110 C   0  0  1  0  0  0  0  0  0  0  0  0
    7.2230    2.9780   22.3800 C   0  0  0  0  0  0  0  0  0  0  0  0
    4.7350   -4.5750   23.6640 C   0  0  0  0  0  0  0  0  0  0  0  0
    5.2520   -6.5920   22.6800 C   0  0  0  0  0  0  0  0  0  0  0  0
    8.0020    4.1220   22.5480 N   0  0  0  0  0  0  0  0  0  0  0  0
    3.8370   -6.8120   23.7330 S   0  0  0  0  0  0  0  0  0  0  0  0
    3.5880   -5.1740   24.0320 C   0  0  0  0  0  0  0  0  0  0  0  0
    2.8190   -7.3560   22.8880 O   0  0  0  0  0  0  0  0  0  0  0  0
    4.2580   -7.6060   24.8710 O   0  0  0  0  0  0  0  0  0  0  0  0
  1  2  1  0
  2  3  2  0
  1  4  1  0
  4  5  1  1
  2  6  1  0
  7  4  1  6
  3  8  1  0
  5  9  1  0
  5 10  2  0
  6 11  2  0
  6 12  1  0
  7 13  1  0
  7 14  1  0
 12 15  1  0
 13 16  1  6
  8 17  1  0
 14 17  1  0
  8 18  2  0
  9 19  2  0
 10 20  1  0
 19 20  1  0
 11 21  1  0
 12 22  2  0
 14 23  1  1
 13 24  1  0
 23 24  2  0
 15 25  1  0
 21 26  2  0
 22 26  1  0
 27 17  1  6
 25 28  1  0
 27 29  1  0
 27 30  1  0
 28 31  3  0
 30 32  1  0
 29 33  2  0
 32 33  1  0
 32 34  1  0
 32 35  1  0
M  END
