x2764-x1375
     RDKit          3D

 38 42  0  0  0  0  0  0  0  0999 V2000
    8.3320   -1.5520   21.4960 N   0  0  0  0  0  0  0  0  0  0  0  0
    6.9010   -1.1990   21.1770 C   0  0  0  0  0  0  0  0  0  0  0  0
    5.8170   -1.8880   21.8530 N   0  0  0  0  0  0  0  0  0  0  0  0
    8.8390   -1.7520   22.7950 C   0  0  2  0  0  0  0  0  0  0  0  0
   10.3390   -1.3900   23.0880 C   0  0  0  0  0  0  0  0  0  0  0  0
    6.3880   -0.1390   20.1690 C   0  0  0  0  0  0  0  0  0  0  0  0
    8.7450   -3.1990   23.3810 C   0  0  0  0  0  0  0  0  0  0  0  0
    6.1170   -2.8600   22.8680 C   0  0  0  0  0  0  0  0  0  0  0  0
   11.3890   -1.6600   22.2000 C   0  0  0  0  0  0  0  0  0  0  0  0
   10.9440   -0.7750   24.2140 C   0  0  0  0  0  0  0  0  0  0  0  0
    6.1990   -0.4870   18.8350 C   0  0  0  0  0  0  0  0  0  0  0  0
    6.0770    1.1410   20.6040 C   0  0  0  0  0  0  0  0  0  0  0  0
    9.8120   -3.3970   24.2770 C   0  0  0  0  0  0  0  0  0  0  0  0
    7.7930   -4.2510   23.1680 C   0  0  0  0  0  0  0  0  0  0  0  0
    6.3010    1.3940   21.9330 O   0  0  0  0  0  0  0  0  0  0  0  0
    6.5800   -4.2260   22.3730 C   0  0  2  0  0  0  0  0  0  0  0  0
   12.6870   -1.3060   22.5680 N   0  0  0  0  0  0  0  0  0  0  0  0
   12.6730   -0.6520   23.9790 S   0  0  0  0  0  0  0  0  0  0  0  0
    5.7050    0.3960   17.9680 C   0  0  0  0  0  0  0  0  0  0  0  0
    5.5590    2.0480   19.6670 C   0  0  0  0  0  0  0  0  0  0  0  0
    9.9830   -4.5840   24.9540 C   0  0  0  0  0  0  0  0  0  0  0  0
    8.0580   -5.4550   23.8800 C   0  0  0  0  0  0  0  0  0  0  0  0
    7.5770    1.9190   22.3390 C   0  0  0  0  0  0  0  0  0  0  0  0
    6.5130   -4.3680   20.7050 C   0  0  0  0  0  0  0  0  0  0  0  0
   10.9970   -4.7110   25.8100 F   0  0  0  0  0  0  0  0  0  0  0  0
    5.3650    1.6710   18.3290 C   0  0  0  0  0  0  0  0  0  0  0  0
    9.1300   -5.5960   24.7470 C   0  0  0  0  0  0  0  0  0  0  0  0
    5.6710   -5.3970   23.0320 C   0  0  1  0  0  0  0  0  0  0  0  0
    7.9040    3.2140   21.9910 C   0  0  0  0  0  0  0  0  0  0  0  0
    5.7680   -5.2000   20.1310 O   0  0  0  0  0  0  0  0  0  0  0  0
    7.2450   -3.4650   19.7050 C   0  0  0  0  0  0  0  0  0  0  0  0
    5.4510   -4.9590   24.3780 C   0  0  0  0  0  0  0  0  0  0  0  0
    4.3930   -5.9480   22.5540 C   0  0  0  0  0  0  0  0  0  0  0  0
    7.6630    4.3950   22.8110 N   0  0  0  0  0  0  0  0  0  0  0  0
    3.7680   -6.7340   24.0840 S   0  0  0  0  0  0  0  0  0  0  0  0
    4.4890   -5.5250   25.1200 C   0  0  0  0  0  0  0  0  0  0  0  0
    2.3290   -6.7030   24.0890 O   0  0  0  0  0  0  0  0  0  0  0  0
    4.4770   -7.9680   24.2150 O   0  0  0  0  0  0  0  0  0  0  0  0
  1  2  1  0
  2  3  2  0
  1  4  1  0
  4  5  1  6
  2  6  1  0
  4  7  1  0
  3  8  1  0
  5  9  1  0
  5 10  2  0
  6 11  2  0
  6 12  1  0
  7 13  2  0
  7 14  1  0
 12 15  1  0
  8 16  1  0
 14 16  1  0
  9 17  2  0
 10 18  1  0
 17 18  1  0
 11 19  1  0
 12 20  2  0
 13 21  1  0
 14 22  2  0
 15 23  1  0
 16 24  1  6
 21 25  1  0
 19 26  2  0
 20 26  1  0
 21 27  2  0
 22 27  1  0
 16 28  1  0
 23 29  1  0
 24 30  2  0
 24 31  1  0
 28 32  1  1
 28 33  1  0
 29 34  3  0
 33 35  1  0
 32 36  2  0
 35 36  1  0
 35 37  1  0
 35 38  1  0
M  END
