x2764-x0426-x0786-x2694
     RDKit          3D

 63 68  0  0  0  0  0  0  0  0999 V2000
    7.8560   -0.6820   21.4140 C   0  0  0  0  0  0  0  0  0  0  0  0
    7.1320    0.4750   21.2010 C   0  0  1  0  0  0  0  0  0  0  0  0
    7.7650    1.6630   21.5230 C   0  0  0  0  0  0  0  0  0  0  0  0
    9.1410   -0.8060   21.4470 N   0  0  0  0  0  0  0  0  0  0  0  0
    7.0130   -1.7140   21.7230 N   0  0  0  0  0  0  0  0  0  0  0  0
    7.4690   -3.0380   22.1280 C   0  0  0  0  0  0  0  0  0  0  0  0
    6.3810    0.7080   20.1570 C   0  0  0  0  0  0  0  0  0  0  0  0
    9.6490   -0.9940   22.7310 C   0  0  0  0  0  0  0  0  0  0  0  0
    6.9650    2.5710   22.3840 N   0  0  0  0  0  0  0  0  0  0  0  0
    8.8970    1.9120   21.1050 O   0  0  0  0  0  0  0  0  0  0  0  0
    6.3350   -3.9710   21.9180 N   0  0  0  0  0  0  0  0  0  0  0  0
    5.2090    1.4710   20.1620 C   0  0  0  0  0  0  0  0  0  0  0  0
    6.8080    0.1580   18.9690 C   0  0  0  0  0  0  0  0  0  0  0  0
   10.9330   -1.2210   23.3530 C   0  0  0  0  0  0  0  0  0  0  0  0
    8.7310   -0.9530   23.7270 C   0  0  0  0  0  0  0  0  0  0  0  0
   12.4100   -1.3850   23.0720 C   0  0  0  0  0  0  0  0  0  0  0  0
    7.0190    4.0420   22.3460 C   0  0  0  0  0  0  0  0  0  0  0  0
    4.4870    2.1960   21.2810 C   0  0  0  0  0  0  0  0  0  0  0  0
    6.1510   -4.5100   20.6510 C   0  0  0  0  0  0  0  0  0  0  0  0
    6.2430    0.2640   17.7540 N   0  0  0  0  0  0  0  0  0  0  0  0
    4.5800    1.6220   18.9630 C   0  0  0  0  0  0  0  0  0  0  0  0
    9.3340   -1.1390   25.0010 N   0  0  0  0  0  0  0  0  0  0  0  0
   10.6700   -1.3010   24.7040 O   0  0  0  0  0  0  0  0  0  0  0  0
    5.6550   -4.3530   22.9910 C   0  0  0  0  0  0  0  0  0  0  0  0
   12.9890   -0.1190   23.1750 C   0  0  0  0  0  0  0  0  0  0  0  0
   12.7470   -1.9580   21.6890 C   0  0  0  0  0  0  0  0  0  0  0  0
   13.0400   -2.3070   24.1470 C   0  0  0  0  0  0  0  0  0  0  0  0
    4.1950    1.4570   22.4170 C   0  0  0  0  0  0  0  0  0  0  0  0
    7.2970   -5.2320   20.1610 C   0  0  0  0  0  0  0  0  0  0  0  0
    5.1880   -4.3960   19.8850 O   0  0  0  0  0  0  0  0  0  0  0  0
    5.1280    0.9940   17.7190 C   0  0  0  0  0  0  0  0  0  0  0  0
    8.3500    4.4580   22.8600 C   0  0  0  0  0  0  0  0  0  0  0  0
    4.8260   -5.6350   23.0210 C   0  0  0  0  0  0  0  0  0  0  0  0
    5.7360   -3.5020   24.1090 C   0  0  0  0  0  0  0  0  0  0  0  0
    3.2800    2.2380   23.2600 N   0  0  0  0  0  0  0  0  0  0  0  0
    8.9930    5.8410   23.0730 C   0  0  0  0  0  0  0  0  0  0  0  0
    9.1260    3.2200   23.2060 C   0  0  0  0  0  0  0  0  0  0  0  0
    4.0540   -5.9920   24.3050 C   0  0  0  0  0  0  0  0  0  0  0  0
    5.0170   -3.7830   25.4050 C   0  0  0  0  0  0  0  0  0  0  0  0
    2.1400    1.6390   23.9600 C   0  0  0  0  0  0  0  0  0  0  0  0
    3.2330   -7.2200   24.3710 C   0  0  0  0  0  0  0  0  0  0  0  0
   10.3910    3.2240   23.6870 C   0  0  0  0  0  0  0  0  0  0  0  0
   10.4210    5.8890   23.6300 C   0  0  0  0  0  0  0  0  0  0  0  0
    4.1540   -5.0590   25.5040 C   0  0  0  0  0  0  0  0  0  0  0  0
   10.9780    7.1100   23.8270 O   0  0  0  0  0  0  0  0  0  0  0  0
   10.9540    1.8730   23.9410 C   0  0  0  0  0  0  0  0  0  0  0  0
    1.9870    0.4260   24.0200 O   0  0  0  0  0  0  0  0  0  0  0  0
    3.7510   -8.1860   24.9110 O   0  0  0  0  0  0  0  0  0  0  0  0
   11.1230    4.5720   23.9240 C   0  0  0  0  0  0  0  0  0  0  0  0
    1.1520    2.5320   24.6240 C   0  0  0  0  0  0  0  0  0  0  0  0
    1.9370   -7.2780   23.8570 N   0  0  0  0  0  0  0  0  0  0  0  0
   11.8750    7.1770   24.9340 C   0  0  0  0  0  0  0  0  0  0  0  0
    1.4750    3.7620   25.2240 C   0  0  0  0  0  0  0  0  0  0  0  0
   -0.1950    2.1280   24.6620 C   0  0  0  0  0  0  0  0  0  0  0  0
    1.2990   -6.3450   22.9500 C   0  0  0  0  0  0  0  0  0  0  0  0
    1.0240   -8.2600   24.4450 C   0  0  0  0  0  0  0  0  0  0  0  0
    2.7420    4.2140   25.2280 F   0  0  0  0  0  0  0  0  0  0  0  0
   -1.2040    2.8780   25.2600 C   0  0  0  0  0  0  0  0  0  0  0  0
    0.5210    4.5640   25.8400 C   0  0  0  0  0  0  0  0  0  0  0  0
    0.2050   -5.5550   23.6750 C   0  0  0  0  0  0  0  0  0  0  0  0
    0.0240   -7.7650   25.2200 C   0  0  0  0  0  0  0  0  0  0  0  0
   -0.9180    4.0940   25.8630 C   0  0  0  0  0  0  0  0  0  0  0  0
   -1.0980   -6.6050   24.3600 S   0  0  0  0  0  0  0  0  0  0  0  0
  2  1  1  6
  2  3  1  0
  1  4  1  0
  1  5  2  3
  5  6  1  0
  2  7  1  0
  4  8  1  0
  3  9  1  0
  3 10  2  0
  6 11  1  0
  7 12  1  0
  7 13  2  0
  8 14  2  0
  8 15  1  0
 14 16  1  0
  9 17  1  0
 12 18  1  0
 11 19  1  0
 13 20  1  0
 12 21  2  0
 15 22  2  0
 14 23  1  0
 22 23  1  0
 11 24  1  0
 16 25  1  0
 16 26  1  0
 16 27  1  0
 18 28  1  0
 19 29  1  0
 19 30  2  0
 20 31  2  0
 21 31  1  0
 17 32  1  0
 24 33  2  0
 24 34  1  0
 28 35  1  0
 32 36  2  0
 32 37  1  0
 33 38  1  0
 34 39  2  0
 35 40  1  0
 38 41  1  0
 37 42  2  0
 36 43  1  0
 38 44  2  0
 39 44  1  0
 43 45  1  0
 42 46  1  0
 40 47  2  0
 41 48  2  0
 42 49  1  0
 43 49  2  0
 40 50  1  0
 41 51  1  0
 45 52  1  0
 50 53  2  0
 50 54  1  0
 51 55  1  0
 51 56  1  0
 53 57  1  0
 54 58  2  0
 53 59  1  0
 55 60  1  0
 56 61  1  0
 58 62  1  0
 59 62  2  0
 60 63  1  0
 61 63  1  0
M  END
