x2764-x3115
     RDKit          3D

 30 31  0  0  0  0  0  0  0  0999 V2000
    6.9320   -1.6900   21.3370 N   0  0  0  0  0  0  0  0  0  0  0  0
    6.0890   -2.8810   21.3500 C   0  0  0  0  0  0  0  0  0  0  0  0
    4.8460   -3.0090   21.0780 O   0  0  0  0  0  0  0  0  0  0  0  0
    6.5620   -0.2360   21.4110 C   0  0  1  0  0  0  0  0  0  0  0  0
    8.3360   -1.8660   21.1390 N   0  0  0  0  0  0  0  0  0  0  0  0
    6.7660   -4.1780   21.7010 C   0  0  0  0  0  0  0  0  0  0  0  0
    7.6760    0.7410   21.9160 C   0  0  0  0  0  0  0  0  0  0  0  0
    6.0580    0.3090   20.1240 C   0  0  0  0  0  0  0  0  0  0  0  0
    9.0250   -1.9470   22.2780 C   0  0  0  0  0  0  0  0  0  0  0  0
    6.8000   -5.0010   20.4330 C   0  0  0  0  0  0  0  0  0  0  0  0
    7.1920    1.7300   22.7640 N   0  0  0  0  0  0  0  0  0  0  0  0
    8.8410    0.6340   21.5480 O   0  0  0  0  0  0  0  0  0  0  0  0
    4.9320    1.1420   20.0860 C   0  0  0  0  0  0  0  0  0  0  0  0
    6.7740   -0.0320   18.9600 C   0  0  0  0  0  0  0  0  0  0  0  0
   10.4200   -1.8620   22.4610 C   0  0  0  0  0  0  0  0  0  0  0  0
    8.2200   -2.1370   23.3890 C   0  0  0  0  0  0  0  0  0  0  0  0
    8.0690    2.8300   23.0810 C   0  0  0  0  0  0  0  0  0  0  0  0
    6.3630    0.4750   17.7830 N   0  0  0  0  0  0  0  0  0  0  0  0
    4.4920    1.6690   18.8860 C   0  0  0  0  0  0  0  0  0  0  0  0
   10.9610   -1.9720   23.7750 C   0  0  0  0  0  0  0  0  0  0  0  0
    8.7650   -2.2430   24.6480 C   0  0  0  0  0  0  0  0  0  0  0  0
    7.7380    4.1130   22.3120 C   0  0  0  0  0  0  0  0  0  0  0  0
   12.4610   -1.8720   24.1020 C   0  0  0  0  0  0  0  0  0  0  0  0
    5.1840    1.3620   17.7360 C   0  0  0  0  0  0  0  0  0  0  0  0
   10.1270   -2.1640   24.8630 C   0  0  0  0  0  0  0  0  0  0  0  0
    8.4880    5.1870   22.9320 O   0  0  0  0  0  0  0  0  0  0  0  0
   13.2000   -1.9770   22.9990 C   0  0  0  0  0  0  0  0  0  0  0  0
   12.9390   -2.8920   25.1540 C   0  0  0  0  0  0  0  0  0  0  0  0
   12.6850   -0.5100   24.7460 C   0  0  0  0  0  0  0  0  0  0  0  0
    8.3200    6.4100   22.2090 C   0  0  0  0  0  0  0  0  0  0  0  0
  1  2  1  0
  2  3  2  0
  1  4  1  0
  1  5  1  0
  2  6  1  0
  4  7  1  6
  4  8  1  0
  5  9  1  0
  6 10  1  0
  7 11  1  0
  7 12  2  0
  8 13  2  0
  8 14  1  0
  9 15  2  0
  9 16  1  0
 11 17  1  0
 14 18  2  0
 13 19  1  0
 15 20  1  0
 16 21  2  0
 17 22  1  0
 20 23  1  0
 18 24  1  0
 19 24  2  0
 20 25  2  0
 21 25  1  0
 22 26  1  0
 23 27  1  0
 23 28  1  0
 23 29  1  0
 26 30  1  0
M  END
