x2764-x2705-x2694-x0540-x1311
     RDKit          3D

 62 67  0  0  0  0  0  0  0  0999 V2000
    7.1860   -1.4130   21.6840 C   0  0  2  0  0  0  0  0  0  0  0  0
    6.2730   -2.8040   21.5690 C   0  0  0  0  0  0  0  0  0  0  0  0
    4.9440   -3.1530   21.2690 O   0  0  0  0  0  0  0  0  0  0  0  0
    6.5170   -0.0500   21.6280 C   0  0  1  0  0  0  0  0  0  0  0  0
    7.9130   -1.5000   20.4460 N   0  0  0  0  0  0  0  0  0  0  0  0
    8.3880   -1.4120   22.6360 C   0  0  0  0  0  0  0  0  0  0  0  0
    7.2830   -3.8590   21.8000 C   0  0  2  0  0  0  0  0  0  0  0  0
    7.5870    1.1220   21.8910 C   0  0  0  0  0  0  0  0  0  0  0  0
    6.1210    0.3380   20.2070 C   0  0  0  0  0  0  0  0  0  0  0  0
    8.3280   -1.4010   23.9630 N   0  0  0  0  0  0  0  0  0  0  0  0
    9.6570   -1.4120   22.1830 C   0  0  0  0  0  0  0  0  0  0  0  0
    7.1860   -4.8840   20.7150 C   0  0  0  0  0  0  0  0  0  0  0  0
    7.4830    2.1050   22.9140 N   0  0  0  0  0  0  0  0  0  0  0  0
    8.6830    1.2100   20.9920 O   0  0  0  0  0  0  0  0  0  0  0  0
    4.7720    1.0020   20.1640 C   0  0  0  0  0  0  0  0  0  0  0  0
    6.9210    0.1460   18.8940 C   0  0  0  0  0  0  0  0  0  0  0  0
    9.6550   -1.3880   24.3220 N   0  0  0  0  0  0  0  0  0  0  0  0
   10.5810   -1.3960   23.2240 C   0  0  0  0  0  0  0  0  0  0  0  0
    7.6320   -4.4310   23.1840 C   0  0  0  0  0  0  0  0  0  0  0  0
   12.1050   -1.3850   23.3800 C   0  0  0  0  0  0  0  0  0  0  0  0
    3.8750    1.2170   21.3930 C   0  0  0  0  0  0  0  0  0  0  0  0
    6.3120    0.6790   17.6560 N   0  0  0  0  0  0  0  0  0  0  0  0
    4.3180    1.4470   18.9660 C   0  0  0  0  0  0  0  0  0  0  0  0
    8.2120    3.3340   23.0210 C   0  0  0  0  0  0  0  0  0  0  0  0
    8.9580   -4.7230   23.3180 C   0  0  0  0  0  0  0  0  0  0  0  0
    6.7910   -4.7500   24.4090 C   0  0  0  0  0  0  0  0  0  0  0  0
   12.5610   -0.2170   23.9970 C   0  0  0  0  0  0  0  0  0  0  0  0
   12.6000   -2.5590   24.2860 C   0  0  0  0  0  0  0  0  0  0  0  0
   12.8350   -1.5790   22.0360 C   0  0  0  0  0  0  0  0  0  0  0  0
    4.7340    1.9190   22.4090 C   0  0  0  0  0  0  0  0  0  0  0  0
    5.1190    1.2870   17.6950 C   0  0  0  0  0  0  0  0  0  0  0  0
    9.4810    3.2360   23.6040 C   0  0  0  0  0  0  0  0  0  0  0  0
    7.7240    4.6000   22.5880 C   0  0  0  0  0  0  0  0  0  0  0  0
    9.5140   -5.3040   24.4370 C   0  0  0  0  0  0  0  0  0  0  0  0
    7.4630   -5.3830   25.6320 C   0  0  0  0  0  0  0  0  0  0  0  0
    5.3270   -4.5710   24.5800 C   0  0  0  0  0  0  0  0  0  0  0  0
   10.0310    1.9260   24.0610 C   0  0  0  0  0  0  0  0  0  0  0  0
    6.3600    4.6650   21.9530 C   0  0  0  0  0  0  0  0  0  0  0  0
    3.9420    2.9750   23.0040 N   0  0  0  0  0  0  0  0  0  0  0  0
   10.2620    4.3580   23.7760 C   0  0  0  0  0  0  0  0  0  0  0  0
    8.5920    5.9010   22.7750 C   0  0  0  0  0  0  0  0  0  0  0  0
    8.8150   -5.6410   25.5560 C   0  0  0  0  0  0  0  0  0  0  0  0
    5.0090   -6.0330   24.5880 C   0  0  2  0  0  0  0  0  0  0  0  0
    9.2360    1.2740   25.0160 C   0  0  0  0  0  0  0  0  0  0  0  0
    2.7150    2.4110   23.5590 C   0  0  0  0  0  0  0  0  0  0  0  0
    9.8450    5.7490   23.3740 C   0  0  0  0  0  0  0  0  0  0  0  0
    5.5470   -6.6170   23.2950 C   0  0  0  0  0  0  0  0  0  0  0  0
    3.3790   -6.6830   24.4430 S   0  0  0  0  0  0  0  0  0  0  0  0
   10.6970    6.8160   23.6040 O   0  0  0  0  0  0  0  0  0  0  0  0
    2.6680    1.3210   24.3920 O   0  0  0  0  0  0  0  0  0  0  0  0
    1.6920    3.0870   23.1470 N   0  0  0  0  0  0  0  0  0  0  0  0
    3.4770   -8.0540   24.9160 O   0  0  0  0  0  0  0  0  0  0  0  0
    2.4390   -5.7960   25.0810 O   0  0  0  0  0  0  0  0  0  0  0  0
    4.5100   -6.4960   22.2760 C   0  0  0  0  0  0  0  0  0  0  0  0
    3.2550   -6.5560   22.7770 C   0  0  0  0  0  0  0  0  0  0  0  0
   11.7240    6.6410   24.5960 C   0  0  0  0  0  0  0  0  0  0  0  0
    0.5210    3.2330   23.9830 C   0  0  0  0  0  0  0  0  0  0  0  0
    0.4430    4.6930   24.4730 C   0  0  0  0  0  0  0  0  0  0  0  0
   -0.6170    2.8470   23.2740 C   0  0  0  0  0  0  0  0  0  0  0  0
   -0.8730    4.9230   25.2300 C   0  0  0  0  0  0  0  0  0  0  0  0
   -1.8110    3.3370   23.8010 C   0  0  0  0  0  0  0  0  0  0  0  0
   -1.8710    4.6680   24.2740 C   0  0  0  0  0  0  0  0  0  0  0  0
  1  2  1  0
  2  3  2  0
  1  4  1  0
  1  5  1  6
  1  6  1  0
  2  7  1  0
  4  8  1  6
  4  9  1  0
  6 10  2  0
  6 11  1  0
  7 12  1  6
  8 13  1  0
  8 14  2  0
  9 15  1  0
  9 16  2  0
 10 17  1  0
 11 18  2  0
 17 18  1  0
  7 19  1  0
 18 20  1  0
 15 21  1  0
 16 22  1  0
 15 23  2  0
 13 24  1  0
 19 25  2  0
 19 26  1  0
 20 27  1  0
 20 28  1  0
 20 29  1  0
 21 30  1  0
 22 31  2  0
 23 31  1  0
 24 32  2  0
 24 33  1  0
 25 34  1  0
 26 35  2  0
 26 36  1  0
 32 37  1  0
 33 38  1  0
 30 39  1  0
 32 40  1  0
 33 41  2  0
 34 42  2  0
 35 42  1  0
 43 36  1  6
 37 44  1  0
 39 45  1  0
 40 46  2  0
 41 46  1  0
 43 47  1  0
 43 48  1  0
 46 49  1  0
 45 50  2  0
 45 51  1  0
 48 52  1  0
 48 53  1  0
 47 54  1  0
 48 55  1  0
 54 55  2  0
 49 56  1  0
 51 57  1  0
 57 58  1  0
 57 59  1  0
 58 60  1  0
 59 61  1  0
 60 62  1  0
 61 62  1  0
M  END
