x2764-x2776
     RDKit          3D

 35 37  0  0  0  0  0  0  0  0999 V2000
    6.7760   -2.0130   21.9830 N   0  0  0  0  0  0  0  0  0  0  0  0
    5.8240   -3.1080   21.7560 C   0  0  0  0  0  0  0  0  0  0  0  0
    4.6140   -2.9470   21.4770 O   0  0  0  0  0  0  0  0  0  0  0  0
    6.3840   -0.5190   21.7890 C   0  0  1  0  0  0  0  0  0  0  0  0
    8.1820   -2.2020   22.3720 C   0  0  0  0  0  0  0  0  0  0  0  0
    6.2290   -4.5890   21.8350 C   0  0  0  0  0  0  0  0  0  0  0  0
    7.4240    0.6340   22.2270 C   0  0  0  0  0  0  0  0  0  0  0  0
    5.8150   -0.1310   20.3990 C   0  0  0  0  0  0  0  0  0  0  0  0
    9.2080   -2.4240   21.4120 C   0  0  0  0  0  0  0  0  0  0  0  0
    8.5740   -2.1530   23.7400 C   0  0  0  0  0  0  0  0  0  0  0  0
    6.2930   -5.1930   20.4290 C   0  0  0  0  0  0  0  0  0  0  0  0
    7.0450    1.4450   23.3270 N   0  0  0  0  0  0  0  0  0  0  0  0
    8.4620    0.7920   21.5810 O   0  0  0  0  0  0  0  0  0  0  0  0
    4.4880    0.4160   20.2640 C   0  0  0  0  0  0  0  0  0  0  0  0
    6.5460   -0.2700   19.1870 C   0  0  0  0  0  0  0  0  0  0  0  0
   10.5700   -2.5880   21.7930 C   0  0  0  0  0  0  0  0  0  0  0  0
    9.9310   -2.3080   24.1280 C   0  0  0  0  0  0  0  0  0  0  0  0
    7.8620    1.8710   24.5280 C   0  0  0  0  0  0  0  0  0  0  0  0
    6.0740    0.0890   17.9390 N   0  0  0  0  0  0  0  0  0  0  0  0
    3.9810    0.7900   18.9870 C   0  0  0  0  0  0  0  0  0  0  0  0
   10.9660   -2.5270   23.1740 C   0  0  0  0  0  0  0  0  0  0  0  0
   12.4710   -2.6940   23.6110 C   0  0  2  0  0  0  0  0  0  0  0  0
    4.8070    0.6120   17.8640 C   0  0  0  0  0  0  0  0  0  0  0  0
    8.6330    3.2710   24.3920 C   0  0  0  0  0  0  0  0  0  0  0  0
   12.5850   -2.5820   25.0580 O   0  0  0  0  0  0  0  0  0  0  0  0
   13.3930   -1.6490   22.9010 C   0  0  0  0  0  0  0  0  0  0  0  0
    9.3420    4.5550   24.2660 C   0  0  0  0  0  0  0  0  0  0  0  0
    9.8610    2.4310   23.8840 C   0  0  0  0  0  0  0  0  0  0  0  0
   13.7500   -3.1430   25.6810 C   0  0  0  0  0  0  0  0  0  0  0  0
   11.2040    2.7990   23.4550 C   0  0  0  0  0  0  0  0  0  0  0  0
   10.6360    5.0160   23.8500 C   0  0  0  0  0  0  0  0  0  0  0  0
   11.0640    6.3360   23.8290 O   0  0  0  0  0  0  0  0  0  0  0  0
   12.2300    1.7690   23.0190 C   0  0  0  0  0  0  0  0  0  0  0  0
   11.5770    4.1180   23.4420 C   0  0  0  0  0  0  0  0  0  0  0  0
   11.9990    6.8220   24.8140 C   0  0  0  0  0  0  0  0  0  0  0  0
  1  2  1  0
  2  3  2  0
  1  4  1  0
  1  5  1  0
  2  6  1  0
  4  7  1  6
  4  8  1  0
  5  9  2  0
  5 10  1  0
  6 11  1  0
  7 12  1  0
  7 13  2  0
  8 14  2  0
  8 15  1  0
  9 16  1  0
 10 17  2  0
 12 18  1  0
 15 19  2  0
 14 20  1  0
 16 21  2  0
 17 21  1  0
 21 22  1  0
 19 23  1  0
 20 23  2  0
 18 24  1  0
 22 25  1  0
 22 26  1  6
 24 27  2  0
 24 28  1  0
 25 29  1  0
 28 30  2  0
 27 31  1  0
 31 32  1  0
 30 33  1  0
 30 34  1  0
 31 34  2  0
 32 35  1  0
M  END
