x2764-x1351
     RDKit          3D

 37 41  0  0  0  0  0  0  0  0999 V2000
    8.4450   -1.3740   21.0750 N   0  0  0  0  0  0  0  0  0  0  0  0
    6.9790   -1.2150   20.8590 C   0  0  0  0  0  0  0  0  0  0  0  0
    6.0330   -2.2600   21.2470 N   0  0  0  0  0  0  0  0  0  0  0  0
    8.9280   -2.3940   21.8970 C   0  0  1  0  0  0  0  0  0  0  0  0
   10.1830   -1.9660   22.7310 C   0  0  0  0  0  0  0  0  0  0  0  0
    6.3680   -0.0240   20.0990 C   0  0  0  0  0  0  0  0  0  0  0  0
    7.7560   -3.2190   22.5140 C   0  0  2  0  0  0  0  0  0  0  0  0
   11.4300   -1.9340   22.0930 C   0  0  0  0  0  0  0  0  0  0  0  0
   10.3640   -1.5960   23.9900 C   0  0  0  0  0  0  0  0  0  0  0  0
    6.1240   -0.2190   18.7360 C   0  0  0  0  0  0  0  0  0  0  0  0
    6.0570    1.1700   20.7330 C   0  0  0  0  0  0  0  0  0  0  0  0
    6.5930   -3.4860   21.7280 C   0  0  2  0  0  0  0  0  0  0  0  0
    7.3970   -2.6790   23.7660 C   0  0  0  0  0  0  0  0  0  0  0  0
    6.3530    1.2640   22.0610 O   0  0  0  0  0  0  0  0  0  0  0  0
    6.5410   -4.0690   20.2950 C   0  0  0  0  0  0  0  0  0  0  0  0
   12.6090   -1.5260   22.8920 N   0  0  0  0  0  0  0  0  0  0  0  0
   12.0900   -1.2320   24.3130 S   0  0  0  0  0  0  0  0  0  0  0  0
    5.5490    0.7810   17.9920 C   0  0  0  0  0  0  0  0  0  0  0  0
    5.4640    2.1700   19.9560 C   0  0  0  0  0  0  0  0  0  0  0  0
    6.0180   -2.8860   24.0420 C   0  0  2  0  0  0  0  0  0  0  0  0
    5.5760   -4.3050   22.3830 C   0  0  0  0  0  0  0  0  0  0  0  0
    7.5600    2.0120   22.2720 C   0  0  0  0  0  0  0  0  0  0  0  0
    7.2710   -3.3450   19.1830 C   0  0  0  0  0  0  0  0  0  0  0  0
    5.8490   -5.0630   20.0470 O   0  0  0  0  0  0  0  0  0  0  0  0
    5.5420   -2.4610   25.2290 N   0  0  0  0  0  0  0  0  0  0  0  0
    5.2260    1.9330   18.5930 C   0  0  0  0  0  0  0  0  0  0  0  0
    5.6300   -4.1750   23.7490 C   0  0  0  0  0  0  0  0  0  0  0  0
    7.4600    3.2320   22.9010 C   0  0  0  0  0  0  0  0  0  0  0  0
    6.2400   -2.3890   26.3670 C   0  0  0  0  0  0  0  0  0  0  0  0
    8.0220    4.4860   22.4200 N   0  0  0  0  0  0  0  0  0  0  0  0
    6.8540   -3.5160   26.9850 O   0  0  0  0  0  0  0  0  0  0  0  0
    6.2750   -1.0490   27.0040 C   0  0  0  0  0  0  0  0  0  0  0  0
    7.1000   -0.7200   28.0910 C   0  0  0  0  0  0  0  0  0  0  0  0
    5.4280   -0.0450   26.4980 C   0  0  0  0  0  0  0  0  0  0  0  0
    7.0300    0.5790   28.6070 C   0  0  0  0  0  0  0  0  0  0  0  0
    5.3620    1.2520   27.0180 C   0  0  0  0  0  0  0  0  0  0  0  0
    6.1830    1.5670   28.0990 C   0  0  0  0  0  0  0  0  0  0  0  0
  1  2  1  0
  2  3  2  0
  1  4  1  0
  4  5  1  1
  2  6  1  0
  4  7  1  0
  5  8  1  0
  5  9  2  0
  6 10  2  0
  6 11  1  0
  3 12  1  0
  7 12  1  0
  7 13  1  1
 11 14  1  0
 12 15  1  6
  8 16  2  0
  9 17  1  0
 16 17  1  0
 10 18  1  0
 11 19  2  0
 13 20  1  0
 12 21  1  0
 14 22  1  0
 15 23  1  0
 15 24  2  0
 20 25  1  1
 18 26  2  0
 19 26  1  0
 20 27  1  0
 21 27  1  0
 22 28  1  0
 25 29  1  0
 28 30  3  0
 29 31  2  0
 29 32  1  0
 32 33  2  0
 32 34  1  0
 33 35  1  0
 34 36  2  0
 35 37  2  0
 36 37  1  0
M  END
