x2764-x2694-x0978-x3115-x0769
     RDKit          3D

 60 65  0  0  0  0  0  0  0  0999 V2000
    7.1350   -1.3570   21.0910 N   0  0  0  0  0  0  0  0  0  0  0  0
    6.2460   -2.5990   21.2140 C   0  0  0  0  0  0  0  0  0  0  0  0
    4.9510   -3.0290   20.8350 O   0  0  0  0  0  0  0  0  0  0  0  0
    6.5760    0.0530   21.3640 C   0  0  1  0  0  0  0  0  0  0  0  0
    8.5930   -1.4920   21.3220 N   0  0  0  0  0  0  0  0  0  0  0  0
    7.0380   -3.5650   21.9820 C   0  0  0  0  0  0  0  0  0  0  0  0
    7.8460    0.9270   21.7850 C   0  0  0  0  0  0  0  0  0  0  0  0
    6.0320    0.5950   20.0540 C   0  0  0  0  0  0  0  0  0  0  0  0
    9.2180   -1.3790   22.5620 C   0  0  0  0  0  0  0  0  0  0  0  0
    7.6010   -4.7440   21.1860 C   0  0  0  0  0  0  0  0  0  0  0  0
    7.6210    2.0000   22.6260 N   0  0  0  0  0  0  0  0  0  0  0  0
    8.9930    0.7610   21.3970 O   0  0  0  0  0  0  0  0  0  0  0  0
    4.9170    1.4150   20.0490 C   0  0  0  0  0  0  0  0  0  0  0  0
    6.7040    0.2500   18.8750 C   0  0  0  0  0  0  0  0  0  0  0  0
   10.5430   -1.3330   23.1880 C   0  0  0  0  0  0  0  0  0  0  0  0
    8.1910   -1.2540   23.6810 C   0  0  0  0  0  0  0  0  0  0  0  0
   12.0580   -1.3710   22.9120 C   0  0  0  0  0  0  0  0  0  0  0  0
    6.3220    0.6960   17.6610 N   0  0  0  0  0  0  0  0  0  0  0  0
    4.5240    1.8810   18.7660 C   0  0  0  0  0  0  0  0  0  0  0  0
    8.9600   -1.1590   24.7500 N   0  0  0  0  0  0  0  0  0  0  0  0
   10.2130   -1.2050   24.4650 O   0  0  0  0  0  0  0  0  0  0  0  0
    8.4330    3.1470   22.8910 C   0  0  0  0  0  0  0  0  0  0  0  0
    6.8610   -5.8740   21.6140 N   0  0  0  0  0  0  0  0  0  0  0  0
   12.6240   -0.1470   23.3190 C   0  0  0  0  0  0  0  0  0  0  0  0
   12.6490   -1.7570   21.5220 C   0  0  0  0  0  0  0  0  0  0  0  0
   12.7990   -2.5270   23.6700 C   0  0  0  0  0  0  0  0  0  0  0  0
    5.2100    1.5310   17.6300 C   0  0  0  0  0  0  0  0  0  0  0  0
    9.7590    3.0080   23.6440 C   0  0  0  0  0  0  0  0  0  0  0  0
    8.1380    4.4720   22.5250 C   0  0  0  0  0  0  0  0  0  0  0  0
    5.4220   -5.9090   21.6050 C   0  0  0  0  0  0  0  0  0  0  0  0
    7.2940   -6.4200   22.8330 C   0  0  0  0  0  0  0  0  0  0  0  0
   10.2720    1.7070   24.1270 C   0  0  0  0  0  0  0  0  0  0  0  0
   12.9050   -2.4120   25.1760 C   0  0  0  0  0  0  0  0  0  0  0  0
   10.5060    4.1550   23.8830 C   0  0  0  0  0  0  0  0  0  0  0  0
    8.8790    5.6400   22.7620 C   0  0  0  0  0  0  0  0  0  0  0  0
    4.7730   -5.5170   22.8320 C   0  0  2  0  0  0  0  0  0  0  0  0
    7.0030   -5.5610   23.8950 C   0  0  0  0  0  0  0  0  0  0  0  0
    8.3820    6.9430   22.2820 C   0  0  0  0  0  0  0  0  0  0  0  0
    3.4950   -6.2680   23.2530 C   0  0  2  0  0  0  0  0  0  0  0  0
    4.3170   -4.2170   22.5370 O   0  0  0  0  0  0  0  0  0  0  0  0
   10.1030    5.5660   23.4590 C   0  0  0  0  0  0  0  0  0  0  0  0
    5.5650   -5.4190   24.0560 N   0  0  0  0  0  0  0  0  0  0  0  0
   10.8780    6.7070   23.7320 O   0  0  0  0  0  0  0  0  0  0  0  0
    2.2110   -5.4960   23.1120 N   0  0  0  0  0  0  0  0  0  0  0  0
    3.8350   -6.7560   24.5150 C   0  0  1  0  0  0  0  0  0  0  0  0
    4.7670   -5.4370   25.2460 S   0  0  0  0  0  0  0  0  0  0  0  0
   11.8500    6.6000   24.7740 C   0  0  0  0  0  0  0  0  0  0  0  0
    2.7470   -7.0820   25.3310 C   0  0  0  0  0  0  0  0  0  0  0  0
    4.5780   -7.7370   24.4260 O   0  0  0  0  0  0  0  0  0  0  0  0
    1.0040   -6.1840   22.5860 C   0  0  0  0  0  0  0  0  0  0  0  0
    5.0020   -6.1730   26.4750 O   0  0  0  0  0  0  0  0  0  0  0  0
    3.5850   -4.1280   25.5940 C   0  0  0  0  0  0  0  0  0  0  0  0
    0.9780   -7.2990   22.0280 O   0  0  0  0  0  0  0  0  0  0  0  0
   -0.2210   -5.5330   22.7040 C   0  0  0  0  0  0  0  0  0  0  0  0
    4.1880   -2.7600   26.0070 C   0  0  0  0  0  0  0  0  0  0  0  0
    2.0400   -4.2000   25.5220 C   0  0  0  0  0  0  0  0  0  0  0  0
    5.5380   -2.5740   26.1110 F   0  0  0  0  0  0  0  0  0  0  0  0
    1.1410   -3.0040   25.8290 C   0  0  0  0  0  0  0  0  0  0  0  0
    3.3780   -1.6600   26.2880 C   0  0  0  0  0  0  0  0  0  0  0  0
    1.8560   -1.7170   26.2160 C   0  0  0  0  0  0  0  0  0  0  0  0
  1  2  1  0
  2  3  2  0
  1  4  1  0
  1  5  1  0
  2  6  1  0
  4  7  1  6
  4  8  1  0
  5  9  1  0
  6 10  1  0
  7 11  1  0
  7 12  2  0
  8 13  2  0
  8 14  1  0
  9 15  2  0
  9 16  1  0
 15 17  1  0
 14 18  2  0
 13 19  1  0
 16 20  2  0
 15 21  1  0
 20 21  1  0
 11 22  1  0
 10 23  1  0
 17 24  1  0
 17 25  1  0
 17 26  1  0
 18 27  1  0
 19 27  2  0
 22 28  2  0
 22 29  1  0
 23 30  1  0
 23 31  1  0
 28 32  1  0
 26 33  1  0
 28 34  1  0
 29 35  2  0
 30 36  1  0
 31 37  1  0
 35 38  1  0
 36 39  1  0
 36 40  1  6
 34 41  2  0
 35 41  1  0
 36 42  1  0
 37 42  1  0
 41 43  1  0
 39 44  1  1
 39 45  1  0
 42 46  1  0
 45 46  1  0
 43 47  1  0
 45 48  1  1
 45 49  1  0
 44 50  1  0
 46 51  2  0
 46 52  1  0
 50 53  2  0
 50 54  1  0
 52 55  2  0
 52 56  1  0
 55 57  1  0
 56 58  2  0
 55 59  1  0
 58 60  1  0
 59 60  2  0
M  END
