x2764-x0755
     RDKit          3D

 38 41  0  0  0  0  0  0  0  0999 V2000
    4.2070   -6.5570   25.8810 O   0  0  0  0  0  0  0  0  0  0  0  0
    4.9620   -5.3270   25.8340 S   0  0  0  0  0  0  0  0  0  0  0  0
    5.9870   -5.0120   26.7830 O   0  0  0  0  0  0  0  0  0  0  0  0
    3.8000   -3.8500   25.8350 C   0  0  0  0  0  0  0  0  0  0  0  0
    5.5310   -5.0560   24.2720 N   0  0  0  0  0  0  0  0  0  0  0  0
    2.3330   -4.1700   25.7240 C   0  0  0  0  0  0  0  0  0  0  0  0
    4.1840   -2.3700   25.9460 C   0  0  0  0  0  0  0  0  0  0  0  0
    7.0160   -4.8780   24.1210 C   0  0  0  0  0  0  0  0  0  0  0  0
    4.8740   -5.6780   23.2610 C   0  0  0  0  0  0  0  0  0  0  0  0
    1.8840   -5.4320   25.6220 F   0  0  0  0  0  0  0  0  0  0  0  0
    5.4570   -1.9720   26.0490 F   0  0  0  0  0  0  0  0  0  0  0  0
    3.2090   -1.4260   25.9460 C   0  0  0  0  0  0  0  0  0  0  0  0
    1.4270   -3.1380   25.7340 C   0  0  0  0  0  0  0  0  0  0  0  0
    7.3500   -4.5480   22.8030 C   0  0  0  0  0  0  0  0  0  0  0  0
    5.6690   -6.0520   22.1760 C   0  0  0  0  0  0  0  0  0  0  0  0
    1.7960   -1.8010   25.8410 C   0  0  0  0  0  0  0  0  0  0  0  0
    6.6200   -5.1990   21.7270 N   0  0  0  0  0  0  0  0  0  0  0  0
    6.3350   -4.4550   20.5560 C   0  0  0  0  0  0  0  0  0  0  0  0
    5.3030   -4.7220   19.9600 O   0  0  0  0  0  0  0  0  0  0  0  0
    7.2450   -3.3420   19.9940 C   0  0  0  0  0  0  0  0  0  0  0  0
    7.4270   -2.0020   20.7910 C   0  0  0  0  0  0  0  0  0  0  0  0
    8.4800   -1.6130   21.1780 N   0  0  0  0  0  0  0  0  0  0  0  0
    6.8160   -0.7550   20.1240 C   0  0  0  0  0  0  0  0  0  0  0  0
    9.0790   -2.2490   22.4070 C   0  0  0  0  0  0  0  0  0  0  0  0
    6.3830   -0.8870   18.7900 C   0  0  0  0  0  0  0  0  0  0  0  0
    6.6000    0.5450   20.7000 C   0  0  0  0  0  0  0  0  0  0  0  0
    6.9980    0.7480   21.9960 O   0  0  0  0  0  0  0  0  0  0  0  0
   10.5140   -1.8910   22.7940 C   0  0  0  0  0  0  0  0  0  0  0  0
    5.7820    0.1100   18.0330 C   0  0  0  0  0  0  0  0  0  0  0  0
    5.9880    1.5940   19.9550 C   0  0  0  0  0  0  0  0  0  0  0  0
    7.9010    1.8370   22.2900 C   0  0  0  0  0  0  0  0  0  0  0  0
   11.5890   -1.7790   21.9570 C   0  0  0  0  0  0  0  0  0  0  0  0
   10.8980   -1.6420   24.0960 C   0  0  0  0  0  0  0  0  0  0  0  0
    5.6020    1.3270   18.6430 C   0  0  0  0  0  0  0  0  0  0  0  0
    7.3340    3.2650   22.1390 C   0  0  0  0  0  0  0  0  0  0  0  0
   12.9270   -1.4290   22.5050 N   0  0  0  0  0  0  0  0  0  0  0  0
   12.7100   -1.2640   24.1550 S   0  0  0  0  0  0  0  0  0  0  0  0
    8.1250    4.1730   22.7960 N   0  0  0  0  0  0  0  0  0  0  0  0
  1  2  2  0
  2  3  2  0
  2  4  1  0
  2  5  1  0
  4  6  2  0
  4  7  1  0
  5  8  1  0
  5  9  1  0
  6 10  1  0
  7 11  1  0
  7 12  2  0
  6 13  1  0
  8 14  1  0
  9 15  1  0
 12 16  1  0
 13 16  2  0
 14 17  1  0
 15 17  1  0
 17 18  1  0
 18 19  2  0
 18 20  1  0
 20 21  2  3
 21 22  1  0
 21 23  1  0
 22 24  1  0
 23 25  2  0
 23 26  1  0
 26 27  1  0
 24 28  1  0
 25 29  1  0
 26 30  2  0
 27 31  1  0
 28 32  1  0
 28 33  2  0
 29 34  2  0
 30 34  1  0
 31 35  1  0
 32 36  2  0
 33 37  1  0
 36 37  1  0
 35 38  3  0
M  END
