x2764-x1348-x0305-x2694
     RDKit          3D

 56 61  0  0  0  0  0  0  0  0999 V2000
    7.1570   -0.9690   21.4390 C   0  0  0  0  0  0  0  0  0  0  0  0
    6.4410    0.3450   21.2200 C   0  0  1  0  0  0  0  0  0  0  0  0
    7.4050    1.5420   21.4510 C   0  0  0  0  0  0  0  0  0  0  0  0
    8.1260   -0.9370   22.3760 N   0  0  0  0  0  0  0  0  0  0  0  0
    7.1560   -2.3470   20.8910 C   0  0  0  0  0  0  0  0  0  0  0  0
    6.5090   -3.1740   19.7250 C   0  0  0  0  0  0  0  0  0  0  0  0
    5.9980    0.7450   19.9100 C   0  0  0  0  0  0  0  0  0  0  0  0
    8.2140    0.0730   23.3560 C   0  0  2  0  0  0  0  0  0  0  0  0
    8.0980   -3.2870   21.6660 C   0  0  0  0  0  0  0  0  0  0  0  0
    6.8580    2.4960   22.2180 N   0  0  0  0  0  0  0  0  0  0  0  0
    8.5450    1.6410   20.9740 O   0  0  0  0  0  0  0  0  0  0  0  0
    5.5000   -3.9100   19.6830 O   0  0  0  0  0  0  0  0  0  0  0  0
    7.4150   -3.0220   18.5290 C   0  0  0  0  0  0  0  0  0  0  0  0
    4.8560    1.5260   19.8000 C   0  0  0  0  0  0  0  0  0  0  0  0
    6.6450    0.4350   18.7400 C   0  0  0  0  0  0  0  0  0  0  0  0
    9.4520    0.1670   23.6400 C   0  0  1  0  0  0  0  0  0  0  0  0
    7.6480   -0.5710   24.3950 C   0  0  0  0  0  0  0  0  0  0  0  0
    7.6640   -3.5380   22.9980 C   0  0  0  0  0  0  0  0  0  0  0  0
    7.0310    4.0050   22.2310 C   0  0  0  0  0  0  0  0  0  0  0  0
    6.2870    0.8270   17.5270 N   0  0  0  0  0  0  0  0  0  0  0  0
    4.4430    1.9570   18.5920 C   0  0  0  0  0  0  0  0  0  0  0  0
    8.6070   -1.5990   24.8020 N   0  0  0  0  0  0  0  0  0  0  0  0
    9.8270   -1.0750   24.0720 N   0  0  0  0  0  0  0  0  0  0  0  0
   10.4920    0.5810   22.6330 C   0  0  0  0  0  0  0  0  0  0  0  0
    6.7360   -4.6570   23.0550 N   0  0  0  0  0  0  0  0  0  0  0  0
    5.1850    1.5930   17.5140 C   0  0  0  0  0  0  0  0  0  0  0  0
    8.3480    4.4360   22.8300 C   0  0  0  0  0  0  0  0  0  0  0  0
   10.8680   -0.5240   24.7340 C   0  0  1  0  0  0  0  0  0  0  0  0
   11.8150    0.1760   22.8350 C   0  0  0  0  0  0  0  0  0  0  0  0
    6.3630   -5.5180   24.2590 C   0  0  1  0  0  0  0  0  0  0  0  0
    6.3430   -5.2380   21.8570 C   0  0  0  0  0  0  0  0  0  0  0  0
   10.4830   -0.9690   26.0760 N   0  0  0  0  0  0  0  0  0  0  0  0
    8.8140    5.7160   23.2230 C   0  0  0  0  0  0  0  0  0  0  0  0
    9.2410    3.4400   23.0290 C   0  0  0  0  0  0  0  0  0  0  0  0
   12.0530   -0.6260   23.8700 N   0  0  0  0  0  0  0  0  0  0  0  0
    6.3100   -4.9760   25.5740 C   0  0  2  0  0  0  0  0  0  0  0  0
    4.8960   -5.8720   23.8650 C   0  0  1  0  0  0  0  0  0  0  0  0
    5.0090   -6.1650   22.1720 S   0  0  0  0  0  0  0  0  0  0  0  0
   12.2500   -2.0040   23.3430 C   0  0  2  0  0  0  0  0  0  0  0  0
    9.6050   -0.1960   26.7780 C   0  0  0  0  0  0  0  0  0  0  0  0
   10.4690    3.6200   23.5490 C   0  0  0  0  0  0  0  0  0  0  0  0
   10.1060    5.8970   23.7750 C   0  0  0  0  0  0  0  0  0  0  0  0
    7.6280   -4.8360   26.0010 O   0  0  0  0  0  0  0  0  0  0  0  0
    4.2780   -6.7870   24.6990 C   0  0  0  0  0  0  0  0  0  0  0  0
    5.6960   -5.8100   26.5400 C   0  0  0  0  0  0  0  0  0  0  0  0
   10.4880    7.1590   24.1400 O   0  0  0  0  0  0  0  0  0  0  0  0
   11.3420    2.5620   23.7200 C   0  0  0  0  0  0  0  0  0  0  0  0
   13.5650   -2.1180   23.2560 C   0  0  0  0  0  0  0  0  0  0  0  0
    8.3600   -0.7910   27.3980 C   0  0  0  0  0  0  0  0  0  0  0  0
   10.9240    4.8040   23.9250 C   0  0  0  0  0  0  0  0  0  0  0  0
    7.8230   -4.8360   27.4260 C   0  0  0  0  0  0  0  0  0  0  0  0
    4.6290   -6.7900   26.0160 C   0  0  0  0  0  0  0  0  0  0  0  0
   11.6750   -2.1940   21.9290 C   0  0  0  0  0  0  0  0  0  0  0  0
   11.7500    7.2200   24.8120 C   0  0  0  0  0  0  0  0  0  0  0  0
   12.6600   -2.5280   21.0150 C   0  0  0  0  0  0  0  0  0  0  0  0
   13.5480   -1.4280   20.6860 N   0  0  0  0  0  0  0  0  0  0  0  0
  2  1  1  6
  2  3  1  0
  1  4  1  0
  1  5  2  3
  5  6  1  0
  2  7  1  0
  8  4  1  6
  5  9  1  0
  3 10  1  0
  3 11  2  0
  6 12  2  0
  6 13  1  0
  7 14  2  0
  7 15  1  0
  8 16  1  0
  8 17  1  0
  9 18  1  0
 10 19  1  0
 15 20  2  0
 14 21  1  0
 17 22  1  0
 16 23  1  0
 22 23  1  0
 16 24  1  6
 18 25  1  0
 20 26  1  0
 21 26  2  0
 19 27  1  0
 23 28  1  0
 24 29  2  0
 30 25  1  6
 25 31  1  0
 28 32  1  1
 27 33  2  0
 27 34  1  0
 28 35  1  0
 29 35  1  0
 30 36  1  0
 30 37  1  0
 31 38  2  0
 37 38  1  0
 35 39  1  0
 32 40  1  0
 34 41  2  0
 33 42  1  0
 36 43  1  1
 37 44  1  1
 36 45  1  0
 42 46  1  0
 41 47  1  0
 39 48  1  6
 40 49  1  0
 41 50  1  0
 42 50  2  0
 43 51  1  0
 44 52  2  0
 45 52  1  0
 39 53  1  0
 46 54  1  0
 53 55  1  0
 55 56  1  0
M  END
