x2764-x0426
     RDKit          3D

 31 33  0  0  0  0  0  0  0  0999 V2000
    8.8060   -1.3030   21.2710 N   0  0  0  0  0  0  0  0  0  0  0  0
    7.3700   -1.4050   20.9640 C   0  0  0  0  0  0  0  0  0  0  0  0
    6.5870   -2.4830   21.4890 O   0  0  0  0  0  0  0  0  0  0  0  0
    9.1880   -2.0460   22.4030 C   0  0  0  0  0  0  0  0  0  0  0  0
   10.5890   -1.7960   22.9610 C   0  0  0  0  0  0  0  0  0  0  0  0
    6.6230   -0.3590   20.0770 C   0  0  0  0  0  0  0  0  0  0  0  0
   11.6910   -1.7170   22.1050 C   0  0  0  0  0  0  0  0  0  0  0  0
   11.0140   -1.6270   24.2040 C   0  0  0  0  0  0  0  0  0  0  0  0
    6.4620   -0.4300   18.6930 C   0  0  0  0  0  0  0  0  0  0  0  0
    6.0510    0.7050   20.7690 C   0  0  0  0  0  0  0  0  0  0  0  0
    6.2120    0.8460   22.1300 O   0  0  0  0  0  0  0  0  0  0  0  0
   13.0530   -1.4760   22.6360 N   0  0  0  0  0  0  0  0  0  0  0  0
   12.7670   -1.3880   24.1380 S   0  0  0  0  0  0  0  0  0  0  0  0
    5.7300    0.5300   18.0080 C   0  0  0  0  0  0  0  0  0  0  0  0
    5.2830    1.6530   20.0760 C   0  0  0  0  0  0  0  0  0  0  0  0
    7.4290    1.6010   22.4520 C   0  0  0  0  0  0  0  0  0  0  0  0
    4.5970    2.7710   20.8690 C   0  0  0  0  0  0  0  0  0  0  0  0
    5.1580    1.5270   18.6830 C   0  0  0  0  0  0  0  0  0  0  0  0
    7.3410    2.9290   22.0430 C   0  0  0  0  0  0  0  0  0  0  0  0
    4.2240    2.2740   22.1510 C   0  0  0  0  0  0  0  0  0  0  0  0
    7.9560    3.6560   22.7160 N   0  0  0  0  0  0  0  0  0  0  0  0
    2.9920    2.7630   22.7860 N   0  0  0  0  0  0  0  0  0  0  0  0
    2.2400    1.9590   23.5950 C   0  0  0  0  0  0  0  0  0  0  0  0
    2.3970    0.5310   23.6730 O   0  0  0  0  0  0  0  0  0  0  0  0
    1.1790    2.6560   24.4440 C   0  0  0  0  0  0  0  0  0  0  0  0
    1.5110    3.7990   25.1750 C   0  0  0  0  0  0  0  0  0  0  0  0
   -0.1310    2.1440   24.4820 C   0  0  0  0  0  0  0  0  0  0  0  0
    2.7500    4.3020   25.1540 F   0  0  0  0  0  0  0  0  0  0  0  0
   -1.1120    2.7950   25.2660 C   0  0  0  0  0  0  0  0  0  0  0  0
    0.4800    4.4550   25.9750 C   0  0  0  0  0  0  0  0  0  0  0  0
   -0.8080    3.9320   25.9960 C   0  0  0  0  0  0  0  0  0  0  0  0
  1  2  1  0
  2  3  2  0
  1  4  1  0
  4  5  1  0
  2  6  1  0
  5  7  1  0
  5  8  2  0
  6  9  2  0
  6 10  1  0
 10 11  1  0
  7 12  2  0
  8 13  1  0
 12 13  1  0
  9 14  1  0
 10 15  2  0
 11 16  1  0
 15 17  1  0
 14 18  2  0
 15 18  1  0
 16 19  1  0
 17 20  1  0
 19 21  3  0
 20 22  1  0
 22 23  1  0
 23 24  2  0
 23 25  1  0
 25 26  2  0
 25 27  1  0
 26 28  1  0
 27 29  2  0
 26 30  1  0
 29 31  1  0
 30 31  2  0
M  END
