x2764-x1402
     RDKit          3D

 36 39  0  0  0  0  0  0  0  0999 V2000
    7.7390   -2.0670   22.2190 N   0  0  0  0  0  0  0  0  0  0  0  0
    7.1730   -2.2870   20.8410 C   0  0  0  0  0  0  0  0  0  0  0  0
    6.7770   -3.4540   20.1140 C   0  0  0  0  0  0  0  0  0  0  0  0
    8.8340   -1.1470   22.3490 C   0  0  0  0  0  0  0  0  0  0  0  0
   10.1270   -1.5330   22.7880 C   0  0  0  0  0  0  0  0  0  0  0  0
    6.7750   -0.9140   20.1340 C   0  0  0  0  0  0  0  0  0  0  0  0
    6.3860   -4.7940   20.7280 C   0  0  0  0  0  0  0  0  0  0  0  0
   11.3560   -1.8120   21.9520 C   0  0  0  0  0  0  0  0  0  0  0  0
   10.4250   -1.6820   24.2670 C   0  0  0  0  0  0  0  0  0  0  0  0
    6.3170   -1.0650   18.8110 C   0  0  0  0  0  0  0  0  0  0  0  0
    6.7470    0.4250   20.6780 C   0  0  0  0  0  0  0  0  0  0  0  0
    7.1740    0.6660   22.0190 O   0  0  0  0  0  0  0  0  0  0  0  0
    5.5840   -5.4360   20.0420 O   0  0  0  0  0  0  0  0  0  0  0  0
   12.5260   -2.1420   22.7610 N   0  0  0  0  0  0  0  0  0  0  0  0
   12.0930   -2.1040   24.4260 S   0  0  0  0  0  0  0  0  0  0  0  0
    5.8360    0.0420   18.0310 C   0  0  0  0  0  0  0  0  0  0  0  0
    6.2730    1.4920   19.8870 C   0  0  0  0  0  0  0  0  0  0  0  0
    6.7400   -5.3910   21.9190 N   0  0  0  0  0  0  0  0  0  0  0  0
    8.0630    1.7850   22.1370 C   0  0  0  0  0  0  0  0  0  0  0  0
    5.8260    1.2920   18.5940 C   0  0  0  0  0  0  0  0  0  0  0  0
    7.4990   -4.8730   23.0630 C   0  0  0  0  0  0  0  0  0  0  0  0
    5.8570   -6.4720   22.3810 C   0  0  0  0  0  0  0  0  0  0  0  0
    7.2390    3.0830   22.4010 C   0  0  0  0  0  0  0  0  0  0  0  0
    6.8500   -4.8110   24.2990 C   0  0  0  0  0  0  0  0  0  0  0  0
    5.0430   -6.1510   23.4510 C   0  0  0  0  0  0  0  0  0  0  0  0
    8.0210    4.2130   22.6180 N   0  0  0  0  0  0  0  0  0  0  0  0
    5.3920   -5.1730   24.3370 N   0  0  0  0  0  0  0  0  0  0  0  0
    4.8030   -5.3200   25.7450 S   0  0  0  0  0  0  0  0  0  0  0  0
    3.8530   -6.3960   25.6120 O   0  0  0  0  0  0  0  0  0  0  0  0
    5.8770   -5.3710   26.6910 O   0  0  0  0  0  0  0  0  0  0  0  0
    3.9140   -3.8100   25.9280 C   0  0  0  0  0  0  0  0  0  0  0  0
    2.1930   -3.7640   25.9060 S   0  0  0  0  0  0  0  0  0  0  0  0
    4.4890   -2.5640   26.1000 C   0  0  0  0  0  0  0  0  0  0  0  0
    3.4940   -1.6250   26.2100 C   0  0  0  0  0  0  0  0  0  0  0  0
    2.1850   -2.0590   26.1370 C   0  0  0  0  0  0  0  0  0  0  0  0
    0.7260   -1.1630   26.2490 Cl  0  0  0  0  0  0  0  0  0  0  0  0
  1  2  1  0
  2  3  2  3
  1  4  1  0
  4  5  1  0
  2  6  1  0
  3  7  1  0
  5  8  1  0
  5  9  2  0
  6 10  2  0
  6 11  1  0
 11 12  1  0
  7 13  2  0
  8 14  2  0
  9 15  1  0
 14 15  1  0
 10 16  1  0
 11 17  2  0
  7 18  1  0
 12 19  1  0
 16 20  2  0
 17 20  1  0
 18 21  1  0
 18 22  1  0
 19 23  1  0
 21 24  1  0
 22 25  1  0
 23 26  3  0
 24 27  1  0
 25 27  1  0
 27 28  1  0
 28 29  2  0
 28 30  2  0
 28 31  1  0
 31 32  1  0
 31 33  2  0
 33 34  1  0
 32 35  1  0
 34 35  2  0
 35 36  1  0
M  END
