x2764-x2754-x2649-x2694
     RDKit          3D

 51 55  0  0  0  0  0  0  0  0999 V2000
    7.7280   -1.6310   20.7360 C   0  0  1  0  0  0  0  0  0  0  0  0
    6.8990   -0.3170   21.0790 C   0  0  1  0  0  0  0  0  0  0  0  0
    7.7260    0.9970   21.5220 C   0  0  0  0  0  0  0  0  0  0  0  0
    8.5250   -1.8240   21.8860 N   0  0  0  0  0  0  0  0  0  0  0  0
    7.1350   -3.1510   20.4400 C   0  0  2  0  0  0  0  0  0  0  0  0
    5.7280   -3.0860   19.8450 C   0  0  0  0  0  0  0  0  0  0  0  0
    6.2600    0.3090   19.8960 C   0  0  0  0  0  0  0  0  0  0  0  0
    9.9230   -1.7080   22.2300 C   0  0  0  0  0  0  0  0  0  0  0  0
    7.0860   -4.1690   21.6060 N   0  0  0  0  0  0  0  0  0  0  0  0
    6.9520    1.9710   22.3920 N   0  0  0  0  0  0  0  0  0  0  0  0
    8.8740    1.2110   21.1250 O   0  0  0  0  0  0  0  0  0  0  0  0
    5.0480   -4.0880   19.6560 O   0  0  0  0  0  0  0  0  0  0  0  0
    5.1350    1.0980   20.0610 C   0  0  0  0  0  0  0  0  0  0  0  0
    6.8510    0.0950   18.6240 C   0  0  0  0  0  0  0  0  0  0  0  0
   10.9850   -1.2820   23.0510 C   0  0  0  0  0  0  0  0  0  0  0  0
    8.8250   -1.1290   23.0050 C   0  0  0  0  0  0  0  0  0  0  0  0
    7.5000   -3.8190   22.8590 C   0  0  0  0  0  0  0  0  0  0  0  0
    5.9410   -5.0580   21.8720 C   0  0  0  0  0  0  0  0  0  0  0  0
   12.4680   -1.4340   22.9980 C   0  0  0  0  0  0  0  0  0  0  0  0
    7.0210    3.4820   22.2800 C   0  0  0  0  0  0  0  0  0  0  0  0
    4.4550    1.3770   21.3040 C   0  0  0  0  0  0  0  0  0  0  0  0
    6.2940    0.7020   17.5450 N   0  0  0  0  0  0  0  0  0  0  0  0
    4.5260    1.7350   19.0130 C   0  0  0  0  0  0  0  0  0  0  0  0
    9.4210   -0.5470   24.0110 N   0  0  0  0  0  0  0  0  0  0  0  0
   10.7010   -0.6720   23.9980 O   0  0  0  0  0  0  0  0  0  0  0  0
    6.5850   -2.8750   23.3740 C   0  0  0  0  0  0  0  0  0  0  0  0
    5.1860   -4.7210   23.0290 C   0  0  0  0  0  0  0  0  0  0  0  0
   13.0730   -0.1660   23.1030 C   0  0  0  0  0  0  0  0  0  0  0  0
   12.9180   -1.9890   21.8120 C   0  0  0  0  0  0  0  0  0  0  0  0
   12.9850   -2.1930   24.1970 C   0  0  0  0  0  0  0  0  0  0  0  0
    5.1320    1.5500   17.6420 C   0  0  0  0  0  0  0  0  0  0  0  0
    8.3260    3.9590   22.8410 C   0  0  0  0  0  0  0  0  0  0  0  0
    5.3140   -3.4200   23.5740 C   0  0  0  0  0  0  0  0  0  0  0  0
    4.7920   -3.3470   25.0390 C   0  0  0  0  0  0  0  0  0  0  0  0
    8.8340    5.2730   23.1490 C   0  0  0  0  0  0  0  0  0  0  0  0
    9.2190    2.9930   23.1260 C   0  0  0  0  0  0  0  0  0  0  0  0
    3.6120   -3.6310   25.1430 O   0  0  0  0  0  0  0  0  0  0  0  0
    5.6280   -2.9420   26.1960 N   0  0  0  0  0  0  0  0  0  0  0  0
   10.4440    3.1820   23.6270 C   0  0  0  0  0  0  0  0  0  0  0  0
   10.0920    5.4680   23.6700 C   0  0  0  0  0  0  0  0  0  0  0  0
   10.4560    6.7680   23.9300 O   0  0  0  0  0  0  0  0  0  0  0  0
   11.1770    1.9120   23.8150 C   0  0  0  0  0  0  0  0  0  0  0  0
    5.0510   -2.1280   27.2830 C   0  0  0  0  0  0  0  0  0  0  0  0
   10.9610    4.4200   23.9280 C   0  0  0  0  0  0  0  0  0  0  0  0
    6.8900   -3.5880   26.5270 C   0  0  0  0  0  0  0  0  0  0  0  0
   11.6680    6.9200   24.6780 C   0  0  0  0  0  0  0  0  0  0  0  0
    6.9410   -4.6350   27.4510 C   0  0  0  0  0  0  0  0  0  0  0  0
    8.0830   -3.1660   25.9240 C   0  0  0  0  0  0  0  0  0  0  0  0
    8.2600   -5.3080   27.8060 C   0  0  0  0  0  0  0  0  0  0  0  0
    9.4610   -3.7900   26.2240 C   0  0  0  0  0  0  0  0  0  0  0  0
    9.4550   -4.9230   27.2410 C   0  0  0  0  0  0  0  0  0  0  0  0
  1  2  1  0
  2  3  1  6
  1  4  1  1
  1  5  1  0
  5  6  1  1
  2  7  1  0
  4  8  1  0
  5  9  1  0
  3 10  1  0
  3 11  2  0
  6 12  2  0
  7 13  2  0
  7 14  1  0
  8 15  2  0
  8 16  1  0
  9 17  1  0
  9 18  1  0
 15 19  1  0
 10 20  1  0
 13 21  1  0
 14 22  2  0
 13 23  1  0
 16 24  2  0
 15 25  1  0
 24 25  1  0
 17 26  1  0
 18 27  1  0
 19 28  1  0
 19 29  1  0
 19 30  1  0
 22 31  1  0
 23 31  2  0
 20 32  1  0
 26 33  1  0
 27 33  1  0
 33 34  1  0
 32 35  2  0
 32 36  1  0
 34 37  2  0
 34 38  1  0
 36 39  2  0
 35 40  1  0
 40 41  1  0
 39 42  1  0
 38 43  1  0
 39 44  1  0
 40 44  2  0
 38 45  1  0
 41 46  1  0
 45 47  2  0
 45 48  1  0
 47 49  1  0
 48 50  2  0
 49 51  2  0
 50 51  1  0
M  END
