x2764-x0731
     RDKit          3D

 37 40  0  0  0  0  0  0  0  0999 V2000
    7.8790   -1.7790   22.1620 N   0  0  0  0  0  0  0  0  0  0  0  0
    7.2550   -2.1730   20.8270 C   0  0  0  0  0  0  0  0  0  0  0  0
    6.8150   -3.3980   20.1640 C   0  0  0  0  0  0  0  0  0  0  0  0
    8.9700   -2.5060   22.7520 C   0  0  0  0  0  0  0  0  0  0  0  0
   10.3700   -1.9790   22.9520 C   0  0  0  0  0  0  0  0  0  0  0  0
    6.7820   -0.8590   19.9980 C   0  0  0  0  0  0  0  0  0  0  0  0
    6.4710   -4.7820   20.7390 C   0  0  0  0  0  0  0  0  0  0  0  0
   11.3880   -1.8710   22.0110 C   0  0  0  0  0  0  0  0  0  0  0  0
   10.8870   -1.5340   24.1170 C   0  0  0  0  0  0  0  0  0  0  0  0
    6.3490   -0.9450   18.6660 C   0  0  0  0  0  0  0  0  0  0  0  0
    6.7210    0.4380   20.6310 C   0  0  0  0  0  0  0  0  0  0  0  0
    7.1250    0.5830   21.9310 O   0  0  0  0  0  0  0  0  0  0  0  0
    5.6270   -5.4050   20.0640 O   0  0  0  0  0  0  0  0  0  0  0  0
   12.5970   -1.3970   22.3580 N   0  0  0  0  0  0  0  0  0  0  0  0
   12.5330   -1.0370   23.9930 S   0  0  0  0  0  0  0  0  0  0  0  0
    5.8640    0.1750   17.9960 C   0  0  0  0  0  0  0  0  0  0  0  0
    6.2250    1.5390   19.9020 C   0  0  0  0  0  0  0  0  0  0  0  0
    6.9650   -5.4130   21.8720 N   0  0  0  0  0  0  0  0  0  0  0  0
    8.0430    1.6420   22.2330 C   0  0  0  0  0  0  0  0  0  0  0  0
    5.8050    1.3550   18.5930 C   0  0  0  0  0  0  0  0  0  0  0  0
    7.5020   -4.6450   22.9570 C   0  0  0  0  0  0  0  0  0  0  0  0
    6.1140   -6.5200   22.3230 C   0  0  0  0  0  0  0  0  0  0  0  0
    7.2590    2.9880   22.3690 C   0  0  0  0  0  0  0  0  0  0  0  0
    6.4640   -4.2100   23.7770 C   0  0  0  0  0  0  0  0  0  0  0  0
    5.2350   -6.2160   23.3610 C   0  0  0  0  0  0  0  0  0  0  0  0
    8.0610    4.1000   22.6080 N   0  0  0  0  0  0  0  0  0  0  0  0
    5.7970   -5.2530   24.3230 N   0  0  0  0  0  0  0  0  0  0  0  0
    5.4020   -5.2260   25.8000 S   0  0  0  0  0  0  0  0  0  0  0  0
    6.3080   -4.8580   26.8580 O   0  0  0  0  0  0  0  0  0  0  0  0
    4.7160   -6.4930   25.8680 O   0  0  0  0  0  0  0  0  0  0  0  0
    4.1100   -4.0110   25.8470 C   0  0  0  0  0  0  0  0  0  0  0  0
    2.8410   -4.2900   25.3050 C   0  0  0  0  0  0  0  0  0  0  0  0
    4.3740   -2.7870   26.4330 C   0  0  0  0  0  0  0  0  0  0  0  0
    1.8390   -3.3160   25.3720 C   0  0  0  0  0  0  0  0  0  0  0  0
    3.3600   -1.8410   26.4830 C   0  0  0  0  0  0  0  0  0  0  0  0
    2.0780   -2.0750   25.9650 C   0  0  0  0  0  0  0  0  0  0  0  0
    1.0040   -1.0260   26.0560 C   0  0  0  0  0  0  0  0  0  0  0  0
  1  2  1  0
  2  3  2  3
  1  4  1  0
  4  5  1  0
  2  6  1  0
  3  7  1  0
  5  8  1  0
  5  9  2  0
  6 10  2  0
  6 11  1  0
 11 12  1  0
  7 13  2  0
  8 14  2  0
  9 15  1  0
 14 15  1  0
 10 16  1  0
 11 17  2  0
  7 18  1  0
 12 19  1  0
 16 20  2  0
 17 20  1  0
 18 21  1  0
 18 22  1  0
 19 23  1  0
 21 24  1  0
 22 25  1  0
 23 26  3  0
 24 27  1  0
 25 27  1  0
 27 28  1  0
 28 29  2  0
 28 30  2  0
 28 31  1  0
 31 32  2  0
 31 33  1  0
 32 34  1  0
 33 35  2  0
 34 36  2  0
 35 36  1  0
 36 37  1  0
M  END
