x2764-x0978
     RDKit          3D

 34 35  0  0  0  0  0  0  0  0999 V2000
    1.9760   -5.7080   23.1870 N   0  0  0  0  0  0  0  0  0  0  0  0
    3.2060   -6.3970   23.2800 C   0  0  2  0  0  0  0  0  0  0  0  0
    3.3690   -7.2330   24.5650 C   0  0  1  0  0  0  0  0  0  0  0  0
    0.7630   -6.2460   22.5000 C   0  0  0  0  0  0  0  0  0  0  0  0
    0.7610   -7.2960   21.8640 O   0  0  0  0  0  0  0  0  0  0  0  0
   -0.5150   -5.3690   22.6420 C   0  0  0  0  0  0  0  0  0  0  0  0
    4.3380   -5.3120   23.1000 C   0  0  0  0  0  0  0  0  0  0  0  0
    2.1790   -8.1270   24.7700 C   0  0  0  0  0  0  0  0  0  0  0  0
    4.4890   -7.7280   24.5290 O   0  0  0  0  0  0  0  0  0  0  0  0
    5.4990   -5.6590   22.4200 N   0  0  0  0  0  0  0  0  0  0  0  0
    4.1360   -4.0660   23.6050 O   0  0  0  0  0  0  0  0  0  0  0  0
    6.5780   -4.7860   21.8640 C   0  0  1  0  0  0  0  0  0  0  0  0
    6.4980   -4.8330   20.3360 C   0  0  0  0  0  0  0  0  0  0  0  0
    6.6190   -3.4070   22.4830 C   0  0  0  0  0  0  0  0  0  0  0  0
    5.7030   -6.0590   19.8980 C   0  0  0  0  0  0  0  0  0  0  0  0
    6.3600   -2.3530   21.6360 N   0  0  0  0  0  0  0  0  0  0  0  0
    7.3710   -1.3510   21.1420 C   0  0  0  0  0  0  0  0  0  0  0  0
    8.7320   -1.2600   21.3790 N   0  0  0  0  0  0  0  0  0  0  0  0
    6.6970   -0.3350   20.2590 C   0  0  0  0  0  0  0  0  0  0  0  0
    9.1410   -1.9470   22.4820 C   0  0  0  0  0  0  0  0  0  0  0  0
    6.4310   -0.6830   18.9210 C   0  0  0  0  0  0  0  0  0  0  0  0
    6.3050    0.9520   20.7150 C   0  0  0  0  0  0  0  0  0  0  0  0
    6.6350    1.2040   22.1030 O   0  0  0  0  0  0  0  0  0  0  0  0
   10.4880   -1.7750   22.8740 C   0  0  0  0  0  0  0  0  0  0  0  0
    5.7870    0.2490   18.1010 C   0  0  0  0  0  0  0  0  0  0  0  0
    5.6620    1.8690   19.8780 C   0  0  0  0  0  0  0  0  0  0  0  0
    7.8080    2.0120   22.2860 C   0  0  0  0  0  0  0  0  0  0  0  0
   11.5480   -1.8200   21.9750 C   0  0  0  0  0  0  0  0  0  0  0  0
   10.8990   -1.5500   24.1790 C   0  0  0  0  0  0  0  0  0  0  0  0
    5.4040    1.5070   18.5660 C   0  0  0  0  0  0  0  0  0  0  0  0
    7.4790    3.2920   22.0220 C   0  0  0  0  0  0  0  0  0  0  0  0
   12.7820   -1.6380   22.4960 N   0  0  0  0  0  0  0  0  0  0  0  0
   12.6610   -1.4090   24.1480 S   0  0  0  0  0  0  0  0  0  0  0  0
    8.0470    4.3210   22.9130 N   0  0  0  0  0  0  0  0  0  0  0  0
  2  1  1  1
  2  3  1  0
  1  4  1  0
  4  5  2  0
  4  6  1  0
  2  7  1  0
  3  8  1  6
  3  9  1  0
  7 10  1  0
  7 11  2  0
 10 12  1  0
 12 13  1  6
 12 14  1  0
 13 15  2  3
 14 16  1  0
 16 17  2  3
 17 18  1  0
 17 19  1  0
 18 20  1  0
 19 21  2  0
 19 22  1  0
 22 23  1  0
 20 24  1  0
 21 25  1  0
 22 26  2  0
 23 27  1  0
 24 28  1  0
 24 29  2  0
 25 30  2  0
 26 30  1  0
 27 31  1  0
 28 32  2  0
 29 33  1  0
 32 33  1  0
 31 34  3  0
M  END
