x2764-x2694-x0978-x3115-x0771
     RDKit          3D

 60 65  0  0  0  0  0  0  0  0999 V2000
    6.9420   -1.2550   21.3260 N   0  0  0  0  0  0  0  0  0  0  0  0
    6.0620   -2.4770   21.2920 C   0  0  0  0  0  0  0  0  0  0  0  0
    4.8040   -2.8720   20.9160 O   0  0  0  0  0  0  0  0  0  0  0  0
    6.4320    0.1850   21.3730 C   0  0  1  0  0  0  0  0  0  0  0  0
    8.4390   -1.4190   21.1130 N   0  0  0  0  0  0  0  0  0  0  0  0
    6.8360   -3.5610   21.8080 C   0  0  0  0  0  0  0  0  0  0  0  0
    7.7270    1.0010   21.8200 C   0  0  0  0  0  0  0  0  0  0  0  0
    5.9880    0.6450   20.1060 C   0  0  0  0  0  0  0  0  0  0  0  0
    9.7100   -1.4020   21.9700 C   0  0  0  0  0  0  0  0  0  0  0  0
    6.7220   -4.6370   20.7710 C   0  0  0  0  0  0  0  0  0  0  0  0
    7.5520    2.0410   22.7030 N   0  0  0  0  0  0  0  0  0  0  0  0
    8.8640    0.8210   21.4030 O   0  0  0  0  0  0  0  0  0  0  0  0
    4.8800    1.4690   20.0760 C   0  0  0  0  0  0  0  0  0  0  0  0
    6.6740    0.2730   18.9430 C   0  0  0  0  0  0  0  0  0  0  0  0
   10.6960   -1.3940   23.0070 C   0  0  0  0  0  0  0  0  0  0  0  0
    8.6270   -1.4400   22.9080 C   0  0  0  0  0  0  0  0  0  0  0  0
   12.2260   -1.3560   23.0390 C   0  0  0  0  0  0  0  0  0  0  0  0
    6.3240    0.6880   17.7140 N   0  0  0  0  0  0  0  0  0  0  0  0
    4.4440    1.9500   18.8510 C   0  0  0  0  0  0  0  0  0  0  0  0
    8.8850   -1.4530   24.2030 N   0  0  0  0  0  0  0  0  0  0  0  0
   10.2060   -1.4260   24.2690 O   0  0  0  0  0  0  0  0  0  0  0  0
    8.4500    3.1890   22.9680 C   0  0  0  0  0  0  0  0  0  0  0  0
    6.8570   -5.8650   21.5630 N   0  0  0  0  0  0  0  0  0  0  0  0
   12.7520   -0.1590   23.5360 C   0  0  0  0  0  0  0  0  0  0  0  0
   12.8760   -1.6710   21.6450 C   0  0  0  0  0  0  0  0  0  0  0  0
   12.8330   -2.6050   23.7610 C   0  0  0  0  0  0  0  0  0  0  0  0
    5.1590    1.5730   17.6620 C   0  0  0  0  0  0  0  0  0  0  0  0
    9.7610    2.9270   23.6890 C   0  0  0  0  0  0  0  0  0  0  0  0
    8.0170    4.5770   22.5090 C   0  0  0  0  0  0  0  0  0  0  0  0
    5.5970   -6.5130   22.0480 C   0  0  0  0  0  0  0  0  0  0  0  0
    7.7640   -5.7010   22.7140 C   0  0  0  0  0  0  0  0  0  0  0  0
   10.2270    1.6590   24.1440 C   0  0  0  0  0  0  0  0  0  0  0  0
   13.0130   -2.5230   25.2570 C   0  0  0  0  0  0  0  0  0  0  0  0
   10.5770    4.1980   23.8970 C   0  0  0  0  0  0  0  0  0  0  0  0
    8.8610    5.6840   22.7680 C   0  0  0  0  0  0  0  0  0  0  0  0
    4.8310   -5.7620   22.9830 C   0  0  2  0  0  0  0  0  0  0  0  0
    7.1140   -5.2240   24.0370 C   0  0  0  0  0  0  0  0  0  0  0  0
    8.3950    7.0300   22.2960 C   0  0  0  0  0  0  0  0  0  0  0  0
    3.3700   -6.4810   23.2610 C   0  0  2  0  0  0  0  0  0  0  0  0
    4.4580   -4.4970   22.3390 O   0  0  0  0  0  0  0  0  0  0  0  0
   10.0960    5.5560   23.4360 C   0  0  0  0  0  0  0  0  0  0  0  0
    5.6440   -5.3840   24.1720 N   0  0  0  0  0  0  0  0  0  0  0  0
   10.8500    6.7380   23.6480 O   0  0  0  0  0  0  0  0  0  0  0  0
    2.2650   -5.5280   22.9280 N   0  0  0  0  0  0  0  0  0  0  0  0
    3.1470   -7.1370   24.4800 C   0  0  1  0  0  0  0  0  0  0  0  0
    4.9330   -5.6400   25.6920 S   0  0  1  0  0  0  0  0  0  0  0  0
   11.8400    6.6950   24.6790 C   0  0  0  0  0  0  0  0  0  0  0  0
    2.5420   -8.3770   24.4290 C   0  0  0  0  0  0  0  0  0  0  0  0
    4.3010   -7.1570   25.3350 N   0  0  0  0  0  0  0  0  0  0  0  0
    0.9800   -6.1870   22.5690 C   0  0  0  0  0  0  0  0  0  0  0  0
    5.9190   -5.6320   26.7380 O   0  0  0  0  0  0  0  0  0  0  0  0
    3.7140   -4.3640   25.9030 C   0  0  0  0  0  0  0  0  0  0  0  0
    0.8850   -7.4400   21.9350 O   0  0  0  0  0  0  0  0  0  0  0  0
   -0.1560   -5.4570   22.9070 C   0  0  0  0  0  0  0  0  0  0  0  0
    2.2110   -4.6510   25.7130 C   0  0  0  0  0  0  0  0  0  0  0  0
    4.0980   -3.0590   26.2390 C   0  0  0  0  0  0  0  0  0  0  0  0
    1.1590   -3.5760   25.8760 C   0  0  0  0  0  0  0  0  0  0  0  0
    3.0500   -1.9530   26.4110 C   0  0  0  0  0  0  0  0  0  0  0  0
    1.6690   -2.1900   26.2410 C   0  0  0  0  0  0  0  0  0  0  0  0
    0.6790   -1.0870   26.4190 C   0  0  0  0  0  0  0  0  0  0  0  0
  1  2  1  0
  2  3  2  0
  1  4  1  0
  1  5  1  0
  2  6  1  0
  4  7  1  6
  4  8  1  0
  5  9  1  0
  6 10  1  0
  7 11  1  0
  7 12  2  0
  8 13  2  0
  8 14  1  0
  9 15  2  0
  9 16  1  0
 15 17  1  0
 14 18  2  0
 13 19  1  0
 16 20  2  0
 15 21  1  0
 20 21  1  0
 11 22  1  0
 10 23  1  0
 17 24  1  0
 17 25  1  0
 17 26  1  0
 18 27  1  0
 19 27  2  0
 22 28  2  0
 22 29  1  0
 23 30  1  0
 23 31  1  0
 28 32  1  0
 26 33  1  0
 28 34  1  0
 29 35  2  0
 30 36  1  0
 31 37  1  0
 35 38  1  0
 36 39  1  0
 36 40  1  6
 34 41  2  0
 35 41  1  0
 36 42  1  0
 37 42  1  0
 41 43  1  0
 39 44  1  1
 39 45  1  0
 42 46  1  0
 43 47  1  0
 45 48  1  6
 45 49  1  0
 46 49  2  0
 44 50  1  0
 46 51  2  0
 46 52  1  1
 50 53  2  0
 50 54  1  0
 52 55  2  0
 52 56  1  0
 55 57  1  0
 56 58  2  0
 57 59  2  0
 58 59  1  0
 59 60  1  0
M  END
