x2764-x2694-x2193-x3115-x0691
     RDKit          3D

 59 64  0  0  0  0  0  0  0  0999 V2000
    6.9570   -1.3340   21.6550 N   0  0  0  0  0  0  0  0  0  0  0  0
    5.9170   -2.3440   21.0780 C   0  0  0  0  0  0  0  0  0  0  0  0
    4.7470   -2.9780   21.4210 O   0  0  0  0  0  0  0  0  0  0  0  0
    6.6890    0.0740   21.6370 C   0  0  1  0  0  0  0  0  0  0  0  0
    8.2790   -1.5830   21.0430 N   0  0  0  0  0  0  0  0  0  0  0  0
    6.3020   -2.8300   19.7830 C   0  0  0  0  0  0  0  0  0  0  0  0
    7.7990    0.9880   21.8980 C   0  0  0  0  0  0  0  0  0  0  0  0
    6.1650    0.5040   20.3250 C   0  0  0  0  0  0  0  0  0  0  0  0
    9.6410   -1.5250   21.8170 C   0  0  0  0  0  0  0  0  0  0  0  0
    6.7370   -4.2350   20.0320 C   0  0  0  0  0  0  0  0  0  0  0  0
    7.5460    2.0940   22.6940 N   0  0  0  0  0  0  0  0  0  0  0  0
    8.9110    0.8230   21.4000 O   0  0  0  0  0  0  0  0  0  0  0  0
    4.9040    1.3470   20.2180 C   0  0  0  0  0  0  0  0  0  0  0  0
    6.8540    0.1380   19.1720 C   0  0  0  0  0  0  0  0  0  0  0  0
   10.5960   -1.5170   22.9610 C   0  0  0  0  0  0  0  0  0  0  0  0
    8.5440   -1.6600   22.8750 C   0  0  0  0  0  0  0  0  0  0  0  0
   12.1420   -1.4250   23.0860 C   0  0  0  0  0  0  0  0  0  0  0  0
    6.3360    0.5980   17.8560 N   0  0  0  0  0  0  0  0  0  0  0  0
    4.4600    1.7570   18.8740 C   0  0  0  0  0  0  0  0  0  0  0  0
    8.7640   -1.7150   24.2620 N   0  0  0  0  0  0  0  0  0  0  0  0
   10.0810   -1.6210   24.2720 O   0  0  0  0  0  0  0  0  0  0  0  0
    8.4120    3.2360   22.9500 C   0  0  0  0  0  0  0  0  0  0  0  0
    6.4050   -4.7170   21.4170 N   0  0  0  0  0  0  0  0  0  0  0  0
   12.4230   -0.1910   23.6780 C   0  0  0  0  0  0  0  0  0  0  0  0
   12.7680   -1.6070   21.7380 C   0  0  0  0  0  0  0  0  0  0  0  0
   12.5650   -2.6700   23.7960 C   0  0  0  0  0  0  0  0  0  0  0  0
    5.2150    1.3500   17.8140 C   0  0  0  0  0  0  0  0  0  0  0  0
    9.6420    3.0830   23.6330 C   0  0  0  0  0  0  0  0  0  0  0  0
    8.0970    4.5560   22.5520 C   0  0  0  0  0  0  0  0  0  0  0  0
    5.7110   -6.0010   21.5760 C   0  0  0  0  0  0  0  0  0  0  0  0
    7.3090   -4.6110   22.5650 C   0  0  0  0  0  0  0  0  0  0  0  0
   10.1570    1.7150   24.1400 C   0  0  0  0  0  0  0  0  0  0  0  0
   13.0110   -2.5880   25.2080 C   0  0  0  0  0  0  0  0  0  0  0  0
   10.4470    4.2200   23.8770 C   0  0  0  0  0  0  0  0  0  0  0  0
    8.9170    5.6800   22.8070 C   0  0  0  0  0  0  0  0  0  0  0  0
    4.7990   -5.9190   22.6410 C   0  0  0  0  0  0  0  0  0  0  0  0
    6.5120   -4.5040   23.7280 C   0  0  0  0  0  0  0  0  0  0  0  0
    8.4580    7.0180   22.3240 C   0  0  0  0  0  0  0  0  0  0  0  0
   10.1200    5.5070   23.4930 C   0  0  0  0  0  0  0  0  0  0  0  0
    5.4850   -5.5570   23.8960 N   0  0  0  0  0  0  0  0  0  0  0  0
   10.8920    6.6220   23.7390 O   0  0  0  0  0  0  0  0  0  0  0  0
    4.6860   -5.7840   25.3870 S   0  0  1  0  0  0  0  0  0  0  0  0
   11.8460    6.5380   24.7990 C   0  0  0  0  0  0  0  0  0  0  0  0
    3.8430   -6.9350   25.1580 O   0  0  0  0  0  0  0  0  0  0  0  0
    5.8740   -5.7770   26.5910 N   0  0  0  0  0  0  0  0  0  0  0  0
    3.5560   -4.4160   25.5910 C   0  0  0  0  0  0  0  0  0  0  0  0
    6.6390   -4.7150   26.8600 C   0  0  0  0  0  0  0  0  0  0  0  0
    3.9250   -3.0740   25.7340 C   0  0  0  0  0  0  0  0  0  0  0  0
    2.1970   -4.6330   25.6100 C   0  0  0  0  0  0  0  0  0  0  0  0
    8.1890   -4.9550   26.8670 C   0  0  1  0  0  0  0  0  0  0  0  0
    3.0070   -2.0310   25.8840 C   0  0  0  0  0  0  0  0  0  0  0  0
    1.2130   -3.6270   25.7590 C   0  0  0  0  0  0  0  0  0  0  0  0
    3.4040   -0.7540   26.0160 F   0  0  0  0  0  0  0  0  0  0  0  0
    8.7510   -6.1470   26.2190 N   0  0  0  0  0  0  0  0  0  0  0  0
    8.8250   -3.7040   26.3150 C   0  0  0  0  0  0  0  0  0  0  0  0
    1.6240   -2.2840   25.9010 C   0  0  0  0  0  0  0  0  0  0  0  0
    9.0250   -3.5650   25.0240 N   0  0  0  0  0  0  0  0  0  0  0  0
    9.1520   -5.9740   24.8000 C   0  0  0  0  0  0  0  0  0  0  0  0
    9.7980   -4.6470   24.5020 C   0  0  0  0  0  0  0  0  0  0  0  0
  1  2  1  0
  2  3  2  0
  1  4  1  0
  1  5  1  0
  2  6  1  0
  4  7  1  6
  4  8  1  0
  5  9  1  0
  6 10  1  0
  7 11  1  0
  7 12  2  0
  8 13  2  0
  8 14  1  0
  9 15  2  0
  9 16  1  0
 15 17  1  0
 14 18  2  0
 13 19  1  0
 16 20  2  0
 15 21  1  0
 20 21  1  0
 11 22  1  0
 10 23  1  0
 17 24  1  0
 17 25  1  0
 17 26  1  0
 18 27  1  0
 19 27  2  0
 22 28  2  0
 22 29  1  0
 23 30  1  0
 23 31  1  0
 28 32  1  0
 26 33  1  0
 28 34  1  0
 29 35  2  0
 30 36  1  0
 31 37  1  0
 35 38  1  0
 34 39  2  0
 35 39  1  0
 36 40  1  0
 37 40  1  0
 39 41  1  0
 40 42  1  0
 41 43  1  0
 42 44  2  0
 42 45  2  0
 42 46  1  1
 45 47  1  0
 46 48  2  0
 46 49  1  0
 50 47  1  6
 48 51  1  0
 49 52  2  0
 51 53  1  0
 50 54  1  0
 50 55  1  0
 51 56  2  0
 52 56  1  0
 55 57  1  0
 54 58  1  0
 57 59  1  0
 58 59  1  0
M  END
