x2764-x1380
     RDKit          3D

 35 39  0  0  0  0  0  0  0  0999 V2000
    8.2290   -1.6550   21.2720 N   0  0  0  0  0  0  0  0  0  0  0  0
    6.7580   -1.3730   20.9120 C   0  0  0  0  0  0  0  0  0  0  0  0
    5.6880   -2.3500   21.2600 N   0  0  0  0  0  0  0  0  0  0  0  0
    8.5650   -2.6040   22.2890 C   0  0  1  0  0  0  0  0  0  0  0  0
    9.8720   -2.1580   23.0600 C   0  0  0  0  0  0  0  0  0  0  0  0
    6.2730   -0.1490   20.1070 C   0  0  0  0  0  0  0  0  0  0  0  0
    7.1720   -2.7870   22.9080 C   0  0  1  0  0  0  0  0  0  0  0  0
   11.0440   -1.9050   22.2970 C   0  0  0  0  0  0  0  0  0  0  0  0
   10.1930   -1.9370   24.3420 C   0  0  0  0  0  0  0  0  0  0  0  0
    6.0660   -0.3310   18.7410 C   0  0  0  0  0  0  0  0  0  0  0  0
    6.0260    1.0770   20.7300 C   0  0  0  0  0  0  0  0  0  0  0  0
    6.3240   -3.4620   21.8330 C   0  0  2  0  0  0  0  0  0  0  0  0
    6.6260   -3.5160   24.0100 C   0  0  2  0  0  0  0  0  0  0  0  0
    6.2730    1.1740   22.0740 O   0  0  0  0  0  0  0  0  0  0  0  0
    6.5350   -4.0200   20.3680 C   0  0  0  0  0  0  0  0  0  0  0  0
    6.5880   -3.1140   25.3890 C   0  0  0  0  0  0  0  0  0  0  0  0
   12.3290   -1.4790   22.9250 N   0  0  0  0  0  0  0  0  0  0  0  0
   11.9140   -1.4460   24.4020 S   0  0  0  0  0  0  0  0  0  0  0  0
    5.5870    0.7020   17.9750 C   0  0  0  0  0  0  0  0  0  0  0  0
    5.5340    2.1090   19.9200 C   0  0  0  0  0  0  0  0  0  0  0  0
    5.6530   -4.5700   22.4050 C   0  0  0  0  0  0  0  0  0  0  0  0
    6.3320   -4.8150   23.6130 C   0  0  0  0  0  0  0  0  0  0  0  0
    7.5180    1.8400   22.3560 C   0  0  0  0  0  0  0  0  0  0  0  0
    7.2680   -3.2840   19.2510 C   0  0  0  0  0  0  0  0  0  0  0  0
    5.9470   -5.0670   20.0560 O   0  0  0  0  0  0  0  0  0  0  0  0
    5.8770   -1.8810   25.5960 O   0  0  0  0  0  0  0  0  0  0  0  0
    5.3260    1.8730   18.5550 C   0  0  0  0  0  0  0  0  0  0  0  0
    7.0020   -3.7720   26.4890 N   0  0  0  0  0  0  0  0  0  0  0  0
    7.6840    3.1490   21.9490 C   0  0  0  0  0  0  0  0  0  0  0  0
    8.2160   -4.3970   26.7280 C   0  0  0  0  0  0  0  0  0  0  0  0
    6.1530   -3.4760   27.7040 C   0  0  0  0  0  0  0  0  0  0  0  0
    7.7700    4.3100   22.8280 N   0  0  0  0  0  0  0  0  0  0  0  0
    8.3550   -4.9780   27.9960 C   0  0  0  0  0  0  0  0  0  0  0  0
    6.1480   -4.3900   28.7450 C   0  0  0  0  0  0  0  0  0  0  0  0
    7.1200   -5.3760   28.5320 C   0  0  0  0  0  0  0  0  0  0  0  0
  1  2  1  0
  2  3  2  0
  1  4  1  0
  4  5  1  1
  2  6  1  0
  7  4  1  6
  5  8  1  0
  5  9  2  0
  6 10  2  0
  6 11  1  0
  3 12  1  0
  7 12  1  0
  7 13  1  0
 11 14  1  0
 12 15  1  6
 13 16  1  1
  8 17  2  0
  9 18  1  0
 17 18  1  0
 10 19  1  0
 11 20  2  0
 12 21  1  0
 13 22  1  0
 21 22  1  0
 14 23  1  0
 15 24  1  0
 15 25  2  0
 16 26  2  0
 19 27  2  0
 20 27  1  0
 16 28  1  0
 23 29  1  0
 28 30  1  0
 28 31  1  0
 29 32  3  0
 30 33  1  0
 31 34  1  0
 33 35  1  0
 34 35  1  0
M  END
