x2764-x3110-x0946-x0769
     RDKit          3D

 56 61  0  0  0  0  0  0  0  0999 V2000
    7.9220    1.0960   23.1790 N   0  0  0  0  0  0  0  0  0  0  0  0
    8.5550    2.2900   23.6370 C   0  0  2  0  0  0  0  0  0  0  0  0
    7.8990    3.3790   22.8870 N   0  0  0  0  0  0  0  0  0  0  0  0
    7.7010    0.6690   21.8270 C   0  0  0  0  0  0  0  0  0  0  0  0
    8.4100    1.2340   20.9600 O   0  0  0  0  0  0  0  0  0  0  0  0
    6.6720   -0.3350   21.4840 C   0  0  2  0  0  0  0  0  0  0  0  0
   10.0810    2.3350   23.3920 C   0  0  0  0  0  0  0  0  0  0  0  0
    7.0700   -1.4880   21.4060 N   0  0  0  0  0  0  0  0  0  0  0  0
    6.2130    0.2140   20.1890 C   0  0  0  0  0  0  0  0  0  0  0  0
   10.9130    3.4990   23.4550 C   0  0  0  0  0  0  0  0  0  0  0  0
   10.7120    1.1500   23.0760 C   0  0  0  0  0  0  0  0  0  0  0  0
   10.3890    4.8250   23.8410 C   0  0  0  0  0  0  0  0  0  0  0  0
    6.1610   -2.6940   21.1130 C   0  0  0  0  0  0  0  0  0  0  0  0
    5.1050    1.0480   20.1170 C   0  0  0  0  0  0  0  0  0  0  0  0
    6.8220   -0.0190   18.9670 C   0  0  0  0  0  0  0  0  0  0  0  0
    8.2270   -1.6620   22.1570 C   0  0  0  0  0  0  0  0  0  0  0  0
   12.0650    1.0880   22.8130 C   0  0  0  0  0  0  0  0  0  0  0  0
   12.2870    3.4350   23.1610 C   0  0  0  0  0  0  0  0  0  0  0  0
   13.1120    4.7040   23.2080 C   0  0  0  0  0  0  0  0  0  0  0  0
    4.8450   -2.9230   20.8720 O   0  0  0  0  0  0  0  0  0  0  0  0
    6.8330   -4.0250   21.1680 C   0  0  1  0  0  0  0  0  0  0  0  0
    9.4860    5.1830   24.8710 O   0  0  0  0  0  0  0  0  0  0  0  0
   10.8180    5.8170   23.2490 O   0  0  0  0  0  0  0  0  0  0  0  0
    6.3700    0.5370   17.8300 N   0  0  0  0  0  0  0  0  0  0  0  0
    4.6480    1.6110   18.9360 C   0  0  0  0  0  0  0  0  0  0  0  0
    9.4400   -1.3540   21.6110 C   0  0  0  0  0  0  0  0  0  0  0  0
    8.2880   -2.1270   23.4690 C   0  0  0  0  0  0  0  0  0  0  0  0
   12.8570    2.2020   22.8420 C   0  0  0  0  0  0  0  0  0  0  0  0
   13.0660    5.4080   21.8380 C   0  0  0  0  0  0  0  0  0  0  0  0
    8.3300   -4.2150   20.8440 C   0  0  0  0  0  0  0  0  0  0  0  0
    7.0510   -2.4830   24.1190 C   0  0  0  0  0  0  0  0  0  0  0  0
    5.2190    1.4300   17.6850 C   0  0  0  0  0  0  0  0  0  0  0  0
   10.6890   -1.4580   22.2310 C   0  0  0  0  0  0  0  0  0  0  0  0
    9.5650   -2.2200   24.1060 C   0  0  0  0  0  0  0  0  0  0  0  0
    6.4320   -4.4820   22.5830 C   0  0  0  0  0  0  0  0  0  0  0  0
    6.0010   -3.2230   23.4810 C   0  0  0  0  0  0  0  0  0  0  0  0
   10.8030   -1.8950   23.5400 C   0  0  0  0  0  0  0  0  0  0  0  0
    5.4540   -5.3900   22.4380 C   0  0  0  0  0  0  0  0  0  0  0  0
    7.5450   -5.1550   23.3690 C   0  0  0  0  0  0  0  0  0  0  0  0
   12.1700   -1.9870   24.2450 C   0  0  0  0  0  0  0  0  0  0  0  0
    4.9560   -5.9710   23.5950 C   0  0  0  0  0  0  0  0  0  0  0  0
    7.0660   -5.2980   24.8030 C   0  0  0  0  0  0  0  0  0  0  0  0
   12.4950   -0.8920   25.0420 C   0  0  0  0  0  0  0  0  0  0  0  0
   13.3140   -2.1080   23.2240 C   0  0  0  0  0  0  0  0  0  0  0  0
   12.0820   -3.2390   25.1300 C   0  0  0  0  0  0  0  0  0  0  0  0
    5.6380   -5.6600   24.8100 N   0  0  0  0  0  0  0  0  0  0  0  0
    4.7310   -5.4370   26.2150 S   0  0  0  0  0  0  0  0  0  0  0  0
    5.6990   -5.1660   27.2500 O   0  0  0  0  0  0  0  0  0  0  0  0
    3.8320   -6.5590   26.2900 O   0  0  0  0  0  0  0  0  0  0  0  0
    3.7380   -3.9810   26.0560 C   0  0  0  0  0  0  0  0  0  0  0  0
    4.3150   -2.6750   26.1960 C   0  0  0  0  0  0  0  0  0  0  0  0
    2.2390   -4.1160   25.7770 C   0  0  0  0  0  0  0  0  0  0  0  0
    5.6200   -2.5460   26.4390 F   0  0  0  0  0  0  0  0  0  0  0  0
    1.4940   -2.9780   25.6770 C   0  0  0  0  0  0  0  0  0  0  0  0
    3.5260   -1.5040   26.0880 C   0  0  0  0  0  0  0  0  0  0  0  0
    2.1650   -1.6340   25.8420 C   0  0  0  0  0  0  0  0  0  0  0  0
  1  2  1  0
  2  3  1  6
  1  4  1  0
  4  5  2  0
  6  4  1  6
  2  7  1  0
  6  8  1  0
  6  9  1  0
  7 10  2  0
  7 11  1  0
 10 12  1  0
  8 13  1  0
  9 14  2  0
  9 15  1  0
  8 16  1  0
 11 17  2  0
 10 18  1  0
 18 19  1  0
 13 20  2  0
 13 21  1  0
 12 22  2  0
 12 23  1  0
 15 24  2  0
 14 25  1  0
 16 26  1  0
 16 27  2  0
 17 28  1  0
 18 28  2  0
 19 29  1  0
 21 30  1  1
 27 31  1  0
 24 32  1  0
 25 32  2  0
 26 33  2  0
 27 34  1  0
 21 35  1  0
 31 36  1  0
 35 36  1  0
 33 37  1  0
 34 37  2  0
 35 38  1  0
 35 39  1  0
 37 40  1  0
 38 41  1  0
 39 42  1  0
 40 43  1  0
 40 44  1  0
 40 45  1  0
 41 46  1  0
 42 46  1  0
 46 47  1  0
 47 48  2  0
 47 49  2  0
 47 50  1  0
 50 51  2  0
 50 52  1  0
 51 53  1  0
 52 54  2  0
 51 55  1  0
 54 56  1  0
 55 56  2  0
M  END
