x2776-x0978-x0771
     RDKit          3D

 58 63  0  0  0  0  0  0  0  0999 V2000
    6.8250   -1.4280   21.6300 N   0  0  0  0  0  0  0  0  0  0  0  0
    5.9320   -2.5940   21.2680 C   0  0  0  0  0  0  0  0  0  0  0  0
    4.7440   -2.8050   20.7600 O   0  0  0  0  0  0  0  0  0  0  0  0
    6.5600    0.0580   21.3720 C   0  0  1  0  0  0  0  0  0  0  0  0
    8.0850   -1.6320   22.2990 C   0  0  0  0  0  0  0  0  0  0  0  0
    6.3290   -3.9360   21.5310 C   0  0  0  0  0  0  0  0  0  0  0  0
    7.6880    0.9010   21.7090 C   0  0  0  0  0  0  0  0  0  0  0  0
    6.0470    0.5400   20.1090 C   0  0  0  0  0  0  0  0  0  0  0  0
    9.1740   -1.5550   21.4650 C   0  0  0  0  0  0  0  0  0  0  0  0
    8.3710   -1.8620   23.6390 C   0  0  0  0  0  0  0  0  0  0  0  0
    7.6640   -4.4670   21.1820 C   0  0  0  0  0  0  0  0  0  0  0  0
    7.5120    1.9210   22.6510 N   0  0  0  0  0  0  0  0  0  0  0  0
    8.7850    0.8010   21.1810 O   0  0  0  0  0  0  0  0  0  0  0  0
    4.8360    1.3810   20.0510 C   0  0  0  0  0  0  0  0  0  0  0  0
    6.6670    0.2510   18.9540 C   0  0  0  0  0  0  0  0  0  0  0  0
   10.6270   -1.7040   21.9460 C   0  0  0  0  0  0  0  0  0  0  0  0
    9.6920   -1.9930   24.0900 C   0  0  0  0  0  0  0  0  0  0  0  0
    6.3020    0.6620   17.7130 N   0  0  0  0  0  0  0  0  0  0  0  0
    4.4650    1.8140   18.6920 C   0  0  0  0  0  0  0  0  0  0  0  0
    8.3180    3.0460   22.9520 C   0  0  0  0  0  0  0  0  0  0  0  0
   10.7760   -1.9180   23.3050 C   0  0  0  0  0  0  0  0  0  0  0  0
    7.1940   -5.7300   21.8530 N   0  0  0  0  0  0  0  0  0  0  0  0
   12.2100   -2.0530   23.8470 C   0  0  2  0  0  0  0  0  0  0  0  0
    5.2220    1.4240   17.6790 C   0  0  0  0  0  0  0  0  0  0  0  0
    9.7210    2.9960   23.1450 C   0  0  0  0  0  0  0  0  0  0  0  0
    7.6460    4.2670   23.0620 C   0  0  0  0  0  0  0  0  0  0  0  0
    5.7550   -6.2890   21.9900 C   0  0  0  0  0  0  0  0  0  0  0  0
    7.7740   -5.7220   23.1770 C   0  0  0  0  0  0  0  0  0  0  0  0
   12.2830   -2.6050   25.1530 O   0  0  0  0  0  0  0  0  0  0  0  0
   10.4460    1.6900   22.9980 C   0  0  0  0  0  0  0  0  0  0  0  0
   12.8910   -0.8320   23.8470 C   0  0  0  0  0  0  0  0  0  0  0  0
   10.4860    4.0890   23.4600 C   0  0  0  0  0  0  0  0  0  0  0  0
    8.5230    5.5380   23.4170 C   0  0  0  0  0  0  0  0  0  0  0  0
    4.8270   -5.7680   22.9980 C   0  0  2  0  0  0  0  0  0  0  0  0
    7.0230   -5.2130   24.2110 C   0  0  0  0  0  0  0  0  0  0  0  0
   13.6240   -2.9770   25.4770 C   0  0  0  0  0  0  0  0  0  0  0  0
    3.4490   -6.4760   23.1780 C   0  0  2  0  0  0  0  0  0  0  0  0
    4.3330   -4.4920   22.5270 O   0  0  0  0  0  0  0  0  0  0  0  0
    9.9830    5.3310   23.6080 C   0  0  0  0  0  0  0  0  0  0  0  0
    5.5830   -5.4750   24.2490 N   0  0  0  0  0  0  0  0  0  0  0  0
   10.8770    6.3300   23.9250 O   0  0  0  0  0  0  0  0  0  0  0  0
    2.4600   -5.6400   22.8970 N   0  0  0  0  0  0  0  0  0  0  0  0
    3.1820   -7.1450   24.3970 C   0  0  1  0  0  0  0  0  0  0  0  0
    4.8210   -5.7740   25.7120 S   0  0  1  0  0  0  0  0  0  0  0  0
   11.8100    6.1130   24.9770 C   0  0  0  0  0  0  0  0  0  0  0  0
    2.4050   -8.2830   24.2550 C   0  0  0  0  0  0  0  0  0  0  0  0
    4.2480   -7.2780   25.1770 N   0  0  0  0  0  0  0  0  0  0  0  0
    1.1280   -6.2120   22.5810 C   0  0  0  0  0  0  0  0  0  0  0  0
    5.8780   -5.5590   26.8680 O   0  0  0  0  0  0  0  0  0  0  0  0
    3.6010   -4.5000   25.8720 C   0  0  0  0  0  0  0  0  0  0  0  0
    0.9420   -7.2850   22.0150 O   0  0  0  0  0  0  0  0  0  0  0  0
   -0.0840   -5.3830   23.0110 C   0  0  0  0  0  0  0  0  0  0  0  0
    2.2020   -4.6910   25.8860 C   0  0  0  0  0  0  0  0  0  0  0  0
    4.0660   -3.0460   26.0070 C   0  0  0  0  0  0  0  0  0  0  0  0
    1.2570   -3.6240   26.0100 C   0  0  0  0  0  0  0  0  0  0  0  0
    2.9490   -2.0380   26.1310 C   0  0  0  0  0  0  0  0  0  0  0  0
    1.5960   -2.3070   26.1320 C   0  0  0  0  0  0  0  0  0  0  0  0
    0.4250   -1.3270   26.2560 C   0  0  0  0  0  0  0  0  0  0  0  0
  1  2  1  0
  2  3  2  0
  1  4  1  0
  1  5  1  0
  2  6  1  0
  4  7  1  6
  4  8  1  0
  5  9  2  0
  5 10  1  0
  6 11  1  0
  7 12  1  0
  7 13  2  0
  8 14  2  0
  8 15  1  0
  9 16  1  0
 10 17  2  0
 15 18  2  0
 14 19  1  0
 12 20  1  0
 16 21  2  0
 17 21  1  0
 11 22  1  0
 21 23  1  0
 18 24  1  0
 19 24  2  0
 20 25  2  0
 20 26  1  0
 22 27  1  0
 22 28  1  0
 23 29  1  0
 25 30  1  0
 23 31  1  1
 25 32  1  0
 26 33  2  0
 27 34  1  0
 28 35  1  0
 29 36  1  0
 34 37  1  0
 34 38  1  6
 32 39  2  0
 33 39  1  0
 34 40  1  0
 35 40  1  0
 39 41  1  0
 37 42  1  1
 37 43  1  0
 40 44  1  0
 41 45  1  0
 43 46  1  6
 43 47  1  0
 44 47  2  0
 42 48  1  0
 44 49  2  0
 44 50  1  1
 48 51  2  0
 48 52  1  0
 50 53  2  0
 50 54  1  0
 53 55  1  0
 54 56  2  0
 55 57  2  0
 56 57  1  0
 57 58  1  0
M  END
