x2776-x0689
     RDKit          3D

 50 55  0  0  0  0  0  0  0  0999 V2000
    6.5590   -1.2970   22.0580 C   0  0  1  0  0  0  0  0  0  0  0  0
    5.7740   -2.2480   21.0450 C   0  0  0  0  0  0  0  0  0  0  0  0
    4.6440   -2.8230   21.2020 O   0  0  0  0  0  0  0  0  0  0  0  0
    6.5240    0.1630   21.6360 C   0  0  1  0  0  0  0  0  0  0  0  0
    5.7080   -2.0570   23.1050 C   0  0  0  0  0  0  0  0  0  0  0  0
    8.0830   -1.5270   22.4800 C   0  0  0  0  0  0  0  0  0  0  0  0
    6.3110   -2.6630   19.8260 C   0  0  0  0  0  0  0  0  0  0  0  0
    7.8290    0.9970   21.9120 C   0  0  0  0  0  0  0  0  0  0  0  0
    5.2650   -3.4600   22.6080 C   0  0  0  0  0  0  0  0  0  0  0  0
    5.9900    0.5850   20.2150 C   0  0  0  0  0  0  0  0  0  0  0  0
    9.0980   -1.9100   21.5880 C   0  0  0  0  0  0  0  0  0  0  0  0
    8.4780   -1.3130   23.8010 C   0  0  0  0  0  0  0  0  0  0  0  0
    6.6020   -4.0770   20.1780 C   0  0  0  0  0  0  0  0  0  0  0  0
    7.6820    2.0140   22.8520 N   0  0  0  0  0  0  0  0  0  0  0  0
    8.8740    0.7790   21.3140 O   0  0  0  0  0  0  0  0  0  0  0  0
    4.7210    1.3870   20.0630 C   0  0  0  0  0  0  0  0  0  0  0  0
    6.7100    0.2330   19.0790 C   0  0  0  0  0  0  0  0  0  0  0  0
   10.4530   -2.0660   21.9920 C   0  0  0  0  0  0  0  0  0  0  0  0
    9.8690   -1.4530   24.2940 C   0  0  0  0  0  0  0  0  0  0  0  0
    6.2550   -4.5030   21.7880 C   0  0  0  0  0  0  0  0  0  0  0  0
    6.3490    0.5740   17.8300 N   0  0  0  0  0  0  0  0  0  0  0  0
    4.4090    1.7060   18.7530 C   0  0  0  0  0  0  0  0  0  0  0  0
    8.4720    3.1890   23.0930 C   0  0  0  0  0  0  0  0  0  0  0  0
   10.8680   -1.8160   23.4360 C   0  0  0  0  0  0  0  0  0  0  0  0
    5.6190   -5.7070   21.6670 C   0  0  0  0  0  0  0  0  0  0  0  0
    7.3110   -4.5550   22.5970 C   0  0  0  0  0  0  0  0  0  0  0  0
   12.2840   -1.9390   23.9230 C   0  0  2  0  0  0  0  0  0  0  0  0
    5.2270    1.2920   17.7370 C   0  0  0  0  0  0  0  0  0  0  0  0
    9.8170    3.1020   23.5810 C   0  0  0  0  0  0  0  0  0  0  0  0
    7.9560    4.4690   22.8600 C   0  0  0  0  0  0  0  0  0  0  0  0
    4.9290   -5.9870   22.8900 C   0  0  0  0  0  0  0  0  0  0  0  0
    6.9500   -4.6770   23.9560 C   0  0  0  0  0  0  0  0  0  0  0  0
   12.2940   -2.7330   25.0980 O   0  0  0  0  0  0  0  0  0  0  0  0
   10.4420    1.7680   23.8540 C   0  0  0  0  0  0  0  0  0  0  0  0
   12.8740   -0.7290   24.2180 C   0  0  0  0  0  0  0  0  0  0  0  0
   10.5990    4.2640   23.8250 C   0  0  0  0  0  0  0  0  0  0  0  0
    8.6920    5.6230   23.0920 C   0  0  0  0  0  0  0  0  0  0  0  0
    5.6940   -5.5090   24.1070 N   0  0  0  0  0  0  0  0  0  0  0  0
   13.6170   -3.0370   25.4700 C   0  0  0  0  0  0  0  0  0  0  0  0
    4.8230   -5.3440   25.5930 S   0  0  0  0  0  0  0  0  0  0  0  0
   10.1170    5.5540   23.6160 C   0  0  0  0  0  0  0  0  0  0  0  0
   10.7800    6.7330   23.8310 O   0  0  0  0  0  0  0  0  0  0  0  0
    4.0260   -6.5380   25.7570 O   0  0  0  0  0  0  0  0  0  0  0  0
    5.7460   -4.9270   26.6190 O   0  0  0  0  0  0  0  0  0  0  0  0
    3.5670   -4.0650   25.5420 C   0  0  0  0  0  0  0  0  0  0  0  0
   11.8300    6.7090   24.7990 C   0  0  0  0  0  0  0  0  0  0  0  0
    4.0370   -2.4310   25.9110 S   0  0  0  0  0  0  0  0  0  0  0  0
    2.2040   -4.1590   25.2580 C   0  0  0  0  0  0  0  0  0  0  0  0
    1.4940   -2.8300   25.3520 C   0  0  0  0  0  0  0  0  0  0  0  0
    2.4720   -1.7320   25.7300 C   0  0  0  0  0  0  0  0  0  0  0  0
  1  2  1  0
  2  3  2  0
  1  4  1  0
  1  5  1  0
  1  6  1  1
  2  7  1  0
  4  8  1  6
  5  9  1  0
  4 10  1  0
  6 11  2  0
  6 12  1  0
  7 13  1  0
  8 14  1  0
  8 15  2  0
 10 16  2  0
 10 17  1  0
 11 18  1  0
 12 19  2  0
 20  9  1  0
 13 20  1  0
 17 21  2  0
 16 22  1  0
 14 23  1  0
 18 24  2  0
 19 24  1  0
 20 25  1  0
 20 26  1  0
 24 27  1  0
 21 28  1  0
 22 28  2  0
 23 29  2  0
 23 30  1  0
 25 31  1  0
 26 32  1  0
 27 33  1  0
 29 34  1  0
 27 35  1  1
 29 36  1  0
 30 37  2  0
 31 38  1  0
 32 38  1  0
 33 39  1  0
 38 40  1  0
 36 41  2  0
 37 41  1  0
 41 42  1  0
 40 43  2  0
 40 44  2  0
 40 45  1  0
 42 46  1  0
 45 47  1  0
 45 48  2  0
 48 49  1  0
 47 50  1  0
 49 50  2  0
M  END
