x2776-x0978-x0769
     RDKit          3D

 58 63  0  0  0  0  0  0  0  0999 V2000
    6.8080   -1.2790   21.7070 N   0  0  0  0  0  0  0  0  0  0  0  0
    5.9880   -2.5110   21.4620 C   0  0  0  0  0  0  0  0  0  0  0  0
    4.7880   -2.8680   20.9390 O   0  0  0  0  0  0  0  0  0  0  0  0
    6.4700    0.1470   21.4930 C   0  0  1  0  0  0  0  0  0  0  0  0
    8.1190   -1.4580   22.3180 C   0  0  0  0  0  0  0  0  0  0  0  0
    6.7200   -3.6600   21.9280 C   0  0  0  0  0  0  0  0  0  0  0  0
    7.6860    1.1110   21.7430 C   0  0  0  0  0  0  0  0  0  0  0  0
    6.0390    0.5680   20.1620 C   0  0  0  0  0  0  0  0  0  0  0  0
    9.1760   -1.9170   21.6090 C   0  0  0  0  0  0  0  0  0  0  0  0
    8.4150   -1.1720   23.6570 C   0  0  0  0  0  0  0  0  0  0  0  0
    6.6660   -4.7580   20.9140 C   0  0  0  0  0  0  0  0  0  0  0  0
    7.6580    1.9660   22.9640 N   0  0  0  0  0  0  0  0  0  0  0  0
    8.6370    1.2310   20.9680 O   0  0  0  0  0  0  0  0  0  0  0  0
    4.9520    1.4020   20.0370 C   0  0  0  0  0  0  0  0  0  0  0  0
    6.6980    0.1820   19.0130 C   0  0  0  0  0  0  0  0  0  0  0  0
   10.4310   -2.0720   22.1660 C   0  0  0  0  0  0  0  0  0  0  0  0
    9.6870   -1.3220   24.2530 C   0  0  0  0  0  0  0  0  0  0  0  0
    6.3470    0.5950   17.6810 N   0  0  0  0  0  0  0  0  0  0  0  0
    4.5630    1.8390   18.7910 C   0  0  0  0  0  0  0  0  0  0  0  0
    8.4290    3.1420   23.1680 C   0  0  0  0  0  0  0  0  0  0  0  0
   10.7930   -1.7950   23.4870 C   0  0  0  0  0  0  0  0  0  0  0  0
    6.8080   -5.8630   21.7530 N   0  0  0  0  0  0  0  0  0  0  0  0
   12.1850   -1.9880   23.9790 C   0  0  2  0  0  0  0  0  0  0  0  0
    5.1740    1.5150   17.5930 C   0  0  0  0  0  0  0  0  0  0  0  0
    9.7290    3.0410   23.6160 C   0  0  0  0  0  0  0  0  0  0  0  0
    7.9530    4.4250   22.9400 C   0  0  0  0  0  0  0  0  0  0  0  0
    5.5210   -6.4970   22.1130 C   0  0  0  0  0  0  0  0  0  0  0  0
    7.5530   -5.6710   22.9440 C   0  0  0  0  0  0  0  0  0  0  0  0
   12.2800   -2.6760   25.2140 O   0  0  0  0  0  0  0  0  0  0  0  0
   10.3810    1.7210   23.9040 C   0  0  0  0  0  0  0  0  0  0  0  0
   12.7880   -0.6060   24.1890 C   0  0  0  0  0  0  0  0  0  0  0  0
   10.5870    4.2880   23.8480 C   0  0  0  0  0  0  0  0  0  0  0  0
    8.7850    5.6480   23.1720 C   0  0  0  0  0  0  0  0  0  0  0  0
    4.6720   -5.7330   22.9800 C   0  0  2  0  0  0  0  0  0  0  0  0
    6.7800   -5.1820   24.1880 C   0  0  0  0  0  0  0  0  0  0  0  0
   13.6130   -3.0440   25.4750 C   0  0  0  0  0  0  0  0  0  0  0  0
    3.3580   -6.4470   23.2470 C   0  0  2  0  0  0  0  0  0  0  0  0
    4.3730   -4.4970   22.3920 O   0  0  0  0  0  0  0  0  0  0  0  0
   10.0860    5.6280   23.6230 C   0  0  0  0  0  0  0  0  0  0  0  0
    5.2940   -5.3920   24.2900 N   0  0  0  0  0  0  0  0  0  0  0  0
   10.7480    6.8110   23.8080 O   0  0  0  0  0  0  0  0  0  0  0  0
    2.2640   -5.6340   23.2030 N   0  0  0  0  0  0  0  0  0  0  0  0
    3.5880   -6.9410   24.5390 C   0  0  1  0  0  0  0  0  0  0  0  0
    4.4160   -5.6420   25.4160 S   0  0  0  0  0  0  0  0  0  0  0  0
   11.8240    6.7790   24.7470 C   0  0  0  0  0  0  0  0  0  0  0  0
    2.5450   -7.6630   25.1390 C   0  0  0  0  0  0  0  0  0  0  0  0
    4.5840   -7.9110   24.2950 O   0  0  0  0  0  0  0  0  0  0  0  0
    0.9890   -6.1590   22.6550 C   0  0  0  0  0  0  0  0  0  0  0  0
    5.5540   -5.8360   26.3000 O   0  0  0  0  0  0  0  0  0  0  0  0
    3.5900   -4.0550   25.6570 C   0  0  0  0  0  0  0  0  0  0  0  0
    0.9750   -7.2630   22.0170 O   0  0  0  0  0  0  0  0  0  0  0  0
   -0.1860   -5.5240   22.7840 C   0  0  0  0  0  0  0  0  0  0  0  0
    4.3470   -2.8690   25.9600 C   0  0  0  0  0  0  0  0  0  0  0  0
    2.2050   -3.8960   25.5720 C   0  0  0  0  0  0  0  0  0  0  0  0
    5.6870   -2.7840   26.0970 F   0  0  0  0  0  0  0  0  0  0  0  0
    1.5260   -2.6750   25.7560 C   0  0  0  0  0  0  0  0  0  0  0  0
    3.6830   -1.6230   26.1480 C   0  0  0  0  0  0  0  0  0  0  0  0
    2.2850   -1.5830   26.0350 C   0  0  0  0  0  0  0  0  0  0  0  0
  1  2  1  0
  2  3  2  0
  1  4  1  0
  1  5  1  0
  2  6  1  0
  4  7  1  6
  4  8  1  0
  5  9  2  0
  5 10  1  0
  6 11  1  0
  7 12  1  0
  7 13  2  0
  8 14  2  0
  8 15  1  0
  9 16  1  0
 10 17  2  0
 15 18  2  0
 14 19  1  0
 12 20  1  0
 16 21  2  0
 17 21  1  0
 11 22  1  0
 21 23  1  0
 18 24  1  0
 19 24  2  0
 20 25  2  0
 20 26  1  0
 22 27  1  0
 22 28  1  0
 23 29  1  0
 25 30  1  0
 23 31  1  1
 25 32  1  0
 26 33  2  0
 27 34  1  0
 28 35  1  0
 29 36  1  0
 34 37  1  0
 34 38  1  6
 32 39  2  0
 33 39  1  0
 34 40  1  0
 35 40  1  0
 39 41  1  0
 37 42  1  1
 37 43  1  0
 40 44  1  0
 43 44  1  0
 41 45  1  0
 43 46  1  1
 43 47  1  0
 42 48  1  0
 44 49  2  0
 44 50  1  0
 48 51  2  0
 48 52  1  0
 50 53  2  0
 50 54  1  0
 53 55  1  0
 54 56  2  0
 53 57  1  0
 56 58  1  0
 57 58  2  0
M  END
