x2776-x0769
     RDKit          3D

 52 57  0  0  0  0  0  0  0  0999 V2000
    6.5610   -1.3230   22.0750 C   0  0  1  0  0  0  0  0  0  0  0  0
    5.7940   -2.2480   21.0300 C   0  0  0  0  0  0  0  0  0  0  0  0
    4.6610   -2.8270   21.1680 O   0  0  0  0  0  0  0  0  0  0  0  0
    6.5220    0.1430   21.6600 C   0  0  1  0  0  0  0  0  0  0  0  0
    5.7160   -2.1290   23.1010 C   0  0  0  0  0  0  0  0  0  0  0  0
    8.0860   -1.5470   22.4890 C   0  0  0  0  0  0  0  0  0  0  0  0
    6.3480   -2.6300   19.8050 C   0  0  0  0  0  0  0  0  0  0  0  0
    7.8280    0.9770   21.9350 C   0  0  0  0  0  0  0  0  0  0  0  0
    5.2280   -3.4800   22.5120 C   0  0  0  0  0  0  0  0  0  0  0  0
    5.9850    0.5630   20.2330 C   0  0  0  0  0  0  0  0  0  0  0  0
    9.0970   -1.9330   21.5940 C   0  0  0  0  0  0  0  0  0  0  0  0
    8.4860   -1.3260   23.8080 C   0  0  0  0  0  0  0  0  0  0  0  0
    6.6140   -4.0620   20.1060 C   0  0  0  0  0  0  0  0  0  0  0  0
    7.6780    2.0080   22.8600 N   0  0  0  0  0  0  0  0  0  0  0  0
    8.8800    0.7480   21.3510 O   0  0  0  0  0  0  0  0  0  0  0  0
    4.7030    1.3450   20.0750 C   0  0  0  0  0  0  0  0  0  0  0  0
    6.7160    0.2280   19.0970 C   0  0  0  0  0  0  0  0  0  0  0  0
   10.4550   -2.0830   21.9930 C   0  0  0  0  0  0  0  0  0  0  0  0
    9.8800   -1.4600   24.2960 C   0  0  0  0  0  0  0  0  0  0  0  0
    6.3220   -4.4020   21.7240 C   0  0  0  0  0  0  0  0  0  0  0  0
    6.3560    0.5690   17.8460 N   0  0  0  0  0  0  0  0  0  0  0  0
    4.3930    1.6640   18.7620 C   0  0  0  0  0  0  0  0  0  0  0  0
    8.4690    3.1850   23.0990 C   0  0  0  0  0  0  0  0  0  0  0  0
   10.8760   -1.8250   23.4340 C   0  0  0  0  0  0  0  0  0  0  0  0
    5.7460   -5.8120   21.7980 C   0  0  0  0  0  0  0  0  0  0  0  0
    7.4930   -4.5660   22.7370 C   0  0  0  0  0  0  0  0  0  0  0  0
   12.2950   -1.9380   23.9150 C   0  0  2  0  0  0  0  0  0  0  0  0
    5.2250    1.2690   17.7500 C   0  0  0  0  0  0  0  0  0  0  0  0
    9.8130    3.1030   23.5860 C   0  0  0  0  0  0  0  0  0  0  0  0
    7.9480    4.4610   22.8650 C   0  0  0  0  0  0  0  0  0  0  0  0
    5.1900   -6.2640   23.1570 C   0  0  0  0  0  0  0  0  0  0  0  0
    7.0320   -4.7730   24.1920 C   0  0  0  0  0  0  0  0  0  0  0  0
   12.3090   -2.6920   25.1180 O   0  0  0  0  0  0  0  0  0  0  0  0
   10.4420    1.7720   23.8610 C   0  0  0  0  0  0  0  0  0  0  0  0
   12.8830   -0.7140   24.1540 C   0  0  0  0  0  0  0  0  0  0  0  0
   10.5930    4.2700   23.8290 C   0  0  0  0  0  0  0  0  0  0  0  0
    8.6790    5.6200   23.0960 C   0  0  0  0  0  0  0  0  0  0  0  0
    5.6680   -5.3880   24.2780 N   0  0  0  0  0  0  0  0  0  0  0  0
   13.6250   -3.0500   25.4680 C   0  0  0  0  0  0  0  0  0  0  0  0
    4.8270   -5.4230   25.7770 S   0  0  0  0  0  0  0  0  0  0  0  0
   10.1040    5.5560   23.6190 C   0  0  0  0  0  0  0  0  0  0  0  0
   10.7640    6.7380   23.8370 O   0  0  0  0  0  0  0  0  0  0  0  0
    5.7890   -5.2220   26.8310 O   0  0  0  0  0  0  0  0  0  0  0  0
    3.9780   -6.5930   25.7740 O   0  0  0  0  0  0  0  0  0  0  0  0
    3.7960   -3.9780   25.8150 C   0  0  0  0  0  0  0  0  0  0  0  0
   11.8260    6.7080   24.7930 C   0  0  0  0  0  0  0  0  0  0  0  0
    4.3140   -2.6840   26.0390 C   0  0  0  0  0  0  0  0  0  0  0  0
    2.3790   -4.1100   25.6180 C   0  0  0  0  0  0  0  0  0  0  0  0
    5.6310   -2.5140   26.2290 F   0  0  0  0  0  0  0  0  0  0  0  0
    1.5980   -2.9860   25.6590 C   0  0  0  0  0  0  0  0  0  0  0  0
    3.5390   -1.5190   26.0840 C   0  0  0  0  0  0  0  0  0  0  0  0
    2.1800   -1.6100   25.9030 C   0  0  0  0  0  0  0  0  0  0  0  0
  1  2  1  0
  2  3  2  0
  1  4  1  0
  1  5  1  0
  1  6  1  1
  2  7  1  0
  4  8  1  6
  5  9  1  0
  4 10  1  0
  6 11  2  0
  6 12  1  0
  7 13  1  0
  8 14  1  0
  8 15  2  0
 10 16  2  0
 10 17  1  0
 11 18  1  0
 12 19  2  0
 20  9  1  0
 13 20  1  0
 17 21  2  0
 16 22  1  0
 14 23  1  0
 18 24  2  0
 19 24  1  0
 20 25  1  0
 20 26  1  0
 24 27  1  0
 21 28  1  0
 22 28  2  0
 23 29  2  0
 23 30  1  0
 25 31  1  0
 26 32  1  0
 27 33  1  0
 29 34  1  0
 27 35  1  1
 29 36  1  0
 30 37  2  0
 31 38  1  0
 32 38  1  0
 33 39  1  0
 38 40  1  0
 36 41  2  0
 37 41  1  0
 41 42  1  0
 40 43  2  0
 40 44  2  0
 40 45  1  0
 42 46  1  0
 45 47  2  0
 45 48  1  0
 47 49  1  0
 48 50  2  0
 47 51  1  0
 50 52  1  0
 51 52  2  0
M  END
