x2779-x2776
     RDKit          3D

 41 43  0  0  0  0  0  0  0  0999 V2000
    7.3280    2.2410   22.7280 N   0  0  0  0  0  0  0  0  0  0  0  0
    7.6900    1.2870   21.6640 C   0  0  0  0  0  0  0  0  0  0  0  0
    8.7060    1.3150   20.9760 O   0  0  0  0  0  0  0  0  0  0  0  0
    8.1840    3.2280   23.1970 C   0  0  0  0  0  0  0  0  0  0  0  0
    6.6760    0.1680   21.3250 C   0  0  1  0  0  0  0  0  0  0  0  0
    8.0090    4.5210   22.6940 C   0  0  0  0  0  0  0  0  0  0  0  0
    6.1010    0.6700   20.0590 C   0  0  0  0  0  0  0  0  0  0  0  0
    8.8710    5.5700   23.0660 C   0  0  0  0  0  0  0  0  0  0  0  0
    7.2850   -1.2360   21.0650 C   0  0  0  0  0  0  0  0  0  0  0  0
    4.9980    1.4050   19.9660 C   0  0  0  0  0  0  0  0  0  0  0  0
    6.8300    0.3410   18.7740 C   0  0  0  0  0  0  0  0  0  0  0  0
    9.9540    5.3960   23.9550 C   0  0  2  0  0  0  0  0  0  0  0  0
    6.4500   -2.4680   20.9740 N   0  0  0  0  0  0  0  0  0  0  0  0
   10.8280    6.2720   23.9830 O   0  0  0  0  0  0  0  0  0  0  0  0
    6.3330   -3.1630   19.7720 C   0  0  0  0  0  0  0  0  0  0  0  0
    6.3390    0.8340   17.5110 N   0  0  0  0  0  0  0  0  0  0  0  0
    4.4930    1.8990   18.7360 C   0  0  0  0  0  0  0  0  0  0  0  0
   10.6880    4.2540   23.5250 C   0  0  0  0  0  0  0  0  0  0  0  0
    6.6570   -3.4120   21.9660 C   0  0  0  0  0  0  0  0  0  0  0  0
   11.7180    6.3750   25.0900 C   0  0  0  0  0  0  0  0  0  0  0  0
    7.4100   -2.9810   18.6910 C   0  0  0  0  0  0  0  0  0  0  0  0
    5.3940   -3.9490   19.6100 O   0  0  0  0  0  0  0  0  0  0  0  0
    5.1040    1.6520   17.5890 C   0  0  0  0  0  0  0  0  0  0  0  0
   10.6340    2.9000   23.9650 C   0  0  0  0  0  0  0  0  0  0  0  0
    8.0710   -3.6870   22.4610 C   0  0  0  0  0  0  0  0  0  0  0  0
   11.4220    1.7510   23.4000 C   0  0  0  0  0  0  0  0  0  0  0  0
    9.2830   -3.1450   22.1230 N   0  0  0  0  0  0  0  0  0  0  0  0
    9.5300   -1.8200   22.0280 C   0  0  0  0  0  0  0  0  0  0  0  0
   11.3890    0.1000   23.9230 S   0  0  0  0  0  0  0  0  0  0  0  0
   12.5770   -0.1710   22.5610 C   0  0  0  0  0  0  0  0  0  0  0  0
    9.0110   -0.7710   22.8290 C   0  0  0  0  0  0  0  0  0  0  0  0
   12.0160   -1.5630   23.6260 C   0  0  1  0  0  0  0  0  0  0  0  0
   13.4810   -1.6250   23.6050 C   0  0  2  0  0  0  0  0  0  0  0  0
   11.4100   -2.7490   24.3140 C   0  0  0  0  0  0  0  0  0  0  0  0
    8.0590   -1.0210   23.9770 C   0  0  1  0  0  0  0  0  0  0  0  0
   13.2540   -1.4630   22.1420 C   0  0  0  0  0  0  0  0  0  0  0  0
   13.9990   -2.8400   24.1310 O   0  0  0  0  0  0  0  0  0  0  0  0
    8.5410   -2.3290   24.3480 C   0  0  0  0  0  0  0  0  0  0  0  0
   10.0080   -2.4360   24.2990 C   0  0  0  0  0  0  0  0  0  0  0  0
    8.2660   -0.1310   25.0520 C   0  0  0  0  0  0  0  0  0  0  0  0
   13.9300   -2.8500   25.5580 C   0  0  0  0  0  0  0  0  0  0  0  0
  1  2  1  0
  2  3  2  0
  1  4  1  0
  2  5  1  0
  4  6  1  0
  5  7  1  6
  6  8  2  0
  5  9  1  0
  7 10  2  0
  7 11  1  0
  8 12  1  0
  9 13  1  0
 12 14  1  6
 13 15  1  0
 11 16  2  0
 10 17  1  0
 12 18  1  0
 13 19  1  0
 14 20  1  0
 15 21  1  0
 15 22  2  0
 16 23  1  0
 17 23  2  0
 18 24  2  0
 19 25  2  0
 24 26  1  0
 25 27  1  0
 27 28  1  0
 26 29  2  0
 29 30  2  0
 28 31  2  0
 29 32  1  0
 32 33  1  0
 32 34  1  1
 31 35  1  0
 30 36  1  0
 33 36  1  0
 33 37  1  6
 35 38  1  0
 34 39  1  0
 38 39  2  0
 35 40  1  1
 37 41  1  0
M  END
