x2776-x3115-x0426
     RDKit          3D

 47 50  0  0  0  0  0  0  0  0999 V2000
    6.9110   -1.5900   21.7740 N   0  0  0  0  0  0  0  0  0  0  0  0
    6.0530   -2.7920   21.5290 C   0  0  0  0  0  0  0  0  0  0  0  0
    4.8170   -2.9600   21.1090 O   0  0  0  0  0  0  0  0  0  0  0  0
    6.5460   -0.1300   21.6230 C   0  0  1  0  0  0  0  0  0  0  0  0
    8.2250   -1.6910   22.3630 C   0  0  0  0  0  0  0  0  0  0  0  0
    6.7130   -4.1220   21.8020 C   0  0  0  0  0  0  0  0  0  0  0  0
    7.7060    0.9150   21.7820 C   0  0  0  0  0  0  0  0  0  0  0  0
    6.0400    0.3330   20.2830 C   0  0  0  0  0  0  0  0  0  0  0  0
    9.3270   -2.1270   21.6610 C   0  0  0  0  0  0  0  0  0  0  0  0
    8.4440   -1.3340   23.7030 C   0  0  0  0  0  0  0  0  0  0  0  0
    6.6990   -4.9650   20.5260 C   0  0  0  0  0  0  0  0  0  0  0  0
    7.7480    1.7140   22.8950 N   0  0  0  0  0  0  0  0  0  0  0  0
    8.5720    1.1040   20.9270 O   0  0  0  0  0  0  0  0  0  0  0  0
    4.8430    1.0210   20.0770 C   0  0  0  0  0  0  0  0  0  0  0  0
    6.8860    0.0390   19.2230 C   0  0  0  0  0  0  0  0  0  0  0  0
   10.5960   -2.2140   22.2200 C   0  0  0  0  0  0  0  0  0  0  0  0
    9.7340   -1.4200   24.2810 C   0  0  0  0  0  0  0  0  0  0  0  0
    3.8640    1.3440   21.2240 C   0  0  0  0  0  0  0  0  0  0  0  0
    6.4670    0.5160   17.8830 N   0  0  0  0  0  0  0  0  0  0  0  0
    4.4110    1.4870   18.8400 C   0  0  0  0  0  0  0  0  0  0  0  0
    8.4800    2.9620   23.0500 C   0  0  0  0  0  0  0  0  0  0  0  0
   10.8370   -1.8670   23.5370 C   0  0  0  0  0  0  0  0  0  0  0  0
   12.2630   -1.9880   24.0750 C   0  0  2  0  0  0  0  0  0  0  0  0
    4.4390    2.0840   22.4630 C   0  0  0  0  0  0  0  0  0  0  0  0
    5.2190    1.2520   17.7300 C   0  0  0  0  0  0  0  0  0  0  0  0
    9.7530    2.9130   23.6330 C   0  0  0  0  0  0  0  0  0  0  0  0
    7.8970    4.3130   22.5960 C   0  0  0  0  0  0  0  0  0  0  0  0
   12.3030   -2.5830   25.1380 O   0  0  0  0  0  0  0  0  0  0  0  0
   10.3410    1.6920   24.0600 C   0  0  0  0  0  0  0  0  0  0  0  0
   12.8240   -0.5840   24.2920 C   0  0  0  0  0  0  0  0  0  0  0  0
    3.2730    2.6530   23.1280 N   0  0  0  0  0  0  0  0  0  0  0  0
   10.5000    4.0720   23.8190 C   0  0  0  0  0  0  0  0  0  0  0  0
    8.7690    5.5520   22.8290 C   0  0  0  0  0  0  0  0  0  0  0  0
   13.6290   -2.9530   25.4700 C   0  0  0  0  0  0  0  0  0  0  0  0
    8.2350    6.8840   22.3900 C   0  0  0  0  0  0  0  0  0  0  0  0
    2.2510    1.8480   23.8150 C   0  0  0  0  0  0  0  0  0  0  0  0
   10.0300    5.4630   23.4290 C   0  0  0  0  0  0  0  0  0  0  0  0
   10.7670    6.5950   23.6310 O   0  0  0  0  0  0  0  0  0  0  0  0
    2.2510    0.4230   23.8200 O   0  0  0  0  0  0  0  0  0  0  0  0
    1.1240    2.6060   24.5630 C   0  0  0  0  0  0  0  0  0  0  0  0
   11.7720    6.5560   24.6500 C   0  0  0  0  0  0  0  0  0  0  0  0
    1.4960    3.7930   25.2160 C   0  0  0  0  0  0  0  0  0  0  0  0
   -0.1720    2.0900   24.5540 C   0  0  0  0  0  0  0  0  0  0  0  0
    2.7630    4.2390   25.1890 F   0  0  0  0  0  0  0  0  0  0  0  0
   -1.1740    2.7740   25.2250 C   0  0  0  0  0  0  0  0  0  0  0  0
    0.5610    4.5590   25.9220 C   0  0  0  0  0  0  0  0  0  0  0  0
   -0.9030    4.0760   25.9730 C   0  0  0  0  0  0  0  0  0  0  0  0
  1  2  1  0
  2  3  2  0
  1  4  1  0
  1  5  1  0
  2  6  1  0
  4  7  1  6
  4  8  1  0
  5  9  2  0
  5 10  1  0
  6 11  1  0
  7 12  1  0
  7 13  2  0
  8 14  1  0
  8 15  2  0
  9 16  1  0
 10 17  2  0
 14 18  1  0
 15 19  1  0
 14 20  2  0
 12 21  1  0
 16 22  2  0
 17 22  1  0
 22 23  1  0
 18 24  1  0
 19 25  2  0
 20 25  1  0
 21 26  2  0
 21 27  1  0
 23 28  1  0
 26 29  1  0
 23 30  1  1
 24 31  1  0
 26 32  1  0
 27 33  2  0
 28 34  1  0
 33 35  1  0
 31 36  1  0
 32 37  2  0
 33 37  1  0
 37 38  1  0
 36 39  2  0
 36 40  1  0
 38 41  1  0
 40 42  2  0
 40 43  1  0
 42 44  1  0
 43 45  2  0
 42 46  1  0
 45 47  1  0
 46 47  2  0
M  END
