x2776-x1311
     RDKit          3D

 48 52  0  0  0  0  0  0  0  0999 V2000
    6.7730   -1.3040   22.0140 N   0  0  0  0  0  0  0  0  0  0  0  0
    6.0710   -2.5820   21.6100 C   0  0  0  0  0  0  0  0  0  0  0  0
    4.8170   -2.9930   21.2530 O   0  0  0  0  0  0  0  0  0  0  0  0
    6.5170    0.1280   21.6360 C   0  0  1  0  0  0  0  0  0  0  0  0
    8.1070   -1.4390   22.5490 C   0  0  0  0  0  0  0  0  0  0  0  0
    7.1630   -3.6180   21.6490 C   0  0  2  0  0  0  0  0  0  0  0  0
    7.7590    1.0840   21.8300 C   0  0  0  0  0  0  0  0  0  0  0  0
    6.0350    0.5000   20.2730 C   0  0  0  0  0  0  0  0  0  0  0  0
    9.1880   -1.4910   21.6360 C   0  0  0  0  0  0  0  0  0  0  0  0
    8.3110   -1.5180   23.9550 C   0  0  0  0  0  0  0  0  0  0  0  0
    7.0100   -4.6240   20.5140 C   0  0  0  0  0  0  0  0  0  0  0  0
    7.7560    1.9630   23.0100 N   0  0  0  0  0  0  0  0  0  0  0  0
    8.6630    1.1400   21.0020 O   0  0  0  0  0  0  0  0  0  0  0  0
    4.9070    1.3010   20.0990 C   0  0  0  0  0  0  0  0  0  0  0  0
    6.7770    0.0470   19.0300 C   0  0  0  0  0  0  0  0  0  0  0  0
   10.5020   -1.6300   22.0770 C   0  0  0  0  0  0  0  0  0  0  0  0
    9.5910   -1.6550   24.5080 C   0  0  0  0  0  0  0  0  0  0  0  0
    7.6300   -4.1630   23.0620 C   0  0  0  0  0  0  0  0  0  0  0  0
    6.3610    0.4240   17.7920 N   0  0  0  0  0  0  0  0  0  0  0  0
    4.4970    1.6740   18.8580 C   0  0  0  0  0  0  0  0  0  0  0  0
    8.4830    3.1740   23.1760 C   0  0  0  0  0  0  0  0  0  0  0  0
   10.7880   -1.7230   23.5750 C   0  0  0  0  0  0  0  0  0  0  0  0
    8.9250   -4.5810   23.1840 C   0  0  0  0  0  0  0  0  0  0  0  0
    6.8480   -4.2620   24.2510 C   0  0  0  0  0  0  0  0  0  0  0  0
   12.2180   -1.8690   24.0240 C   0  0  2  0  0  0  0  0  0  0  0  0
    5.1800    1.2760   17.7170 C   0  0  0  0  0  0  0  0  0  0  0  0
    9.8250    3.1020   23.6250 C   0  0  0  0  0  0  0  0  0  0  0  0
    7.9280    4.4480   22.9160 C   0  0  0  0  0  0  0  0  0  0  0  0
    9.5420   -5.1400   24.4500 C   0  0  0  0  0  0  0  0  0  0  0  0
    7.4480   -4.7770   25.4020 C   0  0  0  0  0  0  0  0  0  0  0  0
    5.3920   -3.8720   24.4340 C   0  0  0  0  0  0  0  0  0  0  0  0
   12.1950   -2.6470   25.2150 O   0  0  0  0  0  0  0  0  0  0  0  0
   10.4960    1.7890   23.9200 C   0  0  0  0  0  0  0  0  0  0  0  0
   12.8530   -0.6700   24.2920 C   0  0  0  0  0  0  0  0  0  0  0  0
   10.5740    4.2800   23.8110 C   0  0  0  0  0  0  0  0  0  0  0  0
    8.7060    5.5850   23.1190 C   0  0  0  0  0  0  0  0  0  0  0  0
    8.7710   -5.2250   25.5390 C   0  0  0  0  0  0  0  0  0  0  0  0
    4.4540   -4.7430   23.6200 C   0  0  1  0  0  0  0  0  0  0  0  0
   13.4600   -3.1690   25.5420 C   0  0  0  0  0  0  0  0  0  0  0  0
   10.0190    5.5370   23.5660 C   0  0  0  0  0  0  0  0  0  0  0  0
    5.1560   -5.3710   22.6100 C   0  0  0  0  0  0  0  0  0  0  0  0
    3.6290   -6.0830   24.5330 S   0  0  0  0  0  0  0  0  0  0  0  0
   10.8470    6.6070   23.8000 O   0  0  0  0  0  0  0  0  0  0  0  0
    4.5170   -6.6120   25.5430 O   0  0  0  0  0  0  0  0  0  0  0  0
    2.2710   -5.7120   24.8530 O   0  0  0  0  0  0  0  0  0  0  0  0
    4.5190   -6.5310   22.3290 C   0  0  0  0  0  0  0  0  0  0  0  0
    3.6510   -7.0660   23.2140 C   0  0  0  0  0  0  0  0  0  0  0  0
   11.8010    6.4930   24.8570 C   0  0  0  0  0  0  0  0  0  0  0  0
  1  2  1  0
  2  3  2  0
  1  4  1  0
  1  5  1  0
  2  6  1  0
  4  7  1  6
  4  8  1  0
  5  9  2  0
  5 10  1  0
  6 11  1  6
  7 12  1  0
  7 13  2  0
  8 14  2  0
  8 15  1  0
  9 16  1  0
 10 17  2  0
  6 18  1  0
 15 19  2  0
 14 20  1  0
 12 21  1  0
 16 22  2  0
 17 22  1  0
 18 23  2  0
 18 24  1  0
 22 25  1  0
 19 26  1  0
 20 26  2  0
 21 27  2  0
 21 28  1  0
 23 29  1  0
 24 30  2  0
 24 31  1  0
 25 32  1  0
 27 33  1  0
 25 34  1  1
 27 35  1  0
 28 36  2  0
 29 37  2  0
 30 37  1  0
 38 31  1  1
 32 39  1  0
 35 40  2  0
 36 40  1  0
 38 41  1  0
 38 42  1  0
 40 43  1  0
 42 44  1  0
 42 45  1  0
 41 46  1  0
 42 47  1  0
 46 47  2  0
 43 48  1  0
M  END
