x2776-x0540
     RDKit          3D

 46 49  0  0  0  0  0  0  0  0999 V2000
    6.9790   -1.6680   21.7710 N   0  0  0  0  0  0  0  0  0  0  0  0
    6.0890   -2.8570   21.5220 C   0  0  0  0  0  0  0  0  0  0  0  0
    4.8520   -3.0050   21.1130 O   0  0  0  0  0  0  0  0  0  0  0  0
    6.7240   -0.2330   21.4830 C   0  0  1  0  0  0  0  0  0  0  0  0
    8.2610   -1.7300   22.4290 C   0  0  0  0  0  0  0  0  0  0  0  0
    6.7530   -4.1820   21.7820 C   0  0  0  0  0  0  0  0  0  0  0  0
    7.9380    0.7360   21.8260 C   0  0  0  0  0  0  0  0  0  0  0  0
    6.2280    0.2110   20.1400 C   0  0  0  0  0  0  0  0  0  0  0  0
    9.3650   -2.1770   21.7120 C   0  0  0  0  0  0  0  0  0  0  0  0
    8.4500   -1.3260   23.7610 C   0  0  0  0  0  0  0  0  0  0  0  0
    6.7210   -4.9860   20.4760 C   0  0  0  0  0  0  0  0  0  0  0  0
    7.6710    1.8550   22.7770 N   0  0  0  0  0  0  0  0  0  0  0  0
    9.0310    0.5880   21.3170 O   0  0  0  0  0  0  0  0  0  0  0  0
    4.9370    0.9450   20.1530 C   0  0  0  0  0  0  0  0  0  0  0  0
    6.8440    0.0260   18.9310 C   0  0  0  0  0  0  0  0  0  0  0  0
   10.6440   -2.2230   22.2430 C   0  0  0  0  0  0  0  0  0  0  0  0
    9.8180   -1.3590   24.3840 C   0  0  0  0  0  0  0  0  0  0  0  0
    4.1190    1.2340   21.3760 C   0  0  0  0  0  0  0  0  0  0  0  0
    6.3640    0.4820   17.7510 N   0  0  0  0  0  0  0  0  0  0  0  0
    4.4720    1.3980   18.9240 C   0  0  0  0  0  0  0  0  0  0  0  0
    8.4820    3.0200   23.0330 C   0  0  0  0  0  0  0  0  0  0  0  0
   10.9070   -1.7880   23.6510 C   0  0  0  0  0  0  0  0  0  0  0  0
   12.3220   -1.8460   24.1250 C   0  0  2  0  0  0  0  0  0  0  0  0
    4.8680    1.9530   22.2920 C   0  0  0  0  0  0  0  0  0  0  0  0
    5.2010    1.1550   17.7810 C   0  0  0  0  0  0  0  0  0  0  0  0
    9.8130    2.9530   23.5410 C   0  0  0  0  0  0  0  0  0  0  0  0
    7.9080    4.2820   22.7690 C   0  0  0  0  0  0  0  0  0  0  0  0
   12.3730   -2.7090   25.2390 O   0  0  0  0  0  0  0  0  0  0  0  0
   10.4990    1.7450   23.8420 C   0  0  0  0  0  0  0  0  0  0  0  0
   12.8460   -0.6150   24.4550 C   0  0  0  0  0  0  0  0  0  0  0  0
    3.9790    2.9420   22.8740 N   0  0  0  0  0  0  0  0  0  0  0  0
   10.5590    4.1250   23.7880 C   0  0  0  0  0  0  0  0  0  0  0  0
    8.6280    5.4710   23.0110 C   0  0  0  0  0  0  0  0  0  0  0  0
   13.7020   -3.0180   25.5490 C   0  0  0  0  0  0  0  0  0  0  0  0
    2.8120    2.5160   23.6130 C   0  0  0  0  0  0  0  0  0  0  0  0
   10.0540    5.3960   23.5640 C   0  0  0  0  0  0  0  0  0  0  0  0
   10.7000    6.5920   23.7850 O   0  0  0  0  0  0  0  0  0  0  0  0
    2.8290    1.4580   24.5670 O   0  0  0  0  0  0  0  0  0  0  0  0
    1.6490    3.3290   23.2330 N   0  0  0  0  0  0  0  0  0  0  0  0
   11.7900    6.5800   24.7100 C   0  0  0  0  0  0  0  0  0  0  0  0
    0.4130    3.2410   23.9890 C   0  0  0  0  0  0  0  0  0  0  0  0
    0.3550    4.4600   24.9300 C   0  0  0  0  0  0  0  0  0  0  0  0
   -0.6580    2.9840   23.1310 C   0  0  0  0  0  0  0  0  0  0  0  0
   -0.7060    5.2950   24.6850 C   0  0  0  0  0  0  0  0  0  0  0  0
   -1.8770    3.3340   23.7130 C   0  0  0  0  0  0  0  0  0  0  0  0
   -1.8810    4.5060   24.6600 C   0  0  0  0  0  0  0  0  0  0  0  0
  1  2  1  0
  2  3  2  0
  1  4  1  0
  1  5  1  0
  2  6  1  0
  4  7  1  6
  4  8  1  0
  5  9  2  0
  5 10  1  0
  6 11  1  0
  7 12  1  0
  7 13  2  0
  8 14  1  0
  8 15  2  0
  9 16  1  0
 10 17  2  0
 14 18  1  0
 15 19  1  0
 14 20  2  0
 12 21  1  0
 16 22  2  0
 17 22  1  0
 22 23  1  0
 18 24  1  0
 19 25  2  0
 20 25  1  0
 21 26  2  0
 21 27  1  0
 23 28  1  0
 26 29  1  0
 23 30  1  1
 24 31  1  0
 26 32  1  0
 27 33  2  0
 28 34  1  0
 31 35  1  0
 32 36  2  0
 33 36  1  0
 36 37  1  0
 35 38  2  0
 35 39  1  0
 37 40  1  0
 39 41  1  0
 41 42  1  0
 41 43  1  0
 42 44  1  0
 43 45  1  0
 44 46  1  0
 45 46  1  0
M  END
