x2776-x2703-x1458
     RDKit          3D

 49 53  0  0  0  0  0  0  0  0999 V2000
    6.8930   -1.5160   21.8680 C   0  0  1  0  0  0  0  0  0  0  0  0
    6.0670   -2.8620   21.2920 C   0  0  0  0  0  0  0  0  0  0  0  0
    4.8810   -2.9870   20.8010 O   0  0  0  0  0  0  0  0  0  0  0  0
    6.5650   -0.0050   21.6250 C   0  0  1  0  0  0  0  0  0  0  0  0
    6.4440   -2.1980   23.1220 C   0  0  0  0  0  0  0  0  0  0  0  0
    8.4040   -1.5730   22.3060 C   0  0  0  0  0  0  0  0  0  0  0  0
    7.6080    1.0220   21.8030 C   0  0  0  0  0  0  0  0  0  0  0  0
    6.1210    0.3820   20.2360 C   0  0  0  0  0  0  0  0  0  0  0  0
    9.4020   -1.9640   21.5040 C   0  0  0  0  0  0  0  0  0  0  0  0
    8.6400   -1.1900   23.6300 C   0  0  0  0  0  0  0  0  0  0  0  0
    6.8240   -4.1540   21.5820 C   0  0  2  0  0  0  0  0  0  0  0  0
    7.4080   -3.4100   22.8410 C   0  0  2  0  0  0  0  0  0  0  0  0
    6.6940   -3.7610   20.0700 C   0  0  0  0  0  0  0  0  0  0  0  0
    7.5060    1.7710   22.7270 N   0  0  0  0  0  0  0  0  0  0  0  0
    8.5850    1.2280   21.0550 O   0  0  0  0  0  0  0  0  0  0  0  0
    5.0090    1.2070   20.1040 C   0  0  0  0  0  0  0  0  0  0  0  0
    6.8270   -0.0670   19.1050 C   0  0  0  0  0  0  0  0  0  0  0  0
   10.8640   -2.0360   21.9560 C   0  0  0  0  0  0  0  0  0  0  0  0
   10.0640   -1.2300   24.1680 C   0  0  0  0  0  0  0  0  0  0  0  0
    7.6010   -4.2500   23.8950 C   0  0  0  0  0  0  0  0  0  0  0  0
    6.0840   -5.4300   22.0350 C   0  0  0  0  0  0  0  0  0  0  0  0
    6.4100    0.3310   17.8620 N   0  0  0  0  0  0  0  0  0  0  0  0
    4.5670    1.6210   18.8690 C   0  0  0  0  0  0  0  0  0  0  0  0
    8.3630    3.0070   22.9800 C   0  0  0  0  0  0  0  0  0  0  0  0
   11.1220   -1.6340   23.3820 C   0  0  0  0  0  0  0  0  0  0  0  0
    6.5030   -4.8960   24.3780 C   0  0  2  0  0  0  0  0  0  0  0  0
    5.5470   -5.2730   23.4300 C   0  0  0  0  0  0  0  0  0  0  0  0
   12.4970   -1.6750   23.9140 C   0  0  2  0  0  0  0  0  0  0  0  0
    5.8490   -4.0510   25.4810 C   0  0  0  0  0  0  0  0  0  0  0  0
    5.2380    1.2060   17.8050 C   0  0  0  0  0  0  0  0  0  0  0  0
    9.6100    2.9380   23.6350 C   0  0  0  0  0  0  0  0  0  0  0  0
    7.8960    4.2780   22.5590 C   0  0  0  0  0  0  0  0  0  0  0  0
   12.4610   -2.4050   25.1290 O   0  0  0  0  0  0  0  0  0  0  0  0
   10.0560    1.6710   24.0720 C   0  0  0  0  0  0  0  0  0  0  0  0
   12.8980   -0.4000   24.1970 C   0  0  0  0  0  0  0  0  0  0  0  0
    6.5380    4.4320   21.8440 C   0  0  0  0  0  0  0  0  0  0  0  0
    6.5100   -3.8070   26.7870 N   0  0  0  0  0  0  0  0  0  0  0  0
    4.5760   -3.4710   25.2370 O   0  0  0  0  0  0  0  0  0  0  0  0
   10.4240    4.2410   23.8600 C   0  0  0  0  0  0  0  0  0  0  0  0
    8.6530    5.4650   22.7840 C   0  0  0  0  0  0  0  0  0  0  0  0
   13.7100   -2.9260   25.4790 C   0  0  0  0  0  0  0  0  0  0  0  0
    9.2220    1.2360   25.1100 C   0  0  0  0  0  0  0  0  0  0  0  0
    7.0130   -5.0220   27.5290 C   0  0  0  0  0  0  0  0  0  0  0  0
    5.8700   -2.8070   27.6480 C   0  0  0  0  0  0  0  0  0  0  0  0
    9.8960    5.4240   23.4300 C   0  0  0  0  0  0  0  0  0  0  0  0
   10.6560    6.6310   23.6620 O   0  0  0  0  0  0  0  0  0  0  0  0
    8.2010   -5.7540   26.9000 C   0  0  0  0  0  0  0  0  0  0  0  0
    5.8590   -5.9890   27.8380 C   0  0  0  0  0  0  0  0  0  0  0  0
   11.7160    6.5760   24.6300 C   0  0  0  0  0  0  0  0  0  0  0  0
  1  2  1  0
  2  3  2  0
  1  4  1  0
  1  5  1  0
  1  6  1  1
  4  7  1  6
  4  8  1  0
  6  9  2  0
  6 10  1  0
  2 11  1  0
 12  5  1  1
 11 12  1  0
 11 13  1  6
  7 14  1  0
  7 15  2  0
  8 16  2  0
  8 17  1  0
  9 18  1  0
 10 19  2  0
 12 20  1  0
 11 21  1  0
 17 22  2  0
 16 23  1  0
 14 24  1  0
 18 25  2  0
 19 25  1  0
 20 26  1  0
 21 27  1  0
 26 27  1  0
 25 28  1  0
 26 29  1  1
 22 30  1  0
 23 30  2  0
 24 31  2  0
 24 32  1  0
 28 33  1  0
 31 34  1  0
 28 35  1  1
 32 36  1  0
 29 37  1  0
 29 38  2  0
 31 39  1  0
 32 40  2  0
 33 41  1  0
 34 42  1  0
 37 43  1  0
 37 44  1  0
 39 45  2  0
 40 45  1  0
 45 46  1  0
 43 47  1  0
 43 48  1  0
 46 49  1  0
M  END
