x2779-x0978
     RDKit          3D

 27 28  0  0  0  0  0  0  0  0999 V2000
    1.9030   -5.6810   23.2830 N   0  0  0  0  0  0  0  0  0  0  0  0
    3.2050   -6.3810   23.3020 C   0  0  2  0  0  0  0  0  0  0  0  0
    3.3350   -7.2700   24.5420 C   0  0  1  0  0  0  0  0  0  0  0  0
    0.7360   -6.2200   22.5260 C   0  0  0  0  0  0  0  0  0  0  0  0
    0.7630   -7.2640   21.8730 O   0  0  0  0  0  0  0  0  0  0  0  0
   -0.5500   -5.3350   22.6270 C   0  0  0  0  0  0  0  0  0  0  0  0
    4.3370   -5.3450   23.0800 C   0  0  0  0  0  0  0  0  0  0  0  0
    2.1140   -8.1900   24.5700 C   0  0  0  0  0  0  0  0  0  0  0  0
    4.3850   -7.8290   24.8000 O   0  0  0  0  0  0  0  0  0  0  0  0
    5.6870   -5.8380   22.7630 N   0  0  0  0  0  0  0  0  0  0  0  0
    4.0900   -4.1460   23.1760 O   0  0  0  0  0  0  0  0  0  0  0  0
    6.5130   -5.0920   21.9330 C   0  0  0  0  0  0  0  0  0  0  0  0
    6.7220   -3.5740   22.3180 C   0  0  2  0  0  0  0  0  0  0  0  0
    6.8680   -2.7360   21.1090 N   0  0  0  0  0  0  0  0  0  0  0  0
    7.8990   -3.4830   23.1210 C   0  0  0  0  0  0  0  0  0  0  0  0
    6.4860   -3.2690   19.8540 C   0  0  0  0  0  0  0  0  0  0  0  0
    7.5220   -1.5350   21.2970 C   0  0  0  0  0  0  0  0  0  0  0  0
    8.6350   -2.3410   22.9530 N   0  0  0  0  0  0  0  0  0  0  0  0
    7.4050   -2.9780   18.6880 C   0  0  0  0  0  0  0  0  0  0  0  0
    5.4730   -3.9700   19.6800 O   0  0  0  0  0  0  0  0  0  0  0  0
   10.0390   -2.6260   23.3220 C   0  0  0  0  0  0  0  0  0  0  0  0
    8.7980   -1.9920   21.6390 C   0  0  0  0  0  0  0  0  0  0  0  0
   10.8610   -1.5740   23.4290 C   0  0  0  0  0  0  0  0  0  0  0  0
   11.9620   -1.4660   22.6620 C   0  0  0  0  0  0  0  0  0  0  0  0
   10.6940   -0.1590   24.5480 S   0  0  0  0  0  0  0  0  0  0  0  0
   12.1220    0.5410   23.9270 C   0  0  0  0  0  0  0  0  0  0  0  0
   12.7350   -0.3760   22.8250 C   0  0  0  0  0  0  0  0  0  0  0  0
  2  1  1  1
  2  3  1  0
  1  4  1  0
  4  5  2  0
  4  6  1  0
  2  7  1  0
  3  8  1  6
  3  9  1  0
  7 10  1  0
  7 11  2  0
 10 12  1  0
 13 12  1  6
 13 14  1  0
 13 15  1  0
 14 16  1  0
 14 17  1  0
 15 18  1  0
 16 19  1  0
 16 20  2  0
 18 21  1  0
 17 22  1  0
 18 22  1  0
 21 23  1  0
 23 24  2  0
 23 25  1  0
 25 26  1  0
 24 27  1  0
 26 27  2  0
M  END
