x2776-x2608-x1402
     RDKit          3D

 53 57  0  0  0  0  0  0  0  0999 V2000
    6.7100   -1.3720   21.8290 N   0  0  0  0  0  0  0  0  0  0  0  0
    5.7530   -2.4270   21.2940 C   0  0  0  0  0  0  0  0  0  0  0  0
    4.6630   -3.0680   21.6770 O   0  0  0  0  0  0  0  0  0  0  0  0
    6.1550    0.0470   21.6200 C   0  0  1  0  0  0  0  0  0  0  0  0
    7.6590   -1.6560   22.9890 C   0  0  1  0  0  0  0  0  0  0  0  0
    6.0300   -2.8910   19.9750 C   0  0  0  0  0  0  0  0  0  0  0  0
    7.0620    0.9240   22.5400 C   0  0  0  0  0  0  0  0  0  0  0  0
    5.9770    0.4440   20.1870 C   0  0  0  0  0  0  0  0  0  0  0  0
    9.1150   -2.0420   23.1700 C   0  0  2  0  0  0  0  0  0  0  0  0
    7.4050   -1.0430   24.1960 C   0  0  0  0  0  0  0  0  0  0  0  0
    6.4490   -4.3250   20.1550 C   0  0  0  0  0  0  0  0  0  0  0  0
    7.2910    2.2020   22.1280 N   0  0  0  0  0  0  0  0  0  0  0  0
    4.8820    1.2590   19.9970 C   0  0  0  0  0  0  0  0  0  0  0  0
    6.8040    0.0650   19.1080 C   0  0  0  0  0  0  0  0  0  0  0  0
    8.9480   -2.7160   24.3720 C   0  0  0  0  0  0  0  0  0  0  0  0
   10.4710   -1.4330   23.0220 C   0  0  2  0  0  0  0  0  0  0  0  0
    7.9260   -2.1600   25.0110 C   0  0  0  0  0  0  0  0  0  0  0  0
   11.3220   -2.3730   23.9640 C   0  0  0  0  0  0  0  0  0  0  0  0
    6.4180    0.6090   17.7560 N   0  0  0  0  0  0  0  0  0  0  0  0
    4.5700    1.7250   18.7770 C   0  0  0  0  0  0  0  0  0  0  0  0
    7.8460    2.9960   23.1330 C   0  0  0  0  0  0  0  0  0  0  0  0
   10.9740    0.0310   23.2240 C   0  0  1  0  0  0  0  0  0  0  0  0
    6.2890   -4.8910   21.5520 N   0  0  0  0  0  0  0  0  0  0  0  0
   12.7320   -2.1320   23.8910 O   0  0  0  0  0  0  0  0  0  0  0  0
   12.4890    0.2650   23.1970 C   0  0  0  0  0  0  0  0  0  0  0  0
    5.3110    1.4190   17.6820 C   0  0  0  0  0  0  0  0  0  0  0  0
    8.0280    4.3560   22.8010 C   0  0  0  0  0  0  0  0  0  0  0  0
   10.3090    1.3990   22.5740 S   0  0  0  0  0  0  0  0  0  0  0  0
    7.1290   -5.0630   22.7480 C   0  0  1  0  0  0  0  0  0  0  0  0
    5.5360   -6.1130   21.7030 C   0  0  0  0  0  0  0  0  0  0  0  0
    9.2490    1.7330   21.4820 O   0  0  0  0  0  0  0  0  0  0  0  0
   10.4600    3.1410   22.7620 C   0  0  0  0  0  0  0  0  0  0  0  0
   13.3540   -2.6780   25.0440 C   0  0  0  0  0  0  0  0  0  0  0  0
    8.5720   -4.7780   22.5890 C   0  0  0  0  0  0  0  0  0  0  0  0
    8.5890    5.4150   23.6250 C   0  0  0  0  0  0  0  0  0  0  0  0
    9.5110    0.2200   21.7230 C   0  0  0  0  0  0  0  0  0  0  0  0
    6.4330   -4.5130   23.8450 C   0  0  0  0  0  0  0  0  0  0  0  0
    4.6330   -6.0190   22.9490 C   0  0  0  0  0  0  0  0  0  0  0  0
   11.4550    3.5380   23.7700 C   0  0  0  0  0  0  0  0  0  0  0  0
    9.9250    5.6870   23.3190 C   0  0  1  0  0  0  0  0  0  0  0  0
    5.4300   -5.5460   24.1240 N   0  0  0  0  0  0  0  0  0  0  0  0
   10.0240    7.0470   23.8110 O   0  0  0  0  0  0  0  0  0  0  0  0
    4.8060   -5.5870   25.7070 S   0  0  0  0  0  0  0  0  0  0  0  0
   11.0300    4.8440   23.9370 C   0  0  0  0  0  0  0  0  0  0  0  0
   11.1740    7.3640   24.6140 C   0  0  0  0  0  0  0  0  0  0  0  0
    3.8570   -6.6760   25.6650 O   0  0  0  0  0  0  0  0  0  0  0  0
    5.9050   -5.5730   26.6340 O   0  0  0  0  0  0  0  0  0  0  0  0
    3.9120   -4.0640   25.8570 C   0  0  0  0  0  0  0  0  0  0  0  0
    2.2240   -3.7650   25.8470 S   0  0  0  0  0  0  0  0  0  0  0  0
    4.5620   -2.6770   26.0310 C   0  0  0  0  0  0  0  0  0  0  0  0
    3.5490   -1.5600   26.1360 C   0  0  0  0  0  0  0  0  0  0  0  0
    2.1170   -2.0660   26.0470 C   0  0  0  0  0  0  0  0  0  0  0  0
    0.7600   -1.0230   26.1490 Cl  0  0  0  0  0  0  0  0  0  0  0  0
  1  2  1  0
  2  3  2  0
  1  4  1  0
  1  5  1  0
  2  6  1  0
  4  7  1  0
  4  8  1  6
  5  9  1  0
  5 10  1  1
  6 11  1  0
  7 12  1  0
  8 13  2  0
  8 14  1  0
  9 15  1  1
  9 16  1  0
 10 17  1  0
 15 17  2  0
 16 18  1  1
 14 19  2  0
 13 20  1  0
 12 21  1  0
 16 22  1  0
 11 23  1  0
 18 24  1  0
 22 25  1  6
 19 26  1  0
 20 26  2  0
 21 27  2  0
 22 28  1  0
 23 29  1  0
 23 30  1  0
 28 31  1  0
 28 32  2  0
 24 33  1  0
 29 34  1  6
 27 35  1  0
 28 36  1  0
 29 37  1  0
 30 38  1  0
 32 39  1  0
 35 40  1  0
 37 41  1  0
 38 41  1  0
 40 42  1  1
 41 43  1  0
 39 44  2  0
 40 44  1  0
 42 45  1  0
 43 46  2  0
 43 47  2  0
 43 48  1  0
 48 49  1  0
 48 50  2  0
 50 51  1  0
 49 52  1  0
 51 52  2  0
 52 53  1  0
M  END
