x2776-x0161
     RDKit          3D

 41 44  0  0  0  0  0  0  0  0999 V2000
    6.7670   -1.4760   21.9400 N   0  0  0  0  0  0  0  0  0  0  0  0
    6.0030   -2.7250   21.5980 C   0  0  0  0  0  0  0  0  0  0  0  0
    4.7890   -2.9600   21.1850 O   0  0  0  0  0  0  0  0  0  0  0  0
    6.4430   -0.0120   21.7530 C   0  0  1  0  0  0  0  0  0  0  0  0
    8.0730   -1.6210   22.5400 C   0  0  0  0  0  0  0  0  0  0  0  0
    6.7820   -4.0070   21.7620 C   0  0  0  0  0  0  0  0  0  0  0  0
    7.6210    1.0310   22.0140 C   0  0  0  0  0  0  0  0  0  0  0  0
    6.0820    0.3770   20.3270 C   0  0  0  0  0  0  0  0  0  0  0  0
    9.2620   -1.8990   21.6680 C   0  0  0  0  0  0  0  0  0  0  0  0
    8.3210   -1.4960   23.9030 C   0  0  0  0  0  0  0  0  0  0  0  0
    6.7010   -4.7830   20.4420 C   0  0  0  0  0  0  0  0  0  0  0  0
    7.3520    2.1070   23.0340 N   0  0  0  0  0  0  0  0  0  0  0  0
    8.6740    0.9700   21.3820 O   0  0  0  0  0  0  0  0  0  0  0  0
    4.9920    1.1770   20.0870 C   0  0  0  0  0  0  0  0  0  0  0  0
    6.7300    0.0460   19.1950 C   0  0  0  0  0  0  0  0  0  0  0  0
   10.5310   -2.0080   22.1710 C   0  0  0  0  0  0  0  0  0  0  0  0
    9.7440   -1.6190   24.4500 C   0  0  0  0  0  0  0  0  0  0  0  0
    6.3450    0.4840   17.8390 N   0  0  0  0  0  0  0  0  0  0  0  0
    4.6110    1.5980   18.8320 C   0  0  0  0  0  0  0  0  0  0  0  0
    7.9700    3.4140   23.2440 C   0  0  0  0  0  0  0  0  0  0  0  0
   10.7620   -1.8630   23.5300 C   0  0  0  0  0  0  0  0  0  0  0  0
   12.2140   -1.9700   23.9120 C   0  0  2  0  0  0  0  0  0  0  0  0
    5.2970    1.2470   17.7540 C   0  0  0  0  0  0  0  0  0  0  0  0
    8.5070    3.8260   24.6050 C   0  0  0  0  0  0  0  0  0  0  0  0
    8.0850    4.3470   22.2040 C   0  0  0  0  0  0  0  0  0  0  0  0
   12.4870   -2.1490   25.2880 O   0  0  0  0  0  0  0  0  0  0  0  0
   12.8770   -0.7000   23.2980 C   0  0  0  0  0  0  0  0  0  0  0  0
    9.1150    5.1100   24.7750 C   0  0  0  0  0  0  0  0  0  0  0  0
    8.6880    5.6060   22.4030 C   0  0  0  0  0  0  0  0  0  0  0  0
   13.6610   -2.8990   25.4900 C   0  0  0  0  0  0  0  0  0  0  0  0
   13.8530   -0.8400   22.5860 O   0  0  0  0  0  0  0  0  0  0  0  0
    9.6010    5.5580   25.9580 O   0  0  0  0  0  0  0  0  0  0  0  0
    9.2310    5.9660   23.7440 C   0  0  0  0  0  0  0  0  0  0  0  0
   12.3270    0.7000   23.3790 C   0  0  0  0  0  0  0  0  0  0  0  0
    9.8940    7.2210   23.9930 O   0  0  0  0  0  0  0  0  0  0  0  0
   13.0080    1.7600   22.9150 C   0  0  0  0  0  0  0  0  0  0  0  0
   11.0820    0.9360   23.9250 C   0  0  0  0  0  0  0  0  0  0  0  0
   11.2340    7.0380   24.4950 C   0  0  0  0  0  0  0  0  0  0  0  0
   12.4110    3.1530   22.9700 C   0  0  0  0  0  0  0  0  0  0  0  0
   10.5330    2.1930   23.9870 C   0  0  0  0  0  0  0  0  0  0  0  0
   11.1810    3.3620   23.5010 C   0  0  0  0  0  0  0  0  0  0  0  0
  1  2  1  0
  2  3  2  0
  1  4  1  0
  1  5  1  0
  2  6  1  0
  4  7  1  6
  4  8  1  0
  5  9  2  0
  5 10  1  0
  6 11  1  0
  7 12  1  0
  7 13  2  0
  8 14  2  0
  8 15  1  0
  9 16  1  0
 10 17  2  0
 15 18  2  0
 14 19  1  0
 12 20  1  0
 16 21  2  0
 17 21  1  0
 21 22  1  0
 18 23  1  0
 19 23  2  0
 20 24  2  0
 20 25  1  0
 22 26  1  1
 22 27  1  0
 24 28  1  0
 25 29  2  0
 26 30  1  0
 27 31  2  0
 28 32  1  0
 28 33  2  0
 29 33  1  0
 27 34  1  0
 33 35  1  0
 34 36  2  0
 34 37  1  0
 35 38  1  0
 36 39  1  0
 37 40  2  0
 39 41  2  0
 40 41  1  0
M  END
