x2776-x0978-x2703
     RDKit          3D

 47 49  0  0  0  0  0  0  0  0999 V2000
    6.8600   -1.7540   21.9150 N   0  0  0  0  0  0  0  0  0  0  0  0
    6.0070   -3.0130   21.6250 C   0  0  0  0  0  0  0  0  0  0  0  0
    4.7810   -2.9890   21.2610 O   0  0  0  0  0  0  0  0  0  0  0  0
    6.5660   -0.2850   21.6380 C   0  0  1  0  0  0  0  0  0  0  0  0
    8.1470   -1.8090   22.4980 C   0  0  0  0  0  0  0  0  0  0  0  0
    6.4390   -4.4190   21.6410 C   0  0  2  0  0  0  0  0  0  0  0  0
    7.7550    0.7400   21.8610 C   0  0  0  0  0  0  0  0  0  0  0  0
    6.1610    0.2120   20.2120 C   0  0  0  0  0  0  0  0  0  0  0  0
    9.3770   -2.2130   21.7020 C   0  0  0  0  0  0  0  0  0  0  0  0
    8.3390   -1.4700   23.7990 C   0  0  0  0  0  0  0  0  0  0  0  0
    6.3790   -4.8010   20.1650 C   0  0  0  0  0  0  0  0  0  0  0  0
    7.5090    1.9040   22.7800 N   0  0  0  0  0  0  0  0  0  0  0  0
    8.8230    0.5830   21.2840 O   0  0  0  0  0  0  0  0  0  0  0  0
    5.6340   -5.3290   22.4390 N   0  0  0  0  0  0  0  0  0  0  0  0
    5.0550    1.0030   20.1720 C   0  0  0  0  0  0  0  0  0  0  0  0
    6.8630   -0.0940   19.0390 C   0  0  0  0  0  0  0  0  0  0  0  0
   10.6010   -2.2320   22.2070 C   0  0  0  0  0  0  0  0  0  0  0  0
    9.6500   -1.4910   24.3400 C   0  0  0  0  0  0  0  0  0  0  0  0
    4.3250   -5.0860   23.1170 C   0  0  0  0  0  0  0  0  0  0  0  0
    6.4040    0.4380   17.8670 N   0  0  0  0  0  0  0  0  0  0  0  0
    4.6360    1.5090   18.9640 C   0  0  0  0  0  0  0  0  0  0  0  0
    8.3440    3.1370   22.9980 C   0  0  0  0  0  0  0  0  0  0  0  0
   10.8470   -1.8850   23.5130 C   0  0  0  0  0  0  0  0  0  0  0  0
   12.2440   -1.9090   24.0470 C   0  0  2  0  0  0  0  0  0  0  0  0
    3.4430   -6.1820   23.2950 C   0  0  2  0  0  0  0  0  0  0  0  0
    3.9980   -3.8530   23.5540 O   0  0  0  0  0  0  0  0  0  0  0  0
    5.3070    1.2390   17.7880 C   0  0  0  0  0  0  0  0  0  0  0  0
    9.5880    3.0190   23.6040 C   0  0  0  0  0  0  0  0  0  0  0  0
    7.9370    4.4130   22.6310 C   0  0  0  0  0  0  0  0  0  0  0  0
   12.3470   -2.6450   25.2390 O   0  0  0  0  0  0  0  0  0  0  0  0
   10.1290    1.6820   24.0490 C   0  0  0  0  0  0  0  0  0  0  0  0
   12.7170   -0.6720   24.2370 C   0  0  0  0  0  0  0  0  0  0  0  0
    6.5760    4.6500   21.9450 C   0  0  0  0  0  0  0  0  0  0  0  0
    2.1260   -5.4900   23.2210 N   0  0  0  0  0  0  0  0  0  0  0  0
    3.5670   -7.1060   24.3550 C   0  0  1  0  0  0  0  0  0  0  0  0
   10.3890    4.1580   23.8350 C   0  0  0  0  0  0  0  0  0  0  0  0
    8.7400    5.5470   22.8720 C   0  0  0  0  0  0  0  0  0  0  0  0
   13.7010   -2.9820   25.5130 C   0  0  0  0  0  0  0  0  0  0  0  0
    9.1770    1.1680   25.1090 C   0  0  0  0  0  0  0  0  0  0  0  0
    2.4620   -7.9590   24.5540 C   0  0  0  0  0  0  0  0  0  0  0  0
    4.5410   -7.8090   24.1950 O   0  0  0  0  0  0  0  0  0  0  0  0
    1.0160   -6.1380   22.6500 C   0  0  0  0  0  0  0  0  0  0  0  0
    9.9840    5.3910   23.4910 C   0  0  0  0  0  0  0  0  0  0  0  0
   10.7040    6.5640   23.6990 O   0  0  0  0  0  0  0  0  0  0  0  0
    1.1230   -7.2460   22.0960 O   0  0  0  0  0  0  0  0  0  0  0  0
   -0.2190   -5.4920   22.7220 C   0  0  0  0  0  0  0  0  0  0  0  0
   11.7560    6.5320   24.6670 C   0  0  0  0  0  0  0  0  0  0  0  0
  1  2  1  0
  2  3  2  0
  1  4  1  0
  1  5  1  0
  2  6  1  0
  4  7  1  6
  4  8  1  0
  5  9  2  0
  5 10  1  0
  6 11  1  6
  7 12  1  0
  7 13  2  0
  6 14  1  0
  8 15  2  0
  8 16  1  0
  9 17  1  0
 10 18  2  0
 14 19  1  0
 16 20  2  0
 15 21  1  0
 12 22  1  0
 17 23  2  0
 18 23  1  0
 23 24  1  0
 19 25  1  0
 19 26  2  0
 20 27  1  0
 21 27  2  0
 22 28  2  0
 22 29  1  0
 24 30  1  0
 28 31  1  0
 24 32  1  1
 29 33  1  0
 25 34  1  1
 25 35  1  0
 28 36  1  0
 29 37  2  0
 30 38  1  0
 31 39  1  0
 35 40  1  6
 35 41  1  0
 34 42  1  0
 36 43  2  0
 37 43  1  0
 43 44  1  0
 42 45  2  0
 42 46  1  0
 44 47  1  0
M  END
