x2776-x0755
     RDKit          3D

 53 58  0  0  0  0  0  0  0  0999 V2000
    6.5660   -1.3250   22.0690 C   0  0  1  0  0  0  0  0  0  0  0  0
    5.8070   -2.2500   21.0190 C   0  0  0  0  0  0  0  0  0  0  0  0
    4.6670   -2.8220   21.1360 O   0  0  0  0  0  0  0  0  0  0  0  0
    6.5210    0.1420   21.6590 C   0  0  1  0  0  0  0  0  0  0  0  0
    5.7290   -2.1440   23.0930 C   0  0  0  0  0  0  0  0  0  0  0  0
    8.0910   -1.5470   22.4830 C   0  0  0  0  0  0  0  0  0  0  0  0
    6.3810   -2.6320   19.8070 C   0  0  0  0  0  0  0  0  0  0  0  0
    7.8240    0.9780   21.9320 C   0  0  0  0  0  0  0  0  0  0  0  0
    5.2180   -3.4800   22.4900 C   0  0  0  0  0  0  0  0  0  0  0  0
    5.9830    0.5640   20.2340 C   0  0  0  0  0  0  0  0  0  0  0  0
    9.1020   -1.9380   21.5930 C   0  0  0  0  0  0  0  0  0  0  0  0
    8.4870   -1.3160   23.8000 C   0  0  0  0  0  0  0  0  0  0  0  0
    6.6260   -4.0660   20.1050 C   0  0  0  0  0  0  0  0  0  0  0  0
    7.6750    2.0110   22.8590 N   0  0  0  0  0  0  0  0  0  0  0  0
    8.8750    0.7520   21.3450 O   0  0  0  0  0  0  0  0  0  0  0  0
    4.7010    1.3470   20.0770 C   0  0  0  0  0  0  0  0  0  0  0  0
    6.7140    0.2290   19.0970 C   0  0  0  0  0  0  0  0  0  0  0  0
   10.4570   -2.0870   21.9940 C   0  0  0  0  0  0  0  0  0  0  0  0
    9.8800   -1.4480   24.2910 C   0  0  0  0  0  0  0  0  0  0  0  0
    6.3050   -4.4270   21.7140 C   0  0  0  0  0  0  0  0  0  0  0  0
    6.3550    0.5710   17.8460 N   0  0  0  0  0  0  0  0  0  0  0  0
    4.3930    1.6670   18.7640 C   0  0  0  0  0  0  0  0  0  0  0  0
    8.4640    3.1810   23.0990 C   0  0  0  0  0  0  0  0  0  0  0  0
   10.8760   -1.8210   23.4330 C   0  0  0  0  0  0  0  0  0  0  0  0
    7.5030   -4.5770   22.6330 C   0  0  0  0  0  0  0  0  0  0  0  0
    5.7100   -5.8660   21.8750 C   0  0  0  0  0  0  0  0  0  0  0  0
   12.2910   -1.9390   23.9200 C   0  0  2  0  0  0  0  0  0  0  0  0
    5.2240    1.2720   17.7490 C   0  0  0  0  0  0  0  0  0  0  0  0
    9.8110    3.1000   23.5900 C   0  0  0  0  0  0  0  0  0  0  0  0
    7.9510    4.4630   22.8670 C   0  0  0  0  0  0  0  0  0  0  0  0
    7.1670   -4.8220   24.1020 C   0  0  0  0  0  0  0  0  0  0  0  0
    5.1100   -6.1490   23.2740 C   0  0  0  0  0  0  0  0  0  0  0  0
   12.3030   -2.7440   25.0870 O   0  0  0  0  0  0  0  0  0  0  0  0
   10.4340    1.7640   23.8640 C   0  0  0  0  0  0  0  0  0  0  0  0
   12.8680   -0.7250   24.2240 C   0  0  0  0  0  0  0  0  0  0  0  0
   10.5890    4.2610   23.8330 C   0  0  0  0  0  0  0  0  0  0  0  0
    8.6790    5.6160   23.0980 C   0  0  0  0  0  0  0  0  0  0  0  0
    5.7660   -5.3070   24.3280 N   0  0  0  0  0  0  0  0  0  0  0  0
   13.6240   -3.0450   25.4690 C   0  0  0  0  0  0  0  0  0  0  0  0
    5.0520   -5.2300   25.8950 S   0  0  0  0  0  0  0  0  0  0  0  0
   10.1070    5.5520   23.6250 C   0  0  0  0  0  0  0  0  0  0  0  0
   10.7670    6.7310   23.8430 O   0  0  0  0  0  0  0  0  0  0  0  0
    4.3050   -6.4540   26.0750 O   0  0  0  0  0  0  0  0  0  0  0  0
    6.0300   -4.8340   26.8690 O   0  0  0  0  0  0  0  0  0  0  0  0
    3.8510   -3.9300   25.8560 C   0  0  0  0  0  0  0  0  0  0  0  0
   11.8220    6.6990   24.8070 C   0  0  0  0  0  0  0  0  0  0  0  0
    2.4790   -4.1950   25.7060 C   0  0  0  0  0  0  0  0  0  0  0  0
    4.2590   -2.5540   25.9880 C   0  0  0  0  0  0  0  0  0  0  0  0
    2.0440   -5.4590   25.5800 F   0  0  0  0  0  0  0  0  0  0  0  0
    5.5420   -2.2080   26.1370 F   0  0  0  0  0  0  0  0  0  0  0  0
    3.3370   -1.5360   25.9700 C   0  0  0  0  0  0  0  0  0  0  0  0
    1.5110   -3.1960   25.6840 C   0  0  0  0  0  0  0  0  0  0  0  0
    1.8720   -1.8780   25.8110 C   0  0  0  0  0  0  0  0  0  0  0  0
  1  2  1  0
  2  3  2  0
  1  4  1  0
  1  5  1  0
  1  6  1  1
  2  7  1  0
  4  8  1  6
  5  9  1  0
  4 10  1  0
  6 11  2  0
  6 12  1  0
  7 13  1  0
  8 14  1  0
  8 15  2  0
 10 16  2  0
 10 17  1  0
 11 18  1  0
 12 19  2  0
 20  9  1  0
 13 20  1  0
 17 21  2  0
 16 22  1  0
 14 23  1  0
 18 24  2  0
 19 24  1  0
 20 25  1  0
 20 26  1  0
 24 27  1  0
 21 28  1  0
 22 28  2  0
 23 29  2  0
 23 30  1  0
 25 31  1  0
 26 32  1  0
 27 33  1  0
 29 34  1  0
 27 35  1  1
 29 36  1  0
 30 37  2  0
 31 38  1  0
 32 38  1  0
 33 39  1  0
 38 40  1  0
 36 41  2  0
 37 41  1  0
 41 42  1  0
 40 43  2  0
 40 44  2  0
 40 45  1  0
 42 46  1  0
 45 47  2  0
 45 48  1  0
 47 49  1  0
 48 50  1  0
 48 51  2  0
 47 52  1  0
 51 53  1  0
 52 53  2  0
M  END
