x2779-x3108
     RDKit          3D

 35 40  0  0  0  0  0  0  0  0999 V2000
    5.7310    1.5330   21.8920 C   0  0  0  0  0  0  0  0  0  0  0  0
    5.8820    1.1770   20.4000 C   0  0  0  0  0  0  0  0  0  0  0  0
    6.8990    0.3660   19.9780 C   0  0  0  0  0  0  0  0  0  0  0  0
    4.9540    1.7140   19.5260 C   0  0  0  0  0  0  0  0  0  0  0  0
    7.7910   -0.1020   20.9760 N   0  0  0  0  0  0  0  0  0  0  0  0
    7.0570    0.0380   18.6960 C   0  0  0  0  0  0  0  0  0  0  0  0
    5.0790    1.4030   18.1510 C   0  0  0  0  0  0  0  0  0  0  0  0
    8.6150    0.8660   21.6500 C   0  0  0  0  0  0  0  0  0  0  0  0
    6.1620    0.5290   17.6840 N   0  0  0  0  0  0  0  0  0  0  0  0
    7.8410   -1.4950   21.2240 C   0  0  2  0  0  0  0  0  0  0  0  0
    9.1420    1.8640   21.1620 O   0  0  0  0  0  0  0  0  0  0  0  0
    8.7260    0.5560   23.0830 C   0  0  0  0  0  0  0  0  0  0  0  0
    6.5910   -2.3050   20.9360 N   0  0  0  0  0  0  0  0  0  0  0  0
    8.5960   -1.9190   22.3730 C   0  0  1  0  0  0  0  0  0  0  0  0
    9.2750   -0.8370   23.2820 C   0  0  2  0  0  0  0  0  0  0  0  0
    6.4090   -3.1210   19.7960 C   0  0  0  0  0  0  0  0  0  0  0  0
    8.1060   -2.8670   23.1980 N   0  0  0  0  0  0  0  0  0  0  0  0
    6.1420   -2.9380   22.1770 C   0  0  0  0  0  0  0  0  0  0  0  0
    8.8020   -1.2600   24.6520 C   0  0  0  0  0  0  0  0  0  0  0  0
    7.8300   -2.4130   24.5510 C   0  0  2  0  0  0  0  0  0  0  0  0
    7.3840   -2.9790   18.6500 C   0  0  0  0  0  0  0  0  0  0  0  0
    5.5090   -3.9840   19.7020 O   0  0  0  0  0  0  0  0  0  0  0  0
    7.1710   -3.6960   22.6950 C   0  0  0  0  0  0  0  0  0  0  0  0
   10.7720   -0.6860   23.1520 C   0  0  0  0  0  0  0  0  0  0  0  0
    9.1140   -0.7180   25.7050 O   0  0  0  0  0  0  0  0  0  0  0  0
    8.1940   -3.5660   25.4500 C   0  0  0  0  0  0  0  0  0  0  0  0
   11.7440   -1.4780   22.3250 C   0  0  0  0  0  0  0  0  0  0  0  0
   11.5790    0.5630   23.9940 S   0  0  0  0  0  0  0  0  0  0  0  0
    9.3230   -4.1890   24.9640 C   0  0  0  0  0  0  0  0  0  0  0  0
    7.4110   -3.9660   26.6940 C   0  0  0  0  0  0  0  0  0  0  0  0
   13.0800    0.0650   23.2480 C   0  0  0  0  0  0  0  0  0  0  0  0
   13.0230   -0.9810   22.4390 C   0  0  0  0  0  0  0  0  0  0  0  0
    9.8720   -5.3390   25.6310 N   0  0  0  0  0  0  0  0  0  0  0  0
    8.0400   -5.1980   27.3650 C   0  0  0  0  0  0  0  0  0  0  0  0
    9.2890   -5.8840   26.8090 C   0  0  0  0  0  0  0  0  0  0  0  0
  1  2  1  0
  2  3  2  0
  2  4  1  0
  3  5  1  0
  3  6  1  0
  4  7  2  0
  5  8  1  0
  6  9  2  0
  7  9  1  0
 10  5  1  1
  8 11  2  0
  8 12  1  0
 10 13  1  0
 10 14  1  0
 12 15  1  0
 14 15  1  0
 13 16  1  0
 14 17  1  1
 13 18  1  0
 15 19  1  0
 17 20  1  0
 19 20  1  0
 16 21  1  0
 16 22  2  0
 17 23  1  0
 18 23  1  0
 15 24  1  1
 19 25  2  0
 20 26  1  1
 24 27  2  0
 24 28  1  0
 26 29  2  0
 26 30  1  0
 28 31  1  0
 27 32  1  0
 31 32  2  0
 29 33  1  0
 30 34  2  0
 33 35  2  0
 34 35  1  0
M  END
