x2776-x0978-x3117
     RDKit          3D

 46 48  0  0  0  0  0  0  0  0999 V2000
    6.8610   -1.6890   21.8420 N   0  0  0  0  0  0  0  0  0  0  0  0
    5.9760   -2.9030   21.5880 C   0  0  0  0  0  0  0  0  0  0  0  0
    4.7640   -2.9440   21.2000 O   0  0  0  0  0  0  0  0  0  0  0  0
    6.5310   -0.2940   21.6550 C   0  0  1  0  0  0  0  0  0  0  0  0
    8.2160   -1.7460   22.4260 C   0  0  0  0  0  0  0  0  0  0  0  0
    6.4710   -4.3610   21.7120 C   0  0  2  0  0  0  0  0  0  0  0  0
    7.7590    0.6730   21.8710 C   0  0  0  0  0  0  0  0  0  0  0  0
    6.0920    0.2170   20.3220 C   0  0  0  0  0  0  0  0  0  0  0  0
    9.3500   -2.0230   21.6810 C   0  0  0  0  0  0  0  0  0  0  0  0
    8.4570   -1.4800   23.7900 C   0  0  0  0  0  0  0  0  0  0  0  0
    6.4850   -4.8950   20.2740 C   0  0  0  0  0  0  0  0  0  0  0  0
    7.5890    1.7950   22.8330 N   0  0  0  0  0  0  0  0  0  0  0  0
    8.8320    0.5940   21.2900 O   0  0  0  0  0  0  0  0  0  0  0  0
    5.6300   -5.2430   22.5170 N   0  0  0  0  0  0  0  0  0  0  0  0
    4.9500    1.0300   20.2030 C   0  0  0  0  0  0  0  0  0  0  0  0
    6.8300   -0.0990   19.1640 C   0  0  0  0  0  0  0  0  0  0  0  0
   10.6290   -2.0040   22.2430 C   0  0  0  0  0  0  0  0  0  0  0  0
    9.7320   -1.4630   24.3610 C   0  0  0  0  0  0  0  0  0  0  0  0
    4.4510   -5.0190   23.1670 C   0  0  0  0  0  0  0  0  0  0  0  0
    6.4620    0.4000   17.8180 N   0  0  0  0  0  0  0  0  0  0  0  0
    4.5890    1.5070   18.9490 C   0  0  0  0  0  0  0  0  0  0  0  0
    8.4000    2.9820   23.0480 C   0  0  0  0  0  0  0  0  0  0  0  0
   10.8690   -1.7150   23.5790 C   0  0  0  0  0  0  0  0  0  0  0  0
   12.3010   -1.6670   24.0920 C   0  0  0  0  0  0  0  0  0  0  0  0
    3.3580   -6.1270   23.2750 C   0  0  2  0  0  0  0  0  0  0  0  0
    4.2340   -3.9280   23.6730 O   0  0  0  0  0  0  0  0  0  0  0  0
    5.2730    1.2420   17.7800 C   0  0  0  0  0  0  0  0  0  0  0  0
    9.7230    2.8760   23.5710 C   0  0  0  0  0  0  0  0  0  0  0  0
    7.9000    4.2730   22.7570 C   0  0  0  0  0  0  0  0  0  0  0  0
   12.8400   -2.9760   24.3540 O   0  0  0  0  0  0  0  0  0  0  0  0
   10.3670    1.5640   23.9180 C   0  0  0  0  0  0  0  0  0  0  0  0
   13.1090   -1.0460   22.9330 C   0  0  0  0  0  0  0  0  0  0  0  0
   12.4560   -0.6440   25.2030 C   0  0  0  0  0  0  0  0  0  0  0  0
    2.1310   -5.5370   23.2040 N   0  0  0  0  0  0  0  0  0  0  0  0
    3.5710   -7.0270   24.3470 C   0  0  1  0  0  0  0  0  0  0  0  0
   10.4880    4.0320   23.7900 C   0  0  0  0  0  0  0  0  0  0  0  0
    8.6900    5.4240   22.9910 C   0  0  0  0  0  0  0  0  0  0  0  0
   13.2260   -3.2980   25.6820 C   0  0  0  0  0  0  0  0  0  0  0  0
    2.5730   -7.8860   24.6370 C   0  0  0  0  0  0  0  0  0  0  0  0
    4.5460   -7.7200   24.1170 O   0  0  0  0  0  0  0  0  0  0  0  0
    1.0430   -6.2010   22.6370 C   0  0  0  0  0  0  0  0  0  0  0  0
    9.9690    5.2890   23.5090 C   0  0  0  0  0  0  0  0  0  0  0  0
   10.6650    6.4670   23.7170 O   0  0  0  0  0  0  0  0  0  0  0  0
    1.0810   -7.3120   22.0810 O   0  0  0  0  0  0  0  0  0  0  0  0
   -0.1850   -5.5380   22.7040 C   0  0  0  0  0  0  0  0  0  0  0  0
   11.7330    6.4110   24.6730 C   0  0  0  0  0  0  0  0  0  0  0  0
  1  2  1  0
  2  3  2  0
  1  4  1  0
  1  5  1  0
  2  6  1  0
  4  7  1  6
  4  8  1  0
  5  9  2  0
  5 10  1  0
  6 11  1  6
  7 12  1  0
  7 13  2  0
  6 14  1  0
  8 15  2  0
  8 16  1  0
  9 17  1  0
 10 18  2  0
 14 19  1  0
 16 20  2  0
 15 21  1  0
 12 22  1  0
 17 23  2  0
 18 23  1  0
 23 24  1  0
 19 25  1  0
 19 26  2  0
 20 27  1  0
 21 27  2  0
 22 28  2  0
 22 29  1  0
 24 30  1  0
 28 31  1  0
 24 32  1  0
 24 33  1  0
 25 34  1  1
 25 35  1  0
 28 36  1  0
 29 37  2  0
 30 38  1  0
 35 39  1  6
 35 40  1  0
 34 41  1  0
 36 42  2  0
 37 42  1  0
 42 43  1  0
 41 44  2  0
 41 45  1  0
 43 46  1  0
M  END
