x2776-x0107
     RDKit          3D

 34 37  0  0  0  0  0  0  0  0999 V2000
    7.1690   -1.7420   21.7370 N   0  0  0  0  0  0  0  0  0  0  0  0
    6.1380   -2.8830   21.4990 C   0  0  0  0  0  0  0  0  0  0  0  0
    4.8640   -3.0000   21.0940 O   0  0  0  0  0  0  0  0  0  0  0  0
    6.9100   -0.2270   21.6990 C   0  0  1  0  0  0  0  0  0  0  0  0
    8.4240   -2.1380   22.4210 C   0  0  1  0  0  0  0  0  0  0  0  0
    6.6690   -4.2810   21.7680 C   0  0  0  0  0  0  0  0  0  0  0  0
    8.1420    0.6890   22.1520 C   0  0  2  0  0  0  0  0  0  0  0  0
    6.3220    0.2680   20.3740 C   0  0  0  0  0  0  0  0  0  0  0  0
    9.4950   -2.7090   21.5950 C   0  0  0  0  0  0  0  0  0  0  0  0
    9.4730   -1.2480   22.8930 C   0  0  1  0  0  0  0  0  0  0  0  0
    6.6210   -5.0780   20.4600 C   0  0  0  0  0  0  0  0  0  0  0  0
    7.7040    2.0770   22.4780 N   0  0  0  0  0  0  0  0  0  0  0  0
    9.0680    0.6430   21.3660 O   0  0  0  0  0  0  0  0  0  0  0  0
    8.7530   -0.0270   23.3860 C   0  0  0  0  0  0  0  0  0  0  0  0
    5.1880    1.0800   20.2880 C   0  0  0  0  0  0  0  0  0  0  0  0
    6.9070   -0.0620   19.1300 C   0  0  0  0  0  0  0  0  0  0  0  0
   10.8060   -2.5500   22.2720 C   0  0  0  0  0  0  0  0  0  0  0  0
   10.6810   -1.9120   23.4180 C   0  0  1  0  0  0  0  0  0  0  0  0
   12.0930   -1.4790   23.8430 C   0  0  2  0  0  0  0  0  0  0  0  0
    6.4150    0.3950   17.8140 N   0  0  0  0  0  0  0  0  0  0  0  0
    4.6650    1.5490   19.0650 C   0  0  0  0  0  0  0  0  0  0  0  0
    8.4080    3.2540   22.8780 C   0  0  0  0  0  0  0  0  0  0  0  0
   12.3510   -1.9080   25.1790 O   0  0  0  0  0  0  0  0  0  0  0  0
   12.6160   -0.2310   23.5580 C   0  0  0  0  0  0  0  0  0  0  0  0
    5.2400    1.2350   17.8700 C   0  0  0  0  0  0  0  0  0  0  0  0
    9.7990    3.2440   23.1620 C   0  0  0  0  0  0  0  0  0  0  0  0
    7.7530    4.6260   23.0400 C   0  0  0  0  0  0  0  0  0  0  0  0
   10.5860    2.0940   23.0450 C   0  0  0  0  0  0  0  0  0  0  0  0
   13.4860   -2.7590   25.3120 C   0  0  0  0  0  0  0  0  0  0  0  0
   10.4920    4.3960   23.5740 C   0  0  0  0  0  0  0  0  0  0  0  0
    8.5250    5.7330   23.4510 C   0  0  0  0  0  0  0  0  0  0  0  0
    9.8900    5.6250   23.7250 C   0  0  0  0  0  0  0  0  0  0  0  0
   10.7100    6.6530   24.1370 O   0  0  0  0  0  0  0  0  0  0  0  0
   11.8020    6.3390   25.0000 C   0  0  0  0  0  0  0  0  0  0  0  0
  1  2  1  0
  2  3  2  0
  1  4  1  0
  1  5  1  0
  2  6  1  0
  4  7  1  0
  4  8  1  6
  5  9  1  6
  5 10  1  0
  6 11  1  0
  7 12  1  0
  7 13  1  6
  7 14  1  0
 10 14  1  1
  8 15  2  0
  8 16  1  0
  9 17  2  0
 10 18  1  0
 18 17  1  6
 18 19  1  0
 16 20  2  0
 15 21  1  0
 12 22  1  0
 19 23  1  0
 19 24  1  1
 20 25  1  0
 21 25  2  0
 22 26  2  0
 22 27  1  0
 26 28  1  0
 23 29  1  0
 26 30  1  0
 27 31  2  0
 30 32  2  0
 31 32  1  0
 32 33  1  0
 33 34  1  0
M  END
