x2776-x2608-x0426
     RDKit          3D

 49 52  0  0  0  0  0  0  0  0999 V2000
    7.1060   -1.6160   21.7680 N   0  0  0  0  0  0  0  0  0  0  0  0
    6.1660   -2.8180   21.5060 C   0  0  0  0  0  0  0  0  0  0  0  0
    4.8720   -3.0080   21.1360 O   0  0  0  0  0  0  0  0  0  0  0  0
    6.7870   -0.0960   21.6390 C   0  0  1  0  0  0  0  0  0  0  0  0
    8.3160   -1.7850   22.7390 C   0  0  2  0  0  0  0  0  0  0  0  0
    6.8380   -4.1440   21.7000 C   0  0  0  0  0  0  0  0  0  0  0  0
    7.9670    0.6960   21.7750 C   0  0  0  0  0  0  0  0  0  0  0  0
    6.0920    0.4240   20.3390 C   0  0  0  0  0  0  0  0  0  0  0  0
    9.7980   -1.9950   22.6210 C   0  0  2  0  0  0  0  0  0  0  0  0
    7.8410   -2.6370   23.7520 C   0  0  0  0  0  0  0  0  0  0  0  0
    6.7430   -4.8810   20.3810 C   0  0  0  0  0  0  0  0  0  0  0  0
    7.7910    1.9520   22.3800 N   0  0  0  0  0  0  0  0  0  0  0  0
    4.8540    1.2840   20.1880 C   0  0  0  0  0  0  0  0  0  0  0  0
    6.7930    0.0230   19.0470 C   0  0  0  0  0  0  0  0  0  0  0  0
    9.9950   -3.2170   23.2000 C   0  0  0  0  0  0  0  0  0  0  0  0
   11.1850   -1.3630   22.7630 C   0  0  2  0  0  0  0  0  0  0  0  0
    8.9090   -3.6520   23.8420 C   0  0  0  0  0  0  0  0  0  0  0  0
   11.6790   -1.7960   24.1980 C   0  0  0  0  0  0  0  0  0  0  0  0
    3.9740    1.8300   21.1180 C   0  0  0  0  0  0  0  0  0  0  0  0
    6.3840    0.3980   17.8170 N   0  0  0  0  0  0  0  0  0  0  0  0
    4.5110    1.6300   18.7740 C   0  0  0  0  0  0  0  0  0  0  0  0
    8.3180    3.2110   21.8730 C   0  0  0  0  0  0  0  0  0  0  0  0
   11.4240    0.0020   22.7320 C   0  0  2  0  0  0  0  0  0  0  0  0
   13.0070   -2.2970   24.0980 O   0  0  0  0  0  0  0  0  0  0  0  0
    4.2280    1.8870   22.4820 C   0  0  0  0  0  0  0  0  0  0  0  0
   12.7820    0.5690   23.0640 C   0  0  0  0  0  0  0  0  0  0  0  0
    5.2800    1.1810   17.7280 C   0  0  0  0  0  0  0  0  0  0  0  0
    7.8310    4.6050   22.2450 C   0  0  0  0  0  0  0  0  0  0  0  0
   10.3120    0.5660   23.9400 S   0  0  0  0  0  0  0  0  0  0  0  0
   10.3310    1.8870   23.3630 O   0  0  0  0  0  0  0  0  0  0  0  0
    9.4040    2.0030   24.5750 C   0  0  0  0  0  0  0  0  0  0  0  0
   13.2620   -3.0450   25.2550 C   0  0  0  0  0  0  0  0  0  0  0  0
    3.1820    2.7210   23.1210 N   0  0  0  0  0  0  0  0  0  0  0  0
    8.6280    5.8180   22.9100 C   0  0  0  0  0  0  0  0  0  0  0  0
    9.4710   -0.2390   25.2360 C   0  0  0  0  0  0  0  0  0  0  0  0
    2.3430    2.2270   24.0970 C   0  0  0  0  0  0  0  0  0  0  0  0
    9.3080    3.4300   24.1820 C   0  0  0  0  0  0  0  0  0  0  0  0
   10.0830    5.7380   23.3110 C   0  0  1  0  0  0  0  0  0  0  0  0
   10.6000    6.6580   24.3180 O   0  0  0  0  0  0  0  0  0  0  0  0
    2.5150    1.0470   24.5370 O   0  0  0  0  0  0  0  0  0  0  0  0
   10.3730    4.3430   23.6910 C   0  0  0  0  0  0  0  0  0  0  0  0
    1.2800    2.9850   24.7170 C   0  0  0  0  0  0  0  0  0  0  0  0
   11.9360    6.4810   24.7770 C   0  0  0  0  0  0  0  0  0  0  0  0
    1.5930    4.0290   25.4940 C   0  0  0  0  0  0  0  0  0  0  0  0
    0.0160    2.5660   24.4620 C   0  0  0  0  0  0  0  0  0  0  0  0
    2.8550    4.4090   25.7100 F   0  0  0  0  0  0  0  0  0  0  0  0
   -1.1670    3.3030   25.0970 C   0  0  0  0  0  0  0  0  0  0  0  0
    0.4020    4.8350   26.1770 C   0  0  0  0  0  0  0  0  0  0  0  0
   -1.0030    4.4220   25.9460 C   0  0  0  0  0  0  0  0  0  0  0  0
  1  2  1  0
  2  3  2  0
  1  4  1  0
  1  5  1  0
  2  6  1  0
  4  7  1  0
  4  8  1  6
  5  9  1  0
  5 10  1  1
  6 11  1  0
  7 12  1  0
  8 13  1  0
  8 14  2  0
  9 15  1  1
  9 16  1  0
 10 17  1  0
 15 17  2  0
 16 18  1  1
 13 19  1  0
 14 20  1  0
 13 21  2  0
 12 22  1  0
 16 23  1  0
 18 24  1  0
 19 25  1  0
 23 26  1  1
 20 27  2  0
 21 27  1  0
 22 28  1  0
 23 29  1  0
 29 30  1  0
 29 31  2  0
 24 32  1  0
 25 33  1  0
 28 34  2  0
 29 35  1  0
 33 36  1  0
 31 37  1  0
 34 38  1  0
 38 39  1  1
 36 40  2  0
 37 41  2  0
 38 41  1  0
 36 42  1  0
 39 43  1  0
 42 44  2  0
 42 45  1  0
 44 46  1  0
 45 47  2  0
 44 48  1  0
 47 49  1  0
 48 49  2  0
M  END
