x2776-x0426
     RDKit          3D

 46 49  0  0  0  0  0  0  0  0999 V2000
    6.9010   -1.5850   21.7930 N   0  0  0  0  0  0  0  0  0  0  0  0
    6.0540   -2.7990   21.5340 C   0  0  0  0  0  0  0  0  0  0  0  0
    4.8230   -2.9820   21.1360 O   0  0  0  0  0  0  0  0  0  0  0  0
    6.5910   -0.1450   21.5350 C   0  0  1  0  0  0  0  0  0  0  0  0
    8.2040   -1.6570   22.4260 C   0  0  0  0  0  0  0  0  0  0  0  0
    6.7590   -4.1110   21.7730 C   0  0  0  0  0  0  0  0  0  0  0  0
    7.8170    0.8130   21.8510 C   0  0  0  0  0  0  0  0  0  0  0  0
    6.1010    0.3100   20.1890 C   0  0  0  0  0  0  0  0  0  0  0  0
    9.2900   -2.0610   21.6510 C   0  0  0  0  0  0  0  0  0  0  0  0
    8.4080   -1.3140   23.7630 C   0  0  0  0  0  0  0  0  0  0  0  0
    6.7040   -4.9280   20.4690 C   0  0  0  0  0  0  0  0  0  0  0  0
    7.5820    1.9350   22.8000 N   0  0  0  0  0  0  0  0  0  0  0  0
    8.9020    0.6510   21.3170 O   0  0  0  0  0  0  0  0  0  0  0  0
    4.7750    1.0340   20.1090 C   0  0  0  0  0  0  0  0  0  0  0  0
    6.8150    0.1140   19.0260 C   0  0  0  0  0  0  0  0  0  0  0  0
   10.6020   -2.1340   22.1460 C   0  0  0  0  0  0  0  0  0  0  0  0
    9.7830   -1.3680   24.3510 C   0  0  0  0  0  0  0  0  0  0  0  0
    3.7770    1.3730   21.1990 C   0  0  0  0  0  0  0  0  0  0  0  0
    6.4190    0.5430   17.8180 N   0  0  0  0  0  0  0  0  0  0  0  0
    4.4030    1.4660   18.8430 C   0  0  0  0  0  0  0  0  0  0  0  0
    8.4360    3.0650   23.0620 C   0  0  0  0  0  0  0  0  0  0  0  0
   10.8560   -1.7590   23.5850 C   0  0  0  0  0  0  0  0  0  0  0  0
   12.2860   -1.8430   24.0460 C   0  0  2  0  0  0  0  0  0  0  0  0
    4.3480    2.0070   22.2910 C   0  0  0  0  0  0  0  0  0  0  0  0
    5.2030    1.2320   17.7580 C   0  0  0  0  0  0  0  0  0  0  0  0
    9.7720    2.9780   23.5650 C   0  0  0  0  0  0  0  0  0  0  0  0
    7.9260    4.3480   22.8160 C   0  0  0  0  0  0  0  0  0  0  0  0
   12.3530   -2.7180   25.1580 O   0  0  0  0  0  0  0  0  0  0  0  0
   10.4460    1.7610   23.8670 C   0  0  0  0  0  0  0  0  0  0  0  0
   12.8440   -0.6260   24.3780 C   0  0  0  0  0  0  0  0  0  0  0  0
    3.2520    2.6220   23.0510 N   0  0  0  0  0  0  0  0  0  0  0  0
   10.5340    4.1470   23.8060 C   0  0  0  0  0  0  0  0  0  0  0  0
    8.6260    5.5410   23.0370 C   0  0  0  0  0  0  0  0  0  0  0  0
   13.6870   -3.0130   25.4780 C   0  0  0  0  0  0  0  0  0  0  0  0
    2.2560    1.8470   23.7800 C   0  0  0  0  0  0  0  0  0  0  0  0
   10.0540    5.4350   23.5860 C   0  0  0  0  0  0  0  0  0  0  0  0
   10.7260    6.6150   23.8080 O   0  0  0  0  0  0  0  0  0  0  0  0
    2.2210    0.4280   23.8100 O   0  0  0  0  0  0  0  0  0  0  0  0
    1.2180    2.6270   24.5440 C   0  0  0  0  0  0  0  0  0  0  0  0
   11.8040    6.5790   24.7490 C   0  0  0  0  0  0  0  0  0  0  0  0
    1.4450    3.8220   25.2420 C   0  0  0  0  0  0  0  0  0  0  0  0
   -0.1150    2.1110   24.5580 C   0  0  0  0  0  0  0  0  0  0  0  0
    2.6790    4.3490   25.2590 F   0  0  0  0  0  0  0  0  0  0  0  0
   -1.1220    2.7580   25.2260 C   0  0  0  0  0  0  0  0  0  0  0  0
    0.4660    4.5300   25.9410 C   0  0  0  0  0  0  0  0  0  0  0  0
   -0.8280    4.0500   25.9700 C   0  0  0  0  0  0  0  0  0  0  0  0
  1  2  1  0
  2  3  2  0
  1  4  1  0
  1  5  1  0
  2  6  1  0
  4  7  1  6
  4  8  1  0
  5  9  2  0
  5 10  1  0
  6 11  1  0
  7 12  1  0
  7 13  2  0
  8 14  1  0
  8 15  2  0
  9 16  1  0
 10 17  2  0
 14 18  1  0
 15 19  1  0
 14 20  2  0
 12 21  1  0
 16 22  2  0
 17 22  1  0
 22 23  1  0
 18 24  1  0
 19 25  2  0
 20 25  1  0
 21 26  2  0
 21 27  1  0
 23 28  1  0
 26 29  1  0
 23 30  1  1
 24 31  1  0
 26 32  1  0
 27 33  2  0
 28 34  1  0
 31 35  1  0
 32 36  2  0
 33 36  1  0
 36 37  1  0
 35 38  2  0
 35 39  1  0
 37 40  1  0
 39 41  2  0
 39 42  1  0
 41 43  1  0
 42 44  2  0
 41 45  1  0
 44 46  1  0
 45 46  2  0
M  END
