x2776-x2705-x1374-x2643
     RDKit          3D

 53 57  0  0  0  0  0  0  0  0999 V2000
    6.8890   -1.4610   21.7300 N   0  0  0  0  0  0  0  0  0  0  0  0
    6.1070   -2.6970   21.3330 C   0  0  0  0  0  0  0  0  0  0  0  0
    4.8020   -2.9800   21.2290 O   0  0  0  0  0  0  0  0  0  0  0  0
    6.5700   -0.0280   21.4140 C   0  0  1  0  0  0  0  0  0  0  0  0
    8.1160   -1.5360   22.5150 C   0  0  0  0  0  0  0  0  0  0  0  0
    6.9840   -3.8520   20.9620 C   0  0  1  0  0  0  0  0  0  0  0  0
    7.7350    1.0120   21.6860 C   0  0  0  0  0  0  0  0  0  0  0  0
    6.0530    0.4620   20.1120 C   0  0  0  0  0  0  0  0  0  0  0  0
    9.4360   -1.4940   21.9410 C   0  0  0  0  0  0  0  0  0  0  0  0
    8.0250   -1.6490   23.8880 C   0  0  0  0  0  0  0  0  0  0  0  0
    7.3400   -3.3030   19.5730 C   0  0  0  0  0  0  0  0  0  0  0  0
    7.5960    1.9050   22.8780 N   0  0  0  0  0  0  0  0  0  0  0  0
    8.7160    1.1650   20.9650 O   0  0  0  0  0  0  0  0  0  0  0  0
    4.9140    1.2340   20.0450 C   0  0  0  0  0  0  0  0  0  0  0  0
    6.7980    0.1170   18.9830 C   0  0  0  0  0  0  0  0  0  0  0  0
   10.5490   -1.5760   22.7530 C   0  0  0  0  0  0  0  0  0  0  0  0
    9.1860   -1.7200   24.6280 C   0  0  0  0  0  0  0  0  0  0  0  0
    7.7950   -4.1050   22.3010 C   0  0  0  0  0  0  0  0  0  0  0  0
   12.0700   -1.5580   22.3450 C   0  0  0  0  0  0  0  0  0  0  0  0
    6.3610    0.6070   17.6800 N   0  0  0  0  0  0  0  0  0  0  0  0
    4.4620    1.7170   18.8480 C   0  0  0  0  0  0  0  0  0  0  0  0
    8.4200    3.0850   23.0500 C   0  0  0  0  0  0  0  0  0  0  0  0
   10.4500   -1.6920   24.1230 C   0  0  0  0  0  0  0  0  0  0  0  0
    9.0780   -3.9410   22.8360 C   0  0  0  0  0  0  0  0  0  0  0  0
    6.8950   -4.6340   23.1360 C   0  0  0  0  0  0  0  0  0  0  0  0
   12.9680   -1.5630   23.4230 C   0  0  2  0  0  0  0  0  0  0  0  0
    5.1520    1.4320   17.6900 C   0  0  0  0  0  0  0  0  0  0  0  0
    9.6970    2.9650   23.5840 C   0  0  0  0  0  0  0  0  0  0  0  0
    8.0110    4.4820   22.7020 C   0  0  0  0  0  0  0  0  0  0  0  0
    9.3680   -4.3650   24.2940 C   0  0  0  0  0  0  0  0  0  0  0  0
    7.1320   -5.0320   24.4860 C   0  0  0  0  0  0  0  0  0  0  0  0
   12.7580   -2.8020   24.1250 O   0  0  0  0  0  0  0  0  0  0  0  0
   10.2310    1.6230   23.9720 C   0  0  0  0  0  0  0  0  0  0  0  0
   12.7880   -0.3720   24.3580 C   0  0  0  0  0  0  0  0  0  0  0  0
    6.5950    4.6880   22.0780 C   0  0  0  0  0  0  0  0  0  0  0  0
   10.6770   -4.2210   24.9540 C   0  0  0  0  0  0  0  0  0  0  0  0
   10.4800    4.1180   23.7670 C   0  0  0  0  0  0  0  0  0  0  0  0
    8.7650    5.6260   22.8790 C   0  0  0  0  0  0  0  0  0  0  0  0
    8.3690   -4.8990   25.0460 C   0  0  0  0  0  0  0  0  0  0  0  0
    5.9920   -5.5520   25.2560 C   0  0  0  0  0  0  0  0  0  0  0  0
   13.3260   -3.0220   25.4110 C   0  0  0  0  0  0  0  0  0  0  0  0
    9.3650    1.0270   25.0620 C   0  0  0  0  0  0  0  0  0  0  0  0
   10.0570    5.5470   23.4320 C   0  0  0  0  0  0  0  0  0  0  0  0
    4.8810   -4.5980   25.0150 C   0  0  0  0  0  0  0  0  0  0  0  0
   10.7860    6.6960   23.6120 O   0  0  0  0  0  0  0  0  0  0  0  0
    4.2150   -4.7540   23.7980 C   0  0  2  0  0  0  0  0  0  0  0  0
   11.8160    6.6540   24.6040 C   0  0  0  0  0  0  0  0  0  0  0  0
    2.9540   -4.6180   24.2400 C   0  0  0  0  0  0  0  0  0  0  0  0
    4.4110   -5.9710   23.0950 C   0  0  0  0  0  0  0  0  0  0  0  0
    3.2080   -7.0950   23.8940 S   0  0  0  0  0  0  0  0  0  0  0  0
    2.2270   -5.7040   24.4110 C   0  0  0  0  0  0  0  0  0  0  0  0
    2.5340   -7.7970   22.8470 O   0  0  0  0  0  0  0  0  0  0  0  0
    3.9250   -7.8290   24.9140 O   0  0  0  0  0  0  0  0  0  0  0  0
  1  2  1  0
  2  3  2  0
  1  4  1  0
  1  5  1  0
  2  6  1  0
  4  7  1  6
  4  8  1  0
  5  9  2  0
  5 10  1  0
  6 11  1  6
  7 12  1  0
  7 13  2  0
  8 14  2  0
  8 15  1  0
  9 16  1  0
 10 17  2  0
  6 18  1  0
 16 19  1  0
 15 20  2  0
 14 21  1  0
 12 22  1  0
 16 23  2  0
 17 23  1  0
 18 24  2  0
 18 25  1  0
 19 26  1  0
 20 27  1  0
 21 27  2  0
 22 28  2  0
 22 29  1  0
 24 30  1  0
 25 31  2  0
 26 32  1  0
 28 33  1  0
 26 34  1  1
 29 35  1  0
 30 36  1  0
 28 37  1  0
 29 38  2  0
 30 39  2  0
 31 39  1  0
 31 40  1  0
 32 41  1  0
 33 42  1  0
 37 43  2  0
 38 43  1  0
 40 44  1  0
 43 45  1  0
 46 44  1  1
 45 47  1  0
 46 48  1  0
 46 49  1  0
 49 50  1  0
 48 51  2  0
 50 51  1  0
 50 52  1  0
 50 53  1  0
M  END
