x2776-x3117-x1374-x0786
     RDKit          3D

 56 61  0  0  0  0  0  0  0  0999 V2000
    3.8810   -7.8310   24.9070 O   0  0  0  0  0  0  0  0  0  0  0  0
    3.1020   -6.8910   24.1190 S   0  0  2  0  0  0  0  0  0  0  0  0
    4.2790   -5.8780   23.2580 C   0  0  0  0  0  0  0  0  0  0  0  0
    2.4340   -5.5450   25.0580 C   0  0  0  0  0  0  0  0  0  0  0  0
    1.6570   -7.1460   23.3570 N   0  0  0  0  0  0  0  0  0  0  0  0
    3.0930   -4.4410   24.8660 C   0  0  0  0  0  0  0  0  0  0  0  0
    4.2780   -4.5530   24.0460 C   0  0  1  0  0  0  0  0  0  0  0  0
    1.0750   -6.1500   22.7690 C   0  0  0  0  0  0  0  0  0  0  0  0
    0.7550   -8.1900   23.8360 C   0  0  0  0  0  0  0  0  0  0  0  0
    0.0520   -5.3450   23.6140 C   0  0  0  0  0  0  0  0  0  0  0  0
   -0.0030   -7.7110   24.9380 C   0  0  0  0  0  0  0  0  0  0  0  0
    5.1830   -4.5040   25.2870 C   0  0  0  0  0  0  0  0  0  0  0  0
   -1.1430   -6.3680   24.5070 S   0  0  0  0  0  0  0  0  0  0  0  0
    6.0260   -5.6760   25.4410 C   0  0  0  0  0  0  0  0  0  0  0  0
    7.1720   -5.1070   24.7420 C   0  0  0  0  0  0  0  0  0  0  0  0
    6.8690   -4.5950   23.4880 C   0  0  0  0  0  0  0  0  0  0  0  0
    8.4150   -5.0610   25.3340 C   0  0  0  0  0  0  0  0  0  0  0  0
    9.4560   -4.4660   24.6960 C   0  0  0  0  0  0  0  0  0  0  0  0
    7.8250   -3.9140   22.6240 C   0  0  0  0  0  0  0  0  0  0  0  0
    7.3130   -3.3820   21.2830 C   0  0  1  0  0  0  0  0  0  0  0  0
   10.7430   -4.4320   25.4050 C   0  0  0  0  0  0  0  0  0  0  0  0
    9.2020   -3.8640   23.3010 C   0  0  0  0  0  0  0  0  0  0  0  0
    7.0390   -4.3740   20.2100 C   0  0  0  0  0  0  0  0  0  0  0  0
    6.1750   -2.5920   21.4970 C   0  0  0  0  0  0  0  0  0  0  0  0
    6.7510   -1.3270   22.0740 N   0  0  0  0  0  0  0  0  0  0  0  0
    4.8970   -3.0650   21.2080 O   0  0  0  0  0  0  0  0  0  0  0  0
    6.4970    0.1040   21.6490 C   0  0  1  0  0  0  0  0  0  0  0  0
    8.1050   -1.3820   22.6210 C   0  0  0  0  0  0  0  0  0  0  0  0
    7.6820    1.1440   21.6670 C   0  0  0  0  0  0  0  0  0  0  0  0
    6.0600    0.4510   20.2490 C   0  0  0  0  0  0  0  0  0  0  0  0
    9.2290   -1.3310   21.7760 C   0  0  0  0  0  0  0  0  0  0  0  0
    8.3150   -1.4740   23.9620 C   0  0  0  0  0  0  0  0  0  0  0  0
    7.6650    2.0740   22.8190 N   0  0  0  0  0  0  0  0  0  0  0  0
    8.4950    1.1340   20.7250 O   0  0  0  0  0  0  0  0  0  0  0  0
    4.9340    1.2500   20.1340 C   0  0  0  0  0  0  0  0  0  0  0  0
    6.7090    0.0540   19.0830 C   0  0  0  0  0  0  0  0  0  0  0  0
   10.5110   -1.3790   22.3340 C   0  0  0  0  0  0  0  0  0  0  0  0
    9.6130   -1.5200   24.5190 C   0  0  0  0  0  0  0  0  0  0  0  0
    6.3480    0.3870   17.8350 N   0  0  0  0  0  0  0  0  0  0  0  0
    4.4840    1.6460   18.8940 C   0  0  0  0  0  0  0  0  0  0  0  0
    8.5740    3.2500   22.8820 C   0  0  0  0  0  0  0  0  0  0  0  0
   10.7530   -1.4730   23.7020 C   0  0  0  0  0  0  0  0  0  0  0  0
   12.1840   -1.5160   24.2670 C   0  0  0  0  0  0  0  0  0  0  0  0
    5.1620    1.2420   17.7680 C   0  0  0  0  0  0  0  0  0  0  0  0
    9.9960    3.1080   22.9510 C   0  0  0  0  0  0  0  0  0  0  0  0
    7.9710    4.5210   22.8780 C   0  0  0  0  0  0  0  0  0  0  0  0
   12.2370   -2.4320   25.0820 O   0  0  0  0  0  0  0  0  0  0  0  0
   10.6700    1.8380   22.9660 C   0  0  0  0  0  0  0  0  0  0  0  0
   13.1480   -1.4250   23.2790 C   0  0  0  0  0  0  0  0  0  0  0  0
   12.2940   -0.4440   25.0880 C   0  0  0  0  0  0  0  0  0  0  0  0
   10.7640    4.2750   23.0300 C   0  0  0  0  0  0  0  0  0  0  0  0
    8.7900    5.6560   22.9590 C   0  0  0  0  0  0  0  0  0  0  0  0
   13.4330   -3.0070   25.3940 C   0  0  0  0  0  0  0  0  0  0  0  0
   10.1680    5.5450   23.0410 C   0  0  0  0  0  0  0  0  0  0  0  0
   10.9370    6.6920   23.1400 O   0  0  0  0  0  0  0  0  0  0  0  0
   12.0980    6.7010   23.9740 C   0  0  0  0  0  0  0  0  0  0  0  0
  2  1  1  1
  2  3  1  0
  2  4  1  0
  2  5  1  0
  4  6  2  0
  3  7  1  0
  6  7  1  0
  5  8  1  0
  5  9  1  0
  8 10  1  0
  9 11  1  0
  7 12  1  1
 10 13  1  0
 11 13  1  0
 12 14  1  0
 14 15  1  0
 15 16  2  0
 15 17  1  0
 17 18  2  0
 16 19  1  0
 19 20  1  0
 18 21  1  0
 18 22  1  0
 19 22  2  0
 20 23  1  6
 20 24  1  0
 24 25  1  0
 24 26  2  0
 25 27  1  0
 25 28  1  0
 27 29  1  6
 27 30  1  0
 28 31  2  0
 28 32  1  0
 29 33  1  0
 29 34  2  0
 30 35  2  0
 30 36  1  0
 31 37  1  0
 32 38  2  0
 36 39  2  0
 35 40  1  0
 33 41  1  0
 37 42  2  0
 38 42  1  0
 42 43  1  0
 39 44  1  0
 40 44  2  0
 41 45  2  0
 41 46  1  0
 43 47  1  0
 45 48  1  0
 43 49  1  0
 43 50  1  0
 45 51  1  0
 46 52  2  0
 47 53  1  0
 51 54  2  0
 52 54  1  0
 54 55  1  0
 55 56  1  0
M  END
