x2776-x0978
     RDKit          3D

 45 47  0  0  0  0  0  0  0  0999 V2000
    6.8600   -1.7040   21.8460 N   0  0  0  0  0  0  0  0  0  0  0  0
    5.9560   -2.9090   21.5800 C   0  0  0  0  0  0  0  0  0  0  0  0
    4.7550   -2.9310   21.1900 O   0  0  0  0  0  0  0  0  0  0  0  0
    6.5950   -0.2230   21.6090 C   0  0  1  0  0  0  0  0  0  0  0  0
    8.2040   -1.7840   22.4250 C   0  0  0  0  0  0  0  0  0  0  0  0
    6.4530   -4.3630   21.7070 C   0  0  2  0  0  0  0  0  0  0  0  0
    7.8330    0.7350   21.8990 C   0  0  0  0  0  0  0  0  0  0  0  0
    6.1100    0.2540   20.2480 C   0  0  0  0  0  0  0  0  0  0  0  0
    9.2830   -2.1540   21.6710 C   0  0  0  0  0  0  0  0  0  0  0  0
    8.4820   -1.4600   23.7600 C   0  0  0  0  0  0  0  0  0  0  0  0
    6.4470   -4.8810   20.2590 C   0  0  0  0  0  0  0  0  0  0  0  0
    7.6050    1.8820   22.8270 N   0  0  0  0  0  0  0  0  0  0  0  0
    8.9140    0.5550   21.3610 O   0  0  0  0  0  0  0  0  0  0  0  0
    5.6950   -5.2590   22.5640 N   0  0  0  0  0  0  0  0  0  0  0  0
    4.9530    1.0370   20.2250 C   0  0  0  0  0  0  0  0  0  0  0  0
    6.7770   -0.0400   19.0570 C   0  0  0  0  0  0  0  0  0  0  0  0
   10.6770   -2.1980   22.2480 C   0  0  0  0  0  0  0  0  0  0  0  0
    9.7730   -1.4990   24.2940 C   0  0  0  0  0  0  0  0  0  0  0  0
    4.4570   -5.0280   23.1170 C   0  0  0  0  0  0  0  0  0  0  0  0
    6.3710    0.4060   17.8430 N   0  0  0  0  0  0  0  0  0  0  0  0
    4.4690    1.5310   19.0300 C   0  0  0  0  0  0  0  0  0  0  0  0
    8.4020    3.0710   23.0520 C   0  0  0  0  0  0  0  0  0  0  0  0
   10.9150   -1.8730   23.5380 C   0  0  0  0  0  0  0  0  0  0  0  0
   12.3340   -1.9250   24.0520 C   0  0  2  0  0  0  0  0  0  0  0  0
    3.4330   -6.1960   23.2170 C   0  0  2  0  0  0  0  0  0  0  0  0
    4.1530   -3.9210   23.5350 O   0  0  0  0  0  0  0  0  0  0  0  0
    5.2660    1.1670   17.8060 C   0  0  0  0  0  0  0  0  0  0  0  0
    9.7200    2.9230   23.5670 C   0  0  0  0  0  0  0  0  0  0  0  0
    7.8680    4.3680   22.7670 C   0  0  0  0  0  0  0  0  0  0  0  0
   12.3980   -2.6620   25.2530 O   0  0  0  0  0  0  0  0  0  0  0  0
   10.3670    1.6090   23.8980 C   0  0  0  0  0  0  0  0  0  0  0  0
   12.8370   -0.6500   24.2440 C   0  0  0  0  0  0  0  0  0  0  0  0
    2.0870   -5.5810   23.3550 N   0  0  0  0  0  0  0  0  0  0  0  0
    3.5390   -7.0690   24.3110 C   0  0  1  0  0  0  0  0  0  0  0  0
   10.5280    4.0380   23.8110 C   0  0  0  0  0  0  0  0  0  0  0  0
    8.5880    5.5630   22.9800 C   0  0  0  0  0  0  0  0  0  0  0  0
   13.7260   -2.9780   25.5550 C   0  0  0  0  0  0  0  0  0  0  0  0
    2.3880   -7.7970   24.6740 C   0  0  0  0  0  0  0  0  0  0  0  0
    4.5500   -7.7310   24.1600 O   0  0  0  0  0  0  0  0  0  0  0  0
    1.0820   -6.2000   22.6710 C   0  0  0  0  0  0  0  0  0  0  0  0
   10.0040    5.4520   23.5390 C   0  0  0  0  0  0  0  0  0  0  0  0
   10.6850    6.6290   23.7480 O   0  0  0  0  0  0  0  0  0  0  0  0
    1.2080   -7.2620   22.0700 O   0  0  0  0  0  0  0  0  0  0  0  0
   -0.2510   -5.4560   22.7110 C   0  0  0  0  0  0  0  0  0  0  0  0
   11.7720    6.5950   24.6790 C   0  0  0  0  0  0  0  0  0  0  0  0
  1  2  1  0
  2  3  2  0
  1  4  1  0
  1  5  1  0
  2  6  1  0
  4  7  1  6
  4  8  1  0
  5  9  2  0
  5 10  1  0
  6 11  1  6
  7 12  1  0
  7 13  2  0
  6 14  1  0
  8 15  2  0
  8 16  1  0
  9 17  1  0
 10 18  2  0
 14 19  1  0
 16 20  2  0
 15 21  1  0
 12 22  1  0
 17 23  2  0
 18 23  1  0
 23 24  1  0
 19 25  1  0
 19 26  2  0
 20 27  1  0
 21 27  2  0
 22 28  2  0
 22 29  1  0
 24 30  1  0
 28 31  1  0
 24 32  1  1
 25 33  1  1
 25 34  1  0
 28 35  1  0
 29 36  2  0
 30 37  1  0
 34 38  1  6
 34 39  1  0
 33 40  1  0
 35 41  2  0
 36 41  1  0
 41 42  1  0
 40 43  2  0
 40 44  1  0
 42 45  1  0
M  END
