x2776-x1311-x3117
     RDKit          3D

 49 53  0  0  0  0  0  0  0  0999 V2000
    6.7870   -1.3830   21.9060 N   0  0  0  0  0  0  0  0  0  0  0  0
    6.0610   -2.6240   21.5450 C   0  0  0  0  0  0  0  0  0  0  0  0
    4.7950   -2.9550   21.2060 O   0  0  0  0  0  0  0  0  0  0  0  0
    6.4690    0.0780   21.6130 C   0  0  1  0  0  0  0  0  0  0  0  0
    8.1560   -1.4410   22.4960 C   0  0  0  0  0  0  0  0  0  0  0  0
    7.0890   -3.7200   21.5930 C   0  0  2  0  0  0  0  0  0  0  0  0
    7.6860    1.0940   21.8870 C   0  0  0  0  0  0  0  0  0  0  0  0
    6.0650    0.4280   20.3330 C   0  0  0  0  0  0  0  0  0  0  0  0
    9.2800   -1.7520   21.7270 C   0  0  0  0  0  0  0  0  0  0  0  0
    8.3920   -1.1920   23.8340 C   0  0  0  0  0  0  0  0  0  0  0  0
    6.9070   -4.6980   20.4470 C   0  0  0  0  0  0  0  0  0  0  0  0
    7.6230    1.8350   23.0590 N   0  0  0  0  0  0  0  0  0  0  0  0
    8.6100    1.2410   21.0640 O   0  0  0  0  0  0  0  0  0  0  0  0
    4.9530    1.1910   20.0940 C   0  0  0  0  0  0  0  0  0  0  0  0
    6.7750    0.0720   19.0540 C   0  0  0  0  0  0  0  0  0  0  0  0
   10.6170   -1.8310   22.2290 C   0  0  0  0  0  0  0  0  0  0  0  0
    9.6490   -1.2580   24.3140 C   0  0  0  0  0  0  0  0  0  0  0  0
    7.5220   -4.3430   22.9740 C   0  0  0  0  0  0  0  0  0  0  0  0
    6.3180    0.5110   17.8300 N   0  0  0  0  0  0  0  0  0  0  0  0
    4.4950    1.6250   18.8710 C   0  0  0  0  0  0  0  0  0  0  0  0
    8.5100    3.0040   23.2380 C   0  0  0  0  0  0  0  0  0  0  0  0
   10.8120   -1.5730   23.5790 C   0  0  0  0  0  0  0  0  0  0  0  0
    8.7520   -4.9440   22.9230 C   0  0  0  0  0  0  0  0  0  0  0  0
    6.8560   -4.3760   24.2360 C   0  0  0  0  0  0  0  0  0  0  0  0
   12.1810   -1.6350   24.1550 C   0  0  0  0  0  0  0  0  0  0  0  0
    5.1900    1.2900   17.7150 C   0  0  0  0  0  0  0  0  0  0  0  0
    9.8460    2.9530   23.6180 C   0  0  0  0  0  0  0  0  0  0  0  0
    7.9340    4.2480   23.0080 C   0  0  0  0  0  0  0  0  0  0  0  0
    9.3130   -5.5430   24.0360 C   0  0  0  0  0  0  0  0  0  0  0  0
    7.4380   -4.9820   25.3570 C   0  0  0  0  0  0  0  0  0  0  0  0
    5.4820   -3.7940   24.5090 C   0  0  0  0  0  0  0  0  0  0  0  0
   12.3910   -2.8990   24.7990 O   0  0  0  0  0  0  0  0  0  0  0  0
   10.5620    1.6680   23.8830 C   0  0  0  0  0  0  0  0  0  0  0  0
   13.2360   -1.3720   23.0800 C   0  0  0  0  0  0  0  0  0  0  0  0
   12.3560   -0.5390   25.1790 C   0  0  0  0  0  0  0  0  0  0  0  0
   10.6800    4.2580   23.7930 C   0  0  0  0  0  0  0  0  0  0  0  0
    8.5760    5.4720   23.1350 C   0  0  0  0  0  0  0  0  0  0  0  0
    8.6790   -5.5680   25.2350 C   0  0  0  0  0  0  0  0  0  0  0  0
    4.4370   -4.6080   23.7500 C   0  0  1  0  0  0  0  0  0  0  0  0
   13.6350   -3.0250   25.4390 C   0  0  0  0  0  0  0  0  0  0  0  0
   10.0190    5.6360   23.5490 C   0  0  0  0  0  0  0  0  0  0  0  0
    5.1050   -5.2880   22.5180 C   0  0  0  0  0  0  0  0  0  0  0  0
    3.6520   -6.0640   24.6390 S   0  0  0  0  0  0  0  0  0  0  0  0
   10.8420    6.7990   23.7490 O   0  0  0  0  0  0  0  0  0  0  0  0
    4.5160   -6.6440   25.6420 O   0  0  0  0  0  0  0  0  0  0  0  0
    2.2410   -5.8480   24.8400 O   0  0  0  0  0  0  0  0  0  0  0  0
    4.5610   -6.5120   22.3260 C   0  0  0  0  0  0  0  0  0  0  0  0
    3.7920   -7.0520   23.2880 C   0  0  0  0  0  0  0  0  0  0  0  0
   11.8210    6.7140   24.7850 C   0  0  0  0  0  0  0  0  0  0  0  0
  1  2  1  0
  2  3  2  0
  1  4  1  0
  1  5  1  0
  2  6  1  0
  4  7  1  6
  4  8  1  0
  5  9  2  0
  5 10  1  0
  6 11  1  6
  7 12  1  0
  7 13  2  0
  8 14  2  0
  8 15  1  0
  9 16  1  0
 10 17  2  0
  6 18  1  0
 15 19  2  0
 14 20  1  0
 12 21  1  0
 16 22  2  0
 17 22  1  0
 18 23  2  0
 18 24  1  0
 22 25  1  0
 19 26  1  0
 20 26  2  0
 21 27  2  0
 21 28  1  0
 23 29  1  0
 24 30  2  0
 24 31  1  0
 25 32  1  0
 27 33  1  0
 25 34  1  0
 25 35  1  0
 27 36  1  0
 28 37  2  0
 29 38  2  0
 30 38  1  0
 39 31  1  1
 32 40  1  0
 36 41  2  0
 37 41  1  0
 39 42  1  0
 39 43  1  0
 41 44  1  0
 43 45  1  0
 43 46  1  0
 42 47  1  0
 43 48  1  0
 47 48  2  0
 44 49  1  0
M  END
