x2776-x1375
     RDKit          3D

 50 54  0  0  0  0  0  0  0  0999 V2000
    6.7330   -1.2800   21.9720 N   0  0  0  0  0  0  0  0  0  0  0  0
    6.0680   -2.5670   21.5400 C   0  0  0  0  0  0  0  0  0  0  0  0
    4.8130   -2.9830   21.2290 O   0  0  0  0  0  0  0  0  0  0  0  0
    6.5750    0.1720   21.5440 C   0  0  1  0  0  0  0  0  0  0  0  0
    8.0980   -1.3540   22.5000 C   0  0  0  0  0  0  0  0  0  0  0  0
    7.1480   -3.6010   21.4720 C   0  0  2  0  0  0  0  0  0  0  0  0
    7.8010    1.1620   21.7950 C   0  0  0  0  0  0  0  0  0  0  0  0
    6.0810    0.5080   20.1700 C   0  0  0  0  0  0  0  0  0  0  0  0
    9.1540   -1.6730   21.6440 C   0  0  0  0  0  0  0  0  0  0  0  0
    8.4120   -1.1090   23.8530 C   0  0  0  0  0  0  0  0  0  0  0  0
    6.8930   -4.5700   20.3650 C   0  0  0  0  0  0  0  0  0  0  0  0
    7.7340    1.9840   22.9130 N   0  0  0  0  0  0  0  0  0  0  0  0
    8.7420    1.2280   21.0070 O   0  0  0  0  0  0  0  0  0  0  0  0
    4.9250    1.2720   20.0690 C   0  0  0  0  0  0  0  0  0  0  0  0
    6.7270    0.1270   19.0030 C   0  0  0  0  0  0  0  0  0  0  0  0
   10.4730   -1.7750   22.0830 C   0  0  0  0  0  0  0  0  0  0  0  0
    9.7480   -1.2040   24.3020 C   0  0  0  0  0  0  0  0  0  0  0  0
    7.8020   -4.1090   22.7870 C   0  0  0  0  0  0  0  0  0  0  0  0
    6.2930    0.4730   17.7850 N   0  0  0  0  0  0  0  0  0  0  0  0
    4.4650    1.6360   18.8310 C   0  0  0  0  0  0  0  0  0  0  0  0
    8.4690    3.1900   23.1220 C   0  0  0  0  0  0  0  0  0  0  0  0
   10.7900   -1.5490   23.4130 C   0  0  0  0  0  0  0  0  0  0  0  0
    8.8210   -3.5400   23.4760 C   0  0  0  0  0  0  0  0  0  0  0  0
    7.5110   -5.3170   23.5480 C   0  0  0  0  0  0  0  0  0  0  0  0
   12.2300   -1.6780   23.8700 C   0  0  2  0  0  0  0  0  0  0  0  0
    5.1780    1.2220   17.7430 C   0  0  0  0  0  0  0  0  0  0  0  0
    9.7870    3.1060   23.6250 C   0  0  0  0  0  0  0  0  0  0  0  0
    7.9470    4.4600   22.8470 C   0  0  0  0  0  0  0  0  0  0  0  0
    9.6680   -3.7160   24.6850 C   0  0  0  0  0  0  0  0  0  0  0  0
    8.2730   -5.6460   24.8000 C   0  0  0  0  0  0  0  0  0  0  0  0
    8.2690   -4.6960   24.1850 C   0  0  0  0  0  0  0  0  0  0  0  0
   12.3070   -2.2560   25.1750 O   0  0  0  0  0  0  0  0  0  0  0  0
   10.4490    1.8010   23.9510 C   0  0  0  0  0  0  0  0  0  0  0  0
   12.8740   -0.2960   23.8290 C   0  0  0  0  0  0  0  0  0  0  0  0
   10.5260    4.2930   23.8360 C   0  0  0  0  0  0  0  0  0  0  0  0
    8.7030    5.6310   23.0710 C   0  0  0  0  0  0  0  0  0  0  0  0
    9.3290   -4.8560   25.3480 C   0  0  0  0  0  0  0  0  0  0  0  0
    6.8490   -4.2020   24.8230 C   0  0  0  0  0  0  0  0  0  0  0  0
   13.4630   -3.0330   25.4220 C   0  0  0  0  0  0  0  0  0  0  0  0
    9.9840   -5.2210   26.4690 F   0  0  0  0  0  0  0  0  0  0  0  0
    9.9980    5.5540   23.5700 C   0  0  0  0  0  0  0  0  0  0  0  0
    5.5920   -5.0410   24.5350 C   0  0  0  0  0  0  0  0  0  0  0  0
   10.8310    6.6170   23.8360 O   0  0  0  0  0  0  0  0  0  0  0  0
    4.9160   -5.0000   23.1530 C   0  0  0  0  0  0  0  0  0  0  0  0
    5.0050   -5.8840   25.4000 C   0  0  0  0  0  0  0  0  0  0  0  0
   11.7940    6.4880   24.8870 C   0  0  0  0  0  0  0  0  0  0  0  0
    4.3320   -6.3970   22.9630 C   0  0  0  0  0  0  0  0  0  0  0  0
    3.7700   -6.6730   24.5970 S   0  0  0  0  0  0  0  0  0  0  0  0
    2.3220   -6.0350   24.7230 O   0  0  0  0  0  0  0  0  0  0  0  0
    3.7550   -8.2170   24.9550 O   0  0  0  0  0  0  0  0  0  0  0  0
  1  2  1  0
  2  3  2  0
  1  4  1  0
  1  5  1  0
  2  6  1  0
  4  7  1  6
  4  8  1  0
  5  9  2  0
  5 10  1  0
  6 11  1  1
  7 12  1  0
  7 13  2  0
  8 14  2  0
  8 15  1  0
  9 16  1  0
 10 17  2  0
  6 18  1  0
 15 19  2  0
 14 20  1  0
 12 21  1  0
 16 22  2  0
 17 22  1  0
 18 23  1  0
 18 24  2  0
 22 25  1  0
 19 26  1  0
 20 26  2  0
 21 27  2  0
 21 28  1  0
 23 29  2  0
 24 30  1  0
 23 31  1  0
 25 32  1  0
 27 33  1  0
 25 34  1  1
 27 35  1  0
 28 36  2  0
 29 37  1  0
 30 37  2  0
 31 38  1  0
 32 39  1  0
 37 40  1  0
 35 41  2  0
 36 41  1  0
 38 42  1  0
 41 43  1  0
 42 44  1  0
 42 45  2  0
 43 46  1  0
 44 47  1  0
 45 48  1  0
 47 48  1  0
 48 49  1  0
 48 50  1  0
M  END
