x2776-x2705-x0786-x0769
     RDKit          3D

 59 65  0  0  0  0  0  0  0  0999 V2000
    6.9120   -1.4420   21.4120 N   0  0  0  0  0  0  0  0  0  0  0  0
    6.0350   -2.6450   21.2630 C   0  0  0  0  0  0  0  0  0  0  0  0
    4.8150   -2.9000   20.8300 O   0  0  0  0  0  0  0  0  0  0  0  0
    6.5390    0.0340   21.4490 C   0  0  1  0  0  0  0  0  0  0  0  0
    8.0890   -1.6520   22.2880 C   0  0  0  0  0  0  0  0  0  0  0  0
    6.6620   -3.8980   21.7180 C   0  0  2  0  0  0  0  0  0  0  0  0
    7.6590    0.8880   21.7760 C   0  0  0  0  0  0  0  0  0  0  0  0
    5.9670    0.5690   20.1590 C   0  0  0  0  0  0  0  0  0  0  0  0
    9.4060   -1.7620   21.8680 C   0  0  0  0  0  0  0  0  0  0  0  0
    7.7770   -1.7080   23.5860 C   0  0  0  0  0  0  0  0  0  0  0  0
    6.7040   -4.8650   20.5330 C   0  0  0  0  0  0  0  0  0  0  0  0
    7.4030    1.9480   22.6590 N   0  0  0  0  0  0  0  0  0  0  0  0
    8.7890    0.7510   21.3100 O   0  0  0  0  0  0  0  0  0  0  0  0
    4.8620    1.3020   20.1580 C   0  0  0  0  0  0  0  0  0  0  0  0
    6.7200    0.2600   18.8470 C   0  0  0  0  0  0  0  0  0  0  0  0
   10.5250   -1.9500   22.8820 C   0  0  0  0  0  0  0  0  0  0  0  0
    8.6630   -1.8710   24.5670 C   0  0  0  0  0  0  0  0  0  0  0  0
    5.8100   -4.2450   22.9450 C   0  0  1  0  0  0  0  0  0  0  0  0
   11.9760   -2.0600   22.5520 C   0  0  0  0  0  0  0  0  0  0  0  0
    6.3340    0.7020   17.6770 N   0  0  0  0  0  0  0  0  0  0  0  0
    4.3800    1.8290   18.8420 C   0  0  0  0  0  0  0  0  0  0  0  0
    8.3090    3.0430   22.9320 C   0  0  0  0  0  0  0  0  0  0  0  0
   10.1190   -2.0120   24.3300 C   0  0  0  0  0  0  0  0  0  0  0  0
    4.8990   -5.3470   22.9460 C   0  0  0  0  0  0  0  0  0  0  0  0
    6.6440   -4.4900   24.1400 C   0  0  0  0  0  0  0  0  0  0  0  0
   12.6220   -1.3930   23.5850 C   0  0  1  0  0  0  0  0  0  0  0  0
    5.2210    1.4630   17.6380 C   0  0  0  0  0  0  0  0  0  0  0  0
    9.7340    2.9330   23.5510 C   0  0  0  0  0  0  0  0  0  0  0  0
    7.7640    4.4170   22.5730 C   0  0  0  0  0  0  0  0  0  0  0  0
    4.9010   -5.8280   24.2390 C   0  0  1  0  0  0  0  0  0  0  0  0
    5.6270   -4.7980   24.9990 C   0  0  2  0  0  0  0  0  0  0  0  0
   13.6880   -2.2450   24.0080 O   0  0  0  0  0  0  0  0  0  0  0  0
   10.3260    1.6290   23.9220 C   0  0  0  0  0  0  0  0  0  0  0  0
   13.1110   -0.1560   23.2160 C   0  0  0  0  0  0  0  0  0  0  0  0
    6.4000    4.6180   21.9570 C   0  0  0  0  0  0  0  0  0  0  0  0
    3.6180   -6.5220   24.8880 C   0  0  1  0  0  0  0  0  0  0  0  0
    5.0790   -3.4680   25.1350 O   0  0  0  0  0  0  0  0  0  0  0  0
   10.4590    4.0610   23.7700 C   0  0  0  0  0  0  0  0  0  0  0  0
    8.5860    5.6500   22.8300 C   0  0  0  0  0  0  0  0  0  0  0  0
   13.4110   -2.8280   25.2990 C   0  0  0  0  0  0  0  0  0  0  0  0
    9.5340    0.9000   24.8980 C   0  0  0  0  0  0  0  0  0  0  0  0
    3.9750   -7.6690   25.1980 O   0  0  0  0  0  0  0  0  0  0  0  0
    3.3650   -5.7890   26.4150 S   0  0  0  0  0  0  0  0  0  0  0  0
    9.9830    5.4310   23.4600 C   0  0  0  0  0  0  0  0  0  0  0  0
    2.5190   -6.7130   24.1050 N   0  0  0  0  0  0  0  0  0  0  0  0
    4.0490   -3.2340   26.0810 C   0  0  2  0  0  0  0  0  0  0  0  0
   10.7880    6.5220   23.7310 O   0  0  0  0  0  0  0  0  0  0  0  0
    4.6270   -5.7600   27.1310 O   0  0  0  0  0  0  0  0  0  0  0  0
    1.8320   -5.6570   23.3160 C   0  0  0  0  0  0  0  0  0  0  0  0
    1.6410   -7.8890   24.3160 C   0  0  0  0  0  0  0  0  0  0  0  0
    3.0210   -4.1010   25.7920 C   0  0  2  0  0  0  0  0  0  0  0  0
    3.7070   -1.8430   25.9720 C   0  0  0  0  0  0  0  0  0  0  0  0
   11.7820    6.4150   24.7540 C   0  0  0  0  0  0  0  0  0  0  0  0
    0.3800   -5.2430   23.7660 C   0  0  0  0  0  0  0  0  0  0  0  0
    0.4910   -7.5980   25.1220 C   0  0  0  0  0  0  0  0  0  0  0  0
    1.7280   -3.7430   26.0990 C   0  0  0  0  0  0  0  0  0  0  0  0
    2.3580   -1.4560   26.0400 C   0  0  0  0  0  0  0  0  0  0  0  0
   -0.7360   -6.5700   24.2810 S   0  0  0  0  0  0  0  0  0  0  0  0
    1.3870   -2.4180   26.2180 C   0  0  0  0  0  0  0  0  0  0  0  0
  1  2  1  0
  2  3  2  0
  1  4  1  0
  1  5  1  0
  2  6  1  0
  4  7  1  6
  4  8  1  0
  5  9  2  0
  5 10  1  0
  6 11  1  6
  7 12  1  0
  7 13  2  0
  8 14  2  0
  8 15  1  0
  9 16  1  0
 10 17  2  0
  6 18  1  0
 16 19  1  0
 15 20  2  0
 14 21  1  0
 12 22  1  0
 16 23  2  0
 17 23  1  0
 18 24  1  6
 18 25  1  0
 19 26  1  0
 20 27  1  0
 21 27  2  0
 22 28  2  0
 22 29  1  0
 30 24  1  6
 31 25  1  6
 30 31  1  0
 26 32  1  0
 28 33  1  0
 26 34  1  6
 29 35  1  0
 30 36  1  0
 31 37  1  0
 28 38  1  0
 29 39  2  0
 32 40  1  0
 33 41  1  0
 36 42  1  1
 43 36  1  6
 38 44  2  0
 39 44  1  0
 36 45  1  0
 37 46  1  0
 44 47  1  0
 43 48  2  0
 45 49  1  0
 45 50  1  0
 43 51  1  0
 46 51  1  0
 46 52  1  6
 47 53  1  0
 49 54  1  0
 50 55  1  0
 51 56  1  1
 52 57  2  0
 54 58  1  0
 55 58  1  0
 56 59  2  0
 57 59  1  0
M  END
