x2776-x1392
     RDKit          3D

 41 45  0  0  0  0  0  0  0  0999 V2000
    6.8600   -1.4640   20.7540 N   0  0  0  0  0  0  0  0  0  0  0  0
    5.9820   -2.6230   20.9560 C   0  0  0  0  0  0  0  0  0  0  0  0
    4.8190   -2.9340   20.5620 O   0  0  0  0  0  0  0  0  0  0  0  0
    6.6360   -0.0690   21.2190 C   0  0  1  0  0  0  0  0  0  0  0  0
    6.6400   -3.6450   21.7790 C   0  0  1  0  0  0  0  0  0  0  0  0
    7.9150    0.7270   21.7230 C   0  0  0  0  0  0  0  0  0  0  0  0
    6.0500    0.5840   20.0320 C   0  0  0  0  0  0  0  0  0  0  0  0
    7.2940   -4.8140   20.9590 C   0  0  0  0  0  0  0  0  0  0  0  0
    7.6760    1.8490   22.6820 N   0  0  0  0  0  0  0  0  0  0  0  0
    9.0350    0.4610   21.3350 O   0  0  0  0  0  0  0  0  0  0  0  0
    4.9360    1.4050   20.0090 C   0  0  0  0  0  0  0  0  0  0  0  0
    6.7530    0.3010   18.7460 C   0  0  0  0  0  0  0  0  0  0  0  0
    7.6610   -2.7490   22.5480 C   0  0  2  0  0  0  0  0  0  0  0  0
    6.3290    0.8340   17.5960 N   0  0  0  0  0  0  0  0  0  0  0  0
    4.4770    1.9620   18.8380 C   0  0  0  0  0  0  0  0  0  0  0  0
    8.4480    3.0420   22.9450 C   0  0  0  0  0  0  0  0  0  0  0  0
    9.0880   -2.7400   21.9010 C   0  0  0  0  0  0  0  0  0  0  0  0
    8.3960   -3.4210   23.6180 C   0  0  0  0  0  0  0  0  0  0  0  0
    5.1500    1.6990   17.6240 C   0  0  0  0  0  0  0  0  0  0  0  0
    9.7470    2.9570   23.5260 C   0  0  0  0  0  0  0  0  0  0  0  0
    7.9600    4.3400   22.6500 C   0  0  0  0  0  0  0  0  0  0  0  0
   10.4540   -2.4900   22.2660 C   0  0  0  0  0  0  0  0  0  0  0  0
    8.5800   -2.4320   23.2160 C   0  0  0  0  0  0  0  0  0  0  0  0
    9.6700   -2.5010   23.8190 C   0  0  0  0  0  0  0  0  0  0  0  0
    7.9780   -4.6300   24.1870 C   0  0  0  0  0  0  0  0  0  0  0  0
   10.4080    1.6560   23.8990 C   0  0  0  0  0  0  0  0  0  0  0  0
   10.4560    4.1510   23.7680 C   0  0  0  0  0  0  0  0  0  0  0  0
    8.6930    5.5100   22.9100 C   0  0  0  0  0  0  0  0  0  0  0  0
   10.9560   -2.0500   23.7120 C   0  0  0  0  0  0  0  0  0  0  0  0
    8.6580   -2.0980   24.5410 C   0  0  0  0  0  0  0  0  0  0  0  0
    8.7330   -5.2510   25.0920 C   0  0  0  0  0  0  0  0  0  0  0  0
   10.4130   -3.3360   24.7720 C   0  0  0  0  0  0  0  0  0  0  0  0
   12.4620   -1.8090   23.8600 C   0  0  2  0  0  0  0  0  0  0  0  0
    9.9610    5.4220   23.4810 C   0  0  0  0  0  0  0  0  0  0  0  0
   10.0310   -1.8870   24.8020 C   0  0  0  0  0  0  0  0  0  0  0  0
    9.9370   -4.6440   25.3800 C   0  0  0  0  0  0  0  0  0  0  0  0
   10.7740    6.4930   23.7900 O   0  0  0  0  0  0  0  0  0  0  0  0
   12.8220   -1.9120   25.2340 O   0  0  0  0  0  0  0  0  0  0  0  0
   12.8950   -0.5670   23.4020 C   0  0  0  0  0  0  0  0  0  0  0  0
   11.7830    6.3520   24.7900 C   0  0  0  0  0  0  0  0  0  0  0  0
   13.5350   -3.0910   25.5450 C   0  0  0  0  0  0  0  0  0  0  0  0
  1  2  1  0
  2  3  2  0
  4  1  1  6
  2  5  1  0
  4  6  1  0
  4  7  1  0
  5  8  1  6
  6  9  1  0
  6 10  2  0
  7 11  2  0
  7 12  1  0
  5 13  1  0
 12 14  2  0
 11 15  1  0
  9 16  1  0
 13 17  1  6
 13 18  1  0
 14 19  1  0
 15 19  2  0
 16 20  2  0
 16 21  1  0
 17 22  2  0
 17 23  1  0
 18 24  2  0
 23 24  1  0
 18 25  1  0
 20 26  1  0
 20 27  1  0
 21 28  2  0
 22 29  1  0
 23 30  2  0
 25 31  2  0
 24 32  1  0
 29 33  1  0
 27 34  2  0
 28 34  1  0
 29 35  2  0
 30 35  1  0
 31 36  1  0
 32 36  2  0
 34 37  1  0
 33 38  1  0
 33 39  1  1
 37 40  1  0
 38 41  1  0
M  END
