x2776-x1374
     RDKit          3D

 50 54  0  0  0  0  0  0  0  0999 V2000
    6.6210   -1.0940   22.0770 N   0  0  0  0  0  0  0  0  0  0  0  0
    6.0680   -2.3470   21.4470 C   0  0  0  0  0  0  0  0  0  0  0  0
    4.8260   -2.9670   21.2000 O   0  0  0  0  0  0  0  0  0  0  0  0
    6.4960    0.3120   21.6140 C   0  0  1  0  0  0  0  0  0  0  0  0
    8.0200   -1.2150   22.6100 C   0  0  0  0  0  0  0  0  0  0  0  0
    7.3050   -3.0790   21.0390 C   0  0  2  0  0  0  0  0  0  0  0  0
    7.7710    1.1930   21.8290 C   0  0  0  0  0  0  0  0  0  0  0  0
    6.0310    0.6080   20.2400 C   0  0  0  0  0  0  0  0  0  0  0  0
    9.1190   -1.2630   21.7190 C   0  0  0  0  0  0  0  0  0  0  0  0
    8.3940   -1.2870   23.9600 C   0  0  0  0  0  0  0  0  0  0  0  0
    6.9660   -3.6860   19.6910 C   0  0  0  0  0  0  0  0  0  0  0  0
    7.8240    1.9960   23.0490 N   0  0  0  0  0  0  0  0  0  0  0  0
    8.6550    1.2540   20.9800 O   0  0  0  0  0  0  0  0  0  0  0  0
    4.9090    1.3890   20.0480 C   0  0  0  0  0  0  0  0  0  0  0  0
    6.7080    0.1530   19.0950 C   0  0  0  0  0  0  0  0  0  0  0  0
   10.5790   -1.4090   22.1910 C   0  0  0  0  0  0  0  0  0  0  0  0
    9.7540   -1.4160   24.4030 C   0  0  0  0  0  0  0  0  0  0  0  0
    7.7590   -3.9880   22.1950 C   0  0  0  0  0  0  0  0  0  0  0  0
    6.2860    0.4840   17.7400 N   0  0  0  0  0  0  0  0  0  0  0  0
    4.4300    1.7550   18.8010 C   0  0  0  0  0  0  0  0  0  0  0  0
    8.5060    3.2050   23.2020 C   0  0  0  0  0  0  0  0  0  0  0  0
   10.8520   -1.4880   23.5310 C   0  0  0  0  0  0  0  0  0  0  0  0
    8.8180   -3.7480   23.1260 C   0  0  0  0  0  0  0  0  0  0  0  0
    6.9320   -5.0330   22.1240 C   0  0  0  0  0  0  0  0  0  0  0  0
   12.2600   -1.6460   24.0460 C   0  0  2  0  0  0  0  0  0  0  0  0
    5.1060    1.3210   17.7120 C   0  0  0  0  0  0  0  0  0  0  0  0
    9.8420    3.1580   23.6280 C   0  0  0  0  0  0  0  0  0  0  0  0
    7.9260    4.5930   22.9440 C   0  0  0  0  0  0  0  0  0  0  0  0
    9.1880   -4.5190   24.1430 C   0  0  0  0  0  0  0  0  0  0  0  0
    7.3600   -5.8110   23.1980 C   0  0  0  0  0  0  0  0  0  0  0  0
   12.2150   -2.4970   25.1890 O   0  0  0  0  0  0  0  0  0  0  0  0
   10.4950    1.9180   23.8920 C   0  0  0  0  0  0  0  0  0  0  0  0
   12.8440   -0.4590   24.3960 C   0  0  0  0  0  0  0  0  0  0  0  0
   10.3070   -4.2250   25.0970 C   0  0  0  0  0  0  0  0  0  0  0  0
   10.5920    4.3320   23.8100 C   0  0  0  0  0  0  0  0  0  0  0  0
    8.7330    5.7210   23.1510 C   0  0  0  0  0  0  0  0  0  0  0  0
    8.3310   -5.7020   24.1740 C   0  0  0  0  0  0  0  0  0  0  0  0
    6.3690   -6.8690   22.9520 C   0  0  0  0  0  0  0  0  0  0  0  0
   13.4560   -3.1020   25.4980 C   0  0  0  0  0  0  0  0  0  0  0  0
   10.0570    5.5920   23.5860 C   0  0  0  0  0  0  0  0  0  0  0  0
    5.4250   -6.2080   21.9720 C   0  0  0  0  0  0  0  0  0  0  0  0
   10.9180    6.6360   23.8230 O   0  0  0  0  0  0  0  0  0  0  0  0
    4.3230   -5.4700   22.7410 C   0  0  2  0  0  0  0  0  0  0  0  0
   11.7960    6.5270   24.9420 C   0  0  0  0  0  0  0  0  0  0  0  0
    4.8690   -4.9740   23.9330 C   0  0  0  0  0  0  0  0  0  0  0  0
    3.3020   -6.4160   22.8720 C   0  0  0  0  0  0  0  0  0  0  0  0
    3.3490   -6.7580   24.6500 S   0  0  0  0  0  0  0  0  0  0  0  0
    4.5000   -5.4930   25.0920 C   0  0  0  0  0  0  0  0  0  0  0  0
    2.0010   -6.4540   25.0430 O   0  0  0  0  0  0  0  0  0  0  0  0
    3.8920   -8.0660   24.9320 O   0  0  0  0  0  0  0  0  0  0  0  0
  1  2  1  0
  2  3  2  0
  1  4  1  0
  1  5  1  0
  2  6  1  0
  4  7  1  6
  4  8  1  0
  5  9  2  0
  5 10  1  0
  6 11  1  6
  7 12  1  0
  7 13  2  0
  8 14  2  0
  8 15  1  0
  9 16  1  0
 10 17  2  0
  6 18  1  0
 15 19  2  0
 14 20  1  0
 12 21  1  0
 16 22  2  0
 17 22  1  0
 18 23  2  0
 18 24  1  0
 22 25  1  0
 19 26  1  0
 20 26  2  0
 21 27  2  0
 21 28  1  0
 23 29  1  0
 24 30  2  0
 25 31  1  0
 27 32  1  0
 25 33  1  1
 29 34  1  0
 27 35  1  0
 28 36  2  0
 29 37  2  0
 30 37  1  0
 30 38  1  0
 31 39  1  0
 35 40  2  0
 36 40  1  0
 38 41  1  0
 40 42  1  0
 43 41  1  6
 42 44  1  0
 43 45  1  0
 43 46  1  0
 46 47  1  0
 45 48  2  0
 47 48  1  0
 47 49  1  0
 47 50  1  0
M  END
