x2776-x1348-x2643-x2754
     RDKit          3D

 54 59  0  0  0  0  0  0  0  0999 V2000
    6.9170   -1.5020   21.9230 N   0  0  0  0  0  0  0  0  0  0  0  0
    6.1910   -2.8040   21.6460 C   0  0  0  0  0  0  0  0  0  0  0  0
    4.9100   -3.1330   21.2940 O   0  0  0  0  0  0  0  0  0  0  0  0
    6.6100   -0.0770   21.5700 C   0  0  1  0  0  0  0  0  0  0  0  0
    8.3250   -1.5940   22.4080 C   0  0  0  0  0  0  0  0  0  0  0  0
    7.2680   -3.9210   21.8730 C   0  0  2  0  0  0  0  0  0  0  0  0
    7.7520    1.0530   21.8230 C   0  0  0  0  0  0  0  0  0  0  0  0
    6.0740    0.3400   20.1910 C   0  0  0  0  0  0  0  0  0  0  0  0
    9.4510   -1.9240   21.7080 C   0  0  0  0  0  0  0  0  0  0  0  0
    8.3880   -1.2940   23.7570 C   0  0  0  0  0  0  0  0  0  0  0  0
    6.7670   -3.9350   20.3520 C   0  0  0  0  0  0  0  0  0  0  0  0
    7.6750    1.8870   23.0330 N   0  0  0  0  0  0  0  0  0  0  0  0
    8.6600    1.2660   21.0260 O   0  0  0  0  0  0  0  0  0  0  0  0
    4.9210    1.0850   20.0590 C   0  0  0  0  0  0  0  0  0  0  0  0
    6.8420   -0.0500   19.0240 C   0  0  0  0  0  0  0  0  0  0  0  0
   10.7460   -2.0080   22.2460 C   0  0  0  0  0  0  0  0  0  0  0  0
    9.7720   -1.3480   24.4890 C   0  0  0  0  0  0  0  0  0  0  0  0
    6.8270   -5.0570   22.8580 N   0  0  0  0  0  0  0  0  0  0  0  0
    6.3330    0.3940   17.8400 N   0  0  0  0  0  0  0  0  0  0  0  0
    4.4770    1.4850   18.8380 C   0  0  0  0  0  0  0  0  0  0  0  0
    8.4430    3.1000   23.1850 C   0  0  0  0  0  0  0  0  0  0  0  0
   10.9210   -1.7400   23.5840 C   0  0  0  0  0  0  0  0  0  0  0  0
    6.1200   -4.8330   24.1840 C   0  0  2  0  0  0  0  0  0  0  0  0
    5.9520   -5.8040   22.0050 C   0  0  0  0  0  0  0  0  0  0  0  0
   12.3170   -1.8620   24.0700 C   0  0  2  0  0  0  0  0  0  0  0  0
    5.2030    1.1290   17.7840 C   0  0  0  0  0  0  0  0  0  0  0  0
    9.7820    3.0520   23.6180 C   0  0  0  0  0  0  0  0  0  0  0  0
    7.8830    4.3590   22.9190 C   0  0  0  0  0  0  0  0  0  0  0  0
    6.8840   -5.1360   25.4720 C   0  0  1  0  0  0  0  0  0  0  0  0
    4.9660   -5.8320   24.0020 C   0  0  2  0  0  0  0  0  0  0  0  0
    4.3410   -6.3960   22.4650 S   0  0  0  0  0  0  0  0  0  0  0  0
   12.2800   -2.5680   25.3010 O   0  0  0  0  0  0  0  0  0  0  0  0
   10.4700    1.7600   23.9210 C   0  0  0  0  0  0  0  0  0  0  0  0
   12.8690   -0.5050   24.3010 C   0  0  0  0  0  0  0  0  0  0  0  0
    7.6570   -4.0410   26.2680 O   0  0  0  0  0  0  0  0  0  0  0  0
   10.5490    4.2230   23.7930 C   0  0  0  0  0  0  0  0  0  0  0  0
    8.6450    5.5150   23.0970 C   0  0  0  0  0  0  0  0  0  0  0  0
    3.9800   -5.6450   25.1130 C   0  0  0  0  0  0  0  0  0  0  0  0
    6.1080   -5.7940   26.5140 C   0  0  0  0  0  0  0  0  0  0  0  0
   13.5120   -3.1670   25.6100 C   0  0  0  0  0  0  0  0  0  0  0  0
    9.9660    5.4810   23.5330 C   0  0  0  0  0  0  0  0  0  0  0  0
    4.6110   -5.6480   26.4510 C   0  0  0  0  0  0  0  0  0  0  0  0
    7.2100   -4.0820   27.5660 C   0  0  0  0  0  0  0  0  0  0  0  0
   10.8380    6.6110   23.7580 O   0  0  0  0  0  0  0  0  0  0  0  0
    8.4530   -4.8810   27.8000 C   0  0  0  0  0  0  0  0  0  0  0  0
    6.5920   -3.3460   26.6410 C   0  0  0  0  0  0  0  0  0  0  0  0
   11.7810    6.5230   24.8290 C   0  0  0  0  0  0  0  0  0  0  0  0
    5.3520   -2.6650   26.6950 N   0  0  0  0  0  0  0  0  0  0  0  0
    9.2800   -4.7520   26.5280 C   0  0  0  0  0  0  0  0  0  0  0  0
    7.4650   -3.2860   25.5010 C   0  0  0  0  0  0  0  0  0  0  0  0
    4.5920   -2.4940   25.5200 C   0  0  0  0  0  0  0  0  0  0  0  0
    4.9460   -2.0840   27.9900 C   0  0  0  0  0  0  0  0  0  0  0  0
    8.7710   -3.9660   25.4580 C   0  0  0  0  0  0  0  0  0  0  0  0
    3.4950   -2.9630   25.2370 O   0  0  0  0  0  0  0  0  0  0  0  0
  1  2  1  0
  2  3  2  0
  1  4  1  0
  1  5  1  0
  2  6  1  0
  4  7  1  6
  4  8  1  0
  5  9  2  0
  5 10  1  0
  6 11  1  6
  7 12  1  0
  7 13  2  0
  8 14  2  0
  8 15  1  0
  9 16  1  0
 10 17  2  0
  6 18  1  0
 15 19  2  0
 14 20  1  0
 12 21  1  0
 16 22  2  0
 17 22  1  0
 23 18  1  6
 18 24  1  0
 22 25  1  0
 19 26  1  0
 20 26  2  0
 21 27  2  0
 21 28  1  0
 23 29  1  0
 23 30  1  0
 24 31  2  0
 30 31  1  0
 25 32  1  0
 27 33  1  0
 25 34  1  1
 29 35  1  1
 27 36  1  0
 28 37  2  0
 30 38  1  6
 29 39  1  0
 32 40  1  0
 36 41  2  0
 37 41  1  0
 38 42  2  0
 39 42  1  0
 35 43  1  0
 41 44  1  0
 43 45  2  0
 43 46  1  0
 44 47  1  0
 46 48  1  0
 45 49  1  0
 46 50  2  0
 48 51  1  0
 48 52  1  0
 49 53  2  0
 50 53  1  0
 51 54  2  0
M  END
