x2776-x2694
     RDKit          3D

 35 37  0  0  0  0  0  0  0  0999 V2000
    6.9800   -1.3840   21.4580 N   0  0  0  0  0  0  0  0  0  0  0  0
    5.7840   -2.2510   21.3400 C   0  0  0  0  0  0  0  0  0  0  0  0
    4.9540   -3.2300   21.2560 O   0  0  0  0  0  0  0  0  0  0  0  0
    6.7970    0.0790   21.3820 C   0  0  1  0  0  0  0  0  0  0  0  0
    8.0630   -1.5670   22.4120 C   0  0  0  0  0  0  0  0  0  0  0  0
    6.7240   -3.4530   21.4360 C   0  0  0  0  0  0  0  0  0  0  0  0
    8.0460    0.9120   21.8180 C   0  0  0  0  0  0  0  0  0  0  0  0
    6.2130    0.5620   20.1020 C   0  0  0  0  0  0  0  0  0  0  0  0
    9.3890   -1.7650   22.0040 C   0  0  0  0  0  0  0  0  0  0  0  0
    7.8630   -1.5250   23.7630 C   0  0  0  0  0  0  0  0  0  0  0  0
    6.6060   -4.2920   20.1550 C   0  0  0  0  0  0  0  0  0  0  0  0
    7.8230    1.9350   22.8580 N   0  0  0  0  0  0  0  0  0  0  0  0
    9.1320    0.7470   21.3070 O   0  0  0  0  0  0  0  0  0  0  0  0
    5.0870    1.3640   20.0490 C   0  0  0  0  0  0  0  0  0  0  0  0
    6.8080    0.2220   18.8850 C   0  0  0  0  0  0  0  0  0  0  0  0
   10.5370   -1.9180   23.0090 C   0  0  0  0  0  0  0  0  0  0  0  0
    8.8890   -1.6610   24.6910 C   0  0  0  0  0  0  0  0  0  0  0  0
   11.9690   -2.1060   22.6490 C   0  0  0  0  0  0  0  0  0  0  0  0
    6.3230    0.6760   17.5910 N   0  0  0  0  0  0  0  0  0  0  0  0
    4.5390    1.8490   18.8580 C   0  0  0  0  0  0  0  0  0  0  0  0
    8.5130    3.1430   23.0630 C   0  0  0  0  0  0  0  0  0  0  0  0
   10.2060   -1.8580   24.3370 C   0  0  0  0  0  0  0  0  0  0  0  0
   12.7210   -1.3530   23.7310 C   0  0  1  0  0  0  0  0  0  0  0  0
    5.1490    1.5150   17.6880 C   0  0  0  0  0  0  0  0  0  0  0  0
    9.8290    3.0970   23.5750 C   0  0  0  0  0  0  0  0  0  0  0  0
    7.9540    4.5360   22.7770 C   0  0  0  0  0  0  0  0  0  0  0  0
   13.7660   -2.2250   24.1420 O   0  0  0  0  0  0  0  0  0  0  0  0
   10.4820    1.8620   23.8870 C   0  0  0  0  0  0  0  0  0  0  0  0
   13.1630   -0.2210   23.0810 C   0  0  0  0  0  0  0  0  0  0  0  0
   10.5630    4.2810   23.8010 C   0  0  0  0  0  0  0  0  0  0  0  0
    8.7480    5.6680   23.0340 C   0  0  0  0  0  0  0  0  0  0  0  0
   13.4440   -2.8430   25.3750 C   0  0  0  0  0  0  0  0  0  0  0  0
   10.0430    5.5420   23.5460 C   0  0  0  0  0  0  0  0  0  0  0  0
   10.8830    6.6000   23.8300 O   0  0  0  0  0  0  0  0  0  0  0  0
   11.7990    6.4810   24.9210 C   0  0  0  0  0  0  0  0  0  0  0  0
  1  2  1  0
  2  3  2  0
  1  4  1  0
  1  5  1  0
  2  6  1  0
  4  7  1  6
  4  8  1  0
  5  9  2  0
  5 10  1  0
  6 11  1  0
  7 12  1  0
  7 13  2  0
  8 14  2  0
  8 15  1  0
  9 16  1  0
 10 17  2  0
 16 18  1  0
 15 19  2  0
 14 20  1  0
 12 21  1  0
 16 22  2  0
 17 22  1  0
 18 23  1  0
 19 24  1  0
 20 24  2  0
 21 25  2  0
 21 26  1  0
 23 27  1  0
 25 28  1  0
 23 29  1  6
 25 30  1  0
 26 31  2  0
 27 32  1  0
 30 33  2  0
 31 33  1  0
 33 34  1  0
 34 35  1  0
M  END
