x2776-x0731
     RDKit          3D

 52 57  0  0  0  0  0  0  0  0999 V2000
    6.6600   -1.3520   21.9420 C   0  0  1  0  0  0  0  0  0  0  0  0
    5.5430   -2.2520   21.2080 C   0  0  0  0  0  0  0  0  0  0  0  0
    4.8480   -2.9910   20.4360 O   0  0  0  0  0  0  0  0  0  0  0  0
    6.5580    0.1390   21.6310 C   0  0  1  0  0  0  0  0  0  0  0  0
    5.9340   -2.0560   23.1130 C   0  0  0  0  0  0  0  0  0  0  0  0
    8.1760   -1.5620   22.3820 C   0  0  0  0  0  0  0  0  0  0  0  0
    6.4590   -2.4910   20.1100 C   0  0  0  0  0  0  0  0  0  0  0  0
    7.7790    1.1270   21.8260 C   0  0  0  0  0  0  0  0  0  0  0  0
    5.5020   -3.3180   22.6840 C   0  0  0  0  0  0  0  0  0  0  0  0
    6.0950    0.5500   20.2420 C   0  0  0  0  0  0  0  0  0  0  0  0
    9.2190   -1.9860   21.5860 C   0  0  0  0  0  0  0  0  0  0  0  0
    8.5170   -1.2660   23.7340 C   0  0  0  0  0  0  0  0  0  0  0  0
    6.6820   -3.9590   20.2080 C   0  0  0  0  0  0  0  0  0  0  0  0
    7.7340    1.9310   22.9640 N   0  0  0  0  0  0  0  0  0  0  0  0
    8.6880    1.2140   21.0020 O   0  0  0  0  0  0  0  0  0  0  0  0
    4.8430    1.3950   20.1890 C   0  0  0  0  0  0  0  0  0  0  0  0
    6.7400    0.2150   19.0820 C   0  0  0  0  0  0  0  0  0  0  0  0
   10.6500   -2.1330   22.1010 C   0  0  0  0  0  0  0  0  0  0  0  0
    9.7970   -1.3820   24.2560 C   0  0  0  0  0  0  0  0  0  0  0  0
    6.4650   -4.3490   21.7790 C   0  0  0  0  0  0  0  0  0  0  0  0
    6.3530    0.5890   17.8520 N   0  0  0  0  0  0  0  0  0  0  0  0
    4.3980    1.8230   18.8130 C   0  0  0  0  0  0  0  0  0  0  0  0
    8.4820    3.1250   23.1630 C   0  0  0  0  0  0  0  0  0  0  0  0
   10.9160   -1.8350   23.3940 C   0  0  0  0  0  0  0  0  0  0  0  0
    7.7180   -4.6110   22.6000 C   0  0  0  0  0  0  0  0  0  0  0  0
    5.8350   -5.7710   21.7730 C   0  0  0  0  0  0  0  0  0  0  0  0
   12.3130   -1.9560   23.9340 C   0  0  2  0  0  0  0  0  0  0  0  0
    5.1860    1.3950   17.7480 C   0  0  0  0  0  0  0  0  0  0  0  0
    9.8090    3.0480   23.6140 C   0  0  0  0  0  0  0  0  0  0  0  0
    7.9350    4.5240   22.9160 C   0  0  0  0  0  0  0  0  0  0  0  0
    7.3720   -4.9120   24.0570 C   0  0  0  0  0  0  0  0  0  0  0  0
    5.4250   -6.2760   23.1500 C   0  0  0  0  0  0  0  0  0  0  0  0
   12.3420   -2.6770   25.1550 O   0  0  0  0  0  0  0  0  0  0  0  0
   10.4870    1.7360   23.8980 C   0  0  0  0  0  0  0  0  0  0  0  0
   12.8230   -0.6980   24.1760 C   0  0  0  0  0  0  0  0  0  0  0  0
   10.5600    4.2160   23.8200 C   0  0  0  0  0  0  0  0  0  0  0  0
    8.7370    5.6440   23.1480 C   0  0  0  0  0  0  0  0  0  0  0  0
    5.9680   -5.3920   24.2160 N   0  0  0  0  0  0  0  0  0  0  0  0
   13.6610   -3.0280   25.4780 C   0  0  0  0  0  0  0  0  0  0  0  0
    5.1940   -5.4890   25.7470 S   0  0  0  0  0  0  0  0  0  0  0  0
   10.0590    5.4970   23.6070 C   0  0  0  0  0  0  0  0  0  0  0  0
   10.7510    6.6660   23.8090 O   0  0  0  0  0  0  0  0  0  0  0  0
    6.1000   -5.1680   26.8050 O   0  0  0  0  0  0  0  0  0  0  0  0
    4.4560   -6.7260   25.7840 O   0  0  0  0  0  0  0  0  0  0  0  0
    3.9980   -4.1890   25.7860 C   0  0  0  0  0  0  0  0  0  0  0  0
   11.8100    6.6300   24.7690 C   0  0  0  0  0  0  0  0  0  0  0  0
    2.7090   -4.3810   25.2760 C   0  0  0  0  0  0  0  0  0  0  0  0
    4.3470   -3.0050   26.3350 C   0  0  0  0  0  0  0  0  0  0  0  0
    1.7010   -3.2640   25.3550 C   0  0  0  0  0  0  0  0  0  0  0  0
    3.4590   -1.9450   26.4310 C   0  0  0  0  0  0  0  0  0  0  0  0
    2.1450   -2.0660   25.9550 C   0  0  0  0  0  0  0  0  0  0  0  0
    1.2150   -0.9070   26.0980 C   0  0  0  0  0  0  0  0  0  0  0  0
  1  2  1  0
  2  3  2  0
  1  4  1  0
  1  5  1  0
  1  6  1  6
  2  7  1  0
  4  8  1  6
  5  9  1  0
  4 10  1  0
  6 11  2  0
  6 12  1  0
  7 13  1  0
  8 14  1  0
  8 15  2  0
 10 16  2  0
 10 17  1  0
 11 18  1  0
 12 19  2  0
 20  9  1  0
 13 20  1  0
 17 21  2  0
 16 22  1  0
 14 23  1  0
 18 24  2  0
 19 24  1  0
 20 25  1  0
 20 26  1  0
 24 27  1  0
 21 28  1  0
 22 28  2  0
 23 29  2  0
 23 30  1  0
 25 31  1  0
 26 32  1  0
 27 33  1  0
 29 34  1  0
 27 35  1  1
 29 36  1  0
 30 37  2  0
 31 38  1  0
 32 38  1  0
 33 39  1  0
 38 40  1  0
 36 41  2  0
 37 41  1  0
 41 42  1  0
 40 43  2  0
 40 44  2  0
 40 45  1  0
 42 46  1  0
 45 47  2  0
 45 48  1  0
 47 49  1  0
 48 50  2  0
 49 51  2  0
 50 51  1  0
 51 52  1  0
M  END
