x2776-x0820
     RDKit          3D

 45 50  0  0  0  0  0  0  0  0999 V2000
    6.9410   -1.9170   21.8770 C   0  0  1  0  0  0  0  0  0  0  0  0
    5.9890   -3.0090   21.2400 C   0  0  0  0  0  0  0  0  0  0  0  0
    4.8980   -3.0190   20.5800 O   0  0  0  0  0  0  0  0  0  0  0  0
    6.6180   -0.3800   21.7540 C   0  0  1  0  0  0  0  0  0  0  0  0
    6.8650   -3.2410   22.8870 C   0  0  2  0  0  0  0  0  0  0  0  0
    8.4130   -1.8990   22.3330 C   0  0  0  0  0  0  0  0  0  0  0  0
    6.5580   -4.2580   21.7090 C   0  0  2  0  0  0  0  0  0  0  0  0
    7.8050    0.6730   21.9400 C   0  0  0  0  0  0  0  0  0  0  0  0
    6.0670    0.0950   20.4310 C   0  0  0  0  0  0  0  0  0  0  0  0
    9.5120   -2.2990   21.6110 C   0  0  0  0  0  0  0  0  0  0  0  0
    8.7270   -1.4060   23.6950 C   0  0  0  0  0  0  0  0  0  0  0  0
    5.9160   -3.5460   24.1440 C   0  0  0  0  0  0  0  0  0  0  0  0
    7.7910   -4.8030   20.9900 C   0  0  0  0  0  0  0  0  0  0  0  0
    7.5280    1.8060   22.7430 N   0  0  0  0  0  0  0  0  0  0  0  0
    8.8710    0.4990   21.3700 O   0  0  0  0  0  0  0  0  0  0  0  0
    4.8690    0.8160   20.2750 C   0  0  0  0  0  0  0  0  0  0  0  0
    6.7950   -0.1620   19.2610 C   0  0  0  0  0  0  0  0  0  0  0  0
   10.8010   -2.2540   22.0780 C   0  0  0  0  0  0  0  0  0  0  0  0
   10.0130   -1.3690   24.1500 C   0  0  0  0  0  0  0  0  0  0  0  0
    6.4080   -4.3450   25.3610 C   0  0  0  0  0  0  0  0  0  0  0  0
    4.6120   -3.0650   24.0870 C   0  0  0  0  0  0  0  0  0  0  0  0
    6.4220    0.2420   18.0240 N   0  0  0  0  0  0  0  0  0  0  0  0
    4.4590    1.2430   19.0240 C   0  0  0  0  0  0  0  0  0  0  0  0
    8.3120    3.0010   23.0150 C   0  0  0  0  0  0  0  0  0  0  0  0
   11.0800   -1.7900   23.3580 C   0  0  0  0  0  0  0  0  0  0  0  0
    5.4840   -4.5170   26.3970 C   0  0  0  0  0  0  0  0  0  0  0  0
    3.7160   -3.2670   25.1110 C   0  0  0  0  0  0  0  0  0  0  0  0
    7.6980   -4.8950   25.4740 C   0  0  0  0  0  0  0  0  0  0  0  0
   12.4920   -1.7600   23.8250 C   0  0  2  0  0  0  0  0  0  0  0  0
    5.2730    0.9350   17.9240 C   0  0  0  0  0  0  0  0  0  0  0  0
    9.7330    2.9720   23.1880 C   0  0  0  0  0  0  0  0  0  0  0  0
    7.6990    4.2640   23.1310 C   0  0  0  0  0  0  0  0  0  0  0  0
    4.1670   -4.0150   26.3210 C   0  0  0  0  0  0  0  0  0  0  0  0
    5.9940   -5.2710   27.5820 C   0  0  0  0  0  0  0  0  0  0  0  0
    8.1250   -5.6080   26.5950 C   0  0  0  0  0  0  0  0  0  0  0  0
   12.5960   -2.0890   25.1990 O   0  0  0  0  0  0  0  0  0  0  0  0
   10.4860    1.6840   23.0540 C   0  0  0  0  0  0  0  0  0  0  0  0
   12.9620   -0.4890   23.6220 C   0  0  0  0  0  0  0  0  0  0  0  0
   10.5080    4.1040   23.4810 C   0  0  0  0  0  0  0  0  0  0  0  0
    8.5790    5.4750   23.4430 C   0  0  0  0  0  0  0  0  0  0  0  0
    7.2720   -5.7860   27.6590 C   0  0  0  0  0  0  0  0  0  0  0  0
   13.6920   -2.9350   25.4470 C   0  0  0  0  0  0  0  0  0  0  0  0
    9.9540    5.3870   23.6210 C   0  0  0  0  0  0  0  0  0  0  0  0
   10.8690    6.4570   23.9290 O   0  0  0  0  0  0  0  0  0  0  0  0
   11.8480    6.2430   24.9440 C   0  0  0  0  0  0  0  0  0  0  0  0
  1  2  1  0
  2  3  2  0
  1  4  1  0
  1  5  1  0
  1  6  1  6
  2  7  1  0
  5  7  1  0
  4  8  1  6
  4  9  1  0
  6 10  2  0
  6 11  1  0
  5 12  1  1
  7 13  1  6
  8 14  1  0
  8 15  2  0
  9 16  2  0
  9 17  1  0
 10 18  1  0
 11 19  2  0
 12 20  1  0
 12 21  2  0
 17 22  2  0
 16 23  1  0
 14 24  1  0
 18 25  2  0
 19 25  1  0
 20 26  2  0
 21 27  1  0
 20 28  1  0
 25 29  1  0
 22 30  1  0
 23 30  2  0
 24 31  2  0
 24 32  1  0
 26 33  1  0
 27 33  2  0
 26 34  1  0
 28 35  2  0
 29 36  1  0
 31 37  1  0
 29 38  1  1
 31 39  1  0
 32 40  2  0
 34 41  2  0
 35 41  1  0
 36 42  1  0
 39 43  2  0
 40 43  1  0
 43 44  1  0
 44 45  1  0
M  END
