x2776-x0981-x1493
     RDKit          3D

 54 57  0  0  0  0  0  0  0  0999 V2000
    6.8560   -1.4600   21.7740 N   0  0  0  0  0  0  0  0  0  0  0  0
    5.9810   -2.6680   21.4470 C   0  0  0  0  0  0  0  0  0  0  0  0
    4.7210   -2.8350   21.0920 O   0  0  0  0  0  0  0  0  0  0  0  0
    6.4920   -0.0200   21.5320 C   0  0  1  0  0  0  0  0  0  0  0  0
    8.2090   -1.5810   22.3850 C   0  0  0  0  0  0  0  0  0  0  0  0
    6.4390   -4.0610   21.4890 C   0  0  1  0  0  0  0  0  0  0  0  0
    7.6780    1.0160   21.7400 C   0  0  0  0  0  0  0  0  0  0  0  0
    5.9910    0.4360   20.1690 C   0  0  0  0  0  0  0  0  0  0  0  0
    9.2640   -2.0260   21.6120 C   0  0  0  0  0  0  0  0  0  0  0  0
    8.5150   -1.2400   23.7130 C   0  0  0  0  0  0  0  0  0  0  0  0
    6.4580   -4.6530   20.0830 C   0  0  0  0  0  0  0  0  0  0  0  0
    7.6150    1.9460   22.9170 N   0  0  0  0  0  0  0  0  0  0  0  0
    8.6320    1.1370   20.9690 O   0  0  0  0  0  0  0  0  0  0  0  0
    4.8250    1.1900   20.1220 C   0  0  0  0  0  0  0  0  0  0  0  0
    6.6980    0.1260   19.0170 C   0  0  0  0  0  0  0  0  0  0  0  0
   10.5670   -2.1370   22.0990 C   0  0  0  0  0  0  0  0  0  0  0  0
    9.7920   -1.3420   24.1960 C   0  0  0  0  0  0  0  0  0  0  0  0
    7.5390   -4.5230   22.4640 C   0  0  1  0  0  0  0  0  0  0  0  0
    6.3550    0.5130   17.7720 N   0  0  0  0  0  0  0  0  0  0  0  0
    4.4770    1.5860   18.8550 C   0  0  0  0  0  0  0  0  0  0  0  0
    8.3830    3.1440   23.1150 C   0  0  0  0  0  0  0  0  0  0  0  0
   10.8390   -1.7970   23.3790 C   0  0  0  0  0  0  0  0  0  0  0  0
    7.2450   -4.3520   23.8110 C   0  0  0  0  0  0  0  0  0  0  0  0
    7.6190   -5.9480   22.2410 N   0  0  0  0  0  0  0  0  0  0  0  0
   12.3140   -1.9280   23.8640 C   0  0  2  0  0  0  0  0  0  0  0  0
    5.2340    1.2490   17.7570 C   0  0  0  0  0  0  0  0  0  0  0  0
    9.8340    3.0070   23.6330 C   0  0  0  0  0  0  0  0  0  0  0  0
    7.8640    4.4260   22.8560 C   0  0  0  0  0  0  0  0  0  0  0  0
    6.0910   -4.9820   24.2890 C   0  0  2  0  0  0  0  0  0  0  0  0
    6.3350   -6.6140   22.5010 C   0  0  0  0  0  0  0  0  0  0  0  0
   12.3520   -2.5320   25.1440 O   0  0  0  0  0  0  0  0  0  0  0  0
   10.4810    1.6860   23.9380 C   0  0  0  0  0  0  0  0  0  0  0  0
   12.7950   -0.4920   23.9730 C   0  0  0  0  0  0  0  0  0  0  0  0
    5.1240   -3.9370   24.3980 O   0  0  0  0  0  0  0  0  0  0  0  0
    6.3410   -5.4460   25.7280 C   0  0  0  0  0  0  0  0  0  0  0  0
   10.5480    4.2090   23.8180 C   0  0  0  0  0  0  0  0  0  0  0  0
    8.6430    5.5680   23.0730 C   0  0  0  0  0  0  0  0  0  0  0  0
    5.4960   -5.9320   23.3910 C   0  0  1  0  0  0  0  0  0  0  0  0
   13.6510   -2.9640   25.4670 C   0  0  0  0  0  0  0  0  0  0  0  0
    5.2640   -5.5610   26.6170 C   0  0  0  0  0  0  0  0  0  0  0  0
    7.4640   -5.7060   26.1470 O   0  0  0  0  0  0  0  0  0  0  0  0
    9.9450    5.4400   23.5450 C   0  0  0  0  0  0  0  0  0  0  0  0
    4.5620   -6.7570   24.0060 C   0  0  0  0  0  0  0  0  0  0  0  0
   10.7560    6.6050   23.7800 O   0  0  0  0  0  0  0  0  0  0  0  0
    3.0710   -6.4360   23.7160 C   0  0  1  0  0  0  0  0  0  0  0  0
   11.7790    6.5310   24.7780 C   0  0  0  0  0  0  0  0  0  0  0  0
    2.6640   -7.4010   22.6880 N   0  0  0  0  0  0  0  0  0  0  0  0
    2.4230   -6.5520   24.9390 C   0  0  0  0  0  0  0  0  0  0  0  0
    1.3290   -7.5270   22.1040 C   0  0  0  0  0  0  0  0  0  0  0  0
    2.6870   -7.8090   25.4690 C   0  0  0  0  0  0  0  0  0  0  0  0
    0.9980   -8.6700   21.3780 C   0  0  0  0  0  0  0  0  0  0  0  0
    0.5060   -6.6250   22.2300 O   0  0  0  0  0  0  0  0  0  0  0  0
    2.1740   -8.0640   26.7000 N   0  0  0  0  0  0  0  0  0  0  0  0
    3.3380   -8.6480   24.8830 O   0  0  0  0  0  0  0  0  0  0  0  0
  1  2  1  0
  2  3  2  0
  1  4  1  0
  1  5  1  0
  2  6  1  0
  4  7  1  6
  4  8  1  0
  5  9  2  0
  5 10  1  0
  6 11  1  6
  7 12  1  0
  7 13  2  0
  8 14  2  0
  8 15  1  0
  9 16  1  0
 10 17  2  0
  6 18  1  0
 15 19  2  0
 14 20  1  0
 12 21  1  0
 16 22  2  0
 17 22  1  0
 18 23  1  1
 18 24  1  0
 22 25  1  0
 19 26  1  0
 20 26  2  0
 21 27  2  0
 21 28  1  0
 23 29  1  0
 24 30  1  0
 25 31  1  0
 27 32  1  0
 25 33  1  1
 29 34  1  1
 29 35  1  0
 27 36  1  0
 28 37  2  0
 29 38  1  0
 30 38  1  0
 31 39  1  0
 35 40  1  0
 35 41  2  0
 36 42  2  0
 37 42  1  0
 38 43  1  1
 42 44  1  0
 45 43  1  1
 44 46  1  0
 45 47  1  0
 45 48  1  0
 47 49  1  0
 48 50  1  0
 49 51  1  0
 49 52  2  0
 50 53  1  0
 50 54  2  0
M  END
