x2779-x2540
     RDKit          3D

 35 38  0  0  0  0  0  0  0  0999 V2000
    7.8050    1.9430   22.8390 N   0  0  0  0  0  0  0  0  0  0  0  0
    7.9940    1.1980   21.6870 C   0  0  0  0  0  0  0  0  0  0  0  0
    8.8040    1.4630   20.8280 O   0  0  0  0  0  0  0  0  0  0  0  0
    8.6850    3.0290   23.3390 C   0  0  0  0  0  0  0  0  0  0  0  0
    7.0570   -0.0230   21.3710 C   0  0  1  0  0  0  0  0  0  0  0  0
    8.5210    3.1500   24.8330 C   0  0  0  0  0  0  0  0  0  0  0  0
    8.2860    4.2650   22.6820 C   0  0  0  0  0  0  0  0  0  0  0  0
   10.1780    2.8280   23.0010 C   0  0  0  0  0  0  0  0  0  0  0  0
    6.3640    0.5490   20.0880 C   0  0  0  0  0  0  0  0  0  0  0  0
    7.6180   -1.5070   21.0120 C   0  0  2  0  0  0  0  0  0  0  0  0
    5.2470    1.3600   20.1520 C   0  0  0  0  0  0  0  0  0  0  0  0
    6.8570    0.2750   18.7080 C   0  0  0  0  0  0  0  0  0  0  0  0
    6.5860   -2.3840   20.8890 N   0  0  0  0  0  0  0  0  0  0  0  0
    8.8130   -1.9870   21.6680 C   0  0  0  0  0  0  0  0  0  0  0  0
    6.4420   -3.2030   19.7740 C   0  0  0  0  0  0  0  0  0  0  0  0
    6.2150    0.8260   17.5460 N   0  0  0  0  0  0  0  0  0  0  0  0
    4.5900    1.9220   19.0500 C   0  0  0  0  0  0  0  0  0  0  0  0
    8.4980   -2.7910   22.7570 N   0  0  0  0  0  0  0  0  0  0  0  0
    6.3570   -3.0510   22.0480 C   0  0  0  0  0  0  0  0  0  0  0  0
    7.4640   -3.0340   18.6450 C   0  0  0  0  0  0  0  0  0  0  0  0
    5.5440   -4.0560   19.7040 O   0  0  0  0  0  0  0  0  0  0  0  0
    9.6610   -3.1880   23.5200 C   0  0  0  0  0  0  0  0  0  0  0  0
    5.0560    1.6780   17.7460 C   0  0  0  0  0  0  0  0  0  0  0  0
    7.5680   -3.7420   22.5800 C   0  0  0  0  0  0  0  0  0  0  0  0
   10.2170   -2.0000   24.3540 C   0  0  2  0  0  0  0  0  0  0  0  0
    9.0260   -1.2700   24.8870 N   0  0  0  0  0  0  0  0  0  0  0  0
   11.0020   -0.9590   23.5440 C   0  0  2  0  0  0  0  0  0  0  0  0
    8.7060   -0.3650   23.8090 C   0  0  0  0  0  0  0  0  0  0  0  0
    9.9320   -0.1480   22.9380 C   0  0  0  0  0  0  0  0  0  0  0  0
   12.1340   -1.6110   22.7050 C   0  0  2  0  0  0  0  0  0  0  0  0
   11.8900    0.2980   24.4720 S   0  0  0  0  0  0  0  0  0  0  0  0
   12.8010   -2.5540   23.3570 C   0  0  0  0  0  0  0  0  0  0  0  0
   12.9620    0.5870   23.1830 C   0  0  0  0  0  0  0  0  0  0  0  0
   13.0280   -0.4770   22.3290 C   0  0  0  0  0  0  0  0  0  0  0  0
   13.2790   -2.2140   24.7660 C   0  0  0  0  0  0  0  0  0  0  0  0
  1  2  1  0
  2  3  2  0
  4  1  1  0
  5  2  1  6
  4  6  1  0
  4  7  1  0
  4  8  1  0
  5  9  1  0
  5 10  1  0
  9 11  2  0
  9 12  1  0
 10 13  1  0
 10 14  1  1
 13 15  1  0
 12 16  2  0
 11 17  1  0
 14 18  1  0
 13 19  1  0
 15 20  1  0
 15 21  2  0
 18 22  1  0
 16 23  1  0
 17 23  2  0
 18 24  1  0
 19 24  1  0
 25 22  1  6
 25 26  1  0
 25 27  1  0
 26 28  1  0
 27 29  1  6
 28 29  2  0
 27 30  1  0
 27 31  1  0
 30 32  1  1
 31 33  1  0
 30 34  1  0
 33 34  2  0
 32 35  1  0
M  END
