x2776-x2705-x1374
     RDKit          3D

 53 57  0  0  0  0  0  0  0  0999 V2000
    6.9590   -1.3220   21.3840 N   0  0  0  0  0  0  0  0  0  0  0  0
    6.1290   -2.5970   21.1970 C   0  0  0  0  0  0  0  0  0  0  0  0
    4.8590   -2.9420   20.9000 O   0  0  0  0  0  0  0  0  0  0  0  0
    6.4960    0.0900   21.3470 C   0  0  1  0  0  0  0  0  0  0  0  0
    8.1360   -1.3420   22.3250 C   0  0  0  0  0  0  0  0  0  0  0  0
    7.0220   -3.7590   21.4950 C   0  0  1  0  0  0  0  0  0  0  0  0
    7.6080    1.0260   21.5850 C   0  0  0  0  0  0  0  0  0  0  0  0
    6.0560    0.5660   20.0030 C   0  0  0  0  0  0  0  0  0  0  0  0
    9.5050   -1.5470   21.9670 C   0  0  0  0  0  0  0  0  0  0  0  0
    7.8960   -1.1360   23.6570 C   0  0  0  0  0  0  0  0  0  0  0  0
    6.9610   -3.5300   19.9460 C   0  0  0  0  0  0  0  0  0  0  0  0
    7.4720    2.0150   22.7060 N   0  0  0  0  0  0  0  0  0  0  0  0
    8.6330    1.0980   20.9180 O   0  0  0  0  0  0  0  0  0  0  0  0
    4.8140    1.4810   19.9950 C   0  0  0  0  0  0  0  0  0  0  0  0
    6.7580    0.2030   18.8740 C   0  0  0  0  0  0  0  0  0  0  0  0
   10.5210   -1.5370   22.9430 C   0  0  0  0  0  0  0  0  0  0  0  0
    8.8250   -1.1120   24.6380 C   0  0  0  0  0  0  0  0  0  0  0  0
    8.1030   -3.3160   22.5440 C   0  0  0  0  0  0  0  0  0  0  0  0
   11.9210   -1.7520   22.7090 C   0  0  0  0  0  0  0  0  0  0  0  0
    6.3400    0.7090   17.5940 N   0  0  0  0  0  0  0  0  0  0  0  0
    4.4810    1.9200   18.7270 C   0  0  0  0  0  0  0  0  0  0  0  0
    8.2760    3.2040   22.9260 C   0  0  0  0  0  0  0  0  0  0  0  0
   10.1470   -1.3060   24.2940 C   0  0  0  0  0  0  0  0  0  0  0  0
    9.0500   -3.5740   23.7770 C   0  0  0  0  0  0  0  0  0  0  0  0
    7.5170   -4.7010   22.4510 C   0  0  0  0  0  0  0  0  0  0  0  0
   12.4500   -1.7660   24.0080 C   0  0  1  0  0  0  0  0  0  0  0  0
    5.1630    1.5970   17.5700 C   0  0  0  0  0  0  0  0  0  0  0  0
    9.5560    3.0740   23.5160 C   0  0  0  0  0  0  0  0  0  0  0  0
    7.8070    4.5030   22.5700 C   0  0  0  0  0  0  0  0  0  0  0  0
    9.3280   -4.6170   24.5910 C   0  0  0  0  0  0  0  0  0  0  0  0
    7.7340   -5.9150   23.2300 C   0  0  0  0  0  0  0  0  0  0  0  0
   13.5260   -2.6810   24.1400 O   0  0  0  0  0  0  0  0  0  0  0  0
   10.0880    1.7620   23.9170 C   0  0  0  0  0  0  0  0  0  0  0  0
   12.9390   -0.5350   24.3570 C   0  0  0  0  0  0  0  0  0  0  0  0
    6.5060    4.6270   21.9640 C   0  0  0  0  0  0  0  0  0  0  0  0
   10.3080   -4.4710   25.7090 C   0  0  0  0  0  0  0  0  0  0  0  0
   10.4280    4.2510   23.7830 C   0  0  0  0  0  0  0  0  0  0  0  0
    8.6400    5.7750   22.8160 C   0  0  0  0  0  0  0  0  0  0  0  0
    8.7300   -5.7700   24.3830 C   0  0  0  0  0  0  0  0  0  0  0  0
    6.8860   -6.9630   22.6580 C   0  0  0  0  0  0  0  0  0  0  0  0
   13.5330   -3.1790   25.4830 C   0  0  0  0  0  0  0  0  0  0  0  0
    9.3400    1.3120   24.9890 C   0  0  0  0  0  0  0  0  0  0  0  0
    9.8830    5.6030   23.4010 C   0  0  0  0  0  0  0  0  0  0  0  0
    5.7060   -6.8520   23.3030 C   0  0  0  0  0  0  0  0  0  0  0  0
   10.7780    6.7240   23.7010 O   0  0  0  0  0  0  0  0  0  0  0  0
    4.7180   -5.8710   22.7880 C   0  0  2  0  0  0  0  0  0  0  0  0
   11.7450    6.5540   24.7440 C   0  0  0  0  0  0  0  0  0  0  0  0
    4.7600   -4.8590   23.8670 C   0  0  0  0  0  0  0  0  0  0  0  0
    3.5330   -6.5200   22.8070 C   0  0  0  0  0  0  0  0  0  0  0  0
    3.2230   -6.6870   24.5820 S   0  0  0  0  0  0  0  0  0  0  0  0
    3.9890   -5.2220   24.9140 C   0  0  0  0  0  0  0  0  0  0  0  0
    1.7950   -6.5810   24.6590 O   0  0  0  0  0  0  0  0  0  0  0  0
    3.9270   -7.8470   25.1070 O   0  0  0  0  0  0  0  0  0  0  0  0
  1  2  1  0
  2  3  2  0
  1  4  1  0
  1  5  1  0
  2  6  1  0
  4  7  1  6
  4  8  1  0
  5  9  2  0
  5 10  1  0
  6 11  1  6
  7 12  1  0
  7 13  2  0
  8 14  2  0
  8 15  1  0
  9 16  1  0
 10 17  2  0
  6 18  1  0
 16 19  1  0
 15 20  2  0
 14 21  1  0
 12 22  1  0
 16 23  2  0
 17 23  1  0
 18 24  2  0
 18 25  1  0
 19 26  1  0
 20 27  1  0
 21 27  2  0
 22 28  2  0
 22 29  1  0
 24 30  1  0
 25 31  2  0
 26 32  1  0
 28 33  1  0
 26 34  1  6
 29 35  1  0
 30 36  1  0
 28 37  1  0
 29 38  2  0
 30 39  2  0
 31 39  1  0
 31 40  1  0
 32 41  1  0
 33 42  1  0
 37 43  2  0
 38 43  1  0
 40 44  1  0
 43 45  1  0
 46 44  1  1
 45 47  1  0
 46 48  1  0
 46 49  1  0
 49 50  1  0
 48 51  2  0
 50 51  1  0
 50 52  1  0
 50 53  1  0
M  END
