x2776-x0752
     RDKit          3D

 44 48  0  0  0  0  0  0  0  0999 V2000
    7.0620   -2.2800   21.8850 N   0  0  0  0  0  0  0  0  0  0  0  0
    6.0150   -3.3600   21.7250 C   0  0  0  0  0  0  0  0  0  0  0  0
    4.8330   -3.1090   21.3330 O   0  0  0  0  0  0  0  0  0  0  0  0
    6.7480   -0.7780   21.6800 C   0  0  1  0  0  0  0  0  0  0  0  0
    8.4550   -2.4750   22.4040 C   0  0  0  0  0  0  0  0  0  0  0  0
    6.1520   -4.9360   21.9870 C   0  0  0  0  0  0  0  0  0  0  0  0
    7.9530    0.2570   21.8410 C   0  0  0  0  0  0  0  0  0  0  0  0
    5.9690   -0.3900   20.4090 C   0  0  0  0  0  0  0  0  0  0  0  0
    9.5290   -2.7480   21.4960 C   0  0  0  0  0  0  0  0  0  0  0  0
    8.7980   -2.3660   23.7710 C   0  0  0  0  0  0  0  0  0  0  0  0
    6.2850   -5.4240   20.4980 C   0  0  0  0  0  0  0  0  0  0  0  0
    7.9900    1.1820   23.0040 N   0  0  0  0  0  0  0  0  0  0  0  0
    8.8390    0.3130   20.9920 O   0  0  0  0  0  0  0  0  0  0  0  0
    7.4880   -5.5680   22.6550 C   0  0  0  0  0  0  0  0  0  0  0  0
    4.6700    0.1760   20.3770 C   0  0  0  0  0  0  0  0  0  0  0  0
    6.5490   -0.5670   19.1070 C   0  0  0  0  0  0  0  0  0  0  0  0
   11.0000   -2.8880   22.0280 C   0  0  0  0  0  0  0  0  0  0  0  0
   10.1500   -2.4960   24.2330 C   0  0  0  0  0  0  0  0  0  0  0  0
    4.8020   -5.7020   22.5560 C   0  0  0  0  0  0  0  0  0  0  0  0
    5.8900   -0.1930   17.8250 N   0  0  0  0  0  0  0  0  0  0  0  0
    3.9640    0.5580   19.2050 C   0  0  0  0  0  0  0  0  0  0  0  0
    8.7940    2.3540   23.0710 C   0  0  0  0  0  0  0  0  0  0  0  0
   11.2600   -2.7470   23.3990 C   0  0  0  0  0  0  0  0  0  0  0  0
    3.6000   -6.3830   23.0630 C   0  0  0  0  0  0  0  0  0  0  0  0
    4.9960   -4.8730   23.9040 C   0  0  0  0  0  0  0  0  0  0  0  0
   12.6860   -2.8390   23.9960 C   0  0  2  0  0  0  0  0  0  0  0  0
    4.5440    0.3890   17.9490 C   0  0  0  0  0  0  0  0  0  0  0  0
   10.1530    2.2890   23.5970 C   0  0  0  0  0  0  0  0  0  0  0  0
    8.3170    3.7500   22.5960 C   0  0  0  0  0  0  0  0  0  0  0  0
    2.8330   -6.3660   24.2510 C   0  0  0  0  0  0  0  0  0  0  0  0
    4.2660   -4.8100   25.1450 C   0  0  0  0  0  0  0  0  0  0  0  0
   12.6200   -3.3520   25.3630 O   0  0  0  0  0  0  0  0  0  0  0  0
   10.7460    1.0610   24.0840 C   0  0  0  0  0  0  0  0  0  0  0  0
   13.3650   -1.6020   23.9760 C   0  0  0  0  0  0  0  0  0  0  0  0
   10.9500    3.4870   23.6360 C   0  0  0  0  0  0  0  0  0  0  0  0
    9.2030    4.8610   22.6900 C   0  0  0  0  0  0  0  0  0  0  0  0
    3.1720   -5.5740   25.2870 C   0  0  0  0  0  0  0  0  0  0  0  0
    1.7120   -7.1000   24.5050 O   0  0  0  0  0  0  0  0  0  0  0  0
   13.8290   -3.8790   25.9580 C   0  0  0  0  0  0  0  0  0  0  0  0
   10.5190    4.7510   23.2040 C   0  0  0  0  0  0  0  0  0  0  0  0
    2.3330   -5.6750   26.3510 O   0  0  0  0  0  0  0  0  0  0  0  0
    1.3680   -6.6140   25.8240 C   0  0  0  0  0  0  0  0  0  0  0  0
   11.4330    5.7940   23.3130 O   0  0  0  0  0  0  0  0  0  0  0  0
   11.9450    6.2300   24.5830 C   0  0  0  0  0  0  0  0  0  0  0  0
  1  2  1  0
  2  3  2  0
  1  4  1  0
  1  5  1  0
  6  2  1  0
  4  7  1  6
  4  8  1  0
  5  9  2  0
  5 10  1  0
  6 11  1  0
  7 12  1  0
  7 13  2  0
  6 14  1  0
  8 15  2  0
  8 16  1  0
  9 17  1  0
 10 18  2  0
  6 19  1  0
 16 20  2  0
 15 21  1  0
 12 22  1  0
 17 23  2  0
 18 23  1  0
 19 24  2  0
 19 25  1  0
 23 26  1  0
 20 27  1  0
 21 27  2  0
 22 28  2  0
 22 29  1  0
 24 30  1  0
 25 31  2  0
 26 32  1  0
 28 33  1  0
 26 34  1  1
 28 35  1  0
 29 36  2  0
 30 37  2  0
 31 37  1  0
 30 38  1  0
 32 39  1  0
 35 40  2  0
 36 40  1  0
 37 41  1  0
 38 42  1  0
 41 42  1  0
 40 43  1  0
 43 44  1  0
M  END
