x2776-x1493-x3117
     RDKit          3D

 45 48  0  0  0  0  0  0  0  0999 V2000
    6.5930   -1.1670   22.1980 C   0  0  1  0  0  0  0  0  0  0  0  0
    5.9940   -2.5440   21.5540 C   0  0  0  0  0  0  0  0  0  0  0  0
    4.7700   -2.9370   21.2000 O   0  0  0  0  0  0  0  0  0  0  0  0
    6.5220    0.2070   21.6270 C   0  0  1  0  0  0  0  0  0  0  0  0
    5.6660   -1.2510   23.3570 C   0  0  0  0  0  0  0  0  0  0  0  0
    8.0920   -1.3280   22.6670 C   0  0  0  0  0  0  0  0  0  0  0  0
    7.0520   -3.5710   21.4050 C   0  0  2  0  0  0  0  0  0  0  0  0
    7.7710    1.1570   21.7820 C   0  0  0  0  0  0  0  0  0  0  0  0
    6.1320    0.4630   20.2010 C   0  0  0  0  0  0  0  0  0  0  0  0
    9.1730   -1.6190   21.7890 C   0  0  0  0  0  0  0  0  0  0  0  0
    8.3960   -1.1670   24.0120 C   0  0  0  0  0  0  0  0  0  0  0  0
    6.7950   -4.2950   20.1090 C   0  0  0  0  0  0  0  0  0  0  0  0
    7.7810    1.9860   22.9830 N   0  0  0  0  0  0  0  0  0  0  0  0
    8.6550    1.2250   20.9350 O   0  0  0  0  0  0  0  0  0  0  0  0
    5.0100    1.2950   20.0980 C   0  0  0  0  0  0  0  0  0  0  0  0
    6.7600   -0.0030   19.0400 C   0  0  0  0  0  0  0  0  0  0  0  0
   10.4850   -1.7490   22.2430 C   0  0  0  0  0  0  0  0  0  0  0  0
    9.7050   -1.2880   24.4650 C   0  0  0  0  0  0  0  0  0  0  0  0
    7.2870   -4.4680   22.6430 C   0  0  1  0  0  0  0  0  0  0  0  0
    6.3340    0.3270   17.8000 N   0  0  0  0  0  0  0  0  0  0  0  0
    4.5670    1.6370   18.8560 C   0  0  0  0  0  0  0  0  0  0  0  0
    8.5460    3.2040   23.1820 C   0  0  0  0  0  0  0  0  0  0  0  0
   10.7610   -1.5800   23.5990 C   0  0  0  0  0  0  0  0  0  0  0  0
    6.5080   -4.2570   23.8030 C   0  0  0  0  0  0  0  0  0  0  0  0
    6.9910   -5.8470   22.2330 N   0  0  0  0  0  0  0  0  0  0  0  0
   12.1540   -1.6980   24.1380 C   0  0  0  0  0  0  0  0  0  0  0  0
    5.2180    1.1670   17.7620 C   0  0  0  0  0  0  0  0  0  0  0  0
    9.8730    3.1420   23.6150 C   0  0  0  0  0  0  0  0  0  0  0  0
    7.9990    4.4550   22.9550 C   0  0  0  0  0  0  0  0  0  0  0  0
    5.9240   -5.5070   24.3140 N   0  0  0  0  0  0  0  0  0  0  0  0
    5.5480   -6.0250   22.1370 C   0  0  0  0  0  0  0  0  0  0  0  0
   12.3130   -2.7520   24.7690 O   0  0  0  0  0  0  0  0  0  0  0  0
   10.5640    1.8040   23.8880 C   0  0  0  0  0  0  0  0  0  0  0  0
   13.2280   -1.4600   23.0750 C   0  0  0  0  0  0  0  0  0  0  0  0
   12.3430   -0.5400   25.1160 C   0  0  0  0  0  0  0  0  0  0  0  0
    5.7250   -5.7150   25.6640 C   0  0  0  0  0  0  0  0  0  0  0  0
   10.6150    4.3270   23.8130 C   0  0  0  0  0  0  0  0  0  0  0  0
    8.7100    5.6430   23.1460 C   0  0  0  0  0  0  0  0  0  0  0  0
    5.0620   -6.1950   23.3670 C   0  0  0  0  0  0  0  0  0  0  0  0
   13.5840   -2.9330   25.3630 C   0  0  0  0  0  0  0  0  0  0  0  0
    4.6740   -6.4540   26.2090 C   0  0  0  0  0  0  0  0  0  0  0  0
    6.4240   -5.3000   26.5680 O   0  0  0  0  0  0  0  0  0  0  0  0
   10.0360    5.5800   23.5850 C   0  0  0  0  0  0  0  0  0  0  0  0
   10.8550    6.6600   23.8210 O   0  0  0  0  0  0  0  0  0  0  0  0
   11.7930    6.5750   24.8960 C   0  0  0  0  0  0  0  0  0  0  0  0
  1  2  1  0
  2  3  2  0
  1  4  1  0
  1  5  1  1
  1  6  1  0
  2  7  1  0
  4  8  1  6
  4  9  1  0
  6 10  2  0
  6 11  1  0
  7 12  1  6
  8 13  1  0
  8 14  2  0
  9 15  2  0
  9 16  1  0
 10 17  1  0
 11 18  2  0
  7 19  1  0
 16 20  2  0
 15 21  1  0
 13 22  1  0
 17 23  2  0
 18 23  1  0
 19 24  1  1
 19 25  1  0
 23 26  1  0
 20 27  1  0
 21 27  2  0
 22 28  2  0
 22 29  1  0
 24 30  1  0
 25 31  1  0
 26 32  1  0
 28 33  1  0
 26 34  1  0
 26 35  1  0
 30 36  1  0
 28 37  1  0
 29 38  2  0
 30 39  1  0
 31 39  1  0
 32 40  1  0
 36 41  1  0
 36 42  2  0
 37 43  2  0
 38 43  1  0
 43 44  1  0
 44 45  1  0
M  END
