x2776-x1458
     RDKit          3D

 47 51  0  0  0  0  0  0  0  0999 V2000
    6.9550   -1.4840   21.7530 C   0  0  1  0  0  0  0  0  0  0  0  0
    6.0530   -2.8280   21.3080 C   0  0  0  0  0  0  0  0  0  0  0  0
    4.8930   -2.9950   20.7320 O   0  0  0  0  0  0  0  0  0  0  0  0
    6.6090    0.0610   21.4900 C   0  0  1  0  0  0  0  0  0  0  0  0
    6.4550   -1.9940   23.0220 C   0  0  0  0  0  0  0  0  0  0  0  0
    8.4280   -1.5740   22.2910 C   0  0  0  0  0  0  0  0  0  0  0  0
    7.7880    1.0940   21.7400 C   0  0  0  0  0  0  0  0  0  0  0  0
    6.1220    0.4950   20.1430 C   0  0  0  0  0  0  0  0  0  0  0  0
    9.4690   -2.1130   21.6080 C   0  0  0  0  0  0  0  0  0  0  0  0
    8.7340   -1.0930   23.5820 C   0  0  0  0  0  0  0  0  0  0  0  0
    6.6840   -4.1090   21.8330 C   0  0  2  0  0  0  0  0  0  0  0  0
    7.2540   -3.3410   23.0420 C   0  0  2  0  0  0  0  0  0  0  0  0
    7.8270   -4.7380   21.0490 C   0  0  0  0  0  0  0  0  0  0  0  0
    7.6800    1.9700   22.8890 N   0  0  0  0  0  0  0  0  0  0  0  0
    8.7380    1.1910   20.9790 O   0  0  0  0  0  0  0  0  0  0  0  0
    4.9890    1.2980   20.1200 C   0  0  0  0  0  0  0  0  0  0  0  0
    6.7800    0.1330   18.9840 C   0  0  0  0  0  0  0  0  0  0  0  0
   10.8480   -2.1850   22.2120 C   0  0  0  0  0  0  0  0  0  0  0  0
    9.9940   -1.1640   24.1380 C   0  0  0  0  0  0  0  0  0  0  0  0
    7.0430   -3.9300   24.1360 C   0  0  0  0  0  0  0  0  0  0  0  0
    5.6680   -5.2740   22.1880 C   0  0  0  0  0  0  0  0  0  0  0  0
    6.3270    0.5890   17.6890 N   0  0  0  0  0  0  0  0  0  0  0  0
    4.4870    1.7730   18.9270 C   0  0  0  0  0  0  0  0  0  0  0  0
    8.4670    3.1440   23.1240 C   0  0  0  0  0  0  0  0  0  0  0  0
   11.0910   -1.7190   23.4570 C   0  0  0  0  0  0  0  0  0  0  0  0
    5.7410   -4.0890   24.3040 C   0  0  1  0  0  0  0  0  0  0  0  0
    5.2430   -5.2860   23.5340 C   0  0  0  0  0  0  0  0  0  0  0  0
   12.4600   -1.8050   24.0450 C   0  0  2  0  0  0  0  0  0  0  0  0
    5.3310   -3.8270   25.7390 C   0  0  0  0  0  0  0  0  0  0  0  0
    5.2310    1.3770   17.6820 C   0  0  0  0  0  0  0  0  0  0  0  0
    9.8030    3.0120   23.5750 C   0  0  0  0  0  0  0  0  0  0  0  0
    7.8770    4.4240   22.8970 C   0  0  0  0  0  0  0  0  0  0  0  0
   12.4260   -2.6790   25.1560 O   0  0  0  0  0  0  0  0  0  0  0  0
   10.4820    1.7000   23.8320 C   0  0  0  0  0  0  0  0  0  0  0  0
   12.8590   -0.5560   24.4430 C   0  0  0  0  0  0  0  0  0  0  0  0
    6.2570   -3.7080   26.7800 N   0  0  0  0  0  0  0  0  0  0  0  0
    4.1360   -3.6390   25.9350 O   0  0  0  0  0  0  0  0  0  0  0  0
   10.5930    4.1350   23.8160 C   0  0  0  0  0  0  0  0  0  0  0  0
    8.5740    5.6290   23.1120 C   0  0  0  0  0  0  0  0  0  0  0  0
   13.7200   -3.0190   25.5440 C   0  0  0  0  0  0  0  0  0  0  0  0
    6.0110   -4.6390   27.7400 C   0  0  0  0  0  0  0  0  0  0  0  0
    6.5820   -2.4540   27.1940 C   0  0  0  0  0  0  0  0  0  0  0  0
   10.0180    5.5380   23.6050 C   0  0  0  0  0  0  0  0  0  0  0  0
   10.6790    6.7220   23.8190 O   0  0  0  0  0  0  0  0  0  0  0  0
    7.0090   -4.6860   28.7230 C   0  0  0  0  0  0  0  0  0  0  0  0
    6.1390   -6.0940   27.3630 C   0  0  0  0  0  0  0  0  0  0  0  0
   11.7850    6.6750   24.7240 C   0  0  0  0  0  0  0  0  0  0  0  0
  1  2  1  0
  2  3  2  0
  1  4  1  0
  1  5  1  0
  1  6  1  1
  4  7  1  6
  4  8  1  0
  6  9  2  0
  6 10  1  0
  2 11  1  0
 12  5  1  1
 11 12  1  0
 11 13  1  6
  7 14  1  0
  7 15  2  0
  8 16  2  0
  8 17  1  0
  9 18  1  0
 10 19  2  0
 12 20  1  0
 11 21  1  0
 17 22  2  0
 16 23  1  0
 14 24  1  0
 18 25  2  0
 19 25  1  0
 20 26  1  0
 21 27  1  0
 26 27  1  0
 25 28  1  0
 26 29  1  1
 22 30  1  0
 23 30  2  0
 24 31  2  0
 24 32  1  0
 28 33  1  0
 31 34  1  0
 28 35  1  1
 29 36  1  0
 29 37  2  0
 31 38  1  0
 32 39  2  0
 33 40  1  0
 36 41  1  0
 36 42  1  0
 38 43  2  0
 39 43  1  0
 43 44  1  0
 41 45  1  0
 41 46  1  0
 44 47  1  0
M  END
