x2776-x1348-x3115
     RDKit          3D

 46 50  0  0  0  0  0  0  0  0999 V2000
    7.0450   -1.6080   21.4790 N   0  0  0  0  0  0  0  0  0  0  0  0
    6.1470   -2.8420   21.2970 C   0  0  0  0  0  0  0  0  0  0  0  0
    4.9000   -3.0060   20.8620 O   0  0  0  0  0  0  0  0  0  0  0  0
    6.6460   -0.2290   21.5290 C   0  0  1  0  0  0  0  0  0  0  0  0
    8.2900   -1.7940   22.2670 C   0  0  0  0  0  0  0  0  0  0  0  0
    6.7580   -4.1870   21.7270 C   0  0  1  0  0  0  0  0  0  0  0  0
    7.7190    0.7450   21.8020 C   0  0  0  0  0  0  0  0  0  0  0  0
    6.1020    0.3020   20.2810 C   0  0  0  0  0  0  0  0  0  0  0  0
    9.4780   -1.4110   21.6510 C   0  0  0  0  0  0  0  0  0  0  0  0
    8.4630   -2.2940   23.5640 C   0  0  0  0  0  0  0  0  0  0  0  0
    8.0880   -4.5190   21.0380 C   0  0  0  0  0  0  0  0  0  0  0  0
    7.5930    1.7030   22.7930 N   0  0  0  0  0  0  0  0  0  0  0  0
    8.7340    0.7740   21.1200 O   0  0  0  0  0  0  0  0  0  0  0  0
    4.9700    1.0630   20.1840 C   0  0  0  0  0  0  0  0  0  0  0  0
    6.7690    0.0610   19.0670 C   0  0  0  0  0  0  0  0  0  0  0  0
   10.6990   -1.5180   22.2600 C   0  0  0  0  0  0  0  0  0  0  0  0
    9.6730   -2.4500   24.2830 C   0  0  0  0  0  0  0  0  0  0  0  0
    6.5310   -4.1940   23.2010 N   0  0  0  0  0  0  0  0  0  0  0  0
    6.4040    0.5170   17.8340 N   0  0  0  0  0  0  0  0  0  0  0  0
    4.4940    1.6080   18.8620 C   0  0  0  0  0  0  0  0  0  0  0  0
    8.3570    2.8850   22.9710 C   0  0  0  0  0  0  0  0  0  0  0  0
   10.8560   -2.0550   23.6510 C   0  0  0  0  0  0  0  0  0  0  0  0
    6.2720   -5.5590   23.8420 C   0  0  1  0  0  0  0  0  0  0  0  0
    5.3860   -3.4510   23.3850 C   0  0  0  0  0  0  0  0  0  0  0  0
   12.2630   -2.0560   24.0900 C   0  0  2  0  0  0  0  0  0  0  0  0
    5.1970    1.3450   17.7340 C   0  0  0  0  0  0  0  0  0  0  0  0
    9.7750    2.8120   23.5990 C   0  0  0  0  0  0  0  0  0  0  0  0
    7.8640    4.1420   22.5910 C   0  0  0  0  0  0  0  0  0  0  0  0
    6.5740   -5.5650   25.4040 C   0  0  1  0  0  0  0  0  0  0  0  0
    4.9770   -6.1150   23.4840 C   0  0  2  0  0  0  0  0  0  0  0  0
    4.0770   -4.6290   23.5110 S   0  0  0  0  0  0  0  0  0  0  0  0
   12.2790   -2.7080   25.3370 O   0  0  0  0  0  0  0  0  0  0  0  0
   10.3990    1.5320   24.0220 C   0  0  0  0  0  0  0  0  0  0  0  0
   12.8300   -0.7880   24.1690 C   0  0  0  0  0  0  0  0  0  0  0  0
    7.1440   -4.3340   25.8560 O   0  0  0  0  0  0  0  0  0  0  0  0
   10.5030    3.9970   23.7800 C   0  0  0  0  0  0  0  0  0  0  0  0
    8.6890    5.4180   22.7990 C   0  0  0  0  0  0  0  0  0  0  0  0
    4.3930   -7.0180   24.3640 C   0  0  0  0  0  0  0  0  0  0  0  0
    5.4980   -5.8920   26.2470 C   0  0  0  0  0  0  0  0  0  0  0  0
   13.5450   -3.2180   25.6310 C   0  0  0  0  0  0  0  0  0  0  0  0
    8.1910    6.7870   22.3910 C   0  0  0  0  0  0  0  0  0  0  0  0
    7.8350   -4.4600   27.1060 C   0  0  0  0  0  0  0  0  0  0  0  0
    9.9480    5.3600   23.3770 C   0  0  0  0  0  0  0  0  0  0  0  0
    4.6560   -6.8800   25.7220 C   0  0  0  0  0  0  0  0  0  0  0  0
   10.7750    6.5210   23.6210 O   0  0  0  0  0  0  0  0  0  0  0  0
   11.7560    6.4480   24.6620 C   0  0  0  0  0  0  0  0  0  0  0  0
  1  2  1  0
  2  3  2  0
  1  4  1  0
  1  5  1  0
  2  6  1  0
  4  7  1  6
  4  8  1  0
  5  9  2  0
  5 10  1  0
  6 11  1  1
  7 12  1  0
  7 13  2  0
  8 14  2  0
  8 15  1  0
  9 16  1  0
 10 17  2  0
  6 18  1  0
 15 19  2  0
 14 20  1  0
 12 21  1  0
 16 22  2  0
 17 22  1  0
 23 18  1  1
 18 24  1  0
 22 25  1  0
 19 26  1  0
 20 26  2  0
 21 27  2  0
 21 28  1  0
 23 29  1  0
 23 30  1  0
 24 31  2  0
 30 31  1  0
 25 32  1  0
 27 33  1  0
 25 34  1  1
 29 35  1  1
 27 36  1  0
 28 37  2  0
 30 38  1  1
 29 39  1  0
 32 40  1  0
 37 41  1  0
 35 42  1  0
 36 43  2  0
 37 43  1  0
 38 44  2  0
 39 44  1  0
 43 45  1  0
 45 46  1  0
M  END
