x2776-x0978-x0426
     RDKit          3D

 57 60  0  0  0  0  0  0  0  0999 V2000
    6.7950   -1.6770   21.8150 N   0  0  0  0  0  0  0  0  0  0  0  0
    5.9470   -2.9000   21.5850 C   0  0  0  0  0  0  0  0  0  0  0  0
    4.7310   -2.9270   21.2420 O   0  0  0  0  0  0  0  0  0  0  0  0
    6.3900   -0.1840   21.5490 C   0  0  1  0  0  0  0  0  0  0  0  0
    8.1220   -1.7360   22.4340 C   0  0  0  0  0  0  0  0  0  0  0  0
    6.5180   -4.3160   21.6790 C   0  0  2  0  0  0  0  0  0  0  0  0
    7.7300    0.6130   21.9680 C   0  0  0  0  0  0  0  0  0  0  0  0
    5.9860    0.2880   20.2380 C   0  0  0  0  0  0  0  0  0  0  0  0
    9.3400   -2.2250   21.6640 C   0  0  0  0  0  0  0  0  0  0  0  0
    8.3560   -1.2790   23.8870 C   0  0  0  0  0  0  0  0  0  0  0  0
    6.4610   -4.8410   20.2440 C   0  0  0  0  0  0  0  0  0  0  0  0
    7.6420    1.5770   22.9620 N   0  0  0  0  0  0  0  0  0  0  0  0
    8.8330    0.4840   21.4410 O   0  0  0  0  0  0  0  0  0  0  0  0
    5.7440   -5.2140   22.5290 N   0  0  0  0  0  0  0  0  0  0  0  0
    4.7620    0.9520   20.1140 C   0  0  0  0  0  0  0  0  0  0  0  0
    6.7920    0.1220   19.1010 C   0  0  0  0  0  0  0  0  0  0  0  0
   10.7220   -2.2660   22.2410 C   0  0  0  0  0  0  0  0  0  0  0  0
    9.7910   -1.3430   24.4220 C   0  0  0  0  0  0  0  0  0  0  0  0
    4.4110   -5.0110   23.1630 C   0  0  0  0  0  0  0  0  0  0  0  0
    3.7750    1.1890   21.2290 C   0  0  0  0  0  0  0  0  0  0  0  0
    6.5190    0.5610   17.8540 N   0  0  0  0  0  0  0  0  0  0  0  0
    4.3890    1.4510   18.8660 C   0  0  0  0  0  0  0  0  0  0  0  0
    8.3940    2.8230   23.0950 C   0  0  0  0  0  0  0  0  0  0  0  0
   11.0010   -1.8270   23.6300 C   0  0  0  0  0  0  0  0  0  0  0  0
   12.4000   -1.8910   24.1230 C   0  0  2  0  0  0  0  0  0  0  0  0
    3.3750   -6.2060   23.2200 C   0  0  2  0  0  0  0  0  0  0  0  0
    4.1230   -3.9240   23.6410 O   0  0  0  0  0  0  0  0  0  0  0  0
    4.2850    2.1850   22.2710 C   0  0  0  0  0  0  0  0  0  0  0  0
    5.2500    1.2760   17.7300 C   0  0  0  0  0  0  0  0  0  0  0  0
    9.7420    2.8380   23.5700 C   0  0  0  0  0  0  0  0  0  0  0  0
    7.8770    4.1240   22.7920 C   0  0  0  0  0  0  0  0  0  0  0  0
   12.4270   -2.7110   25.2740 O   0  0  0  0  0  0  0  0  0  0  0  0
   10.4990    1.6000   23.9490 C   0  0  0  0  0  0  0  0  0  0  0  0
   12.7880   -0.6220   24.5120 C   0  0  0  0  0  0  0  0  0  0  0  0
    2.0520   -5.5260   23.2150 N   0  0  0  0  0  0  0  0  0  0  0  0
    3.5850   -7.0300   24.3360 C   0  0  1  0  0  0  0  0  0  0  0  0
    3.1890    2.6860   22.8360 N   0  0  0  0  0  0  0  0  0  0  0  0
   10.5270    4.1950   23.7300 C   0  0  0  0  0  0  0  0  0  0  0  0
    8.5450    5.3560   22.9230 C   0  0  0  0  0  0  0  0  0  0  0  0
   13.7510   -3.0010   25.5990 C   0  0  0  0  0  0  0  0  0  0  0  0
    2.5590   -7.8870   24.7370 C   0  0  0  0  0  0  0  0  0  0  0  0
    4.5570   -7.7440   24.1440 O   0  0  0  0  0  0  0  0  0  0  0  0
    1.0400   -6.2240   22.6320 C   0  0  0  0  0  0  0  0  0  0  0  0
    2.5520    2.0790   24.0070 C   0  0  0  0  0  0  0  0  0  0  0  0
    9.9790    5.4350   23.4340 C   0  0  0  0  0  0  0  0  0  0  0  0
   10.8400    6.4930   23.6560 O   0  0  0  0  0  0  0  0  0  0  0  0
    1.1450   -7.3080   22.0650 O   0  0  0  0  0  0  0  0  0  0  0  0
   -0.1840   -5.5470   22.7410 C   0  0  0  0  0  0  0  0  0  0  0  0
    2.9630    1.0500   24.5170 O   0  0  0  0  0  0  0  0  0  0  0  0
    1.3790    2.7620   24.6240 C   0  0  0  0  0  0  0  0  0  0  0  0
   11.7210    6.4510   24.7840 C   0  0  0  0  0  0  0  0  0  0  0  0
    1.5060    4.0960   25.3470 C   0  0  0  0  0  0  0  0  0  0  0  0
   -0.0270    2.1730   24.5830 C   0  0  0  0  0  0  0  0  0  0  0  0
    2.7000    4.6900   25.4360 F   0  0  0  0  0  0  0  0  0  0  0  0
   -1.0980    2.8380   25.1780 C   0  0  0  0  0  0  0  0  0  0  0  0
    0.3620    4.6780   25.9100 C   0  0  0  0  0  0  0  0  0  0  0  0
   -0.8950    4.0570   25.8210 C   0  0  0  0  0  0  0  0  0  0  0  0
  1  2  1  0
  2  3  2  0
  1  4  1  0
  1  5  1  0
  2  6  1  0
  4  7  1  6
  4  8  1  0
  5  9  2  0
  5 10  1  0
  6 11  1  6
  7 12  1  0
  7 13  2  0
  6 14  1  0
  8 15  1  0
  8 16  2  0
  9 17  1  0
 10 18  2  0
 14 19  1  0
 15 20  1  0
 16 21  1  0
 15 22  2  0
 12 23  1  0
 17 24  2  0
 18 24  1  0
 24 25  1  0
 19 26  1  0
 19 27  2  0
 20 28  1  0
 21 29  2  0
 22 29  1  0
 23 30  2  0
 23 31  1  0
 25 32  1  0
 30 33  1  0
 25 34  1  1
 26 35  1  1
 26 36  1  0
 28 37  1  0
 30 38  1  0
 31 39  2  0
 32 40  1  0
 36 41  1  6
 36 42  1  0
 35 43  1  0
 37 44  1  0
 38 45  2  0
 39 45  1  0
 45 46  1  0
 43 47  2  0
 43 48  1  0
 44 49  2  0
 44 50  1  0
 46 51  1  0
 50 52  2  0
 50 53  1  0
 52 54  1  0
 53 55  2  0
 52 56  1  0
 55 57  1  0
 56 57  2  0
M  END
