x2776-x1077
     RDKit          3D

 43 46  0  0  0  0  0  0  0  0999 V2000
    6.9540   -1.3480   21.7310 N   0  0  0  0  0  0  0  0  0  0  0  0
    5.8270   -2.3200   21.6290 C   0  0  0  0  0  0  0  0  0  0  0  0
    4.9790   -3.2370   21.2180 O   0  0  0  0  0  0  0  0  0  0  0  0
    6.6830    0.1140   21.5520 C   0  0  1  0  0  0  0  0  0  0  0  0
    8.2390   -1.5500   22.3500 C   0  0  0  0  0  0  0  0  0  0  0  0
    6.4820   -2.6470   20.3020 C   0  0  0  0  0  0  0  0  0  0  0  0
    7.8890    1.0930   21.8020 C   0  0  0  0  0  0  0  0  0  0  0  0
    6.1310    0.5400   20.2320 C   0  0  0  0  0  0  0  0  0  0  0  0
    9.3490   -1.3250   21.5470 C   0  0  0  0  0  0  0  0  0  0  0  0
    8.4040   -1.9300   23.7000 C   0  0  0  0  0  0  0  0  0  0  0  0
    7.1020   -4.0490   20.3330 C   0  0  0  0  0  0  0  0  0  0  0  0
    7.8190    1.9450   22.9930 N   0  0  0  0  0  0  0  0  0  0  0  0
    8.8150    1.1960   21.0150 O   0  0  0  0  0  0  0  0  0  0  0  0
    4.9830    1.3130   20.1200 C   0  0  0  0  0  0  0  0  0  0  0  0
    6.8320    0.1520   18.9640 C   0  0  0  0  0  0  0  0  0  0  0  0
   10.6650   -1.4440   21.9850 C   0  0  0  0  0  0  0  0  0  0  0  0
    9.6760   -2.0680   24.2630 C   0  0  0  0  0  0  0  0  0  0  0  0
    7.2270   -2.1930   24.5860 C   0  0  0  0  0  0  0  0  0  0  0  0
    6.3660    0.5590   17.7690 N   0  0  0  0  0  0  0  0  0  0  0  0
    4.4910    1.7340   18.9120 C   0  0  0  0  0  0  0  0  0  0  0  0
    8.5340    3.1610   23.1860 C   0  0  0  0  0  0  0  0  0  0  0  0
   10.9000   -1.8250   23.4260 C   0  0  0  0  0  0  0  0  0  0  0  0
    7.3780   -3.1070   25.5970 C   0  0  0  0  0  0  0  0  0  0  0  0
   12.3100   -1.9320   23.9360 C   0  0  2  0  0  0  0  0  0  0  0  0
    5.1570    1.3840   17.7310 C   0  0  0  0  0  0  0  0  0  0  0  0
    9.8680    3.0860   23.6290 C   0  0  0  0  0  0  0  0  0  0  0  0
    7.9750    4.4370   22.9550 C   0  0  0  0  0  0  0  0  0  0  0  0
    8.7050   -3.8210   25.7770 N   0  0  0  0  0  0  0  0  0  0  0  0
   12.2440   -2.5910   25.1930 O   0  0  0  0  0  0  0  0  0  0  0  0
   10.5590    1.7820   23.8940 C   0  0  0  0  0  0  0  0  0  0  0  0
   12.9260   -0.7050   24.1120 C   0  0  0  0  0  0  0  0  0  0  0  0
   10.5710    4.2830   23.8280 C   0  0  0  0  0  0  0  0  0  0  0  0
    8.6990    5.6200   23.1620 C   0  0  0  0  0  0  0  0  0  0  0  0
    9.3040   -4.6950   24.6980 C   0  0  0  0  0  0  0  0  0  0  0  0
    8.5270   -4.6720   26.9470 C   0  0  0  0  0  0  0  0  0  0  0  0
   13.4670   -3.1800   25.5610 C   0  0  0  0  0  0  0  0  0  0  0  0
   10.0190    5.5420   23.6120 C   0  0  0  0  0  0  0  0  0  0  0  0
    8.5110   -5.4970   23.9100 C   0  0  0  0  0  0  0  0  0  0  0  0
    7.9190   -5.8350   26.6160 C   0  0  0  0  0  0  0  0  0  0  0  0
   10.8470    6.6100   23.8660 O   0  0  0  0  0  0  0  0  0  0  0  0
    6.8080   -5.7000   25.6930 O   0  0  0  0  0  0  0  0  0  0  0  0
    7.0820   -5.5500   24.2800 C   0  0  0  0  0  0  0  0  0  0  0  0
   11.8070    6.4820   24.9140 C   0  0  0  0  0  0  0  0  0  0  0  0
  1  2  1  0
  2  3  2  0
  1  4  1  0
  1  5  1  0
  2  6  1  0
  4  7  1  6
  4  8  1  0
  5  9  2  0
  5 10  1  0
  6 11  1  0
  7 12  1  0
  7 13  2  0
  8 14  2  0
  8 15  1  0
  9 16  1  0
 10 17  2  0
 10 18  1  0
 15 19  2  0
 14 20  1  0
 12 21  1  0
 16 22  2  0
 17 22  1  0
 18 23  1  0
 22 24  1  0
 19 25  1  0
 20 25  2  0
 21 26  2  0
 21 27  1  0
 23 28  1  0
 24 29  1  0
 26 30  1  0
 24 31  1  1
 26 32  1  0
 27 33  2  0
 28 34  1  0
 28 35  1  0
 29 36  1  0
 32 37  2  0
 33 37  1  0
 34 38  1  0
 35 39  1  0
 37 40  1  0
 39 41  1  0
 38 42  1  0
 41 42  1  0
 40 43  1  0
M  END
