x2776-x3115-x1458
     RDKit          3D

 48 52  0  0  0  0  0  0  0  0999 V2000
    6.9420   -1.4610   21.7660 C   0  0  1  0  0  0  0  0  0  0  0  0
    6.0550   -2.7950   21.2860 C   0  0  0  0  0  0  0  0  0  0  0  0
    4.8900   -2.9820   20.6980 O   0  0  0  0  0  0  0  0  0  0  0  0
    6.6740    0.0470   21.5650 C   0  0  1  0  0  0  0  0  0  0  0  0
    6.4500   -1.9200   23.0600 C   0  0  0  0  0  0  0  0  0  0  0  0
    8.4330   -1.5830   22.3040 C   0  0  0  0  0  0  0  0  0  0  0  0
    7.8060    1.0940   21.7960 C   0  0  0  0  0  0  0  0  0  0  0  0
    6.1190    0.4820   20.2480 C   0  0  0  0  0  0  0  0  0  0  0  0
    9.4880   -2.1590   21.6110 C   0  0  0  0  0  0  0  0  0  0  0  0
    8.7560   -1.0950   23.6030 C   0  0  0  0  0  0  0  0  0  0  0  0
    6.6740   -4.0730   21.8090 C   0  0  2  0  0  0  0  0  0  0  0  0
    7.2650   -3.2640   23.0120 C   0  0  2  0  0  0  0  0  0  0  0  0
    7.7980   -4.6970   21.0240 C   0  0  0  0  0  0  0  0  0  0  0  0
    7.7760    1.7630   22.7630 N   0  0  0  0  0  0  0  0  0  0  0  0
    8.7040    1.2640   20.9740 O   0  0  0  0  0  0  0  0  0  0  0  0
    4.9840    1.2690   20.1500 C   0  0  0  0  0  0  0  0  0  0  0  0
    6.7920    0.1070   18.9470 C   0  0  0  0  0  0  0  0  0  0  0  0
   10.7710   -2.2480   22.1720 C   0  0  0  0  0  0  0  0  0  0  0  0
   10.0160   -1.1830   24.1730 C   0  0  0  0  0  0  0  0  0  0  0  0
    7.0430   -4.0240   24.2530 C   0  0  0  0  0  0  0  0  0  0  0  0
    5.6340   -5.2130   22.1570 C   0  0  0  0  0  0  0  0  0  0  0  0
    6.3650    0.5000   17.7350 N   0  0  0  0  0  0  0  0  0  0  0  0
    4.5390    1.6750   18.9150 C   0  0  0  0  0  0  0  0  0  0  0  0
    8.4980    2.9940   22.9700 C   0  0  0  0  0  0  0  0  0  0  0  0
   11.0270   -1.7690   23.4490 C   0  0  0  0  0  0  0  0  0  0  0  0
    5.5960   -4.0670   24.4210 C   0  0  1  0  0  0  0  0  0  0  0  0
    5.1350   -5.2290   23.6030 C   0  0  0  0  0  0  0  0  0  0  0  0
   12.3850   -1.8850   24.0300 C   0  0  2  0  0  0  0  0  0  0  0  0
    5.1740   -3.8800   25.8480 C   0  0  0  0  0  0  0  0  0  0  0  0
    5.1530    1.3510   17.7350 C   0  0  0  0  0  0  0  0  0  0  0  0
    9.7770    2.9600   23.5930 C   0  0  0  0  0  0  0  0  0  0  0  0
    8.0150    4.2610   22.5820 C   0  0  0  0  0  0  0  0  0  0  0  0
   12.3360   -2.6120   25.0140 O   0  0  0  0  0  0  0  0  0  0  0  0
   10.3410    1.8230   23.9940 C   0  0  0  0  0  0  0  0  0  0  0  0
   12.8420   -0.4960   24.4350 C   0  0  0  0  0  0  0  0  0  0  0  0
    6.1100   -3.8290   26.8720 N   0  0  0  0  0  0  0  0  0  0  0  0
    3.9910   -3.6890   26.0360 O   0  0  0  0  0  0  0  0  0  0  0  0
   10.4830    4.1540   23.8000 C   0  0  0  0  0  0  0  0  0  0  0  0
    8.6810    5.4820   22.7630 C   0  0  0  0  0  0  0  0  0  0  0  0
   13.6250   -2.9850   25.4610 C   0  0  0  0  0  0  0  0  0  0  0  0
    8.0730    6.8080   22.2930 C   0  0  0  0  0  0  0  0  0  0  0  0
    6.3720   -5.1340   27.6370 C   0  0  0  0  0  0  0  0  0  0  0  0
    6.5480   -2.5670   27.5050 C   0  0  0  0  0  0  0  0  0  0  0  0
   10.0460    5.4180   23.4460 C   0  0  0  0  0  0  0  0  0  0  0  0
   10.8350    6.5340   23.7120 O   0  0  0  0  0  0  0  0  0  0  0  0
    7.0510   -5.0700   28.8390 C   0  0  0  0  0  0  0  0  0  0  0  0
    4.9800   -5.6970   27.7620 C   0  0  0  0  0  0  0  0  0  0  0  0
   11.7790    6.4610   24.7820 C   0  0  0  0  0  0  0  0  0  0  0  0
  1  2  1  0
  2  3  2  0
  1  4  1  0
  1  5  1  0
  1  6  1  1
  4  7  1  6
  4  8  1  0
  6  9  2  0
  6 10  1  0
  2 11  1  0
 12  5  1  1
 11 12  1  0
 11 13  1  6
  7 14  1  0
  7 15  2  0
  8 16  2  0
  8 17  1  0
  9 18  1  0
 10 19  2  0
 12 20  1  0
 11 21  1  0
 17 22  2  0
 16 23  1  0
 14 24  1  0
 18 25  2  0
 19 25  1  0
 20 26  1  0
 21 27  1  0
 26 27  1  0
 25 28  1  0
 26 29  1  1
 22 30  1  0
 23 30  2  0
 24 31  2  0
 24 32  1  0
 28 33  1  0
 31 34  1  0
 28 35  1  1
 29 36  1  0
 29 37  2  0
 31 38  1  0
 32 39  2  0
 33 40  1  0
 39 41  1  0
 36 42  1  0
 36 43  1  0
 38 44  2  0
 39 44  1  0
 44 45  1  0
 42 46  1  0
 42 47  1  0
 45 48  1  0
M  END
