x2776-x0195
     RDKit          3D

 44 48  0  0  0  0  0  0  0  0999 V2000
    6.6580   -1.2420   21.8690 N   0  0  0  0  0  0  0  0  0  0  0  0
    5.8440   -2.3290   21.1650 C   0  0  0  0  0  0  0  0  0  0  0  0
    4.7580   -3.0350   21.4570 O   0  0  0  0  0  0  0  0  0  0  0  0
    6.4180    0.2220   21.6040 C   0  0  1  0  0  0  0  0  0  0  0  0
    8.0180   -1.4210   22.3310 C   0  0  2  0  0  0  0  0  0  0  0  0
    6.3720   -2.7350   19.8480 C   0  0  0  0  0  0  0  0  0  0  0  0
    7.5990    1.2370   21.8880 C   0  0  0  0  0  0  0  0  0  0  0  0
    5.9680    0.6100   20.2390 C   0  0  0  0  0  0  0  0  0  0  0  0
    8.8530   -2.0800   21.4810 C   0  0  0  0  0  0  0  0  0  0  0  0
    8.2200   -1.6960   23.6920 C   0  0  0  0  0  0  0  0  0  0  0  0
    6.9720   -4.1140   20.0020 C   0  0  0  0  0  0  0  0  0  0  0  0
    7.4150    2.1300   23.0620 N   0  0  0  0  0  0  0  0  0  0  0  0
    8.5820    1.3170   21.1330 O   0  0  0  0  0  0  0  0  0  0  0  0
    4.8180    1.3570   20.0540 C   0  0  0  0  0  0  0  0  0  0  0  0
    6.7630    0.2290   19.0210 C   0  0  0  0  0  0  0  0  0  0  0  0
   10.1440   -2.3570   21.8020 C   0  0  0  0  0  0  0  0  0  0  0  0
    9.5420   -1.6480   24.1730 C   0  0  2  0  0  0  0  0  0  0  0  0
    9.6570   -0.3820   25.0410 C   0  0  0  0  0  0  0  0  0  0  0  0
    6.3610    0.6240   17.7980 N   0  0  0  0  0  0  0  0  0  0  0  0
    4.3960    1.7650   18.8220 C   0  0  0  0  0  0  0  0  0  0  0  0
    8.0430    3.3910   23.2940 C   0  0  0  0  0  0  0  0  0  0  0  0
   10.6700   -1.8850   23.1280 C   0  0  1  0  0  0  0  0  0  0  0  0
    5.1430    1.4250   17.6900 C   0  0  0  0  0  0  0  0  0  0  0  0
    8.4810    3.8620   24.5160 C   0  0  0  0  0  0  0  0  0  0  0  0
    8.3530    4.3980   22.3280 C   0  0  0  0  0  0  0  0  0  0  0  0
   11.5670   -2.7210   23.7020 N   0  0  0  0  0  0  0  0  0  0  0  0
   11.5050   -0.8670   22.3710 C   0  0  0  0  0  0  0  0  0  0  0  0
   12.7560   -2.2000   24.2710 C   0  0  2  0  0  0  0  0  0  0  0  0
    8.7460    4.8180   23.5590 O   0  0  0  0  0  0  0  0  0  0  0  0
    9.1030    4.9610   25.0250 C   0  0  0  0  0  0  0  0  0  0  0  0
    9.0400    5.6450   22.6940 C   0  0  0  0  0  0  0  0  0  0  0  0
   12.5870   -0.1710   22.8410 C   0  0  2  0  0  0  0  0  0  0  0  0
   12.7950   -2.5320   25.6190 O   0  0  0  0  0  0  0  0  0  0  0  0
   12.9330   -0.6910   24.1620 C   0  0  0  0  0  0  0  0  0  0  0  0
    9.4280    5.9200   24.0550 C   0  0  0  0  0  0  0  0  0  0  0  0
   12.2720    1.1320   22.9730 C   0  0  0  0  0  0  0  0  0  0  0  0
   10.0860    7.0290   24.5280 O   0  0  0  0  0  0  0  0  0  0  0  0
   13.9390   -3.2560   25.8460 C   0  0  0  0  0  0  0  0  0  0  0  0
   10.9340    1.5140   23.3760 C   0  0  0  0  0  0  0  0  0  0  0  0
   13.2350    2.1180   22.7180 C   0  0  0  0  0  0  0  0  0  0  0  0
   11.4830    6.8770   24.8240 C   0  0  0  0  0  0  0  0  0  0  0  0
   12.9860    3.4950   22.8140 C   0  0  0  0  0  0  0  0  0  0  0  0
   10.7420    2.9970   23.4780 C   0  0  0  0  0  0  0  0  0  0  0  0
   11.7580    3.8850   23.1900 C   0  0  0  0  0  0  0  0  0  0  0  0
  1  2  1  0
  2  3  2  0
  1  4  1  0
  5  1  1  6
  2  6  1  0
  4  7  1  6
  4  8  1  0
  5  9  1  0
  5 10  1  0
  6 11  1  0
  7 12  1  0
  7 13  2  0
  8 14  2  0
  8 15  1  0
  9 16  2  0
 10 17  1  0
 17 18  1  6
 15 19  2  0
 14 20  1  0
 12 21  1  0
 22 16  1  6
 17 22  1  0
 19 23  1  0
 20 23  2  0
 21 24  2  0
 21 25  1  0
 22 26  1  0
 22 27  1  0
 26 28  1  0
 24 29  1  0
 24 30  1  0
 25 31  2  0
 27 32  1  0
 28 33  1  1
 28 34  1  0
 32 34  1  0
 30 35  2  0
 31 35  1  0
 32 36  1  1
 35 37  1  0
 33 38  1  0
 36 39  2  0
 36 40  1  0
 37 41  1  0
 40 42  2  0
 39 43  1  0
 42 44  1  0
 43 44  2  0
M  END
