x2776-x3110
     RDKit          3D

 38 40  0  0  0  0  0  0  0  0999 V2000
    8.0520    1.6440   23.0400 N   0  0  0  0  0  0  0  0  0  0  0  0
    7.8620    0.9260   21.8070 C   0  0  0  0  0  0  0  0  0  0  0  0
    8.5410    1.1780   20.8290 O   0  0  0  0  0  0  0  0  0  0  0  0
    8.6250    3.0740   23.2870 C   0  0  0  0  0  0  0  0  0  0  0  0
    6.6830   -0.1660   21.6370 C   0  0  2  0  0  0  0  0  0  0  0  0
   10.0110    3.2860   23.5200 C   0  0  0  0  0  0  0  0  0  0  0  0
    7.7760    4.2140   23.3000 C   0  0  0  0  0  0  0  0  0  0  0  0
    7.0140   -1.6840   21.7750 N   0  0  0  0  0  0  0  0  0  0  0  0
   11.1410    2.3020   23.5360 C   0  0  2  0  0  0  0  0  0  0  0  0
    6.1130    0.2920   20.3230 C   0  0  0  0  0  0  0  0  0  0  0  0
   10.5160    4.6770   23.8060 C   0  0  0  0  0  0  0  0  0  0  0  0
    8.2660    5.5150   23.5540 C   0  0  0  0  0  0  0  0  0  0  0  0
   12.2720    2.7110   22.7080 O   0  0  0  0  0  0  0  0  0  0  0  0
   10.7050    0.9710   23.0310 C   0  0  0  0  0  0  0  0  0  0  0  0
    6.1670   -2.8920   21.4640 C   0  0  0  0  0  0  0  0  0  0  0  0
    4.8660    1.1590   20.2730 C   0  0  0  0  0  0  0  0  0  0  0  0
    6.7650   -0.0660   19.1820 C   0  0  0  0  0  0  0  0  0  0  0  0
    8.2820   -1.7800   22.4620 C   0  0  0  0  0  0  0  0  0  0  0  0
    9.7250    5.7490   23.8330 C   0  0  0  0  0  0  0  0  0  0  0  0
   12.3470    4.0140   22.0790 C   0  0  0  0  0  0  0  0  0  0  0  0
    4.8800   -3.0360   21.1310 O   0  0  0  0  0  0  0  0  0  0  0  0
    6.8320   -4.2660   21.5640 C   0  0  0  0  0  0  0  0  0  0  0  0
   10.1670    7.0190   24.0960 O   0  0  0  0  0  0  0  0  0  0  0  0
    6.3360    0.3560   17.8460 N   0  0  0  0  0  0  0  0  0  0  0  0
    4.4050    1.6100   18.9040 C   0  0  0  0  0  0  0  0  0  0  0  0
    9.4400   -1.5170   21.7350 C   0  0  0  0  0  0  0  0  0  0  0  0
    8.4620   -2.1330   23.9310 C   0  0  0  0  0  0  0  0  0  0  0  0
   13.3430    5.0550   22.5780 C   0  0  0  0  0  0  0  0  0  0  0  0
    8.2470   -4.3950   20.9430 C   0  0  0  0  0  0  0  0  0  0  0  0
   11.4220    7.1210   24.7880 C   0  0  0  0  0  0  0  0  0  0  0  0
    5.1500    1.1970   17.8050 C   0  0  0  0  0  0  0  0  0  0  0  0
   10.7170   -1.5690   22.3050 C   0  0  0  0  0  0  0  0  0  0  0  0
    9.7740   -2.1600   24.4420 C   0  0  0  0  0  0  0  0  0  0  0  0
   10.9010   -1.8790   23.6490 C   0  0  0  0  0  0  0  0  0  0  0  0
   12.3380   -1.8890   24.2410 C   0  0  0  0  0  0  0  0  0  0  0  0
   12.5740   -0.7390   24.9410 C   0  0  0  0  0  0  0  0  0  0  0  0
   13.3530   -1.9190   23.0890 C   0  0  0  0  0  0  0  0  0  0  0  0
   12.6020   -3.0380   25.0350 C   0  0  0  0  0  0  0  0  0  0  0  0
  1  2  1  0
  2  3  2  0
  1  4  1  0
  5  2  1  6
  4  6  2  0
  4  7  1  0
  5  8  1  0
  6  9  1  0
  5 10  1  0
  6 11  1  0
  7 12  2  0
  9 13  1  0
  9 14  1  6
  8 15  1  0
 10 16  2  0
 10 17  1  0
  8 18  1  0
 11 19  2  0
 12 19  1  0
 13 20  1  0
 15 21  2  0
 15 22  1  0
 19 23  1  0
 17 24  2  0
 16 25  1  0
 18 26  2  0
 18 27  1  0
 20 28  1  0
 22 29  1  0
 23 30  1  0
 24 31  1  0
 25 31  2  0
 26 32  1  0
 27 33  2  0
 32 34  2  0
 33 34  1  0
 34 35  1  0
 35 36  1  0
 35 37  1  0
 35 38  1  0
M  END
