x2776-x3115-x1402
     RDKit          3D

 52 57  0  0  0  0  0  0  0  0999 V2000
    6.7490   -1.3900   21.7840 C   0  0  1  0  0  0  0  0  0  0  0  0
    5.7970   -2.3740   20.9040 C   0  0  0  0  0  0  0  0  0  0  0  0
    4.6460   -2.8330   21.2130 O   0  0  0  0  0  0  0  0  0  0  0  0
    6.4690    0.0720   21.7170 C   0  0  1  0  0  0  0  0  0  0  0  0
    5.9010   -1.7880   22.8770 C   0  0  0  0  0  0  0  0  0  0  0  0
    8.2330   -1.6010   22.3560 C   0  0  0  0  0  0  0  0  0  0  0  0
    6.1780   -2.9930   19.7060 C   0  0  0  0  0  0  0  0  0  0  0  0
    7.6990    1.0740   21.8350 C   0  0  0  0  0  0  0  0  0  0  0  0
    5.8260   -3.3650   22.9080 C   0  0  0  0  0  0  0  0  0  0  0  0
    5.9970    0.5020   20.3830 C   0  0  0  0  0  0  0  0  0  0  0  0
    9.3500   -2.0700   21.6550 C   0  0  0  0  0  0  0  0  0  0  0  0
    8.4080   -1.2430   23.7180 C   0  0  0  0  0  0  0  0  0  0  0  0
    7.1390   -3.8570   20.3810 C   0  0  0  0  0  0  0  0  0  0  0  0
    7.6830    1.9970   22.9690 N   0  0  0  0  0  0  0  0  0  0  0  0
    8.6030    1.1130   20.9940 O   0  0  0  0  0  0  0  0  0  0  0  0
    4.8630    1.2670   20.1800 C   0  0  0  0  0  0  0  0  0  0  0  0
    6.7620    0.1410   19.1090 C   0  0  0  0  0  0  0  0  0  0  0  0
   10.5950   -2.1820   22.2550 C   0  0  0  0  0  0  0  0  0  0  0  0
    9.6650   -1.3560   24.3330 C   0  0  0  0  0  0  0  0  0  0  0  0
    6.5740   -4.4670   21.8630 C   0  0  0  0  0  0  0  0  0  0  0  0
    6.4140    0.5200   17.8600 N   0  0  0  0  0  0  0  0  0  0  0  0
    4.4440    1.6930   18.9450 C   0  0  0  0  0  0  0  0  0  0  0  0
    8.4770    3.1240   23.1250 C   0  0  0  0  0  0  0  0  0  0  0  0
   10.7170   -1.8190   23.5800 C   0  0  0  0  0  0  0  0  0  0  0  0
    7.6280   -4.9710   22.6270 C   0  0  0  0  0  0  0  0  0  0  0  0
    5.6090   -5.4800   21.7050 C   0  0  0  0  0  0  0  0  0  0  0  0
   12.1870   -2.0350   23.9520 C   0  0  2  0  0  0  0  0  0  0  0  0
    5.2210    1.3370   17.7100 C   0  0  0  0  0  0  0  0  0  0  0  0
    9.7640    3.0300   23.6560 C   0  0  0  0  0  0  0  0  0  0  0  0
    8.0290    4.3940   22.7580 C   0  0  0  0  0  0  0  0  0  0  0  0
    7.2400   -5.1950   23.9580 C   0  0  0  0  0  0  0  0  0  0  0  0
    5.0570   -5.8670   22.9460 C   0  0  0  0  0  0  0  0  0  0  0  0
   12.2360   -2.6330   25.0160 O   0  0  0  0  0  0  0  0  0  0  0  0
   10.3720    1.7270   24.0770 C   0  0  0  0  0  0  0  0  0  0  0  0
   12.8650   -0.6790   24.1660 C   0  0  0  0  0  0  0  0  0  0  0  0
   10.5650    4.1660   23.8280 C   0  0  0  0  0  0  0  0  0  0  0  0
    8.8080    5.5460   22.9160 C   0  0  0  0  0  0  0  0  0  0  0  0
    5.8070   -5.5670   24.1050 N   0  0  0  0  0  0  0  0  0  0  0  0
   13.5550   -2.9860   25.3760 C   0  0  0  0  0  0  0  0  0  0  0  0
    8.3110    6.7280   22.5360 C   0  0  0  0  0  0  0  0  0  0  0  0
    5.0440   -5.5530   25.6290 S   0  0  0  0  0  0  0  0  0  0  0  0
   10.0860    5.4330   23.4670 C   0  0  0  0  0  0  0  0  0  0  0  0
   10.7670    6.6180   23.6020 O   0  0  0  0  0  0  0  0  0  0  0  0
    3.9970   -6.5540   25.6150 O   0  0  0  0  0  0  0  0  0  0  0  0
    6.0350   -5.5870   26.6720 O   0  0  0  0  0  0  0  0  0  0  0  0
    4.2400   -4.0960   25.7890 C   0  0  0  0  0  0  0  0  0  0  0  0
   11.7820    6.6700   24.6100 C   0  0  0  0  0  0  0  0  0  0  0  0
    2.4590   -3.9170   25.8910 S   0  0  0  0  0  0  0  0  0  0  0  0
    4.7900   -2.6630   25.8890 C   0  0  0  0  0  0  0  0  0  0  0  0
    3.6290   -1.6750   26.0370 C   0  0  0  0  0  0  0  0  0  0  0  0
    2.3180   -2.1820   26.0630 C   0  0  0  0  0  0  0  0  0  0  0  0
    0.8140   -1.3780   26.2290 Cl  0  0  0  0  0  0  0  0  0  0  0  0
  1  2  1  0
  2  3  2  0
  1  4  1  0
  1  5  1  0
  1  6  1  1
  2  7  1  0
  4  8  1  6
  5  9  1  0
  4 10  1  0
  6 11  2  0
  6 12  1  0
  7 13  1  0
  8 14  1  0
  8 15  2  0
 10 16  2  0
 10 17  1  0
 11 18  1  0
 12 19  2  0
 20  9  1  0
 13 20  1  0
 17 21  2  0
 16 22  1  0
 14 23  1  0
 18 24  2  0
 19 24  1  0
 20 25  1  0
 20 26  1  0
 24 27  1  0
 21 28  1  0
 22 28  2  0
 23 29  2  0
 23 30  1  0
 25 31  1  0
 26 32  1  0
 27 33  1  0
 29 34  1  0
 27 35  1  1
 29 36  1  0
 30 37  2  0
 31 38  1  0
 32 38  1  0
 33 39  1  0
 37 40  1  0
 38 41  1  0
 36 42  2  0
 37 42  1  0
 42 43  1  0
 41 44  2  0
 41 45  2  0
 41 46  1  0
 43 47  1  0
 46 48  1  0
 46 49  2  0
 49 50  1  0
 48 51  1  0
 50 51  2  0
 51 52  1  0
M  END
