x2776-x1478
     RDKit          3D

 42 45  0  0  0  0  0  0  0  0999 V2000
    6.9060   -1.3970   21.7620 N   0  0  0  0  0  0  0  0  0  0  0  0
    6.0850   -2.6540   21.4700 C   0  0  0  0  0  0  0  0  0  0  0  0
    4.8330   -2.9590   21.0730 O   0  0  0  0  0  0  0  0  0  0  0  0
    6.5740    0.0500   21.5560 C   0  0  1  0  0  0  0  0  0  0  0  0
    8.2190   -1.4900   22.3740 C   0  0  0  0  0  0  0  0  0  0  0  0
    6.8990   -3.8880   21.7100 C   0  0  2  0  0  0  0  0  0  0  0  0
    7.7900    1.0400   21.8010 C   0  0  0  0  0  0  0  0  0  0  0  0
    6.0610    0.4850   20.2240 C   0  0  0  0  0  0  0  0  0  0  0  0
    9.2770   -1.9970   21.6110 C   0  0  0  0  0  0  0  0  0  0  0  0
    8.4160   -1.0570   23.7210 C   0  0  0  0  0  0  0  0  0  0  0  0
    6.8290   -4.7850   20.4870 C   0  0  0  0  0  0  0  0  0  0  0  0
    7.7550    1.9160   22.9890 N   0  0  0  0  0  0  0  0  0  0  0  0
    8.7120    1.1250   21.0000 O   0  0  0  0  0  0  0  0  0  0  0  0
    4.9280    1.2830   20.0880 C   0  0  0  0  0  0  0  0  0  0  0  0
    6.7950    0.0830   18.9640 C   0  0  0  0  0  0  0  0  0  0  0  0
   10.5620   -2.1020   22.1220 C   0  0  0  0  0  0  0  0  0  0  0  0
    9.6690   -1.1170   24.3510 C   0  0  0  0  0  0  0  0  0  0  0  0
    6.5020   -4.3520   23.1190 C   0  0  2  0  0  0  0  0  0  0  0  0
    6.3720    0.5000   17.7440 N   0  0  0  0  0  0  0  0  0  0  0  0
    4.5070    1.6980   18.8600 C   0  0  0  0  0  0  0  0  0  0  0  0
    8.4740    3.1420   23.1710 C   0  0  0  0  0  0  0  0  0  0  0  0
   10.8490   -1.6600   23.5480 C   0  0  0  0  0  0  0  0  0  0  0  0
    5.0540   -4.7680   23.2030 N   0  0  0  0  0  0  0  0  0  0  0  0
    6.8250   -3.1900   24.0200 C   0  0  0  0  0  0  0  0  0  0  0  0
   12.2700   -1.7930   24.0220 C   0  0  2  0  0  0  0  0  0  0  0  0
    5.1850    1.3450   17.7020 C   0  0  0  0  0  0  0  0  0  0  0  0
    9.8220    3.0900   23.6170 C   0  0  0  0  0  0  0  0  0  0  0  0
    7.9040    4.4070   22.9250 C   0  0  0  0  0  0  0  0  0  0  0  0
    5.8580   -2.3540   24.5040 C   0  0  0  0  0  0  0  0  0  0  0  0
    4.1110   -3.8130   23.5440 C   0  0  0  0  0  0  0  0  0  0  0  0
    4.8160   -6.1220   23.1490 C   0  0  0  0  0  0  0  0  0  0  0  0
   12.3070   -2.6770   25.1300 O   0  0  0  0  0  0  0  0  0  0  0  0
   10.5240    1.7980   23.9030 C   0  0  0  0  0  0  0  0  0  0  0  0
   12.8410   -0.5880   24.3740 C   0  0  0  0  0  0  0  0  0  0  0  0
   10.5550    4.2800   23.8090 C   0  0  0  0  0  0  0  0  0  0  0  0
    8.6670    5.5570   23.1340 C   0  0  0  0  0  0  0  0  0  0  0  0
    4.4040   -2.6140   24.1600 C   0  0  0  0  0  0  0  0  0  0  0  0
    6.2690   -6.8740   22.5020 Cl  0  0  0  0  0  0  0  0  0  0  0  0
   13.6340   -3.0120   25.4600 C   0  0  0  0  0  0  0  0  0  0  0  0
    9.9840    5.5280   23.5740 C   0  0  0  0  0  0  0  0  0  0  0  0
   10.7930    6.6200   23.8050 O   0  0  0  0  0  0  0  0  0  0  0  0
   11.7920    6.5340   24.8240 C   0  0  0  0  0  0  0  0  0  0  0  0
  1  2  1  0
  2  3  2  0
  1  4  1  0
  1  5  1  0
  2  6  1  0
  4  7  1  6
  4  8  1  0
  5  9  2  0
  5 10  1  0
  6 11  1  6
  7 12  1  0
  7 13  2  0
  8 14  2  0
  8 15  1  0
  9 16  1  0
 10 17  2  0
  6 18  1  0
 15 19  2  0
 14 20  1  0
 12 21  1  0
 16 22  2  0
 17 22  1  0
 18 23  1  0
 18 24  1  1
 22 25  1  0
 19 26  1  0
 20 26  2  0
 21 27  2  0
 21 28  1  0
 24 29  2  0
 23 30  1  0
 23 31  1  0
 25 32  1  0
 27 33  1  0
 25 34  1  1
 27 35  1  0
 28 36  2  0
 29 37  1  0
 30 37  2  0
 31 38  1  0
 32 39  1  0
 35 40  2  0
 36 40  1  0
 40 41  1  0
 41 42  1  0
M  END
