x2776-x0691
     RDKit          3D

 52 57  0  0  0  0  0  0  0  0999 V2000
    6.5470   -1.3550   22.0840 C   0  0  1  0  0  0  0  0  0  0  0  0
    5.7690   -2.2650   21.0490 C   0  0  0  0  0  0  0  0  0  0  0  0
    4.6460   -2.8330   21.2160 O   0  0  0  0  0  0  0  0  0  0  0  0
    6.4870    0.1090   21.6490 C   0  0  1  0  0  0  0  0  0  0  0  0
    5.6940   -2.1620   23.1080 C   0  0  0  0  0  0  0  0  0  0  0  0
    8.0750   -1.6000   22.4740 C   0  0  0  0  0  0  0  0  0  0  0  0
    6.2970   -2.6440   19.8120 C   0  0  0  0  0  0  0  0  0  0  0  0
    7.7720    0.9780   21.8640 C   0  0  0  0  0  0  0  0  0  0  0  0
    5.2200   -3.5240   22.5300 C   0  0  0  0  0  0  0  0  0  0  0  0
    5.9530    0.5300   20.2270 C   0  0  0  0  0  0  0  0  0  0  0  0
    9.0780   -1.7810   21.5130 C   0  0  0  0  0  0  0  0  0  0  0  0
    8.5010   -1.6090   23.7990 C   0  0  0  0  0  0  0  0  0  0  0  0
    6.6030   -4.0630   20.1170 C   0  0  0  0  0  0  0  0  0  0  0  0
    7.5860    2.0830   22.6910 N   0  0  0  0  0  0  0  0  0  0  0  0
    8.8190    0.7100   21.3020 O   0  0  0  0  0  0  0  0  0  0  0  0
    4.6590    1.2890   20.0680 C   0  0  0  0  0  0  0  0  0  0  0  0
    6.7000    0.2210   19.0940 C   0  0  0  0  0  0  0  0  0  0  0  0
   10.4540   -1.9480   21.8530 C   0  0  0  0  0  0  0  0  0  0  0  0
    9.9150   -1.7780   24.2170 C   0  0  0  0  0  0  0  0  0  0  0  0
    6.3080   -4.4370   21.7280 C   0  0  0  0  0  0  0  0  0  0  0  0
    6.3470    0.5670   17.8460 N   0  0  0  0  0  0  0  0  0  0  0  0
    4.3560    1.6180   18.7590 C   0  0  0  0  0  0  0  0  0  0  0  0
    8.4300    3.1990   23.0170 C   0  0  0  0  0  0  0  0  0  0  0  0
   10.8960   -1.9340   23.3010 C   0  0  0  0  0  0  0  0  0  0  0  0
    5.7220   -5.8450   21.7540 C   0  0  0  0  0  0  0  0  0  0  0  0
    7.4690   -4.6480   22.7510 C   0  0  0  0  0  0  0  0  0  0  0  0
   12.3200   -2.0660   23.7580 C   0  0  2  0  0  0  0  0  0  0  0  0
    5.2040    1.2480   17.7490 C   0  0  0  0  0  0  0  0  0  0  0  0
    9.8310    3.0450   23.2500 C   0  0  0  0  0  0  0  0  0  0  0  0
    7.8970    4.4800   23.1180 C   0  0  0  0  0  0  0  0  0  0  0  0
    5.1570   -6.3430   23.0940 C   0  0  0  0  0  0  0  0  0  0  0  0
    6.9780   -4.8790   24.2000 C   0  0  0  0  0  0  0  0  0  0  0  0
   12.3180   -2.6260   25.0660 O   0  0  0  0  0  0  0  0  0  0  0  0
   10.4370    1.6830   23.1200 C   0  0  0  0  0  0  0  0  0  0  0  0
   12.9710   -0.8450   23.8000 C   0  0  0  0  0  0  0  0  0  0  0  0
   10.6680    4.1510   23.6010 C   0  0  0  0  0  0  0  0  0  0  0  0
    8.6690    5.5800   23.4460 C   0  0  0  0  0  0  0  0  0  0  0  0
    5.6100   -5.4970   24.2420 N   0  0  0  0  0  0  0  0  0  0  0  0
   13.6220   -2.9880   25.4530 C   0  0  0  0  0  0  0  0  0  0  0  0
    4.7850   -5.6370   25.7390 S   0  0  0  0  0  0  0  0  0  0  0  0
   10.1550    5.4480   23.7210 C   0  0  0  0  0  0  0  0  0  0  0  0
   10.8240    6.5960   24.0520 O   0  0  0  0  0  0  0  0  0  0  0  0
    4.0760   -6.8980   25.7230 O   0  0  0  0  0  0  0  0  0  0  0  0
    5.7120   -5.3230   26.7970 O   0  0  0  0  0  0  0  0  0  0  0  0
    3.5970   -4.4140   25.7270 C   0  0  0  0  0  0  0  0  0  0  0  0
   11.9060    6.4660   24.9650 C   0  0  0  0  0  0  0  0  0  0  0  0
    3.9270   -3.0580   25.8370 C   0  0  0  0  0  0  0  0  0  0  0  0
    2.2720   -4.7220   25.6180 C   0  0  0  0  0  0  0  0  0  0  0  0
    2.9970   -2.0200   25.8470 C   0  0  0  0  0  0  0  0  0  0  0  0
    1.2230   -3.6010   25.6270 C   0  0  0  0  0  0  0  0  0  0  0  0
    3.3620   -0.7320   25.9570 F   0  0  0  0  0  0  0  0  0  0  0  0
    1.6300   -2.3140   25.7420 C   0  0  0  0  0  0  0  0  0  0  0  0
  1  2  1  0
  2  3  2  0
  1  4  1  0
  1  5  1  0
  1  6  1  1
  2  7  1  0
  4  8  1  6
  5  9  1  0
  4 10  1  0
  6 11  2  0
  6 12  1  0
  7 13  1  0
  8 14  1  0
  8 15  2  0
 10 16  2  0
 10 17  1  0
 11 18  1  0
 12 19  2  0
 20  9  1  0
 13 20  1  0
 17 21  2  0
 16 22  1  0
 14 23  1  0
 18 24  2  0
 19 24  1  0
 20 25  1  0
 20 26  1  0
 24 27  1  0
 21 28  1  0
 22 28  2  0
 23 29  2  0
 23 30  1  0
 25 31  1  0
 26 32  1  0
 27 33  1  0
 29 34  1  0
 27 35  1  1
 29 36  1  0
 30 37  2  0
 31 38  1  0
 32 38  1  0
 33 39  1  0
 38 40  1  0
 36 41  2  0
 37 41  1  0
 41 42  1  0
 40 43  2  0
 40 44  2  0
 40 45  1  0
 42 46  1  0
 45 47  2  0
 45 48  1  0
 47 49  1  0
 48 50  2  0
 49 51  1  0
 49 52  2  0
 50 52  1  0
M  END
