x2776-x1348-x1380
     RDKit          3D

 52 57  0  0  0  0  0  0  0  0999 V2000
    6.8480   -1.4950   21.7820 N   0  0  0  0  0  0  0  0  0  0  0  0
    5.9140   -2.6440   21.4840 C   0  0  0  0  0  0  0  0  0  0  0  0
    4.6840   -2.8130   21.1260 O   0  0  0  0  0  0  0  0  0  0  0  0
    6.6550    0.0270   21.6160 C   0  0  1  0  0  0  0  0  0  0  0  0
    8.1960   -1.7060   22.4030 C   0  0  0  0  0  0  0  0  0  0  0  0
    6.3420   -4.0290   21.5520 C   0  0  1  0  0  0  0  0  0  0  0  0
    7.7890    0.8890   21.8640 C   0  0  0  0  0  0  0  0  0  0  0  0
    6.2080    0.4260   20.2090 C   0  0  0  0  0  0  0  0  0  0  0  0
    9.3230   -1.4680   21.6390 C   0  0  0  0  0  0  0  0  0  0  0  0
    8.4530   -2.1480   23.8350 C   0  0  0  0  0  0  0  0  0  0  0  0
    6.4380   -4.6100   20.1310 C   0  0  0  0  0  0  0  0  0  0  0  0
    7.7290    1.7870   22.9370 N   0  0  0  0  0  0  0  0  0  0  0  0
    8.7660    0.8670   21.1320 O   0  0  0  0  0  0  0  0  0  0  0  0
    4.9740    1.3490   20.0890 C   0  0  0  0  0  0  0  0  0  0  0  0
    6.8530    0.0170   19.0660 C   0  0  0  0  0  0  0  0  0  0  0  0
   10.6120   -1.6210   22.1630 C   0  0  0  0  0  0  0  0  0  0  0  0
    9.7500   -2.2880   24.3210 C   0  0  0  0  0  0  0  0  0  0  0  0
    6.8180   -4.6270   22.7270 N   0  0  0  0  0  0  0  0  0  0  0  0
    6.3410    0.4950   17.7770 N   0  0  0  0  0  0  0  0  0  0  0  0
    4.5540    1.7450   18.8810 C   0  0  0  0  0  0  0  0  0  0  0  0
    8.3770    3.0340   23.0980 C   0  0  0  0  0  0  0  0  0  0  0  0
   10.8390   -2.0170   23.4810 C   0  0  0  0  0  0  0  0  0  0  0  0
    5.6790   -4.8850   23.7420 C   0  0  2  0  0  0  0  0  0  0  0  0
    7.1830   -5.8660   22.1310 C   0  0  0  0  0  0  0  0  0  0  0  0
   12.2500   -2.1340   23.9620 C   0  0  2  0  0  0  0  0  0  0  0  0
    5.2620    1.3020   17.7820 C   0  0  0  0  0  0  0  0  0  0  0  0
    9.6790    2.9190   23.6040 C   0  0  0  0  0  0  0  0  0  0  0  0
    7.8960    4.3300   22.8300 C   0  0  0  0  0  0  0  0  0  0  0  0
    5.8910   -4.5990   25.1130 C   0  0  2  0  0  0  0  0  0  0  0  0
    5.2650   -6.2210   23.9450 C   0  0  2  0  0  0  0  0  0  0  0  0
    6.1530   -7.0840   22.6900 S   0  0  0  0  0  0  0  0  0  0  0  0
   12.1810   -2.7290   25.2490 O   0  0  0  0  0  0  0  0  0  0  0  0
   10.3400    1.6100   23.9340 C   0  0  0  0  0  0  0  0  0  0  0  0
   12.9050   -0.6700   24.1830 C   0  0  0  0  0  0  0  0  0  0  0  0
    7.2500   -4.8550   25.5390 O   0  0  0  0  0  0  0  0  0  0  0  0
   10.4350    4.0920   23.8280 C   0  0  0  0  0  0  0  0  0  0  0  0
    8.6370    5.5100   23.0500 C   0  0  0  0  0  0  0  0  0  0  0  0
    3.9550   -6.3180   24.2210 C   0  0  0  0  0  0  0  0  0  0  0  0
    4.9070   -5.1230   26.0400 C   0  0  0  0  0  0  0  0  0  0  0  0
   13.4470   -3.1970   25.6480 C   0  0  0  0  0  0  0  0  0  0  0  0
    9.9240    5.3760   23.5620 C   0  0  0  0  0  0  0  0  0  0  0  0
    3.7540   -5.6960   25.4340 C   0  0  0  0  0  0  0  0  0  0  0  0
    7.6540   -4.1040   26.6860 C   0  0  2  0  0  0  0  0  0  0  0  0
   10.7420    6.5290   23.8240 O   0  0  0  0  0  0  0  0  0  0  0  0
    8.0460   -5.0580   27.8220 C   0  0  0  0  0  0  0  0  0  0  0  0
    6.5830   -3.1810   27.0830 N   0  0  0  0  0  0  0  0  0  0  0  0
   11.7870    6.4140   24.7920 C   0  0  0  0  0  0  0  0  0  0  0  0
    6.0620   -2.2460   26.2640 C   0  0  0  0  0  0  0  0  0  0  0  0
    6.9110   -5.6900   28.6390 C   0  0  0  0  0  0  0  0  0  0  0  0
    6.0190   -3.2770   28.4490 C   0  0  0  0  0  0  0  0  0  0  0  0
    4.8740   -2.0930   25.9700 O   0  0  0  0  0  0  0  0  0  0  0  0
    5.8180   -4.6950   28.9430 C   0  0  0  0  0  0  0  0  0  0  0  0
  1  2  1  0
  2  3  2  0
  1  4  1  0
  1  5  1  0
  2  6  1  0
  4  7  1  6
  4  8  1  0
  5  9  2  0
  5 10  1  0
  6 11  1  6
  7 12  1  0
  7 13  2  0
  8 14  2  0
  8 15  1  0
  9 16  1  0
 10 17  2  0
  6 18  1  0
 15 19  2  0
 14 20  1  0
 12 21  1  0
 16 22  2  0
 17 22  1  0
 23 18  1  6
 18 24  1  0
 22 25  1  0
 19 26  1  0
 20 26  2  0
 21 27  2  0
 21 28  1  0
 23 29  1  0
 23 30  1  0
 24 31  2  0
 30 31  1  0
 25 32  1  0
 27 33  1  0
 25 34  1  1
 29 35  1  1
 27 36  1  0
 28 37  2  0
 30 38  1  6
 29 39  1  0
 32 40  1  0
 36 41  2  0
 37 41  1  0
 38 42  2  0
 39 42  1  0
 43 35  1  6
 41 44  1  0
 43 45  1  0
 43 46  1  0
 44 47  1  0
 46 48  1  0
 45 49  1  0
 46 50  1  0
 48 51  2  0
 49 52  1  0
 50 52  1  0
M  END
