x2776-x1311-x0426
     RDKit          3D

 60 65  0  0  0  0  0  0  0  0999 V2000
    6.8380   -1.4310   21.9390 N   0  0  0  0  0  0  0  0  0  0  0  0
    6.1140   -2.6930   21.6210 C   0  0  0  0  0  0  0  0  0  0  0  0
    4.8500   -3.0380   21.2650 O   0  0  0  0  0  0  0  0  0  0  0  0
    6.5660    0.0530   21.7040 C   0  0  1  0  0  0  0  0  0  0  0  0
    8.1290   -1.4750   22.5570 C   0  0  0  0  0  0  0  0  0  0  0  0
    7.1630   -3.7700   21.7180 C   0  0  2  0  0  0  0  0  0  0  0  0
    7.7430    0.8450   21.9220 C   0  0  0  0  0  0  0  0  0  0  0  0
    5.9280    0.5050   20.3680 C   0  0  0  0  0  0  0  0  0  0  0  0
    9.2020   -1.8500   21.7500 C   0  0  0  0  0  0  0  0  0  0  0  0
    8.3510   -1.1650   23.8500 C   0  0  0  0  0  0  0  0  0  0  0  0
    6.9970   -4.7350   20.5550 C   0  0  0  0  0  0  0  0  0  0  0  0
    7.7040    1.7740   22.9590 N   0  0  0  0  0  0  0  0  0  0  0  0
    8.7520    0.7630   21.2250 O   0  0  0  0  0  0  0  0  0  0  0  0
    4.6030    1.1780   20.1600 C   0  0  0  0  0  0  0  0  0  0  0  0
    6.7690    0.2600   19.1230 C   0  0  0  0  0  0  0  0  0  0  0  0
   10.5020   -1.9360   22.1840 C   0  0  0  0  0  0  0  0  0  0  0  0
    9.7520   -1.2260   24.4060 C   0  0  0  0  0  0  0  0  0  0  0  0
    7.6120   -4.3910   23.0820 C   0  0  0  0  0  0  0  0  0  0  0  0
    3.5260    1.5530   21.1740 C   0  0  0  0  0  0  0  0  0  0  0  0
    6.4630    0.5990   17.8540 N   0  0  0  0  0  0  0  0  0  0  0  0
    4.3850    1.5120   18.7160 C   0  0  0  0  0  0  0  0  0  0  0  0
    8.4260    3.0250   23.1180 C   0  0  0  0  0  0  0  0  0  0  0  0
   10.8390   -1.6070   23.6230 C   0  0  0  0  0  0  0  0  0  0  0  0
    8.8720   -4.8850   23.0740 C   0  0  0  0  0  0  0  0  0  0  0  0
    6.8810   -4.5510   24.4280 C   0  0  0  0  0  0  0  0  0  0  0  0
   12.2800   -1.7400   23.9660 C   0  0  2  0  0  0  0  0  0  0  0  0
    4.0220    1.8170   22.4490 C   0  0  0  0  0  0  0  0  0  0  0  0
    5.2750    1.2300   17.7020 C   0  0  0  0  0  0  0  0  0  0  0  0
    9.7530    3.0310   23.6270 C   0  0  0  0  0  0  0  0  0  0  0  0
    7.7620    4.3330   22.7480 C   0  0  0  0  0  0  0  0  0  0  0  0
    9.5630   -5.5740   24.2650 C   0  0  0  0  0  0  0  0  0  0  0  0
    7.5380   -5.2210   25.6180 C   0  0  0  0  0  0  0  0  0  0  0  0
    5.4860   -4.0920   24.6200 C   0  0  0  0  0  0  0  0  0  0  0  0
   12.4390   -2.3340   25.2450 O   0  0  0  0  0  0  0  0  0  0  0  0
   10.4090    1.7320   23.9860 C   0  0  0  0  0  0  0  0  0  0  0  0
   12.8840   -0.4970   23.9360 C   0  0  0  0  0  0  0  0  0  0  0  0
    3.2420    2.5300   23.3000 N   0  0  0  0  0  0  0  0  0  0  0  0
   10.5280    4.3160   23.8220 C   0  0  0  0  0  0  0  0  0  0  0  0
    8.6560    5.5910   22.9950 C   0  0  0  0  0  0  0  0  0  0  0  0
    8.8460   -5.7420   25.5720 C   0  0  0  0  0  0  0  0  0  0  0  0
    4.5580   -4.9610   23.8190 C   0  0  1  0  0  0  0  0  0  0  0  0
   13.6890   -2.9940   25.3980 C   0  0  0  0  0  0  0  0  0  0  0  0
    2.2370    1.8510   23.8900 C   0  0  0  0  0  0  0  0  0  0  0  0
   10.0350    5.5200   23.5400 C   0  0  0  0  0  0  0  0  0  0  0  0
    5.2800   -5.6640   22.8770 C   0  0  0  0  0  0  0  0  0  0  0  0
    3.6500   -6.3070   24.5830 S   0  0  0  0  0  0  0  0  0  0  0  0
   10.9340    6.6380   23.8110 O   0  0  0  0  0  0  0  0  0  0  0  0
    2.1520    0.4120   23.8660 O   0  0  0  0  0  0  0  0  0  0  0  0
    1.1900    2.6400   24.5960 C   0  0  0  0  0  0  0  0  0  0  0  0
    4.4550   -7.0940   25.4890 O   0  0  0  0  0  0  0  0  0  0  0  0
    2.2100   -5.8140   25.0130 O   0  0  0  0  0  0  0  0  0  0  0  0
    4.5380   -6.5950   22.2890 C   0  0  0  0  0  0  0  0  0  0  0  0
    3.5540   -7.0960   23.0330 C   0  0  0  0  0  0  0  0  0  0  0  0
   11.7970    6.5480   24.9430 C   0  0  0  0  0  0  0  0  0  0  0  0
    1.4770    3.8320   25.2440 C   0  0  0  0  0  0  0  0  0  0  0  0
   -0.1260    2.1230   24.5810 C   0  0  0  0  0  0  0  0  0  0  0  0
    2.7380    4.3230   25.2540 F   0  0  0  0  0  0  0  0  0  0  0  0
   -1.1340    2.8210   25.2230 C   0  0  0  0  0  0  0  0  0  0  0  0
    0.4930    4.5670   25.9030 C   0  0  0  0  0  0  0  0  0  0  0  0
   -0.8220    4.0540   25.8910 C   0  0  0  0  0  0  0  0  0  0  0  0
  1  2  1  0
  2  3  2  0
  1  4  1  0
  1  5  1  0
  2  6  1  0
  4  7  1  6
  4  8  1  0
  5  9  2  0
  5 10  1  0
  6 11  1  6
  7 12  1  0
  7 13  2  0
  8 14  1  0
  8 15  2  0
  9 16  1  0
 10 17  2  0
  6 18  1  0
 14 19  1  0
 15 20  1  0
 14 21  2  0
 12 22  1  0
 16 23  2  0
 17 23  1  0
 18 24  2  0
 18 25  1  0
 23 26  1  0
 19 27  1  0
 20 28  2  0
 21 28  1  0
 22 29  2  0
 22 30  1  0
 24 31  1  0
 25 32  2  0
 25 33  1  0
 26 34  1  0
 29 35  1  0
 26 36  1  1
 27 37  1  0
 29 38  1  0
 30 39  2  0
 31 40  2  0
 32 40  1  0
 41 33  1  1
 34 42  1  0
 37 43  1  0
 38 44  2  0
 39 44  1  0
 41 45  1  0
 41 46  1  0
 44 47  1  0
 43 48  2  0
 43 49  1  0
 46 50  1  0
 46 51  1  0
 45 52  1  0
 46 53  1  0
 52 53  2  0
 47 54  1  0
 49 55  2  0
 49 56  1  0
 55 57  1  0
 56 58  2  0
 55 59  1  0
 58 60  1  0
 59 60  2  0
M  END
