x2776-x1311-x1380
     RDKit          3D

 61 67  0  0  0  0  0  0  0  0999 V2000
    6.9740   -1.6560   21.5910 N   0  0  0  0  0  0  0  0  0  0  0  0
    6.0940   -2.9030   21.3250 C   0  0  0  0  0  0  0  0  0  0  0  0
    4.8510   -2.9660   20.9560 O   0  0  0  0  0  0  0  0  0  0  0  0
    6.6180   -0.1950   21.4830 C   0  0  1  0  0  0  0  0  0  0  0  0
    8.2520   -1.6930   22.3030 C   0  0  0  0  0  0  0  0  0  0  0  0
    6.6030   -4.3680   21.4910 C   0  0  1  0  0  0  0  0  0  0  0  0
    7.7490    0.9490   21.7790 C   0  0  0  0  0  0  0  0  0  0  0  0
    6.0420    0.3460   20.2000 C   0  0  0  0  0  0  0  0  0  0  0  0
    9.4380   -2.0950   21.7460 C   0  0  0  0  0  0  0  0  0  0  0  0
    8.3720   -1.2630   23.7060 C   0  0  0  0  0  0  0  0  0  0  0  0
    6.8560   -3.7910   20.0420 C   0  0  0  0  0  0  0  0  0  0  0  0
    7.6310    1.7960   22.9830 N   0  0  0  0  0  0  0  0  0  0  0  0
    8.6790    1.1790   21.0140 O   0  0  0  0  0  0  0  0  0  0  0  0
    4.9210    1.0980   20.1020 C   0  0  0  0  0  0  0  0  0  0  0  0
    6.8210    0.0300   18.9330 C   0  0  0  0  0  0  0  0  0  0  0  0
   10.6630   -2.1210   22.3850 C   0  0  0  0  0  0  0  0  0  0  0  0
    9.6430   -1.3290   24.2910 C   0  0  0  0  0  0  0  0  0  0  0  0
    7.6020   -4.6680   22.6330 C   0  0  0  0  0  0  0  0  0  0  0  0
    6.3580    0.5530   17.6560 N   0  0  0  0  0  0  0  0  0  0  0  0
    4.5010    1.5920   18.8130 C   0  0  0  0  0  0  0  0  0  0  0  0
    8.4280    3.0240   23.1320 C   0  0  0  0  0  0  0  0  0  0  0  0
   10.8500   -1.7470   23.7120 C   0  0  0  0  0  0  0  0  0  0  0  0
    8.6810   -5.5390   22.5130 C   0  0  0  0  0  0  0  0  0  0  0  0
    7.3750   -4.0430   23.8650 C   0  0  0  0  0  0  0  0  0  0  0  0
   12.2530   -1.8720   24.1820 C   0  0  2  0  0  0  0  0  0  0  0  0
    5.1990    1.3170   17.7290 C   0  0  0  0  0  0  0  0  0  0  0  0
    9.7710    2.9510   23.5830 C   0  0  0  0  0  0  0  0  0  0  0  0
    7.9060    4.3080   22.8540 C   0  0  0  0  0  0  0  0  0  0  0  0
    9.5230   -5.7660   23.5960 C   0  0  0  0  0  0  0  0  0  0  0  0
    8.2870   -4.2920   24.8900 C   0  0  0  0  0  0  0  0  0  0  0  0
    6.2720   -3.2120   24.1130 C   0  0  1  0  0  0  0  0  0  0  0  0
   12.2680   -2.7740   25.2800 O   0  0  0  0  0  0  0  0  0  0  0  0
   10.5010    1.6370   23.9260 C   0  0  0  0  0  0  0  0  0  0  0  0
   12.7750   -0.5500   24.6120 C   0  0  0  0  0  0  0  0  0  0  0  0
   10.5470    4.1640   23.7550 C   0  0  0  0  0  0  0  0  0  0  0  0
    8.6880    5.4590   23.0350 C   0  0  0  0  0  0  0  0  0  0  0  0
    9.3450   -5.1360   24.7780 C   0  0  0  0  0  0  0  0  0  0  0  0
    5.0670   -3.7950   23.6990 C   0  0  0  0  0  0  0  0  0  0  0  0
    6.1770   -2.2620   25.2130 C   0  0  0  0  0  0  0  0  0  0  0  0
   13.5660   -3.2240   25.5650 C   0  0  0  0  0  0  0  0  0  0  0  0
   10.0020    5.4090   23.4880 C   0  0  0  0  0  0  0  0  0  0  0  0
    3.8150   -4.2740   24.3810 C   0  0  2  0  0  0  0  0  0  0  0  0
    5.4040   -2.6350   26.3690 C   0  0  0  0  0  0  0  0  0  0  0  0
   10.7930    6.5900   23.6840 O   0  0  0  0  0  0  0  0  0  0  0  0
    3.4870   -5.0390   25.5910 C   0  0  1  0  0  0  0  0  0  0  0  0
    3.1860   -5.1250   23.4970 C   0  0  0  0  0  0  0  0  0  0  0  0
    4.4030   -1.9610   26.5830 O   0  0  0  0  0  0  0  0  0  0  0  0
    5.8240   -3.6990   27.2160 N   0  0  0  0  0  0  0  0  0  0  0  0
    2.9240   -3.0990   24.7700 C   0  0  0  0  0  0  0  0  0  0  0  0
   11.7970    6.5520   24.7030 C   0  0  0  0  0  0  0  0  0  0  0  0
    3.9690   -6.4110   25.5290 C   0  0  0  0  0  0  0  0  0  0  0  0
    3.7220   -6.8220   23.8340 S   0  0  0  0  0  0  0  0  0  0  0  0
    2.5350   -3.1230   26.0530 C   0  0  0  0  0  0  0  0  0  0  0  0
    6.5970   -4.8240   26.6770 C   0  0  0  0  0  0  0  0  0  0  0  0
    5.5670   -3.6230   28.6310 C   0  0  0  0  0  0  0  0  0  0  0  0
    3.0710   -4.2800   26.8030 C   0  0  0  0  0  0  0  0  0  0  0  0
    4.2350   -7.7170   24.8470 O   0  0  0  0  0  0  0  0  0  0  0  0
    3.6040   -7.3570   22.5460 O   0  0  0  0  0  0  0  0  0  0  0  0
    7.2910   -5.5740   27.5980 C   0  0  0  0  0  0  0  0  0  0  0  0
    5.7130   -4.8850   29.1130 C   0  0  0  0  0  0  0  0  0  0  0  0
    6.9080   -5.5310   28.9030 C   0  0  0  0  0  0  0  0  0  0  0  0
  1  2  1  0
  2  3  2  0
  1  4  1  0
  1  5  1  0
  2  6  1  0
  4  7  1  6
  4  8  1  0
  5  9  2  0
  5 10  1  0
  6 11  1  6
  7 12  1  0
  7 13  2  0
  8 14  2  0
  8 15  1  0
  9 16  1  0
 10 17  2  0
  6 18  1  0
 15 19  2  0
 14 20  1  0
 12 21  1  0
 16 22  2  0
 17 22  1  0
 18 23  2  0
 18 24  1  0
 22 25  1  0
 19 26  1  0
 20 26  2  0
 21 27  2  0
 21 28  1  0
 23 29  1  0
 24 30  2  0
 24 31  1  0
 25 32  1  0
 27 33  1  0
 25 34  1  1
 27 35  1  0
 28 36  2  0
 29 37  2  0
 30 37  1  0
 31 38  1  1
 31 39  1  0
 32 40  1  0
 35 41  2  0
 36 41  1  0
 42 38  1  6
 39 43  1  0
 41 44  1  0
 42 45  1  0
 42 46  1  0
 43 47  2  0
 43 48  1  0
 42 49  1  0
 44 50  1  0
 45 51  1  1
 46 52  1  0
 51 52  2  0
 49 53  2  0
 48 54  1  0
 48 55  1  0
 45 56  1  0
 53 56  1  0
 52 57  1  0
 52 58  1  0
 54 59  1  0
 55 60  1  0
 59 61  1  0
 60 61  1  0
M  END
