x2776-x0786-x2694-x1311
     RDKit          3D

 57 63  0  0  0  0  0  0  0  0999 V2000
    6.9590   -1.5870   21.4580 N   0  0  0  0  0  0  0  0  0  0  0  0
    6.0300   -2.7650   21.3520 C   0  0  0  0  0  0  0  0  0  0  0  0
    4.8370   -2.9220   20.7920 O   0  0  0  0  0  0  0  0  0  0  0  0
    6.6090   -0.1890   21.4440 C   0  0  1  0  0  0  0  0  0  0  0  0
    8.0590   -1.5390   22.3530 C   0  0  0  0  0  0  0  0  0  0  0  0
    6.2470   -4.1860   21.8880 C   0  0  2  0  0  0  0  0  0  0  0  0
    7.8480    0.7650   21.7500 C   0  0  0  0  0  0  0  0  0  0  0  0
    6.0680    0.3270   20.1700 C   0  0  0  0  0  0  0  0  0  0  0  0
    9.3650   -1.5150   21.9800 C   0  0  0  0  0  0  0  0  0  0  0  0
    7.8720   -1.4580   23.7670 C   0  0  0  0  0  0  0  0  0  0  0  0
    6.4730   -5.1150   20.6390 C   0  0  0  0  0  0  0  0  0  0  0  0
    7.5690    1.8520   22.7490 N   0  0  0  0  0  0  0  0  0  0  0  0
    8.9560    0.7070   21.2260 O   0  0  0  0  0  0  0  0  0  0  0  0
    4.9150    1.0990   20.1000 C   0  0  0  0  0  0  0  0  0  0  0  0
    6.8640   -0.0090   18.9130 C   0  0  0  0  0  0  0  0  0  0  0  0
   10.6810   -1.4180   22.7370 C   0  0  0  0  0  0  0  0  0  0  0  0
    8.9860   -1.3680   24.5330 C   0  0  0  0  0  0  0  0  0  0  0  0
    5.0270   -4.3290   22.8710 C   0  0  1  0  0  0  0  0  0  0  0  0
    7.2830   -4.7350   22.9500 C   0  0  0  0  0  0  0  0  0  0  0  0
   12.0910   -1.3710   22.1670 C   0  0  0  0  0  0  0  0  0  0  0  0
    6.3820    0.5200   17.6760 N   0  0  0  0  0  0  0  0  0  0  0  0
    4.5070    1.5740   18.8580 C   0  0  0  0  0  0  0  0  0  0  0  0
    8.4120    3.0840   23.0190 C   0  0  0  0  0  0  0  0  0  0  0  0
   10.3830   -1.3390   24.2840 C   0  0  0  0  0  0  0  0  0  0  0  0
    4.7090   -5.5580   23.6530 C   0  0  2  0  0  0  0  0  0  0  0  0
    4.3380   -3.1880   23.2420 C   0  0  0  0  0  0  0  0  0  0  0  0
    8.3890   -5.7340   22.6560 C   0  0  0  0  0  0  0  0  0  0  0  0
    7.1780   -4.3310   24.4000 C   0  0  0  0  0  0  0  0  0  0  0  0
   13.0660   -1.5780   23.3050 C   0  0  2  0  0  0  0  0  0  0  0  0
    5.1810    1.3140   17.7550 C   0  0  0  0  0  0  0  0  0  0  0  0
    9.7410    3.0100   23.5370 C   0  0  0  0  0  0  0  0  0  0  0  0
    7.7910    4.3060   22.7250 C   0  0  0  0  0  0  0  0  0  0  0  0
    5.0670   -5.3600   25.1000 C   0  0  0  0  0  0  0  0  0  0  0  0
    4.1910   -2.9900   24.5680 C   0  0  0  0  0  0  0  0  0  0  0  0
    9.1800   -6.1960   23.6550 C   0  0  0  0  0  0  0  0  0  0  0  0
    8.0060   -4.8790   25.3310 C   0  0  0  0  0  0  0  0  0  0  0  0
    5.1110   -6.9590   23.2400 C   0  0  0  0  0  0  0  0  0  0  0  0
    3.1770   -6.2790   24.2130 S   0  0  1  0  0  0  0  0  0  0  0  0
   12.6660   -2.7140   24.0620 O   0  0  0  0  0  0  0  0  0  0  0  0
   10.3510    1.7120   23.8310 C   0  0  0  0  0  0  0  0  0  0  0  0
   12.9290   -0.3020   24.1320 C   0  0  0  0  0  0  0  0  0  0  0  0
    3.2170   -6.5000   25.6330 O   0  0  0  0  0  0  0  0  0  0  0  0
   10.5480    4.1580   23.8010 C   0  0  0  0  0  0  0  0  0  0  0  0
    8.5600    5.5790   22.9770 C   0  0  0  0  0  0  0  0  0  0  0  0
    4.7490   -3.9410   25.6020 C   0  0  0  0  0  0  0  0  0  0  0  0
    1.6690   -6.4240   23.5990 N   0  0  0  0  0  0  0  0  0  0  0  0
    9.0220   -5.7830   25.0780 C   0  0  0  0  0  0  0  0  0  0  0  0
    3.9390   -7.5620   23.6950 C   0  0  0  0  0  0  0  0  0  0  0  0
   13.4220   -2.9100   25.2380 C   0  0  0  0  0  0  0  0  0  0  0  0
    9.9510    5.5370   23.5230 C   0  0  0  0  0  0  0  0  0  0  0  0
    0.9020   -5.2420   23.5750 C   0  0  0  0  0  0  0  0  0  0  0  0
    0.9160   -7.6850   23.7580 C   0  0  0  0  0  0  0  0  0  0  0  0
   10.7520    6.7050   23.7990 O   0  0  0  0  0  0  0  0  0  0  0  0
   -0.1910   -5.0460   24.5880 C   0  0  0  0  0  0  0  0  0  0  0  0
   -0.1760   -7.6500   24.8280 C   0  0  0  0  0  0  0  0  0  0  0  0
   11.8290    6.5620   24.7260 C   0  0  0  0  0  0  0  0  0  0  0  0
   -1.3660   -6.4200   24.5460 S   0  0  0  0  0  0  0  0  0  0  0  0
  1  2  1  0
  2  3  2  0
  1  4  1  0
  1  5  1  0
  6  2  1  0
  4  7  1  6
  4  8  1  0
  5  9  2  0
  5 10  1  0
  6 11  1  6
  7 12  1  0
  7 13  2  0
  8 14  2  0
  8 15  1  0
  9 16  1  0
 10 17  2  0
  6 18  1  0
  6 19  1  0
 16 20  1  0
 15 21  2  0
 14 22  1  0
 12 23  1  0
 16 24  2  0
 17 24  1  0
 18 25  1  0
 18 26  1  1
 19 27  2  0
 19 28  1  0
 20 29  1  0
 21 30  1  0
 22 30  2  0
 23 31  2  0
 23 32  1  0
 25 33  1  1
 26 34  2  0
 27 35  1  0
 28 36  2  0
 25 37  1  0
 25 38  1  0
 29 39  1  0
 31 40  1  0
 29 41  1  1
 38 42  1  1
 31 43  1  0
 32 44  2  0
 33 45  2  0
 34 45  1  0
 38 46  1  0
 35 47  2  0
 36 47  1  0
 37 48  2  0
 38 48  1  0
 39 49  1  0
 43 50  2  0
 44 50  1  0
 46 51  1  0
 46 52  1  0
 50 53  1  0
 51 54  1  0
 52 55  1  0
 53 56  1  0
 54 57  1  0
 55 57  1  0
M  END
