x2776-x1077-x1348
     RDKit          3D

 50 55  0  0  0  0  0  0  0  0999 V2000
    7.0260   -1.5550   21.4710 N   0  0  0  0  0  0  0  0  0  0  0  0
    6.1540   -2.7940   21.1900 C   0  0  0  0  0  0  0  0  0  0  0  0
    4.8880   -2.9800   20.7940 O   0  0  0  0  0  0  0  0  0  0  0  0
    6.6250   -0.1830   21.4500 C   0  0  1  0  0  0  0  0  0  0  0  0
    8.2530   -1.6810   22.2100 C   0  0  0  0  0  0  0  0  0  0  0  0
    6.7900   -4.1440   21.4820 C   0  0  1  0  0  0  0  0  0  0  0  0
    7.6610    0.8150   21.7710 C   0  0  0  0  0  0  0  0  0  0  0  0
    6.1640    0.3270   20.1280 C   0  0  0  0  0  0  0  0  0  0  0  0
    9.4190   -1.3480   21.5460 C   0  0  0  0  0  0  0  0  0  0  0  0
    8.3940   -2.1000   23.5380 C   0  0  0  0  0  0  0  0  0  0  0  0
    8.2390   -4.3730   21.0230 C   0  0  0  0  0  0  0  0  0  0  0  0
    7.4470    1.7470   22.7740 N   0  0  0  0  0  0  0  0  0  0  0  0
    8.7080    0.8800   21.1320 O   0  0  0  0  0  0  0  0  0  0  0  0
    4.9290    1.2130   20.0800 C   0  0  0  0  0  0  0  0  0  0  0  0
    6.8500    0.0220   18.9650 C   0  0  0  0  0  0  0  0  0  0  0  0
   10.6820   -1.4330   22.1240 C   0  0  0  0  0  0  0  0  0  0  0  0
    9.6880   -2.1780   24.1100 C   0  0  0  0  0  0  0  0  0  0  0  0
    6.4230   -4.2550   22.9030 N   0  0  0  0  0  0  0  0  0  0  0  0
    6.4040    0.5410   17.8090 N   0  0  0  0  0  0  0  0  0  0  0  0
    4.4290    1.7590   18.9510 C   0  0  0  0  0  0  0  0  0  0  0  0
    8.3350    2.9050   23.0470 C   0  0  0  0  0  0  0  0  0  0  0  0
   10.8360   -1.8480   23.4110 C   0  0  0  0  0  0  0  0  0  0  0  0
    6.2190   -5.5120   23.5480 C   0  0  1  0  0  0  0  0  0  0  0  0
    5.2880   -3.5290   23.2940 C   0  0  0  0  0  0  0  0  0  0  0  0
   12.2380   -1.9040   23.9480 C   0  0  2  0  0  0  0  0  0  0  0  0
    5.2190    1.4070   17.7380 C   0  0  0  0  0  0  0  0  0  0  0  0
    9.8170    2.8220   23.5470 C   0  0  0  0  0  0  0  0  0  0  0  0
    7.8040    4.3230   22.8470 C   0  0  0  0  0  0  0  0  0  0  0  0
    6.5520   -5.4610   24.9390 C   0  0  1  0  0  0  0  0  0  0  0  0
    4.8690   -5.8340   23.3670 C   0  0  2  0  0  0  0  0  0  0  0  0
    3.7250   -4.4000   23.7190 S   0  0  0  0  0  0  0  0  0  0  0  0
   12.2030   -2.6020   25.1760 O   0  0  0  0  0  0  0  0  0  0  0  0
   10.6050    1.5460   23.8250 C   0  0  0  0  0  0  0  0  0  0  0  0
   12.8580   -0.6740   24.1100 C   0  0  0  0  0  0  0  0  0  0  0  0
   10.5360    4.0440   23.7800 C   0  0  0  0  0  0  0  0  0  0  0  0
    8.5970    5.4310   23.1090 C   0  0  0  0  0  0  0  0  0  0  0  0
    4.3330   -6.7950   24.2140 C   0  0  0  0  0  0  0  0  0  0  0  0
    5.7880   -6.0950   25.9760 C   0  0  0  0  0  0  0  0  0  0  0  0
    8.0100   -5.9740   24.7380 C   0  0  0  0  0  0  0  0  0  0  0  0
    6.8780   -4.0780   25.5560 C   0  0  0  0  0  0  0  0  0  0  0  0
   13.4490   -3.1550   25.5270 C   0  0  0  0  0  0  0  0  0  0  0  0
    9.8980    5.2660   23.5600 C   0  0  0  0  0  0  0  0  0  0  0  0
    4.7700   -6.9150   25.5110 C   0  0  0  0  0  0  0  0  0  0  0  0
    8.9770   -5.1190   24.2510 C   0  0  0  0  0  0  0  0  0  0  0  0
    7.9590   -4.0550   26.7010 C   0  0  1  0  0  0  0  0  0  0  0  0
   10.6160    6.4850   23.8100 O   0  0  0  0  0  0  0  0  0  0  0  0
    7.9020   -5.2320   27.6920 C   0  0  0  0  0  0  0  0  0  0  0  0
    9.9170   -4.8930   25.2310 C   0  0  0  0  0  0  0  0  0  0  0  0
    9.3590   -3.9280   26.2310 N   0  0  0  0  0  0  0  0  0  0  0  0
   11.7360    6.4400   24.7020 C   0  0  0  0  0  0  0  0  0  0  0  0
  1  2  1  0
  2  3  2  0
  1  4  1  0
  1  5  1  0
  2  6  1  0
  4  7  1  6
  4  8  1  0
  5  9  2  0
  5 10  1  0
  6 11  1  1
  7 12  1  0
  7 13  2  0
  8 14  2  0
  8 15  1  0
  9 16  1  0
 10 17  2  0
  6 18  1  0
 15 19  2  0
 14 20  1  0
 12 21  1  0
 16 22  2  0
 17 22  1  0
 23 18  1  1
 18 24  1  0
 22 25  1  0
 19 26  1  0
 20 26  2  0
 21 27  2  0
 21 28  1  0
 23 29  1  0
 23 30  1  0
 24 31  2  0
 30 31  1  0
 25 32  1  0
 27 33  1  0
 25 34  1  1
 27 35  1  0
 28 36  2  0
 30 37  1  1
 29 38  1  1
 29 39  1  0
 29 40  1  0
 32 41  1  0
 35 42  2  0
 36 42  1  0
 37 43  2  0
 38 43  1  0
 39 44  1  0
 40 45  1  0
 42 46  1  0
 45 47  1  6
 44 48  1  0
 45 49  1  0
 48 49  1  0
 46 50  1  0
M  END
