x2776-x2608-x1348
     RDKit          3D

 48 52  0  0  0  0  0  0  0  0999 V2000
    7.0840   -1.7970   21.6980 N   0  0  0  0  0  0  0  0  0  0  0  0
    6.0060   -2.8490   21.4220 C   0  0  0  0  0  0  0  0  0  0  0  0
    4.7780   -2.8690   20.9610 O   0  0  0  0  0  0  0  0  0  0  0  0
    6.7930   -0.2720   21.5560 C   0  0  1  0  0  0  0  0  0  0  0  0
    8.4970   -2.1890   22.0300 C   0  0  1  0  0  0  0  0  0  0  0  0
    6.2070   -4.2830   21.6650 C   0  0  1  0  0  0  0  0  0  0  0  0
    7.8130    0.7980   22.1390 C   0  0  0  0  0  0  0  0  0  0  0  0
    6.2730    0.2230   20.2110 C   0  0  0  0  0  0  0  0  0  0  0  0
    9.4470   -1.5440   23.0660 C   0  0  1  0  0  0  0  0  0  0  0  0
    8.8770   -3.4290   22.5160 C   0  0  0  0  0  0  0  0  0  0  0  0
    6.5720   -5.0750   20.3910 C   0  0  0  0  0  0  0  0  0  0  0  0
    7.4320    2.1480   21.9200 N   0  0  0  0  0  0  0  0  0  0  0  0
    5.1240    1.0290   20.1640 C   0  0  0  0  0  0  0  0  0  0  0  0
    6.8590   -0.0440   18.9610 C   0  0  0  0  0  0  0  0  0  0  0  0
    8.8390   -2.1000   24.2150 C   0  0  0  0  0  0  0  0  0  0  0  0
   11.0100   -1.6400   23.0720 C   0  0  2  0  0  0  0  0  0  0  0  0
    6.6220   -4.6960   22.9310 N   0  0  0  0  0  0  0  0  0  0  0  0
    8.5170   -3.2920   23.8940 C   0  0  0  0  0  0  0  0  0  0  0  0
   11.5120   -2.3350   24.3280 C   0  0  0  0  0  0  0  0  0  0  0  0
    6.3800    0.4360   17.7660 N   0  0  0  0  0  0  0  0  0  0  0  0
    4.6330    1.5120   18.9770 C   0  0  0  0  0  0  0  0  0  0  0  0
    8.2350    3.3460   22.0160 C   0  0  0  0  0  0  0  0  0  0  0  0
   11.6930   -0.4930   22.7170 C   0  0  2  0  0  0  0  0  0  0  0  0
    5.6970   -4.8770   24.0270 C   0  0  2  0  0  0  0  0  0  0  0  0
    7.2490   -5.9300   22.6520 C   0  0  0  0  0  0  0  0  0  0  0  0
   12.7080   -1.8470   24.9370 O   0  0  0  0  0  0  0  0  0  0  0  0
   13.1240   -0.1460   23.1600 C   0  0  0  0  0  0  0  0  0  0  0  0
    5.2770    1.2040   17.8240 C   0  0  0  0  0  0  0  0  0  0  0  0
    7.8200    4.5650   22.6280 C   0  0  0  0  0  0  0  0  0  0  0  0
   10.9380    0.9470   23.0830 S   0  0  0  0  0  0  0  0  0  0  0  0
    6.2690   -5.2530   25.2610 C   0  0  1  0  0  0  0  0  0  0  0  0
    4.7790   -5.8580   23.4950 C   0  0  1  0  0  0  0  0  0  0  0  0
    6.0370   -6.9690   22.8430 S   0  0  0  0  0  0  0  0  0  0  0  0
   10.6970    2.2340   22.4870 O   0  0  0  0  0  0  0  0  0  0  0  0
    9.9030    2.1350   24.1970 C   0  0  0  0  0  0  0  0  0  0  0  0
   13.6030   -2.9060   25.1960 C   0  0  0  0  0  0  0  0  0  0  0  0
    6.6870   -4.0150   25.8510 O   0  0  0  0  0  0  0  0  0  0  0  0
    8.5340    5.7950   22.7960 C   0  0  0  0  0  0  0  0  0  0  0  0
   10.2640    0.5250   24.6530 C   0  0  0  0  0  0  0  0  0  0  0  0
    4.0660   -6.7120   24.3320 C   0  0  0  0  0  0  0  0  0  0  0  0
    5.2830   -5.9620   26.2560 C   0  0  0  0  0  0  0  0  0  0  0  0
    5.9440   -3.5550   26.9260 C   0  0  0  0  0  0  0  0  0  0  0  0
    9.4070    3.4630   24.1790 C   0  0  0  0  0  0  0  0  0  0  0  0
    9.5510    5.7670   23.7880 C   0  0  2  0  0  0  0  0  0  0  0  0
    4.3280   -6.7540   25.6790 C   0  0  0  0  0  0  0  0  0  0  0  0
   10.5530    6.7120   23.7720 O   0  0  0  0  0  0  0  0  0  0  0  0
   10.1620    4.5420   23.7610 C   0  0  0  0  0  0  0  0  0  0  0  0
   11.5970    6.6090   24.7540 C   0  0  0  0  0  0  0  0  0  0  0  0
  1  2  1  0
  2  3  2  0
  1  4  1  0
  1  5  1  0
  2  6  1  0
  4  7  1  0
  4  8  1  6
  5  9  1  0
  5 10  1  1
  6 11  1  6
  7 12  1  0
  8 13  2  0
  8 14  1  0
  9 15  1  1
  9 16  1  0
  6 17  1  0
 10 18  1  0
 15 18  2  0
 16 19  1  1
 14 20  2  0
 13 21  1  0
 12 22  1  0
 16 23  1  0
 24 17  1  6
 17 25  1  0
 19 26  1  0
 23 27  1  1
 20 28  1  0
 21 28  2  0
 22 29  2  0
 23 30  1  0
 24 31  1  0
 24 32  1  0
 25 33  2  0
 32 33  1  0
 30 34  1  0
 30 35  2  0
 26 36  1  0
 31 37  1  1
 29 38  1  0
 30 39  1  0
 32 40  1  1
 31 41  1  0
 37 42  1  0
 35 43  1  0
 38 44  1  0
 40 45  2  0
 41 45  1  0
 44 46  1  6
 43 47  2  0
 44 47  1  0
 46 48  1  0
M  END
