x2908-x1336
     RDKit          3D

 38 42  0  0  0  0  0  0  0  0999 V2000
    5.9870   -5.5210   28.9520 C   0  0  0  0  0  0  0  0  0  0  0  0
    7.0260   -5.0030   27.9230 C   0  0  0  0  0  0  0  0  0  0  0  0
    8.2740   -5.5400   27.6450 C   0  0  0  0  0  0  0  0  0  0  0  0
    6.6970   -3.7540   27.0820 C   0  0  0  0  0  0  0  0  0  0  0  0
    7.5680   -3.2270   26.1480 C   0  0  0  0  0  0  0  0  0  0  0  0
    9.0660   -4.9010   26.6620 C   0  0  0  0  0  0  0  0  0  0  0  0
    7.0280   -1.7830   25.3140 S   0  0  0  0  0  0  0  0  0  0  0  0
    8.8400   -3.7860   25.8770 C   0  0  0  0  0  0  0  0  0  0  0  0
    8.2450   -1.0100   25.1750 O   0  0  0  0  0  0  0  0  0  0  0  0
    5.9490   -1.2070   26.0850 O   0  0  0  0  0  0  0  0  0  0  0  0
    9.9020   -3.3400   24.9170 C   0  0  0  0  0  0  0  0  0  0  0  0
    6.3410   -2.0040   23.7180 N   0  0  0  0  0  0  0  0  0  0  0  0
    5.9470   -3.3190   23.3420 C   0  0  0  0  0  0  0  0  0  0  0  0
    7.1770   -1.2640   22.7210 C   0  0  2  0  0  0  0  0  0  0  0  0
    6.8110   -0.1350   21.7890 N   0  0  0  0  0  0  0  0  0  0  0  0
    6.7650   -4.0620   22.4420 C   0  0  0  0  0  0  0  0  0  0  0  0
    7.9920   -2.0510   22.0400 C   0  0  2  0  0  0  0  0  0  0  0  0
    8.8770   -1.1800   21.4960 N   0  0  0  0  0  0  0  0  0  0  0  0
    8.1810    0.0920   21.4370 C   0  0  0  0  0  0  0  0  0  0  0  0
    7.3230   -3.2610   21.3660 N   0  0  0  0  0  0  0  0  0  0  0  0
    6.1510    0.1530   20.4860 C   0  0  0  0  0  0  0  0  0  0  0  0
    6.7750   -3.4200   20.0430 C   0  0  0  0  0  0  0  0  0  0  0  0
    8.7320    1.3740   21.0860 O   0  0  0  0  0  0  0  0  0  0  0  0
    6.8240   -0.1080   19.1300 C   0  0  0  0  0  0  0  0  0  0  0  0
    4.9140    0.7200   20.4990 C   0  0  0  0  0  0  0  0  0  0  0  0
   10.0900   -0.8510   22.1230 C   0  0  0  0  0  0  0  0  0  0  0  0
    5.6780   -3.9890   19.7800 O   0  0  0  0  0  0  0  0  0  0  0  0
    7.6120   -3.0360   18.8740 C   0  0  0  0  0  0  0  0  0  0  0  0
    4.1560    1.0360   21.7380 C   0  0  0  0  0  0  0  0  0  0  0  0
    6.2290    0.2150   17.9640 N   0  0  0  0  0  0  0  0  0  0  0  0
    4.3990    1.0100   19.2250 C   0  0  0  0  0  0  0  0  0  0  0  0
   10.2570    0.1870   23.1080 C   0  0  0  0  0  0  0  0  0  0  0  0
   11.1440   -1.5590   21.7360 C   0  0  0  0  0  0  0  0  0  0  0  0
    5.0190    0.7770   18.0100 C   0  0  0  0  0  0  0  0  0  0  0  0
   11.5300    0.4660   23.6580 C   0  0  0  0  0  0  0  0  0  0  0  0
   12.3910   -1.4210   22.1360 C   0  0  0  0  0  0  0  0  0  0  0  0
   13.3450   -2.4950   21.3430 Cl  0  0  0  0  0  0  0  0  0  0  0  0
   12.7340   -0.3630   23.1740 C   0  0  0  0  0  0  0  0  0  0  0  0
  1  2  1  0
  2  3  2  0
  2  4  1  0
  4  5  2  0
  3  6  1  0
  7  5  1  0
  5  8  1  0
  6  8  2  0
  7  9  2  0
  7 10  2  0
  8 11  1  0
  7 12  1  0
 12 13  1  0
 14 12  1  6
 14 15  1  0
 13 16  1  0
 14 17  1  0
 17 18  1  6
 15 19  1  0
 18 19  1  0
 16 20  1  0
 17 20  1  0
 15 21  1  0
 20 22  1  0
 19 23  2  0
 21 24  2  0
 21 25  1  0
 18 26  1  0
 22 27  2  0
 22 28  1  0
 25 29  1  0
 24 30  1  0
 25 31  2  0
 26 32  2  0
 26 33  1  0
 30 34  2  0
 31 34  1  0
 32 35  1  0
 33 36  2  0
 36 37  1  0
 35 38  2  0
 36 38  1  0
M  END
