x2908-x2754
     RDKit          3D

 38 41  0  0  0  0  0  0  0  0999 V2000
    4.6760   -3.2140   25.1280 C   0  0  0  0  0  0  0  0  0  0  0  0
    5.2620   -2.7520   26.2860 N   0  0  0  0  0  0  0  0  0  0  0  0
    4.5630   -1.8020   27.1510 C   0  0  0  0  0  0  0  0  0  0  0  0
    3.2630   -3.4020   25.0100 O   0  0  0  0  0  0  0  0  0  0  0  0
    5.4950   -3.5220   23.9110 C   0  0  1  0  0  0  0  0  0  0  0  0
    6.7260   -2.9030   23.6920 C   0  0  0  0  0  0  0  0  0  0  0  0
    5.8880   -4.8340   23.7630 C   0  0  0  0  0  0  0  0  0  0  0  0
    6.4040   -3.4390   26.8650 C   0  0  0  0  0  0  0  0  0  0  0  0
    6.9210   -2.6000   22.2050 C   0  0  2  0  0  0  0  0  0  0  0  0
    6.3010   -5.0970   22.3170 C   0  0  0  0  0  0  0  0  0  0  0  0
    6.6280   -4.8000   26.6650 C   0  0  0  0  0  0  0  0  0  0  0  0
    7.3380   -2.6310   27.7030 C   0  0  0  0  0  0  0  0  0  0  0  0
    6.3320   -1.3710   21.8460 C   0  0  0  0  0  0  0  0  0  0  0  0
    6.5050   -3.8640   21.5280 N   0  0  0  0  0  0  0  0  0  0  0  0
    7.6710   -5.4320   27.2070 C   0  0  0  0  0  0  0  0  0  0  0  0
    8.4970   -3.3260   28.3220 C   0  0  0  0  0  0  0  0  0  0  0  0
    6.1390   -3.8790   20.1850 C   0  0  0  0  0  0  0  0  0  0  0  0
    7.1230   -0.5380   20.8950 N   0  0  0  0  0  0  0  0  0  0  0  0
    8.6690   -4.7060   28.0800 C   0  0  0  0  0  0  0  0  0  0  0  0
    5.1420   -4.4680   19.8190 O   0  0  0  0  0  0  0  0  0  0  0  0
    7.0550   -3.1740   19.1840 C   0  0  0  0  0  0  0  0  0  0  0  0
    8.1730    0.1980   21.5690 C   0  0  0  0  0  0  0  0  0  0  0  0
    6.4220    0.1360   19.8970 C   0  0  0  0  0  0  0  0  0  0  0  0
    8.5860    1.2880   21.1120 O   0  0  0  0  0  0  0  0  0  0  0  0
    8.7400   -0.3970   22.7650 N   0  0  0  0  0  0  0  0  0  0  0  0
    6.8420   -0.0300   18.6140 C   0  0  0  0  0  0  0  0  0  0  0  0
    5.3370    0.9730   20.1460 C   0  0  0  0  0  0  0  0  0  0  0  0
    4.7400    1.2690   21.5670 C   0  0  0  0  0  0  0  0  0  0  0  0
    6.2040    0.6390   17.4990 N   0  0  0  0  0  0  0  0  0  0  0  0
    4.6960    1.6290   19.1070 C   0  0  0  0  0  0  0  0  0  0  0  0
   10.1670   -0.3330   22.8840 C   0  0  0  0  0  0  0  0  0  0  0  0
    5.1690    1.4310   17.8110 C   0  0  0  0  0  0  0  0  0  0  0  0
   10.7490    0.6470   23.6780 C   0  0  0  0  0  0  0  0  0  0  0  0
   10.9440   -1.2970   22.1340 C   0  0  0  0  0  0  0  0  0  0  0  0
   12.1260    0.6900   23.7280 C   0  0  0  0  0  0  0  0  0  0  0  0
   12.2820   -1.2500   22.1900 C   0  0  0  0  0  0  0  0  0  0  0  0
   13.1990   -2.4070   21.2750 Cl  0  0  0  0  0  0  0  0  0  0  0  0
   12.8820   -0.2510   22.9870 C   0  0  0  0  0  0  0  0  0  0  0  0
  1  2  1  0
  2  3  1  0
  1  4  2  0
  5  1  1  1
  5  6  1  0
  5  7  1  0
  2  8  1  0
  6  9  1  0
  7 10  1  0
  8 11  2  0
  8 12  1  0
  9 13  1  6
  9 14  1  0
 10 14  1  0
 11 15  1  0
 12 16  2  0
 14 17  1  0
 13 18  1  0
 15 19  2  0
 16 19  1  0
 17 20  2  0
 17 21  1  0
 18 22  1  0
 18 23  1  0
 22 24  2  0
 22 25  1  0
 23 26  2  0
 23 27  1  0
 27 28  1  0
 26 29  1  0
 27 30  2  0
 25 31  1  0
 29 32  2  0
 30 32  1  0
 31 33  2  0
 31 34  1  0
 33 35  1  0
 34 36  2  0
 36 37  1  0
 35 38  2  0
 36 38  1  0
M  END
