x2908-x0731
     RDKit          3D

 39 42  0  0  0  0  0  0  0  0999 V2000
    0.9790   -1.0620   26.1500 C   0  0  0  0  0  0  0  0  0  0  0  0
    2.0760   -2.0810   26.0660 C   0  0  0  0  0  0  0  0  0  0  0  0
    3.3180   -1.7900   26.5890 C   0  0  0  0  0  0  0  0  0  0  0  0
    1.8610   -3.3180   25.4760 C   0  0  0  0  0  0  0  0  0  0  0  0
    2.8220   -4.3220   25.3740 C   0  0  0  0  0  0  0  0  0  0  0  0
    4.2950   -2.7560   26.5110 C   0  0  0  0  0  0  0  0  0  0  0  0
    4.0640   -4.0170   25.9170 C   0  0  0  0  0  0  0  0  0  0  0  0
    5.2560   -5.2450   25.8190 S   0  0  0  0  0  0  0  0  0  0  0  0
    6.3950   -4.8400   26.6210 O   0  0  0  0  0  0  0  0  0  0  0  0
    4.6390   -6.5440   25.9940 O   0  0  0  0  0  0  0  0  0  0  0  0
    5.7000   -5.0710   24.1970 N   0  0  0  0  0  0  0  0  0  0  0  0
    7.0150   -4.4190   24.0310 C   0  0  0  0  0  0  0  0  0  0  0  0
    5.4090   -6.0340   23.3010 C   0  0  0  0  0  0  0  0  0  0  0  0
    7.2810   -3.9830   22.7540 C   0  0  2  0  0  0  0  0  0  0  0  0
    6.2450   -6.1950   22.2100 C   0  0  0  0  0  0  0  0  0  0  0  0
    7.0540   -2.5120   22.4760 C   0  0  0  0  0  0  0  0  0  0  0  0
    6.6970   -4.8770   21.7290 N   0  0  0  0  0  0  0  0  0  0  0  0
    6.2090   -4.5330   20.4660 C   0  0  0  0  0  0  0  0  0  0  0  0
    8.3630   -1.8560   21.9430 C   0  0  0  0  0  0  0  0  0  0  0  0
    5.2620   -5.1220   19.9970 O   0  0  0  0  0  0  0  0  0  0  0  0
    6.8750   -3.4630   19.6030 C   0  0  0  0  0  0  0  0  0  0  0  0
    8.7360   -0.5600   22.5780 N   0  0  0  0  0  0  0  0  0  0  0  0
    8.1850    0.2240   21.5460 C   0  0  0  0  0  0  0  0  0  0  0  0
   10.0840   -0.4240   22.8050 C   0  0  0  0  0  0  0  0  0  0  0  0
    8.7140    1.2830   21.1160 O   0  0  0  0  0  0  0  0  0  0  0  0
    6.9540   -0.2980   21.0500 N   0  0  0  0  0  0  0  0  0  0  0  0
   10.5750    0.5200   23.6980 C   0  0  0  0  0  0  0  0  0  0  0  0
   10.9650   -1.2180   22.1290 C   0  0  0  0  0  0  0  0  0  0  0  0
    6.3410    0.2610   19.9450 C   0  0  0  0  0  0  0  0  0  0  0  0
   12.0910    0.6230   23.8710 C   0  0  0  0  0  0  0  0  0  0  0  0
   12.3270   -1.1270   22.2860 C   0  0  0  0  0  0  0  0  0  0  0  0
   13.2310   -2.2210   21.3210 Cl  0  0  0  0  0  0  0  0  0  0  0  0
    6.8140    0.1130   18.6660 C   0  0  0  0  0  0  0  0  0  0  0  0
    5.1920    1.0310   20.1120 C   0  0  0  0  0  0  0  0  0  0  0  0
   12.8960   -0.2140   23.1490 C   0  0  0  0  0  0  0  0  0  0  0  0
    4.6440    1.2240   21.4190 C   0  0  0  0  0  0  0  0  0  0  0  0
    6.2650    0.6600   17.5700 N   0  0  0  0  0  0  0  0  0  0  0  0
    4.5970    1.6110   18.9990 C   0  0  0  0  0  0  0  0  0  0  0  0
    5.1700    1.3980   17.7750 C   0  0  0  0  0  0  0  0  0  0  0  0
  1  2  1  0
  2  3  2  0
  2  4  1  0
  4  5  2  0
  3  6  1  0
  5  7  1  0
  6  7  2  0
  8  7  1  0
  8  9  2  0
  8 10  2  0
  8 11  1  0
 11 12  1  0
 11 13  1  0
 12 14  1  0
 13 15  1  0
 14 16  1  1
 14 17  1  0
 15 17  1  0
 17 18  1  0
 16 19  1  0
 18 20  2  0
 18 21  1  0
 19 22  1  0
 22 23  1  0
 22 24  1  0
 23 25  2  0
 23 26  1  0
 24 27  2  0
 24 28  1  0
 26 29  1  0
 27 30  1  0
 28 31  2  0
 31 32  1  0
 29 33  2  0
 29 34  1  0
 30 35  2  0
 31 35  1  0
 34 36  1  0
 33 37  1  0
 34 38  2  0
 37 39  2  0
 38 39  1  0
M  END
