x2908-x0736
     RDKit          3D

 34 38  0  0  0  0  0  0  0  0999 V2000
    4.6140    0.9210   21.6370 C   0  0  0  0  0  0  0  0  0  0  0  0
    5.2520    0.7780   20.2890 C   0  0  0  0  0  0  0  0  0  0  0  0
    6.4420    0.0860   20.1080 C   0  0  0  0  0  0  0  0  0  0  0  0
    4.6120    1.3720   19.1930 C   0  0  0  0  0  0  0  0  0  0  0  0
    7.2120   -0.5530   21.1700 N   0  0  0  0  0  0  0  0  0  0  0  0
    7.0190   -0.0210   18.6930 C   0  0  0  0  0  0  0  0  0  0  0  0
    5.1510    1.2780   17.9180 C   0  0  0  0  0  0  0  0  0  0  0  0
    8.2810    0.0480   21.7300 C   0  0  0  0  0  0  0  0  0  0  0  0
    6.2910    0.6250   17.6090 N   0  0  0  0  0  0  0  0  0  0  0  0
    7.4170   -1.9320   21.2980 C   0  0  2  0  0  0  0  0  0  0  0  0
    8.8700    1.3310   21.3930 O   0  0  0  0  0  0  0  0  0  0  0  0
    8.7920   -0.6210   22.5300 N   0  0  0  0  0  0  0  0  0  0  0  0
    6.4200   -2.8420   21.1600 N   0  0  0  0  0  0  0  0  0  0  0  0
    8.2040   -2.0000   22.4630 C   0  0  1  0  0  0  0  0  0  0  0  0
    6.2120   -3.4420   19.9190 C   0  0  0  0  0  0  0  0  0  0  0  0
   10.1050   -0.4410   22.6970 C   0  0  0  0  0  0  0  0  0  0  0  0
    7.7330   -2.7360   23.5400 N   0  0  0  0  0  0  0  0  0  0  0  0
    6.1120   -3.6230   22.2150 C   0  0  0  0  0  0  0  0  0  0  0  0
    7.2570   -3.1100   18.8480 C   0  0  0  0  0  0  0  0  0  0  0  0
    5.2790   -4.2140   19.7280 O   0  0  0  0  0  0  0  0  0  0  0  0
    7.2360   -2.2490   24.6840 C   0  0  0  0  0  0  0  0  0  0  0  0
   10.5440    0.6060   23.4760 C   0  0  0  0  0  0  0  0  0  0  0  0
   10.9430   -1.3140   22.0630 C   0  0  0  0  0  0  0  0  0  0  0  0
    7.0720   -3.9730   23.1460 C   0  0  0  0  0  0  0  0  0  0  0  0
    5.9570   -2.6330   25.1670 O   0  0  0  0  0  0  0  0  0  0  0  0
   12.0250    0.8530   23.6820 C   0  0  0  0  0  0  0  0  0  0  0  0
   12.2790   -1.1670   22.1890 C   0  0  0  0  0  0  0  0  0  0  0  0
    8.0510   -1.2740   25.4360 C   0  0  0  0  0  0  0  0  0  0  0  0
   13.1870   -2.3140   21.3360 Cl  0  0  0  0  0  0  0  0  0  0  0  0
   12.9010   -0.1460   22.9520 C   0  0  0  0  0  0  0  0  0  0  0  0
    8.4540    0.0090   24.8850 O   0  0  0  0  0  0  0  0  0  0  0  0
    8.5170   -1.4640   26.7290 C   0  0  0  0  0  0  0  0  0  0  0  0
    9.2280   -0.3820   27.1010 C   0  0  0  0  0  0  0  0  0  0  0  0
    9.2150    0.5900   25.9480 C   0  0  0  0  0  0  0  0  0  0  0  0
  1  2  1  0
  2  3  2  0
  2  4  1  0
  3  5  1  0
  3  6  1  0
  4  7  2  0
  5  8  1  0
  6  9  2  0
  7  9  1  0
 10  5  1  1
  8 11  2  0
  8 12  1  0
 10 13  1  0
 10 14  1  0
 14 12  1  1
 13 15  1  0
 12 16  1  0
 14 17  1  0
 13 18  1  0
 15 19  1  0
 15 20  2  0
 17 21  1  0
 16 22  2  0
 16 23  1  0
 17 24  1  0
 18 24  1  0
 21 25  2  0
 22 26  1  0
 23 27  2  0
 21 28  1  0
 27 29  1  0
 26 30  2  0
 27 30  1  0
 28 31  1  0
 28 32  2  0
 32 33  1  0
 31 34  1  0
 33 34  2  0
M  END
