x2908-x0978
     RDKit          3D

 35 36  0  0  0  0  0  0  0  0999 V2000
    1.9470   -5.6140   23.1380 N   0  0  0  0  0  0  0  0  0  0  0  0
    3.2200   -6.3560   23.1890 C   0  0  2  0  0  0  0  0  0  0  0  0
    3.2550   -7.1180   24.5290 C   0  0  1  0  0  0  0  0  0  0  0  0
    0.7660   -6.2260   22.5210 C   0  0  0  0  0  0  0  0  0  0  0  0
    0.7330   -7.2960   21.9390 O   0  0  0  0  0  0  0  0  0  0  0  0
   -0.4970   -5.3600   22.6670 C   0  0  0  0  0  0  0  0  0  0  0  0
    4.3700   -5.3220   22.9630 C   0  0  0  0  0  0  0  0  0  0  0  0
    2.1420   -8.1390   24.7070 C   0  0  0  0  0  0  0  0  0  0  0  0
    4.4810   -7.8010   24.6960 O   0  0  0  0  0  0  0  0  0  0  0  0
    5.3090   -5.6190   21.8200 N   0  0  0  0  0  0  0  0  0  0  0  0
    4.5000   -4.3130   23.6520 O   0  0  0  0  0  0  0  0  0  0  0  0
    6.5290   -4.8410   21.5090 C   0  0  1  0  0  0  0  0  0  0  0  0
    6.5540   -4.4010   20.0340 C   0  0  0  0  0  0  0  0  0  0  0  0
    6.7720   -3.7600   22.3940 C   0  0  0  0  0  0  0  0  0  0  0  0
    5.3820   -3.6230   19.4790 C   0  0  0  0  0  0  0  0  0  0  0  0
    6.0970   -2.4210   22.0960 C   0  0  0  0  0  0  0  0  0  0  0  0
    6.8650   -1.7490   21.2120 C   0  0  0  0  0  0  0  0  0  0  0  0
    6.9660   -0.2940   21.0590 N   0  0  0  0  0  0  0  0  0  0  0  0
    8.1170    0.3710   21.6150 C   0  0  0  0  0  0  0  0  0  0  0  0
    6.3930    0.2210   19.9980 C   0  0  0  0  0  0  0  0  0  0  0  0
    8.6390    1.5330   21.0920 O   0  0  0  0  0  0  0  0  0  0  0  0
    8.6800   -0.3230   22.7620 N   0  0  0  0  0  0  0  0  0  0  0  0
    6.9180   -0.0680   18.7430 C   0  0  0  0  0  0  0  0  0  0  0  0
    5.2910    1.0480   20.1440 C   0  0  0  0  0  0  0  0  0  0  0  0
    4.7280    1.3530   21.4970 C   0  0  0  0  0  0  0  0  0  0  0  0
    6.3100    0.5060   17.6960 N   0  0  0  0  0  0  0  0  0  0  0  0
    4.6680    1.6330   19.0580 C   0  0  0  0  0  0  0  0  0  0  0  0
   10.1120   -0.3980   22.8410 C   0  0  0  0  0  0  0  0  0  0  0  0
    5.1570    1.3870   17.8150 C   0  0  0  0  0  0  0  0  0  0  0  0
   10.6470    0.5510   23.7010 C   0  0  0  0  0  0  0  0  0  0  0  0
   10.9420   -1.3590   22.0800 C   0  0  0  0  0  0  0  0  0  0  0  0
   12.0290    0.5790   23.8270 C   0  0  0  0  0  0  0  0  0  0  0  0
   12.2830   -1.2630   22.2550 C   0  0  0  0  0  0  0  0  0  0  0  0
   13.1990   -2.3580   21.3540 Cl  0  0  0  0  0  0  0  0  0  0  0  0
   12.8500   -0.3070   23.1200 C   0  0  0  0  0  0  0  0  0  0  0  0
  2  1  1  1
  2  3  1  0
  1  4  1  0
  4  5  2  0
  4  6  1  0
  2  7  1  0
  3  8  1  6
  3  9  1  0
  7 10  1  0
  7 11  2  0
 10 12  1  0
 12 13  1  6
 12 14  1  0
 13 15  2  3
 14 16  1  0
 16 17  1  0
 17 18  1  0
 18 19  1  0
 18 20  1  0
 19 21  2  0
 19 22  1  0
 20 23  2  0
 20 24  1  0
 24 25  1  0
 23 26  1  0
 24 27  2  0
 22 28  1  0
 26 29  2  0
 27 29  1  0
 28 30  2  0
 28 31  1  0
 30 32  1  0
 31 33  2  0
 33 34  1  0
 32 35  2  0
 33 35  1  0
M  END
