x2908-x1374
     RDKit          3D

 39 42  0  0  0  0  0  0  0  0999 V2000
   10.3660   -4.0240   26.0870 C   0  0  0  0  0  0  0  0  0  0  0  0
    9.4850   -4.4140   24.9530 C   0  0  0  0  0  0  0  0  0  0  0  0
    9.4570   -5.7230   24.5990 C   0  0  0  0  0  0  0  0  0  0  0  0
    8.7310   -3.4590   24.3000 C   0  0  0  0  0  0  0  0  0  0  0  0
    7.9350   -3.9020   23.2480 C   0  0  0  0  0  0  0  0  0  0  0  0
    8.6960   -6.2080   23.5570 C   0  0  0  0  0  0  0  0  0  0  0  0
    7.0340   -3.0140   22.4490 C   0  0  1  0  0  0  0  0  0  0  0  0
    7.9260   -5.3740   22.8420 C   0  0  0  0  0  0  0  0  0  0  0  0
    6.0440   -3.8940   21.9320 N   0  0  0  0  0  0  0  0  0  0  0  0
    6.3670   -1.8220   23.1760 C   0  0  0  0  0  0  0  0  0  0  0  0
    6.1550   -4.1520   20.5440 C   0  0  0  0  0  0  0  0  0  0  0  0
    6.0360   -0.7100   22.1380 C   0  0  0  0  0  0  0  0  0  0  0  0
    5.4240   -4.8430   22.9850 C   0  0  1  0  0  0  0  0  0  0  0  0
    5.4520   -5.0050   20.0230 O   0  0  0  0  0  0  0  0  0  0  0  0
    7.1360   -3.3360   19.6150 C   0  0  0  0  0  0  0  0  0  0  0  0
    6.9660   -0.2470   21.1090 N   0  0  0  0  0  0  0  0  0  0  0  0
    4.2920   -4.2530   23.5440 C   0  0  0  0  0  0  0  0  0  0  0  0
    5.1220   -6.1650   22.6070 C   0  0  0  0  0  0  0  0  0  0  0  0
    8.1550    0.2800   21.6040 C   0  0  0  0  0  0  0  0  0  0  0  0
    3.8410   -6.7570   23.6240 S   0  0  0  0  0  0  0  0  0  0  0  0
    3.3110   -5.1870   23.9930 C   0  0  0  0  0  0  0  0  0  0  0  0
    6.3370    0.3190   19.9970 C   0  0  0  0  0  0  0  0  0  0  0  0
    2.8450   -7.3890   22.8020 O   0  0  0  0  0  0  0  0  0  0  0  0
    4.3750   -7.4910   24.7610 O   0  0  0  0  0  0  0  0  0  0  0  0
    8.8130    1.2740   21.1970 O   0  0  0  0  0  0  0  0  0  0  0  0
    8.6990   -0.4330   22.7490 N   0  0  0  0  0  0  0  0  0  0  0  0
    6.8080   -0.0520   18.7520 C   0  0  0  0  0  0  0  0  0  0  0  0
    5.2880    1.2360   20.1430 C   0  0  0  0  0  0  0  0  0  0  0  0
    4.7600    1.6650   21.4740 C   0  0  0  0  0  0  0  0  0  0  0  0
    6.2590    0.4810   17.5860 N   0  0  0  0  0  0  0  0  0  0  0  0
    4.7160    1.7820   19.0170 C   0  0  0  0  0  0  0  0  0  0  0  0
   10.1140   -0.4280   22.9910 C   0  0  0  0  0  0  0  0  0  0  0  0
    5.1680    1.4380   17.7660 C   0  0  0  0  0  0  0  0  0  0  0  0
   10.6360    0.2270   24.0930 C   0  0  0  0  0  0  0  0  0  0  0  0
   10.9690   -1.1070   22.0390 C   0  0  0  0  0  0  0  0  0  0  0  0
   12.0070    0.2160   24.2440 C   0  0  0  0  0  0  0  0  0  0  0  0
   12.3010   -1.0830   22.2230 C   0  0  0  0  0  0  0  0  0  0  0  0
   13.3600   -1.8440   21.0980 Cl  0  0  0  0  0  0  0  0  0  0  0  0
   12.8320   -0.4270   23.3200 C   0  0  0  0  0  0  0  0  0  0  0  0
  1  2  1  0
  2  3  2  0
  2  4  1  0
  4  5  2  0
  3  6  1  0
  5  7  1  0
  5  8  1  0
  6  8  2  0
  7  9  1  0
  7 10  1  1
  9 11  1  0
 10 12  1  0
 13  9  1  6
 11 14  2  0
 11 15  1  0
 12 16  1  0
 13 17  1  0
 13 18  1  0
 16 19  1  0
 18 20  1  0
 17 21  2  0
 20 21  1  0
 16 22  1  0
 20 23  1  0
 20 24  1  0
 19 25  2  0
 19 26  1  0
 22 27  2  0
 22 28  1  0
 28 29  1  0
 27 30  1  0
 28 31  2  0
 26 32  1  0
 30 33  2  0
 31 33  1  0
 32 34  2  0
 32 35  1  0
 34 36  1  0
 35 37  2  0
 37 38  1  0
 36 39  2  0
 37 39  1  0
M  END
