x2908-x0771
     RDKit          3D

 40 43  0  0  0  0  0  0  0  0999 V2000
    0.6380   -1.4810   26.0500 C   0  0  0  0  0  0  0  0  0  0  0  0
    1.7350   -2.4970   25.9540 C   0  0  0  0  0  0  0  0  0  0  0  0
    3.0140   -2.1500   26.3140 C   0  0  0  0  0  0  0  0  0  0  0  0
    1.4370   -3.7730   25.5020 C   0  0  0  0  0  0  0  0  0  0  0  0
    2.4640   -4.7110   25.4190 C   0  0  0  0  0  0  0  0  0  0  0  0
    4.0770   -3.0350   26.2540 C   0  0  0  0  0  0  0  0  0  0  0  0
    2.0950   -6.0510   24.9350 C   0  0  0  0  0  0  0  0  0  0  0  0
    3.9230   -4.3420   25.8250 C   0  0  0  0  0  0  0  0  0  0  0  0
    5.2950   -5.4850   25.7590 S   0  0  0  0  0  0  0  0  0  0  0  0
    4.6810   -6.7970   25.6940 O   0  0  0  0  0  0  0  0  0  0  0  0
    6.0850   -5.1750   26.9340 O   0  0  0  0  0  0  0  0  0  0  0  0
    5.9030   -5.2540   24.3580 N   0  0  0  0  0  0  0  0  0  0  0  0
    5.4140   -5.9470   23.3100 C   0  0  0  0  0  0  0  0  0  0  0  0
    6.5260   -4.0540   24.1650 C   0  0  0  0  0  0  0  0  0  0  0  0
    5.1260   -5.1660   22.0670 C   0  0  0  0  0  0  0  0  0  0  0  0
    7.1140   -4.1730   22.9120 C   0  0  0  0  0  0  0  0  0  0  0  0
    6.0590   -4.1130   21.9780 C   0  0  0  0  0  0  0  0  0  0  0  0
    6.5700   -3.9900   20.5400 C   0  0  0  0  0  0  0  0  0  0  0  0
    5.3330   -2.7210   22.0350 C   0  0  0  0  0  0  0  0  0  0  0  0
    5.7270   -4.3140   19.7450 O   0  0  0  0  0  0  0  0  0  0  0  0
    7.9380   -3.3970   20.1550 C   0  0  0  0  0  0  0  0  0  0  0  0
    6.2030   -1.4160   22.2790 C   0  0  0  0  0  0  0  0  0  0  0  0
    6.8860   -0.7400   21.1410 N   0  0  0  0  0  0  0  0  0  0  0  0
    8.0800   -0.0030   21.5440 C   0  0  0  0  0  0  0  0  0  0  0  0
    6.1960    0.0140   20.0820 C   0  0  0  0  0  0  0  0  0  0  0  0
    8.4980    1.2540   20.9710 O   0  0  0  0  0  0  0  0  0  0  0  0
    8.8360   -0.6680   22.6030 N   0  0  0  0  0  0  0  0  0  0  0  0
    6.8670   -0.1190   18.8320 C   0  0  0  0  0  0  0  0  0  0  0  0
    5.0630    0.7750   20.2520 C   0  0  0  0  0  0  0  0  0  0  0  0
    4.3920    0.9090   21.4960 C   0  0  0  0  0  0  0  0  0  0  0  0
    6.3740    0.5500   17.7400 N   0  0  0  0  0  0  0  0  0  0  0  0
    4.5870    1.4280   19.1460 C   0  0  0  0  0  0  0  0  0  0  0  0
   10.2020   -0.5500   22.6130 C   0  0  0  0  0  0  0  0  0  0  0  0
    5.2270    1.3650   17.7710 C   0  0  0  0  0  0  0  0  0  0  0  0
   10.7380    0.6220   23.1750 C   0  0  0  0  0  0  0  0  0  0  0  0
   10.9990   -1.5180   22.0860 C   0  0  0  0  0  0  0  0  0  0  0  0
   12.1360    0.8510   23.2310 C   0  0  0  0  0  0  0  0  0  0  0  0
   12.4400   -1.3190   22.1150 C   0  0  0  0  0  0  0  0  0  0  0  0
   13.1900   -2.7160   21.3380 Cl  0  0  0  0  0  0  0  0  0  0  0  0
   13.0240   -0.2140   22.6530 C   0  0  0  0  0  0  0  0  0  0  0  0
  1  2  1  0
  2  3  2  0
  2  4  1  0
  4  5  2  0
  3  6  1  0
  5  7  1  0
  5  8  1  0
  6  8  2  0
  9  8  1  0
  9 10  2  0
  9 11  2  0
  9 12  1  0
 12 13  1  0
 12 14  1  0
 13 15  1  0
 14 16  1  0
 15 17  1  0
 16 17  1  0
 17 18  1  0
 17 19  1  0
 18 20  2  0
 18 21  1  0
 19 22  1  0
 22 23  1  0
 23 24  1  0
 23 25  1  0
 24 26  2  0
 24 27  1  0
 25 28  2  0
 25 29  1  0
 29 30  1  0
 28 31  1  0
 29 32  2  0
 27 33  1  0
 31 34  2  0
 32 34  1  0
 33 35  2  0
 33 36  1  0
 35 37  1  0
 36 38  2  0
 38 39  1  0
 37 40  2  0
 38 40  1  0
M  END
