x2908-x1358
     RDKit          3D

 38 41  0  0  0  0  0  0  0  0999 V2000
    6.9600   -2.6690   26.1320 N   0  0  0  0  0  0  0  0  0  0  0  0
    5.9350   -3.1940   25.2320 C   0  0  0  0  0  0  0  0  0  0  0  0
    4.7170   -3.1590   25.3780 O   0  0  0  0  0  0  0  0  0  0  0  0
    6.8400   -1.5370   27.0520 C   0  0  0  0  0  0  0  0  0  0  0  0
    6.0750   -0.4640   26.6320 C   0  0  0  0  0  0  0  0  0  0  0  0
    7.4550   -1.5160   28.2930 C   0  0  0  0  0  0  0  0  0  0  0  0
    6.6030   -3.8460   24.0310 C   0  0  2  0  0  0  0  0  0  0  0  0
    5.4580   -0.4660   25.4040 O   0  0  0  0  0  0  0  0  0  0  0  0
    7.3620   -0.4630   29.1930 C   0  0  0  0  0  0  0  0  0  0  0  0
    5.9400    0.6260   27.4880 C   0  0  0  0  0  0  0  0  0  0  0  0
    7.4560   -2.9970   23.2880 C   0  0  0  0  0  0  0  0  0  0  0  0
    5.7720   -4.6780   23.2510 C   0  0  0  0  0  0  0  0  0  0  0  0
    6.5870    0.5940   28.7440 C   0  0  0  0  0  0  0  0  0  0  0  0
    7.1630   -2.8730   21.9110 C   0  0  2  0  0  0  0  0  0  0  0  0
    6.3050   -4.9700   22.0230 C   0  0  0  0  0  0  0  0  0  0  0  0
    6.3430   -1.5680   21.7130 C   0  0  0  0  0  0  0  0  0  0  0  0
    6.6610   -3.9430   21.2540 N   0  0  0  0  0  0  0  0  0  0  0  0
    6.2030   -3.7610   19.9590 C   0  0  0  0  0  0  0  0  0  0  0  0
    7.0450   -0.4780   20.9420 N   0  0  0  0  0  0  0  0  0  0  0  0
    5.0950   -4.1290   19.6270 O   0  0  0  0  0  0  0  0  0  0  0  0
    7.1850   -3.1280   18.9830 C   0  0  0  0  0  0  0  0  0  0  0  0
    8.1280    0.1980   21.5030 C   0  0  0  0  0  0  0  0  0  0  0  0
    6.3640    0.1750   19.9020 C   0  0  0  0  0  0  0  0  0  0  0  0
    8.6800    1.2730   21.1360 O   0  0  0  0  0  0  0  0  0  0  0  0
    8.7030   -0.4380   22.6620 N   0  0  0  0  0  0  0  0  0  0  0  0
    6.7530    0.0590   18.5930 C   0  0  0  0  0  0  0  0  0  0  0  0
    5.2590    1.0010   20.1370 C   0  0  0  0  0  0  0  0  0  0  0  0
    4.7640    1.2050   21.4640 C   0  0  0  0  0  0  0  0  0  0  0  0
    6.1990    0.6490   17.5210 N   0  0  0  0  0  0  0  0  0  0  0  0
    4.6570    1.6280   19.0520 C   0  0  0  0  0  0  0  0  0  0  0  0
   10.1090   -0.4040   22.7950 C   0  0  0  0  0  0  0  0  0  0  0  0
    5.1560    1.4260   17.7950 C   0  0  0  0  0  0  0  0  0  0  0  0
   10.6260    0.5920   23.6060 C   0  0  0  0  0  0  0  0  0  0  0  0
   10.9260   -1.2770   22.1590 C   0  0  0  0  0  0  0  0  0  0  0  0
   12.1450    0.6640   23.7460 C   0  0  0  0  0  0  0  0  0  0  0  0
   12.3050   -1.2190   22.2740 C   0  0  0  0  0  0  0  0  0  0  0  0
   13.1840   -2.3950   21.3800 Cl  0  0  0  0  0  0  0  0  0  0  0  0
   12.9110   -0.2510   23.0660 C   0  0  0  0  0  0  0  0  0  0  0  0
  1  2  1  0
  2  3  2  0
  1  4  1  0
  4  5  2  0
  4  6  1  0
  7  2  1  6
  5  8  1  0
  6  9  2  0
  5 10  1  0
  7 11  1  0
  7 12  1  0
  9 13  1  0
 10 13  2  0
 11 14  1  0
 12 15  1  0
 14 16  1  1
 14 17  1  0
 15 17  1  0
 17 18  1  0
 16 19  1  0
 18 20  2  0
 18 21  1  0
 19 22  1  0
 19 23  1  0
 22 24  2  0
 22 25  1  0
 23 26  2  0
 23 27  1  0
 27 28  1  0
 26 29  1  0
 27 30  2  0
 25 31  1  0
 29 32  2  0
 30 32  1  0
 31 33  2  0
 31 34  1  0
 33 35  1  0
 34 36  2  0
 36 37  1  0
 35 38  2  0
 36 38  1  0
M  END
