x2908-x1334
     RDKit          3D

 34 38  0  0  0  0  0  0  0  0999 V2000
    4.2080    0.8690   21.3750 C   0  0  0  0  0  0  0  0  0  0  0  0
    4.9580    0.7980   20.0840 C   0  0  0  0  0  0  0  0  0  0  0  0
    6.1380    0.1040   19.9610 C   0  0  0  0  0  0  0  0  0  0  0  0
    4.4600    1.4640   18.9680 C   0  0  0  0  0  0  0  0  0  0  0  0
    6.8220   -0.6020   20.9940 N   0  0  0  0  0  0  0  0  0  0  0  0
    6.8590    0.0770   18.6170 C   0  0  0  0  0  0  0  0  0  0  0  0
    5.1180    1.4490   17.7470 C   0  0  0  0  0  0  0  0  0  0  0  0
    8.0700   -0.0120   21.2040 C   0  0  0  0  0  0  0  0  0  0  0  0
    6.2770    0.7980   17.5060 N   0  0  0  0  0  0  0  0  0  0  0  0
    6.8610   -2.0570   21.1710 C   0  0  1  0  0  0  0  0  0  0  0  0
    8.4980    1.3560   21.0060 O   0  0  0  0  0  0  0  0  0  0  0  0
    8.8240   -0.7360   21.5500 N   0  0  0  0  0  0  0  0  0  0  0  0
    6.6750   -3.0260   19.8730 C   0  0  0  0  0  0  0  0  0  0  0  0
    8.1230   -1.9790   21.7110 C   0  0  2  0  0  0  0  0  0  0  0  0
    6.0890   -2.5830   22.2430 C   0  0  0  0  0  0  0  0  0  0  0  0
    7.5570   -2.8830   18.6470 C   0  0  0  0  0  0  0  0  0  0  0  0
    5.7940   -3.9420   19.7770 O   0  0  0  0  0  0  0  0  0  0  0  0
    9.9880   -0.4180   22.1660 C   0  0  0  0  0  0  0  0  0  0  0  0
    8.6170   -3.1290   21.9590 C   0  0  0  0  0  0  0  0  0  0  0  0
    6.7870   -3.3100   23.3360 C   0  0  0  0  0  0  0  0  0  0  0  0
   10.1300    0.7030   22.9820 C   0  0  0  0  0  0  0  0  0  0  0  0
   11.0080   -1.2700   21.9270 C   0  0  0  0  0  0  0  0  0  0  0  0
    8.1440   -3.6100   23.1340 N   0  0  0  0  0  0  0  0  0  0  0  0
    9.0310   -3.1190   24.2090 C   0  0  0  0  0  0  0  0  0  0  0  0
   11.4790    1.0230   23.6460 C   0  0  0  0  0  0  0  0  0  0  0  0
   12.2110   -1.0540   22.4780 C   0  0  0  0  0  0  0  0  0  0  0  0
   13.3250   -2.2120   22.0630 Cl  0  0  0  0  0  0  0  0  0  0  0  0
   12.5630    0.0170   23.3220 C   0  0  0  0  0  0  0  0  0  0  0  0
    8.9310   -4.0530   25.3470 C   0  0  0  0  0  0  0  0  0  0  0  0
    9.8700   -5.0000   25.7040 C   0  0  0  0  0  0  0  0  0  0  0  0
    7.5660   -4.0680   26.3840 S   0  0  0  0  0  0  0  0  0  0  0  0
    8.1830   -5.3380   27.3030 C   0  0  0  0  0  0  0  0  0  0  0  0
    9.4120   -5.7830   26.8850 C   0  0  0  0  0  0  0  0  0  0  0  0
    7.2480   -5.9190   28.6020 Cl  0  0  0  0  0  0  0  0  0  0  0  0
  1  2  1  0
  2  3  2  0
  2  4  1  0
  3  5  1  0
  3  6  1  0
  4  7  2  0
  5  8  1  0
  6  9  2  0
  7  9  1  0
  5 10  1  0
  8 11  2  0
  8 12  1  0
 10 13  1  6
 10 14  1  0
 12 14  1  0
 10 15  1  0
 13 16  1  0
 13 17  2  0
 12 18  1  0
 14 19  1  6
 15 20  1  0
 18 21  2  0
 18 22  1  0
 19 23  1  0
 20 23  1  0
 23 24  1  0
 21 25  1  0
 22 26  2  0
 26 27  1  0
 25 28  2  0
 26 28  1  0
 24 29  1  0
 29 30  2  0
 29 31  1  0
 31 32  1  0
 30 33  1  0
 32 33  2  0
 32 34  1  0
M  END
