x2908-x0691
     RDKit          3D

 40 43  0  0  0  0  0  0  0  0999 V2000
    3.9490   -6.8480   25.9470 O   0  0  0  0  0  0  0  0  0  0  0  0
    4.6620   -5.5900   25.9110 S   0  0  0  0  0  0  0  0  0  0  0  0
    5.6880   -5.3120   26.8960 O   0  0  0  0  0  0  0  0  0  0  0  0
    3.5430   -4.3130   25.9670 C   0  0  0  0  0  0  0  0  0  0  0  0
    5.4210   -5.5130   24.3900 N   0  0  0  0  0  0  0  0  0  0  0  0
    3.8930   -2.9740   25.8310 C   0  0  0  0  0  0  0  0  0  0  0  0
    2.1970   -4.6170   26.1650 C   0  0  0  0  0  0  0  0  0  0  0  0
    4.7420   -6.1770   23.2450 C   0  0  0  0  0  0  0  0  0  0  0  0
    6.1710   -4.4630   24.0510 C   0  0  0  0  0  0  0  0  0  0  0  0
    2.8580   -1.8590   25.8890 C   0  0  0  0  0  0  0  0  0  0  0  0
    1.0460   -3.5700   26.2460 C   0  0  0  0  0  0  0  0  0  0  0  0
    5.5850   -6.4180   22.1620 C   0  0  0  0  0  0  0  0  0  0  0  0
    7.1040   -4.6670   23.0580 C   0  0  0  0  0  0  0  0  0  0  0  0
    3.4430   -0.5640   25.7240 O   0  0  0  0  0  0  0  0  0  0  0  0
    1.5320   -2.1510   26.0830 C   0  0  0  0  0  0  0  0  0  0  0  0
    6.4540   -5.2720   21.8700 N   0  0  0  0  0  0  0  0  0  0  0  0
    6.4070   -4.5130   20.6970 C   0  0  0  0  0  0  0  0  0  0  0  0
    3.2340    0.0780   24.4630 C   0  0  0  0  0  0  0  0  0  0  0  0
    5.4340   -4.5710   19.9350 O   0  0  0  0  0  0  0  0  0  0  0  0
    7.6060   -3.6020   20.4000 C   0  0  0  0  0  0  0  0  0  0  0  0
    4.2770   -0.4860   23.4720 C   0  0  0  0  0  0  0  0  0  0  0  0
    4.0310    0.0310   22.0270 C   0  0  0  0  0  0  0  0  0  0  0  0
    4.6630    1.2120   21.5410 C   0  0  0  0  0  0  0  0  0  0  0  0
    5.2470    0.9890   20.1430 C   0  0  0  0  0  0  0  0  0  0  0  0
    6.3720    0.2160   19.9100 C   0  0  0  0  0  0  0  0  0  0  0  0
    4.6160    1.5990   19.0680 C   0  0  0  0  0  0  0  0  0  0  0  0
    7.0310   -0.3830   20.9660 N   0  0  0  0  0  0  0  0  0  0  0  0
    6.8130    0.0780   18.6310 C   0  0  0  0  0  0  0  0  0  0  0  0
    5.1550    1.3970   17.8200 C   0  0  0  0  0  0  0  0  0  0  0  0
    8.1790    0.2730   21.5440 C   0  0  0  0  0  0  0  0  0  0  0  0
    6.2320    0.6510   17.5670 N   0  0  0  0  0  0  0  0  0  0  0  0
    8.6660    1.3400   21.1360 O   0  0  0  0  0  0  0  0  0  0  0  0
    8.7110   -0.4690   22.6360 N   0  0  0  0  0  0  0  0  0  0  0  0
   10.0690   -0.4450   22.8280 C   0  0  0  0  0  0  0  0  0  0  0  0
   10.6150    0.4610   23.7300 C   0  0  0  0  0  0  0  0  0  0  0  0
   10.8930   -1.2820   22.1310 C   0  0  0  0  0  0  0  0  0  0  0  0
   12.1310    0.4870   23.8970 C   0  0  0  0  0  0  0  0  0  0  0  0
   12.2700   -1.2580   22.2840 C   0  0  0  0  0  0  0  0  0  0  0  0
   13.1560   -2.3710   21.3130 Cl  0  0  0  0  0  0  0  0  0  0  0  0
   12.8870   -0.3810   23.1590 C   0  0  0  0  0  0  0  0  0  0  0  0
  1  2  2  0
  2  3  2  0
  2  4  1  0
  2  5  1  0
  4  6  2  0
  4  7  1  0
  5  8  1  0
  5  9  1  0
  6 10  1  0
  7 11  2  0
  8 12  1  0
  9 13  1  0
 10 14  1  0
 10 15  2  0
 11 15  1  0
 12 16  1  0
 13 16  1  0
 16 17  1  0
 14 18  1  0
 17 19  2  0
 17 20  1  0
 18 21  1  0
 21 22  1  0
 22 23  1  0
 23 24  1  0
 24 25  1  0
 24 26  2  0
 25 27  1  0
 25 28  2  0
 26 29  1  0
 27 30  1  0
 28 31  1  0
 29 31  2  0
 30 32  2  0
 30 33  1  0
 33 34  1  0
 34 35  2  0
 34 36  1  0
 35 37  1  0
 36 38  2  0
 38 39  1  0
 37 40  2  0
 38 40  1  0
M  END
