x2908-x1402
     RDKit          3D

 39 42  0  0  0  0  0  0  0  0999 V2000
    7.2330   -3.3760   19.7470 C   0  0  0  0  0  0  0  0  0  0  0  0
    6.2940   -4.3530   20.5060 C   0  0  0  0  0  0  0  0  0  0  0  0
    5.4390   -5.0100   19.9610 O   0  0  0  0  0  0  0  0  0  0  0  0
    6.2370   -4.5640   22.0250 C   0  0  0  0  0  0  0  0  0  0  0  0
    7.5170   -4.8590   22.7870 C   0  0  0  0  0  0  0  0  0  0  0  0
    5.2220   -5.7400   22.1970 C   0  0  0  0  0  0  0  0  0  0  0  0
    5.6070   -3.2630   22.5440 C   0  0  0  0  0  0  0  0  0  0  0  0
    7.1700   -4.9810   24.2920 C   0  0  0  0  0  0  0  0  0  0  0  0
    5.0900   -6.2020   23.6300 C   0  0  0  0  0  0  0  0  0  0  0  0
    6.5420   -2.0790   22.8090 C   0  0  0  0  0  0  0  0  0  0  0  0
    5.8610   -5.5660   24.5920 N   0  0  0  0  0  0  0  0  0  0  0  0
    6.0110   -0.8050   22.1650 C   0  0  0  0  0  0  0  0  0  0  0  0
    5.1570   -5.3420   26.1030 S   0  0  0  0  0  0  0  0  0  0  0  0
    6.8820   -0.3490   21.1580 N   0  0  0  0  0  0  0  0  0  0  0  0
    4.2670   -6.4740   26.2800 O   0  0  0  0  0  0  0  0  0  0  0  0
    6.2160   -5.0530   27.0420 O   0  0  0  0  0  0  0  0  0  0  0  0
    4.1440   -3.8760   26.0750 C   0  0  0  0  0  0  0  0  0  0  0  0
    8.0050    0.2480   21.5720 C   0  0  0  0  0  0  0  0  0  0  0  0
    6.3040    0.2390   20.0430 C   0  0  0  0  0  0  0  0  0  0  0  0
    2.4380   -3.9190   26.1370 S   0  0  0  0  0  0  0  0  0  0  0  0
    4.5770   -2.5740   26.0100 C   0  0  0  0  0  0  0  0  0  0  0  0
    8.4780    1.2630   21.0200 O   0  0  0  0  0  0  0  0  0  0  0  0
    8.6150   -0.4010   22.7070 N   0  0  0  0  0  0  0  0  0  0  0  0
    6.7530   -0.0400   18.6540 C   0  0  0  0  0  0  0  0  0  0  0  0
    5.2630    1.1460   20.1660 C   0  0  0  0  0  0  0  0  0  0  0  0
    3.6110   -1.5930   26.0150 C   0  0  0  0  0  0  0  0  0  0  0  0
    2.3760   -2.2140   26.0910 C   0  0  0  0  0  0  0  0  0  0  0  0
    4.6730    1.5660   21.4730 C   0  0  0  0  0  0  0  0  0  0  0  0
    6.2300    0.5160   17.5660 N   0  0  0  0  0  0  0  0  0  0  0  0
    4.7140    1.7220   19.0450 C   0  0  0  0  0  0  0  0  0  0  0  0
   10.0160   -0.3400   22.8520 C   0  0  0  0  0  0  0  0  0  0  0  0
    0.8410   -1.4440   26.1480 Cl  0  0  0  0  0  0  0  0  0  0  0  0
    5.2280    1.3800   17.7890 C   0  0  0  0  0  0  0  0  0  0  0  0
   10.6560    0.6330   23.8310 C   0  0  0  0  0  0  0  0  0  0  0  0
   10.8150   -1.1410   22.0970 C   0  0  0  0  0  0  0  0  0  0  0  0
   12.0200    0.6710   23.9100 C   0  0  0  0  0  0  0  0  0  0  0  0
   12.3000   -1.0470   22.2260 C   0  0  0  0  0  0  0  0  0  0  0  0
   13.3190   -1.9800   21.3010 Cl  0  0  0  0  0  0  0  0  0  0  0  0
   12.8120   -0.1430   23.1310 C   0  0  0  0  0  0  0  0  0  0  0  0
  1  2  1  0
  2  3  2  0
  4  2  1  0
  4  5  1  0
  4  6  1  0
  4  7  1  0
  5  8  1  0
  6  9  1  0
  7 10  1  0
  8 11  1  0
  9 11  1  0
 10 12  1  0
 11 13  1  0
 12 14  1  0
 13 15  2  0
 13 16  2  0
 13 17  1  0
 14 18  1  0
 14 19  1  0
 17 20  1  0
 17 21  2  0
 18 22  2  0
 18 23  1  0
 19 24  2  0
 19 25  1  0
 21 26  1  0
 20 27  1  0
 26 27  2  0
 25 28  1  0
 24 29  1  0
 25 30  2  0
 23 31  1  0
 27 32  1  0
 29 33  2  0
 30 33  1  0
 31 34  2  0
 31 35  1  0
 34 36  1  0
 35 37  2  0
 37 38  1  0
 36 39  2  0
 37 39  1  0
M  END
