x2908-x1380
     RDKit          3D

 36 39  0  0  0  0  0  0  0  0999 V2000
    4.6910    1.3320   21.5370 C   0  0  0  0  0  0  0  0  0  0  0  0
    5.2110    1.0950   20.1560 C   0  0  0  0  0  0  0  0  0  0  0  0
    6.3870    0.1630   19.9120 C   0  0  0  0  0  0  0  0  0  0  0  0
    4.5900    1.7560   19.1010 C   0  0  0  0  0  0  0  0  0  0  0  0
    6.8920   -0.4100   21.1170 N   0  0  0  0  0  0  0  0  0  0  0  0
    6.9380   -0.1250   18.7130 C   0  0  0  0  0  0  0  0  0  0  0  0
    5.1570    1.4670   17.8780 C   0  0  0  0  0  0  0  0  0  0  0  0
    8.0270   -0.0170   21.7560 C   0  0  0  0  0  0  0  0  0  0  0  0
    6.2960    0.5640   17.6170 N   0  0  0  0  0  0  0  0  0  0  0  0
    8.7810    1.1520   21.3230 O   0  0  0  0  0  0  0  0  0  0  0  0
    8.5450   -0.5410   22.6680 N   0  0  0  0  0  0  0  0  0  0  0  0
    7.6540   -1.3070   23.6100 C   0  0  0  0  0  0  0  0  0  0  0  0
    9.9260   -0.4890   22.7790 C   0  0  0  0  0  0  0  0  0  0  0  0
   10.4410    0.4790   23.6460 C   0  0  0  0  0  0  0  0  0  0  0  0
   10.8480   -1.3770   22.0210 C   0  0  0  0  0  0  0  0  0  0  0  0
    7.5420   -2.8440   23.4130 C   0  0  1  0  0  0  0  0  0  0  0  0
   11.9240    0.6600   23.8310 C   0  0  0  0  0  0  0  0  0  0  0  0
   12.1890   -1.1390   22.2450 C   0  0  0  0  0  0  0  0  0  0  0  0
    6.3900   -3.5260   23.9550 C   0  0  2  0  0  0  0  0  0  0  0  0
    7.6420   -3.1860   22.0920 C   0  0  0  0  0  0  0  0  0  0  0  0
   13.2260   -2.1300   21.3670 Cl  0  0  0  0  0  0  0  0  0  0  0  0
    5.9510   -3.1690   25.2790 C   0  0  0  0  0  0  0  0  0  0  0  0
   12.6790   -0.1690   23.1060 C   0  0  0  0  0  0  0  0  0  0  0  0
    6.6400   -4.0830   21.6180 N   0  0  0  0  0  0  0  0  0  0  0  0
    6.4710   -4.9260   23.7870 C   0  0  0  0  0  0  0  0  0  0  0  0
    6.2130   -4.0430   20.2770 C   0  0  0  0  0  0  0  0  0  0  0  0
    4.7600   -2.4000   25.3520 O   0  0  0  0  0  0  0  0  0  0  0  0
    6.4180   -5.2700   22.4400 C   0  0  0  0  0  0  0  0  0  0  0  0
    6.5660   -3.5290   26.4910 N   0  0  0  0  0  0  0  0  0  0  0  0
    7.0980   -3.2840   19.2970 C   0  0  0  0  0  0  0  0  0  0  0  0
    5.2080   -4.6310   19.9080 O   0  0  0  0  0  0  0  0  0  0  0  0
    7.8030   -4.0430   26.5230 C   0  0  0  0  0  0  0  0  0  0  0  0
    5.8040   -3.5410   27.7410 C   0  0  0  0  0  0  0  0  0  0  0  0
    7.9270   -5.3480   27.3570 C   0  0  0  0  0  0  0  0  0  0  0  0
    5.9880   -4.7660   28.4260 C   0  0  0  0  0  0  0  0  0  0  0  0
    7.3180   -5.1520   28.5720 C   0  0  0  0  0  0  0  0  0  0  0  0
  1  2  1  0
  2  3  2  0
  2  4  1  0
  3  5  1  0
  3  6  1  0
  4  7  2  0
  5  8  1  0
  6  9  2  0
  7  9  1  0
  8 10  2  0
  8 11  1  0
 11 12  1  0
 11 13  1  0
 13 14  2  0
 13 15  1  0
 16 12  1  6
 14 17  1  0
 15 18  2  0
 16 19  1  0
 16 20  1  0
 18 21  1  0
 19 22  1  1
 17 23  2  0
 18 23  1  0
 20 24  1  0
 19 25  1  0
 24 26  1  0
 22 27  2  0
 24 28  1  0
 25 28  1  0
 22 29  1  0
 26 30  1  0
 26 31  2  0
 29 32  1  0
 29 33  1  0
 32 34  1  0
 33 35  1  0
 34 36  1  0
 35 36  1  0
M  END
