x2908-x1458
     RDKit          3D

 35 37  0  0  0  0  0  0  0  0999 V2000
    7.2350   -3.8900   26.2470 N   0  0  0  0  0  0  0  0  0  0  0  0
    7.5750   -5.1060   26.8230 C   0  0  0  0  0  0  0  0  0  0  0  0
    9.0210   -5.5540   26.9260 C   0  0  0  0  0  0  0  0  0  0  0  0
    7.7100   -2.6660   26.9150 C   0  0  0  0  0  0  0  0  0  0  0  0
    5.9860   -3.7890   25.5770 C   0  0  0  0  0  0  0  0  0  0  0  0
    5.0180   -3.2700   26.1300 O   0  0  0  0  0  0  0  0  0  0  0  0
    6.8450   -5.3520   28.1340 C   0  0  0  0  0  0  0  0  0  0  0  0
    5.7170   -4.2730   24.1490 C   0  0  1  0  0  0  0  0  0  0  0  0
    5.9340   -3.2070   23.3150 C   0  0  0  0  0  0  0  0  0  0  0  0
    6.4070   -5.3470   23.7130 C   0  0  0  0  0  0  0  0  0  0  0  0
    7.2250   -3.2180   22.8160 C   0  0  2  0  0  0  0  0  0  0  0  0
    6.7040   -5.4240   22.2090 C   0  0  0  0  0  0  0  0  0  0  0  0
    7.7760   -1.9540   22.9880 C   0  0  0  0  0  0  0  0  0  0  0  0
    7.0100   -4.1940   21.6640 N   0  0  0  0  0  0  0  0  0  0  0  0
    6.4900   -3.9690   20.3420 C   0  0  0  0  0  0  0  0  0  0  0  0
    8.6160   -1.2820   22.1740 N   0  0  0  0  0  0  0  0  0  0  0  0
    5.4310   -4.4860   19.9380 O   0  0  0  0  0  0  0  0  0  0  0  0
    7.3030   -3.1740   19.3380 C   0  0  0  0  0  0  0  0  0  0  0  0
    8.0290   -0.2020   21.4180 C   0  0  0  0  0  0  0  0  0  0  0  0
    9.9340   -0.8810   22.5480 C   0  0  0  0  0  0  0  0  0  0  0  0
    8.6090    0.8580   21.1930 O   0  0  0  0  0  0  0  0  0  0  0  0
    6.7110   -0.5070   20.9700 N   0  0  0  0  0  0  0  0  0  0  0  0
   10.3310    0.2020   23.5760 C   0  0  0  0  0  0  0  0  0  0  0  0
   10.9480   -1.4750   21.9380 C   0  0  0  0  0  0  0  0  0  0  0  0
    6.1830    0.1640   19.9120 C   0  0  0  0  0  0  0  0  0  0  0  0
   11.6730    0.5120   23.8080 C   0  0  0  0  0  0  0  0  0  0  0  0
   12.3570   -1.1520   22.1720 C   0  0  0  0  0  0  0  0  0  0  0  0
   13.3940   -2.0510   21.2330 Cl  0  0  0  0  0  0  0  0  0  0  0  0
    6.7120    0.0130   18.5400 C   0  0  0  0  0  0  0  0  0  0  0  0
    5.1390    1.0200   20.0820 C   0  0  0  0  0  0  0  0  0  0  0  0
   12.6810   -0.1640   23.1020 C   0  0  0  0  0  0  0  0  0  0  0  0
    4.4490    1.3240   21.4200 C   0  0  0  0  0  0  0  0  0  0  0  0
    6.1990    0.6830   17.5060 N   0  0  0  0  0  0  0  0  0  0  0  0
    4.6090    1.7060   19.0300 C   0  0  0  0  0  0  0  0  0  0  0  0
    5.1610    1.5210   17.7510 C   0  0  0  0  0  0  0  0  0  0  0  0
  1  2  1  0
  2  3  1  0
  1  4  1  0
  1  5  1  0
  5  6  2  0
  2  7  1  0
  8  5  1  1
  8  9  1  0
  8 10  1  0
  9 11  1  0
 10 12  1  0
 11 13  1  6
 11 14  1  0
 12 14  1  0
 14 15  1  0
 13 16  1  0
 15 17  2  0
 15 18  1  0
 16 19  1  0
 16 20  1  0
 19 21  2  0
 19 22  1  0
 20 23  2  0
 20 24  1  0
 22 25  1  0
 23 26  1  0
 24 27  2  0
 27 28  1  0
 25 29  2  0
 25 30  1  0
 26 31  2  0
 27 31  1  0
 30 32  1  0
 29 33  1  0
 30 34  2  0
 33 35  2  0
 34 35  1  0
M  END
