x2908-x0759
     RDKit          3D

 27 30  0  0  0  0  0  0  0  0999 V2000
    4.5450    0.8790   21.7260 C   0  0  0  0  0  0  0  0  0  0  0  0
    5.1490    0.7870   20.3070 C   0  0  0  0  0  0  0  0  0  0  0  0
    6.4700    0.0080   20.0950 C   0  0  0  0  0  0  0  0  0  0  0  0
    4.5140    1.4470   19.0770 C   0  0  0  0  0  0  0  0  0  0  0  0
    7.2400   -0.6190   21.0580 N   0  0  0  0  0  0  0  0  0  0  0  0
    6.9910   -0.0340   18.6650 C   0  0  0  0  0  0  0  0  0  0  0  0
    5.0590    1.3750   17.8280 C   0  0  0  0  0  0  0  0  0  0  0  0
    8.3170   -0.0450   21.6150 C   0  0  0  0  0  0  0  0  0  0  0  0
    6.2820    0.6440   17.5780 N   0  0  0  0  0  0  0  0  0  0  0  0
    6.9870   -1.8760   21.8140 C   0  0  1  0  0  0  0  0  0  0  0  0
    8.9250    1.2340   21.3080 O   0  0  0  0  0  0  0  0  0  0  0  0
    8.8050   -0.7190   22.4190 N   0  0  0  0  0  0  0  0  0  0  0  0
    6.3910   -2.9860   21.3510 N   0  0  0  0  0  0  0  0  0  0  0  0
    8.2330   -2.0180   22.3980 C   0  0  1  0  0  0  0  0  0  0  0  0
    6.2310   -3.4310   20.0270 C   0  0  0  0  0  0  0  0  0  0  0  0
   10.1640   -0.5780   22.6630 C   0  0  0  0  0  0  0  0  0  0  0  0
    8.1300   -2.7760   23.6070 O   0  0  0  0  0  0  0  0  0  0  0  0
    6.5600   -4.1390   22.2740 C   0  0  0  0  0  0  0  0  0  0  0  0
    5.3040   -4.1880   19.7430 O   0  0  0  0  0  0  0  0  0  0  0  0
    7.2470   -3.0060   18.9640 C   0  0  0  0  0  0  0  0  0  0  0  0
   10.5450    0.4100   23.5610 C   0  0  0  0  0  0  0  0  0  0  0  0
   11.0250   -1.3600   22.0370 C   0  0  0  0  0  0  0  0  0  0  0  0
    7.2560   -3.9320   23.4970 C   0  0  0  0  0  0  0  0  0  0  0  0
   11.8760    0.6190   23.8320 C   0  0  0  0  0  0  0  0  0  0  0  0
   12.3490   -1.2020   22.2600 C   0  0  0  0  0  0  0  0  0  0  0  0
   13.2510   -2.2910   21.3450 Cl  0  0  0  0  0  0  0  0  0  0  0  0
   12.9170   -0.2700   23.1160 C   0  0  0  0  0  0  0  0  0  0  0  0
  1  2  1  0
  2  3  2  0
  2  4  1  0
  3  5  1  0
  3  6  1  0
  4  7  2  0
  5  8  1  0
  6  9  2  0
  7  9  1  0
 10  5  1  6
  8 11  2  0
  8 12  1  0
 10 13  1  0
 10 14  1  0
 12 14  1  0
 13 15  1  0
 12 16  1  0
 14 17  1  1
 13 18  1  0
 15 19  2  0
 15 20  1  0
 16 21  2  0
 16 22  1  0
 17 23  1  0
 18 23  1  0
 21 24  1  0
 22 25  2  0
 25 26  1  0
 24 27  2  0
 25 27  1  0
M  END
