x2910-x0981
     RDKit          3D

 42 44  0  0  0  0  0  0  0  0999 V2000
    1.2230   -8.7220   21.3620 C   0  0  0  0  0  0  0  0  0  0  0  0
    1.3800   -7.4370   22.1390 C   0  0  0  0  0  0  0  0  0  0  0  0
    2.6150   -7.2360   22.7260 N   0  0  0  0  0  0  0  0  0  0  0  0
    0.4630   -6.6230   22.2170 O   0  0  0  0  0  0  0  0  0  0  0  0
    2.9110   -6.0470   23.5460 C   0  0  1  0  0  0  0  0  0  0  0  0
    2.5490   -6.3530   24.9900 C   0  0  0  0  0  0  0  0  0  0  0  0
    4.4080   -5.5530   23.4220 C   0  0  0  0  0  0  0  0  0  0  0  0
    5.2350   -5.8170   22.3630 N   0  0  0  0  0  0  0  0  0  0  0  0
    4.9130   -4.8500   24.3000 O   0  0  0  0  0  0  0  0  0  0  0  0
    3.0190   -7.7290   25.3330 C   0  0  0  0  0  0  0  0  0  0  0  0
    2.4420   -8.3480   26.3990 N   0  0  0  0  0  0  0  0  0  0  0  0
    3.8900   -8.2400   24.6590 O   0  0  0  0  0  0  0  0  0  0  0  0
    6.0990   -4.8180   21.7350 C   0  0  2  0  0  0  0  0  0  0  0  0
    6.5190   -5.2270   20.3350 C   0  0  0  0  0  0  0  0  0  0  0  0
    7.1910   -4.3040   22.6900 C   0  0  0  0  0  0  0  0  0  0  0  0
    5.8270   -6.2120   19.8210 C   0  0  0  0  0  0  0  0  0  0  0  0
    6.9550   -2.8250   23.0110 C   0  0  0  0  0  0  0  0  0  0  0  0
    7.7210   -1.7650   22.1690 C   0  0  2  0  0  0  0  0  0  0  0  0
    7.3220   -1.6890   21.0870 N   0  0  0  0  0  0  0  0  0  0  0  0
    9.2210   -2.0350   22.1820 C   0  0  0  0  0  0  0  0  0  0  0  0
    9.6350   -1.2090   22.9390 O   0  0  0  0  0  0  0  0  0  0  0  0
    5.9410   -1.4980   20.7350 C   0  0  0  0  0  0  0  0  0  0  0  0
    5.0600   -2.2680   21.0380 O   0  0  0  0  0  0  0  0  0  0  0  0
   10.8990   -0.8110   22.7820 C   0  0  0  0  0  0  0  0  0  0  0  0
    5.5650   -0.2810   19.9420 C   0  0  0  0  0  0  0  0  0  0  0  0
   11.1180    0.5400   23.0750 C   0  0  0  0  0  0  0  0  0  0  0  0
   11.9580   -1.6190   22.3700 C   0  0  0  0  0  0  0  0  0  0  0  0
    4.5940    0.7260   20.4990 C   0  0  0  0  0  0  0  0  0  0  0  0
    6.1130   -0.0810   18.6790 C   0  0  0  0  0  0  0  0  0  0  0  0
    9.9890    1.2300   23.4680 O   0  0  0  0  0  0  0  0  0  0  0  0
   13.1850   -1.0380   22.2760 C   0  0  0  0  0  0  0  0  0  0  0  0
   12.3800    1.1090   22.9740 C   0  0  0  0  0  0  0  0  0  0  0  0
    4.2720    1.8010   19.7010 C   0  0  0  0  0  0  0  0  0  0  0  0
    5.7180    1.0570   17.9820 C   0  0  0  0  0  0  0  0  0  0  0  0
    3.9980    0.6560   21.7660 C   0  0  0  0  0  0  0  0  0  0  0  0
    9.9550    2.6250   23.1440 C   0  0  0  0  0  0  0  0  0  0  0  0
    6.1770    1.3820   16.7810 O   0  0  0  0  0  0  0  0  0  0  0  0
   13.3890    0.2750   22.5690 C   0  0  0  0  0  0  0  0  0  0  0  0
    4.8560    1.9650   18.3970 N   0  0  0  0  0  0  0  0  0  0  0  0
    3.3850    2.7680   20.1120 C   0  0  0  0  0  0  0  0  0  0  0  0
    3.1030    1.6500   22.1850 C   0  0  0  0  0  0  0  0  0  0  0  0
    2.7740    2.7210   21.3620 C   0  0  0  0  0  0  0  0  0  0  0  0
  1  2  1  0
  2  3  1  0
  2  4  2  0
  3  5  1  0
  5  6  1  1
  5  7  1  0
  7  8  1  0
  7  9  2  0
  6 10  1  0
 10 11  1  0
 10 12  2  0
  8 13  1  0
 13 14  1  6
 13 15  1  0
 14 16  2  3
 15 17  1  0
 18 17  1  6
 18 19  1  0
 18 20  1  0
 20 21  1  0
 19 22  1  0
 22 23  2  0
 21 24  1  0
 22 25  1  0
 24 26  2  0
 24 27  1  0
 25 28  1  0
 25 29  2  0
 26 30  1  0
 27 31  2  0
 26 32  1  0
 28 33  2  0
 29 34  1  0
 28 35  1  0
 30 36  1  0
 34 37  1  0
 31 38  1  0
 32 38  2  0
 33 39  1  0
 34 39  2  0
 33 40  1  0
 35 41  2  0
 40 42  2  0
 41 42  1  0
M  END
