x2912-x1412
     RDKit          3D

 35 39  0  0  0  0  0  0  0  0999 V2000
    7.2640   -0.4090   21.2760 N   0  0  0  0  0  0  0  0  0  0  0  0
    8.3490    0.3570   21.8640 C   0  0  0  0  0  0  0  0  0  0  0  0
    8.8810    1.3210   21.2760 O   0  0  0  0  0  0  0  0  0  0  0  0
    6.4620    0.2010   20.2550 C   0  0  0  0  0  0  0  0  0  0  0  0
    7.5070   -1.9120   21.3980 C   0  0  2  0  0  0  0  0  0  0  0  0
    8.7960   -0.0810   23.2490 C   0  0  1  0  0  0  0  0  0  0  0  0
    5.2720    1.0320   20.4100 C   0  0  0  0  0  0  0  0  0  0  0  0
    6.9450   -0.0630   18.9870 C   0  0  0  0  0  0  0  0  0  0  0  0
    6.3630   -2.8010   21.1650 N   0  0  0  0  0  0  0  0  0  0  0  0
    8.3050   -2.4360   22.4580 C   0  0  1  0  0  0  0  0  0  0  0  0
    8.5140   -1.5130   23.6300 C   0  0  0  0  0  0  0  0  0  0  0  0
    4.7580    1.3230   21.8570 C   0  0  0  0  0  0  0  0  0  0  0  0
    6.2050   -3.3950   19.9170 C   0  0  0  0  0  0  0  0  0  0  0  0
    6.2980    0.4670   17.8050 N   0  0  0  0  0  0  0  0  0  0  0  0
    4.6610    1.5310   19.2640 C   0  0  0  0  0  0  0  0  0  0  0  0
   10.3290   -0.0360   23.0930 C   0  0  0  0  0  0  0  0  0  0  0  0
    8.1330   -3.7700   23.0520 N   0  0  0  0  0  0  0  0  0  0  0  0
    5.9470   -3.4590   22.4100 C   0  0  0  0  0  0  0  0  0  0  0  0
    7.2410   -3.1110   18.8270 C   0  0  0  0  0  0  0  0  0  0  0  0
    5.2750   -4.1680   19.7030 O   0  0  0  0  0  0  0  0  0  0  0  0
    8.5550   -1.8580   25.1170 C   0  0  0  0  0  0  0  0  0  0  0  0
    5.1940    1.2330   18.0070 C   0  0  0  0  0  0  0  0  0  0  0  0
   11.0110    1.0240   23.6750 C   0  0  0  0  0  0  0  0  0  0  0  0
   11.0090   -0.9600   22.4190 C   0  0  0  0  0  0  0  0  0  0  0  0
    6.9160   -4.3330   22.8880 C   0  0  0  0  0  0  0  0  0  0  0  0
   12.3720    1.1040   23.5350 C   0  0  0  0  0  0  0  0  0  0  0  0
   12.3880   -0.9220   22.2580 C   0  0  0  0  0  0  0  0  0  0  0  0
    8.4480   -3.2010   25.8150 C   0  0  0  0  0  0  0  0  0  0  0  0
   12.9880   -1.9540   21.5100 C   0  0  0  0  0  0  0  0  0  0  0  0
   13.0960    0.1200   22.8150 C   0  0  0  0  0  0  0  0  0  0  0  0
    9.1050   -4.3460   25.5110 C   0  0  0  0  0  0  0  0  0  0  0  0
    7.4700   -3.5550   27.2280 S   0  0  0  0  0  0  0  0  0  0  0  0
   13.4730   -2.9280   20.7490 N   0  0  0  0  0  0  0  0  0  0  0  0
    8.0020   -5.1870   27.3270 C   0  0  0  0  0  0  0  0  0  0  0  0
    8.8980   -5.5260   26.3390 C   0  0  0  0  0  0  0  0  0  0  0  0
  1  2  1  0
  2  3  2  0
  1  4  1  0
  5  1  1  1
  2  6  1  0
  4  7  2  0
  4  8  1  0
  5  9  1  0
  5 10  1  0
  6 11  1  0
 10 11  1  0
  7 12  1  0
  9 13  1  0
  8 14  2  0
  7 15  1  0
  6 16  1  6
 10 17  1  1
  9 18  1  0
 13 19  1  0
 13 20  2  0
 11 21  2  3
 14 22  1  0
 15 22  2  0
 16 23  2  0
 16 24  1  0
 17 25  1  0
 18 25  1  0
 23 26  1  0
 24 27  2  0
 21 28  1  0
 27 29  1  0
 26 30  2  0
 27 30  1  0
 28 31  2  0
 28 32  1  0
 29 33  3  0
 32 34  1  0
 31 35  1  0
 34 35  2  0
M  END
