x2910-x0734
     RDKit          3D

 42 46  0  0  0  0  0  0  0  0999 V2000
    6.7950   -1.7370   21.9730 N   0  0  0  0  0  0  0  0  0  0  0  0
    7.9470   -2.5780   22.3640 C   0  0  1  0  0  0  0  0  0  0  0  0
    8.9970   -1.9600   23.1790 C   0  0  0  0  0  0  0  0  0  0  0  0
    6.5370   -1.6610   20.5450 C   0  0  1  0  0  0  0  0  0  0  0  0
    5.9540   -3.0430   20.1490 C   0  0  0  0  0  0  0  0  0  0  0  0
    5.7710   -0.4660   20.0120 C   0  0  0  0  0  0  0  0  0  0  0  0
    7.6620   -3.9430   23.0830 C   0  0  1  0  0  0  0  0  0  0  0  0
    9.2700   -0.8120   23.0010 O   0  0  0  0  0  0  0  0  0  0  0  0
    5.6240   -4.1190   19.6640 O   0  0  0  0  0  0  0  0  0  0  0  0
    6.9370   -2.9650   18.8880 C   0  0  0  0  0  0  0  0  0  0  0  0
    4.5780    0.3750   20.5480 C   0  0  0  0  0  0  0  0  0  0  0  0
    6.2800   -0.0840   18.7860 C   0  0  0  0  0  0  0  0  0  0  0  0
    6.7640   -4.1490   24.0600 N   0  0  0  0  0  0  0  0  0  0  0  0
    7.6030   -4.8920   22.1160 C   0  0  0  0  0  0  0  0  0  0  0  0
   10.6200   -0.5040   22.8420 C   0  0  0  0  0  0  0  0  0  0  0  0
    4.0110    1.5480   19.7460 C   0  0  0  0  0  0  0  0  0  0  0  0
    5.7780    0.9810   18.0490 C   0  0  0  0  0  0  0  0  0  0  0  0
    3.9110    0.0840   21.8920 C   0  0  0  0  0  0  0  0  0  0  0  0
    7.2790   -4.6780   25.2370 C   0  0  0  0  0  0  0  0  0  0  0  0
    6.3100   -5.0580   21.4510 N   0  0  0  0  0  0  0  0  0  0  0  0
    5.6640   -4.9330   23.7500 C   0  0  0  0  0  0  0  0  0  0  0  0
    6.3270    1.3370   16.8050 O   0  0  0  0  0  0  0  0  0  0  0  0
   11.0090    0.8290   23.3190 C   0  0  0  0  0  0  0  0  0  0  0  0
   11.7570   -1.3800   22.2290 C   0  0  0  0  0  0  0  0  0  0  0  0
    4.6590    1.8090   18.4950 N   0  0  0  0  0  0  0  0  0  0  0  0
    2.9610    2.2950   20.1960 C   0  0  0  0  0  0  0  0  0  0  0  0
    2.8250    0.9390   22.2480 C   0  0  0  0  0  0  0  0  0  0  0  0
    6.5350   -4.9480   26.3960 C   0  0  0  0  0  0  0  0  0  0  0  0
    8.6500   -4.9870   25.3080 C   0  0  0  0  0  0  0  0  0  0  0  0
    5.5110   -5.5150   22.4790 C   0  0  0  0  0  0  0  0  0  0  0  0
   10.1170    1.7030   23.8800 O   0  0  0  0  0  0  0  0  0  0  0  0
    5.0740   -4.7040   26.5010 N   0  0  0  0  0  0  0  0  0  0  0  0
   13.0780   -1.0220   22.0940 C   0  0  0  0  0  0  0  0  0  0  0  0
   12.4800    1.1930   23.1490 C   0  0  0  0  0  0  0  0  0  0  0  0
    2.3890    1.9890   21.4170 C   0  0  0  0  0  0  0  0  0  0  0  0
    9.2340   -5.5180   26.4440 C   0  0  0  0  0  0  0  0  0  0  0  0
    7.1310   -5.4760   27.5380 C   0  0  0  0  0  0  0  0  0  0  0  0
   10.4130    3.0260   23.4390 C   0  0  0  0  0  0  0  0  0  0  0  0
    4.3330   -5.5440   25.9620 O   0  0  0  0  0  0  0  0  0  0  0  0
    4.7150   -3.5800   26.8720 O   0  0  0  0  0  0  0  0  0  0  0  0
   13.4400    0.2230   22.5340 C   0  0  0  0  0  0  0  0  0  0  0  0
    8.4880   -5.7630   27.5680 C   0  0  0  0  0  0  0  0  0  0  0  0
  1  2  1  0
  2  3  1  1
  4  1  1  1
  4  5  1  0
  4  6  1  0
  2  7  1  0
  3  8  1  0
  5  9  2  0
  5 10  1  0
  6 11  1  0
  6 12  2  0
  7 13  1  0
  7 14  1  6
  8 15  1  0
 11 16  2  0
 12 17  1  0
 11 18  1  0
 13 19  1  0
 14 20  1  0
 13 21  1  0
 17 22  1  0
 15 23  2  0
 15 24  1  0
 16 25  1  0
 17 25  2  0
 16 26  1  0
 18 27  2  0
 19 28  2  0
 19 29  1  0
 20 30  1  0
 21 30  1  0
 23 31  1  0
 28 32  1  0
 24 33  2  0
 23 34  1  0
 26 35  2  0
 27 35  1  0
 29 36  2  0
 28 37  1  0
 31 38  1  0
 32 39  2  0
 32 40  1  0
 33 41  1  0
 34 41  2  0
 36 42  1  0
 37 42  2  0
M  CHG  2  32   1  40  -1
M  END
