x2910-x0305
     RDKit          3D

 30 32  0  0  0  0  0  0  0  0999 V2000
    6.7960   -1.5230   21.9510 N   0  0  0  0  0  0  0  0  0  0  0  0
    7.6050   -2.6010   22.4960 C   0  0  0  0  0  0  0  0  0  0  0  0
    9.1060   -2.3380   22.4900 C   0  0  0  0  0  0  0  0  0  0  0  0
    5.7950   -1.7580   20.9240 C   0  0  0  0  0  0  0  0  0  0  0  0
    5.2460   -2.8390   20.7420 O   0  0  0  0  0  0  0  0  0  0  0  0
    5.4580   -0.5540   20.0790 C   0  0  0  0  0  0  0  0  0  0  0  0
    9.2910   -1.2340   22.9990 O   0  0  0  0  0  0  0  0  0  0  0  0
    4.4610    0.3210   20.5100 C   0  0  0  0  0  0  0  0  0  0  0  0
    6.1710   -0.2830   18.7920 C   0  0  0  0  0  0  0  0  0  0  0  0
   10.6110   -0.7650   22.8260 C   0  0  0  0  0  0  0  0  0  0  0  0
    4.0330    1.5720   19.7110 C   0  0  0  0  0  0  0  0  0  0  0  0
    5.7650    0.9400   18.0130 C   0  0  0  0  0  0  0  0  0  0  0  0
    3.6170    0.2450   21.7930 C   0  0  0  0  0  0  0  0  0  0  0  0
    6.3400    1.3240   16.7990 O   0  0  0  0  0  0  0  0  0  0  0  0
   11.1330    0.5450   23.4310 C   0  0  0  0  0  0  0  0  0  0  0  0
   11.4970   -1.6570   21.9820 C   0  0  0  0  0  0  0  0  0  0  0  0
    4.7100    1.8640   18.4520 N   0  0  0  0  0  0  0  0  0  0  0  0
    2.9390    2.6170   20.0640 C   0  0  0  0  0  0  0  0  0  0  0  0
    2.6480    1.1750   22.1040 C   0  0  0  0  0  0  0  0  0  0  0  0
   10.3830    1.3650   24.1720 N   0  0  0  0  0  0  0  0  0  0  0  0
   12.8990   -1.2850   21.7150 C   0  0  0  0  0  0  0  0  0  0  0  0
   12.4560    0.9060   23.2030 C   0  0  0  0  0  0  0  0  0  0  0  0
    2.3260    2.2880   21.2940 C   0  0  0  0  0  0  0  0  0  0  0  0
   10.1630    2.6650   23.5460 C   0  0  0  0  0  0  0  0  0  0  0  0
   13.6720   -2.1400   20.8800 N   0  0  0  0  0  0  0  0  0  0  0  0
   13.2970    0.0480   22.3980 C   0  0  0  0  0  0  0  0  0  0  0  0
    9.3860    0.8140   24.9840 C   0  0  0  0  0  0  0  0  0  0  0  0
    9.7620   -0.1890   25.9890 N   0  0  0  0  0  0  0  0  0  0  0  0
    8.5440   -0.6960   26.4630 C   0  0  0  0  0  0  0  0  0  0  0  0
    8.3090   -0.4960   27.8250 C   0  0  0  0  0  0  0  0  0  0  0  0
  1  2  1  0
  2  3  1  0
  1  4  1  0
  4  5  2  0
  4  6  1  0
  3  7  1  0
  6  8  1  0
  6  9  2  0
  7 10  1  0
  8 11  2  0
  9 12  1  0
  8 13  1  0
 12 14  1  0
 10 15  2  0
 10 16  1  0
 11 17  1  0
 12 17  2  0
 11 18  1  0
 13 19  2  0
 15 20  1  0
 16 21  2  0
 15 22  1  0
 18 23  2  0
 19 23  1  0
 20 24  1  0
 21 25  1  0
 21 26  1  0
 22 26  2  0
 20 27  1  0
 27 28  1  0
 28 29  1  0
 29 30  1  0
M  END
