x2912-x1375
     RDKit          3D

 40 43  0  0  0  0  0  0  0  0999 V2000
    6.8810   -0.7490   21.4100 N   0  0  0  0  0  0  0  0  0  0  0  0
    8.1500   -0.1840   21.8410 C   0  0  0  0  0  0  0  0  0  0  0  0
    8.7200    0.7340   21.2510 O   0  0  0  0  0  0  0  0  0  0  0  0
    5.9680   -1.5280   22.3740 C   0  0  0  0  0  0  0  0  0  0  0  0
    6.2610   -0.0640   20.2490 C   0  0  0  0  0  0  0  0  0  0  0  0
    8.6630   -0.8150   23.1080 C   0  0  2  0  0  0  0  0  0  0  0  0
    5.2830   -2.7160   22.0370 C   0  0  0  0  0  0  0  0  0  0  0  0
    5.3110    0.9290   20.4960 C   0  0  0  0  0  0  0  0  0  0  0  0
    6.6340   -0.3830   18.9540 C   0  0  0  0  0  0  0  0  0  0  0  0
    8.0300   -0.2590   24.4180 C   0  0  0  0  0  0  0  0  0  0  0  0
    4.8060    1.4080   21.8390 C   0  0  0  0  0  0  0  0  0  0  0  0
    6.1040   -4.0590   22.3670 C   0  0  1  0  0  0  0  0  0  0  0  0
    6.1130    0.2430   17.7700 N   0  0  0  0  0  0  0  0  0  0  0  0
    4.7640    1.5790   19.2420 C   0  0  0  0  0  0  0  0  0  0  0  0
   10.1660   -0.7380   23.3560 C   0  0  0  0  0  0  0  0  0  0  0  0
    6.6210   -4.4050   20.9120 C   0  0  0  0  0  0  0  0  0  0  0  0
    5.1880    1.2160   17.8750 C   0  0  0  0  0  0  0  0  0  0  0  0
   10.7110   -0.3310   24.5820 C   0  0  0  0  0  0  0  0  0  0  0  0
   11.0360   -1.0740   22.3670 C   0  0  0  0  0  0  0  0  0  0  0  0
    7.3280   -4.1180   23.3680 C   0  0  0  0  0  0  0  0  0  0  0  0
    5.3520   -5.1280   23.1790 C   0  0  1  0  0  0  0  0  0  0  0  0
    5.8220   -4.8660   20.0580 O   0  0  0  0  0  0  0  0  0  0  0  0
    8.1120   -4.0690   20.6630 C   0  0  0  0  0  0  0  0  0  0  0  0
   12.1810   -0.3070   24.7010 C   0  0  0  0  0  0  0  0  0  0  0  0
   12.3730   -1.0280   22.5210 C   0  0  0  0  0  0  0  0  0  0  0  0
    7.7100   -3.1600   24.2980 C   0  0  0  0  0  0  0  0  0  0  0  0
    8.1640   -5.3820   23.3310 C   0  0  0  0  0  0  0  0  0  0  0  0
    5.0240   -4.6310   24.4610 C   0  0  0  0  0  0  0  0  0  0  0  0
    4.2530   -5.7430   22.6150 C   0  0  0  0  0  0  0  0  0  0  0  0
   13.2190   -1.3610   21.4940 C   0  0  0  0  0  0  0  0  0  0  0  0
   12.9420   -0.6680   23.6190 C   0  0  0  0  0  0  0  0  0  0  0  0
    8.7860   -3.3150   25.1410 C   0  0  0  0  0  0  0  0  0  0  0  0
    9.2400   -5.5710   24.1670 C   0  0  0  0  0  0  0  0  0  0  0  0
    3.6870   -6.7230   24.0440 S   0  0  0  0  0  0  0  0  0  0  0  0
    4.0720   -5.4270   25.1670 C   0  0  0  0  0  0  0  0  0  0  0  0
   13.9560   -1.5130   20.4420 N   0  0  0  0  0  0  0  0  0  0  0  0
    2.2540   -6.9060   23.9780 O   0  0  0  0  0  0  0  0  0  0  0  0
    4.5950   -7.8150   24.2290 O   0  0  0  0  0  0  0  0  0  0  0  0
    9.5410   -4.5520   25.0510 C   0  0  0  0  0  0  0  0  0  0  0  0
   10.5850   -4.7040   25.8770 F   0  0  0  0  0  0  0  0  0  0  0  0
  1  2  1  0
  2  3  2  0
  1  4  1  0
  1  5  1  0
  2  6  1  0
  4  7  1  0
  5  8  2  0
  5  9  1  0
  6 10  1  1
  8 11  1  0
 12  7  1  6
  9 13  2  0
  8 14  1  0
  6 15  1  0
 12 16  1  0
 13 17  1  0
 14 17  2  0
 15 18  2  0
 15 19  1  0
 12 20  1  0
 12 21  1  0
 16 22  2  0
 16 23  1  0
 18 24  1  0
 19 25  2  0
 20 26  2  0
 20 27  1  0
 21 28  1  1
 21 29  1  0
 25 30  1  0
 24 31  2  0
 25 31  1  0
 26 32  1  0
 27 33  2  0
 29 34  1  0
 28 35  2  0
 34 35  1  0
 30 36  3  0
 34 37  1  0
 34 38  1  0
 32 39  2  0
 33 39  1  0
 39 40  1  0
M  END
