x2910-x0749
     RDKit          3D

 43 49  0  0  0  0  0  0  0  0999 V2000
    6.9370   -0.7790   21.6000 N   0  0  0  0  0  0  0  0  0  0  0  0
    7.4220   -1.5600   22.6870 C   0  0  0  0  0  0  0  0  0  0  0  0
    8.5560   -2.3560   22.1240 C   0  0  1  0  0  0  0  0  0  0  0  0
    5.8530   -1.1930   20.9280 C   0  0  0  0  0  0  0  0  0  0  0  0
    5.1690   -2.3610   21.0830 O   0  0  0  0  0  0  0  0  0  0  0  0
    5.4390   -0.1590   19.9810 C   0  0  0  0  0  0  0  0  0  0  0  0
    9.5480   -1.9230   22.9280 N   0  0  0  0  0  0  0  0  0  0  0  0
    4.2620    0.7160   20.3580 C   0  0  0  0  0  0  0  0  0  0  0  0
    6.0940    0.0380   18.7940 C   0  0  0  0  0  0  0  0  0  0  0  0
    8.2200   -3.8570   22.2180 C   0  0  2  0  0  0  0  0  0  0  0  0
   10.7800   -1.1720   22.6380 C   0  0  0  0  0  0  0  0  0  0  0  0
    3.9120    1.6830   19.4610 C   0  0  0  0  0  0  0  0  0  0  0  0
    5.6210    1.0630   17.9980 C   0  0  0  0  0  0  0  0  0  0  0  0
    3.5830    0.4760   21.6490 C   0  0  0  0  0  0  0  0  0  0  0  0
    7.0460   -4.2860   21.4440 N   0  0  0  0  0  0  0  0  0  0  0  0
    8.1350   -4.2980   23.6770 C   0  0  1  0  0  0  0  0  0  0  0  0
   10.0000   -2.8410   23.8390 C   0  0  0  0  0  0  0  0  0  0  0  0
    6.2480    1.2970   16.8260 O   0  0  0  0  0  0  0  0  0  0  0  0
    6.5800   -3.9510   20.1790 C   0  0  0  0  0  0  0  0  0  0  0  0
   10.8860    0.1830   23.1560 C   0  0  0  0  0  0  0  0  0  0  0  0
   11.8220   -1.8180   21.9490 C   0  0  0  0  0  0  0  0  0  0  0  0
    4.5860    1.8590   18.2930 N   0  0  0  0  0  0  0  0  0  0  0  0
    2.8380    2.4830   19.7970 C   0  0  0  0  0  0  0  0  0  0  0  0
    2.5100    1.3250   21.9160 C   0  0  0  0  0  0  0  0  0  0  0  0
    7.9120   -5.6980   23.7300 C   0  0  0  0  0  0  0  0  0  0  0  0
    6.2190   -5.2400   22.1670 C   0  0  0  0  0  0  0  0  0  0  0  0
    9.3740   -3.9700   24.2240 C   0  0  0  0  0  0  0  0  0  0  0  0
   11.2410   -2.6790   24.4520 C   0  0  0  0  0  0  0  0  0  0  0  0
    9.8720    0.8400   23.8160 O   0  0  0  0  0  0  0  0  0  0  0  0
    7.5240   -3.2150   19.2340 C   0  0  0  0  0  0  0  0  0  0  0  0
    5.4480   -4.2670   19.8090 O   0  0  0  0  0  0  0  0  0  0  0  0
   13.1570   -1.1280   21.7610 C   0  0  0  0  0  0  0  0  0  0  0  0
   12.1080    0.8840   23.0110 C   0  0  0  0  0  0  0  0  0  0  0  0
    2.1620    2.3040   20.9890 C   0  0  0  0  0  0  0  0  0  0  0  0
    6.9060   -6.2020   22.8790 C   0  0  0  0  0  0  0  0  0  0  0  0
   10.2950   -4.8500   25.3830 S   0  0  0  0  0  0  0  0  0  0  0  0
   11.6080   -3.6680   25.3120 C   0  0  0  0  0  0  0  0  0  0  0  0
   12.1560   -1.6910   24.3250 C   0  0  0  0  0  0  0  0  0  0  0  0
   10.0620    2.2530   23.8060 C   0  0  0  0  0  0  0  0  0  0  0  0
   13.3100    0.2690   22.3300 C   0  0  0  0  0  0  0  0  0  0  0  0
   13.3100   -1.6330   24.9060 C   0  0  0  0  0  0  0  0  0  0  0  0
   12.8550   -3.6650   25.9790 C   0  0  0  0  0  0  0  0  0  0  0  0
   13.7290   -2.6110   25.7550 C   0  0  0  0  0  0  0  0  0  0  0  0
  1  2  1  0
  3  2  1  1
  1  4  1  0
  4  5  2  0
  4  6  1  0
  3  7  1  0
  6  8  1  0
  6  9  2  0
  3 10  1  0
  7 11  1  0
  8 12  2  0
  9 13  1  0
  8 14  1  0
 10 15  1  1
 10 16  1  0
  7 17  1  0
 13 18  1  0
 15 19  1  0
 11 20  2  0
 11 21  1  0
 12 22  1  0
 13 22  2  0
 12 23  1  0
 14 24  2  0
 16 25  1  6
 15 26  1  0
 16 27  1  0
 17 27  2  0
 17 28  1  0
 20 29  1  0
 19 30  1  0
 19 31  2  0
 21 32  2  0
 20 33  1  0
 23 34  2  0
 24 34  1  0
 25 35  1  0
 26 35  1  0
 27 36  1  0
 28 37  2  0
 36 37  1  0
 28 38  1  0
 29 39  1  0
 32 40  1  0
 33 40  2  0
 38 41  2  0
 37 42  1  0
 41 43  1  0
 42 43  2  0
M  END
