x2910-x0771
     RDKit          3D

 46 50  0  0  0  0  0  0  0  0999 V2000
    7.1420   -1.2200   21.2590 N   0  0  0  0  0  0  0  0  0  0  0  0
    7.4450   -1.9280   22.4840 C   0  0  2  0  0  0  0  0  0  0  0  0
    8.9680   -2.1420   22.4390 C   0  0  0  0  0  0  0  0  0  0  0  0
    5.9560   -1.3850   20.6470 C   0  0  0  0  0  0  0  0  0  0  0  0
    5.2600   -2.3980   20.6890 O   0  0  0  0  0  0  0  0  0  0  0  0
    6.5440   -3.0460   22.8080 C   0  0  0  0  0  0  0  0  0  0  0  0
    5.5540   -0.2120   19.8920 C   0  0  0  0  0  0  0  0  0  0  0  0
    9.3630   -1.1700   23.0620 O   0  0  0  0  0  0  0  0  0  0  0  0
    4.5750    0.8070   20.4440 C   0  0  0  0  0  0  0  0  0  0  0  0
    6.0920   -0.0500   18.6720 C   0  0  0  0  0  0  0  0  0  0  0  0
    6.5760   -4.4590   22.1290 C   0  0  0  0  0  0  0  0  0  0  0  0
    6.8300   -4.1950   20.6230 C   0  0  0  0  0  0  0  0  0  0  0  0
   10.7090   -0.7830   22.8480 C   0  0  0  0  0  0  0  0  0  0  0  0
    4.2110    1.9480   19.5550 C   0  0  0  0  0  0  0  0  0  0  0  0
    5.7370    1.1280   17.8080 C   0  0  0  0  0  0  0  0  0  0  0  0
    4.0080    0.7440   21.7100 C   0  0  0  0  0  0  0  0  0  0  0  0
    5.3700   -5.1690   22.1520 C   0  0  0  0  0  0  0  0  0  0  0  0
    7.6350   -5.2870   22.8640 C   0  0  0  0  0  0  0  0  0  0  0  0
    6.2700    1.3370   16.6180 O   0  0  0  0  0  0  0  0  0  0  0  0
    5.8810   -4.4030   19.8630 O   0  0  0  0  0  0  0  0  0  0  0  0
    8.1880   -3.6570   20.1870 C   0  0  0  0  0  0  0  0  0  0  0  0
   10.9670    0.5350   23.1040 C   0  0  0  0  0  0  0  0  0  0  0  0
   11.8330   -1.7200   22.3800 C   0  0  0  0  0  0  0  0  0  0  0  0
    4.7860    2.1010   18.2520 N   0  0  0  0  0  0  0  0  0  0  0  0
    3.2170    2.9700   20.0500 C   0  0  0  0  0  0  0  0  0  0  0  0
    3.0080    1.7710   22.2520 C   0  0  0  0  0  0  0  0  0  0  0  0
    5.2800   -6.0990   23.1700 C   0  0  0  0  0  0  0  0  0  0  0  0
    7.3210   -5.2290   24.2330 C   0  0  0  0  0  0  0  0  0  0  0  0
    9.8330    1.3010   23.5300 O   0  0  0  0  0  0  0  0  0  0  0  0
   13.1080   -1.2110   22.2320 C   0  0  0  0  0  0  0  0  0  0  0  0
   12.2840    1.1090   22.9680 C   0  0  0  0  0  0  0  0  0  0  0  0
    2.6460    2.8180   21.4250 C   0  0  0  0  0  0  0  0  0  0  0  0
    5.8580   -5.4140   24.3350 N   0  0  0  0  0  0  0  0  0  0  0  0
    9.8550    2.6910   23.2130 C   0  0  0  0  0  0  0  0  0  0  0  0
    5.1210   -5.6190   25.8640 S   0  0  0  0  0  0  0  0  0  0  0  0
   13.4180    0.2480   22.5230 C   0  0  0  0  0  0  0  0  0  0  0  0
    4.5250   -6.9340   25.8960 O   0  0  0  0  0  0  0  0  0  0  0  0
    6.1110   -5.2660   26.8550 O   0  0  0  0  0  0  0  0  0  0  0  0
    3.8290   -4.4270   25.9020 C   0  0  0  0  0  0  0  0  0  0  0  0
    2.4900   -4.7650   25.5430 C   0  0  0  0  0  0  0  0  0  0  0  0
    4.1130   -3.1250   26.2960 C   0  0  0  0  0  0  0  0  0  0  0  0
    2.0370   -6.1320   25.0970 C   0  0  0  0  0  0  0  0  0  0  0  0
    1.4670   -3.7880   25.5910 C   0  0  0  0  0  0  0  0  0  0  0  0
    3.0030   -2.0850   26.3430 C   0  0  0  0  0  0  0  0  0  0  0  0
    1.7050   -2.4700   25.9840 C   0  0  0  0  0  0  0  0  0  0  0  0
    0.6020   -1.4480   26.0330 C   0  0  0  0  0  0  0  0  0  0  0  0
  1  2  1  0
  2  3  1  6
  1  4  1  0
  4  5  2  0
  2  6  1  0
  4  7  1  0
  3  8  1  0
  7  9  1  0
  7 10  2  0
  6 11  1  0
 11 12  1  0
  8 13  1  0
  9 14  2  0
 10 15  1  0
  9 16  1  0
 11 17  1  0
 11 18  1  0
 15 19  1  0
 12 20  2  0
 12 21  1  0
 13 22  2  0
 13 23  1  0
 14 24  1  0
 15 24  2  0
 14 25  1  0
 16 26  2  0
 17 27  1  0
 18 28  1  0
 22 29  1  0
 23 30  2  0
 22 31  1  0
 25 32  2  0
 26 32  1  0
 27 33  1  0
 28 33  1  0
 29 34  1  0
 33 35  1  0
 30 36  1  0
 31 36  2  0
 35 37  2  0
 35 38  2  0
 35 39  1  0
 39 40  2  0
 39 41  1  0
 40 42  1  0
 40 43  1  0
 41 44  2  0
 43 45  2  0
 44 45  1  0
 45 46  1  0
M  END
