x2912-x1392
     RDKit          3D

 33 37  0  0  0  0  0  0  0  0999 V2000
    6.7080   -0.8230   21.2530 N   0  0  0  0  0  0  0  0  0  0  0  0
    7.8230   -0.0810   21.8270 C   0  0  0  0  0  0  0  0  0  0  0  0
    8.1310    1.0980   21.6290 O   0  0  0  0  0  0  0  0  0  0  0  0
    6.1930   -0.0890   20.0780 C   0  0  0  0  0  0  0  0  0  0  0  0
    7.0650   -2.2320   21.3220 C   0  0  1  0  0  0  0  0  0  0  0  0
    8.5490   -1.0660   22.6760 C   0  0  2  0  0  0  0  0  0  0  0  0
    6.7590   -3.1260   19.9910 C   0  0  0  0  0  0  0  0  0  0  0  0
    5.0600    0.7360   20.1450 C   0  0  0  0  0  0  0  0  0  0  0  0
    6.7630   -0.1000   18.8000 C   0  0  0  0  0  0  0  0  0  0  0  0
    8.4320   -2.2570   21.6680 C   0  0  1  0  0  0  0  0  0  0  0  0
    6.2660   -2.9990   22.5600 C   0  0  0  0  0  0  0  0  0  0  0  0
    7.8290   -1.2440   24.0470 C   0  0  0  0  0  0  0  0  0  0  0  0
    4.3080    0.9020   21.4280 C   0  0  0  0  0  0  0  0  0  0  0  0
    5.8250   -3.9800   19.8320 O   0  0  0  0  0  0  0  0  0  0  0  0
    7.6670   -2.9840   18.7960 C   0  0  0  0  0  0  0  0  0  0  0  0
    6.3100    0.5770   17.7470 N   0  0  0  0  0  0  0  0  0  0  0  0
    4.5700    1.4450   19.0600 C   0  0  0  0  0  0  0  0  0  0  0  0
    9.9850   -0.6180   22.9040 C   0  0  0  0  0  0  0  0  0  0  0  0
    8.9290   -3.3970   22.2040 C   0  0  0  0  0  0  0  0  0  0  0  0
    6.9730   -3.8170   23.4770 C   0  0  0  0  0  0  0  0  0  0  0  0
    5.2330    1.3400   17.8570 C   0  0  0  0  0  0  0  0  0  0  0  0
   10.3400    0.3730   23.8310 C   0  0  0  0  0  0  0  0  0  0  0  0
   10.9830   -1.2080   22.1620 C   0  0  0  0  0  0  0  0  0  0  0  0
    8.3480   -3.9430   23.1850 C   0  0  0  0  0  0  0  0  0  0  0  0
    6.4270   -4.5300   24.6650 C   0  0  0  0  0  0  0  0  0  0  0  0
   11.6780    0.7380   23.9740 C   0  0  0  0  0  0  0  0  0  0  0  0
   12.2820   -0.8150   22.3390 C   0  0  0  0  0  0  0  0  0  0  0  0
    7.2800   -5.2940   25.4340 C   0  0  0  0  0  0  0  0  0  0  0  0
    9.1510   -4.7290   24.0090 C   0  0  0  0  0  0  0  0  0  0  0  0
   13.1670   -1.4420   21.5290 C   0  0  0  0  0  0  0  0  0  0  0  0
   12.6640    0.1420   23.2280 C   0  0  0  0  0  0  0  0  0  0  0  0
    8.6310   -5.4050   25.1180 C   0  0  0  0  0  0  0  0  0  0  0  0
   13.8640   -1.9390   20.5860 N   0  0  0  0  0  0  0  0  0  0  0  0
  1  2  1  0
  2  3  2  0
  1  4  1  0
  1  5  1  0
  2  6  1  0
  5  7  1  6
  4  8  2  0
  4  9  1  0
  5 10  1  0
  6 10  1  0
  5 11  1  0
  6 12  1  1
  8 13  1  0
  7 14  2  0
  7 15  1  0
  9 16  2  0
  8 17  1  0
  6 18  1  0
 10 19  1  1
 11 20  1  0
 16 21  1  0
 17 21  2  0
 18 22  2  0
 18 23  1  0
 19 24  1  0
 20 24  2  0
 20 25  1  0
 22 26  1  0
 23 27  2  0
 25 28  2  0
 24 29  1  0
 27 30  1  0
 26 31  2  0
 27 31  1  0
 28 32  1  0
 29 32  2  0
 30 33  3  0
M  END
