x2910-x0104
     RDKit          3D

 33 36  0  0  0  0  0  0  0  0999 V2000
    7.3070   -1.3770   21.5850 N   0  0  0  0  0  0  0  0  0  0  0  0
    7.7470   -2.4130   22.3910 C   0  0  0  0  0  0  0  0  0  0  0  0
    9.2920   -2.4370   22.5100 C   0  0  0  0  0  0  0  0  0  0  0  0
    6.0560   -1.6140   20.8420 C   0  0  0  0  0  0  0  0  0  0  0  0
    5.3680   -2.6330   20.9440 O   0  0  0  0  0  0  0  0  0  0  0  0
    5.6810   -0.4490   19.9180 C   0  0  0  0  0  0  0  0  0  0  0  0
    9.7980   -1.3070   23.2270 O   0  0  0  0  0  0  0  0  0  0  0  0
    4.5210    0.4420   20.4150 C   0  0  0  0  0  0  0  0  0  0  0  0
    6.2830   -0.1580   18.7290 C   0  0  0  0  0  0  0  0  0  0  0  0
   10.8260   -0.6020   22.5130 C   0  0  1  0  0  0  0  0  0  0  0  0
    4.0570    1.5490   19.6750 C   0  0  0  0  0  0  0  0  0  0  0  0
    5.7770    1.0260   17.9730 C   0  0  0  0  0  0  0  0  0  0  0  0
    3.8620    0.1920   21.6450 C   0  0  0  0  0  0  0  0  0  0  0  0
    6.2340    1.3850   16.9180 O   0  0  0  0  0  0  0  0  0  0  0  0
   11.0800    0.7430   23.1850 C   0  0  1  0  0  0  0  0  0  0  0  0
   11.9400   -1.4580   22.4210 C   0  0  1  0  0  0  0  0  0  0  0  0
    4.6980    1.8610   18.4210 N   0  0  0  0  0  0  0  0  0  0  0  0
    2.9510    2.4400   20.0760 C   0  0  0  0  0  0  0  0  0  0  0  0
    2.7040    1.0850   22.1240 C   0  0  0  0  0  0  0  0  0  0  0  0
   12.0570   -2.3330   21.4210 F   0  0  0  0  0  0  0  0  0  0  0  0
   13.1810   -0.8150   22.3160 C   0  0  0  0  0  0  0  0  0  0  0  0
   12.3760    1.2150   23.3470 C   0  0  1  0  0  0  0  0  0  0  0  0
    2.2790    2.2340   21.2600 C   0  0  0  0  0  0  0  0  0  0  0  0
    9.8190    1.6540   23.5270 C   0  0  0  0  0  0  0  0  0  0  0  0
   10.2740    0.8090   24.3580 N   0  0  0  0  0  0  0  0  0  0  0  0
   13.3790    0.4730   22.7580 C   0  0  0  0  0  0  0  0  0  0  0  0
   12.5650    2.6460   22.7510 C   0  0  0  0  0  0  0  0  0  0  0  0
   11.7080    3.7710   23.2370 C   0  0  0  0  0  0  0  0  0  0  0  0
   12.2900    4.9840   22.9210 C   0  0  0  0  0  0  0  0  0  0  0  0
   11.3620    5.9750   22.4060 N   0  0  0  0  0  0  0  0  0  0  0  0
   10.3530    6.2850   23.2830 C   0  0  0  0  0  0  0  0  0  0  0  0
    9.1510    6.5750   22.6290 C   0  0  0  0  0  0  0  0  0  0  0  0
   10.4890    6.3120   24.7190 O   0  0  0  0  0  0  0  0  0  0  0  0
  1  2  1  0
  2  3  1  0
  1  4  1  0
  4  5  2  0
  4  6  1  0
  3  7  1  0
  6  8  1  0
  6  9  2  0
 10  7  1  1
  8 11  2  0
  9 12  1  0
  8 13  1  0
 12 14  1  0
 10 15  1  0
 10 16  1  0
 11 17  1  0
 12 17  2  0
 11 18  1  0
 13 19  2  0
 16 20  1  6
 16 21  1  0
 15 22  1  0
 18 23  2  0
 19 23  1  0
 15 24  1  6
 15 25  1  0
 24 25  1  0
 21 26  2  0
 22 26  1  0
 22 27  1  6
 27 28  1  0
 28 29  1  0
 29 30  1  0
 30 31  1  0
 31 32  1  0
 31 33  2  0
M  END
