x2910-x1336
     RDKit          3D

 43 47  0  0  0  0  0  0  0  0999 V2000
    6.7680   -1.5750   20.7820 N   0  0  0  0  0  0  0  0  0  0  0  0
    5.5990   -1.7740   20.2840 C   0  0  2  0  0  0  0  0  0  0  0  0
    5.9030   -3.0490   19.5090 C   0  0  0  0  0  0  0  0  0  0  0  0
    6.5760   -1.8700   22.0620 N   0  0  0  0  0  0  0  0  0  0  0  0
    5.2170   -0.4870   19.7040 C   0  0  0  0  0  0  0  0  0  0  0  0
    6.7990   -3.3130   22.2710 C   0  0  0  0  0  0  0  0  0  0  0  0
    7.4520   -0.9230   22.5590 C   0  0  0  0  0  0  0  0  0  0  0  0
    5.2900   -4.1020   19.6450 O   0  0  0  0  0  0  0  0  0  0  0  0
    7.1060   -2.9250   18.5710 C   0  0  0  0  0  0  0  0  0  0  0  0
    4.3020    0.3910   20.2780 C   0  0  0  0  0  0  0  0  0  0  0  0
    5.8320   -0.1290   18.5220 C   0  0  0  0  0  0  0  0  0  0  0  0
    7.3620   -3.6220   23.6270 C   0  0  0  0  0  0  0  0  0  0  0  0
    8.4980   -1.2910   23.4980 C   0  0  2  0  0  0  0  0  0  0  0  0
    9.7140   -1.7200   22.8240 N   0  0  0  0  0  0  0  0  0  0  0  0
    3.9390    1.7260   19.6120 C   0  0  0  0  0  0  0  0  0  0  0  0
    5.5980    1.0560   17.8480 C   0  0  0  0  0  0  0  0  0  0  0  0
    3.6310    0.1670   21.4930 C   0  0  0  0  0  0  0  0  0  0  0  0
    7.8980   -2.3950   24.2590 N   0  0  0  0  0  0  0  0  0  0  0  0
    6.2520    1.3380   16.7170 O   0  0  0  0  0  0  0  0  0  0  0  0
    9.4590   -2.5300   21.7770 C   0  0  0  0  0  0  0  0  0  0  0  0
    7.2710   -1.8930   25.6800 S   0  0  0  0  0  0  0  0  0  0  0  0
   10.8700   -0.8700   22.8220 C   0  0  0  0  0  0  0  0  0  0  0  0
    4.6370    1.9980   18.3700 N   0  0  0  0  0  0  0  0  0  0  0  0
    3.0180    2.6310   20.1360 C   0  0  0  0  0  0  0  0  0  0  0  0
    2.6290    1.1640   22.0620 C   0  0  0  0  0  0  0  0  0  0  0  0
    8.1000   -0.7720   26.0370 O   0  0  0  0  0  0  0  0  0  0  0  0
    5.8370   -1.8070   25.5660 O   0  0  0  0  0  0  0  0  0  0  0  0
   10.9750    0.4970   23.1060 C   0  0  0  0  0  0  0  0  0  0  0  0
   12.0640   -1.6770   22.4360 C   0  0  0  0  0  0  0  0  0  0  0  0
    2.2840    2.3680   21.4540 C   0  0  0  0  0  0  0  0  0  0  0  0
    7.6570   -3.3540   26.5290 C   0  0  0  0  0  0  0  0  0  0  0  0
    9.8360    1.1420   23.4270 O   0  0  0  0  0  0  0  0  0  0  0  0
   13.3560   -0.9800   22.3630 C   0  0  0  0  0  0  0  0  0  0  0  0
   12.2420    1.2700   23.0650 C   0  0  0  0  0  0  0  0  0  0  0  0
    6.7230   -3.8670   27.4140 C   0  0  0  0  0  0  0  0  0  0  0  0
    9.0090   -4.0840   26.3070 C   0  0  0  0  0  0  0  0  0  0  0  0
    9.6920    2.4350   22.8500 C   0  0  0  0  0  0  0  0  0  0  0  0
   10.0330   -3.6090   25.4060 C   0  0  0  0  0  0  0  0  0  0  0  0
   13.4540    0.5040   22.6790 C   0  0  0  0  0  0  0  0  0  0  0  0
    6.9880   -5.1310   28.1720 C   0  0  0  0  0  0  0  0  0  0  0  0
    9.1720   -5.3420   27.1170 C   0  0  0  0  0  0  0  0  0  0  0  0
    5.8920   -5.6590   29.1480 C   0  0  0  0  0  0  0  0  0  0  0  0
    8.1950   -5.8100   27.9920 C   0  0  0  0  0  0  0  0  0  0  0  0
  2  1  1  6
  2  3  1  0
  1  4  1  0
  2  5  1  0
  4  6  1  0
  4  7  1  0
  3  8  2  0
  3  9  1  0
  5 10  1  0
  5 11  2  0
  6 12  1  0
  7 13  1  0
 13 14  1  6
 10 15  2  0
 11 16  1  0
 10 17  1  0
 12 18  1  0
 13 18  1  0
 16 19  1  0
 14 20  1  0
 18 21  1  0
 14 22  1  0
 15 23  1  0
 16 23  2  0
 15 24  1  0
 17 25  2  0
 21 26  2  0
 21 27  2  0
 22 28  2  0
 22 29  1  0
 24 30  2  0
 25 30  1  0
 21 31  1  0
 28 32  1  0
 29 33  2  0
 28 34  1  0
 31 35  2  0
 31 36  1  0
 32 37  1  0
 36 38  1  0
 33 39  1  0
 34 39  2  0
 35 40  1  0
 36 41  2  0
 40 42  1  0
 40 43  2  0
 41 43  1  0
M  END
