x2910-x0978
     RDKit          3D

 40 42  0  0  0  0  0  0  0  0999 V2000
    1.8040   -5.7520   23.2800 N   0  0  0  0  0  0  0  0  0  0  0  0
    3.0700   -6.4780   23.3680 C   0  0  2  0  0  0  0  0  0  0  0  0
    3.2980   -7.3220   24.6410 C   0  0  1  0  0  0  0  0  0  0  0  0
    0.6620   -6.2500   22.5030 C   0  0  0  0  0  0  0  0  0  0  0  0
    0.7020   -7.2880   21.8500 O   0  0  0  0  0  0  0  0  0  0  0  0
   -0.5700   -5.3880   22.5700 C   0  0  0  0  0  0  0  0  0  0  0  0
    4.1940   -5.3830   23.2250 C   0  0  0  0  0  0  0  0  0  0  0  0
    2.1240   -8.2740   24.7660 C   0  0  0  0  0  0  0  0  0  0  0  0
    4.4180   -7.7850   24.5840 O   0  0  0  0  0  0  0  0  0  0  0  0
    5.3510   -5.7350   22.3840 N   0  0  0  0  0  0  0  0  0  0  0  0
    4.0980   -4.2970   23.7830 O   0  0  0  0  0  0  0  0  0  0  0  0
    6.3710   -4.8020   21.8080 C   0  0  1  0  0  0  0  0  0  0  0  0
    6.4210   -5.0160   20.3060 C   0  0  0  0  0  0  0  0  0  0  0  0
    6.0970   -3.3500   22.2350 C   0  0  0  0  0  0  0  0  0  0  0  0
    5.7440   -6.0820   19.8840 C   0  0  0  0  0  0  0  0  0  0  0  0
    5.4390   -2.6000   21.2510 N   0  0  0  0  0  0  0  0  0  0  0  0
    6.0650   -1.3020   21.0370 C   0  0  0  0  0  0  0  0  0  0  0  0
    7.2500   -0.9880   21.8120 N   0  0  0  0  0  0  0  0  0  0  0  0
    5.6110   -0.1210   20.0600 C   0  0  0  0  0  0  0  0  0  0  0  0
    8.5950   -1.3430   21.3730 C   0  0  0  0  0  0  0  0  0  0  0  0
    4.6730    0.8100   20.4250 C   0  0  0  0  0  0  0  0  0  0  0  0
    6.1390    0.0540   18.7780 C   0  0  0  0  0  0  0  0  0  0  0  0
    9.2870   -2.2210   22.4350 C   0  0  0  0  0  0  0  0  0  0  0  0
    4.1500    1.9640   19.5830 C   0  0  0  0  0  0  0  0  0  0  0  0
    5.7250    1.1180   17.9330 C   0  0  0  0  0  0  0  0  0  0  0  0
    4.0750    0.7250   21.8050 C   0  0  0  0  0  0  0  0  0  0  0  0
    9.7300   -1.4560   23.2700 O   0  0  0  0  0  0  0  0  0  0  0  0
    6.1930    1.3660   16.7310 O   0  0  0  0  0  0  0  0  0  0  0  0
    4.7490    2.0620   18.2890 N   0  0  0  0  0  0  0  0  0  0  0  0
    3.1870    2.8410   20.0410 C   0  0  0  0  0  0  0  0  0  0  0  0
    3.1110    1.6680   22.1860 C   0  0  0  0  0  0  0  0  0  0  0  0
   10.9460   -0.8780   23.0450 C   0  0  0  0  0  0  0  0  0  0  0  0
    2.6830    2.6800   21.3280 C   0  0  0  0  0  0  0  0  0  0  0  0
   11.1330    0.4810   23.3190 C   0  0  0  0  0  0  0  0  0  0  0  0
   11.9730   -1.6580   22.5500 C   0  0  0  0  0  0  0  0  0  0  0  0
   10.0730    1.1960   23.8020 O   0  0  0  0  0  0  0  0  0  0  0  0
   13.2160   -1.0870   22.3200 C   0  0  0  0  0  0  0  0  0  0  0  0
   12.3800    1.0230   23.0870 C   0  0  0  0  0  0  0  0  0  0  0  0
   10.1600    2.6150   23.6820 C   0  0  0  0  0  0  0  0  0  0  0  0
   13.4210    0.2730   22.5960 C   0  0  0  0  0  0  0  0  0  0  0  0
  2  1  1  1
  2  3  1  0
  1  4  1  0
  4  5  2  0
  4  6  1  0
  2  7  1  0
  3  8  1  6
  3  9  1  0
  7 10  1  0
  7 11  2  0
 10 12  1  0
 12 13  1  6
 12 14  1  0
 13 15  2  3
 14 16  1  0
 16 17  2  3
 17 18  1  0
 17 19  1  0
 18 20  1  0
 19 21  1  0
 19 22  2  0
 20 23  1  0
 21 24  2  0
 22 25  1  0
 21 26  1  0
 23 27  1  0
 25 28  1  0
 24 29  1  0
 25 29  2  0
 24 30  1  0
 26 31  2  0
 27 32  1  0
 30 33  2  0
 31 33  1  0
 32 34  2  0
 32 35  1  0
 34 36  1  0
 35 37  2  0
 34 38  1  0
 36 39  1  0
 37 40  1  0
 38 40  2  0
M  END
