x2912-x0734
     RDKit          3D

 39 42  0  0  0  0  0  0  0  0999 V2000
    7.0940   -0.6350   21.1980 N   0  0  0  0  0  0  0  0  0  0  0  0
    8.2910   -0.1970   21.9130 C   0  0  0  0  0  0  0  0  0  0  0  0
    8.9840    0.6920   21.4190 O   0  0  0  0  0  0  0  0  0  0  0  0
    6.3810    0.1150   20.2000 C   0  0  0  0  0  0  0  0  0  0  0  0
    8.7050   -0.7900   23.3030 C   0  0  1  0  0  0  0  0  0  0  0  0
    5.2690    1.0430   20.3950 C   0  0  0  0  0  0  0  0  0  0  0  0
    6.8620   -0.1170   18.9180 C   0  0  0  0  0  0  0  0  0  0  0  0
    8.0740   -0.0500   24.5050 C   0  0  0  0  0  0  0  0  0  0  0  0
    4.7420    1.3220   21.8440 C   0  0  0  0  0  0  0  0  0  0  0  0
    8.4840   -2.2830   23.5610 C   0  0  0  0  0  0  0  0  0  0  0  0
    6.3350    0.4770   17.8350 N   0  0  0  0  0  0  0  0  0  0  0  0
    4.7410    1.6380   19.2590 C   0  0  0  0  0  0  0  0  0  0  0  0
   10.2160   -0.4840   23.1880 C   0  0  0  0  0  0  0  0  0  0  0  0
    5.2930    1.3310   18.0160 C   0  0  0  0  0  0  0  0  0  0  0  0
   10.7480    0.6300   23.8660 C   0  0  0  0  0  0  0  0  0  0  0  0
   11.0150   -1.2360   22.4510 C   0  0  0  0  0  0  0  0  0  0  0  0
    7.1820   -2.9840   23.1330 C   0  0  2  0  0  0  0  0  0  0  0  0
   12.0990    0.8870   23.7160 C   0  0  0  0  0  0  0  0  0  0  0  0
   12.3810   -1.0140   22.2810 C   0  0  0  0  0  0  0  0  0  0  0  0
    6.7640   -4.1930   23.9020 N   0  0  0  0  0  0  0  0  0  0  0  0
    7.5220   -3.3830   21.8750 C   0  0  0  0  0  0  0  0  0  0  0  0
   13.0610   -1.9090   21.4650 C   0  0  0  0  0  0  0  0  0  0  0  0
   12.9340    0.0690   22.9230 C   0  0  0  0  0  0  0  0  0  0  0  0
    7.3360   -4.6750   25.1680 C   0  0  0  0  0  0  0  0  0  0  0  0
    6.3830   -4.0430   21.2690 N   0  0  0  0  0  0  0  0  0  0  0  0
    5.9660   -5.2880   23.2400 C   0  0  0  0  0  0  0  0  0  0  0  0
   13.5870   -2.8190   20.6770 N   0  0  0  0  0  0  0  0  0  0  0  0
    6.0830   -3.8050   19.9650 C   0  0  0  0  0  0  0  0  0  0  0  0
    6.5130   -4.9260   26.2810 C   0  0  0  0  0  0  0  0  0  0  0  0
    8.6160   -4.8580   25.1550 C   0  0  0  0  0  0  0  0  0  0  0  0
    6.2740   -5.4300   21.7610 C   0  0  0  0  0  0  0  0  0  0  0  0
    5.0590   -4.7260   26.2950 N   0  0  0  0  0  0  0  0  0  0  0  0
    4.9910   -4.1480   19.5810 O   0  0  0  0  0  0  0  0  0  0  0  0
    7.0950   -3.1330   19.0270 C   0  0  0  0  0  0  0  0  0  0  0  0
    9.2860   -5.3270   26.2270 C   0  0  0  0  0  0  0  0  0  0  0  0
    7.2430   -5.4520   27.5440 C   0  0  0  0  0  0  0  0  0  0  0  0
    4.2560   -5.7020   25.5700 O   0  0  0  0  0  0  0  0  0  0  0  0
    4.6230   -3.6820   26.7950 O   0  0  0  0  0  0  0  0  0  0  0  0
    8.5930   -5.6200   27.4300 C   0  0  0  0  0  0  0  0  0  0  0  0
  1  2  1  0
  2  3  2  0
  1  4  1  0
  5  2  1  0
  4  6  2  0
  4  7  1  0
  5  8  1  1
  6  9  1  0
  5 10  1  0
  7 11  2  0
  6 12  1  0
  5 13  1  0
 11 14  1  0
 12 14  2  0
 13 15  2  0
 13 16  1  0
 17 10  1  1
 15 18  1  0
 16 19  2  0
 17 20  1  0
 17 21  1  0
 19 22  1  0
 18 23  2  0
 19 23  1  0
 20 24  1  0
 21 25  1  0
 20 26  1  0
 22 27  3  0
 25 28  1  0
 24 29  2  0
 24 30  1  0
 25 31  1  0
 26 31  1  0
 29 32  1  0
 28 33  2  0
 28 34  1  0
 30 35  2  0
 29 36  1  0
 32 37  2  0
 32 38  1  0
 35 39  1  0
 36 39  2  0
M  CHG  2  32   1  38  -1
M  END
