x2910-x0991
     RDKit          3D

 29 31  0  0  0  0  0  0  0  0999 V2000
    7.2860   -1.4740   21.7010 N   0  0  0  0  0  0  0  0  0  0  0  0
    8.3060   -2.5530   21.7760 C   0  0  0  0  0  0  0  0  0  0  0  0
    9.0580   -2.6140   23.1080 C   0  0  1  0  0  0  0  0  0  0  0  0
    6.1270   -1.6390   20.9590 C   0  0  0  0  0  0  0  0  0  0  0  0
    5.4850   -2.6930   20.9920 O   0  0  0  0  0  0  0  0  0  0  0  0
    5.6590   -0.4770   20.1010 C   0  0  0  0  0  0  0  0  0  0  0  0
    9.3670   -1.4110   23.3140 O   0  0  0  0  0  0  0  0  0  0  0  0
    8.3390   -3.2310   24.4530 C   0  0  0  0  0  0  0  0  0  0  0  0
    4.4970    0.4430   20.5290 C   0  0  0  0  0  0  0  0  0  0  0  0
    6.2470   -0.1850   18.8830 C   0  0  0  0  0  0  0  0  0  0  0  0
    8.7940   -4.3310   25.2420 C   0  0  0  0  0  0  0  0  0  0  0  0
   10.6530   -0.9540   23.0200 C   0  0  0  0  0  0  0  0  0  0  0  0
    4.1650    1.4560   19.6490 C   0  0  0  0  0  0  0  0  0  0  0  0
    5.7730    0.8940   18.1310 C   0  0  0  0  0  0  0  0  0  0  0  0
    3.8010    0.2190   21.8160 C   0  0  0  0  0  0  0  0  0  0  0  0
    6.3040    1.2200   16.9580 O   0  0  0  0  0  0  0  0  0  0  0  0
    9.9550   -4.9010   24.8360 N   0  0  0  0  0  0  0  0  0  0  0  0
    8.2160   -4.8700   26.3620 N   0  0  0  0  0  0  0  0  0  0  0  0
   10.9870    0.3540   23.4560 C   0  0  0  0  0  0  0  0  0  0  0  0
   11.6200   -1.7140   22.3310 C   0  0  0  0  0  0  0  0  0  0  0  0
    4.7750    1.6990   18.4780 N   0  0  0  0  0  0  0  0  0  0  0  0
    3.1200    2.2900   20.0030 C   0  0  0  0  0  0  0  0  0  0  0  0
    2.7600    1.1090   22.0950 C   0  0  0  0  0  0  0  0  0  0  0  0
   10.1060    1.1660   24.1210 O   0  0  0  0  0  0  0  0  0  0  0  0
   13.0500   -1.2970   21.9920 C   0  0  0  0  0  0  0  0  0  0  0  0
   12.2670    0.8550   23.2110 C   0  0  0  0  0  0  0  0  0  0  0  0
    2.4410    2.1180   21.1900 C   0  0  0  0  0  0  0  0  0  0  0  0
   10.2270    2.5180   23.6900 C   0  0  0  0  0  0  0  0  0  0  0  0
   13.3570    0.1060   22.4980 C   0  0  0  0  0  0  0  0  0  0  0  0
  1  2  1  0
  3  2  1  6
  1  4  1  0
  4  5  2  0
  4  6  1  0
  3  7  1  0
  3  8  1  0
  6  9  1  0
  6 10  2  0
  8 11  1  0
  7 12  1  0
  9 13  2  0
 10 14  1  0
  9 15  1  0
 14 16  1  0
 11 17  2  3
 11 18  1  0
 12 19  2  0
 12 20  1  0
 13 21  1  0
 14 21  2  0
 13 22  1  0
 15 23  2  0
 19 24  1  0
 20 25  2  0
 19 26  1  0
 22 27  2  0
 23 27  1  0
 24 28  1  0
 25 29  1  0
 26 29  2  0
M  END
