x2910-x0395
     RDKit          3D

 31 34  0  0  0  0  0  0  0  0999 V2000
    6.4960   -1.6080   21.9480 N   0  0  0  0  0  0  0  0  0  0  0  0
    7.5880   -2.5210   22.1730 C   0  0  0  0  0  0  0  0  0  0  0  0
    8.9810   -1.9900   21.8040 C   0  0  0  0  0  0  0  0  0  0  0  0
    5.7110   -1.7590   20.7470 C   0  0  0  0  0  0  0  0  0  0  0  0
    5.3130   -2.8330   20.3070 O   0  0  0  0  0  0  0  0  0  0  0  0
    5.3400   -0.5110   20.0110 C   0  0  0  0  0  0  0  0  0  0  0  0
    9.4440   -1.5700   22.9260 N   0  0  0  0  0  0  0  0  0  0  0  0
    4.2860    0.5370   20.4130 C   0  0  0  0  0  0  0  0  0  0  0  0
    6.0200   -0.1480   18.7110 C   0  0  0  0  0  0  0  0  0  0  0  0
   10.7580   -0.9100   22.8550 C   0  0  0  0  0  0  0  0  0  0  0  0
    3.9840    1.6590   19.6740 C   0  0  0  0  0  0  0  0  0  0  0  0
    5.6970    0.9890   18.0030 C   0  0  0  0  0  0  0  0  0  0  0  0
    3.5990    0.2270   21.7040 C   0  0  0  0  0  0  0  0  0  0  0  0
    9.1230   -2.3370   24.0780 C   0  0  0  0  0  0  0  0  0  0  0  0
    6.3450    1.2890   16.8220 O   0  0  0  0  0  0  0  0  0  0  0  0
   10.9850    0.5080   23.3550 C   0  0  0  0  0  0  0  0  0  0  0  0
   11.8410   -1.7750   22.2250 C   0  0  0  0  0  0  0  0  0  0  0  0
    4.6760    1.9290   18.4400 N   0  0  0  0  0  0  0  0  0  0  0  0
    2.9990    2.5280   20.1400 C   0  0  0  0  0  0  0  0  0  0  0  0
    2.6290    1.1320   22.1170 C   0  0  0  0  0  0  0  0  0  0  0  0
    8.4350   -1.9220   25.3120 N   0  0  0  0  0  0  0  0  0  0  0  0
    9.5010   -4.0460   24.1810 S   0  0  0  0  0  0  0  0  0  0  0  0
    9.9900    1.2980   23.9160 O   0  0  0  0  0  0  0  0  0  0  0  0
   13.1710   -1.0570   22.1590 C   0  0  0  0  0  0  0  0  0  0  0  0
   12.3030    1.0810   23.2380 C   0  0  0  0  0  0  0  0  0  0  0  0
    2.3290    2.2620   21.3510 C   0  0  0  0  0  0  0  0  0  0  0  0
    8.7940   -4.1310   25.7160 C   0  0  0  0  0  0  0  0  0  0  0  0
    8.2760   -2.9440   26.1750 N   0  0  0  0  0  0  0  0  0  0  0  0
   10.1520    2.6820   23.6050 C   0  0  0  0  0  0  0  0  0  0  0  0
    8.7900   -5.3800   26.4200 C   0  0  0  0  0  0  0  0  0  0  0  0
   13.3760    0.2310   22.6180 C   0  0  0  0  0  0  0  0  0  0  0  0
  1  2  1  0
  2  3  1  0
  1  4  1  0
  4  5  2  0
  4  6  1  0
  3  7  1  0
  6  8  1  0
  6  9  2  0
  7 10  1  0
  8 11  2  0
  9 12  1  0
  8 13  1  0
  7 14  1  0
 12 15  1  0
 10 16  2  0
 10 17  1  0
 11 18  1  0
 12 18  2  0
 11 19  1  0
 13 20  2  0
 14 21  2  0
 14 22  1  0
 16 23  1  0
 17 24  2  0
 16 25  1  0
 19 26  2  0
 20 26  1  0
 22 27  1  0
 21 28  1  0
 27 28  2  0
 23 29  1  0
 27 30  1  0
 24 31  1  0
 25 31  2  0
M  END
