x2912-x0689
     RDKit          3D

 39 42  0  0  0  0  0  0  0  0999 V2000
    7.0100   -0.6280   21.0070 N   0  0  0  0  0  0  0  0  0  0  0  0
    8.1950   -0.1550   21.6820 C   0  0  0  0  0  0  0  0  0  0  0  0
    8.7520    0.9040   21.3750 O   0  0  0  0  0  0  0  0  0  0  0  0
    6.3520    0.0860   20.0280 C   0  0  0  0  0  0  0  0  0  0  0  0
    8.6950   -1.0580   22.7900 C   0  0  2  0  0  0  0  0  0  0  0  0
    5.2330    1.0370   20.3120 C   0  0  0  0  0  0  0  0  0  0  0  0
    6.8150   -0.1430   18.7510 C   0  0  0  0  0  0  0  0  0  0  0  0
    7.9400   -0.9160   24.1390 C   0  0  0  0  0  0  0  0  0  0  0  0
    4.6870    1.3340   21.6730 C   0  0  0  0  0  0  0  0  0  0  0  0
    6.1830    0.5810   17.6430 N   0  0  0  0  0  0  0  0  0  0  0  0
    4.6890    1.6920   19.1190 C   0  0  0  0  0  0  0  0  0  0  0  0
   10.1540   -0.7420   22.9380 C   0  0  0  0  0  0  0  0  0  0  0  0
    7.4270   -2.2520   24.6200 C   0  0  0  0  0  0  0  0  0  0  0  0
    5.1700    1.4520   17.8420 C   0  0  0  0  0  0  0  0  0  0  0  0
   10.6370    0.2920   23.7590 C   0  0  0  0  0  0  0  0  0  0  0  0
   11.0650   -1.4840   22.2260 C   0  0  0  0  0  0  0  0  0  0  0  0
    6.3950   -2.8580   23.8910 C   0  0  0  0  0  0  0  0  0  0  0  0
   12.0490    0.4620   23.7500 C   0  0  0  0  0  0  0  0  0  0  0  0
   12.3640   -1.3450   22.2100 C   0  0  0  0  0  0  0  0  0  0  0  0
   13.0490   -2.2520   21.3890 C   0  0  0  0  0  0  0  0  0  0  0  0
   12.9930   -0.3440   22.9740 C   0  0  0  0  0  0  0  0  0  0  0  0
    6.4200   -4.4020   23.9780 C   0  0  1  0  0  0  0  0  0  0  0  0
   13.5930   -3.2030   20.6290 N   0  0  0  0  0  0  0  0  0  0  0  0
    5.2050   -4.9120   24.0150 N   0  0  0  0  0  0  0  0  0  0  0  0
    7.2760   -4.8830   22.9390 C   0  0  0  0  0  0  0  0  0  0  0  0
    4.5470   -5.0140   25.6020 S   0  0  0  0  0  0  0  0  0  0  0  0
    6.5010   -5.2740   21.7600 N   0  0  0  0  0  0  0  0  0  0  0  0
    4.8750   -6.0020   23.2260 C   0  0  0  0  0  0  0  0  0  0  0  0
    6.2130   -4.5740   20.5670 C   0  0  0  0  0  0  0  0  0  0  0  0
    3.7920   -6.2470   25.6930 O   0  0  0  0  0  0  0  0  0  0  0  0
    5.5670   -4.7180   26.5830 O   0  0  0  0  0  0  0  0  0  0  0  0
    5.6160   -6.3520   22.0940 C   0  0  0  0  0  0  0  0  0  0  0  0
    3.3690   -3.6980   25.6770 C   0  0  0  0  0  0  0  0  0  0  0  0
    7.0980   -3.4440   20.0130 C   0  0  0  0  0  0  0  0  0  0  0  0
    5.2100   -4.8530   19.9460 O   0  0  0  0  0  0  0  0  0  0  0  0
    3.7430   -2.0700   26.1270 S   0  0  0  0  0  0  0  0  0  0  0  0
    2.0450   -3.8900   25.3710 C   0  0  0  0  0  0  0  0  0  0  0  0
    1.3390   -2.7210   25.5080 C   0  0  0  0  0  0  0  0  0  0  0  0
    2.0940   -1.6360   25.9080 C   0  0  0  0  0  0  0  0  0  0  0  0
  1  2  1  0
  2  3  2  0
  1  4  1  0
  2  5  1  0
  4  6  2  0
  4  7  1  0
  5  8  1  1
  6  9  1  0
  7 10  2  0
  6 11  1  0
  5 12  1  0
  8 13  1  0
 10 14  1  0
 11 14  2  0
 12 15  2  0
 12 16  1  0
 13 17  1  0
 15 18  1  0
 16 19  2  0
 19 20  1  0
 18 21  2  0
 19 21  1  0
 22 17  1  6
 20 23  3  0
 22 24  1  0
 22 25  1  0
 24 26  1  0
 25 27  1  0
 24 28  1  0
 27 29  1  0
 26 30  2  0
 26 31  2  0
 27 32  1  0
 28 32  1  0
 26 33  1  0
 29 34  1  0
 29 35  2  0
 33 36  1  0
 33 37  2  0
 37 38  1  0
 36 39  1  0
 38 39  2  0
M  END
