x2910
     RDKit          3D

 25 27  0  0  0  0  0  0  0  0999 V2000
    7.3270   -1.4600   21.3230 N   0  0  0  0  0  0  0  0  0  0  0  0
   10.4650    2.5880   23.9830 C   0  0  0  0  0  0  0  0  0  0  0  0
   10.2480    1.2580   23.5040 O   0  0  0  0  0  0  0  0  0  0  0  0
   11.3390    0.5290   23.1150 C   0  0  0  0  0  0  0  0  0  0  0  0
    4.8610    1.6090   18.2450 N   0  0  0  0  0  0  0  0  0  0  0  0
    9.7210   -1.1020   22.5940 O   0  0  0  0  0  0  0  0  0  0  0  0
   12.6500    0.9860   23.1370 C   0  0  0  0  0  0  0  0  0  0  0  0
    5.4100   -2.5480   20.8730 O   0  0  0  0  0  0  0  0  0  0  0  0
   13.6650    0.1810   22.6420 C   0  0  0  0  0  0  0  0  0  0  0  0
    6.4820    1.0770   16.7610 O   0  0  0  0  0  0  0  0  0  0  0  0
   13.3850   -1.0830   22.1560 C   0  0  0  0  0  0  0  0  0  0  0  0
   12.0860   -1.5670   22.1560 C   0  0  0  0  0  0  0  0  0  0  0  0
   11.0530   -0.7600   22.6190 C   0  0  0  0  0  0  0  0  0  0  0  0
    9.3480   -2.4480   22.2590 C   0  0  0  0  0  0  0  0  0  0  0  0
    7.8510   -2.4970   22.1980 C   0  0  0  0  0  0  0  0  0  0  0  0
    6.1380   -1.5660   20.7330 C   0  0  0  0  0  0  0  0  0  0  0  0
    5.7140   -0.4120   19.9180 C   0  0  0  0  0  0  0  0  0  0  0  0
    6.2830   -0.2290   18.6990 C   0  0  0  0  0  0  0  0  0  0  0  0
    5.8950    0.8170   17.8170 C   0  0  0  0  0  0  0  0  0  0  0  0
    4.2260    1.4770   19.4780 C   0  0  0  0  0  0  0  0  0  0  0  0
    3.1580    2.3020   19.8180 C   0  0  0  0  0  0  0  0  0  0  0  0
    2.5380    2.1530   21.0480 C   0  0  0  0  0  0  0  0  0  0  0  0
    2.9900    1.2150   21.9520 C   0  0  0  0  0  0  0  0  0  0  0  0
    4.0480    0.3810   21.6300 C   0  0  0  0  0  0  0  0  0  0  0  0
    4.6580    0.4830   20.3760 C   0  0  0  0  0  0  0  0  0  0  0  0
  2  3  1  0
  3  4  1  0
  4  7  2  0
  7  9  1  0
  9 11  2  0
 11 12  1  0
  4 13  1  0
  6 13  1  0
 12 13  2  0
  6 14  1  0
  1 15  1  0
 14 15  1  0
  1 16  1  0
  8 16  2  0
 16 17  1  0
 17 18  2  0
  5 19  1  0
 10 19  2  0
 18 19  1  0
  5 20  1  0
 20 21  2  0
 21 22  1  0
 22 23  2  0
 23 24  1  0
 17 25  1  0
 20 25  1  0
 24 25  2  0
M  END
