x2912-x0691
     RDKit          3D

 42 45  0  0  0  0  0  0  0  0999 V2000
    6.9940   -0.6330   21.1630 N   0  0  0  0  0  0  0  0  0  0  0  0
    8.2040   -0.1820   21.8180 C   0  0  0  0  0  0  0  0  0  0  0  0
    8.8110    0.8340   21.4720 O   0  0  0  0  0  0  0  0  0  0  0  0
    6.3540    0.0810   20.0690 C   0  0  0  0  0  0  0  0  0  0  0  0
    8.6350   -1.0740   22.9730 C   0  0  2  0  0  0  0  0  0  0  0  0
    5.3180    0.9310   20.4190 C   0  0  0  0  0  0  0  0  0  0  0  0
    6.7710   -0.0870   18.7750 C   0  0  0  0  0  0  0  0  0  0  0  0
    7.9060   -0.7900   24.3140 C   0  0  0  0  0  0  0  0  0  0  0  0
    4.8000    1.1770   21.8240 C   0  0  0  0  0  0  0  0  0  0  0  0
    6.1990    0.5850   17.6490 N   0  0  0  0  0  0  0  0  0  0  0  0
    4.7090    1.6430   19.2260 C   0  0  0  0  0  0  0  0  0  0  0  0
   10.1210   -0.9030   23.3090 C   0  0  0  0  0  0  0  0  0  0  0  0
    3.7770    0.1180   22.2650 C   0  0  0  0  0  0  0  0  0  0  0  0
    5.1800    1.4490   17.8340 C   0  0  0  0  0  0  0  0  0  0  0  0
   10.6220   -0.4570   24.5460 C   0  0  0  0  0  0  0  0  0  0  0  0
   11.0330   -1.1990   22.3470 C   0  0  0  0  0  0  0  0  0  0  0  0
    3.3530    0.3670   23.5850 C   0  0  0  0  0  0  0  0  0  0  0  0
   12.0970   -0.3530   24.6900 C   0  0  0  0  0  0  0  0  0  0  0  0
   12.3620   -1.0820   22.5210 C   0  0  0  0  0  0  0  0  0  0  0  0
   13.2240   -1.3830   21.4990 C   0  0  0  0  0  0  0  0  0  0  0  0
    4.1320   -0.2960   24.5340 C   0  0  0  0  0  0  0  0  0  0  0  0
   12.8990   -0.6830   23.6240 C   0  0  0  0  0  0  0  0  0  0  0  0
   13.9640   -1.5100   20.4450 N   0  0  0  0  0  0  0  0  0  0  0  0
    3.4110   -0.6000   25.4990 O   0  0  0  0  0  0  0  0  0  0  0  0
    3.1210   -1.9120   25.7180 C   0  0  0  0  0  0  0  0  0  0  0  0
    4.0450   -2.9360   25.6740 C   0  0  0  0  0  0  0  0  0  0  0  0
    1.7390   -2.1270   26.0010 C   0  0  0  0  0  0  0  0  0  0  0  0
    3.5820   -4.2850   25.9210 C   0  0  0  0  0  0  0  0  0  0  0  0
    1.2130   -3.5260   26.2710 C   0  0  0  0  0  0  0  0  0  0  0  0
    4.7730   -5.5350   25.8500 S   0  0  0  0  0  0  0  0  0  0  0  0
    2.1060   -4.5690   26.2300 C   0  0  0  0  0  0  0  0  0  0  0  0
    4.0920   -6.7960   25.9650 O   0  0  0  0  0  0  0  0  0  0  0  0
    5.8100   -5.1750   26.7910 O   0  0  0  0  0  0  0  0  0  0  0  0
    5.4220   -5.4900   24.2860 N   0  0  0  0  0  0  0  0  0  0  0  0
    4.7570   -6.1780   23.1680 C   0  0  0  0  0  0  0  0  0  0  0  0
    6.1700   -4.2980   23.9420 C   0  0  0  0  0  0  0  0  0  0  0  0
    5.6980   -6.3880   22.1520 C   0  0  0  0  0  0  0  0  0  0  0  0
    7.1320   -4.6210   22.9870 C   0  0  0  0  0  0  0  0  0  0  0  0
    6.5500   -5.2870   21.8200 N   0  0  0  0  0  0  0  0  0  0  0  0
    6.2850   -4.5950   20.6160 C   0  0  0  0  0  0  0  0  0  0  0  0
    5.2890   -4.8950   19.9770 O   0  0  0  0  0  0  0  0  0  0  0  0
    7.2090   -3.4790   20.1070 C   0  0  0  0  0  0  0  0  0  0  0  0
  1  2  1  0
  2  3  2  0
  1  4  1  0
  2  5  1  0
  4  6  1  0
  4  7  2  0
  5  8  1  1
  6  9  1  0
  7 10  1  0
  6 11  2  0
  5 12  1  0
  9 13  1  0
 10 14  2  0
 11 14  1  0
 12 15  2  0
 12 16  1  0
 13 17  1  0
 15 18  1  0
 16 19  2  0
 19 20  1  0
 17 21  1  0
 18 22  2  0
 19 22  1  0
 20 23  3  0
 21 24  1  0
 24 25  1  0
 25 26  2  0
 25 27  1  0
 26 28  1  0
 27 29  2  0
 30 28  1  0
 28 31  2  0
 29 31  1  0
 30 32  2  0
 30 33  2  0
 30 34  1  0
 34 35  1  0
 34 36  1  0
 35 37  1  0
 36 38  1  0
 37 39  1  0
 38 39  1  0
 39 40  1  0
 40 41  2  0
 40 42  1  0
M  END
