x2912-x1380
     RDKit          3D

 39 43  0  0  0  0  0  0  0  0999 V2000
    6.9860   -0.3230   21.0700 N   0  0  0  0  0  0  0  0  0  0  0  0
    8.2430    0.1630   21.5710 C   0  0  0  0  0  0  0  0  0  0  0  0
    8.7660    1.2490   21.2420 O   0  0  0  0  0  0  0  0  0  0  0  0
    6.3370    0.3030   19.9640 C   0  0  0  0  0  0  0  0  0  0  0  0
    8.8730   -0.8090   22.5170 C   0  0  2  0  0  0  0  0  0  0  0  0
    5.2870    1.1220   20.2740 C   0  0  0  0  0  0  0  0  0  0  0  0
    6.7590    0.0920   18.7010 C   0  0  0  0  0  0  0  0  0  0  0  0
    8.3580   -0.8220   23.9660 C   0  0  0  0  0  0  0  0  0  0  0  0
    4.7850    1.3790   21.6740 C   0  0  0  0  0  0  0  0  0  0  0  0
    6.1700    0.7020   17.5720 N   0  0  0  0  0  0  0  0  0  0  0  0
    4.6340    1.7900   19.0860 C   0  0  0  0  0  0  0  0  0  0  0  0
   10.3620   -0.6130   22.5840 C   0  0  0  0  0  0  0  0  0  0  0  0
    7.7070   -2.1120   24.4310 C   0  0  1  0  0  0  0  0  0  0  0  0
    5.1260    1.5530   17.6980 C   0  0  0  0  0  0  0  0  0  0  0  0
   10.9230    0.4820   23.2030 C   0  0  0  0  0  0  0  0  0  0  0  0
   11.1170   -1.5460   21.9930 C   0  0  0  0  0  0  0  0  0  0  0  0
    6.7770   -1.9830   25.4600 C   0  0  0  0  0  0  0  0  0  0  0  0
   12.3940    0.6950   23.2700 C   0  0  0  0  0  0  0  0  0  0  0  0
   12.4410   -1.3670   22.0280 C   0  0  0  0  0  0  0  0  0  0  0  0
    6.8070   -2.7380   23.3260 C   0  0  2  0  0  0  0  0  0  0  0  0
   13.1560   -2.3650   21.3630 C   0  0  0  0  0  0  0  0  0  0  0  0
    5.9410   -3.3120   25.4600 C   0  0  2  0  0  0  0  0  0  0  0  0
   13.0340   -0.3480   22.6130 C   0  0  0  0  0  0  0  0  0  0  0  0
    6.4600   -3.8250   24.0990 C   0  0  1  0  0  0  0  0  0  0  0  0
    7.5060   -3.1800   22.2410 C   0  0  0  0  0  0  0  0  0  0  0  0
   13.6540   -3.3710   20.6370 N   0  0  0  0  0  0  0  0  0  0  0  0
    4.6250   -2.9340   25.4040 O   0  0  0  0  0  0  0  0  0  0  0  0
    6.7400   -4.3190   21.6910 N   0  0  0  0  0  0  0  0  0  0  0  0
    5.4530   -4.5320   23.4290 C   0  0  0  0  0  0  0  0  0  0  0  0
    6.3770   -3.9770   26.5460 N   0  0  0  0  0  0  0  0  0  0  0  0
    6.2530   -4.2000   20.3740 C   0  0  0  0  0  0  0  0  0  0  0  0
    6.3100   -5.2510   22.5620 C   0  0  0  0  0  0  0  0  0  0  0  0
    7.8140   -4.1770   26.8110 C   0  0  0  0  0  0  0  0  0  0  0  0
    5.6690   -3.8130   27.8490 C   0  0  0  0  0  0  0  0  0  0  0  0
    7.0120   -3.3290   19.3760 C   0  0  0  0  0  0  0  0  0  0  0  0
    5.2820   -4.8330   19.9820 O   0  0  0  0  0  0  0  0  0  0  0  0
    7.9540   -5.3200   27.5970 C   0  0  0  0  0  0  0  0  0  0  0  0
    5.7470   -5.1470   28.6030 C   0  0  0  0  0  0  0  0  0  0  0  0
    7.1150   -5.4080   28.7050 C   0  0  0  0  0  0  0  0  0  0  0  0
  1  2  1  0
  2  3  2  0
  1  4  1  0
  2  5  1  0
  4  6  2  0
  4  7  1  0
  5  8  1  1
  6  9  1  0
  7 10  2  0
  6 11  1  0
  5 12  1  0
 13  8  1  6
 10 14  1  0
 11 14  2  0
 12 15  2  0
 12 16  1  0
 13 17  1  0
 15 18  1  0
 16 19  2  0
 13 20  1  0
 19 21  1  0
 17 22  1  0
 18 23  2  0
 19 23  1  0
 20 24  1  0
 22 24  1  0
 20 25  1  6
 21 26  3  0
 22 27  1  6
 25 28  1  0
 24 29  1  6
 22 30  1  0
 28 31  1  0
 28 32  1  0
 29 32  1  0
 30 33  1  0
 30 34  1  0
 31 35  1  0
 31 36  2  0
 33 37  1  0
 34 38  1  0
 37 39  1  0
 38 39  1  0
M  END
