x2912-x2581
     RDKit          3D

 39 44  0  0  0  0  0  0  0  0999 V2000
    7.3270   -0.1250   21.2830 N   0  0  0  0  0  0  0  0  0  0  0  0
    7.5300   -1.4750   21.7140 C   0  0  0  0  0  0  0  0  0  0  0  0
    8.1110   -1.4810   23.1280 C   0  0  0  0  0  0  0  0  0  0  0  0
    6.5130    0.3920   20.2270 C   0  0  0  0  0  0  0  0  0  0  0  0
    8.4780    0.5520   21.9060 C   0  0  1  0  0  0  0  0  0  0  0  0
    5.3200    1.2260   20.3510 C   0  0  0  0  0  0  0  0  0  0  0  0
    6.9840   -0.0020   18.9820 C   0  0  0  0  0  0  0  0  0  0  0  0
    8.5590    1.8360   22.0800 N   0  0  0  0  0  0  0  0  0  0  0  0
    8.9330   -0.1800   23.0050 C   0  0  2  0  0  0  0  0  0  0  0  0
    7.0430   -1.4140   24.2390 C   0  0  0  0  0  0  0  0  0  0  0  0
    4.8130    1.6340   21.7760 C   0  0  0  0  0  0  0  0  0  0  0  0
    8.9960   -2.6460   23.4470 C   0  0  0  0  0  0  0  0  0  0  0  0
    6.3710    0.3830   17.8530 N   0  0  0  0  0  0  0  0  0  0  0  0
    4.7060    1.6070   19.1720 C   0  0  0  0  0  0  0  0  0  0  0  0
   10.5230   -0.1080   23.1450 C   0  0  1  0  0  0  0  0  0  0  0  0
    9.8470    2.2400   22.3280 C   0  0  1  0  0  0  0  0  0  0  0  0
   10.0010    3.5090   23.0250 N   0  0  0  0  0  0  0  0  0  0  0  0
    5.2700    1.1640   17.9820 C   0  0  0  0  0  0  0  0  0  0  0  0
   10.8690   -0.1840   24.4810 C   0  0  0  0  0  0  0  0  0  0  0  0
   11.1920   -0.9670   22.3960 C   0  0  0  0  0  0  0  0  0  0  0  0
   10.8950    1.3860   22.7940 C   0  0  0  0  0  0  0  0  0  0  0  0
   11.3900    3.9520   23.0720 C   0  0  0  0  0  0  0  0  0  0  0  0
   12.1940   -0.5010   24.7130 C   0  0  0  0  0  0  0  0  0  0  0  0
   12.5930   -0.8560   22.3560 C   0  0  2  0  0  0  0  0  0  0  0  0
   13.0670   -1.9210   21.5510 C   0  0  0  0  0  0  0  0  0  0  0  0
   12.3250    3.2760   23.4020 O   0  0  0  0  0  0  0  0  0  0  0  0
   11.7390    5.2380   22.6660 C   0  0  0  0  0  0  0  0  0  0  0  0
   13.1170   -0.7370   23.6340 C   0  0  0  0  0  0  0  0  0  0  0  0
   13.4040   -2.9580   20.7770 N   0  0  0  0  0  0  0  0  0  0  0  0
   11.0040    6.3780   23.3000 C   0  0  0  0  0  0  0  0  0  0  0  0
    9.7600    6.7630   22.7840 C   0  0  0  0  0  0  0  0  0  0  0  0
   11.5500    7.0660   24.4000 C   0  0  0  0  0  0  0  0  0  0  0  0
    9.0010    7.9290   23.4110 C   0  0  0  0  0  0  0  0  0  0  0  0
   10.8810    8.1550   25.0070 C   0  0  0  0  0  0  0  0  0  0  0  0
    9.5150    8.6150   24.4710 C   0  0  0  0  0  0  0  0  0  0  0  0
   11.4110    8.8650   26.0970 C   0  0  0  0  0  0  0  0  0  0  0  0
    8.8850    9.7000   25.0820 C   0  0  0  0  0  0  0  0  0  0  0  0
   10.7030    9.9390   26.6400 C   0  0  0  0  0  0  0  0  0  0  0  0
    9.4650   10.3650   26.1570 C   0  0  0  0  0  0  0  0  0  0  0  0
  1  2  1  0
  2  3  1  0
  1  4  1  0
  1  5  1  0
  4  6  2  0
  4  7  1  0
  5  8  1  1
  9  3  1  6
  5  9  1  0
  3 10  1  0
  6 11  1  0
  3 12  1  0
  7 13  2  0
  6 14  1  0
  9 15  1  0
  8 16  1  0
 16 17  1  1
 13 18  1  0
 14 18  2  0
 15 19  1  1
 15 20  1  0
 15 21  1  0
 16 21  1  0
 17 22  1  0
 19 23  2  0
 20 24  1  0
 24 25  1  1
 22 26  2  0
 22 27  1  0
 23 28  1  0
 24 28  1  0
 25 29  3  0
 27 30  1  0
 30 31  2  0
 30 32  1  0
 31 33  1  0
 32 34  2  0
 33 35  2  0
 34 35  1  0
 34 36  1  0
 35 37  1  0
 36 38  2  0
 37 39  2  0
 38 39  1  0
M  END
