x2912-x2581-x2754
     RDKit          3D

 59 66  0  0  0  0  0  0  0  0999 V2000
    7.2910    0.0190   21.3480 N   0  0  0  0  0  0  0  0  0  0  0  0
    7.7790   -1.3670   21.3660 C   0  0  0  0  0  0  0  0  0  0  0  0
    8.3250   -1.4920   22.6320 C   0  0  1  0  0  0  0  0  0  0  0  0
    6.5410    0.4350   20.2690 C   0  0  0  0  0  0  0  0  0  0  0  0
    8.4530    0.5880   21.7120 C   0  0  1  0  0  0  0  0  0  0  0  0
    5.3880    1.2070   20.4060 C   0  0  0  0  0  0  0  0  0  0  0  0
    6.9470    0.0580   18.8460 C   0  0  0  0  0  0  0  0  0  0  0  0
    8.5910    1.6380   22.5870 N   0  0  0  0  0  0  0  0  0  0  0  0
    9.3160   -0.4000   22.1900 C   0  0  1  0  0  0  0  0  0  0  0  0
    7.1670   -1.0960   23.5340 C   0  0  0  0  0  0  0  0  0  0  0  0
    4.9080    1.6020   21.6920 C   0  0  0  0  0  0  0  0  0  0  0  0
    9.1140   -2.7560   22.9670 C   0  0  0  0  0  0  0  0  0  0  0  0
    6.2700    0.4430   17.7220 N   0  0  0  0  0  0  0  0  0  0  0  0
    4.7290    1.5760   19.2560 C   0  0  0  0  0  0  0  0  0  0  0  0
   10.4820   -0.1490   22.9230 C   0  0  1  0  0  0  0  0  0  0  0  0
    9.9170    2.1100   22.2520 C   0  0  1  0  0  0  0  0  0  0  0  0
   10.0090    3.5570   22.4340 N   0  0  0  0  0  0  0  0  0  0  0  0
    5.9780   -1.8930   23.0040 C   0  0  0  0  0  0  0  0  0  0  0  0
    5.1780    1.2010   18.0090 C   0  0  0  0  0  0  0  0  0  0  0  0
   10.5200   -0.2030   24.2950 C   0  0  0  0  0  0  0  0  0  0  0  0
   11.2450   -1.1600   22.3340 C   0  0  0  0  0  0  0  0  0  0  0  0
   10.9780    1.2820   22.6910 C   0  0  0  0  0  0  0  0  0  0  0  0
   10.9840    4.0040   23.2740 C   0  0  0  0  0  0  0  0  0  0  0  0
   11.8000   -0.3390   24.7980 C   0  0  0  0  0  0  0  0  0  0  0  0
   12.5490   -1.3010   22.7330 C   0  0  1  0  0  0  0  0  0  0  0  0
    6.3860   -3.3710   22.6660 C   0  0  2  0  0  0  0  0  0  0  0  0
   13.3790   -1.2630   21.5440 C   0  0  0  0  0  0  0  0  0  0  0  0
   11.1760    3.4330   24.3030 O   0  0  0  0  0  0  0  0  0  0  0  0
   11.6980    5.1390   22.8780 C   0  0  0  0  0  0  0  0  0  0  0  0
   12.9620   -0.4240   23.7200 C   0  0  0  0  0  0  0  0  0  0  0  0
    5.6200   -4.0160   21.7510 N   0  0  0  0  0  0  0  0  0  0  0  0
    6.5580   -3.9260   23.8660 C   0  0  0  0  0  0  0  0  0  0  0  0
   14.0570   -1.1920   20.2570 N   0  0  0  0  0  0  0  0  0  0  0  0
    5.8820   -4.2600   20.3960 C   0  0  0  0  0  0  0  0  0  0  0  0
   10.9820    6.3330   23.4250 C   0  0  0  0  0  0  0  0  0  0  0  0
    5.4780   -4.4310   24.6170 C   0  0  1  0  0  0  0  0  0  0  0  0
    5.1930   -5.2610   22.3780 C   0  0  0  0  0  0  0  0  0  0  0  0
    4.9160   -3.2680   25.4580 C   0  0  0  0  0  0  0  0  0  0  0  0
    5.4250   -5.2970   19.9840 O   0  0  0  0  0  0  0  0  0  0  0  0
    6.6840   -3.3670   19.4150 C   0  0  0  0  0  0  0  0  0  0  0  0
    9.7630    6.6850   22.8480 C   0  0  0  0  0  0  0  0  0  0  0  0
   11.5010    7.0740   24.4920 C   0  0  0  0  0  0  0  0  0  0  0  0
    4.4380   -4.9030   23.6270 C   0  0  0  0  0  0  0  0  0  0  0  0
    3.7940   -2.8090   25.2290 O   0  0  0  0  0  0  0  0  0  0  0  0
    5.7190   -2.8210   26.4460 N   0  0  0  0  0  0  0  0  0  0  0  0
    8.9670    7.9000   23.3820 C   0  0  0  0  0  0  0  0  0  0  0  0
   10.8400    8.1770   25.0170 C   0  0  0  0  0  0  0  0  0  0  0  0
    4.9420   -2.3010   27.5600 C   0  0  0  0  0  0  0  0  0  0  0  0
    9.5900    8.5530   24.4410 C   0  0  0  0  0  0  0  0  0  0  0  0
   11.4070    8.9020   26.0920 C   0  0  0  0  0  0  0  0  0  0  0  0
    6.9280   -3.4990   26.7710 C   0  0  0  0  0  0  0  0  0  0  0  0
    8.9940    9.8110   25.1390 C   0  0  0  0  0  0  0  0  0  0  0  0
   10.8100   10.0200   26.6630 C   0  0  0  0  0  0  0  0  0  0  0  0
    6.9600   -4.6990   27.7190 C   0  0  0  0  0  0  0  0  0  0  0  0
    8.2520   -3.0670   26.1750 C   0  0  0  0  0  0  0  0  0  0  0  0
    9.5980   10.4660   26.1740 C   0  0  0  0  0  0  0  0  0  0  0  0
    8.3250   -5.3040   27.9440 C   0  0  0  0  0  0  0  0  0  0  0  0
    9.4650   -3.6880   26.4410 C   0  0  0  0  0  0  0  0  0  0  0  0
    9.4580   -4.7910   27.3230 C   0  0  0  0  0  0  0  0  0  0  0  0
  1  2  1  0
  2  3  1  0
  1  4  1  0
  1  5  1  0
  4  6  2  0
  4  7  1  0
  5  8  1  1
  9  3  1  1
  5  9  1  0
  3 10  1  0
  6 11  1  0
  3 12  1  1
  7 13  2  0
  6 14  1  0
  9 15  1  0
  8 16  1  0
 16 17  1  1
 10 18  1  0
 13 19  1  0
 14 19  2  0
 15 20  1  1
 15 21  1  0
 15 22  1  0
 16 22  1  0
 17 23  1  0
 20 24  2  0
 21 25  1  0
 26 18  1  1
 25 27  1  6
 23 28  2  0
 23 29  1  0
 24 30  1  0
 25 30  1  0
 26 31  1  0
 26 32  1  0
 27 33  3  0
 31 34  1  0
 29 35  1  0
 32 36  1  0
 31 37  1  0
 36 38  1  1
 34 39  2  0
 34 40  1  0
 35 41  2  0
 35 42  1  0
 36 43  1  0
 37 43  1  0
 38 44  2  0
 38 45  1  0
 41 46  1  0
 42 47  2  0
 45 48  1  0
 46 49  2  0
 47 49  1  0
 47 50  1  0
 45 51  1  0
 49 52  1  0
 50 53  2  0
 51 54  2  0
 51 55  1  0
 52 56  2  0
 53 56  1  0
 54 57  1  0
 55 58  2  0
 57 59  2  0
 58 59  1  0
M  END
