x2929-x3110
     RDKit          3D

 59 63  0  0  0  0  0  0  0  0999 V2000
    8.0090    1.0830   23.2430 N   0  0  0  0  0  0  0  0  0  0  0  0
    8.7560    2.2860   23.4810 C   0  0  0  0  0  0  0  0  0  0  0  0
   10.2050    2.1410   23.3880 C   0  0  0  0  0  0  0  0  0  0  0  0
    7.7490    0.7940   21.8340 C   0  0  0  0  0  0  0  0  0  0  0  0
    8.3770    1.3990   20.9360 O   0  0  0  0  0  0  0  0  0  0  0  0
    6.7190   -0.2050   21.5330 C   0  0  2  0  0  0  0  0  0  0  0  0
    6.9500   -1.6370   21.7060 N   0  0  0  0  0  0  0  0  0  0  0  0
   10.9380    3.3370   23.2650 C   0  0  0  0  0  0  0  0  0  0  0  0
    6.1990    0.2610   20.1950 C   0  0  0  0  0  0  0  0  0  0  0  0
   11.6140    3.3580   22.2330 O   0  0  0  0  0  0  0  0  0  0  0  0
   10.9130    4.2560   24.0800 O   0  0  0  0  0  0  0  0  0  0  0  0
    6.0810   -2.7850   21.2420 C   0  0  0  0  0  0  0  0  0  0  0  0
    5.0530    1.0640   20.2250 C   0  0  0  0  0  0  0  0  0  0  0  0
    6.8300   -0.0580   18.9910 C   0  0  0  0  0  0  0  0  0  0  0  0
    8.2660   -1.7930   22.3070 C   0  0  0  0  0  0  0  0  0  0  0  0
   12.4810    4.4940   21.9660 C   0  0  0  0  0  0  0  0  0  0  0  0
    4.7880   -3.0130   21.3340 O   0  0  0  0  0  0  0  0  0  0  0  0
    6.7230   -3.9420   20.5340 C   0  0  0  0  0  0  0  0  0  0  0  0
    6.3110    0.4610   17.7260 N   0  0  0  0  0  0  0  0  0  0  0  0
    4.5190    1.5750   19.0610 C   0  0  0  0  0  0  0  0  0  0  0  0
    9.3560   -1.1100   21.7740 C   0  0  0  0  0  0  0  0  0  0  0  0
    8.5050   -2.6550   23.5160 C   0  0  0  0  0  0  0  0  0  0  0  0
   13.7300    4.2610   22.7780 C   0  0  0  0  0  0  0  0  0  0  0  0
    8.2050   -3.6760   20.3130 C   0  0  0  0  0  0  0  0  0  0  0  0
    5.2100    1.2440   17.7550 C   0  0  0  0  0  0  0  0  0  0  0  0
   10.8150   -1.1310   22.3490 C   0  0  0  0  0  0  0  0  0  0  0  0
    9.8060   -2.7060   24.0590 C   0  0  0  0  0  0  0  0  0  0  0  0
   15.0490    4.9350   22.2870 C   0  0  0  0  0  0  0  0  0  0  0  0
   11.0550   -1.9600   23.5700 C   0  0  0  0  0  0  0  0  0  0  0  0
   12.4590   -1.9560   24.1630 C   0  0  0  0  0  0  0  0  0  0  0  0
   16.2700    4.2100   22.4110 C   0  0  0  0  0  0  0  0  0  0  0  0
   12.6120   -0.7480   24.8680 C   0  0  0  0  0  0  0  0  0  0  0  0
   13.4240   -1.9960   23.0100 C   0  0  0  0  0  0  0  0  0  0  0  0
   12.8330   -3.0180   25.0390 C   0  0  0  0  0  0  0  0  0  0  0  0
   17.2170    4.6620   23.4080 C   0  0  0  0  0  0  0  0  0  0  0  0
   18.5460    4.9670   22.9310 C   0  0  0  0  0  0  0  0  0  0  0  0
   19.5830    4.6780   24.0390 C   0  0  0  0  0  0  0  0  0  0  0  0
   20.9990    5.0630   23.6600 C   0  0  0  0  0  0  0  0  0  0  0  0
   21.8020    4.2490   24.4030 N   0  0  0  0  0  0  0  0  0  0  0  0
   23.2620    4.4990   24.4300 C   0  0  0  0  0  0  0  0  0  0  0  0
   23.8220    5.5470   23.7580 N   0  0  0  0  0  0  0  0  0  0  0  0
   24.2330    3.5460   25.1790 C   0  0  2  0  0  0  0  0  0  0  0  0
   23.9090    2.0660   24.7910 C   0  0  0  0  0  0  0  0  0  0  0  0
   24.2930    3.6450   26.5180 C   0  0  1  0  0  0  0  0  0  0  0  0
   24.8050    1.3690   25.7200 N   0  0  0  0  0  0  0  0  0  0  0  0
   24.6770    2.1980   26.9470 C   0  0  0  0  0  0  0  0  0  0  0  0
   25.1570    4.7030   27.1760 C   0  0  0  0  0  0  0  0  0  0  0  0
   24.5850   -0.0680   26.0150 C   0  0  0  0  0  0  0  0  0  0  0  0
   25.1820    4.7340   28.5840 C   0  0  0  0  0  0  0  0  0  0  0  0
   25.9230    5.6410   26.4760 C   0  0  0  0  0  0  0  0  0  0  0  0
   23.4450   -0.8140   25.3790 C   0  0  0  0  0  0  0  0  0  0  0  0
   25.9470    5.6730   29.2760 C   0  0  0  0  0  0  0  0  0  0  0  0
   26.6910    6.5840   27.1710 C   0  0  0  0  0  0  0  0  0  0  0  0
   22.1780   -1.0890   26.1440 C   0  0  0  0  0  0  0  0  0  0  0  0
   23.4760   -1.3570   23.9510 C   0  0  0  0  0  0  0  0  0  0  0  0
   26.7030    6.5990   28.5640 C   0  0  0  0  0  0  0  0  0  0  0  0
   21.1390   -1.7650   25.6230 N   0  0  0  0  0  0  0  0  0  0  0  0
   22.3720   -2.0430   23.5000 C   0  0  0  0  0  0  0  0  0  0  0  0
   21.2660   -2.2130   24.3460 C   0  0  0  0  0  0  0  0  0  0  0  0
  1  2  1  0
  2  3  1  0
  1  4  1  0
  4  5  2  0
  6  4  1  6
  6  7  1  0
  3  8  1  0
  6  9  1  0
  8 10  1  0
  8 11  2  0
  7 12  1  0
  9 13  2  0
  9 14  1  0
  7 15  1  0
 10 16  1  0
 12 17  2  0
 12 18  1  0
 14 19  2  0
 13 20  1  0
 15 21  2  0
 15 22  1  0
 16 23  1  0
 18 24  1  0
 19 25  1  0
 20 25  2  0
 21 26  1  0
 22 27  2  0
 23 28  1  0
 26 29  2  0
 27 29  1  0
 29 30  1  0
 28 31  1  0
 30 32  1  0
 30 33  1  0
 30 34  1  0
 31 35  1  0
 35 36  1  0
 36 37  1  0
 37 38  1  0
 38 39  1  0
 39 40  2  3
 40 41  1  0
 42 40  1  1
 42 43  1  0
 42 44  1  0
 43 45  1  0
 44 46  1  0
 45 46  1  0
 44 47  1  6
 45 48  1  0
 47 49  2  0
 47 50  1  0
 48 51  1  0
 49 52  1  0
 50 53  2  0
 51 54  2  0
 51 55  1  0
 52 56  2  0
 53 56  1  0
 54 57  1  0
 55 58  2  0
 57 59  2  0
 58 59  1  0
M  END
