x2964-x2776
     RDKit          3D

 43 46  0  0  0  0  0  0  0  0999 V2000
    6.9320   -1.6530   21.5840 N   0  0  0  0  0  0  0  0  0  0  0  0
    6.0160   -2.8030   21.3830 C   0  0  0  0  0  0  0  0  0  0  0  0
    4.8010   -2.9200   20.9790 O   0  0  0  0  0  0  0  0  0  0  0  0
    6.6990   -0.1110   21.5150 C   0  0  1  0  0  0  0  0  0  0  0  0
    8.0130   -1.9670   22.4590 C   0  0  0  0  0  0  0  0  0  0  0  0
    6.6090   -4.1560   21.6980 C   0  0  0  0  0  0  0  0  0  0  0  0
    7.9560    0.8680   21.8300 C   0  0  2  0  0  0  0  0  0  0  0  0
    6.2010    0.3340   20.1620 C   0  0  0  0  0  0  0  0  0  0  0  0
    9.2020   -2.5680   22.0340 C   0  0  0  0  0  0  0  0  0  0  0  0
    7.8750   -1.6530   23.8020 C   0  0  0  0  0  0  0  0  0  0  0  0
    6.6250   -4.9630   20.4140 C   0  0  0  0  0  0  0  0  0  0  0  0
    7.5900    1.9580   22.6450 N   0  0  0  0  0  0  0  0  0  0  0  0
    8.6510    1.1370   20.8690 O   0  0  0  0  0  0  0  0  0  0  0  0
    8.8710    0.2560   22.7550 N   0  0  0  0  0  0  0  0  0  0  0  0
    5.0490    1.1130   20.1260 C   0  0  0  0  0  0  0  0  0  0  0  0
    6.8510    0.0070   18.9730 C   0  0  0  0  0  0  0  0  0  0  0  0
   10.2130   -2.8370   22.9570 C   0  0  0  0  0  0  0  0  0  0  0  0
    8.8810   -1.9200   24.7000 C   0  0  0  0  0  0  0  0  0  0  0  0
    6.3720    0.4570   17.8060 N   0  0  0  0  0  0  0  0  0  0  0  0
    4.5670    1.5600   18.9280 C   0  0  0  0  0  0  0  0  0  0  0  0
    8.3380    3.1610   22.9430 C   0  0  0  0  0  0  0  0  0  0  0  0
   10.0630   -2.5210   24.2980 C   0  0  0  0  0  0  0  0  0  0  0  0
   10.2180   -0.2610   22.6090 C   0  0  0  0  0  0  0  0  0  0  0  0
    3.3520    2.3800   18.8950 N   0  0  0  0  0  0  0  0  0  0  0  0
    5.2530    1.2190   17.7940 C   0  0  0  0  0  0  0  0  0  0  0  0
    9.5920    3.1090   23.6150 C   0  0  0  0  0  0  0  0  0  0  0  0
    7.8680    4.4400   22.5860 C   0  0  0  0  0  0  0  0  0  0  0  0
   11.1870   -1.0140   21.9410 C   0  0  0  0  0  0  0  0  0  0  0  0
   10.3000    1.8780   24.0920 C   0  0  0  0  0  0  0  0  0  0  0  0
   10.2790    4.3110   23.8760 C   0  0  0  0  0  0  0  0  0  0  0  0
    8.5800    5.6410   22.8680 C   0  0  0  0  0  0  0  0  0  0  0  0
   12.4730   -1.1740   22.3380 C   0  0  1  0  0  0  0  0  0  0  0  0
   13.3680   -1.8620   20.9810 Cl  0  0  0  0  0  0  0  0  0  0  0  0
    9.8060    5.5650   23.5280 C   0  0  0  0  0  0  0  0  0  0  0  0
   11.4760    1.6010   23.5410 C   0  0  0  0  0  0  0  0  0  0  0  0
   13.0460    0.0030   22.6700 C   0  0  0  0  0  0  0  0  0  0  0  0
   10.6170    6.6270   23.8760 O   0  0  0  0  0  0  0  0  0  0  0  0
   12.4700    0.4870   23.7870 C   0  0  2  0  0  0  0  0  0  0  0  0
   11.7370    6.4160   24.7500 C   0  0  0  0  0  0  0  0  0  0  0  0
   11.9760   -0.6550   24.6800 C   0  0  0  0  0  0  0  0  0  0  0  0
   13.0060   -1.5440   24.9740 C   0  0  0  0  0  0  0  0  0  0  0  0
   12.7430   -2.9450   24.9990 O   0  0  0  0  0  0  0  0  0  0  0  0
   13.4830   -3.5790   26.0140 C   0  0  0  0  0  0  0  0  0  0  0  0
  1  2  1  0
  2  3  2  0
  4  1  1  6
  1  5  1  0
  2  6  1  0
  4  7  1  0
  4  8  1  0
  5  9  2  0
  5 10  1  0
  6 11  1  0
  7 12  1  0
  7 13  1  6
  7 14  1  0
  8 15  2  0
  8 16  1  0
  9 17  1  0
 10 18  2  0
 16 19  2  0
 15 20  1  0
 12 21  1  0
 17 22  2  0
 18 22  1  0
 14 23  1  0
 20 24  1  0
 19 25  1  0
 20 25  2  0
 21 26  2  0
 21 27  1  0
 23 28  2  0
 26 29  1  0
 26 30  1  0
 27 31  2  0
 28 32  1  0
 32 33  1  6
 30 34  2  0
 31 34  1  0
 29 35  2  0
 32 36  1  0
 34 37  1  0
 35 38  1  0
 36 38  1  0
 37 39  1  0
 38 40  1  6
 40 41  1  0
 41 42  1  0
 42 43  1  0
M  END
