x2964-x1402
     RDKit          3D

 39 42  0  0  0  0  0  0  0  0999 V2000
    7.1960   -3.4230   19.8260 C   0  0  0  0  0  0  0  0  0  0  0  0
    6.3140   -4.4700   20.5610 C   0  0  0  0  0  0  0  0  0  0  0  0
    5.5320   -5.1920   19.9860 O   0  0  0  0  0  0  0  0  0  0  0  0
    6.2510   -4.6320   22.0870 C   0  0  0  0  0  0  0  0  0  0  0  0
    7.4500   -4.9210   22.7110 C   0  0  0  0  0  0  0  0  0  0  0  0
    5.3950   -5.7210   22.2680 C   0  0  0  0  0  0  0  0  0  0  0  0
    5.6360   -3.2770   22.5820 C   0  0  0  0  0  0  0  0  0  0  0  0
    7.1260   -4.9120   24.2470 C   0  0  0  0  0  0  0  0  0  0  0  0
    4.9870   -5.9680   23.5640 C   0  0  0  0  0  0  0  0  0  0  0  0
    6.5630   -2.0660   22.8160 C   0  0  0  0  0  0  0  0  0  0  0  0
    5.8860   -5.5600   24.5500 N   0  0  0  0  0  0  0  0  0  0  0  0
    6.1740   -0.9380   22.1070 C   0  0  0  0  0  0  0  0  0  0  0  0
    5.2340   -5.3690   25.9590 S   0  0  0  0  0  0  0  0  0  0  0  0
    7.0210   -0.3700   21.2130 N   0  0  0  0  0  0  0  0  0  0  0  0
    4.3360   -6.5040   26.0090 O   0  0  0  0  0  0  0  0  0  0  0  0
    6.3210   -5.1460   26.8760 O   0  0  0  0  0  0  0  0  0  0  0  0
    4.2120   -3.7890   25.9900 C   0  0  0  0  0  0  0  0  0  0  0  0
    8.1600    0.2150   21.6440 C   0  0  0  0  0  0  0  0  0  0  0  0
    6.3950    0.1660   20.0320 C   0  0  0  0  0  0  0  0  0  0  0  0
    2.5040   -3.9200   26.0720 S   0  0  0  0  0  0  0  0  0  0  0  0
    4.6230   -2.3140   25.9620 C   0  0  0  0  0  0  0  0  0  0  0  0
    8.5870    1.2680   21.1240 O   0  0  0  0  0  0  0  0  0  0  0  0
    8.9390   -0.3850   22.7420 N   0  0  0  0  0  0  0  0  0  0  0  0
    5.2190    0.8470   20.2110 C   0  0  0  0  0  0  0  0  0  0  0  0
    6.9590    0.0030   18.7770 C   0  0  0  0  0  0  0  0  0  0  0  0
    3.5670   -1.5020   26.0150 C   0  0  0  0  0  0  0  0  0  0  0  0
    2.3240   -2.2340   26.0870 C   0  0  0  0  0  0  0  0  0  0  0  0
    4.5610    1.4010   19.1440 C   0  0  0  0  0  0  0  0  0  0  0  0
    6.3500    0.5450   17.6820 N   0  0  0  0  0  0  0  0  0  0  0  0
   10.2380   -0.1670   22.8380 C   0  0  0  0  0  0  0  0  0  0  0  0
    0.7450   -1.5650   26.1870 Cl  0  0  0  0  0  0  0  0  0  0  0  0
    3.3250    2.1340   19.1530 N   0  0  0  0  0  0  0  0  0  0  0  0
    5.1800    1.2190   17.9320 C   0  0  0  0  0  0  0  0  0  0  0  0
   10.8170    0.8950   23.5580 C   0  0  0  0  0  0  0  0  0  0  0  0
   11.0420   -1.0590   22.1540 C   0  0  0  0  0  0  0  0  0  0  0  0
   12.1890    1.0620   23.5790 C   0  0  0  0  0  0  0  0  0  0  0  0
   12.4100   -0.8940   22.1710 C   0  0  0  0  0  0  0  0  0  0  0  0
   13.3330   -1.9730   21.3010 Cl  0  0  0  0  0  0  0  0  0  0  0  0
   12.9400    0.1580   22.8810 C   0  0  0  0  0  0  0  0  0  0  0  0
  1  2  1  0
  2  3  2  0
  4  2  1  0
  4  5  1  0
  4  6  1  0
  4  7  1  0
  5  8  1  0
  6  9  1  0
  7 10  1  0
  8 11  1  0
  9 11  1  0
 10 12  1  0
 11 13  1  0
 12 14  1  0
 13 15  2  0
 13 16  2  0
 13 17  1  0
 14 18  1  0
 14 19  1  0
 17 20  1  0
 17 21  2  0
 18 22  2  0
 18 23  1  0
 19 24  2  0
 19 25  1  0
 21 26  1  0
 20 27  1  0
 26 27  2  0
 24 28  1  0
 25 29  2  0
 23 30  1  0
 27 31  1  0
 28 32  1  0
 28 33  2  0
 29 33  1  0
 30 34  2  0
 30 35  1  0
 34 36  1  0
 35 37  2  0
 37 38  1  0
 36 39  2  0
 37 39  1  0
M  END
