x2964-x0771
     RDKit          3D

 40 43  0  0  0  0  0  0  0  0999 V2000
    0.6580   -1.3000   26.2230 C   0  0  0  0  0  0  0  0  0  0  0  0
    1.7370   -2.3820   26.1000 C   0  0  0  0  0  0  0  0  0  0  0  0
    3.0560   -2.1520   26.4610 C   0  0  0  0  0  0  0  0  0  0  0  0
    1.3480   -3.7690   25.5640 C   0  0  0  0  0  0  0  0  0  0  0  0
    2.4540   -4.8330   25.4710 C   0  0  0  0  0  0  0  0  0  0  0  0
    4.0500   -3.0540   26.3940 C   0  0  0  0  0  0  0  0  0  0  0  0
    2.0860   -6.1950   24.9530 C   0  0  0  0  0  0  0  0  0  0  0  0
    3.7510   -4.4810   25.8780 C   0  0  0  0  0  0  0  0  0  0  0  0
    5.0780   -5.5950   25.8410 S   0  0  0  0  0  0  0  0  0  0  0  0
    4.5290   -6.9340   25.7860 O   0  0  0  0  0  0  0  0  0  0  0  0
    6.0340   -5.2030   26.8460 O   0  0  0  0  0  0  0  0  0  0  0  0
    5.8500   -5.2750   24.3910 N   0  0  0  0  0  0  0  0  0  0  0  0
    5.5010   -5.9830   23.1550 C   0  0  0  0  0  0  0  0  0  0  0  0
    6.6840   -4.2470   24.2680 C   0  0  0  0  0  0  0  0  0  0  0  0
    5.1810   -4.9120   22.1210 C   0  0  0  0  0  0  0  0  0  0  0  0
    7.2130   -4.0600   22.8500 C   0  0  0  0  0  0  0  0  0  0  0  0
    6.1210   -3.8680   21.9870 C   0  0  0  0  0  0  0  0  0  0  0  0
    6.5860   -3.9000   20.5380 C   0  0  0  0  0  0  0  0  0  0  0  0
    5.4160   -2.4440   22.0780 C   0  0  0  0  0  0  0  0  0  0  0  0
    5.7330   -4.2570   19.7470 O   0  0  0  0  0  0  0  0  0  0  0  0
    8.0080   -3.4280   20.2200 C   0  0  0  0  0  0  0  0  0  0  0  0
    6.1870   -1.2100   22.3970 C   0  0  0  0  0  0  0  0  0  0  0  0
    7.0690   -0.6850   21.3020 N   0  0  0  0  0  0  0  0  0  0  0  0
    8.2120   -0.0200   21.7150 C   0  0  0  0  0  0  0  0  0  0  0  0
    6.3900   -0.0880   20.2070 C   0  0  0  0  0  0  0  0  0  0  0  0
    8.4640    1.1120   21.2850 O   0  0  0  0  0  0  0  0  0  0  0  0
    8.8910   -0.5750   22.4570 N   0  0  0  0  0  0  0  0  0  0  0  0
    5.1610    0.5900   20.3530 C   0  0  0  0  0  0  0  0  0  0  0  0
    6.9430   -0.1470   18.9310 C   0  0  0  0  0  0  0  0  0  0  0  0
    4.5610    1.1790   19.2160 C   0  0  0  0  0  0  0  0  0  0  0  0
    6.3380    0.4650   17.7470 N   0  0  0  0  0  0  0  0  0  0  0  0
   10.2380   -0.3240   22.5650 C   0  0  0  0  0  0  0  0  0  0  0  0
    3.3460    1.8620   19.2920 N   0  0  0  0  0  0  0  0  0  0  0  0
    5.1790    1.0950   17.9630 C   0  0  0  0  0  0  0  0  0  0  0  0
   10.8000    0.8370   23.1000 C   0  0  0  0  0  0  0  0  0  0  0  0
   11.0230   -1.3220   22.0840 C   0  0  0  0  0  0  0  0  0  0  0  0
   12.1840    0.9750   23.1510 C   0  0  0  0  0  0  0  0  0  0  0  0
   12.3840   -1.1750   22.1310 C   0  0  0  0  0  0  0  0  0  0  0  0
   13.2300   -2.4670   21.4800 Cl  0  0  0  0  0  0  0  0  0  0  0  0
   12.9910   -0.0360   22.6650 C   0  0  0  0  0  0  0  0  0  0  0  0
  1  2  1  0
  2  3  2  0
  2  4  1  0
  4  5  2  0
  3  6  1  0
  5  7  1  0
  5  8  1  0
  6  8  2  0
  9  8  1  0
  9 10  2  0
  9 11  2  0
  9 12  1  0
 12 13  1  0
 12 14  1  0
 13 15  1  0
 14 16  1  0
 15 17  1  0
 16 17  1  0
 17 18  1  0
 17 19  1  0
 18 20  2  0
 18 21  1  0
 19 22  1  0
 22 23  1  0
 23 24  1  0
 23 25  1  0
 24 26  2  0
 24 27  1  0
 25 28  2  0
 25 29  1  0
 28 30  1  0
 29 31  2  0
 27 32  1  0
 30 33  1  0
 30 34  2  0
 31 34  1  0
 32 35  2  0
 32 36  1  0
 35 37  1  0
 36 38  2  0
 38 39  1  0
 37 40  2  0
 38 40  1  0
M  END
