x2964-x1385
     RDKit          3D

 34 38  0  0  0  0  0  0  0  0999 V2000
    3.0980    2.2170   19.1510 N   0  0  0  0  0  0  0  0  0  0  0  0
    4.3830    1.5260   19.0590 C   0  0  0  0  0  0  0  0  0  0  0  0
    5.0930    1.3220   17.8750 C   0  0  0  0  0  0  0  0  0  0  0  0
    5.0640    0.9650   20.2790 C   0  0  0  0  0  0  0  0  0  0  0  0
    6.3810    0.2760   20.0420 C   0  0  0  0  0  0  0  0  0  0  0  0
    6.2900    0.6760   17.7250 N   0  0  0  0  0  0  0  0  0  0  0  0
    7.1210   -0.2710   21.1410 N   0  0  0  0  0  0  0  0  0  0  0  0
    6.9490    0.1430   18.7790 C   0  0  0  0  0  0  0  0  0  0  0  0
    8.2630    0.3540   21.6240 C   0  0  0  0  0  0  0  0  0  0  0  0
    7.6360   -1.5770   21.1340 C   0  0  2  0  0  0  0  0  0  0  0  0
    8.7440    1.6800   21.3180 O   0  0  0  0  0  0  0  0  0  0  0  0
    8.9200   -0.6320   22.4260 N   0  0  0  0  0  0  0  0  0  0  0  0
    6.6040   -2.6490   21.0110 N   0  0  0  0  0  0  0  0  0  0  0  0
    8.5530   -1.9080   22.1430 C   0  0  1  0  0  0  0  0  0  0  0  0
    6.4140   -3.3150   19.8180 C   0  0  0  0  0  0  0  0  0  0  0  0
   10.3200   -0.3940   22.6420 C   0  0  0  0  0  0  0  0  0  0  0  0
    6.1850   -3.2250   22.1850 C   0  0  0  0  0  0  0  0  0  0  0  0
    8.1300   -2.6770   23.3020 N   0  0  0  0  0  0  0  0  0  0  0  0
    7.4150   -3.0450   18.7050 C   0  0  0  0  0  0  0  0  0  0  0  0
    5.4730   -4.1080   19.7080 O   0  0  0  0  0  0  0  0  0  0  0  0
    9.2300   -3.0650   24.0480 C   0  0  0  0  0  0  0  0  0  0  0  0
   10.7530    0.6130   23.4910 C   0  0  0  0  0  0  0  0  0  0  0  0
   11.2320   -1.1390   21.9890 C   0  0  0  0  0  0  0  0  0  0  0  0
    7.2380   -3.6720   22.9880 C   0  0  0  0  0  0  0  0  0  0  0  0
   12.1330    0.9100   23.6990 C   0  0  0  0  0  0  0  0  0  0  0  0
   12.5290   -0.8840   22.1540 C   0  0  0  0  0  0  0  0  0  0  0  0
    8.9990   -4.1050   25.1050 C   0  0  0  0  0  0  0  0  0  0  0  0
   13.4520   -1.8910   21.2180 Cl  0  0  0  0  0  0  0  0  0  0  0  0
   13.0080    0.1070   22.9780 C   0  0  0  0  0  0  0  0  0  0  0  0
    9.6460   -5.3140   25.2600 C   0  0  0  0  0  0  0  0  0  0  0  0
    7.8160   -3.8710   26.3190 S   0  0  0  0  0  0  0  0  0  0  0  0
    8.1310   -5.3580   27.0510 C   0  0  0  0  0  0  0  0  0  0  0  0
    9.1430   -6.0840   26.4280 C   0  0  0  0  0  0  0  0  0  0  0  0
    7.1420   -5.9110   28.5730 Br  0  0  0  0  0  0  0  0  0  0  0  0
  1  2  1  0
  2  3  2  0
  2  4  1  0
  4  5  2  0
  3  6  1  0
  5  7  1  0
  5  8  1  0
  6  8  2  0
  7  9  1  0
 10  7  1  1
  9 11  2  0
  9 12  1  0
 10 13  1  0
 10 14  1  0
 14 12  1  1
 13 15  1  0
 12 16  1  0
 13 17  1  0
 14 18  1  0
 15 19  1  0
 15 20  2  0
 18 21  1  0
 16 22  2  0
 16 23  1  0
 17 24  1  0
 18 24  1  0
 22 25  1  0
 23 26  2  0
 21 27  1  0
 26 28  1  0
 25 29  2  0
 26 29  1  0
 27 30  2  0
 27 31  1  0
 31 32  1  0
 30 33  1  0
 32 33  2  0
 32 34  1  0
M  END
