x2964-x1380
     RDKit          3D

 36 39  0  0  0  0  0  0  0  0999 V2000
    3.3940    2.0720   19.9710 N   0  0  0  0  0  0  0  0  0  0  0  0
    4.5330    1.3610   19.4150 C   0  0  0  0  0  0  0  0  0  0  0  0
    5.0150    1.2150   18.1230 C   0  0  0  0  0  0  0  0  0  0  0  0
    5.4180    0.6370   20.2370 C   0  0  0  0  0  0  0  0  0  0  0  0
    6.6300   -0.2080   20.2860 C   0  0  0  0  0  0  0  0  0  0  0  0
    6.2500    0.3950   17.7940 N   0  0  0  0  0  0  0  0  0  0  0  0
    7.2430   -0.7630   21.5150 N   0  0  0  0  0  0  0  0  0  0  0  0
    7.0840   -0.3340   18.8180 C   0  0  0  0  0  0  0  0  0  0  0  0
    8.3450   -0.0610   21.9980 C   0  0  0  0  0  0  0  0  0  0  0  0
    6.3460   -1.4050   22.4210 C   0  0  0  0  0  0  0  0  0  0  0  0
    8.7510    0.9900   21.4880 O   0  0  0  0  0  0  0  0  0  0  0  0
    8.9570   -0.6910   23.1450 N   0  0  0  0  0  0  0  0  0  0  0  0
    6.9360   -2.6280   23.1840 C   0  0  1  0  0  0  0  0  0  0  0  0
   10.2810   -0.4060   23.0260 C   0  0  0  0  0  0  0  0  0  0  0  0
    5.8950   -3.4260   23.7860 C   0  0  2  0  0  0  0  0  0  0  0  0
    7.6510   -3.3460   22.2380 C   0  0  0  0  0  0  0  0  0  0  0  0
    5.8310   -2.9540   25.2320 C   0  0  0  0  0  0  0  0  0  0  0  0
   10.8320    0.7330   23.6000 C   0  0  0  0  0  0  0  0  0  0  0  0
   11.0800   -1.3770   22.2460 C   0  0  0  0  0  0  0  0  0  0  0  0
    6.9230   -4.3610   21.5920 N   0  0  0  0  0  0  0  0  0  0  0  0
    6.1870   -4.8160   23.7370 C   0  0  0  0  0  0  0  0  0  0  0  0
    6.3570   -4.1760   20.3200 C   0  0  0  0  0  0  0  0  0  0  0  0
    5.2370   -1.9090   25.4510 O   0  0  0  0  0  0  0  0  0  0  0  0
   12.1930    1.0830   23.5000 C   0  0  0  0  0  0  0  0  0  0  0  0
   12.3930   -1.1050   22.1140 C   0  0  0  0  0  0  0  0  0  0  0  0
    6.3020   -5.3550   22.4630 C   0  0  0  0  0  0  0  0  0  0  0  0
    6.3630   -3.6800   26.3130 N   0  0  0  0  0  0  0  0  0  0  0  0
   13.2660   -2.2240   21.2100 Cl  0  0  0  0  0  0  0  0  0  0  0  0
    7.1170   -3.2930   19.3480 C   0  0  0  0  0  0  0  0  0  0  0  0
    5.3300   -4.7520   19.9680 O   0  0  0  0  0  0  0  0  0  0  0  0
   12.9750    0.0320   22.6790 C   0  0  0  0  0  0  0  0  0  0  0  0
    7.8010   -3.9560   26.3650 C   0  0  0  0  0  0  0  0  0  0  0  0
    5.7860   -3.5840   27.6630 C   0  0  0  0  0  0  0  0  0  0  0  0
    8.0300   -5.0900   27.1630 C   0  0  0  0  0  0  0  0  0  0  0  0
    6.0830   -4.7520   28.3630 C   0  0  0  0  0  0  0  0  0  0  0  0
    7.4600   -4.9940   28.4260 C   0  0  0  0  0  0  0  0  0  0  0  0
  1  2  1  0
  2  3  2  0
  2  4  1  0
  4  5  2  0
  3  6  1  0
  5  7  1  0
  5  8  1  0
  6  8  2  0
  7  9  1  0
  7 10  1  0
  9 11  2  0
  9 12  1  0
 13 10  1  6
 12 14  1  0
 13 15  1  0
 13 16  1  0
 15 17  1  1
 14 18  2  0
 14 19  1  0
 16 20  1  0
 15 21  1  0
 20 22  1  0
 17 23  2  0
 18 24  1  0
 19 25  2  0
 20 26  1  0
 21 26  1  0
 17 27  1  0
 25 28  1  0
 22 29  1  0
 22 30  2  0
 24 31  2  0
 25 31  1  0
 27 32  1  0
 27 33  1  0
 32 34  1  0
 33 35  1  0
 34 36  1  0
 35 36  1  0
M  END
