x2964-x1392
     RDKit          3D

 31 35  0  0  0  0  0  0  0  0999 V2000
    3.3530    2.0310   19.6070 N   0  0  0  0  0  0  0  0  0  0  0  0
    4.5170    1.3920   19.2620 C   0  0  0  0  0  0  0  0  0  0  0  0
    5.0700    1.2770   17.9800 C   0  0  0  0  0  0  0  0  0  0  0  0
    5.2930    0.7460   20.3530 C   0  0  0  0  0  0  0  0  0  0  0  0
    6.5750    0.0430   19.9910 C   0  0  0  0  0  0  0  0  0  0  0  0
    6.2210    0.6300   17.6530 N   0  0  0  0  0  0  0  0  0  0  0  0
    7.4330   -0.5980   20.9550 N   0  0  0  0  0  0  0  0  0  0  0  0
    6.9500    0.0330   18.6190 C   0  0  0  0  0  0  0  0  0  0  0  0
    8.4510    0.0750   21.5620 C   0  0  0  0  0  0  0  0  0  0  0  0
    7.2730   -1.7760   21.7900 C   0  0  1  0  0  0  0  0  0  0  0  0
    8.8420    1.2280   21.2710 O   0  0  0  0  0  0  0  0  0  0  0  0
    9.0180   -0.7980   22.5810 N   0  0  0  0  0  0  0  0  0  0  0  0
    6.4950   -2.9420   21.4190 N   0  0  0  0  0  0  0  0  0  0  0  0
    8.5570   -2.0520   22.1960 C   0  0  1  0  0  0  0  0  0  0  0  0
    6.3780   -3.4330   20.0920 C   0  0  0  0  0  0  0  0  0  0  0  0
   10.3040   -0.4900   22.7270 C   0  0  0  0  0  0  0  0  0  0  0  0
    8.5900   -2.9950   23.2470 C   0  0  0  0  0  0  0  0  0  0  0  0
    6.2200   -3.6970   22.4900 C   0  0  0  0  0  0  0  0  0  0  0  0
    5.4650   -4.2260   19.8200 O   0  0  0  0  0  0  0  0  0  0  0  0
    7.3960   -3.0210   19.0300 C   0  0  0  0  0  0  0  0  0  0  0  0
   10.6800    0.5730   23.5390 C   0  0  0  0  0  0  0  0  0  0  0  0
   11.2250   -1.2340   22.0330 C   0  0  0  0  0  0  0  0  0  0  0  0
    7.3180   -3.8710   23.3890 C   0  0  0  0  0  0  0  0  0  0  0  0
    9.7230   -3.2320   24.2290 C   0  0  0  0  0  0  0  0  0  0  0  0
   12.1420    0.9240   23.6390 C   0  0  0  0  0  0  0  0  0  0  0  0
   12.4970   -0.9470   22.1020 C   0  0  0  0  0  0  0  0  0  0  0  0
    7.2560   -4.8180   24.3910 C   0  0  0  0  0  0  0  0  0  0  0  0
    9.4670   -4.2490   25.1820 C   0  0  0  0  0  0  0  0  0  0  0  0
   13.4300   -1.9370   21.1510 Cl  0  0  0  0  0  0  0  0  0  0  0  0
   13.0550    0.1940   22.9390 C   0  0  0  0  0  0  0  0  0  0  0  0
    8.2970   -5.0180   25.2790 C   0  0  0  0  0  0  0  0  0  0  0  0
  1  2  1  0
  2  3  2  0
  2  4  1  0
  4  5  2  0
  3  6  1  0
  5  7  1  0
  5  8  1  0
  6  8  2  0
  7  9  1  0
 10  7  1  6
  9 11  2  0
  9 12  1  0
 10 13  1  0
 10 14  1  0
 14 12  1  1
 13 15  1  0
 12 16  1  0
 14 17  1  0
 13 18  1  0
 15 19  2  0
 15 20  1  0
 16 21  2  0
 16 22  1  0
 17 23  2  0
 18 23  1  0
 17 24  1  0
 21 25  1  0
 22 26  2  0
 23 27  1  0
 24 28  2  0
 26 29  1  0
 25 30  2  0
 26 30  1  0
 27 31  2  0
 28 31  1  0
M  END
