x2964-x1348
     RDKit          3D

 35 38  0  0  0  0  0  0  0  0999 V2000
    6.3410   -3.3600   21.4030 N   0  0  0  0  0  0  0  0  0  0  0  0
    6.1930   -3.7240   20.0940 C   0  0  0  0  0  0  0  0  0  0  0  0
    5.3230   -4.5340   19.8380 O   0  0  0  0  0  0  0  0  0  0  0  0
    5.5810   -2.1100   21.5680 C   0  0  0  0  0  0  0  0  0  0  0  0
    6.0320   -4.2040   22.4540 C   0  0  0  0  0  0  0  0  0  0  0  0
    7.0680   -3.1050   19.0260 C   0  0  0  0  0  0  0  0  0  0  0  0
    6.3840   -0.9750   22.1860 C   0  0  0  0  0  0  0  0  0  0  0  0
    6.7350   -4.1050   23.7390 N   0  0  0  0  0  0  0  0  0  0  0  0
    4.7590   -5.4180   22.3840 S   0  0  0  0  0  0  0  0  0  0  0  0
    7.1240   -0.2180   21.1790 N   0  0  0  0  0  0  0  0  0  0  0  0
    6.2000   -5.0050   24.7630 C   0  0  0  0  0  0  0  0  0  0  0  0
    5.0960   -5.7200   23.9920 C   0  0  0  0  0  0  0  0  0  0  0  0
    8.2930    0.4530   21.7190 C   0  0  0  0  0  0  0  0  0  0  0  0
    6.5150   -5.2640   26.1940 C   0  0  0  0  0  0  0  0  0  0  0  0
    4.3470   -6.6390   24.6460 C   0  0  0  0  0  0  0  0  0  0  0  0
    6.4400    0.2800   20.1080 C   0  0  0  0  0  0  0  0  0  0  0  0
    7.5020   -4.6420   26.9130 O   0  0  0  0  0  0  0  0  0  0  0  0
    8.7180    1.4960   21.1770 O   0  0  0  0  0  0  0  0  0  0  0  0
    8.9310   -0.0400   22.7820 N   0  0  0  0  0  0  0  0  0  0  0  0
    4.6450   -6.8870   26.0730 C   0  0  0  0  0  0  0  0  0  0  0  0
    5.6840   -6.2130   26.7620 C   0  0  0  0  0  0  0  0  0  0  0  0
    5.2130    0.9560   20.2390 C   0  0  0  0  0  0  0  0  0  0  0  0
    6.9650    0.1260   18.8330 C   0  0  0  0  0  0  0  0  0  0  0  0
    7.9980   -5.3650   27.7870 C   0  0  0  0  0  0  0  0  0  0  0  0
    4.5580    1.4690   19.1070 C   0  0  0  0  0  0  0  0  0  0  0  0
    6.3380    0.6460   17.6290 N   0  0  0  0  0  0  0  0  0  0  0  0
   10.3060   -0.0520   22.8020 C   0  0  0  0  0  0  0  0  0  0  0  0
    3.3800    2.1140   19.1880 N   0  0  0  0  0  0  0  0  0  0  0  0
    5.1610    1.2990   17.8250 C   0  0  0  0  0  0  0  0  0  0  0  0
   10.9500    1.0170   23.4690 C   0  0  0  0  0  0  0  0  0  0  0  0
   11.0480   -1.0620   22.1740 C   0  0  0  0  0  0  0  0  0  0  0  0
   12.3270    1.0150   23.4570 C   0  0  0  0  0  0  0  0  0  0  0  0
   12.4220   -0.9990   22.2000 C   0  0  0  0  0  0  0  0  0  0  0  0
   13.2330   -2.2260   21.3960 Cl  0  0  0  0  0  0  0  0  0  0  0  0
   13.0470    0.0430   22.8430 C   0  0  0  0  0  0  0  0  0  0  0  0
  1  2  1  0
  2  3  2  0
  1  4  1  0
  1  5  1  0
  2  6  1  0
  4  7  1  0
  5  8  2  0
  5  9  1  0
  7 10  1  0
  8 11  1  0
  9 12  1  0
 11 12  2  0
 10 13  1  0
 11 14  1  0
 12 15  1  0
 10 16  1  0
 14 17  1  0
 13 18  2  0
 13 19  1  0
 15 20  2  0
 14 21  2  0
 20 21  1  0
 16 22  2  0
 16 23  1  0
 17 24  1  0
 22 25  1  0
 23 26  2  0
 19 27  1  0
 25 28  1  0
 25 29  2  0
 26 29  1  0
 27 30  2  0
 27 31  1  0
 30 32  1  0
 31 33  2  0
 33 34  1  0
 32 35  2  0
 33 35  1  0
M  END
