x2964-x3110
     RDKit          3D

 41 43  0  0  0  0  0  0  0  0999 V2000
    8.0690    1.5770   22.8940 N   0  0  0  0  0  0  0  0  0  0  0  0
    8.7150    2.7380   22.9190 C   0  0  0  0  0  0  0  0  0  0  0  0
    9.8990    2.7720   23.6820 C   0  0  2  0  0  0  0  0  0  0  0  0
    8.0900    0.6990   21.6990 C   0  0  2  0  0  0  0  0  0  0  0  0
    8.3610    1.3950   20.7200 O   0  0  0  0  0  0  0  0  0  0  0  0
    6.7970   -0.1110   21.6610 C   0  0  2  0  0  0  0  0  0  0  0  0
    9.1380   -0.0600   21.5940 N   0  0  0  0  0  0  0  0  0  0  0  0
    6.8390   -1.6360   21.8090 N   0  0  0  0  0  0  0  0  0  0  0  0
   10.8030    3.9540   23.4490 C   0  0  0  0  0  0  0  0  0  0  0  0
    6.1800    0.3360   20.3550 C   0  0  0  0  0  0  0  0  0  0  0  0
    9.2090   -1.3540   21.8620 C   0  0  0  0  0  0  0  0  0  0  0  0
   10.6770    1.5250   23.4950 C   0  0  0  0  0  0  0  0  0  0  0  0
   11.4370    3.7900   22.4090 O   0  0  0  0  0  0  0  0  0  0  0  0
   10.8960    4.9140   24.2060 O   0  0  0  0  0  0  0  0  0  0  0  0
    5.9320   -2.6170   21.1470 C   0  0  0  0  0  0  0  0  0  0  0  0
    5.0240    1.1080   20.2990 C   0  0  0  0  0  0  0  0  0  0  0  0
    6.8060   -0.0170   19.0090 C   0  0  0  0  0  0  0  0  0  0  0  0
    8.0980   -2.1350   21.9940 C   0  0  0  0  0  0  0  0  0  0  0  0
   12.0190    1.4190   22.9320 C   0  0  0  0  0  0  0  0  0  0  0  0
   10.0000    0.3980   23.9200 C   0  0  0  0  0  0  0  0  0  0  0  0
   12.2050    4.8310   22.0060 C   0  0  0  0  0  0  0  0  0  0  0  0
    4.7650   -3.0750   21.4760 O   0  0  0  0  0  0  0  0  0  0  0  0
    6.4450   -3.2570   19.8950 C   0  0  0  0  0  0  0  0  0  0  0  0
    6.3360    0.3640   17.8110 N   0  0  0  0  0  0  0  0  0  0  0  0
    4.4880    1.5320   19.1020 C   0  0  0  0  0  0  0  0  0  0  0  0
   10.7710   -0.5760   23.7090 C   0  0  0  0  0  0  0  0  0  0  0  0
   12.7170    0.1750   22.7800 C   0  0  0  0  0  0  0  0  0  0  0  0
   13.5030    4.8750   22.8230 C   0  0  0  0  0  0  0  0  0  0  0  0
    7.8890   -3.7160   20.1070 C   0  0  0  0  0  0  0  0  0  0  0  0
    3.2900    2.3420   18.9340 N   0  0  0  0  0  0  0  0  0  0  0  0
    5.2290    1.1090   17.8590 C   0  0  0  0  0  0  0  0  0  0  0  0
   12.0240   -0.9330   23.2180 C   0  0  0  0  0  0  0  0  0  0  0  0
   12.3700   -2.3310   23.3080 C   0  0  2  0  0  0  0  0  0  0  0  0
   12.3710   -2.3060   24.8480 C   0  0  0  0  0  0  0  0  0  0  0  0
   13.5320   -2.5320   22.5050 C   0  0  0  0  0  0  0  0  0  0  0  0
   12.8460   -1.0420   25.2610 C   0  0  0  0  0  0  0  0  0  0  0  0
   13.3430   -3.2840   25.4770 C   0  0  0  0  0  0  0  0  0  0  0  0
   10.8790   -2.5630   25.2930 C   0  0  0  0  0  0  0  0  0  0  0  0
   13.4000   -1.7910   20.9360 Cl  0  0  0  0  0  0  0  0  0  0  0  0
    9.9410   -2.9640   24.3330 C   0  0  0  0  0  0  0  0  0  0  0  0
    8.7410   -2.2760   24.5630 C   0  0  0  0  0  0  0  0  0  0  0  0
  1  2  1  0
  3  2  1  6
  1  4  1  0
  4  5  1  6
  4  6  1  0
  4  7  1  0
  6  8  1  0
  3  9  1  0
  6 10  1  6
  7 11  1  0
  3 12  1  0
  9 13  1  0
  9 14  2  0
  8 15  1  0
 10 16  2  0
 10 17  1  0
  8 18  1  0
 11 18  2  0
 12 19  2  0
 12 20  1  0
 13 21  1  0
 15 22  2  0
 15 23  1  0
 17 24  2  0
 16 25  1  0
 20 26  2  0
 19 27  1  0
 21 28  1  0
 23 29  1  0
 25 30  1  0
 24 31  1  0
 25 31  2  0
 26 32  1  0
 27 32  2  0
 32 33  1  0
 33 34  1  0
 33 35  1  6
 34 36  1  0
 34 37  1  0
 34 38  1  0
 35 39  1  0
 38 40  1  0
 40 41  1  0
M  END
