x2964-x1458
     RDKit          3D

 36 38  0  0  0  0  0  0  0  0999 V2000
    7.2590   -3.5640   26.5700 N   0  0  0  0  0  0  0  0  0  0  0  0
    7.7340   -4.6510   27.4440 C   0  0  0  0  0  0  0  0  0  0  0  0
    8.9290   -5.4610   26.8980 C   0  0  0  0  0  0  0  0  0  0  0  0
    7.7120   -2.2810   26.8220 C   0  0  0  0  0  0  0  0  0  0  0  0
    6.5550   -3.7570   25.5010 C   0  0  0  0  0  0  0  0  0  0  0  0
    5.2070   -3.4800   25.4640 O   0  0  0  0  0  0  0  0  0  0  0  0
    6.5770   -5.6260   27.7580 C   0  0  0  0  0  0  0  0  0  0  0  0
    7.2540   -4.2810   24.3050 C   0  0  2  0  0  0  0  0  0  0  0  0
    7.8600   -3.2660   23.5350 C   0  0  0  0  0  0  0  0  0  0  0  0
    6.4950   -5.1500   23.4960 C   0  0  0  0  0  0  0  0  0  0  0  0
    7.5880   -3.1830   22.2230 C   0  0  0  0  0  0  0  0  0  0  0  0
    5.6050   -4.6290   22.5640 C   0  0  0  0  0  0  0  0  0  0  0  0
    6.1870   -3.6240   21.7950 C   0  0  2  0  0  0  0  0  0  0  0  0
    6.1640   -4.0350   20.3200 C   0  0  0  0  0  0  0  0  0  0  0  0
    5.3600   -2.2640   21.8160 C   0  0  0  0  0  0  0  0  0  0  0  0
    5.4590   -4.9840   19.9950 O   0  0  0  0  0  0  0  0  0  0  0  0
    7.0220   -3.2730   19.3080 C   0  0  0  0  0  0  0  0  0  0  0  0
    5.9310   -0.9220   22.3630 C   0  0  0  0  0  0  0  0  0  0  0  0
    6.8790   -0.3650   21.3250 N   0  0  0  0  0  0  0  0  0  0  0  0
    8.1630    0.2220   21.7500 C   0  0  0  0  0  0  0  0  0  0  0  0
    6.3220    0.1640   20.0830 C   0  0  0  0  0  0  0  0  0  0  0  0
    8.6800    1.4020   21.0960 O   0  0  0  0  0  0  0  0  0  0  0  0
    8.8830   -0.2970   22.7410 N   0  0  0  0  0  0  0  0  0  0  0  0
    5.1160    0.8760   20.2460 C   0  0  0  0  0  0  0  0  0  0  0  0
    6.9700   -0.0410   18.8710 C   0  0  0  0  0  0  0  0  0  0  0  0
    4.4390    1.4680   19.1810 C   0  0  0  0  0  0  0  0  0  0  0  0
    6.4110    0.5060   17.7320 N   0  0  0  0  0  0  0  0  0  0  0  0
   10.2680   -0.2400   22.7540 C   0  0  0  0  0  0  0  0  0  0  0  0
    3.2880    2.1620   19.2090 N   0  0  0  0  0  0  0  0  0  0  0  0
    5.1810    1.2430   17.8760 C   0  0  0  0  0  0  0  0  0  0  0  0
   10.8570    0.8220   23.4250 C   0  0  0  0  0  0  0  0  0  0  0  0
   11.0190   -1.1890   22.1160 C   0  0  0  0  0  0  0  0  0  0  0  0
   12.2450    0.9620   23.4660 C   0  0  0  0  0  0  0  0  0  0  0  0
   12.3680   -1.0530   22.1540 C   0  0  0  0  0  0  0  0  0  0  0  0
   13.2310   -2.2490   21.3290 Cl  0  0  0  0  0  0  0  0  0  0  0  0
   12.9970   -0.0060   22.8090 C   0  0  0  0  0  0  0  0  0  0  0  0
  1  2  1  0
  2  3  1  0
  1  4  1  0
  1  5  1  0
  5  6  2  0
  2  7  1  0
  8  5  1  1
  8  9  1  0
  8 10  1  0
  9 11  1  0
 10 12  1  0
 11 13  1  0
 12 13  1  0
 13 14  1  0
 13 15  1  6
 14 16  2  0
 14 17  1  0
 15 18  1  0
 18 19  1  0
 19 20  1  0
 19 21  1  0
 20 22  2  0
 20 23  1  0
 21 24  2  0
 21 25  1  0
 24 26  1  0
 25 27  2  0
 23 28  1  0
 26 29  1  0
 26 30  2  0
 27 30  1  0
 28 31  2  0
 28 32  1  0
 31 33  1  0
 32 34  2  0
 34 35  1  0
 33 36  2  0
 34 36  1  0
M  END
