x2964-x0736
     RDKit          3D

 34 38  0  0  0  0  0  0  0  0999 V2000
    3.1760    2.1400   19.2070 N   0  0  0  0  0  0  0  0  0  0  0  0
    4.4620    1.4560   19.0750 C   0  0  0  0  0  0  0  0  0  0  0  0
    5.1030    1.2760   17.8510 C   0  0  0  0  0  0  0  0  0  0  0  0
    5.1920    0.8920   20.2790 C   0  0  0  0  0  0  0  0  0  0  0  0
    6.5040    0.2210   19.9290 C   0  0  0  0  0  0  0  0  0  0  0  0
    6.2880    0.6410   17.6400 N   0  0  0  0  0  0  0  0  0  0  0  0
    7.3410   -0.3320   20.9450 N   0  0  0  0  0  0  0  0  0  0  0  0
    6.9970    0.1100   18.6470 C   0  0  0  0  0  0  0  0  0  0  0  0
    8.3290    0.4480   21.5420 C   0  0  0  0  0  0  0  0  0  0  0  0
    7.5130   -1.7350   21.3720 C   0  0  2  0  0  0  0  0  0  0  0  0
    8.8130    1.7540   21.1890 O   0  0  0  0  0  0  0  0  0  0  0  0
    8.7690   -0.4090   22.5670 N   0  0  0  0  0  0  0  0  0  0  0  0
    6.4840   -2.7810   21.1770 N   0  0  0  0  0  0  0  0  0  0  0  0
    7.8490   -1.5510   22.7280 C   0  0  2  0  0  0  0  0  0  0  0  0
    6.2980   -3.3910   19.9440 C   0  0  0  0  0  0  0  0  0  0  0  0
   10.2230   -0.3950   22.6820 C   0  0  0  0  0  0  0  0  0  0  0  0
    7.8340   -2.6930   23.6340 N   0  0  0  0  0  0  0  0  0  0  0  0
    6.0000   -3.4540   22.2890 C   0  0  0  0  0  0  0  0  0  0  0  0
    7.2740   -3.0200   18.8490 C   0  0  0  0  0  0  0  0  0  0  0  0
    5.3910   -4.2080   19.7700 O   0  0  0  0  0  0  0  0  0  0  0  0
    7.4270   -2.5080   24.9460 C   0  0  0  0  0  0  0  0  0  0  0  0
   10.8090    0.6210   23.4510 C   0  0  0  0  0  0  0  0  0  0  0  0
   11.0150   -1.3070   22.0400 C   0  0  0  0  0  0  0  0  0  0  0  0
    7.1580   -3.7340   23.0240 C   0  0  0  0  0  0  0  0  0  0  0  0
    6.4790   -3.1290   25.4190 O   0  0  0  0  0  0  0  0  0  0  0  0
   12.2330    0.7310   23.5720 C   0  0  0  0  0  0  0  0  0  0  0  0
   12.3740   -1.2120   22.1410 C   0  0  0  0  0  0  0  0  0  0  0  0
    8.1730   -1.4720   25.7240 C   0  0  0  0  0  0  0  0  0  0  0  0
   13.2240   -2.3830   21.2790 Cl  0  0  0  0  0  0  0  0  0  0  0  0
   12.9850   -0.2140   22.8910 C   0  0  0  0  0  0  0  0  0  0  0  0
    8.5950   -0.3150   25.1060 O   0  0  0  0  0  0  0  0  0  0  0  0
    8.5480   -1.4460   27.0310 C   0  0  0  0  0  0  0  0  0  0  0  0
    9.2140   -0.2980   27.2850 C   0  0  0  0  0  0  0  0  0  0  0  0
    9.2700    0.4440   26.1140 C   0  0  0  0  0  0  0  0  0  0  0  0
  1  2  1  0
  2  3  2  0
  2  4  1  0
  4  5  2  0
  3  6  1  0
  5  7  1  0
  5  8  1  0
  6  8  2  0
  7  9  1  0
 10  7  1  1
  9 11  2  0
  9 12  1  0
 10 13  1  0
 10 14  1  0
 14 12  1  6
 13 15  1  0
 12 16  1  0
 14 17  1  0
 13 18  1  0
 15 19  1  0
 15 20  2  0
 17 21  1  0
 16 22  2  0
 16 23  1  0
 17 24  1  0
 18 24  1  0
 21 25  2  0
 22 26  1  0
 23 27  2  0
 21 28  1  0
 27 29  1  0
 26 30  2  0
 27 30  1  0
 28 31  1  0
 28 32  2  0
 32 33  1  0
 31 34  1  0
 33 34  2  0
M  END
