x2964-x0705
     RDKit          3D

 36 40  0  0  0  0  0  0  0  0999 V2000
    1.4320   -2.5230   27.6990 C   0  0  0  0  0  0  0  0  0  0  0  0
    2.7900   -2.3790   27.0960 C   0  0  0  0  0  0  0  0  0  0  0  0
    3.8810   -3.1350   27.5590 C   0  0  0  0  0  0  0  0  0  0  0  0
    2.9910   -1.3910   25.9570 C   0  0  0  0  0  0  0  0  0  0  0  0
    4.3590   -1.2080   25.3040 C   0  0  0  0  0  0  0  0  0  0  0  0
    5.3390   -3.0430   26.9770 C   0  0  0  0  0  0  0  0  0  0  0  0
    5.5300   -2.0490   25.8300 C   0  0  0  0  0  0  0  0  0  0  0  0
    6.9100   -1.8850   25.1970 C   0  0  0  0  0  0  0  0  0  0  0  0
    7.6820   -1.0840   25.7000 O   0  0  0  0  0  0  0  0  0  0  0  0
    7.2410   -2.6970   24.0890 N   0  0  0  0  0  0  0  0  0  0  0  0
    6.5520   -3.8260   23.9130 C   0  0  0  0  0  0  0  0  0  0  0  0
    7.8340   -2.2750   22.7540 C   0  0  2  0  0  0  0  0  0  0  0  0
    8.4580   -0.8730   22.6390 N   0  0  0  0  0  0  0  0  0  0  0  0
    6.5630   -2.6050   21.8920 C   0  0  2  0  0  0  0  0  0  0  0  0
    5.7860   -3.5440   22.8050 C   0  0  0  0  0  0  0  0  0  0  0  0
    6.7210   -3.4340   20.5600 C   0  0  0  0  0  0  0  0  0  0  0  0
    7.9250   -0.0090   21.6920 C   0  0  0  0  0  0  0  0  0  0  0  0
    5.7550   -1.3810   21.6170 C   0  0  0  0  0  0  0  0  0  0  0  0
    9.9060   -0.6200   22.7850 C   0  0  0  0  0  0  0  0  0  0  0  0
    5.9520   -3.4180   19.5390 O   0  0  0  0  0  0  0  0  0  0  0  0
    7.8450   -4.3910   20.5410 C   0  0  0  0  0  0  0  0  0  0  0  0
    8.5370    1.0040   21.3130 O   0  0  0  0  0  0  0  0  0  0  0  0
    6.6210   -0.3370   21.1590 N   0  0  0  0  0  0  0  0  0  0  0  0
   10.3540    0.4130   23.6360 C   0  0  0  0  0  0  0  0  0  0  0  0
   10.8630   -1.3530   22.0850 C   0  0  0  0  0  0  0  0  0  0  0  0
    6.1760    0.2730   19.9890 C   0  0  0  0  0  0  0  0  0  0  0  0
   11.7230    0.7020   23.7700 C   0  0  0  0  0  0  0  0  0  0  0  0
   12.2040   -1.0450   22.2360 C   0  0  0  0  0  0  0  0  0  0  0  0
   13.2960   -1.9630   21.3300 Cl  0  0  0  0  0  0  0  0  0  0  0  0
    4.9960    1.0180   20.0460 C   0  0  0  0  0  0  0  0  0  0  0  0
    6.9060    0.1130   18.8150 C   0  0  0  0  0  0  0  0  0  0  0  0
   12.6610   -0.0290   23.0630 C   0  0  0  0  0  0  0  0  0  0  0  0
    4.3980    1.6820   19.0030 C   0  0  0  0  0  0  0  0  0  0  0  0
    6.4400    0.7340   17.6630 N   0  0  0  0  0  0  0  0  0  0  0  0
    3.2160    2.4080   19.0890 N   0  0  0  0  0  0  0  0  0  0  0  0
    5.2170    1.5050   17.7450 C   0  0  0  0  0  0  0  0  0  0  0  0
  1  2  1  0
  2  3  2  0
  2  4  1  0
  4  5  2  0
  3  6  1  0
  5  7  1  0
  6  7  2  0
  7  8  1  0
  8  9  2  0
  8 10  1  0
 10 11  1  0
 12 10  1  1
 12 13  1  0
 12 14  1  0
 11 15  1  0
 14 15  1  0
 14 16  1  6
 13 17  1  0
 14 18  1  0
 13 19  1  0
 16 20  2  0
 16 21  1  0
 17 22  2  0
 17 23  1  0
 18 23  1  0
 19 24  2  0
 19 25  1  0
 23 26  1  0
 24 27  1  0
 25 28  2  0
 28 29  1  0
 26 30  2  0
 26 31  1  0
 27 32  2  0
 28 32  1  0
 30 33  1  0
 31 34  2  0
 33 35  1  0
 33 36  2  0
 34 36  1  0
M  END
