x2964-x0749
     RDKit          3D

 37 41  0  0  0  0  0  0  0  0999 V2000
    3.3830    2.1370   19.6800 N   0  0  0  0  0  0  0  0  0  0  0  0
    4.4410    1.4930   19.3530 C   0  0  0  0  0  0  0  0  0  0  0  0
    5.0600    1.3370   18.0670 C   0  0  0  0  0  0  0  0  0  0  0  0
    5.1860    0.7710   20.4720 C   0  0  0  0  0  0  0  0  0  0  0  0
    6.2840    0.1420   19.9000 C   0  0  0  0  0  0  0  0  0  0  0  0
    6.3310    0.5470   17.6970 N   0  0  0  0  0  0  0  0  0  0  0  0
    6.9800   -0.5190   20.9890 N   0  0  0  0  0  0  0  0  0  0  0  0
    7.0190   -0.1170   18.6660 C   0  0  0  0  0  0  0  0  0  0  0  0
    8.2710   -0.1070   21.2350 C   0  0  0  0  0  0  0  0  0  0  0  0
    8.6570    1.0630   21.1430 O   0  0  0  0  0  0  0  0  0  0  0  0
    9.1070   -1.2230   21.6210 N   0  0  0  0  0  0  0  0  0  0  0  0
    9.7450   -1.3010   22.9070 C   0  0  2  0  0  0  0  0  0  0  0  0
   10.9460   -0.3700   22.8700 C   0  0  0  0  0  0  0  0  0  0  0  0
    9.7230   -2.4200   23.7240 N   0  0  0  0  0  0  0  0  0  0  0  0
   12.3170   -0.4600   22.4850 C   0  0  0  0  0  0  0  0  0  0  0  0
   10.4250    0.8100   23.3640 C   0  0  0  0  0  0  0  0  0  0  0  0
    9.8630   -3.6530   23.2170 C   0  0  2  0  0  0  0  0  0  0  0  0
   10.5430   -2.1120   24.9930 C   0  0  1  0  0  0  0  0  0  0  0  0
   13.0270   -1.8630   21.8580 Cl  0  0  0  0  0  0  0  0  0  0  0  0
   11.2490    1.9150   23.4890 C   0  0  0  0  0  0  0  0  0  0  0  0
   13.1170    0.6060   22.6140 C   0  0  0  0  0  0  0  0  0  0  0  0
    8.6640   -4.2900   22.7490 C   0  0  2  0  0  0  0  0  0  0  0  0
   10.3210   -4.5940   24.5490 S   0  0  0  0  0  0  0  0  0  0  0  0
   11.2480   -3.3230   25.3040 C   0  0  1  0  0  0  0  0  0  0  0  0
   11.5030   -1.1900   24.8780 C   0  0  0  0  0  0  0  0  0  0  0  0
   12.5570    1.9150   23.1540 C   0  0  0  0  0  0  0  0  0  0  0  0
    7.5720   -3.5350   22.3710 C   0  0  0  0  0  0  0  0  0  0  0  0
    8.0830   -5.4040   23.6530 C   0  0  0  0  0  0  0  0  0  0  0  0
   12.8070   -0.9640   24.8800 C   0  0  0  0  0  0  0  0  0  0  0  0
   12.7000   -3.3000   25.2740 C   0  0  0  0  0  0  0  0  0  0  0  0
    6.7130   -4.3710   21.5300 N   0  0  0  0  0  0  0  0  0  0  0  0
    6.9630   -6.1710   22.9530 C   0  0  0  0  0  0  0  0  0  0  0  0
   13.4730   -2.1500   25.0770 C   0  0  0  0  0  0  0  0  0  0  0  0
    6.4010   -3.9560   20.2260 C   0  0  0  0  0  0  0  0  0  0  0  0
    6.1320   -5.4460   22.1010 C   0  0  0  0  0  0  0  0  0  0  0  0
    7.4590   -3.2370   19.3690 C   0  0  0  0  0  0  0  0  0  0  0  0
    5.2880   -4.2210   19.7780 O   0  0  0  0  0  0  0  0  0  0  0  0
  1  2  1  0
  2  3  2  0
  2  4  1  0
  4  5  2  0
  3  6  1  0
  5  7  1  0
  5  8  1  0
  6  8  2  0
  7  9  1  0
  9 10  2  0
  9 11  1  0
 12 11  1  6
 12 13  1  0
 12 14  1  0
 13 15  2  0
 13 16  1  0
 14 17  1  0
 14 18  1  0
 15 19  1  0
 16 20  2  0
 15 21  1  0
 17 22  1  0
 17 23  1  1
 18 24  1  0
 23 24  1  0
 18 25  1  6
 20 26  1  0
 21 26  2  0
 22 27  1  1
 22 28  1  0
 25 29  2  0
 24 30  1  6
 27 31  1  0
 28 32  1  0
 29 33  1  0
 30 33  2  0
 31 34  1  0
 31 35  1  0
 32 35  1  0
 34 36  1  0
 34 37  2  0
M  END
