x2964-x0540
     RDKit          3D

 30 32  0  0  0  0  0  0  0  0999 V2000
    3.1580    2.0440   19.1590 N   0  0  0  0  0  0  0  0  0  0  0  0
    4.4400    1.3480   19.0560 C   0  0  0  0  0  0  0  0  0  0  0  0
    5.1600    1.2220   17.8710 C   0  0  0  0  0  0  0  0  0  0  0  0
    5.0910    0.7010   20.2650 C   0  0  0  0  0  0  0  0  0  0  0  0
    4.4770    0.7220   21.6470 C   0  0  0  0  0  0  0  0  0  0  0  0
    6.4110    0.0430   19.9500 C   0  0  0  0  0  0  0  0  0  0  0  0
    6.3420    0.5930   17.6730 N   0  0  0  0  0  0  0  0  0  0  0  0
    7.1690   -0.5650   20.9840 N   0  0  0  0  0  0  0  0  0  0  0  0
    4.9770    1.6890   22.4930 C   0  0  0  0  0  0  0  0  0  0  0  0
    6.9830   -0.0050   18.6970 C   0  0  0  0  0  0  0  0  0  0  0  0
    8.2120    0.2040   21.5480 C   0  0  0  0  0  0  0  0  0  0  0  0
    4.0820    2.6860   22.8680 N   0  0  0  0  0  0  0  0  0  0  0  0
    8.6200    1.5020   21.0610 O   0  0  0  0  0  0  0  0  0  0  0  0
    8.8860   -0.4030   22.6410 N   0  0  0  0  0  0  0  0  0  0  0  0
    2.9300    2.3840   23.5890 C   0  0  0  0  0  0  0  0  0  0  0  0
    2.8530    1.4980   24.4490 O   0  0  0  0  0  0  0  0  0  0  0  0
    1.8830    3.2190   23.2080 N   0  0  0  0  0  0  0  0  0  0  0  0
   10.3200   -0.2860   22.6470 C   0  0  0  0  0  0  0  0  0  0  0  0
   10.8930    0.8820   23.1320 C   0  0  0  0  0  0  0  0  0  0  0  0
   11.1060   -1.2770   22.1670 C   0  0  0  0  0  0  0  0  0  0  0  0
    0.6250    3.3040   24.0000 C   0  0  0  0  0  0  0  0  0  0  0  0
   12.3050    1.1280   23.1770 C   0  0  0  0  0  0  0  0  0  0  0  0
   12.4450   -1.0820   22.1780 C   0  0  0  0  0  0  0  0  0  0  0  0
    0.5720    4.6110   24.5420 C   0  0  0  0  0  0  0  0  0  0  0  0
   -0.4840    2.9530   23.2240 C   0  0  0  0  0  0  0  0  0  0  0  0
   13.2690   -2.3530   21.5260 Cl  0  0  0  0  0  0  0  0  0  0  0  0
   13.0190    0.0750   22.6700 C   0  0  0  0  0  0  0  0  0  0  0  0
   -0.6740    4.9080   25.1330 C   0  0  0  0  0  0  0  0  0  0  0  0
   -1.7060    3.3200   23.8090 C   0  0  0  0  0  0  0  0  0  0  0  0
   -1.7220    4.6420   24.2510 C   0  0  0  0  0  0  0  0  0  0  0  0
  1  2  1  0
  2  3  2  0
  2  4  1  0
  4  5  1  0
  4  6  2  0
  3  7  1  0
  6  8  1  0
  5  9  1  0
  6 10  1  0
  7 10  2  0
  8 11  1  0
  9 12  1  0
 11 13  2  0
 11 14  1  0
 12 15  1  0
 15 16  2  0
 15 17  1  0
 14 18  1  0
 18 19  2  0
 18 20  1  0
 17 21  1  0
 19 22  1  0
 20 23  2  0
 21 24  1  0
 21 25  1  0
 23 26  1  0
 22 27  2  0
 23 27  1  0
 24 28  1  0
 25 29  1  0
 28 30  1  0
 29 30  1  0
M  END
