x2964
     RDKit          3D

 18 19  0  0  0  0  0  0  0  0999 V2000
    3.6220    2.0760   19.4660 N   0  0  0  0  0  0  0  0  0  0  0  0
    4.7720    1.3810   19.1830 C   0  0  0  0  0  0  0  0  0  0  0  0
    9.1050    1.1680   20.9160 O   0  0  0  0  0  0  0  0  0  0  0  0
   14.2680   -1.4970   21.3020 Cl  0  0  0  0  0  0  0  0  0  0  0  0
    5.2840    1.2750   17.8750 C   0  0  0  0  0  0  0  0  0  0  0  0
    6.4010    0.6120   17.5680 N   0  0  0  0  0  0  0  0  0  0  0  0
    7.0700    0.0260   18.5640 C   0  0  0  0  0  0  0  0  0  0  0  0
    7.4940   -0.4560   20.9140 N   0  0  0  0  0  0  0  0  0  0  0  0
    6.6690    0.0730   19.8970 C   0  0  0  0  0  0  0  0  0  0  0  0
    9.3460   -0.6820   22.2260 N   0  0  0  0  0  0  0  0  0  0  0  0
    8.6710    0.0990   21.3330 C   0  0  0  0  0  0  0  0  0  0  0  0
   10.6730   -0.4370   22.6380 C   0  0  0  0  0  0  0  0  0  0  0  0
   10.9680    0.6090   23.5030 C   0  0  0  0  0  0  0  0  0  0  0  0
   12.2800    1.0330   23.6500 C   0  0  0  0  0  0  0  0  0  0  0  0
   13.3020    0.4070   22.9530 C   0  0  0  0  0  0  0  0  0  0  0  0
   12.9930   -0.6660   22.1400 C   0  0  0  0  0  0  0  0  0  0  0  0
   11.6960   -1.1080   21.9790 C   0  0  0  0  0  0  0  0  0  0  0  0
    5.4930    0.7540   20.1970 C   0  0  0  0  0  0  0  0  0  0  0  0
  1  2  1  0
  2  5  2  0
  5  6  1  0
  6  7  2  0
  7  9  1  0
  8  9  1  0
  3 11  2  0
  8 11  1  0
 10 11  1  0
 10 12  1  0
 12 13  2  0
 13 14  1  0
 14 15  2  0
  4 16  1  0
 15 16  1  0
 12 17  1  0
 16 17  2  0
  2 18  1  0
  9 18  2  0
M  END
