x2964-x1425
     RDKit          3D

 36 39  0  0  0  0  0  0  0  0999 V2000
    3.2770    2.0220   19.2110 N   0  0  0  0  0  0  0  0  0  0  0  0
    4.5520    1.3420   19.0660 C   0  0  0  0  0  0  0  0  0  0  0  0
    5.1830    1.3110   17.8210 C   0  0  0  0  0  0  0  0  0  0  0  0
    5.2310    0.6520   20.2510 C   0  0  0  0  0  0  0  0  0  0  0  0
    6.4500    0.0190   20.0320 C   0  0  0  0  0  0  0  0  0  0  0  0
    6.3500    0.6990   17.5930 N   0  0  0  0  0  0  0  0  0  0  0  0
    7.2080   -0.6450   21.0340 N   0  0  0  0  0  0  0  0  0  0  0  0
    6.9570    0.0870   18.6090 C   0  0  0  0  0  0  0  0  0  0  0  0
    8.2230    0.1550   21.6460 C   0  0  0  0  0  0  0  0  0  0  0  0
    6.4310   -1.5840   21.8950 C   0  0  0  0  0  0  0  0  0  0  0  0
    8.6280    1.4510   21.1410 O   0  0  0  0  0  0  0  0  0  0  0  0
    8.8820   -0.4120   22.7890 N   0  0  0  0  0  0  0  0  0  0  0  0
    7.0400   -2.9340   22.2280 C   0  0  2  0  0  0  0  0  0  0  0  0
   10.2300   -0.3300   22.8120 C   0  0  0  0  0  0  0  0  0  0  0  0
    6.6850   -3.9870   21.4210 N   0  0  0  0  0  0  0  0  0  0  0  0
    6.9610   -3.1930   23.5930 C   0  0  0  0  0  0  0  0  0  0  0  0
    6.2390   -3.8580   20.1200 C   0  0  0  0  0  0  0  0  0  0  0  0
   10.8610    0.7160   23.4960 C   0  0  0  0  0  0  0  0  0  0  0  0
   11.0510   -1.2320   22.1650 C   0  0  0  0  0  0  0  0  0  0  0  0
    5.7140   -3.9270   23.9640 N   0  0  0  0  0  0  0  0  0  0  0  0
    6.2530   -5.2560   22.1050 C   0  0  0  0  0  0  0  0  0  0  0  0
    5.1710   -4.3480   19.7840 O   0  0  0  0  0  0  0  0  0  0  0  0
    7.1420   -3.1670   19.1330 C   0  0  0  0  0  0  0  0  0  0  0  0
   12.2300    0.8380   23.5120 C   0  0  0  0  0  0  0  0  0  0  0  0
   12.4220   -1.1160   22.1770 C   0  0  0  0  0  0  0  0  0  0  0  0
    4.9620   -3.4860   25.0170 C   0  0  0  0  0  0  0  0  0  0  0  0
    5.4990   -5.1040   23.2640 C   0  0  0  0  0  0  0  0  0  0  0  0
   13.2570   -2.2980   21.3140 Cl  0  0  0  0  0  0  0  0  0  0  0  0
   12.9960   -0.0470   22.8730 C   0  0  0  0  0  0  0  0  0  0  0  0
    5.5490   -2.6320   25.9710 C   0  0  0  0  0  0  0  0  0  0  0  0
    3.6350   -3.8780   25.1520 C   0  0  0  0  0  0  0  0  0  0  0  0
    4.8330   -2.1590   27.0630 C   0  0  0  0  0  0  0  0  0  0  0  0
    2.9380   -3.3910   26.2570 C   0  0  0  0  0  0  0  0  0  0  0  0
    3.5070   -2.5360   27.2240 C   0  0  0  0  0  0  0  0  0  0  0  0
    2.6540   -2.1360   28.2890 O   0  0  0  0  0  0  0  0  0  0  0  0
    1.2520   -2.3930   28.1480 C   0  0  0  0  0  0  0  0  0  0  0  0
  1  2  1  0
  2  3  2  0
  2  4  1  0
  4  5  2  0
  3  6  1  0
  5  7  1  0
  5  8  1  0
  6  8  2  0
  7  9  1  0
  7 10  1  0
  9 11  2  0
  9 12  1  0
 13 10  1  1
 12 14  1  0
 13 15  1  0
 13 16  1  0
 15 17  1  0
 14 18  2  0
 14 19  1  0
 16 20  1  0
 15 21  1  0
 17 22  2  0
 17 23  1  0
 18 24  1  0
 19 25  2  0
 20 26  1  0
 20 27  1  0
 21 27  1  0
 25 28  1  0
 24 29  2  0
 25 29  1  0
 26 30  2  0
 26 31  1  0
 30 32  1  0
 31 33  2  0
 32 34  2  0
 33 34  1  0
 34 35  1  0
 35 36  1  0
M  END
