x2964-x2754
     RDKit          3D

 38 41  0  0  0  0  0  0  0  0999 V2000
    4.9200   -3.2340   25.3200 C   0  0  0  0  0  0  0  0  0  0  0  0
    5.6350   -2.9630   26.4830 N   0  0  0  0  0  0  0  0  0  0  0  0
    5.1280   -2.1390   27.6240 C   0  0  0  0  0  0  0  0  0  0  0  0
    3.4930   -3.1920   25.3240 O   0  0  0  0  0  0  0  0  0  0  0  0
    5.5780   -3.5620   24.0020 C   0  0  1  0  0  0  0  0  0  0  0  0
    6.8090   -3.0260   23.6460 C   0  0  0  0  0  0  0  0  0  0  0  0
    5.6620   -4.8870   23.7660 C   0  0  0  0  0  0  0  0  0  0  0  0
    6.8900   -3.5130   26.6510 C   0  0  0  0  0  0  0  0  0  0  0  0
    7.0130   -2.7790   22.1640 C   0  0  2  0  0  0  0  0  0  0  0  0
    6.3500   -4.9600   22.4850 C   0  0  0  0  0  0  0  0  0  0  0  0
    7.0640   -4.6870   27.4110 C   0  0  0  0  0  0  0  0  0  0  0  0
    8.0390   -2.9590   26.1030 C   0  0  0  0  0  0  0  0  0  0  0  0
    6.3990   -1.5660   21.7840 C   0  0  0  0  0  0  0  0  0  0  0  0
    6.4110   -3.8810   21.6390 N   0  0  0  0  0  0  0  0  0  0  0  0
    8.2640   -5.2650   27.6160 C   0  0  0  0  0  0  0  0  0  0  0  0
    9.2830   -3.5680   26.3190 C   0  0  0  0  0  0  0  0  0  0  0  0
    6.1390   -3.9520   20.2800 C   0  0  0  0  0  0  0  0  0  0  0  0
    7.0940   -0.4920   21.0600 N   0  0  0  0  0  0  0  0  0  0  0  0
    9.4190   -4.7300   27.0810 C   0  0  0  0  0  0  0  0  0  0  0  0
    5.2210   -4.6570   19.8990 O   0  0  0  0  0  0  0  0  0  0  0  0
    6.9870   -3.1970   19.2760 C   0  0  0  0  0  0  0  0  0  0  0  0
    8.1510    0.1630   21.5910 C   0  0  0  0  0  0  0  0  0  0  0  0
    6.3410    0.1550   20.0040 C   0  0  0  0  0  0  0  0  0  0  0  0
    8.6000    1.4400   21.0730 O   0  0  0  0  0  0  0  0  0  0  0  0
    8.8340   -0.4810   22.6940 N   0  0  0  0  0  0  0  0  0  0  0  0
    5.1300    0.8290   20.1720 C   0  0  0  0  0  0  0  0  0  0  0  0
    6.9290    0.0620   18.7830 C   0  0  0  0  0  0  0  0  0  0  0  0
    4.5350    1.4150   19.0660 C   0  0  0  0  0  0  0  0  0  0  0  0
    6.3270    0.6780   17.6070 N   0  0  0  0  0  0  0  0  0  0  0  0
   10.2680   -0.3430   22.7730 C   0  0  0  0  0  0  0  0  0  0  0  0
    3.3240    2.0950   19.1650 N   0  0  0  0  0  0  0  0  0  0  0  0
    5.1700    1.3190   17.8250 C   0  0  0  0  0  0  0  0  0  0  0  0
   10.8860    0.6870   23.4650 C   0  0  0  0  0  0  0  0  0  0  0  0
   11.0130   -1.2770   22.1050 C   0  0  0  0  0  0  0  0  0  0  0  0
   12.2680    0.7450   23.4550 C   0  0  0  0  0  0  0  0  0  0  0  0
   12.3750   -1.2260   22.0910 C   0  0  0  0  0  0  0  0  0  0  0  0
   13.2210   -2.4090   21.2240 Cl  0  0  0  0  0  0  0  0  0  0  0  0
   13.0210   -0.2000   22.7740 C   0  0  0  0  0  0  0  0  0  0  0  0
  1  2  1  0
  2  3  1  0
  1  4  2  0
  5  1  1  1
  5  6  1  0
  5  7  1  0
  2  8  1  0
  6  9  1  0
  7 10  1  0
  8 11  2  0
  8 12  1  0
  9 13  1  6
  9 14  1  0
 10 14  1  0
 11 15  1  0
 12 16  2  0
 14 17  1  0
 13 18  1  0
 15 19  2  0
 16 19  1  0
 17 20  2  0
 17 21  1  0
 18 22  1  0
 18 23  1  0
 22 24  2  0
 22 25  1  0
 23 26  2  0
 23 27  1  0
 26 28  1  0
 27 29  2  0
 25 30  1  0
 28 31  1  0
 28 32  2  0
 29 32  1  0
 30 33  2  0
 30 34  1  0
 33 35  1  0
 34 36  2  0
 36 37  1  0
 35 38  2  0
 36 38  1  0
M  END
