x2964-x1336
     RDKit          3D

 38 41  0  0  0  0  0  0  0  0999 V2000
    5.8830   -5.1290   28.9530 C   0  0  0  0  0  0  0  0  0  0  0  0
    7.0030   -4.8520   28.0340 C   0  0  0  0  0  0  0  0  0  0  0  0
    8.2020   -5.5420   27.9140 C   0  0  0  0  0  0  0  0  0  0  0  0
    7.1010   -3.8210   27.0780 C   0  0  0  0  0  0  0  0  0  0  0  0
    7.8400   -3.0950   26.0060 C   0  0  0  0  0  0  0  0  0  0  0  0
    9.2440   -5.0550   26.8770 C   0  0  0  0  0  0  0  0  0  0  0  0
    7.2480   -1.6540   25.1180 S   0  0  0  0  0  0  0  0  0  0  0  0
    9.1540   -3.9200   25.9540 C   0  0  0  0  0  0  0  0  0  0  0  0
    8.3610   -0.7310   25.1160 O   0  0  0  0  0  0  0  0  0  0  0  0
    5.9840   -1.2990   25.7110 O   0  0  0  0  0  0  0  0  0  0  0  0
   10.3010   -3.6160   25.0390 C   0  0  0  0  0  0  0  0  0  0  0  0
    6.8430   -2.0080   23.4940 N   0  0  0  0  0  0  0  0  0  0  0  0
    6.0020   -3.2100   23.2990 C   0  0  0  0  0  0  0  0  0  0  0  0
    7.6300   -1.5130   22.4470 C   0  0  2  0  0  0  0  0  0  0  0  0
    7.3180   -0.2420   21.8950 N   0  0  0  0  0  0  0  0  0  0  0  0
    6.5290   -4.0100   22.3690 C   0  0  0  0  0  0  0  0  0  0  0  0
    7.6920   -2.4070   21.4210 C   0  0  0  0  0  0  0  0  0  0  0  0
    8.3990    0.6020   21.9490 C   0  0  0  0  0  0  0  0  0  0  0  0
    6.6120   -3.1400   21.1710 N   0  0  0  0  0  0  0  0  0  0  0  0
    6.5650    0.0840   20.6480 C   0  0  0  0  0  0  0  0  0  0  0  0
    6.3240   -3.5360   19.8980 C   0  0  0  0  0  0  0  0  0  0  0  0
    8.5870    1.4980   21.1040 O   0  0  0  0  0  0  0  0  0  0  0  0
    9.0920    0.3880   22.8290 N   0  0  0  0  0  0  0  0  0  0  0  0
    5.3050    0.7230   20.5770 C   0  0  0  0  0  0  0  0  0  0  0  0
    7.0380   -0.1720   19.2320 C   0  0  0  0  0  0  0  0  0  0  0  0
    5.3180   -4.2140   19.7080 O   0  0  0  0  0  0  0  0  0  0  0  0
    7.2990   -3.1530   18.7880 C   0  0  0  0  0  0  0  0  0  0  0  0
    4.6140    1.0700   19.3800 C   0  0  0  0  0  0  0  0  0  0  0  0
    6.3660    0.1690   17.9830 N   0  0  0  0  0  0  0  0  0  0  0  0
   10.4260    0.2380   22.7670 C   0  0  0  0  0  0  0  0  0  0  0  0
    3.3680    1.7080   19.3870 N   0  0  0  0  0  0  0  0  0  0  0  0
    5.1890    0.7740   18.1500 C   0  0  0  0  0  0  0  0  0  0  0  0
   11.1440    1.3190   23.2300 C   0  0  0  0  0  0  0  0  0  0  0  0
   11.0630   -0.8750   22.2790 C   0  0  0  0  0  0  0  0  0  0  0  0
   12.5170    1.2980   23.2070 C   0  0  0  0  0  0  0  0  0  0  0  0
   12.4310   -0.8930   22.2530 C   0  0  0  0  0  0  0  0  0  0  0  0
   13.1830   -2.2600   21.6260 Cl  0  0  0  0  0  0  0  0  0  0  0  0
   13.1670    0.1860   22.7150 C   0  0  0  0  0  0  0  0  0  0  0  0
  1  2  1  0
  2  3  2  0
  2  4  1  0
  4  5  2  0
  3  6  1  0
  7  5  1  0
  5  8  1  0
  6  8  2  0
  7  9  2  0
  7 10  2  0
  8 11  1  0
  7 12  1  0
 12 13  1  0
 12 14  1  0
 14 15  1  6
 13 16  1  0
 14 17  1  0
 15 18  1  0
 16 19  1  0
 17 19  1  0
 15 20  1  0
 19 21  1  0
 18 22  2  0
 18 23  1  0
 20 24  2  0
 20 25  1  0
 21 26  2  0
 21 27  1  0
 24 28  1  0
 25 29  2  0
 23 30  1  0
 28 31  1  0
 28 32  2  0
 29 32  1  0
 30 33  2  0
 30 34  1  0
 33 35  1  0
 34 36  2  0
 36 37  1  0
 35 38  2  0
 36 38  1  0
M  END
