x2964-x0104-x1412
     RDKit          3D

 43 48  0  0  0  0  0  0  0  0999 V2000
    9.0530    6.6020   22.6100 C   0  0  0  0  0  0  0  0  0  0  0  0
   10.2580    6.1970   23.4110 C   0  0  0  0  0  0  0  0  0  0  0  0
   10.2980    6.2890   24.6370 O   0  0  0  0  0  0  0  0  0  0  0  0
   11.2900    5.7170   22.6520 N   0  0  0  0  0  0  0  0  0  0  0  0
   12.4730    5.1130   23.2920 C   0  0  0  0  0  0  0  0  0  0  0  0
   12.8240    3.7550   22.6950 C   0  0  0  0  0  0  0  0  0  0  0  0
   11.8970    2.7250   22.8990 C   0  0  0  0  0  0  0  0  0  0  0  0
   10.5470    2.8840   23.3220 C   0  0  0  0  0  0  0  0  0  0  0  0
   12.0630    1.2810   22.8170 C   0  0  0  0  0  0  0  0  0  0  0  0
    9.7380    1.8040   23.4730 N   0  0  0  0  0  0  0  0  0  0  0  0
   10.6880    0.8790   22.8780 C   0  0  2  0  0  0  0  0  0  0  0  0
   13.0370    0.2930   22.6060 C   0  0  0  0  0  0  0  0  0  0  0  0
   10.3050   -0.4250   22.6390 C   0  0  0  0  0  0  0  0  0  0  0  0
   12.6110   -1.0420   22.4160 C   0  0  0  0  0  0  0  0  0  0  0  0
   13.5170   -1.9800   22.1990 F   0  0  0  0  0  0  0  0  0  0  0  0
    8.9960   -0.6270   22.5020 N   0  0  0  0  0  0  0  0  0  0  0  0
   11.2550   -1.4120   22.4130 C   0  0  0  0  0  0  0  0  0  0  0  0
    8.3200    0.0530   21.4200 C   0  0  0  0  0  0  0  0  0  0  0  0
    7.9770   -1.5950   22.9350 C   0  0  1  0  0  0  0  0  0  0  0  0
    8.4660    1.1970   20.9420 O   0  0  0  0  0  0  0  0  0  0  0  0
    7.4130   -0.6940   20.8980 N   0  0  0  0  0  0  0  0  0  0  0  0
    7.0500   -1.7760   21.8450 C   0  0  1  0  0  0  0  0  0  0  0  0
    8.5270   -2.8160   23.5740 N   0  0  0  0  0  0  0  0  0  0  0  0
    8.4340   -2.6830   24.9680 C   0  0  0  0  0  0  0  0  0  0  0  0
    6.5980   -0.0310   19.8910 C   0  0  0  0  0  0  0  0  0  0  0  0
    6.8770   -3.0020   21.2560 N   0  0  0  0  0  0  0  0  0  0  0  0
    8.1430   -3.9880   23.0360 C   0  0  0  0  0  0  0  0  0  0  0  0
    6.4980   -3.3440   19.9460 C   0  0  0  0  0  0  0  0  0  0  0  0
    8.2530   -1.5780   25.4590 O   0  0  0  0  0  0  0  0  0  0  0  0
    5.4490    0.4750   20.3540 C   0  0  0  0  0  0  0  0  0  0  0  0
    6.9690    0.0880   18.5700 C   0  0  0  0  0  0  0  0  0  0  0  0
    6.8620   -4.0990   22.2080 C   0  0  0  0  0  0  0  0  0  0  0  0
    8.5610   -3.9230   25.8520 C   0  0  0  0  0  0  0  0  0  0  0  0
    7.4860   -3.0040   18.8360 C   0  0  0  0  0  0  0  0  0  0  0  0
    5.4530   -3.9610   19.6790 O   0  0  0  0  0  0  0  0  0  0  0  0
    4.5340    1.1750   19.5370 C   0  0  0  0  0  0  0  0  0  0  0  0
    6.2370    0.7200   17.6460 N   0  0  0  0  0  0  0  0  0  0  0  0
    9.4390   -5.1030   25.4850 C   0  0  0  0  0  0  0  0  0  0  0  0
    7.7650   -4.1320   27.3480 S   0  0  0  0  0  0  0  0  0  0  0  0
    3.3090    1.7060   20.0520 N   0  0  0  0  0  0  0  0  0  0  0  0
    4.9980    1.2900   18.1060 C   0  0  0  0  0  0  0  0  0  0  0  0
    8.5640   -5.6930   27.4670 C   0  0  0  0  0  0  0  0  0  0  0  0
    9.4050   -6.0420   26.4010 C   0  0  0  0  0  0  0  0  0  0  0  0
  1  2  1  0
  2  3  2  0
  2  4  1  0
  4  5  1  0
  5  6  1  0
  6  7  1  0
  7  8  1  0
  7  9  2  0
  8 10  2  0
  9 11  1  0
 11 10  1  1
  9 12  1  0
 11 13  1  0
 12 14  2  0
 14 15  1  0
 13 16  1  0
 13 17  2  0
 14 17  1  0
 16 18  1  0
 19 16  1  6
 18 20  2  0
 18 21  1  0
 19 22  1  0
 22 21  1  6
 19 23  1  0
 23 24  1  0
 21 25  1  0
 22 26  1  0
 23 27  1  0
 26 28  1  0
 24 29  2  0
 25 30  2  0
 25 31  1  0
 26 32  1  0
 27 32  1  0
 24 33  1  0
 28 34  1  0
 28 35  2  0
 30 36  1  0
 31 37  2  0
 33 38  2  0
 33 39  1  0
 36 40  1  0
 36 41  2  0
 37 41  1  0
 39 42  1  0
 38 43  1  0
 42 43  2  0
M  END
