x2964-x2052
     RDKit          3D

 38 41  0  0  0  0  0  0  0  0999 V2000
    5.6960   -1.8000   25.3360 C   0  0  0  0  0  0  0  0  0  0  0  0
    6.4890   -1.5160   26.4290 N   0  0  0  0  0  0  0  0  0  0  0  0
    6.2140   -0.5170   27.3870 C   0  0  0  0  0  0  0  0  0  0  0  0
    4.2800   -1.6330   25.3630 O   0  0  0  0  0  0  0  0  0  0  0  0
    6.3550   -2.2890   24.0830 C   0  0  2  0  0  0  0  0  0  0  0  0
    6.4010   -1.2730   22.9620 C   0  0  0  0  0  0  0  0  0  0  0  0
    5.8640   -3.6720   23.5720 C   0  0  0  0  0  0  0  0  0  0  0  0
    7.0610   -1.7530   21.8480 C   0  0  2  0  0  0  0  0  0  0  0  0
    6.5370   -3.9180   22.4150 C   0  0  0  0  0  0  0  0  0  0  0  0
    6.4860    0.8310   27.2830 C   0  0  0  0  0  0  0  0  0  0  0  0
    5.6230   -0.8980   28.5370 C   0  0  0  0  0  0  0  0  0  0  0  0
    7.4290   -0.6370   20.9340 N   0  0  0  0  0  0  0  0  0  0  0  0
    6.5580   -2.9850   21.4070 N   0  0  0  0  0  0  0  0  0  0  0  0
    6.2220    1.7750   28.2130 N   0  0  0  0  0  0  0  0  0  0  0  0
    5.3310    0.0350   29.5210 C   0  0  0  0  0  0  0  0  0  0  0  0
    6.3510   -3.4800   20.1050 C   0  0  0  0  0  0  0  0  0  0  0  0
    8.3160    0.2410   21.4880 C   0  0  0  0  0  0  0  0  0  0  0  0
    5.6290    1.3890   29.3740 C   0  0  0  0  0  0  0  0  0  0  0  0
    6.6270   -0.0550   20.0130 C   0  0  0  0  0  0  0  0  0  0  0  0
    5.4550   -4.3070   19.8600 O   0  0  0  0  0  0  0  0  0  0  0  0
    5.3370    2.2820   30.3510 O   0  0  0  0  0  0  0  0  0  0  0  0
    7.2590   -3.0350   18.9910 C   0  0  0  0  0  0  0  0  0  0  0  0
    8.6130    1.3400   20.9760 O   0  0  0  0  0  0  0  0  0  0  0  0
    8.8900   -0.1990   22.7550 N   0  0  0  0  0  0  0  0  0  0  0  0
    5.4430    0.5850   20.4380 C   0  0  0  0  0  0  0  0  0  0  0  0
    6.9820   -0.0780   18.6760 C   0  0  0  0  0  0  0  0  0  0  0  0
    6.3350    3.2770   30.5270 C   0  0  0  0  0  0  0  0  0  0  0  0
    4.6430    1.2060   19.4650 C   0  0  0  0  0  0  0  0  0  0  0  0
    6.1970    0.5440   17.6370 N   0  0  0  0  0  0  0  0  0  0  0  0
   10.3200   -0.0650   22.8150 C   0  0  0  0  0  0  0  0  0  0  0  0
    3.4010    1.8950   19.8220 N   0  0  0  0  0  0  0  0  0  0  0  0
    5.0620    1.1530   18.1510 C   0  0  0  0  0  0  0  0  0  0  0  0
   10.9890    1.0040   23.4230 C   0  0  0  0  0  0  0  0  0  0  0  0
   11.0560   -1.0750   22.2070 C   0  0  0  0  0  0  0  0  0  0  0  0
   12.3640    0.9990   23.3730 C   0  0  0  0  0  0  0  0  0  0  0  0
   12.4290   -1.0370   22.1850 C   0  0  0  0  0  0  0  0  0  0  0  0
   13.1970   -2.3230   21.3940 Cl  0  0  0  0  0  0  0  0  0  0  0  0
   13.1150    0.0210   22.7770 C   0  0  0  0  0  0  0  0  0  0  0  0
  1  2  1  0
  2  3  1  0
  1  4  2  0
  5  1  1  1
  5  6  1  0
  5  7  1  0
  6  8  1  0
  7  9  1  0
  3 10  2  0
  3 11  1  0
  8 12  1  6
  8 13  1  0
  9 13  1  0
 10 14  1  0
 11 15  2  0
 13 16  1  0
 12 17  1  0
 14 18  2  0
 15 18  1  0
 12 19  1  0
 16 20  2  0
 18 21  1  0
 16 22  1  0
 17 23  2  0
 17 24  1  0
 19 25  2  0
 19 26  1  0
 21 27  1  0
 25 28  1  0
 26 29  2  0
 24 30  1  0
 28 31  1  0
 28 32  2  0
 29 32  1  0
 30 33  2  0
 30 34  1  0
 33 35  1  0
 34 36  2  0
 36 37  1  0
 35 38  2  0
 36 38  1  0
M  END
