x3077-x2754
     RDKit          3D

 29 31  0  0  0  0  0  0  0  0999 V2000
    4.6460   -3.2800   25.4150 C   0  0  0  0  0  0  0  0  0  0  0  0
    5.4590   -2.9470   26.4950 N   0  0  0  0  0  0  0  0  0  0  0  0
    5.0630   -2.1070   27.5110 C   0  0  0  0  0  0  0  0  0  0  0  0
    3.4420   -3.4400   25.5550 O   0  0  0  0  0  0  0  0  0  0  0  0
    5.2190   -3.4270   23.9990 C   0  0  1  0  0  0  0  0  0  0  0  0
    6.3140   -2.6290   23.6350 C   0  0  0  0  0  0  0  0  0  0  0  0
    5.3710   -4.9280   23.5670 C   0  0  0  0  0  0  0  0  0  0  0  0
    6.7120   -3.6810   26.8230 C   0  0  0  0  0  0  0  0  0  0  0  0
    6.7010   -2.6420   22.3200 C   0  0  2  0  0  0  0  0  0  0  0  0
    6.4000   -5.1300   22.4110 C   0  0  0  0  0  0  0  0  0  0  0  0
    6.7730   -4.8930   27.5140 C   0  0  0  0  0  0  0  0  0  0  0  0
    7.9780   -3.0390   26.3650 C   0  0  0  0  0  0  0  0  0  0  0  0
    6.5300   -3.8860   21.5990 N   0  0  0  0  0  0  0  0  0  0  0  0
    7.9420   -5.6190   27.8490 C   0  0  0  0  0  0  0  0  0  0  0  0
    9.1800   -3.6770   26.6460 C   0  0  0  0  0  0  0  0  0  0  0  0
    8.1430   -2.0830   22.2200 C   0  0  0  0  0  0  0  0  0  0  0  0
    6.1700   -3.9730   20.2550 C   0  0  0  0  0  0  0  0  0  0  0  0
    9.1840   -4.8720   27.3330 C   0  0  0  0  0  0  0  0  0  0  0  0
    8.9250   -2.6800   23.0710 N   0  0  0  0  0  0  0  0  0  0  0  0
    5.2180   -4.6520   19.9050 O   0  0  0  0  0  0  0  0  0  0  0  0
    7.0430   -3.2180   19.2580 C   0  0  0  0  0  0  0  0  0  0  0  0
    9.3250   -1.8600   24.0930 C   0  0  0  0  0  0  0  0  0  0  0  0
   10.5380   -1.1190   23.7000 C   0  0  0  0  0  0  0  0  0  0  0  0
   10.8780    0.0940   24.2580 C   0  0  0  0  0  0  0  0  0  0  0  0
   11.3480   -1.6740   22.7330 C   0  0  0  0  0  0  0  0  0  0  0  0
   12.1340    0.7490   23.7680 C   0  0  0  0  0  0  0  0  0  0  0  0
   12.4990   -1.0570   22.2970 C   0  0  0  0  0  0  0  0  0  0  0  0
   13.3400   -1.8950   21.1020 Cl  0  0  0  0  0  0  0  0  0  0  0  0
   12.9320    0.1760   22.8050 C   0  0  0  0  0  0  0  0  0  0  0  0
  1  2  1  0
  2  3  1  0
  1  4  2  0
  5  1  1  1
  5  6  1  0
  5  7  1  0
  2  8  1  0
  6  9  1  0
  7 10  1  0
  8 11  2  0
  8 12  1  0
  9 13  1  0
 10 13  1  0
 11 14  1  0
 12 15  2  0
  9 16  1  1
 13 17  1  0
 14 18  2  0
 15 18  1  0
 16 19  1  0
 17 20  2  0
 17 21  1  0
 19 22  1  0
 22 23  1  0
 23 24  2  0
 23 25  1  0
 24 26  1  0
 25 27  2  0
 27 28  1  0
 26 29  2  0
 27 29  1  0
M  END
