x3080-x1311
     RDKit          3D

 44 49  0  0  0  0  0  0  0  0999 V2000
    9.8940   -0.6350   23.3760 N   0  0  0  0  0  0  0  0  0  0  0  0
   10.7840    0.5430   23.3380 C   0  0  0  0  0  0  0  0  0  0  0  0
    9.5250   -1.1560   22.1680 C   0  0  0  0  0  0  0  0  0  0  0  0
    8.9390   -0.7850   24.7760 S   0  0  2  0  0  0  0  0  0  0  0  0
    7.6490   -1.6090   24.8130 N   0  0  0  0  0  0  0  0  0  0  0  0
    8.6580   -0.1630   21.4370 C   0  0  0  0  0  0  0  0  0  0  0  0
    9.2040    0.3550   25.6290 O   0  0  0  0  0  0  0  0  0  0  0  0
    9.7400   -2.0490   25.2930 C   0  0  0  0  0  0  0  0  0  0  0  0
    9.1050    1.1990   21.1910 O   0  0  0  0  0  0  0  0  0  0  0  0
    7.4310   -0.5950   21.0280 N   0  0  0  0  0  0  0  0  0  0  0  0
    7.6990   -2.8430   25.6690 C   0  0  2  0  0  0  0  0  0  0  0  0
   11.2410   -2.2360   25.2450 C   0  0  0  0  0  0  0  0  0  0  0  0
    9.0680   -3.1840   25.8870 C   0  0  0  0  0  0  0  0  0  0  0  0
    6.6520    0.0810   20.0260 C   0  0  0  0  0  0  0  0  0  0  0  0
   12.0010   -1.2910   24.7020 N   0  0  0  0  0  0  0  0  0  0  0  0
   11.6700   -3.4090   25.8090 C   0  0  0  0  0  0  0  0  0  0  0  0
    9.4870   -4.2900   26.4340 C   0  0  0  0  0  0  0  0  0  0  0  0
    7.8460   -3.9750   24.7070 C   0  0  0  0  0  0  0  0  0  0  0  0
    5.5980    0.8320   20.3690 C   0  0  0  0  0  0  0  0  0  0  0  0
    6.9250    0.0300   18.5460 C   0  0  0  0  0  0  0  0  0  0  0  0
   13.1410   -3.6510   25.8490 C   0  0  0  0  0  0  0  0  0  0  0  0
   13.2870   -1.4750   24.7130 C   0  0  0  0  0  0  0  0  0  0  0  0
   10.8160   -4.3650   26.3700 C   0  0  0  0  0  0  0  0  0  0  0  0
    8.8860   -5.1450   24.6860 C   0  0  0  0  0  0  0  0  0  0  0  0
    6.9690   -3.8910   23.7740 C   0  0  0  0  0  0  0  0  0  0  0  0
    5.1690    0.9920   21.8420 C   0  0  0  0  0  0  0  0  0  0  0  0
    6.2250    0.6690   17.5330 N   0  0  0  0  0  0  0  0  0  0  0  0
    4.8390    1.5050   19.4410 C   0  0  0  0  0  0  0  0  0  0  0  0
   13.9300   -2.6810   25.3180 C   0  0  0  0  0  0  0  0  0  0  0  0
    8.8000   -6.0360   23.6460 C   0  0  0  0  0  0  0  0  0  0  0  0
    7.0260   -4.9210   22.7570 C   0  0  0  0  0  0  0  0  0  0  0  0
    5.9810   -4.6280   21.9520 N   0  0  0  0  0  0  0  0  0  0  0  0
    5.1910    1.4060   17.9690 C   0  0  0  0  0  0  0  0  0  0  0  0
    7.8850   -5.9900   22.6210 C   0  0  0  0  0  0  0  0  0  0  0  0
    6.0280   -4.3770   20.5730 C   0  0  0  0  0  0  0  0  0  0  0  0
    5.0460   -5.3590   22.8190 C   0  0  2  0  0  0  0  0  0  0  0  0
    5.1570   -4.8380   19.9100 O   0  0  0  0  0  0  0  0  0  0  0  0
    7.1180   -3.4430   19.9280 C   0  0  0  0  0  0  0  0  0  0  0  0
    4.5170   -6.4890   22.1220 C   0  0  0  0  0  0  0  0  0  0  0  0
    4.1210   -4.6020   23.4640 C   0  0  0  0  0  0  0  0  0  0  0  0
    3.3060   -6.0210   24.1430 S   0  0  0  0  0  0  0  0  0  0  0  0
    3.4660   -6.9530   22.7950 C   0  0  0  0  0  0  0  0  0  0  0  0
    4.1450   -6.5870   25.1870 O   0  0  0  0  0  0  0  0  0  0  0  0
    1.9280   -5.6950   24.4140 O   0  0  0  0  0  0  0  0  0  0  0  0
  1  2  1  0
  1  3  1  0
  4  1  1  6
  4  5  2  0
  3  6  1  0
  4  7  2  0
  4  8  1  0
  6  9  2  0
  6 10  1  0
  5 11  1  0
  8 12  2  0
  8 13  1  0
 11 13  1  0
 10 14  1  0
 12 15  1  0
 12 16  1  0
 13 17  2  0
 11 18  1  6
 14 19  2  0
 14 20  1  0
 16 21  1  0
 15 22  2  0
 16 23  2  0
 17 23  1  0
 18 24  2  0
 18 25  1  0
 19 26  1  0
 20 27  2  0
 19 28  1  0
 21 29  2  0
 22 29  1  0
 24 30  1  0
 25 31  2  0
 31 32  1  0
 27 33  1  0
 28 33  2  0
 30 34  2  0
 31 34  1  0
 32 35  1  0
 36 32  1  6
 35 37  2  0
 35 38  1  0
 36 39  1  0
 36 40  1  0
 40 41  1  0
 39 42  2  0
 41 42  1  0
 41 43  1  0
 41 44  1  0
M  END
