x3080-x0731
     RDKit          3D

 46 50  0  0  0  0  0  0  0  0999 V2000
    9.8490   -0.5550   23.3160 N   0  0  0  0  0  0  0  0  0  0  0  0
   10.7250    0.6050   23.5570 C   0  0  0  0  0  0  0  0  0  0  0  0
    9.6670   -0.9390   22.0250 C   0  0  0  0  0  0  0  0  0  0  0  0
    8.6970   -1.0100   24.4730 S   0  0  2  0  0  0  0  0  0  0  0  0
    7.4660   -1.4920   23.6610 N   0  0  0  0  0  0  0  0  0  0  0  0
    8.6850    0.0120   21.3920 C   0  0  0  0  0  0  0  0  0  0  0  0
    8.6750    0.0450   25.4730 O   0  0  0  0  0  0  0  0  0  0  0  0
    9.4260   -2.4390   25.2410 C   0  0  0  0  0  0  0  0  0  0  0  0
    9.0560    1.3920   21.1570 O   0  0  0  0  0  0  0  0  0  0  0  0
    7.4420   -0.4520   21.0560 N   0  0  0  0  0  0  0  0  0  0  0  0
    6.3740   -2.3490   24.2130 C   0  0  0  0  0  0  0  0  0  0  0  0
   10.8190   -2.5240   25.2720 C   0  0  0  0  0  0  0  0  0  0  0  0
    8.5440   -3.3980   25.7780 C   0  0  0  0  0  0  0  0  0  0  0  0
    6.7330    0.0580   20.0680 C   0  0  0  0  0  0  0  0  0  0  0  0
   11.6370   -1.5340   24.7160 N   0  0  0  0  0  0  0  0  0  0  0  0
   11.3410   -3.7620   25.9610 C   0  0  0  0  0  0  0  0  0  0  0  0
    9.0690   -4.5070   26.3840 C   0  0  0  0  0  0  0  0  0  0  0  0
    6.2550   -3.6680   23.4680 C   0  0  1  0  0  0  0  0  0  0  0  0
    5.5770    0.7980   20.3820 C   0  0  0  0  0  0  0  0  0  0  0  0
    7.0040   -0.0390   18.6040 C   0  0  0  0  0  0  0  0  0  0  0  0
   12.7490   -3.8360   26.0230 C   0  0  0  0  0  0  0  0  0  0  0  0
   12.9730   -1.6370   24.7790 C   0  0  0  0  0  0  0  0  0  0  0  0
   10.4050   -4.6680   26.4660 C   0  0  0  0  0  0  0  0  0  0  0  0
    7.3070   -4.0350   22.6540 C   0  0  0  0  0  0  0  0  0  0  0  0
    5.9620   -4.9810   24.2010 N   0  0  0  0  0  0  0  0  0  0  0  0
    5.1550    0.9850   21.8050 C   0  0  0  0  0  0  0  0  0  0  0  0
    5.3860   -5.1440   25.7830 S   0  0  0  0  0  0  0  0  0  0  0  0
    6.2240    0.5400   17.6670 N   0  0  0  0  0  0  0  0  0  0  0  0
    4.8250    1.3580   19.4200 C   0  0  0  0  0  0  0  0  0  0  0  0
   13.5380   -2.8470   25.4730 C   0  0  0  0  0  0  0  0  0  0  0  0
    6.7970   -5.0140   21.6800 N   0  0  0  0  0  0  0  0  0  0  0  0
    5.4160   -6.0140   23.2590 C   0  0  0  0  0  0  0  0  0  0  0  0
    6.3820   -4.6800   26.7150 O   0  0  0  0  0  0  0  0  0  0  0  0
    4.8060   -6.4640   25.8980 O   0  0  0  0  0  0  0  0  0  0  0  0
    6.2480   -4.6330   20.4890 C   0  0  0  0  0  0  0  0  0  0  0  0
    5.1720    1.2160   18.1050 C   0  0  0  0  0  0  0  0  0  0  0  0
    4.0640   -3.9830   25.8600 C   0  0  0  0  0  0  0  0  0  0  0  0
    6.2900   -6.2630   22.2470 C   0  0  0  0  0  0  0  0  0  0  0  0
    5.2880   -5.1810   19.9970 O   0  0  0  0  0  0  0  0  0  0  0  0
    6.8910   -3.4900   19.7150 C   0  0  0  0  0  0  0  0  0  0  0  0
    2.8190   -4.2780   25.3170 C   0  0  0  0  0  0  0  0  0  0  0  0
    4.2760   -2.6420   26.5310 C   0  0  0  0  0  0  0  0  0  0  0  0
    1.6970   -3.2280   25.4310 C   0  0  0  0  0  0  0  0  0  0  0  0
    3.2630   -1.7490   26.6080 C   0  0  0  0  0  0  0  0  0  0  0  0
    1.9940   -2.0150   26.0820 C   0  0  0  0  0  0  0  0  0  0  0  0
    0.9350   -0.9690   26.2310 C   0  0  0  0  0  0  0  0  0  0  0  0
  1  2  1  0
  1  3  1  0
  4  1  1  6
  4  5  2  0
  3  6  1  0
  4  7  2  0
  4  8  1  0
  6  9  2  0
  6 10  1  0
  5 11  1  0
  8 12  1  0
  8 13  2  0
 10 14  1  0
 12 15  2  0
 12 16  1  0
 13 17  1  0
 18 11  1  1
 14 19  2  0
 14 20  1  0
 16 21  2  0
 15 22  1  0
 16 23  1  0
 17 23  2  0
 18 24  1  0
 18 25  1  0
 19 26  1  0
 25 27  1  0
 20 28  2  0
 19 29  1  0
 21 30  1  0
 22 30  2  0
 24 31  1  0
 25 32  1  0
 27 33  2  0
 27 34  2  0
 31 35  1  0
 28 36  1  0
 29 36  2  0
 27 37  1  0
 31 38  1  0
 32 38  1  0
 35 39  2  0
 35 40  1  0
 37 41  2  0
 37 42  1  0
 41 43  1  0
 42 44  2  0
 43 45  2  0
 44 45  1  0
 45 46  1  0
M  END
