x3080-x0104
     RDKit          3D

 41 45  0  0  0  0  0  0  0  0999 V2000
    9.4510   -0.9910   23.2290 N   0  0  0  0  0  0  0  0  0  0  0  0
    8.9490   -1.5900   22.0200 C   0  0  0  0  0  0  0  0  0  0  0  0
    8.1980   -0.5380   21.3290 C   0  0  0  0  0  0  0  0  0  0  0  0
    8.4850   -1.0370   24.5860 S   0  0  0  0  0  0  0  0  0  0  0  0
   10.7370   -0.4980   23.1560 C   0  0  0  0  0  0  0  0  0  0  0  0
    7.1380   -1.3210   24.1460 O   0  0  0  0  0  0  0  0  0  0  0  0
    8.7990    0.1210   25.3930 O   0  0  0  0  0  0  0  0  0  0  0  0
    9.1460   -2.3830   25.2030 C   0  0  0  0  0  0  0  0  0  0  0  0
   11.2200    0.7260   23.9020 C   0  0  2  0  0  0  0  0  0  0  0  0
   11.6700   -1.2980   22.2800 C   0  0  0  0  0  0  0  0  0  0  0  0
    8.7260    0.7870   21.1540 O   0  0  0  0  0  0  0  0  0  0  0  0
    7.1580   -0.7390   20.9370 N   0  0  0  0  0  0  0  0  0  0  0  0
   10.7260   -2.5530   25.3180 C   0  0  0  0  0  0  0  0  0  0  0  0
    8.3400   -3.5510   25.7160 C   0  0  0  0  0  0  0  0  0  0  0  0
   10.2650    1.6850   24.1740 N   0  0  0  0  0  0  0  0  0  0  0  0
   12.2360    1.2780   23.1680 C   0  0  0  0  0  0  0  0  0  0  0  0
   12.9160   -0.8900   22.1670 C   0  0  0  0  0  0  0  0  0  0  0  0
   13.7460   -1.7350   21.6170 F   0  0  0  0  0  0  0  0  0  0  0  0
    6.4790    0.0380   19.9460 C   0  0  0  0  0  0  0  0  0  0  0  0
   11.6050   -1.6110   24.9010 N   0  0  0  0  0  0  0  0  0  0  0  0
   11.1530   -3.7060   25.8750 C   0  0  0  0  0  0  0  0  0  0  0  0
    8.8900   -4.6560   26.2420 C   0  0  0  0  0  0  0  0  0  0  0  0
   12.0020    2.7320   23.0520 C   0  0  0  0  0  0  0  0  0  0  0  0
   10.8040    2.9810   23.6640 C   0  0  0  0  0  0  0  0  0  0  0  0
   13.2700    0.5060   22.6600 C   0  0  0  0  0  0  0  0  0  0  0  0
   12.7910    3.8080   22.4040 C   0  0  0  0  0  0  0  0  0  0  0  0
    5.4690    0.8440   20.3620 C   0  0  0  0  0  0  0  0  0  0  0  0
    6.8710   -0.0330   18.4910 C   0  0  0  0  0  0  0  0  0  0  0  0
   12.6680   -3.8830   26.0310 C   0  0  0  0  0  0  0  0  0  0  0  0
   12.9340   -1.7130   24.9930 C   0  0  0  0  0  0  0  0  0  0  0  0
   10.2630   -4.7170   26.3160 C   0  0  0  0  0  0  0  0  0  0  0  0
    5.1400    0.8550   21.8290 C   0  0  0  0  0  0  0  0  0  0  0  0
   12.5780    5.2130   23.0230 C   0  0  0  0  0  0  0  0  0  0  0  0
    6.2240    0.7330   17.4340 N   0  0  0  0  0  0  0  0  0  0  0  0
    4.8160    1.5970   19.4050 C   0  0  0  0  0  0  0  0  0  0  0  0
   13.5570   -2.9090   25.6000 C   0  0  0  0  0  0  0  0  0  0  0  0
   11.3520    5.8240   22.4680 N   0  0  0  0  0  0  0  0  0  0  0  0
    5.1660    1.5710   17.9360 C   0  0  0  0  0  0  0  0  0  0  0  0
   10.2650    6.2490   23.3620 C   0  0  0  0  0  0  0  0  0  0  0  0
    8.9430    6.5990   22.6860 C   0  0  0  0  0  0  0  0  0  0  0  0
   10.4090    6.3190   24.5940 O   0  0  0  0  0  0  0  0  0  0  0  0
  1  2  1  0
  2  3  1  0
  4  1  1  0
  1  5  1  0
  4  6  2  0
  4  7  2  0
  4  8  1  0
  5  9  1  0
  5 10  2  0
  3 11  2  0
  3 12  1  0
  8 13  1  0
  8 14  2  0
  9 15  1  6
  9 16  1  0
 10 17  1  0
 17 18  1  0
 12 19  1  0
 13 20  2  0
 13 21  1  0
 14 22  1  0
 16 23  2  0
 15 24  2  0
 23 24  1  0
 16 25  1  0
 17 25  2  0
 23 26  1  0
 19 27  2  0
 19 28  1  0
 21 29  2  0
 20 30  1  0
 21 31  1  0
 22 31  2  0
 27 32  1  0
 26 33  1  0
 28 34  2  0
 27 35  1  0
 29 36  1  0
 30 36  2  0
 33 37  1  0
 34 38  1  0
 35 38  2  0
 37 39  1  0
 39 40  1  0
 39 41  2  0
M  END
