x3080-x0705
     RDKit          3D

 43 47  0  0  0  0  0  0  0  0999 V2000
    9.6920   -0.2000   23.5140 N   0  0  0  0  0  0  0  0  0  0  0  0
   10.6470    0.7110   24.1530 C   0  0  0  0  0  0  0  0  0  0  0  0
    9.9090   -0.5340   22.2190 C   0  0  0  0  0  0  0  0  0  0  0  0
    8.6870   -1.1880   24.4440 S   0  0  0  0  0  0  0  0  0  0  0  0
    8.8670    0.1780   21.3960 C   0  0  0  0  0  0  0  0  0  0  0  0
    8.7390   -0.0420   25.3440 O   0  0  0  0  0  0  0  0  0  0  0  0
    9.3950   -2.4670   25.2300 C   0  0  0  0  0  0  0  0  0  0  0  0
    7.2890   -1.5100   23.3960 C   0  0  2  0  0  0  0  0  0  0  0  0
    9.0280    1.5940   21.1660 O   0  0  0  0  0  0  0  0  0  0  0  0
    7.7800   -0.5010   20.8870 N   0  0  0  0  0  0  0  0  0  0  0  0
   10.7800   -2.5800   25.2450 C   0  0  0  0  0  0  0  0  0  0  0  0
    8.5460   -3.3980   25.8640 C   0  0  0  0  0  0  0  0  0  0  0  0
    6.2950   -1.8440   24.2390 N   0  0  0  0  0  0  0  0  0  0  0  0
    7.5710   -2.6500   22.3870 C   0  0  0  0  0  0  0  0  0  0  0  0
    7.1340   -3.1890   25.8280 O   0  0  0  0  0  0  0  0  0  0  0  0
    6.8820    0.1120   19.9540 C   0  0  0  0  0  0  0  0  0  0  0  0
   11.6790   -1.5950   24.6000 N   0  0  0  0  0  0  0  0  0  0  0  0
   11.3250   -3.7740   25.9790 C   0  0  0  0  0  0  0  0  0  0  0  0
    9.0950   -4.4660   26.5010 C   0  0  0  0  0  0  0  0  0  0  0  0
    6.4690   -3.0010   21.6970 N   0  0  0  0  0  0  0  0  0  0  0  0
    5.1440   -2.3570   23.7380 C   0  0  0  0  0  0  0  0  0  0  0  0
    6.6050   -3.6700   20.5180 C   0  0  0  0  0  0  0  0  0  0  0  0
    5.7630    0.8470   20.3800 C   0  0  0  0  0  0  0  0  0  0  0  0
    7.0670    0.0320   18.6100 C   0  0  0  0  0  0  0  0  0  0  0  0
   12.6580   -3.8810   26.0330 C   0  0  0  0  0  0  0  0  0  0  0  0
   12.9960   -1.7850   24.7080 C   0  0  0  0  0  0  0  0  0  0  0  0
   10.4120   -4.6720   26.5700 C   0  0  0  0  0  0  0  0  0  0  0  0
    5.4720   -3.2410   22.5360 C   0  0  0  0  0  0  0  0  0  0  0  0
    6.3930   -3.4390   27.0300 C   0  0  0  0  0  0  0  0  0  0  0  0
    5.4360    0.9980   21.8500 C   0  0  0  0  0  0  0  0  0  0  0  0
    5.8270   -3.5880   19.5460 O   0  0  0  0  0  0  0  0  0  0  0  0
    7.7700   -4.5820   20.4580 C   0  0  0  0  0  0  0  0  0  0  0  0
    6.2030    0.6690   17.6190 N   0  0  0  0  0  0  0  0  0  0  0  0
    4.8490    1.5210   19.3560 C   0  0  0  0  0  0  0  0  0  0  0  0
   13.5380   -2.8500   25.3840 C   0  0  0  0  0  0  0  0  0  0  0  0
    5.1320   -2.7230   26.9180 C   0  0  0  0  0  0  0  0  0  0  0  0
    5.0730    1.4400   18.0170 C   0  0  0  0  0  0  0  0  0  0  0  0
    5.1130   -1.4350   26.3960 C   0  0  0  0  0  0  0  0  0  0  0  0
    3.7480   -3.2500   27.3190 C   0  0  0  0  0  0  0  0  0  0  0  0
    2.5440   -2.5510   27.1870 C   0  0  0  0  0  0  0  0  0  0  0  0
    3.8570   -0.6460   26.2230 C   0  0  0  0  0  0  0  0  0  0  0  0
    1.2970   -3.0420   27.5580 C   0  0  0  0  0  0  0  0  0  0  0  0
    2.6370   -1.1630   26.5910 C   0  0  0  0  0  0  0  0  0  0  0  0
  1  2  1  0
  1  3  1  0
  1  4  1  0
  3  5  1  0
  4  6  2  0
  4  7  1  0
  8  4  1  1
  5  9  2  0
  5 10  1  0
  7 11  1  0
  7 12  2  0
  8 13  1  0
  8 14  1  0
 12 15  1  0
 10 16  1  0
 11 17  2  0
 11 18  1  0
 12 19  1  0
 14 20  1  0
 13 21  1  0
 20 22  1  0
 16 23  2  0
 16 24  1  0
 18 25  2  0
 17 26  1  0
 18 27  1  0
 19 27  2  0
 20 28  1  0
 21 28  1  0
 15 29  1  0
 23 30  1  0
 22 31  2  0
 22 32  1  0
 24 33  2  0
 23 34  1  0
 25 35  1  0
 26 35  2  0
 29 36  1  0
 33 37  1  0
 34 37  2  0
 36 38  2  0
 36 39  1  0
 39 40  2  0
 38 41  1  0
 40 42  1  0
 40 43  1  0
 41 43  2  0
M  END
