x3080-x0946
     RDKit          3D

 36 40  0  0  0  0  0  0  0  0999 V2000
    9.7180   -0.1160   23.3430 N   0  0  0  0  0  0  0  0  0  0  0  0
    9.5130   -0.8590   22.0980 C   0  0  0  0  0  0  0  0  0  0  0  0
    8.4820   -0.1390   21.2960 C   0  0  0  0  0  0  0  0  0  0  0  0
    8.9260   -0.6360   24.7090 S   0  0  0  0  0  0  0  0  0  0  0  0
   10.6790    0.9250   23.3060 C   0  0  0  0  0  0  0  0  0  0  0  0
    7.5430   -0.8640   24.3340 O   0  0  0  0  0  0  0  0  0  0  0  0
    9.2810    0.2570   25.7830 O   0  0  0  0  0  0  0  0  0  0  0  0
    9.5790   -2.1690   24.9220 C   0  0  0  0  0  0  0  0  0  0  0  0
   12.0320    0.5350   23.1530 C   0  0  0  0  0  0  0  0  0  0  0  0
   10.2790    2.2950   23.4000 C   0  0  0  0  0  0  0  0  0  0  0  0
    8.6430    1.2660   20.9880 O   0  0  0  0  0  0  0  0  0  0  0  0
    7.5200   -0.6520   20.9040 N   0  0  0  0  0  0  0  0  0  0  0  0
   12.3960   -0.8750   23.1290 N   0  0  0  0  0  0  0  0  0  0  0  0
   10.9880   -2.4160   24.8710 C   0  0  0  0  0  0  0  0  0  0  0  0
    8.6390   -3.3020   25.2110 C   0  0  0  0  0  0  0  0  0  0  0  0
   12.9550    1.5710   23.0290 C   0  0  0  0  0  0  0  0  0  0  0  0
   11.2100    3.3430   23.3150 C   0  0  0  0  0  0  0  0  0  0  0  0
   10.7240    5.0160   23.4690 S   0  0  0  0  0  0  0  0  0  0  0  0
   12.9790   -1.3960   21.8910 C   0  0  0  0  0  0  0  0  0  0  0  0
    6.7490    0.0060   19.9280 C   0  0  0  0  0  0  0  0  0  0  0  0
   11.2620   -3.4560   25.7370 C   0  0  2  0  0  0  0  0  0  0  0  0
   12.1850   -1.8800   24.1590 C   0  0  0  0  0  0  0  0  0  0  0  0
    9.1750   -4.5760   25.3960 C   0  0  0  0  0  0  0  0  0  0  0  0
   12.6590    2.9380   23.0820 C   0  0  0  0  0  0  0  0  0  0  0  0
    9.2590    5.0630   22.6660 N   0  0  0  0  0  0  0  0  0  0  0  0
   10.3910    5.3370   24.8390 O   0  0  0  0  0  0  0  0  0  0  0  0
   11.6230    5.8830   22.7430 O   0  0  0  0  0  0  0  0  0  0  0  0
    5.6910    0.7050   20.4860 C   0  0  0  0  0  0  0  0  0  0  0  0
    6.9980   -0.0240   18.5860 C   0  0  0  0  0  0  0  0  0  0  0  0
   12.7910   -3.5840   25.7670 C   0  0  0  0  0  0  0  0  0  0  0  0
   13.2310   -2.6020   24.7470 C   0  0  0  0  0  0  0  0  0  0  0  0
   10.5320   -4.6540   25.6460 C   0  0  0  0  0  0  0  0  0  0  0  0
    5.4290    0.7280   21.8870 C   0  0  0  0  0  0  0  0  0  0  0  0
    6.2900    0.6010   17.6290 N   0  0  0  0  0  0  0  0  0  0  0  0
    4.7870    1.4780   19.4860 C   0  0  0  0  0  0  0  0  0  0  0  0
    5.2400    1.3200   18.0440 C   0  0  0  0  0  0  0  0  0  0  0  0
  1  2  1  0
  2  3  1  0
  4  1  1  0
  1  5  1  0
  4  6  2  0
  4  7  2  0
  4  8  1  0
  5  9  2  0
  5 10  1  0
  3 11  2  0
  3 12  1  0
  9 13  1  0
  8 14  1  0
  8 15  2  0
  9 16  1  0
 10 17  2  0
 17 18  1  0
 13 19  1  0
 12 20  1  0
 14 21  1  0
 13 22  1  0
 14 22  2  0
 15 23  1  0
 16 24  2  0
 17 24  1  0
 18 25  1  0
 18 26  2  0
 18 27  2  0
 20 28  2  0
 20 29  1  0
 21 30  1  6
 22 31  1  0
 30 31  2  0
 21 32  1  0
 23 32  2  0
 28 33  1  0
 29 34  2  0
 28 35  1  0
 34 36  1  0
 35 36  2  0
M  END
