x3080-x0540
     RDKit          3D

 37 40  0  0  0  0  0  0  0  0999 V2000
    9.9610   -0.4420   23.3630 N   0  0  0  0  0  0  0  0  0  0  0  0
   10.7990    0.7630   23.4970 C   0  0  0  0  0  0  0  0  0  0  0  0
    9.8160   -0.9820   22.1220 C   0  0  0  0  0  0  0  0  0  0  0  0
    8.8280   -0.8390   24.5540 S   0  0  0  0  0  0  0  0  0  0  0  0
    7.5930   -1.2100   23.8890 O   0  0  0  0  0  0  0  0  0  0  0  0
    8.8410   -0.1430   21.3440 C   0  0  0  0  0  0  0  0  0  0  0  0
    8.8490    0.1940   25.5700 O   0  0  0  0  0  0  0  0  0  0  0  0
    9.4190   -2.2620   25.2050 C   0  0  0  0  0  0  0  0  0  0  0  0
    9.0630    1.2880   21.2140 O   0  0  0  0  0  0  0  0  0  0  0  0
    7.7540   -0.7550   20.7730 N   0  0  0  0  0  0  0  0  0  0  0  0
   10.7880   -2.4200   25.2670 C   0  0  0  0  0  0  0  0  0  0  0  0
    8.5120   -3.2290   25.6650 C   0  0  0  0  0  0  0  0  0  0  0  0
    6.8470   -0.0590   19.9060 C   0  0  0  0  0  0  0  0  0  0  0  0
   11.6450   -1.4470   24.7920 N   0  0  0  0  0  0  0  0  0  0  0  0
   11.2510   -3.7100   25.8910 C   0  0  0  0  0  0  0  0  0  0  0  0
    8.9920   -4.4010   26.2190 C   0  0  0  0  0  0  0  0  0  0  0  0
    5.7360    0.6020   20.4300 C   0  0  0  0  0  0  0  0  0  0  0  0
    7.0050    0.0150   18.5490 C   0  0  0  0  0  0  0  0  0  0  0  0
   12.5960   -3.8420   25.9780 C   0  0  0  0  0  0  0  0  0  0  0  0
   12.9530   -1.6400   24.8910 C   0  0  0  0  0  0  0  0  0  0  0  0
   10.3190   -4.6630   26.3450 C   0  0  0  0  0  0  0  0  0  0  0  0
    5.4750    0.5640   21.9210 C   0  0  0  0  0  0  0  0  0  0  0  0
    6.2410    0.6490   17.6160 N   0  0  0  0  0  0  0  0  0  0  0  0
    4.8140    1.3480   19.4700 C   0  0  0  0  0  0  0  0  0  0  0  0
   13.5220   -2.7620   25.4560 C   0  0  0  0  0  0  0  0  0  0  0  0
    5.4150    2.0060   22.5370 C   0  0  0  0  0  0  0  0  0  0  0  0
    5.1020    1.3430   18.1420 C   0  0  0  0  0  0  0  0  0  0  0  0
    4.1060    2.6730   22.4040 N   0  0  0  0  0  0  0  0  0  0  0  0
    3.0360    2.4650   23.4040 C   0  0  0  0  0  0  0  0  0  0  0  0
    3.1170    1.6580   24.3460 O   0  0  0  0  0  0  0  0  0  0  0  0
    1.8850    3.3490   23.1130 N   0  0  0  0  0  0  0  0  0  0  0  0
    0.6510    3.3340   23.9180 C   0  0  0  0  0  0  0  0  0  0  0  0
    0.4690    4.7350   24.5080 C   0  0  0  0  0  0  0  0  0  0  0  0
   -0.4190    3.0180   23.0800 C   0  0  0  0  0  0  0  0  0  0  0  0
   -0.7350    4.7700   25.1900 C   0  0  0  0  0  0  0  0  0  0  0  0
   -1.7440    3.1890   23.8330 C   0  0  0  0  0  0  0  0  0  0  0  0
   -1.7530    4.5210   24.2560 C   0  0  0  0  0  0  0  0  0  0  0  0
  1  2  1  0
  1  3  1  0
  4  1  1  0
  4  5  2  0
  3  6  1  0
  4  7  2  0
  4  8  1  0
  6  9  2  0
  6 10  1  0
  8 11  1  0
  8 12  2  0
 10 13  1  0
 11 14  2  0
 11 15  1  0
 12 16  1  0
 13 17  1  0
 13 18  2  0
 15 19  2  0
 14 20  1  0
 15 21  1  0
 16 21  2  0
 17 22  1  0
 18 23  1  0
 17 24  2  0
 19 25  1  0
 20 25  2  0
 22 26  1  0
 23 27  2  0
 24 27  1  0
 26 28  1  0
 28 29  1  0
 29 30  2  0
 29 31  1  0
 31 32  1  0
 32 33  1  0
 32 34  1  0
 33 35  1  0
 34 36  1  0
 35 37  1  0
 36 37  1  0
M  END
