x3080-x0195
     RDKit          3D

 39 44  0  0  0  0  0  0  0  0999 V2000
    9.6350   -0.5280   23.2680 N   0  0  0  0  0  0  0  0  0  0  0  0
    9.5130   -1.1050   21.9470 C   0  0  0  0  0  0  0  0  0  0  0  0
    8.5250   -0.2600   21.2570 C   0  0  0  0  0  0  0  0  0  0  0  0
    8.6050   -1.0370   24.4540 S   0  0  0  0  0  0  0  0  0  0  0  0
   10.9030   -0.0620   23.7560 N   0  0  0  0  0  0  0  0  0  0  0  0
    7.3890   -1.4760   23.8090 O   0  0  0  0  0  0  0  0  0  0  0  0
    8.5700    0.0260   25.4320 O   0  0  0  0  0  0  0  0  0  0  0  0
    9.3710   -2.4060   25.0960 C   0  0  0  0  0  0  0  0  0  0  0  0
   11.3620    1.1810   23.4730 C   0  0  0  0  0  0  0  0  0  0  0  0
   11.8240   -0.9830   23.8770 C   0  0  1  0  0  0  0  0  0  0  0  0
    8.7590    1.1560   21.0480 O   0  0  0  0  0  0  0  0  0  0  0  0
    7.5350   -0.6720   20.8770 N   0  0  0  0  0  0  0  0  0  0  0  0
   11.7930   -2.1660   24.3870 N   0  0  0  0  0  0  0  0  0  0  0  0
   10.8030   -2.5930   25.2320 C   0  0  2  0  0  0  0  0  0  0  0  0
    8.3200   -3.4340   25.5900 C   0  0  0  0  0  0  0  0  0  0  0  0
   12.6200    1.3370   22.9730 C   0  0  0  0  0  0  0  0  0  0  0  0
   12.5900   -0.9200   22.5980 C   0  0  0  0  0  0  0  0  0  0  0  0
   10.5510    2.3300   23.6950 C   0  0  0  0  0  0  0  0  0  0  0  0
    6.6900    0.0530   20.0050 C   0  0  0  0  0  0  0  0  0  0  0  0
   11.1040   -3.8090   25.9230 C   0  0  0  0  0  0  0  0  0  0  0  0
   13.0850   -2.2180   24.8070 C   0  0  0  0  0  0  0  0  0  0  0  0
    8.7500   -4.6980   26.2470 C   0  0  0  0  0  0  0  0  0  0  0  0
   13.3660    0.1840   22.7800 C   0  0  0  0  0  0  0  0  0  0  0  0
   13.1640    2.5730   22.6680 C   0  0  0  0  0  0  0  0  0  0  0  0
   10.9860    3.6500   23.4190 C   0  0  0  0  0  0  0  0  0  0  0  0
    9.9980    5.0990   23.6790 S   0  0  0  0  0  0  0  0  0  0  0  0
    5.4970    0.8830   20.5230 C   0  0  0  0  0  0  0  0  0  0  0  0
    6.9710    0.0260   18.5100 C   0  0  0  0  0  0  0  0  0  0  0  0
   12.4510   -3.9890   26.1450 C   0  0  0  0  0  0  0  0  0  0  0  0
   13.5150   -3.0760   25.7000 C   0  0  0  0  0  0  0  0  0  0  0  0
   10.0960   -4.8150   26.3850 C   0  0  0  0  0  0  0  0  0  0  0  0
   12.3760    3.8420   22.8670 C   0  0  0  0  0  0  0  0  0  0  0  0
    5.1300    0.9740   21.9700 C   0  0  0  0  0  0  0  0  0  0  0  0
    9.7550    5.3430   25.0740 O   0  0  0  0  0  0  0  0  0  0  0  0
    8.8980    5.0640   22.7530 O   0  0  0  0  0  0  0  0  0  0  0  0
   11.0440    6.3080   23.1680 N   0  0  0  0  0  0  0  0  0  0  0  0
    6.2280    0.7230   17.4550 N   0  0  0  0  0  0  0  0  0  0  0  0
    4.7480    1.5960   19.4120 C   0  0  0  0  0  0  0  0  0  0  0  0
    5.1170    1.5100   17.9510 C   0  0  0  0  0  0  0  0  0  0  0  0
  1  2  1  0
  2  3  1  0
  4  1  1  0
  1  5  1  0
  4  6  2  0
  4  7  2  0
  4  8  1  0
  5  9  1  0
  5 10  1  0
  3 11  2  0
  3 12  1  0
 10 13  1  0
 14  8  1  6
 13 14  1  0
  8 15  2  0
  9 16  2  0
 10 17  1  6
  9 18  1  0
 12 19  1  0
 14 20  1  0
 13 21  1  0
 15 22  1  0
 16 23  1  0
 17 23  1  0
 16 24  1  0
 18 25  2  0
 25 26  1  0
 19 27  2  0
 19 28  1  0
 20 29  2  0
 21 30  2  0
 29 30  1  0
 20 31  1  0
 22 31  2  0
 24 32  2  0
 25 32  1  0
 27 33  1  0
 26 34  2  0
 26 35  2  0
 26 36  1  0
 28 37  2  0
 27 38  1  0
 37 39  1  0
 38 39  2  0
M  END
