x3080-x1478
     RDKit          3D

 38 42  0  0  0  0  0  0  0  0999 V2000
    9.7330   -0.5990   23.4180 N   0  0  0  0  0  0  0  0  0  0  0  0
   10.5780    0.6090   23.5470 C   0  0  0  0  0  0  0  0  0  0  0  0
    9.4740   -1.0090   22.1320 C   0  0  0  0  0  0  0  0  0  0  0  0
    8.5340   -0.8540   24.6020 S   0  0  2  0  0  0  0  0  0  0  0  0
    7.1930   -1.0780   23.8190 N   0  0  0  0  0  0  0  0  0  0  0  0
    8.6040    0.0090   21.4070 C   0  0  0  0  0  0  0  0  0  0  0  0
    8.7250    0.1940   25.5910 O   0  0  0  0  0  0  0  0  0  0  0  0
    9.1750   -2.2470   25.1630 C   0  0  0  0  0  0  0  0  0  0  0  0
    9.1010    1.3520   21.1920 O   0  0  0  0  0  0  0  0  0  0  0  0
    7.3440   -0.3400   20.9480 N   0  0  0  0  0  0  0  0  0  0  0  0
   10.7760   -2.3790   25.2330 C   0  0  0  0  0  0  0  0  0  0  0  0
    8.4420   -3.4750   25.6640 C   0  0  0  0  0  0  0  0  0  0  0  0
    6.3700   -2.3170   23.8920 C   0  0  0  0  0  0  0  0  0  0  0  0
    6.4670   -1.3890   21.3680 C   0  0  0  0  0  0  0  0  0  0  0  0
    6.6250    0.3300   19.9270 C   0  0  0  0  0  0  0  0  0  0  0  0
   11.5890   -1.3650   24.8170 N   0  0  0  0  0  0  0  0  0  0  0  0
   11.2690   -3.5520   25.7390 C   0  0  0  0  0  0  0  0  0  0  0  0
    9.0620   -4.5590   26.1200 C   0  0  0  0  0  0  0  0  0  0  0  0
    6.2830   -3.1470   22.7570 C   0  0  0  0  0  0  0  0  0  0  0  0
    5.7220   -2.6210   25.0590 C   0  0  0  0  0  0  0  0  0  0  0  0
    6.8820   -2.7590   21.6070 N   0  0  0  0  0  0  0  0  0  0  0  0
    5.5820    1.1080   20.2380 C   0  0  0  0  0  0  0  0  0  0  0  0
    6.9610    0.1970   18.4890 C   0  0  0  0  0  0  0  0  0  0  0  0
   12.7880   -3.6960   25.8540 C   0  0  0  0  0  0  0  0  0  0  0  0
   12.9280   -1.4570   24.8900 C   0  0  0  0  0  0  0  0  0  0  0  0
   10.4240   -4.5980   26.1590 C   0  0  0  0  0  0  0  0  0  0  0  0
    5.5530   -4.3590   22.8550 C   0  0  0  0  0  0  0  0  0  0  0  0
    4.9740   -3.8130   25.1220 C   0  0  0  0  0  0  0  0  0  0  0  0
    5.1370    1.3080   21.7030 C   0  0  0  0  0  0  0  0  0  0  0  0
    5.3140   -5.5930   21.6900 Cl  0  0  0  0  0  0  0  0  0  0  0  0
    6.8000   -3.6170   20.4940 C   0  0  0  0  0  0  0  0  0  0  0  0
    6.2670    0.8240   17.4710 N   0  0  0  0  0  0  0  0  0  0  0  0
    4.8360    1.7710   19.3010 C   0  0  0  0  0  0  0  0  0  0  0  0
   13.6210   -2.6720   25.4410 C   0  0  0  0  0  0  0  0  0  0  0  0
    4.8720   -4.6780   24.1110 N   0  0  0  0  0  0  0  0  0  0  0  0
    7.9380   -4.5610   20.4340 C   0  0  0  0  0  0  0  0  0  0  0  0
    5.8910   -3.6240   19.6130 O   0  0  0  0  0  0  0  0  0  0  0  0
    5.2340    1.5950   17.8500 C   0  0  0  0  0  0  0  0  0  0  0  0
  1  2  1  0
  1  3  1  0
  1  4  1  0
  4  5  2  0
  3  6  1  0
  4  7  2  0
  4  8  1  1
  6  9  2  0
  6 10  1  0
  8 11  1  0
  8 12  2  0
  5 13  1  0
 10 14  1  0
 10 15  1  0
 11 16  2  0
 11 17  1  0
 12 18  1  0
 13 19  2  0
 13 20  1  0
 14 21  1  0
 19 21  1  0
 15 22  2  0
 15 23  1  0
 17 24  2  0
 16 25  1  0
 17 26  1  0
 18 26  2  0
 19 27  1  0
 20 28  2  0
 22 29  1  0
 27 30  1  0
 21 31  1  0
 23 32  2  0
 22 33  1  0
 24 34  1  0
 25 34  2  0
 27 35  2  0
 28 35  1  0
 31 36  1  0
 31 37  2  0
 32 38  1  0
 33 38  2  0
M  END
