x3080-x0771
     RDKit          3D

 47 51  0  0  0  0  0  0  0  0999 V2000
    9.7430   -0.5220   23.4020 N   0  0  0  0  0  0  0  0  0  0  0  0
   10.6120    0.6400   23.6560 C   0  0  0  0  0  0  0  0  0  0  0  0
    9.6360   -0.9370   22.1050 C   0  0  0  0  0  0  0  0  0  0  0  0
    8.6110   -1.0150   24.5800 S   0  0  2  0  0  0  0  0  0  0  0  0
    7.3780   -1.5540   23.8040 N   0  0  0  0  0  0  0  0  0  0  0  0
    8.6980   -0.0280   21.3380 C   0  0  0  0  0  0  0  0  0  0  0  0
    8.5620    0.0680   25.5470 O   0  0  0  0  0  0  0  0  0  0  0  0
    9.3910   -2.4340   25.2800 C   0  0  0  0  0  0  0  0  0  0  0  0
    9.0090    1.3790   21.1810 O   0  0  0  0  0  0  0  0  0  0  0  0
    7.5580   -0.5900   20.8170 N   0  0  0  0  0  0  0  0  0  0  0  0
    6.3460   -2.4650   24.4250 C   0  0  0  0  0  0  0  0  0  0  0  0
   10.7760   -2.5060   25.2880 C   0  0  0  0  0  0  0  0  0  0  0  0
    8.5640   -3.4350   25.8160 C   0  0  0  0  0  0  0  0  0  0  0  0
    6.7650    0.0540   19.9640 C   0  0  0  0  0  0  0  0  0  0  0  0
   11.5370   -1.5290   24.7660 N   0  0  0  0  0  0  0  0  0  0  0  0
   11.3290   -3.6380   25.8770 C   0  0  0  0  0  0  0  0  0  0  0  0
    9.1230   -4.5420   26.3790 C   0  0  0  0  0  0  0  0  0  0  0  0
    6.1300   -3.7460   23.5440 C   0  0  2  0  0  0  0  0  0  0  0  0
    5.6510    0.8030   20.3440 C   0  0  0  0  0  0  0  0  0  0  0  0
    7.0050    0.0170   18.6430 C   0  0  0  0  0  0  0  0  0  0  0  0
   12.7210   -3.7430   25.9400 C   0  0  0  0  0  0  0  0  0  0  0  0
   12.9940   -1.6050   24.8010 C   0  0  0  0  0  0  0  0  0  0  0  0
   10.4650   -4.6170   26.3990 C   0  0  0  0  0  0  0  0  0  0  0  0
    5.8630   -5.1210   24.1590 N   0  0  0  0  0  0  0  0  0  0  0  0
    7.2120   -3.9410   22.6860 C   0  0  0  0  0  0  0  0  0  0  0  0
    5.2150    0.9550   21.7870 C   0  0  0  0  0  0  0  0  0  0  0  0
    5.1280   -5.3460   25.6750 S   0  0  0  0  0  0  0  0  0  0  0  0
    6.3150    0.6180   17.6420 N   0  0  0  0  0  0  0  0  0  0  0  0
    4.8890    1.4540   19.3760 C   0  0  0  0  0  0  0  0  0  0  0  0
   13.5120   -2.7370   25.4100 C   0  0  0  0  0  0  0  0  0  0  0  0
    6.7650   -4.8270   21.6080 N   0  0  0  0  0  0  0  0  0  0  0  0
    5.3080   -5.9980   23.0730 C   0  0  0  0  0  0  0  0  0  0  0  0
    4.5880   -6.6890   25.7010 O   0  0  0  0  0  0  0  0  0  0  0  0
    6.1130   -4.9620   26.6570 O   0  0  0  0  0  0  0  0  0  0  0  0
    6.3110   -4.3430   20.4080 C   0  0  0  0  0  0  0  0  0  0  0  0
    5.1860    1.3850   18.0980 C   0  0  0  0  0  0  0  0  0  0  0  0
    3.7950   -4.1890   25.8440 C   0  0  0  0  0  0  0  0  0  0  0  0
    6.2410   -6.1480   22.0180 C   0  0  0  0  0  0  0  0  0  0  0  0
    5.2490   -4.6720   19.9200 O   0  0  0  0  0  0  0  0  0  0  0  0
    7.1730   -3.3380   19.6430 C   0  0  0  0  0  0  0  0  0  0  0  0
    2.4800   -4.6030   25.4820 C   0  0  0  0  0  0  0  0  0  0  0  0
    3.9690   -2.9280   26.3060 C   0  0  0  0  0  0  0  0  0  0  0  0
    2.1700   -5.9790   24.9580 C   0  0  0  0  0  0  0  0  0  0  0  0
    1.3720   -3.7510   25.5940 C   0  0  0  0  0  0  0  0  0  0  0  0
    2.8260   -1.9510   26.4550 C   0  0  0  0  0  0  0  0  0  0  0  0
    1.5240   -2.3160   26.1180 C   0  0  0  0  0  0  0  0  0  0  0  0
    0.3680   -1.3720   26.2630 C   0  0  0  0  0  0  0  0  0  0  0  0
  1  2  1  0
  1  3  1  0
  4  1  1  6
  4  5  2  0
  3  6  1  0
  4  7  2  0
  4  8  1  0
  6  9  2  0
  6 10  1  0
  5 11  1  0
  8 12  1  0
  8 13  2  0
 10 14  1  0
 12 15  2  0
 12 16  1  0
 13 17  1  0
 18 11  1  1
 14 19  2  0
 14 20  1  0
 16 21  2  0
 15 22  1  0
 16 23  1  0
 17 23  2  0
 18 24  1  0
 18 25  1  0
 19 26  1  0
 24 27  1  0
 20 28  2  0
 19 29  1  0
 21 30  1  0
 22 30  2  0
 25 31  1  0
 24 32  1  0
 27 33  2  0
 27 34  2  0
 31 35  1  0
 28 36  1  0
 29 36  2  0
 27 37  1  0
 31 38  1  0
 32 38  1  0
 35 39  2  0
 35 40  1  0
 37 41  2  0
 37 42  1  0
 41 43  1  0
 41 44  1  0
 42 45  2  0
 44 46  2  0
 45 46  1  0
 46 47  1  0
M  END
