x3080-x2097
     RDKit          3D

 34 38  0  0  0  0  0  0  0  0999 V2000
    9.8700   -0.5240   23.2630 N   0  0  0  0  0  0  0  0  0  0  0  0
   10.7530    0.6330   23.4990 C   0  0  0  0  0  0  0  0  0  0  0  0
    9.7230   -0.9970   21.9910 C   0  0  0  0  0  0  0  0  0  0  0  0
    8.8020   -1.0390   24.4690 S   0  0  0  0  0  0  0  0  0  0  0  0
    7.7640   -1.8120   23.6320 N   0  0  0  0  0  0  0  0  0  0  0  0
    8.6630   -0.1770   21.2960 C   0  0  0  0  0  0  0  0  0  0  0  0
    8.3820    0.0430   25.3440 O   0  0  0  0  0  0  0  0  0  0  0  0
    9.4010   -2.3770   25.1820 C   0  0  0  0  0  0  0  0  0  0  0  0
    8.8860    1.2510   21.1220 O   0  0  0  0  0  0  0  0  0  0  0  0
    7.4990   -0.7800   20.8410 N   0  0  0  0  0  0  0  0  0  0  0  0
   10.8710   -2.4980   25.2510 C   0  0  0  0  0  0  0  0  0  0  0  0
    8.5400   -3.3390   25.6910 C   0  0  0  0  0  0  0  0  0  0  0  0
    6.7610   -1.2860   22.8750 C   0  0  1  0  0  0  0  0  0  0  0  0
    6.7340   -0.0570   19.8470 C   0  0  0  0  0  0  0  0  0  0  0  0
   11.6910   -1.5680   24.7520 N   0  0  0  0  0  0  0  0  0  0  0  0
   11.3130   -3.7560   25.9390 C   0  0  0  0  0  0  0  0  0  0  0  0
    9.0090   -4.4830   26.3060 C   0  0  0  0  0  0  0  0  0  0  0  0
    6.7230   -1.7190   21.5500 N   0  0  0  0  0  0  0  0  0  0  0  0
    5.5570   -1.6780   23.4270 C   0  0  0  0  0  0  0  0  0  0  0  0
    5.5780    0.8160   20.3150 C   0  0  0  0  0  0  0  0  0  0  0  0
    6.9730   -0.0850   18.5070 C   0  0  0  0  0  0  0  0  0  0  0  0
   12.8470   -3.8190   26.0180 C   0  0  0  0  0  0  0  0  0  0  0  0
   12.9880   -1.7410   24.8720 C   0  0  0  0  0  0  0  0  0  0  0  0
   10.3690   -4.6910   26.4320 C   0  0  0  0  0  0  0  0  0  0  0  0
    6.8640   -3.1660   21.3920 C   0  0  2  0  0  0  0  0  0  0  0  0
    5.0220   -2.9060   23.0380 C   0  0  0  0  0  0  0  0  0  0  0  0
    5.1360    0.9950   21.7790 C   0  0  0  0  0  0  0  0  0  0  0  0
    6.7490   -3.8790   20.1280 C   0  0  0  0  0  0  0  0  0  0  0  0
    6.2670    0.6060   17.5570 N   0  0  0  0  0  0  0  0  0  0  0  0
    4.8500    1.5200   19.3980 C   0  0  0  0  0  0  0  0  0  0  0  0
   13.5680   -2.8160   25.4840 C   0  0  0  0  0  0  0  0  0  0  0  0
    5.7210   -3.7300   22.1000 N   0  0  0  0  0  0  0  0  0  0  0  0
    5.8780   -4.8260   20.0170 N   0  0  0  0  0  0  0  0  0  0  0  0
    5.2340    1.4000   17.9120 C   0  0  0  0  0  0  0  0  0  0  0  0
  1  2  1  0
  1  3  1  0
  1  4  1  0
  4  5  1  0
  3  6  1  0
  4  7  2  0
  4  8  1  0
  6  9  2  0
  6 10  1  0
  8 11  1  0
  8 12  2  0
  5 13  1  0
 10 14  1  0
 11 15  2  0
 11 16  1  0
 12 17  1  0
 10 18  1  0
 13 18  1  0
 13 19  1  1
 14 20  2  0
 14 21  1  0
 16 22  2  0
 15 23  1  0
 16 24  1  0
 17 24  2  0
 18 25  1  0
 19 26  2  0
 20 27  1  0
 25 28  1  6
 21 29  2  0
 20 30  1  0
 22 31  1  0
 23 31  2  0
 25 32  1  0
 26 32  1  0
 28 33  2  3
 29 34  1  0
 30 34  2  0
M  END
