x3080-x1351
     RDKit          3D

 44 50  0  0  0  0  0  0  0  0999 V2000
    9.6470   -0.3630   23.3250 N   0  0  0  0  0  0  0  0  0  0  0  0
   10.6720    0.6730   23.5570 C   0  0  0  0  0  0  0  0  0  0  0  0
    9.5020   -0.7930   22.0490 C   0  0  0  0  0  0  0  0  0  0  0  0
    8.6790   -0.8710   24.6410 S   0  0  2  0  0  0  0  0  0  0  0  0
    7.1500   -1.5720   24.0890 C   0  0  0  0  0  0  0  0  0  0  0  0
    8.6290    0.1240   21.3350 C   0  0  0  0  0  0  0  0  0  0  0  0
    8.5950   -0.0020   25.7890 O   0  0  0  0  0  0  0  0  0  0  0  0
    9.5100   -2.2700   25.3090 C   0  0  0  0  0  0  0  0  0  0  0  0
    9.0290    1.3120   21.1230 O   0  0  0  0  0  0  0  0  0  0  0  0
    7.4070   -0.5350   21.0040 N   0  0  0  0  0  0  0  0  0  0  0  0
    6.4150   -1.9720   25.3500 C   0  0  1  0  0  0  0  0  0  0  0  0
   10.8700   -2.3750   25.2670 C   0  0  0  0  0  0  0  0  0  0  0  0
    8.6260   -3.2180   25.8880 C   0  0  0  0  0  0  0  0  0  0  0  0
    6.6550   -2.4530   22.9620 C   0  0  1  0  0  0  0  0  0  0  0  0
    5.2160   -2.4500   24.7290 N   0  0  0  0  0  0  0  0  0  0  0  0
    7.2180   -3.0790   25.9570 N   0  0  0  0  0  0  0  0  0  0  0  0
    6.7440    0.0490   20.0200 C   0  0  0  0  0  0  0  0  0  0  0  0
   11.6560   -1.4280   24.7110 N   0  0  0  0  0  0  0  0  0  0  0  0
   11.4040   -3.6370   25.9210 C   0  0  0  0  0  0  0  0  0  0  0  0
    9.1520   -4.3600   26.4500 C   0  0  0  0  0  0  0  0  0  0  0  0
    7.5280   -3.3450   22.3460 C   0  0  0  0  0  0  0  0  0  0  0  0
    5.5780   -3.1560   23.5570 C   0  0  2  0  0  0  0  0  0  0  0  0
    5.9460   -0.9140   26.3750 C   0  0  0  0  0  0  0  0  0  0  0  0
    5.6220    0.8350   20.3240 C   0  0  0  0  0  0  0  0  0  0  0  0
    6.9980    0.0110   18.5590 C   0  0  0  0  0  0  0  0  0  0  0  0
   12.8140   -3.7830   25.9600 C   0  0  0  0  0  0  0  0  0  0  0  0
   12.9580   -1.6200   24.7660 C   0  0  0  0  0  0  0  0  0  0  0  0
   10.4960   -4.5630   26.4670 C   0  0  0  0  0  0  0  0  0  0  0  0
    6.7020   -4.3160   21.6120 N   0  0  0  0  0  0  0  0  0  0  0  0
    5.7950   -4.5470   23.7770 C   0  0  0  0  0  0  0  0  0  0  0  0
    5.7150   -1.2350   27.7240 C   0  0  0  0  0  0  0  0  0  0  0  0
    5.7020    0.4190   26.0530 C   0  0  0  0  0  0  0  0  0  0  0  0
    5.2440    0.9590   21.6990 C   0  0  0  0  0  0  0  0  0  0  0  0
    6.2260   -4.1390   20.3090 C   0  0  0  0  0  0  0  0  0  0  0  0
    6.2810    0.6370   17.6130 N   0  0  0  0  0  0  0  0  0  0  0  0
    4.9180    1.4550   19.3560 C   0  0  0  0  0  0  0  0  0  0  0  0
   13.6110   -2.8010   25.3990 C   0  0  0  0  0  0  0  0  0  0  0  0
    6.0260   -5.2910   22.4580 C   0  0  0  0  0  0  0  0  0  0  0  0
    5.2260   -0.1740   28.7340 C   0  0  0  0  0  0  0  0  0  0  0  0
    5.2690    1.3770   26.9480 C   0  0  0  0  0  0  0  0  0  0  0  0
    7.0950   -3.3030   19.3830 C   0  0  0  0  0  0  0  0  0  0  0  0
    5.2000   -4.6680   19.9170 O   0  0  0  0  0  0  0  0  0  0  0  0
    5.2400    1.3640   18.0170 C   0  0  0  0  0  0  0  0  0  0  0  0
    5.0190    1.1160   28.3030 C   0  0  0  0  0  0  0  0  0  0  0  0
  1  2  1  0
  1  3  1  0
  4  1  1  6
  4  5  2  0
  3  6  1  0
  4  7  2  0
  4  8  1  0
  6  9  2  0
  6 10  1  0
  5 11  1  0
  8 12  1  0
  8 13  2  0
  5 14  1  0
 11 15  1  0
 11 16  1  0
 13 16  1  0
 10 17  1  0
 12 18  2  0
 12 19  1  0
 13 20  1  0
 14 21  1  1
 14 22  1  0
 15 22  1  0
 11 23  1  1
 17 24  2  0
 17 25  1  0
 19 26  2  0
 18 27  1  0
 19 28  1  0
 20 28  2  0
 21 29  1  0
 22 30  1  1
 23 31  2  0
 23 32  1  0
 24 33  1  0
 29 34  1  0
 25 35  2  0
 24 36  1  0
 26 37  1  0
 27 37  2  0
 29 38  1  0
 30 38  1  0
 31 39  1  0
 32 40  2  0
 34 41  1  0
 34 42  2  0
 35 43  1  0
 36 43  2  0
 39 44  2  0
 40 44  1  0
M  END
