x3080-x0749
     RDKit          3D

 37 40  0  0  0  0  0  0  0  0999 V2000
   10.0230   -0.3010   23.2630 N   0  0  0  0  0  0  0  0  0  0  0  0
   10.9290    0.8580   23.3310 C   0  0  0  0  0  0  0  0  0  0  0  0
    9.7300   -0.8360   22.0350 C   0  0  0  0  0  0  0  0  0  0  0  0
    8.9470   -0.5800   24.5300 S   0  0  0  0  0  0  0  0  0  0  0  0
    7.6510   -0.8960   23.9620 O   0  0  0  0  0  0  0  0  0  0  0  0
    8.6620   -0.0010   21.3610 C   0  0  0  0  0  0  0  0  0  0  0  0
    9.0920    0.4420   25.5430 O   0  0  0  0  0  0  0  0  0  0  0  0
    9.4920   -2.0060   25.1870 C   0  0  0  0  0  0  0  0  0  0  0  0
    8.9040    1.4060   21.1090 O   0  0  0  0  0  0  0  0  0  0  0  0
    7.4750   -0.6050   20.9950 N   0  0  0  0  0  0  0  0  0  0  0  0
   10.8630   -2.3060   25.2380 C   0  0  0  0  0  0  0  0  0  0  0  0
    8.4930   -2.9140   25.7120 C   0  0  0  0  0  0  0  0  0  0  0  0
    6.7440    0.0270   19.9780 C   0  0  0  0  0  0  0  0  0  0  0  0
   11.7850   -1.3160   24.6810 N   0  0  0  0  0  0  0  0  0  0  0  0
   11.2140   -3.5100   25.8220 C   0  0  0  0  0  0  0  0  0  0  0  0
    8.8960   -4.0870   26.2680 C   0  0  0  0  0  0  0  0  0  0  0  0
    5.6850    0.7480   20.5010 C   0  0  0  0  0  0  0  0  0  0  0  0
    7.0380   -0.0480   18.6430 C   0  0  0  0  0  0  0  0  0  0  0  0
   12.7270   -3.7860   25.8950 C   0  0  0  0  0  0  0  0  0  0  0  0
   13.1160   -1.6020   24.7580 C   0  0  0  0  0  0  0  0  0  0  0  0
   10.2490   -4.4120   26.3350 C   0  0  0  0  0  0  0  0  0  0  0  0
    7.8250   -4.9340   26.7540 C   0  0  0  0  0  0  0  0  0  0  0  0
    5.3450    0.8290   21.9930 C   0  0  0  0  0  0  0  0  0  0  0  0
    6.2980    0.6230   17.5850 N   0  0  0  0  0  0  0  0  0  0  0  0
    4.8110    1.5130   19.4750 C   0  0  0  0  0  0  0  0  0  0  0  0
   13.6640   -2.7490   25.3270 C   0  0  0  0  0  0  0  0  0  0  0  0
    7.4740   -5.8330   25.6000 C   0  0  0  0  0  0  0  0  0  0  0  0
    5.1480    1.4370   18.0020 C   0  0  0  0  0  0  0  0  0  0  0  0
    7.2210   -5.2310   24.2080 C   0  0  0  0  0  0  0  0  0  0  0  0
    8.3310   -4.7660   23.5030 C   0  0  0  0  0  0  0  0  0  0  0  0
    6.4290   -6.1650   23.2530 C   0  0  0  0  0  0  0  0  0  0  0  0
    7.8550   -4.0510   22.2230 C   0  0  0  0  0  0  0  0  0  0  0  0
    5.9700   -5.4250   22.1880 C   0  0  0  0  0  0  0  0  0  0  0  0
    6.8010   -4.5960   21.5250 N   0  0  0  0  0  0  0  0  0  0  0  0
    6.4610   -4.0760   20.2700 C   0  0  0  0  0  0  0  0  0  0  0  0
    7.4770   -3.2750   19.4450 C   0  0  0  0  0  0  0  0  0  0  0  0
    5.3410   -4.3170   19.8270 O   0  0  0  0  0  0  0  0  0  0  0  0
  1  2  1  0
  1  3  1  0
  4  1  1  0
  4  5  2  0
  3  6  1  0
  4  7  2  0
  4  8  1  0
  6  9  2  0
  6 10  1  0
  8 11  1  0
  8 12  2  0
 10 13  1  0
 11 14  2  0
 11 15  1  0
 12 16  1  0
 13 17  2  0
 13 18  1  0
 15 19  2  0
 14 20  1  0
 15 21  1  0
 16 21  2  0
 16 22  1  0
 17 23  1  0
 18 24  2  0
 17 25  1  0
 19 26  1  0
 20 26  2  0
 22 27  1  0
 24 28  1  0
 25 28  2  0
 27 29  1  0
 29 30  1  0
 29 31  1  0
 30 32  1  0
 31 33  1  0
 32 34  1  0
 33 34  1  0
 34 35  1  0
 35 36  1  0
 35 37  2  0
M  END
