x3080-x1375
     RDKit          3D

 43 48  0  0  0  0  0  0  0  0999 V2000
    9.8200   -0.7130   24.0820 N   0  0  0  0  0  0  0  0  0  0  0  0
    9.8350    0.4500   24.9590 C   0  0  0  0  0  0  0  0  0  0  0  0
   10.3120   -0.4360   22.7450 C   0  0  0  0  0  0  0  0  0  0  0  0
    8.3970   -1.2650   23.6190 S   0  0  2  0  0  0  0  0  0  0  0  0
    7.4660   -2.4370   23.2940 N   0  0  0  0  0  0  0  0  0  0  0  0
    9.2670    0.1660   21.6850 C   0  0  0  0  0  0  0  0  0  0  0  0
    8.2040    0.1500   23.4280 O   0  0  0  0  0  0  0  0  0  0  0  0
    9.6890   -2.3410   24.3360 C   0  0  0  0  0  0  0  0  0  0  0  0
    9.3500    1.5710   21.3540 O   0  0  0  0  0  0  0  0  0  0  0  0
    8.2180   -0.5700   21.0610 N   0  0  0  0  0  0  0  0  0  0  0  0
   11.0280   -2.1170   24.8400 C   0  0  0  0  0  0  0  0  0  0  0  0
    9.4480   -3.6950   24.4560 C   0  0  0  0  0  0  0  0  0  0  0  0
    7.5080   -3.7910   23.3470 C   0  0  0  0  0  0  0  0  0  0  0  0
    7.1670   -0.0310   20.1390 C   0  0  0  0  0  0  0  0  0  0  0  0
   11.7230   -0.9730   24.7900 N   0  0  0  0  0  0  0  0  0  0  0  0
   11.7370   -3.3250   25.4580 C   0  0  0  0  0  0  0  0  0  0  0  0
   10.1460   -4.6500   25.0640 C   0  0  0  0  0  0  0  0  0  0  0  0
    8.4910   -4.3340   23.9540 C   0  0  0  0  0  0  0  0  0  0  0  0
    6.5520   -4.5120   22.7260 C   0  0  0  0  0  0  0  0  0  0  0  0
    5.5480   -4.0860   22.0760 N   0  0  0  0  0  0  0  0  0  0  0  0
    6.0340    0.6770   20.6180 C   0  0  0  0  0  0  0  0  0  0  0  0
    7.1800   -0.1540   18.7440 C   0  0  0  0  0  0  0  0  0  0  0  0
   12.9600   -3.3090   25.8950 C   0  0  0  0  0  0  0  0  0  0  0  0
   12.9720   -0.9710   25.2120 C   0  0  0  0  0  0  0  0  0  0  0  0
   11.2300   -4.4780   25.5890 C   0  0  0  0  0  0  0  0  0  0  0  0
    8.6650   -5.6920   24.0560 C   0  0  0  0  0  0  0  0  0  0  0  0
    6.5850   -5.8620   22.6690 C   0  0  0  0  0  0  0  0  0  0  0  0
    5.7950    0.9210   22.0910 C   0  0  0  0  0  0  0  0  0  0  0  0
    5.9090   -4.2870   20.6730 C   0  0  0  0  0  0  0  0  0  0  0  0
    6.2990    0.3090   17.7940 N   0  0  0  0  0  0  0  0  0  0  0  0
    5.0070    1.2230   19.6220 C   0  0  0  0  0  0  0  0  0  0  0  0
   13.6630   -2.0670   25.7610 C   0  0  0  0  0  0  0  0  0  0  0  0
    7.6750   -6.5030   23.3360 C   0  0  0  0  0  0  0  0  0  0  0  0
    4.2760   -4.5120   22.7550 C   0  0  2  0  0  0  0  0  0  0  0  0
    5.3580   -5.1550   20.0260 O   0  0  0  0  0  0  0  0  0  0  0  0
    6.9850   -3.3700   19.9460 C   0  0  0  0  0  0  0  0  0  0  0  0
    5.1740    1.0290   18.2960 C   0  0  0  0  0  0  0  0  0  0  0  0
    4.7680   -4.1690   24.0100 C   0  0  0  0  0  0  0  0  0  0  0  0
    3.8790   -6.0250   22.6960 C   0  0  0  0  0  0  0  0  0  0  0  0
    3.7690   -6.4860   24.3960 S   0  0  0  0  0  0  0  0  0  0  0  0
    4.5500   -5.1540   25.0190 C   0  0  0  0  0  0  0  0  0  0  0  0
    2.3710   -6.4430   24.7580 O   0  0  0  0  0  0  0  0  0  0  0  0
    4.5540   -7.6560   24.6920 O   0  0  0  0  0  0  0  0  0  0  0  0
  1  2  1  0
  1  3  1  0
  4  1  1  6
  4  5  2  0
  3  6  1  0
  4  7  2  0
  4  8  1  0
  6  9  2  0
  6 10  1  0
  8 11  1  0
  8 12  2  0
  5 13  1  0
 10 14  1  0
 11 15  2  0
 11 16  1  0
 12 17  1  0
 12 18  1  0
 13 18  2  0
 13 19  1  0
 19 20  1  0
 14 21  2  0
 14 22  1  0
 16 23  2  0
 15 24  1  0
 16 25  1  0
 17 25  2  0
 18 26  1  0
 19 27  2  0
 21 28  1  0
 20 29  1  0
 22 30  2  0
 21 31  1  0
 23 32  1  0
 24 32  2  0
 26 33  2  0
 27 33  1  0
 34 20  1  6
 29 35  2  0
 29 36  1  0
 30 37  1  0
 31 37  2  0
 34 38  1  0
 34 39  1  0
 39 40  1  0
 38 41  2  0
 40 41  1  0
 40 42  1  0
 40 43  1  0
M  END
