x3080-x1358
     RDKit          3D

 46 52  0  0  0  0  0  0  0  0999 V2000
    9.9270   -0.5840   23.6800 N   0  0  0  0  0  0  0  0  0  0  0  0
   10.6830    0.6330   23.9750 C   0  0  0  0  0  0  0  0  0  0  0  0
    9.9150   -0.8380   22.2980 C   0  0  0  0  0  0  0  0  0  0  0  0
    8.3310   -0.4940   24.1590 S   0  0  2  0  0  0  0  0  0  0  0  0
    7.3670   -1.9670   23.9300 C   0  0  0  0  0  0  0  0  0  0  0  0
    9.0210    0.0850   21.5060 C   0  0  0  0  0  0  0  0  0  0  0  0
    7.9540    0.8540   24.5090 O   0  0  0  0  0  0  0  0  0  0  0  0
    9.3800   -1.7540   24.7710 C   0  0  0  0  0  0  0  0  0  0  0  0
    9.3350    1.3110   21.4110 O   0  0  0  0  0  0  0  0  0  0  0  0
    7.8580   -0.5570   20.9100 N   0  0  0  0  0  0  0  0  0  0  0  0
    6.0390   -1.8260   24.2300 C   0  0  2  0  0  0  0  0  0  0  0  0
   10.7290   -2.1520   24.8220 C   0  0  0  0  0  0  0  0  0  0  0  0
    8.2970   -2.4500   25.4890 C   0  0  0  0  0  0  0  0  0  0  0  0
    7.5670   -3.4720   23.5430 C   0  0  2  0  0  0  0  0  0  0  0  0
    6.8130   -1.9000   25.5090 N   0  0  0  0  0  0  0  0  0  0  0  0
    5.3580   -3.1610   24.0250 C   0  0  0  0  0  0  0  0  0  0  0  0
    6.9600    0.0140   20.0590 C   0  0  0  0  0  0  0  0  0  0  0  0
   11.7430   -1.5030   24.2390 N   0  0  0  0  0  0  0  0  0  0  0  0
   10.9730   -3.3070   25.6040 C   0  0  0  0  0  0  0  0  0  0  0  0
    8.6320   -3.6290   26.2050 C   0  0  0  0  0  0  0  0  0  0  0  0
    7.6020   -3.4150   22.1260 C   0  0  0  0  0  0  0  0  0  0  0  0
    6.4440   -4.1870   24.0060 C   0  0  1  0  0  0  0  0  0  0  0  0
    3.9760   -3.4660   23.9400 O   0  0  0  0  0  0  0  0  0  0  0  0
    5.8240    0.7360   20.4530 C   0  0  0  0  0  0  0  0  0  0  0  0
    7.1060   -0.0730   18.7260 C   0  0  0  0  0  0  0  0  0  0  0  0
   12.2740   -3.7290   25.7740 C   0  0  0  0  0  0  0  0  0  0  0  0
   13.1180   -1.9410   24.4180 C   0  0  0  0  0  0  0  0  0  0  0  0
    9.9550   -4.0440   26.2520 C   0  0  0  0  0  0  0  0  0  0  0  0
    6.4760   -0.7830   26.3080 C   0  0  0  0  0  0  0  0  0  0  0  0
    6.7850   -4.3770   21.4360 N   0  0  0  0  0  0  0  0  0  0  0  0
    6.0060   -5.3650   23.3190 C   0  0  0  0  0  0  0  0  0  0  0  0
    5.4890    0.9260   21.9000 C   0  0  0  0  0  0  0  0  0  0  0  0
    6.2530   -4.0640   20.2060 C   0  0  0  0  0  0  0  0  0  0  0  0
    6.3170    0.4500   17.7580 N   0  0  0  0  0  0  0  0  0  0  0  0
    4.9350    1.3210   19.5260 C   0  0  0  0  0  0  0  0  0  0  0  0
   13.3280   -3.0520   25.2020 C   0  0  0  0  0  0  0  0  0  0  0  0
    5.0760   -0.4820   26.7830 C   0  0  0  0  0  0  0  0  0  0  0  0
    7.4940    0.0950   26.6720 C   0  0  0  0  0  0  0  0  0  0  0  0
    6.5650   -5.6290   22.1100 C   0  0  0  0  0  0  0  0  0  0  0  0
    4.1060   -1.3340   26.3910 O   0  0  0  0  0  0  0  0  0  0  0  0
    5.1630   -4.4570   19.8310 O   0  0  0  0  0  0  0  0  0  0  0  0
    7.1030   -3.2270   19.2520 C   0  0  0  0  0  0  0  0  0  0  0  0
    5.1740    1.1870   18.2300 C   0  0  0  0  0  0  0  0  0  0  0  0
    7.1950    1.2980   27.5370 C   0  0  0  0  0  0  0  0  0  0  0  0
    4.8580    0.6060   27.5610 C   0  0  0  0  0  0  0  0  0  0  0  0
    5.9430    1.5400   27.9670 C   0  0  0  0  0  0  0  0  0  0  0  0
  1  2  1  0
  1  3  1  0
  4  1  1  6
  4  5  2  0
  3  6  1  0
  4  7  2  0
  4  8  1  0
  6  9  2  0
  6 10  1  0
  5 11  1  0
  8 12  2  0
  8 13  1  0
  5 14  1  0
 11 15  1  0
 13 15  1  0
 11 16  1  1
 10 17  1  0
 12 18  1  0
 12 19  1  0
 13 20  2  0
 14 21  1  6
 14 22  1  0
 16 22  1  0
 16 23  2  0
 17 24  2  0
 17 25  1  0
 19 26  1  0
 18 27  2  0
 19 28  2  0
 20 28  1  0
 15 29  1  0
 21 30  1  0
 22 31  1  6
 24 32  1  0
 30 33  1  0
 25 34  2  0
 24 35  1  0
 26 36  2  0
 27 36  1  0
 29 37  2  0
 29 38  1  0
 30 39  1  0
 31 39  1  0
 37 40  1  0
 33 41  2  0
 33 42  1  0
 34 43  1  0
 35 43  2  0
 38 44  2  0
 37 45  1  0
 44 46  1  0
 45 46  2  0
M  END
