x3108-x1402
     RDKit          3D

 41 46  0  0  0  0  0  0  0  0999 V2000
    6.0080    1.7800   21.9720 C   0  0  0  0  0  0  0  0  0  0  0  0
    6.1180    1.1620   20.6000 C   0  0  0  0  0  0  0  0  0  0  0  0
    7.1960    0.2060   20.2720 C   0  0  0  0  0  0  0  0  0  0  0  0
    5.1760    1.5060   19.6200 C   0  0  0  0  0  0  0  0  0  0  0  0
    8.1390   -0.1070   21.2750 N   0  0  0  0  0  0  0  0  0  0  0  0
    7.2200   -0.3210   18.9870 C   0  0  0  0  0  0  0  0  0  0  0  0
    5.2580    0.9510   18.3460 C   0  0  0  0  0  0  0  0  0  0  0  0
    8.9650    0.8280   21.8810 C   0  0  0  0  0  0  0  0  0  0  0  0
    6.3340   -0.0030   18.0300 N   0  0  0  0  0  0  0  0  0  0  0  0
    9.3200    1.8810   21.3510 O   0  0  0  0  0  0  0  0  0  0  0  0
    9.3710    0.4190   23.2950 C   0  0  0  0  0  0  0  0  0  0  0  0
    9.4760   -1.0230   23.5850 N   0  0  0  0  0  0  0  0  0  0  0  0
    8.4300   -1.5740   24.3120 C   0  0  0  0  0  0  0  0  0  0  0  0
    7.7000   -0.9240   25.0630 O   0  0  0  0  0  0  0  0  0  0  0  0
    8.3880   -2.9630   24.0320 C   0  0  2  0  0  0  0  0  0  0  0  0
    7.1190   -3.7870   24.4890 C   0  0  1  0  0  0  0  0  0  0  0  0
    9.0370   -3.7100   25.1270 C   0  0  0  0  0  0  0  0  0  0  0  0
    6.8010   -3.7530   25.8510 C   0  0  2  0  0  0  0  0  0  0  0  0
   10.3470   -3.9870   25.1660 C   0  0  0  0  0  0  0  0  0  0  0  0
    8.1590   -4.1750   26.2060 C   0  0  0  0  0  0  0  0  0  0  0  0
    5.9850   -3.9720   23.5160 C   0  0  1  0  0  0  0  0  0  0  0  0
    6.0230   -4.7040   26.4170 N   0  0  0  0  0  0  0  0  0  0  0  0
   10.9180   -4.6720   26.1500 N   0  0  0  0  0  0  0  0  0  0  0  0
    8.7300   -4.8640   27.2120 C   0  0  0  0  0  0  0  0  0  0  0  0
    6.9290   -4.3300   22.5720 C   0  0  0  0  0  0  0  0  0  0  0  0
    5.2510   -5.1600   23.9520 N   0  0  0  0  0  0  0  0  0  0  0  0
    4.6550   -5.1230   25.5250 S   0  0  1  0  0  0  0  0  0  0  0  0
   10.0660   -5.0740   27.1340 C   0  0  0  0  0  0  0  0  0  0  0  0
    6.4740   -5.0480   21.5680 N   0  0  0  0  0  0  0  0  0  0  0  0
    4.7020   -5.9740   22.8580 C   0  0  0  0  0  0  0  0  0  0  0  0
    6.1850   -4.4050   20.3770 C   0  0  0  0  0  0  0  0  0  0  0  0
    4.0560   -6.3870   25.8890 O   0  0  0  0  0  0  0  0  0  0  0  0
    5.7310   -6.1290   21.9590 C   0  0  0  0  0  0  0  0  0  0  0  0
    3.6180   -3.7250   25.7570 C   0  0  0  0  0  0  0  0  0  0  0  0
    7.1700   -3.4190   19.6880 C   0  0  0  0  0  0  0  0  0  0  0  0
    5.1140   -4.6010   19.8630 O   0  0  0  0  0  0  0  0  0  0  0  0
    1.9150   -3.7820   25.8040 S   0  0  0  0  0  0  0  0  0  0  0  0
    4.1670   -2.3060   25.9430 C   0  0  0  0  0  0  0  0  0  0  0  0
    3.1170   -1.4680   26.0990 C   0  0  0  0  0  0  0  0  0  0  0  0
    1.8600   -2.0770   26.0560 C   0  0  0  0  0  0  0  0  0  0  0  0
    0.3990   -1.2020   26.2460 Cl  0  0  0  0  0  0  0  0  0  0  0  0
  1  2  1  0
  2  3  2  0
  2  4  1  0
  3  5  1  0
  3  6  1  0
  4  7  2  0
  5  8  1  0
  6  9  2  0
  7  9  1  0
  8 10  2  0
  8 11  1  0
 11 12  1  0
 12 13  1  0
 13 14  2  0
 15 13  1  1
 16 15  1  6
 15 17  1  0
 16 18  1  0
 17 19  2  0
 17 20  1  0
 18 20  1  0
 16 21  1  0
 18 22  1  6
 19 23  1  0
 20 24  2  0
 21 25  1  6
 21 26  1  0
 22 27  2  0
 26 27  1  0
 23 28  2  0
 24 28  1  0
 25 29  1  0
 26 30  1  0
 29 31  1  0
 27 32  2  0
 29 33  1  0
 30 33  1  0
 27 34  1  6
 31 35  1  0
 31 36  2  0
 34 37  1  0
 34 38  2  0
 38 39  1  0
 37 40  1  0
 39 40  2  0
 40 41  1  0
M  END
