x3108-x1375
     RDKit          3D

 35 37  0  0  0  0  0  0  0  0999 V2000
    6.0710    1.7420   21.9800 C   0  0  0  0  0  0  0  0  0  0  0  0
    6.1490    1.1500   20.5980 C   0  0  0  0  0  0  0  0  0  0  0  0
    7.1550    0.2540   20.2580 C   0  0  0  0  0  0  0  0  0  0  0  0
    5.2180    1.4730   19.5970 C   0  0  0  0  0  0  0  0  0  0  0  0
    8.1470   -0.0920   21.2590 N   0  0  0  0  0  0  0  0  0  0  0  0
    7.2010   -0.2840   18.9760 C   0  0  0  0  0  0  0  0  0  0  0  0
    5.3380    0.9000   18.3390 C   0  0  0  0  0  0  0  0  0  0  0  0
    9.0600    0.7800   21.8290 C   0  0  0  0  0  0  0  0  0  0  0  0
    6.3120    0.0290   18.0090 N   0  0  0  0  0  0  0  0  0  0  0  0
    9.3040    1.9010   21.3760 O   0  0  0  0  0  0  0  0  0  0  0  0
    9.7310    0.2160   23.0810 C   0  0  0  0  0  0  0  0  0  0  0  0
    9.4170   -1.1780   23.4620 N   0  0  0  0  0  0  0  0  0  0  0  0
    8.3110   -1.3230   24.2850 C   0  0  0  0  0  0  0  0  0  0  0  0
    8.0040   -0.5030   25.1560 O   0  0  0  0  0  0  0  0  0  0  0  0
    7.5920   -2.5060   23.9780 C   0  0  1  0  0  0  0  0  0  0  0  0
    8.0670   -3.7250   24.7980 C   0  0  1  0  0  0  0  0  0  0  0  0
    6.0580   -2.2680   23.9540 C   0  0  0  0  0  0  0  0  0  0  0  0
    9.4870   -3.9210   24.3620 C   0  0  0  0  0  0  0  0  0  0  0  0
    7.9670   -3.6920   26.2060 C   0  0  0  0  0  0  0  0  0  0  0  0
    5.3340   -3.0790   24.7650 C   0  0  0  0  0  0  0  0  0  0  0  0
   10.0960   -4.9990   25.1580 N   0  0  0  0  0  0  0  0  0  0  0  0
    8.5650   -4.7330   26.9010 C   0  0  0  0  0  0  0  0  0  0  0  0
    4.8910   -4.3130   24.2260 C   0  0  0  0  0  0  0  0  0  0  0  0
   11.1180   -4.4600   25.8970 F   0  0  0  0  0  0  0  0  0  0  0  0
    9.2020   -5.6440   26.0990 C   0  0  0  0  0  0  0  0  0  0  0  0
    4.9380   -4.5960   22.8270 C   0  0  1  0  0  0  0  0  0  0  0  0
    4.3700   -5.2970   25.0840 C   0  0  0  0  0  0  0  0  0  0  0  0
    6.1790   -4.7840   22.2430 N   0  0  0  0  0  0  0  0  0  0  0  0
    4.4390   -5.8860   22.6570 C   0  0  0  0  0  0  0  0  0  0  0  0
    3.8780   -6.6770   24.1060 S   0  0  0  0  0  0  0  0  0  0  0  0
    6.5500   -4.4800   20.9160 C   0  0  0  0  0  0  0  0  0  0  0  0
    2.4370   -6.7730   24.0820 O   0  0  0  0  0  0  0  0  0  0  0  0
    4.6690   -7.8550   24.2610 O   0  0  0  0  0  0  0  0  0  0  0  0
    5.7120   -4.6100   19.9960 O   0  0  0  0  0  0  0  0  0  0  0  0
    8.0210   -3.9820   20.7190 C   0  0  0  0  0  0  0  0  0  0  0  0
  1  2  1  0
  2  3  2  0
  2  4  1  0
  3  5  1  0
  3  6  1  0
  4  7  2  0
  5  8  1  0
  6  9  2  0
  7  9  1  0
  8 10  2  0
  8 11  1  0
 11 12  1  0
 12 13  1  0
 13 14  2  0
 13 15  1  0
 15 16  1  0
 15 17  1  1
 16 18  1  1
 16 19  1  0
 17 20  1  0
 18 21  1  0
 19 22  2  0
 20 23  1  0
 21 24  1  0
 21 25  1  0
 22 25  1  0
 23 26  1  0
 23 27  2  0
 26 28  1  1
 26 29  1  0
 27 30  1  0
 29 30  1  0
 28 31  1  0
 30 32  1  0
 30 33  1  0
 31 34  2  0
 31 35  1  0
M  END
