x3108-x1374
     RDKit          3D

 35 37  0  0  0  0  0  0  0  0999 V2000
    6.0590    1.7540   21.9950 C   0  0  0  0  0  0  0  0  0  0  0  0
    6.1020    1.1900   20.5870 C   0  0  0  0  0  0  0  0  0  0  0  0
    7.1200    0.2920   20.2480 C   0  0  0  0  0  0  0  0  0  0  0  0
    5.1570    1.5410   19.6170 C   0  0  0  0  0  0  0  0  0  0  0  0
    8.1520   -0.1090   21.2070 N   0  0  0  0  0  0  0  0  0  0  0  0
    7.1760   -0.2400   18.9700 C   0  0  0  0  0  0  0  0  0  0  0  0
    5.2620    0.9890   18.3530 C   0  0  0  0  0  0  0  0  0  0  0  0
    9.0400    0.7760   21.7980 C   0  0  0  0  0  0  0  0  0  0  0  0
    6.3400    0.0210   17.9600 N   0  0  0  0  0  0  0  0  0  0  0  0
    9.2890    1.9000   21.3600 O   0  0  0  0  0  0  0  0  0  0  0  0
    9.6650    0.1930   23.0560 C   0  0  0  0  0  0  0  0  0  0  0  0
    9.1620   -1.1310   23.4800 N   0  0  0  0  0  0  0  0  0  0  0  0
    8.0710   -1.1150   24.3430 C   0  0  0  0  0  0  0  0  0  0  0  0
    7.7000   -0.1150   24.9560 O   0  0  0  0  0  0  0  0  0  0  0  0
    7.4870   -2.4030   24.4300 C   0  0  1  0  0  0  0  0  0  0  0  0
    8.4820   -3.2130   25.2350 C   0  0  2  0  0  0  0  0  0  0  0  0
    6.1030   -2.3150   24.9500 C   0  0  0  0  0  0  0  0  0  0  0  0
    9.3460   -3.9710   24.2340 C   0  0  0  0  0  0  0  0  0  0  0  0
    7.9300   -4.0550   26.2300 C   0  0  0  0  0  0  0  0  0  0  0  0
    4.8810   -2.8170   24.3170 C   0  0  0  0  0  0  0  0  0  0  0  0
   10.1710   -4.9440   25.0450 N   0  0  0  0  0  0  0  0  0  0  0  0
    8.3400   -5.3710   26.4440 C   0  0  0  0  0  0  0  0  0  0  0  0
    4.7600   -4.2120   24.0010 C   0  0  0  0  0  0  0  0  0  0  0  0
   10.8750   -4.2800   26.0450 C   0  0  0  0  0  0  0  0  0  0  0  0
    9.3640   -5.9630   25.6450 C   0  0  0  0  0  0  0  0  0  0  0  0
    5.5630   -4.9060   23.0860 C   0  0  2  0  0  0  0  0  0  0  0  0
    3.7330   -5.2240   24.5590 C   0  0  0  0  0  0  0  0  0  0  0  0
    5.8630   -3.8920   22.0250 N   0  0  0  0  0  0  0  0  0  0  0  0
    5.2280   -6.2440   22.7340 C   0  0  0  0  0  0  0  0  0  0  0  0
    3.9510   -6.7580   23.8610 S   0  0  0  0  0  0  0  0  0  0  0  0
    6.4480   -4.2050   20.8190 C   0  0  0  0  0  0  0  0  0  0  0  0
    2.8380   -7.1590   23.0440 O   0  0  0  0  0  0  0  0  0  0  0  0
    4.4240   -7.7280   24.8120 O   0  0  0  0  0  0  0  0  0  0  0  0
    5.6740   -4.5070   19.9140 O   0  0  0  0  0  0  0  0  0  0  0  0
    8.0030   -4.1390   20.7410 C   0  0  0  0  0  0  0  0  0  0  0  0
  1  2  1  0
  2  3  2  0
  2  4  1  0
  3  5  1  0
  3  6  1  0
  4  7  2  0
  5  8  1  0
  6  9  2  0
  7  9  1  0
  8 10  2  0
  8 11  1  0
 11 12  1  0
 12 13  1  0
 13 14  2  0
 13 15  1  0
 15 16  1  0
 15 17  1  1
 16 18  1  6
 16 19  1  0
 17 20  1  0
 18 21  1  0
 19 22  2  0
 20 23  1  0
 21 24  1  0
 21 25  1  0
 22 25  1  0
 23 26  1  0
 23 27  2  0
 26 28  1  6
 26 29  1  0
 27 30  1  0
 29 30  1  0
 28 31  1  0
 30 32  1  0
 30 33  1  0
 31 34  2  0
 31 35  1  0
M  END
