x3108-x2779
     RDKit          3D

 35 40  0  0  0  0  0  0  0  0999 V2000
    5.6930    1.5010   21.9070 C   0  0  0  0  0  0  0  0  0  0  0  0
    5.8730    1.1320   20.4580 C   0  0  0  0  0  0  0  0  0  0  0  0
    6.8800    0.3420   19.9470 C   0  0  0  0  0  0  0  0  0  0  0  0
    4.9900    1.5920   19.4800 C   0  0  0  0  0  0  0  0  0  0  0  0
    7.8500   -0.1680   20.8290 N   0  0  0  0  0  0  0  0  0  0  0  0
    7.0280    0.0220   18.6470 C   0  0  0  0  0  0  0  0  0  0  0  0
    5.0980    1.2960   18.1120 C   0  0  0  0  0  0  0  0  0  0  0  0
    8.7040    0.8290   21.4810 C   0  0  0  0  0  0  0  0  0  0  0  0
    6.1560    0.4760   17.6710 N   0  0  0  0  0  0  0  0  0  0  0  0
    7.4670   -1.2580   21.6380 C   0  0  1  0  0  0  0  0  0  0  0  0
    9.0900    1.8780   20.9830 O   0  0  0  0  0  0  0  0  0  0  0  0
    9.0700    0.5110   22.8720 C   0  0  0  0  0  0  0  0  0  0  0  0
    6.5230   -2.3640   21.1220 N   0  0  0  0  0  0  0  0  0  0  0  0
    8.5640   -1.8820   22.2060 C   0  0  1  0  0  0  0  0  0  0  0  0
    9.2440   -0.9510   23.1980 C   0  0  2  0  0  0  0  0  0  0  0  0
    6.4700   -3.0240   19.8480 C   0  0  0  0  0  0  0  0  0  0  0  0
    8.1720   -3.0170   23.0540 N   0  0  0  0  0  0  0  0  0  0  0  0
    6.1830   -3.1910   22.1020 C   0  0  0  0  0  0  0  0  0  0  0  0
    8.3360   -1.1450   24.5060 C   0  0  0  0  0  0  0  0  0  0  0  0
    7.8600   -2.5830   24.2790 C   0  0  2  0  0  0  0  0  0  0  0  0
    7.5490   -2.9150   18.7890 C   0  0  0  0  0  0  0  0  0  0  0  0
    5.5150   -3.7940   19.5970 O   0  0  0  0  0  0  0  0  0  0  0  0
    7.2350   -3.9820   22.5170 C   0  0  0  0  0  0  0  0  0  0  0  0
   10.6920   -1.0700   23.4870 C   0  0  0  0  0  0  0  0  0  0  0  0
    7.9970   -0.4760   25.4690 O   0  0  0  0  0  0  0  0  0  0  0  0
    8.3810   -3.6980   25.1370 C   0  0  0  0  0  0  0  0  0  0  0  0
   11.6950   -1.4160   22.5820 C   0  0  0  0  0  0  0  0  0  0  0  0
   11.2310   -0.7370   25.0600 S   0  0  0  0  0  0  0  0  0  0  0  0
    9.3270   -4.4750   24.5390 C   0  0  0  0  0  0  0  0  0  0  0  0
    7.9530   -3.9920   26.4670 C   0  0  0  0  0  0  0  0  0  0  0  0
   12.8270   -1.0790   24.4710 C   0  0  0  0  0  0  0  0  0  0  0  0
   12.9740   -1.4180   23.1660 C   0  0  0  0  0  0  0  0  0  0  0  0
    9.9140   -5.6050   25.1810 N   0  0  0  0  0  0  0  0  0  0  0  0
    8.5390   -5.1590   27.1770 C   0  0  0  0  0  0  0  0  0  0  0  0
    9.4990   -5.9150   26.4760 C   0  0  0  0  0  0  0  0  0  0  0  0
  1  2  1  0
  2  3  2  0
  2  4  1  0
  3  5  1  0
  3  6  1  0
  4  7  2  0
  5  8  1  0
  6  9  2  0
  7  9  1  0
 10  5  1  6
  8 11  2  0
  8 12  1  0
 10 13  1  0
 10 14  1  0
 12 15  1  0
 14 15  1  0
 13 16  1  0
 14 17  1  1
 13 18  1  0
 15 19  1  0
 17 20  1  0
 19 20  1  0
 16 21  1  0
 16 22  2  0
 17 23  1  0
 18 23  1  0
 15 24  1  1
 19 25  2  0
 20 26  1  1
 24 27  2  0
 24 28  1  0
 26 29  2  0
 26 30  1  0
 28 31  1  0
 27 32  1  0
 31 32  2  0
 29 33  1  0
 30 34  2  0
 33 35  2  0
 34 35  1  0
M  END
