x3108-x0705
     RDKit          3D

 39 42  0  0  0  0  0  0  0  0999 V2000
    6.0930    1.8420   21.9650 C   0  0  0  0  0  0  0  0  0  0  0  0
    6.1810    1.2200   20.5990 C   0  0  0  0  0  0  0  0  0  0  0  0
    7.1750    0.2790   20.3600 C   0  0  0  0  0  0  0  0  0  0  0  0
    5.2720    1.5910   19.6010 C   0  0  0  0  0  0  0  0  0  0  0  0
    8.1530   -0.1500   21.3190 N   0  0  0  0  0  0  0  0  0  0  0  0
    7.2550   -0.3050   19.1060 C   0  0  0  0  0  0  0  0  0  0  0  0
    5.3420    1.0170   18.3180 C   0  0  0  0  0  0  0  0  0  0  0  0
    9.0250    0.7380   21.9300 C   0  0  0  0  0  0  0  0  0  0  0  0
    6.4390   -0.0140   18.0820 N   0  0  0  0  0  0  0  0  0  0  0  0
    9.3340    1.8230   21.4220 O   0  0  0  0  0  0  0  0  0  0  0  0
    9.5740    0.2740   23.3080 C   0  0  0  0  0  0  0  0  0  0  0  0
    9.2190   -1.0560   23.9070 N   0  0  0  0  0  0  0  0  0  0  0  0
    7.9440   -1.1320   24.4940 C   0  0  2  0  0  0  0  0  0  0  0  0
    7.4350   -0.0400   24.7260 O   0  0  0  0  0  0  0  0  0  0  0  0
    7.8480   -2.1030   25.5580 C   0  0  0  0  0  0  0  0  0  0  0  0
    7.1780   -1.6720   23.3890 N   0  0  0  0  0  0  0  0  0  0  0  0
    7.2140   -1.9590   26.6710 N   0  0  0  0  0  0  0  0  0  0  0  0
    8.4530   -3.4670   25.5850 C   0  0  0  0  0  0  0  0  0  0  0  0
    5.7480   -2.0580   23.5290 C   0  0  0  0  0  0  0  0  0  0  0  0
    7.9210   -2.6060   22.5560 C   0  0  0  0  0  0  0  0  0  0  0  0
    9.3030   -4.0100   24.6520 C   0  0  0  0  0  0  0  0  0  0  0  0
    8.0980   -4.2350   26.7090 C   0  0  0  0  0  0  0  0  0  0  0  0
    5.1840   -2.6690   22.4800 C   0  0  0  0  0  0  0  0  0  0  0  0
    7.2370   -3.7580   22.4340 C   0  0  0  0  0  0  0  0  0  0  0  0
    6.4330   -1.1060   27.3990 C   0  0  0  0  0  0  0  0  0  0  0  0
    9.8640   -5.3570   24.7910 N   0  0  0  0  0  0  0  0  0  0  0  0
    8.6080   -5.5450   26.9030 C   0  0  0  0  0  0  0  0  0  0  0  0
    6.0790   -3.5970   21.7820 N   0  0  0  0  0  0  0  0  0  0  0  0
    5.0040   -1.4670   27.1320 C   0  0  0  0  0  0  0  0  0  0  0  0
    6.1780   -3.7210   20.4030 C   0  0  0  0  0  0  0  0  0  0  0  0
    9.5060   -6.0490   25.8870 C   0  0  0  0  0  0  0  0  0  0  0  0
    4.5250   -0.9260   25.8200 C   0  0  0  0  0  0  0  0  0  0  0  0
    4.0950   -2.2050   27.9050 C   0  0  0  0  0  0  0  0  0  0  0  0
    5.2320   -3.7760   19.6140 O   0  0  0  0  0  0  0  0  0  0  0  0
    7.5120   -3.9410   19.8260 C   0  0  0  0  0  0  0  0  0  0  0  0
    2.6930   -2.4090   27.3880 C   0  0  0  0  0  0  0  0  0  0  0  0
    3.2390   -1.1560   25.4160 C   0  0  0  0  0  0  0  0  0  0  0  0
    1.6750   -3.1070   28.0480 C   0  0  0  0  0  0  0  0  0  0  0  0
    2.2950   -1.8670   26.1280 C   0  0  0  0  0  0  0  0  0  0  0  0
  1  2  1  0
  2  3  2  0
  2  4  1  0
  3  5  1  0
  3  6  1  0
  4  7  2  0
  5  8  1  0
  6  9  2  0
  7  9  1  0
  8 10  2  0
  8 11  1  0
 11 12  1  0
 12 13  1  0
 13 14  1  1
 13 15  1  0
 13 16  1  0
 15 17  2  3
 15 18  1  0
 16 19  1  0
 16 20  1  0
 18 21  2  0
 18 22  1  0
 19 23  1  0
 20 24  1  0
 17 25  1  0
 21 26  1  0
 22 27  2  0
 23 28  1  0
 24 28  1  0
 25 29  1  0
 28 30  1  0
 26 31  2  0
 27 31  1  0
 29 32  2  0
 29 33  1  0
 30 34  2  0
 30 35  1  0
 33 36  2  0
 32 37  1  0
 36 38  1  0
 36 39  1  0
 37 39  2  0
M  END
