x3108-x1334
     RDKit          3D

 31 35  0  0  0  0  0  0  0  0999 V2000
    5.8260    1.4400   21.9980 C   0  0  0  0  0  0  0  0  0  0  0  0
    5.9650    1.1080   20.5380 C   0  0  0  0  0  0  0  0  0  0  0  0
    6.9860    0.2710   20.1250 C   0  0  0  0  0  0  0  0  0  0  0  0
    5.0750    1.6350   19.5960 C   0  0  0  0  0  0  0  0  0  0  0  0
    7.9500   -0.3310   20.9670 N   0  0  0  0  0  0  0  0  0  0  0  0
    7.0960   -0.0160   18.7900 C   0  0  0  0  0  0  0  0  0  0  0  0
    5.3180    1.2470   18.2670 C   0  0  0  0  0  0  0  0  0  0  0  0
    8.9460    0.5030   21.5090 C   0  0  0  0  0  0  0  0  0  0  0  0
    6.2920    0.4450   17.8390 N   0  0  0  0  0  0  0  0  0  0  0  0
    7.4300   -1.4720   21.6290 C   0  0  1  0  0  0  0  0  0  0  0  0
    9.1120    1.6950   21.2240 O   0  0  0  0  0  0  0  0  0  0  0  0
    9.8500   -0.2230   22.5000 C   0  0  0  0  0  0  0  0  0  0  0  0
    6.4530   -2.3530   21.0870 N   0  0  0  0  0  0  0  0  0  0  0  0
    8.4850   -2.2100   22.1510 C   0  0  1  0  0  0  0  0  0  0  0  0
    9.3830   -1.4990   23.0670 N   0  0  0  0  0  0  0  0  0  0  0  0
    6.4860   -3.0700   19.8690 C   0  0  0  0  0  0  0  0  0  0  0  0
    7.8910   -3.1250   23.0930 N   0  0  0  0  0  0  0  0  0  0  0  0
    5.8570   -3.1580   22.1380 C   0  0  0  0  0  0  0  0  0  0  0  0
    8.4910   -1.3460   24.0900 C   0  0  0  0  0  0  0  0  0  0  0  0
    7.7450   -2.5020   24.3490 C   0  0  2  0  0  0  0  0  0  0  0  0
    7.5240   -2.9250   18.7670 C   0  0  0  0  0  0  0  0  0  0  0  0
    5.6040   -3.9350   19.6710 O   0  0  0  0  0  0  0  0  0  0  0  0
    6.8570   -3.9850   22.5980 C   0  0  0  0  0  0  0  0  0  0  0  0
    8.2920   -0.3030   24.7110 O   0  0  0  0  0  0  0  0  0  0  0  0
    8.2640   -3.6580   25.1210 C   0  0  0  0  0  0  0  0  0  0  0  0
    9.3230   -4.3560   24.5470 C   0  0  0  0  0  0  0  0  0  0  0  0
    7.7460   -4.0870   26.3260 C   0  0  0  0  0  0  0  0  0  0  0  0
    9.8850   -5.4250   25.0700 N   0  0  0  0  0  0  0  0  0  0  0  0
    8.3200   -5.2490   26.9290 C   0  0  0  0  0  0  0  0  0  0  0  0
    7.6760   -5.8100   28.4090 Cl  0  0  0  0  0  0  0  0  0  0  0  0
    9.4380   -5.9170   26.2370 C   0  0  0  0  0  0  0  0  0  0  0  0
  1  2  1  0
  2  3  2  0
  2  4  1  0
  3  5  1  0
  3  6  1  0
  4  7  2  0
  5  8  1  0
  6  9  2  0
  7  9  1  0
 10  5  1  6
  8 11  2  0
  8 12  1  0
 10 13  1  0
 10 14  1  0
 12 15  1  0
 14 15  1  1
 13 16  1  0
 14 17  1  0
 13 18  1  0
 15 19  1  0
 17 20  1  0
 19 20  1  0
 16 21  1  0
 16 22  2  0
 17 23  1  0
 18 23  1  0
 19 24  2  0
 20 25  1  1
 25 26  2  0
 25 27  1  0
 26 28  1  0
 27 29  2  0
 29 30  1  0
 28 31  2  0
 29 31  1  0
M  END
