x3108-x1380
     RDKit          3D

 38 42  0  0  0  0  0  0  0  0999 V2000
    6.0200    1.7220   22.0390 C   0  0  0  0  0  0  0  0  0  0  0  0
    6.1280    1.1720   20.6380 C   0  0  0  0  0  0  0  0  0  0  0  0
    7.2140    0.2570   20.2530 C   0  0  0  0  0  0  0  0  0  0  0  0
    5.1740    1.5390   19.6820 C   0  0  0  0  0  0  0  0  0  0  0  0
    8.1870   -0.1090   21.2170 N   0  0  0  0  0  0  0  0  0  0  0  0
    7.2170   -0.1960   18.9410 C   0  0  0  0  0  0  0  0  0  0  0  0
    5.2370    1.0520   18.3740 C   0  0  0  0  0  0  0  0  0  0  0  0
    9.1120    0.7340   21.8020 C   0  0  0  0  0  0  0  0  0  0  0  0
    6.3170    0.1400   17.9950 N   0  0  0  0  0  0  0  0  0  0  0  0
    9.3310    1.8850   21.4160 O   0  0  0  0  0  0  0  0  0  0  0  0
    9.8460    0.0570   22.9680 C   0  0  0  0  0  0  0  0  0  0  0  0
    9.3360   -1.2600   23.4520 N   0  0  0  0  0  0  0  0  0  0  0  0
    8.4690   -1.1860   24.5370 C   0  0  0  0  0  0  0  0  0  0  0  0
    8.3510   -0.1440   25.1850 O   0  0  0  0  0  0  0  0  0  0  0  0
    7.6940   -2.3610   24.8420 C   0  0  2  0  0  0  0  0  0  0  0  0
    6.4550   -1.9100   25.6290 C   0  0  0  0  0  0  0  0  0  0  0  0
    8.4900   -3.3250   25.6910 C   0  0  2  0  0  0  0  0  0  0  0  0
    7.2640   -3.1140   23.5820 C   0  0  0  0  0  0  0  0  0  0  0  0
    5.7530   -3.0670   25.8030 C   0  0  0  0  0  0  0  0  0  0  0  0
    9.7410   -3.6530   25.1110 C   0  0  0  0  0  0  0  0  0  0  0  0
    7.7100   -4.3340   26.5100 C   0  0  1  0  0  0  0  0  0  0  0  0
    6.5540   -4.3310   23.6770 C   0  0  0  0  0  0  0  0  0  0  0  0
    6.5070   -2.2470   22.9670 C   0  0  0  0  0  0  0  0  0  0  0  0
    4.6570   -3.1930   25.2670 O   0  0  0  0  0  0  0  0  0  0  0  0
   10.1900   -4.8920   24.9570 N   0  0  0  0  0  0  0  0  0  0  0  0
    8.2020   -5.5680   26.1230 C   0  0  0  0  0  0  0  0  0  0  0  0
    6.5390   -4.9250   22.4160 C   0  0  0  0  0  0  0  0  0  0  0  0
    6.9680   -2.4700   21.6900 C   0  0  0  0  0  0  0  0  0  0  0  0
    8.1410   -4.4720   28.0050 C   0  0  0  0  0  0  0  0  0  0  0  0
    6.3600   -3.9800   26.6210 N   0  0  0  0  0  0  0  0  0  0  0  0
    9.3680   -5.7790   25.4120 C   0  0  0  0  0  0  0  0  0  0  0  0
    6.6030   -3.8390   21.3610 N   0  0  0  0  0  0  0  0  0  0  0  0
    7.2390   -5.2690   28.6810 C   0  0  0  0  0  0  0  0  0  0  0  0
    5.7820   -3.7440   27.9560 C   0  0  0  0  0  0  0  0  0  0  0  0
    6.2510   -4.0220   20.1090 C   0  0  0  0  0  0  0  0  0  0  0  0
    6.0300   -4.6650   28.9580 C   0  0  0  0  0  0  0  0  0  0  0  0
    7.1530   -3.3270   19.0650 C   0  0  0  0  0  0  0  0  0  0  0  0
    5.2650   -4.6830   19.8570 O   0  0  0  0  0  0  0  0  0  0  0  0
  1  2  1  0
  2  3  2  0
  2  4  1  0
  3  5  1  0
  3  6  1  0
  4  7  2  0
  5  8  1  0
  6  9  2  0
  7  9  1  0
  8 10  2  0
  8 11  1  0
 11 12  1  0
 12 13  1  0
 13 14  2  0
 15 13  1  6
 15 16  1  0
 15 17  1  0
 15 18  1  0
 16 19  1  0
 17 20  1  6
 17 21  1  0
 18 22  1  0
 18 23  1  0
 19 24  2  0
 20 25  1  0
 21 26  1  6
 22 27  1  0
 23 28  1  0
 21 29  1  0
 19 30  1  0
 21 30  1  0
 25 31  1  0
 26 31  2  0
 27 32  1  0
 28 32  1  0
 29 33  1  0
 30 34  1  0
 32 35  1  0
 33 36  1  0
 34 36  1  0
 35 37  1  0
 35 38  2  0
M  END
