x3108-x0161-x2052
     RDKit          3D

 56 62  0  0  0  0  0  0  0  0999 V2000
    5.9440    1.3760   22.0710 C   0  0  0  0  0  0  0  0  0  0  0  0
    6.0990    0.9820   20.6100 C   0  0  0  0  0  0  0  0  0  0  0  0
    6.9710   -0.0130   20.1280 C   0  0  0  0  0  0  0  0  0  0  0  0
    5.3380    1.6260   19.6110 C   0  0  0  0  0  0  0  0  0  0  0  0
    7.7710   -0.7220   21.1610 N   0  0  0  0  0  0  0  0  0  0  0  0
    7.0140   -0.2500   18.7420 C   0  0  0  0  0  0  0  0  0  0  0  0
    5.4390    1.3190   18.2670 C   0  0  0  0  0  0  0  0  0  0  0  0
    8.7460    0.0260   21.8050 C   0  0  0  0  0  0  0  0  0  0  0  0
    6.2770    0.3860   17.8220 N   0  0  0  0  0  0  0  0  0  0  0  0
    7.3220   -1.9880   21.8390 C   0  0  2  0  0  0  0  0  0  0  0  0
    9.1180    1.3630   21.3710 O   0  0  0  0  0  0  0  0  0  0  0  0
    9.3200   -0.8070   22.9640 C   0  0  2  0  0  0  0  0  0  0  0  0
    6.7690   -3.1080   21.2710 N   0  0  0  0  0  0  0  0  0  0  0  0
    6.3860   -1.5910   23.0000 C   0  0  2  0  0  0  0  0  0  0  0  0
    8.5710   -1.4760   23.8910 N   0  0  0  0  0  0  0  0  0  0  0  0
    7.2540   -1.1400   24.1860 C   0  0  1  0  0  0  0  0  0  0  0  0
    6.5040   -3.4520   19.9700 C   0  0  0  0  0  0  0  0  0  0  0  0
   10.5930   -0.4030   23.5230 C   0  0  1  0  0  0  0  0  0  0  0  0
    5.5830   -2.5430   23.6440 C   0  0  0  0  0  0  0  0  0  0  0  0
    6.2890   -4.1070   22.1860 C   0  0  0  0  0  0  0  0  0  0  0  0
    7.0380    0.0420   24.3760 O   0  0  0  0  0  0  0  0  0  0  0  0
    6.9000   -2.0660   25.3490 C   0  0  1  0  0  0  0  0  0  0  0  0
    5.5020   -4.1330   19.7320 O   0  0  0  0  0  0  0  0  0  0  0  0
    7.4770   -3.0430   18.8830 C   0  0  0  0  0  0  0  0  0  0  0  0
   11.6350   -1.1690   22.7510 C   0  0  0  0  0  0  0  0  0  0  0  0
    5.1280   -3.5540   22.6310 C   0  0  0  0  0  0  0  0  0  0  0  0
   11.0770    1.0260   23.4280 C   0  0  0  0  0  0  0  0  0  0  0  0
    7.4200   -1.3220   26.2710 O   0  0  0  0  0  0  0  0  0  0  0  0
    5.6410   -1.7020   26.0430 N   0  0  0  0  0  0  0  0  0  0  0  0
   12.9340   -0.4490   23.0410 C   0  0  1  0  0  0  0  0  0  0  0  0
    7.7670   -3.4060   25.5600 C   0  0  0  0  0  0  0  0  0  0  0  0
   12.4140    0.9640   23.1100 C   0  0  0  0  0  0  0  0  0  0  0  0
   10.4060    2.2880   23.6000 C   0  0  0  0  0  0  0  0  0  0  0  0
   13.4190   -0.8290   24.3120 O   0  0  0  0  0  0  0  0  0  0  0  0
   13.7950   -0.6150   21.9790 O   0  0  0  0  0  0  0  0  0  0  0  0
    8.5690   -3.9480   24.5330 C   0  0  0  0  0  0  0  0  0  0  0  0
    7.7990   -4.1090   26.7610 C   0  0  0  0  0  0  0  0  0  0  0  0
    5.6800   -0.7100   27.1800 C   0  0  0  0  0  0  0  0  0  0  0  0
   13.0400    2.1170   22.9150 C   0  0  0  0  0  0  0  0  0  0  0  0
   11.0520    3.4990   23.4280 C   0  0  0  0  0  0  0  0  0  0  0  0
   13.4700   -2.2500   24.5150 C   0  0  0  0  0  0  0  0  0  0  0  0
   10.2010    5.1020   23.6690 S   0  0  0  0  0  0  0  0  0  0  0  0
    9.3300   -5.0710   24.6670 N   0  0  0  0  0  0  0  0  0  0  0  0
    8.5840   -5.2630   26.8960 C   0  0  0  0  0  0  0  0  0  0  0  0
    6.0710    0.6360   26.9710 C   0  0  0  0  0  0  0  0  0  0  0  0
    5.3320   -1.1280   28.4360 C   0  0  0  0  0  0  0  0  0  0  0  0
   12.3780    3.4570   23.0620 C   0  0  0  0  0  0  0  0  0  0  0  0
   11.2320    6.2880   23.3760 O   0  0  0  0  0  0  0  0  0  0  0  0
    9.6800    5.3350   25.0820 O   0  0  0  0  0  0  0  0  0  0  0  0
    8.9180    5.1040   22.5640 N   0  0  0  0  0  0  0  0  0  0  0  0
    9.3500   -5.7360   25.8400 C   0  0  0  0  0  0  0  0  0  0  0  0
    6.1160    1.6180   28.0850 N   0  0  0  0  0  0  0  0  0  0  0  0
    5.3390   -0.2760   29.5600 C   0  0  0  0  0  0  0  0  0  0  0  0
    5.7440    1.2010   29.4520 C   0  0  0  0  0  0  0  0  0  0  0  0
    5.7660    2.0870   30.5410 O   0  0  0  0  0  0  0  0  0  0  0  0
    5.9990    3.4930   30.4190 C   0  0  0  0  0  0  0  0  0  0  0  0
  1  2  1  0
  2  3  2  0
  2  4  1  0
  3  5  1  0
  3  6  1  0
  4  7  2  0
  5  8  1  0
  6  9  2  0
  7  9  1  0
 10  5  1  6
  8 11  2  0
  8 12  1  0
 10 13  1  0
 10 14  1  0
 12 15  1  1
 14 16  1  0
 15 16  1  0
 13 17  1  0
 12 18  1  0
 14 19  1  1
 13 20  1  0
 16 21  1  1
 16 22  1  0
 17 23  2  0
 17 24  1  0
 18 25  1  6
 19 26  1  0
 20 26  1  0
 18 27  1  0
 22 28  1  1
 22 29  1  0
 25 30  1  0
 22 31  1  0
 27 32  2  0
 30 32  1  0
 27 33  1  0
 30 34  1  0
 30 35  1  6
 31 36  2  0
 31 37  1  0
 29 38  1  0
 32 39  1  0
 33 40  2  0
 34 41  1  0
 40 42  1  0
 36 43  1  0
 37 44  2  0
 38 45  2  0
 38 46  1  0
 39 47  2  0
 40 47  1  0
 42 48  2  0
 42 49  2  0
 42 50  1  0
 43 51  2  0
 44 51  1  0
 45 52  1  0
 46 53  2  0
 52 54  2  0
 53 54  1  0
 54 55  1  0
 55 56  1  0
M  END
