x3108-x0771
     RDKit          3D

 42 45  0  0  0  0  0  0  0  0999 V2000
    5.9310    1.7280   22.0550 C   0  0  0  0  0  0  0  0  0  0  0  0
    6.0940    1.1720   20.6430 C   0  0  0  0  0  0  0  0  0  0  0  0
    7.1070    0.1030   20.3100 C   0  0  0  0  0  0  0  0  0  0  0  0
    5.2650    1.6770   19.6310 C   0  0  0  0  0  0  0  0  0  0  0  0
    7.9280   -0.4050   21.3260 N   0  0  0  0  0  0  0  0  0  0  0  0
    7.1530   -0.3400   18.9160 C   0  0  0  0  0  0  0  0  0  0  0  0
    5.3440    1.2260   18.3110 C   0  0  0  0  0  0  0  0  0  0  0  0
    9.0980    0.1190   21.8190 C   0  0  0  0  0  0  0  0  0  0  0  0
    6.2610    0.2190   17.8510 N   0  0  0  0  0  0  0  0  0  0  0  0
    9.4690    1.2980   21.7620 O   0  0  0  0  0  0  0  0  0  0  0  0
    9.8740   -1.0270   22.4460 C   0  0  0  0  0  0  0  0  0  0  0  0
    9.6310   -1.3640   23.8830 N   0  0  0  0  0  0  0  0  0  0  0  0
    8.3770   -1.1130   24.4340 C   0  0  0  0  0  0  0  0  0  0  0  0
    7.9130    0.0180   24.5170 O   0  0  0  0  0  0  0  0  0  0  0  0
    7.6940   -2.2550   24.9440 C   0  0  1  0  0  0  0  0  0  0  0  0
    6.7430   -2.8290   24.0420 C   0  0  0  0  0  0  0  0  0  0  0  0
    8.4560   -3.4690   25.3670 C   0  0  0  0  0  0  0  0  0  0  0  0
    9.4960   -4.0820   24.6010 C   0  0  0  0  0  0  0  0  0  0  0  0
    8.1230   -4.0720   26.5800 C   0  0  0  0  0  0  0  0  0  0  0  0
    6.8110   -4.3930   23.9020 C   0  0  1  0  0  0  0  0  0  0  0  0
   10.0450   -5.2150   25.1360 N   0  0  0  0  0  0  0  0  0  0  0  0
    8.6600   -5.2040   27.1300 C   0  0  0  0  0  0  0  0  0  0  0  0
    5.4850   -5.0900   24.0220 N   0  0  0  0  0  0  0  0  0  0  0  0
    7.4790   -4.7240   22.7270 C   0  0  0  0  0  0  0  0  0  0  0  0
    4.9040   -5.4760   25.5860 S   0  0  0  0  0  0  0  0  0  0  0  0
    9.6320   -5.7970   26.3940 C   0  0  0  0  0  0  0  0  0  0  0  0
    6.6530   -5.1000   21.5860 N   0  0  0  0  0  0  0  0  0  0  0  0
    4.9630   -5.9140   22.9270 C   0  0  0  0  0  0  0  0  0  0  0  0
    4.3520   -6.8150   25.5460 O   0  0  0  0  0  0  0  0  0  0  0  0
    5.9020   -5.1420   26.5710 O   0  0  0  0  0  0  0  0  0  0  0  0
    6.6380   -4.2630   20.4880 C   0  0  0  0  0  0  0  0  0  0  0  0
    3.5790   -4.3260   25.7990 C   0  0  0  0  0  0  0  0  0  0  0  0
    5.7550   -6.2180   21.8220 C   0  0  0  0  0  0  0  0  0  0  0  0
    5.6010   -4.1640   19.8100 O   0  0  0  0  0  0  0  0  0  0  0  0
    7.9320   -3.5110   20.1320 C   0  0  0  0  0  0  0  0  0  0  0  0
    2.2770   -4.7140   25.4770 C   0  0  0  0  0  0  0  0  0  0  0  0
    3.9590   -2.9370   26.3300 C   0  0  0  0  0  0  0  0  0  0  0  0
    1.8670   -6.1400   24.9270 C   0  0  0  0  0  0  0  0  0  0  0  0
    1.3060   -3.6940   25.6860 C   0  0  0  0  0  0  0  0  0  0  0  0
    3.0170   -1.9890   26.5190 C   0  0  0  0  0  0  0  0  0  0  0  0
    1.5750   -2.4040   26.1690 C   0  0  0  0  0  0  0  0  0  0  0  0
    0.4450   -1.4050   26.3510 C   0  0  0  0  0  0  0  0  0  0  0  0
  1  2  1  0
  2  3  2  0
  2  4  1  0
  3  5  1  0
  3  6  1  0
  4  7  2  0
  5  8  1  0
  6  9  2  0
  7  9  1  0
  8 10  2  0
  8 11  1  0
 11 12  1  0
 12 13  1  0
 13 14  2  0
 13 15  1  0
 15 16  1  6
 15 17  1  0
 17 18  2  0
 17 19  1  0
 20 16  1  6
 18 21  1  0
 19 22  2  0
 20 23  1  0
 20 24  1  0
 23 25  1  0
 21 26  2  0
 22 26  1  0
 24 27  1  0
 23 28  1  0
 25 29  2  0
 25 30  2  0
 27 31  1  0
 25 32  1  0
 27 33  1  0
 28 33  1  0
 31 34  2  0
 31 35  1  0
 32 36  2  0
 32 37  1  0
 36 38  1  0
 36 39  1  0
 37 40  2  0
 39 41  2  0
 40 41  1  0
 41 42  1  0
M  END
