x3108-x0689
     RDKit          3D

 40 45  0  0  0  0  0  0  0  0999 V2000
    6.0050    1.7610   21.9880 C   0  0  0  0  0  0  0  0  0  0  0  0
    6.1180    1.1530   20.6090 C   0  0  0  0  0  0  0  0  0  0  0  0
    7.2000    0.2020   20.2740 C   0  0  0  0  0  0  0  0  0  0  0  0
    5.1780    1.5010   19.6280 C   0  0  0  0  0  0  0  0  0  0  0  0
    8.1440   -0.1210   21.2710 N   0  0  0  0  0  0  0  0  0  0  0  0
    7.2270   -0.3150   18.9860 C   0  0  0  0  0  0  0  0  0  0  0  0
    5.2640    0.9550   18.3490 C   0  0  0  0  0  0  0  0  0  0  0  0
    8.9870    0.8010   21.8690 C   0  0  0  0  0  0  0  0  0  0  0  0
    6.3420    0.0070   18.0270 N   0  0  0  0  0  0  0  0  0  0  0  0
    9.3160    1.8700   21.3540 O   0  0  0  0  0  0  0  0  0  0  0  0
    9.4540    0.3540   23.2510 C   0  0  0  0  0  0  0  0  0  0  0  0
    9.4270   -1.0950   23.5460 N   0  0  0  0  0  0  0  0  0  0  0  0
    8.3220   -1.5410   24.2540 C   0  0  0  0  0  0  0  0  0  0  0  0
    7.6750   -0.8250   25.0250 O   0  0  0  0  0  0  0  0  0  0  0  0
    8.1010   -2.9120   23.9500 C   0  0  2  0  0  0  0  0  0  0  0  0
    6.7590   -3.5530   24.4710 C   0  0  1  0  0  0  0  0  0  0  0  0
    8.7710   -3.7440   24.9810 C   0  0  0  0  0  0  0  0  0  0  0  0
    6.5930   -3.5500   25.8720 C   0  0  2  0  0  0  0  0  0  0  0  0
   10.0570   -4.1490   24.9100 C   0  0  0  0  0  0  0  0  0  0  0  0
    7.9410   -4.1360   26.1210 C   0  0  0  0  0  0  0  0  0  0  0  0
    5.4540   -3.5890   23.7370 C   0  0  2  0  0  0  0  0  0  0  0  0
    5.7070   -4.3730   26.5040 N   0  0  0  0  0  0  0  0  0  0  0  0
   10.6530   -4.9050   25.8360 N   0  0  0  0  0  0  0  0  0  0  0  0
    8.5460   -4.9100   27.0700 C   0  0  0  0  0  0  0  0  0  0  0  0
    4.8970   -4.7810   24.0650 N   0  0  0  0  0  0  0  0  0  0  0  0
    5.5180   -3.4580   22.4120 C   0  0  0  0  0  0  0  0  0  0  0  0
    4.3460   -4.8950   25.6260 S   0  0  1  0  0  0  0  0  0  0  0  0
    9.8570   -5.2520   26.8810 C   0  0  0  0  0  0  0  0  0  0  0  0
    6.2380   -4.4510   21.8490 N   0  0  0  0  0  0  0  0  0  0  0  0
    4.8480   -5.7580   23.1530 C   0  0  0  0  0  0  0  0  0  0  0  0
    6.2470   -4.3120   20.4970 C   0  0  0  0  0  0  0  0  0  0  0  0
    3.8860   -6.2360   25.9100 O   0  0  0  0  0  0  0  0  0  0  0  0
    5.9080   -5.8070   22.2760 C   0  0  0  0  0  0  0  0  0  0  0  0
    3.1040   -3.6600   25.7360 C   0  0  0  0  0  0  0  0  0  0  0  0
    7.2510   -3.4100   19.7280 C   0  0  0  0  0  0  0  0  0  0  0  0
    5.3510   -4.8900   19.9310 O   0  0  0  0  0  0  0  0  0  0  0  0
    3.4840   -2.0560   26.2150 S   0  0  0  0  0  0  0  0  0  0  0  0
    1.6210   -3.8560   25.4160 C   0  0  0  0  0  0  0  0  0  0  0  0
    0.9980   -2.6620   25.6110 C   0  0  0  0  0  0  0  0  0  0  0  0
    1.8360   -1.6240   26.0280 C   0  0  0  0  0  0  0  0  0  0  0  0
  1  2  1  0
  2  3  2  0
  2  4  1  0
  3  5  1  0
  3  6  1  0
  4  7  2  0
  5  8  1  0
  6  9  2  0
  7  9  1  0
  8 10  2  0
  8 11  1  0
 11 12  1  0
 12 13  1  0
 13 14  2  0
 15 13  1  1
 16 15  1  6
 15 17  1  0
 16 18  1  0
 17 19  2  0
 17 20  1  0
 18 20  1  0
 16 21  1  0
 18 22  1  6
 19 23  1  0
 20 24  2  0
 21 25  1  0
 21 26  1  6
 22 27  2  0
 25 27  1  0
 23 28  2  0
 24 28  1  0
 26 29  1  0
 25 30  1  0
 29 31  1  0
 27 32  2  0
 29 33  1  0
 30 33  1  0
 27 34  1  6
 31 35  1  0
 31 36  2  0
 34 37  1  0
 34 38  2  0
 38 39  1  0
 37 40  1  0
 39 40  2  0
M  END
