x3108-x3110
     RDKit          3D

 43 46  0  0  0  0  0  0  0  0999 V2000
    8.0720    1.0180   23.0300 N   0  0  0  0  0  0  0  0  0  0  0  0
    8.9250    2.1480   23.1110 C   0  0  0  0  0  0  0  0  0  0  0  0
   10.2610    2.0260   23.4690 C   0  0  0  0  0  0  0  0  0  0  0  0
    8.2070   -0.0290   21.9540 C   0  0  2  0  0  0  0  0  0  0  0  0
    8.9450    0.4300   21.0990 O   0  0  0  0  0  0  0  0  0  0  0  0
    6.8690   -0.4130   21.4530 C   0  0  2  0  0  0  0  0  0  0  0  0
    9.0510   -1.4090   22.5130 C   0  0  0  0  0  0  0  0  0  0  0  0
    7.0840   -1.7650   21.0270 N   0  0  0  0  0  0  0  0  0  0  0  0
   10.9670    3.2380   23.4130 C   0  0  0  0  0  0  0  0  0  0  0  0
    6.3120    0.3020   20.2210 C   0  0  0  0  0  0  0  0  0  0  0  0
    9.4960   -1.9160   21.3910 C   0  0  0  0  0  0  0  0  0  0  0  0
   11.8430    3.1650   22.5530 O   0  0  0  0  0  0  0  0  0  0  0  0
   10.7630    4.2410   24.1160 O   0  0  0  0  0  0  0  0  0  0  0  0
    6.2040   -2.9070   21.1940 C   0  0  0  0  0  0  0  0  0  0  0  0
    5.4010    1.3550   20.3000 C   0  0  0  0  0  0  0  0  0  0  0  0
    6.8000   -0.2270   19.0640 C   0  0  0  0  0  0  0  0  0  0  0  0
   10.8360   -1.8910   22.0710 C   0  0  0  0  0  0  0  0  0  0  0  0
    8.2620   -1.7000   21.7030 C   0  0  0  0  0  0  0  0  0  0  0  0
   12.2800    4.4190   22.0150 C   0  0  0  0  0  0  0  0  0  0  0  0
    4.9210   -3.0680   20.9700 O   0  0  0  0  0  0  0  0  0  0  0  0
    6.9720   -4.1110   21.6830 C   0  0  0  0  0  0  0  0  0  0  0  0
    4.9580    1.8470   21.6610 C   0  0  0  0  0  0  0  0  0  0  0  0
    6.3180    0.3600   17.7890 N   0  0  0  0  0  0  0  0  0  0  0  0
    4.9150    1.9340   19.1340 C   0  0  0  0  0  0  0  0  0  0  0  0
   10.8310   -1.5750   23.3960 C   0  0  0  0  0  0  0  0  0  0  0  0
    8.2660   -1.3650   23.0780 C   0  0  0  0  0  0  0  0  0  0  0  0
   13.5920    5.0970   22.4850 C   0  0  0  0  0  0  0  0  0  0  0  0
    7.1910   -4.9540   20.4220 C   0  0  0  0  0  0  0  0  0  0  0  0
   12.1560   -1.5510   24.2270 C   0  0  0  0  0  0  0  0  0  0  0  0
    5.3620    1.4450   17.9370 C   0  0  0  0  0  0  0  0  0  0  0  0
    9.4660   -1.3040   23.9050 C   0  0  0  0  0  0  0  0  0  0  0  0
   12.1090   -0.4530   25.0450 C   0  0  0  0  0  0  0  0  0  0  0  0
   13.2410   -1.6850   23.3500 C   0  0  0  0  0  0  0  0  0  0  0  0
   12.3610   -2.7930   25.1100 C   0  0  0  0  0  0  0  0  0  0  0  0
    8.8200   -0.9430   25.1930 C   0  0  0  0  0  0  0  0  0  0  0  0
    9.1070    0.0510   25.8280 O   0  0  0  0  0  0  0  0  0  0  0  0
    7.7880   -1.8750   25.4840 C   0  0  0  0  0  0  0  0  0  0  0  0
    8.3360   -3.3130   25.7360 C   0  0  0  0  0  0  0  0  0  0  0  0
    9.1750   -3.9890   24.6300 C   0  0  0  0  0  0  0  0  0  0  0  0
    8.0660   -4.0700   27.0460 C   0  0  0  0  0  0  0  0  0  0  0  0
    9.7850   -5.3230   24.6730 N   0  0  0  0  0  0  0  0  0  0  0  0
    8.6900   -5.4770   27.1520 C   0  0  0  0  0  0  0  0  0  0  0  0
    9.4920   -5.9780   25.9670 C   0  0  0  0  0  0  0  0  0  0  0  0
  1  2  1  0
  2  3  1  0
  1  4  1  0
  4  5  1  6
  4  6  1  0
  4  7  1  0
  6  8  1  0
  3  9  1  0
  6 10  1  6
  7 11  1  0
  9 12  1  0
  9 13  2  0
  8 14  1  0
 10 15  2  0
 10 16  1  0
 11 17  2  0
  8 18  1  0
 11 18  1  0
 12 19  1  0
 14 20  2  0
 14 21  1  0
 15 22  1  0
 16 23  2  0
 15 24  1  0
 17 25  1  0
 18 26  2  0
 19 27  1  0
 21 28  1  0
 25 29  1  0
 23 30  1  0
 24 30  2  0
 25 31  2  0
 26 31  1  0
 29 32  1  0
 29 33  1  0
 29 34  1  0
 31 35  1  0
 35 36  2  0
 35 37  1  0
 37 38  1  0
 38 39  2  0
 38 40  1  0
 39 41  1  0
 40 42  2  0
 41 43  2  0
 42 43  1  0
M  END
