x3108-x0978
     RDKit          3D

 37 38  0  0  0  0  0  0  0  0999 V2000
    1.8650   -5.6830   23.3390 N   0  0  0  0  0  0  0  0  0  0  0  0
    3.1540   -6.3780   23.2520 C   0  0  2  0  0  0  0  0  0  0  0  0
    3.5010   -7.1800   24.5090 C   0  0  1  0  0  0  0  0  0  0  0  0
    0.6840   -6.1630   22.5870 C   0  0  0  0  0  0  0  0  0  0  0  0
    0.7170   -7.1840   21.9040 O   0  0  0  0  0  0  0  0  0  0  0  0
   -0.4670   -5.3750   22.7140 C   0  0  0  0  0  0  0  0  0  0  0  0
    4.2470   -5.3660   22.7880 C   0  0  0  0  0  0  0  0  0  0  0  0
    2.2750   -7.9700   25.0360 C   0  0  0  0  0  0  0  0  0  0  0  0
    4.5220   -7.7950   24.2610 O   0  0  0  0  0  0  0  0  0  0  0  0
    5.1520   -5.8250   21.7080 N   0  0  0  0  0  0  0  0  0  0  0  0
    4.3200   -4.0870   23.3290 N   0  0  0  0  0  0  0  0  0  0  0  0
    6.4560   -5.1920   21.4810 C   0  0  0  0  0  0  0  0  0  0  0  0
    5.2230   -2.9360   22.9910 C   0  0  0  0  0  0  0  0  0  0  0  0
    6.5750   -4.4530   20.1080 C   0  0  0  0  0  0  0  0  0  0  0  0
    5.8530   -2.3900   24.2030 C   0  0  0  0  0  0  0  0  0  0  0  0
    5.4800   -3.5940   19.5190 C   0  0  0  0  0  0  0  0  0  0  0  0
    7.3980   -2.4710   24.0750 C   0  0  1  0  0  0  0  0  0  0  0  0
    8.0810   -1.2480   24.1940 C   0  0  0  0  0  0  0  0  0  0  0  0
    8.0210   -3.5820   24.8900 C   0  0  0  0  0  0  0  0  0  0  0  0
    7.6710   -0.3150   24.8960 O   0  0  0  0  0  0  0  0  0  0  0  0
    9.3590   -1.0770   23.4440 N   0  0  0  0  0  0  0  0  0  0  0  0
    9.0030   -4.4070   24.3390 C   0  0  0  0  0  0  0  0  0  0  0  0
    7.7260   -3.9530   26.2430 C   0  0  0  0  0  0  0  0  0  0  0  0
    9.6810    0.1570   23.0100 C   0  0  0  0  0  0  0  0  0  0  0  0
    9.6810   -5.4680   24.8760 N   0  0  0  0  0  0  0  0  0  0  0  0
    8.4600   -5.1320   26.8830 C   0  0  0  0  0  0  0  0  0  0  0  0
    9.0310    0.7560   21.8150 C   0  0  0  0  0  0  0  0  0  0  0  0
    9.3840   -5.8040   26.1470 C   0  0  0  0  0  0  0  0  0  0  0  0
    9.3290    1.8900   21.4020 O   0  0  0  0  0  0  0  0  0  0  0  0
    8.0230   -0.1310   21.2220 N   0  0  0  0  0  0  0  0  0  0  0  0
    7.1580    0.1850   20.2400 C   0  0  0  0  0  0  0  0  0  0  0  0
    7.1770   -0.3230   18.9330 C   0  0  0  0  0  0  0  0  0  0  0  0
    6.2060    1.1030   20.6460 C   0  0  0  0  0  0  0  0  0  0  0  0
    6.0580    1.7560   22.0830 C   0  0  0  0  0  0  0  0  0  0  0  0
    6.3040    0.0290   17.9560 N   0  0  0  0  0  0  0  0  0  0  0  0
    5.2950    1.4760   19.6710 C   0  0  0  0  0  0  0  0  0  0  0  0
    5.2830    1.0040   18.3620 C   0  0  0  0  0  0  0  0  0  0  0  0
  2  1  1  1
  2  3  1  0
  1  4  1  0
  4  5  2  0
  4  6  1  0
  2  7  1  0
  3  8  1  6
  3  9  1  0
  7 10  1  0
  7 11  2  3
 10 12  1  0
 11 13  1  0
 12 14  1  0
 13 15  1  0
 14 16  2  3
 17 15  1  1
 17 18  1  0
 17 19  1  0
 18 20  2  0
 18 21  1  0
 19 22  2  0
 19 23  1  0
 21 24  1  0
 22 25  1  0
 23 26  2  0
 24 27  1  0
 25 28  2  0
 26 28  1  0
 27 29  2  0
 27 30  1  0
 30 31  1  0
 31 32  2  0
 31 33  1  0
 33 34  1  0
 32 35  1  0
 33 36  2  0
 35 37  2  0
 36 37  1  0
M  END
