x3108-x1425
     RDKit          3D

 39 42  0  0  0  0  0  0  0  0999 V2000
    5.9400    1.7190   22.0160 C   0  0  0  0  0  0  0  0  0  0  0  0
    6.0800    1.1670   20.5920 C   0  0  0  0  0  0  0  0  0  0  0  0
    7.2150    0.2090   20.2790 C   0  0  0  0  0  0  0  0  0  0  0  0
    5.1870    1.5430   19.6260 C   0  0  0  0  0  0  0  0  0  0  0  0
    8.1940   -0.2210   21.2470 N   0  0  0  0  0  0  0  0  0  0  0  0
    7.2140   -0.2190   18.9290 C   0  0  0  0  0  0  0  0  0  0  0  0
    5.3210    1.0440   18.3480 C   0  0  0  0  0  0  0  0  0  0  0  0
    9.1230    0.6940   21.7160 C   0  0  0  0  0  0  0  0  0  0  0  0
    6.3000    0.1870   17.9880 N   0  0  0  0  0  0  0  0  0  0  0  0
    9.2330    1.8580   21.3250 O   0  0  0  0  0  0  0  0  0  0  0  0
   10.0810    0.1750   22.7870 C   0  0  0  0  0  0  0  0  0  0  0  0
    9.7760   -1.0250   23.4410 N   0  0  0  0  0  0  0  0  0  0  0  0
    8.5970   -1.1250   24.1480 C   0  0  0  0  0  0  0  0  0  0  0  0
    8.1420   -0.1840   24.7890 O   0  0  0  0  0  0  0  0  0  0  0  0
    7.9640   -2.3540   24.0380 C   0  0  1  0  0  0  0  0  0  0  0  0
    7.9640   -2.8700   22.7370 C   0  0  0  0  0  0  0  0  0  0  0  0
    8.4510   -3.5420   24.8720 C   0  0  0  0  0  0  0  0  0  0  0  0
    9.4800   -4.3060   24.2790 C   0  0  0  0  0  0  0  0  0  0  0  0
    7.9240   -3.8850   26.1120 C   0  0  0  0  0  0  0  0  0  0  0  0
    6.6660   -2.8940   22.0790 C   0  0  1  0  0  0  0  0  0  0  0  0
    9.9660   -5.4100   24.9160 N   0  0  0  0  0  0  0  0  0  0  0  0
    8.4290   -5.0850   26.8490 C   0  0  0  0  0  0  0  0  0  0  0  0
    6.4840   -4.0410   21.3970 N   0  0  0  0  0  0  0  0  0  0  0  0
    5.5200   -2.6900   22.8200 C   0  0  0  0  0  0  0  0  0  0  0  0
    6.1720   -3.9540   20.0900 C   0  0  0  0  0  0  0  0  0  0  0  0
    9.5100   -5.9130   26.2280 C   0  0  0  0  0  0  0  0  0  0  0  0
    5.4340   -3.7380   23.8400 N   0  0  0  0  0  0  0  0  0  0  0  0
    6.2630   -5.2490   22.2170 C   0  0  0  0  0  0  0  0  0  0  0  0
    5.1180   -4.4320   19.7530 O   0  0  0  0  0  0  0  0  0  0  0  0
    7.1880   -3.2550   19.1600 C   0  0  0  0  0  0  0  0  0  0  0  0
    4.7570   -3.3810   24.9240 C   0  0  0  0  0  0  0  0  0  0  0  0
    5.2110   -5.0370   23.1310 C   0  0  0  0  0  0  0  0  0  0  0  0
    5.2390   -2.3770   25.7990 C   0  0  0  0  0  0  0  0  0  0  0  0
    3.5410   -4.0520   25.1470 C   0  0  0  0  0  0  0  0  0  0  0  0
    4.4480   -2.0870   26.8990 C   0  0  0  0  0  0  0  0  0  0  0  0
    2.7930   -3.7110   26.2730 C   0  0  0  0  0  0  0  0  0  0  0  0
    3.2460   -2.7200   27.1610 C   0  0  0  0  0  0  0  0  0  0  0  0
    2.6360   -2.2330   28.3540 O   0  0  0  0  0  0  0  0  0  0  0  0
    1.2180   -2.3230   28.4190 C   0  0  0  0  0  0  0  0  0  0  0  0
  1  2  1  0
  2  3  2  0
  2  4  1  0
  3  5  1  0
  3  6  1  0
  4  7  2  0
  5  8  1  0
  6  9  2  0
  7  9  1  0
  8 10  2  0
  8 11  1  0
 11 12  1  0
 12 13  1  0
 13 14  2  0
 13 15  1  0
 15 16  1  6
 15 17  1  0
 17 18  2  0
 17 19  1  0
 20 16  1  1
 18 21  1  0
 19 22  2  0
 20 23  1  0
 20 24  1  0
 23 25  1  0
 21 26  2  0
 22 26  1  0
 24 27  1  0
 23 28  1  0
 25 29  2  0
 25 30  1  0
 27 31  1  0
 27 32  1  0
 28 32  1  0
 31 33  2  0
 31 34  1  0
 33 35  1  0
 34 36  2  0
 35 37  2  0
 36 37  1  0
 37 38  1  0
 38 39  1  0
M  END
