x3108-x2581
     RDKit          3D

 39 44  0  0  0  0  0  0  0  0999 V2000
    5.4060    1.0630   22.0500 C   0  0  0  0  0  0  0  0  0  0  0  0
    5.6970    0.6900   20.6100 C   0  0  0  0  0  0  0  0  0  0  0  0
    6.6810   -0.2540   20.3460 C   0  0  0  0  0  0  0  0  0  0  0  0
    5.0070    1.2750   19.5400 C   0  0  0  0  0  0  0  0  0  0  0  0
    7.4570   -0.8880   21.4240 N   0  0  0  0  0  0  0  0  0  0  0  0
    6.9570   -0.5810   19.0470 C   0  0  0  0  0  0  0  0  0  0  0  0
    5.2890    0.9370   18.2160 C   0  0  0  0  0  0  0  0  0  0  0  0
    6.3420   -0.0620   17.9760 N   0  0  0  0  0  0  0  0  0  0  0  0
    8.4680    0.0060   21.9750 C   0  0  0  0  0  0  0  0  0  0  0  0
    9.2950    0.0010   23.0960 C   0  0  0  0  0  0  0  0  0  0  0  0
    8.4730    1.0430   21.0980 C   0  0  0  0  0  0  0  0  0  0  0  0
    9.2550   -1.0490   24.1070 N   0  0  0  0  0  0  0  0  0  0  0  0
    9.2100    2.0890   21.1810 N   0  0  0  0  0  0  0  0  0  0  0  0
   10.0950    1.0700   23.1920 C   0  0  0  0  0  0  0  0  0  0  0  0
    8.1030   -0.9430   24.8730 C   0  0  0  0  0  0  0  0  0  0  0  0
    9.6320   -2.3040   23.6230 C   0  0  0  0  0  0  0  0  0  0  0  0
   10.0230    2.0990   22.2060 C   0  0  0  0  0  0  0  0  0  0  0  0
    7.8290    0.1060   25.4460 O   0  0  0  0  0  0  0  0  0  0  0  0
    7.2230   -2.1600   24.9160 C   0  0  0  0  0  0  0  0  0  0  0  0
   10.8260    3.2730   22.2010 N   0  0  0  0  0  0  0  0  0  0  0  0
    9.2690   -3.4080   24.6490 C   0  0  0  0  0  0  0  0  0  0  0  0
   11.3930    4.0020   23.2350 C   0  0  0  0  0  0  0  0  0  0  0  0
   10.1920   -4.5120   24.9450 N   0  0  0  0  0  0  0  0  0  0  0  0
    8.0410   -3.3560   25.3170 C   0  0  0  0  0  0  0  0  0  0  0  0
   11.2730    3.4420   24.2640 O   0  0  0  0  0  0  0  0  0  0  0  0
   11.9850    5.3340   22.8320 C   0  0  0  0  0  0  0  0  0  0  0  0
    7.6630   -4.3230   26.2490 C   0  0  0  0  0  0  0  0  0  0  0  0
    9.7570   -5.4170   25.8540 C   0  0  0  0  0  0  0  0  0  0  0  0
    8.5450   -5.3530   26.5020 C   0  0  0  0  0  0  0  0  0  0  0  0
   11.1180    6.4580   23.3800 C   0  0  0  0  0  0  0  0  0  0  0  0
    9.8840    6.7930   22.8350 C   0  0  0  0  0  0  0  0  0  0  0  0
   11.6790    7.1890   24.5650 C   0  0  0  0  0  0  0  0  0  0  0  0
    9.1470    7.7960   23.3570 C   0  0  0  0  0  0  0  0  0  0  0  0
   10.9240    8.2130   25.0860 C   0  0  0  0  0  0  0  0  0  0  0  0
    9.6830    8.5200   24.5030 C   0  0  0  0  0  0  0  0  0  0  0  0
   11.3900    8.9450   26.1800 C   0  0  0  0  0  0  0  0  0  0  0  0
    8.9130    9.5730   25.0250 C   0  0  0  0  0  0  0  0  0  0  0  0
   10.5540   10.0900   26.7460 C   0  0  0  0  0  0  0  0  0  0  0  0
    9.3370   10.3390   26.1150 C   0  0  0  0  0  0  0  0  0  0  0  0
  1  2  1  0
  2  3  2  0
  2  4  1  0
  3  5  1  0
  3  6  1  0
  4  7  2  0
  6  8  2  0
  7  8  1  0
  5  9  1  0
  9 10  1  0
  9 11  2  0
 10 12  1  0
 11 13  1  0
 10 14  2  0
 12 15  1  0
 12 16  1  0
 13 17  2  0
 14 17  1  0
 15 18  2  0
 15 19  1  0
 17 20  1  0
 16 21  1  0
 20 22  1  0
 21 23  1  0
 19 24  1  0
 21 24  2  0
 22 25  2  0
 22 26  1  0
 24 27  1  0
 23 28  2  0
 27 29  2  0
 28 29  1  0
 26 30  1  0
 30 31  2  0
 30 32  1  0
 31 33  1  0
 32 34  2  0
 33 35  2  0
 34 35  1  0
 34 36  1  0
 35 37  1  0
 36 38  2  0
 37 39  2  0
 38 39  1  0
M  END
