x3108-x0786
     RDKit          3D

 41 45  0  0  0  0  0  0  0  0999 V2000
    6.0420    1.8380   21.9660 C   0  0  0  0  0  0  0  0  0  0  0  0
    6.1560    1.2030   20.5850 C   0  0  0  0  0  0  0  0  0  0  0  0
    7.2180    0.1930   20.2450 C   0  0  0  0  0  0  0  0  0  0  0  0
    5.2450    1.5780   19.6100 C   0  0  0  0  0  0  0  0  0  0  0  0
    8.1420   -0.1650   21.2440 N   0  0  0  0  0  0  0  0  0  0  0  0
    7.2440   -0.3700   18.8830 C   0  0  0  0  0  0  0  0  0  0  0  0
    5.3060    1.0340   18.3310 C   0  0  0  0  0  0  0  0  0  0  0  0
    9.1330    0.6510   21.7510 C   0  0  0  0  0  0  0  0  0  0  0  0
    6.2300    0.1170   17.9450 N   0  0  0  0  0  0  0  0  0  0  0  0
    9.3140    1.8250   21.4140 O   0  0  0  0  0  0  0  0  0  0  0  0
    9.9790   -0.1050   22.7650 C   0  0  0  0  0  0  0  0  0  0  0  0
    9.3440   -1.2990   23.3730 N   0  0  0  0  0  0  0  0  0  0  0  0
    8.3990   -0.9810   24.3230 C   0  0  0  0  0  0  0  0  0  0  0  0
    8.2050    0.1730   24.7000 O   0  0  0  0  0  0  0  0  0  0  0  0
    7.6650   -2.0740   24.8260 C   0  0  1  0  0  0  0  0  0  0  0  0
    7.0030   -2.8790   23.7050 C   0  0  2  0  0  0  0  0  0  0  0  0
    8.3340   -3.3610   25.3000 C   0  0  0  0  0  0  0  0  0  0  0  0
    6.2800   -2.4310   22.6000 C   0  0  0  0  0  0  0  0  0  0  0  0
    9.2530   -4.1420   24.5660 C   0  0  0  0  0  0  0  0  0  0  0  0
    8.0780   -3.9530   26.5340 C   0  0  0  0  0  0  0  0  0  0  0  0
    6.0450   -3.9200   24.1480 C   0  0  0  0  0  0  0  0  0  0  0  0
    5.8170   -3.5350   21.8760 N   0  0  0  0  0  0  0  0  0  0  0  0
    9.8300   -5.3000   24.9300 N   0  0  0  0  0  0  0  0  0  0  0  0
    8.6550   -5.1580   26.9500 C   0  0  0  0  0  0  0  0  0  0  0  0
    5.3120   -4.3920   22.9410 C   0  0  0  0  0  0  0  0  0  0  0  0
    5.6810   -4.5370   25.3030 C   0  0  0  0  0  0  0  0  0  0  0  0
    6.4210   -4.0440   20.7460 C   0  0  0  0  0  0  0  0  0  0  0  0
    9.5470   -5.8600   26.1440 C   0  0  0  0  0  0  0  0  0  0  0  0
    4.4410   -5.3610   23.0140 C   0  0  0  0  0  0  0  0  0  0  0  0
    4.7620   -5.5240   25.3170 C   0  0  0  0  0  0  0  0  0  0  0  0
    7.9660   -4.2810   20.7330 C   0  0  0  0  0  0  0  0  0  0  0  0
    5.6540   -4.2920   19.8250 O   0  0  0  0  0  0  0  0  0  0  0  0
    4.1220   -5.9880   24.1970 C   0  0  0  0  0  0  0  0  0  0  0  0
    3.1410   -7.1050   24.2410 C   0  0  0  0  0  0  0  0  0  0  0  0
    3.5530   -8.1320   24.7660 O   0  0  0  0  0  0  0  0  0  0  0  0
    1.8670   -6.9360   23.7240 N   0  0  0  0  0  0  0  0  0  0  0  0
    1.4130   -5.5680   23.3730 C   0  0  0  0  0  0  0  0  0  0  0  0
    0.8220   -7.9490   23.9010 C   0  0  0  0  0  0  0  0  0  0  0  0
    0.6000   -5.0350   24.3770 C   0  0  0  0  0  0  0  0  0  0  0  0
   -0.1810   -7.5650   24.7970 C   0  0  0  0  0  0  0  0  0  0  0  0
   -0.8940   -6.0880   24.2710 S   0  0  0  0  0  0  0  0  0  0  0  0
  1  2  1  0
  2  3  2  0
  2  4  1  0
  3  5  1  0
  3  6  1  0
  4  7  2  0
  5  8  1  0
  6  9  2  0
  7  9  1  0
  8 10  2  0
  8 11  1  0
 11 12  1  0
 12 13  1  0
 13 14  2  0
 15 13  1  6
 15 16  1  0
 15 17  1  0
 16 18  1  6
 17 19  2  0
 17 20  1  0
 16 21  1  0
 18 22  1  0
 19 23  1  0
 20 24  2  0
 21 25  2  0
 22 25  1  0
 21 26  1  0
 22 27  1  0
 23 28  2  0
 24 28  1  0
 25 29  1  0
 26 30  2  0
 27 31  1  0
 27 32  2  0
 29 33  2  0
 30 33  1  0
 33 34  1  0
 34 35  2  0
 34 36  1  0
 36 37  1  0
 36 38  1  0
 37 39  1  0
 38 40  1  0
 39 41  1  0
 40 41  1  0
M  END
