x3108-x0967
     RDKit          3D

 31 33  0  0  0  0  0  0  0  0999 V2000
    7.5100    4.7100   22.3090 C   0  0  0  0  0  0  0  0  0  0  0  0
    6.9410    3.5980   23.1500 C   0  0  0  0  0  0  0  0  0  0  0  0
    7.8410    2.6080   23.4200 N   0  0  0  0  0  0  0  0  0  0  0  0
    5.7860    3.6130   23.5570 O   0  0  0  0  0  0  0  0  0  0  0  0
    7.5080    1.1780   23.5370 C   0  0  1  0  0  0  0  0  0  0  0  0
    6.0890    0.8490   22.8930 C   0  0  0  0  0  0  0  0  0  0  0  0
    8.7710    0.4770   22.9730 C   0  0  1  0  0  0  0  0  0  0  0  0
    8.6010   -0.9650   22.8780 N   0  0  0  0  0  0  0  0  0  0  0  0
    9.1470    1.3260   21.8110 C   0  0  0  0  0  0  0  0  0  0  0  0
    5.9670    0.8070   21.3590 C   0  0  0  0  0  0  0  0  0  0  0  0
    9.6330   -1.7470   22.1340 C   0  0  0  0  0  0  0  0  0  0  0  0
    9.0240    1.6460   20.6950 O   0  0  0  0  0  0  0  0  0  0  0  0
    8.2460    0.3760   21.1020 N   0  0  0  0  0  0  0  0  0  0  0  0
    8.2020   -1.4280   24.1990 C   0  0  0  0  0  0  0  0  0  0  0  0
    7.0450    0.5540   20.5680 C   0  0  0  0  0  0  0  0  0  0  0  0
    4.7250    1.0320   20.7460 C   0  0  0  0  0  0  0  0  0  0  0  0
   10.8730   -1.0930   22.1630 C   0  0  0  0  0  0  0  0  0  0  0  0
    8.5720   -0.7390   25.3120 O   0  0  0  0  0  0  0  0  0  0  0  0
    7.3860   -2.4930   24.5080 C   0  0  0  0  0  0  0  0  0  0  0  0
    6.9320    0.4890   19.1720 C   0  0  0  0  0  0  0  0  0  0  0  0
    4.5910    0.9870   19.3380 C   0  0  0  0  0  0  0  0  0  0  0  0
   11.8970   -1.6110   22.9610 C   0  0  0  0  0  0  0  0  0  0  0  0
    5.7140    0.7080   18.5720 C   0  0  0  0  0  0  0  0  0  0  0  0
    8.1220   -3.5920   25.2170 C   0  0  0  0  0  0  0  0  0  0  0  0
    5.6020    0.6590   17.2320 O   0  0  0  0  0  0  0  0  0  0  0  0
   13.2690   -2.2900   24.0820 Br  0  0  0  0  0  0  0  0  0  0  0  0
    9.2870   -3.9770   24.7400 C   0  0  0  0  0  0  0  0  0  0  0  0
    7.6360   -4.2310   26.3490 C   0  0  0  0  0  0  0  0  0  0  0  0
   10.0270   -4.9580   25.2880 N   0  0  0  0  0  0  0  0  0  0  0  0
    8.3930   -5.2480   26.9160 C   0  0  0  0  0  0  0  0  0  0  0  0
    9.5140   -5.5600   26.3760 C   0  0  0  0  0  0  0  0  0  0  0  0
  1  2  1  0
  2  3  1  0
  2  4  2  0
  5  3  1  6
  5  6  1  0
  5  7  1  0
  7  8  1  6
  7  9  1  0
  6 10  1  0
  8 11  1  0
  9 12  2  0
  9 13  1  0
  8 14  1  0
 10 15  2  0
 13 15  1  0
 10 16  1  0
 11 17  1  0
 14 18  2  0
 14 19  1  0
 15 20  1  0
 16 21  2  0
 17 22  3  0
 20 23  2  0
 21 23  1  0
 19 24  1  0
 23 25  1  0
 22 26  1  0
 24 27  2  0
 24 28  1  0
 27 29  1  0
 28 30  2  0
 29 31  2  0
 30 31  1  0
M  END
