x3108-x0161
     RDKit          3D

 37 40  0  0  0  0  0  0  0  0999 V2000
    6.0090    1.6480   22.0070 C   0  0  0  0  0  0  0  0  0  0  0  0
    6.1170    1.1000   20.6040 C   0  0  0  0  0  0  0  0  0  0  0  0
    7.1530    0.1120   20.2310 C   0  0  0  0  0  0  0  0  0  0  0  0
    5.2100    1.5410   19.6280 C   0  0  0  0  0  0  0  0  0  0  0  0
    8.0690   -0.3260   21.2040 N   0  0  0  0  0  0  0  0  0  0  0  0
    7.1590   -0.3250   18.9210 C   0  0  0  0  0  0  0  0  0  0  0  0
    5.2800    1.0590   18.3220 C   0  0  0  0  0  0  0  0  0  0  0  0
    8.9100    0.5110   21.9030 C   0  0  0  0  0  0  0  0  0  0  0  0
    6.3140    0.0750   17.9590 N   0  0  0  0  0  0  0  0  0  0  0  0
    9.3540    1.5740   21.4510 O   0  0  0  0  0  0  0  0  0  0  0  0
    9.1490   -0.0490   23.3170 C   0  0  1  0  0  0  0  0  0  0  0  0
    8.4470   -1.3020   23.5760 N   0  0  0  0  0  0  0  0  0  0  0  0
   10.5300   -0.1250   23.6700 C   0  0  1  0  0  0  0  0  0  0  0  0
    7.7840   -1.2150   24.7670 C   0  0  0  0  0  0  0  0  0  0  0  0
   11.4190   -0.8870   22.8770 C   0  0  0  0  0  0  0  0  0  0  0  0
   11.0870    1.2430   23.5060 C   0  0  0  0  0  0  0  0  0  0  0  0
    7.8380   -0.2240   25.4820 O   0  0  0  0  0  0  0  0  0  0  0  0
    7.0200   -2.3430   25.0740 C   0  0  0  0  0  0  0  0  0  0  0  0
   12.8100   -0.3110   23.1010 C   0  0  1  0  0  0  0  0  0  0  0  0
   12.3830    1.1460   23.1420 C   0  0  0  0  0  0  0  0  0  0  0  0
   10.4990    2.4930   23.6490 C   0  0  0  0  0  0  0  0  0  0  0  0
   13.2680   -0.6910   24.1960 O   0  0  0  0  0  0  0  0  0  0  0  0
   13.5730   -0.5530   22.1670 O   0  0  0  0  0  0  0  0  0  0  0  0
    7.9310   -3.4990   25.4250 C   0  0  0  0  0  0  0  0  0  0  0  0
   13.0290    2.3330   22.8870 C   0  0  0  0  0  0  0  0  0  0  0  0
   11.1300    3.7080   23.4240 C   0  0  0  0  0  0  0  0  0  0  0  0
   13.4040   -2.1040   24.3600 C   0  0  0  0  0  0  0  0  0  0  0  0
   10.3080    5.3480   23.6390 S   0  0  0  0  0  0  0  0  0  0  0  0
    8.8840   -3.9710   24.5140 C   0  0  0  0  0  0  0  0  0  0  0  0
    7.7950   -4.1430   26.7570 C   0  0  0  0  0  0  0  0  0  0  0  0
   12.4630    3.5020   23.0120 C   0  0  0  0  0  0  0  0  0  0  0  0
   11.1500    6.3570   23.0310 O   0  0  0  0  0  0  0  0  0  0  0  0
    9.8330    5.4990   24.9920 O   0  0  0  0  0  0  0  0  0  0  0  0
    9.0710    5.2260   22.7430 N   0  0  0  0  0  0  0  0  0  0  0  0
    9.7210   -5.0100   24.7590 N   0  0  0  0  0  0  0  0  0  0  0  0
    8.6920   -5.1910   26.9000 C   0  0  0  0  0  0  0  0  0  0  0  0
    9.6050   -5.6040   25.9490 C   0  0  0  0  0  0  0  0  0  0  0  0
  1  2  1  0
  2  3  2  0
  2  4  1  0
  3  5  1  0
  3  6  1  0
  4  7  2  0
  5  8  1  0
  6  9  2  0
  7  9  1  0
  8 10  2  0
  8 11  1  0
 11 12  1  6
 11 13  1  0
 12 14  1  0
 13 15  1  6
 13 16  1  0
 14 17  2  0
 14 18  1  0
 15 19  1  0
 16 20  2  0
 19 20  1  0
 16 21  1  0
 19 22  1  0
 19 23  1  6
 18 24  1  0
 20 25  1  0
 21 26  2  0
 22 27  1  0
 26 28  1  0
 24 29  2  0
 24 30  1  0
 25 31  2  0
 26 31  1  0
 28 32  2  0
 28 33  2  0
 28 34  1  0
 29 35  1  0
 30 36  2  0
 35 37  2  0
 36 37  1  0
M  END
