x3113-x3115-x1308
     RDKit          3D

 50 54  0  0  0  0  0  0  0  0999 V2000
    6.4180   -1.7460   21.8730 C   0  0  1  0  0  0  0  0  0  0  0  0
    5.3660   -2.4100   20.7400 C   0  0  0  0  0  0  0  0  0  0  0  0
    4.5710   -2.9120   19.8840 O   0  0  0  0  0  0  0  0  0  0  0  0
    5.9730   -0.1710   21.7720 C   0  0  1  0  0  0  0  0  0  0  0  0
    5.8350   -2.7480   23.0160 C   0  0  0  0  0  0  0  0  0  0  0  0
    8.0650   -1.6510   22.0500 C   0  0  0  0  0  0  0  0  0  0  0  0
    6.3620   -3.1880   19.8310 C   0  0  0  0  0  0  0  0  0  0  0  0
    6.9760    1.0340   22.1190 C   0  0  0  0  0  0  0  0  0  0  0  0
    5.4430    0.3940   20.3690 C   0  0  0  0  0  0  0  0  0  0  0  0
    9.1220   -1.6290   21.0800 C   0  0  0  0  0  0  0  0  0  0  0  0
    8.6000   -1.5600   23.4160 C   0  0  0  0  0  0  0  0  0  0  0  0
    6.3500   -4.2940   23.0160 C   0  0  2  0  0  0  0  0  0  0  0  0
    7.0140   -4.3690   20.4920 C   0  0  0  0  0  0  0  0  0  0  0  0
    6.6470    1.9100   23.2310 N   0  0  0  0  0  0  0  0  0  0  0  0
    8.0030    1.2600   21.4630 O   0  0  0  0  0  0  0  0  0  0  0  0
    4.1610    1.0030   20.1530 C   0  0  0  0  0  0  0  0  0  0  0  0
    6.2910    0.3170   19.2010 C   0  0  0  0  0  0  0  0  0  0  0  0
   10.4900   -1.5420   21.4220 C   0  0  0  0  0  0  0  0  0  0  0  0
    9.9910   -1.4780   23.7390 C   0  0  0  0  0  0  0  0  0  0  0  0
    6.2660   -4.9610   21.6890 N   0  0  0  0  0  0  0  0  0  0  0  0
    5.7970   -5.0190   24.1050 C   0  0  0  0  0  0  0  0  0  0  0  0
    7.2550    3.1780   23.5230 C   0  0  1  0  0  0  0  0  0  0  0  0
    5.9730    0.7670   17.9440 N   0  0  0  0  0  0  0  0  0  0  0  0
    3.7780    1.4950   18.8650 C   0  0  0  0  0  0  0  0  0  0  0  0
   11.0390   -1.4630   22.7450 C   0  0  0  0  0  0  0  0  0  0  0  0
    4.8450   -6.1190   23.7780 N   0  0  0  0  0  0  0  0  0  0  0  0
    6.0290   -6.3730   21.6790 C   0  0  0  0  0  0  0  0  0  0  0  0
    8.6340    3.0000   23.9280 C   0  0  0  0  0  0  0  0  0  0  0  0
   12.5380   -1.3540   23.1860 C   0  0  0  0  0  0  0  0  0  0  0  0
    7.0840    4.1450   22.3140 C   0  0  0  0  0  0  0  0  0  0  0  0
    4.0160   -6.6820   25.0000 S   0  0  0  0  0  0  0  0  0  0  0  0
    4.6800    1.3780   17.7790 C   0  0  0  0  0  0  0  0  0  0  0  0
    5.1680   -6.9640   22.6470 C   0  0  0  0  0  0  0  0  0  0  0  0
    9.1170    3.9560   25.0740 C   0  0  0  0  0  0  0  0  0  0  0  0
   13.4200   -1.8800   22.1900 C   0  0  0  0  0  0  0  0  0  0  0  0
   12.8780   -2.1080   24.5390 C   0  0  0  0  0  0  0  0  0  0  0  0
   12.8700    0.1700   23.3920 C   0  0  0  0  0  0  0  0  0  0  0  0
    7.2670    5.4690   22.6770 O   0  0  0  0  0  0  0  0  0  0  0  0
    4.7380   -6.7390   26.4310 O   0  0  0  0  0  0  0  0  0  0  0  0
    3.5490   -8.1710   24.6550 O   0  0  0  0  0  0  0  0  0  0  0  0
    2.5700   -5.6110   25.1280 C   0  0  0  0  0  0  0  0  0  0  0  0
   10.5560    3.9120   25.1220 O   0  0  0  0  0  0  0  0  0  0  0  0
    7.6270    6.3820   21.6120 C   0  0  0  0  0  0  0  0  0  0  0  0
    2.4110   -4.7820   26.2760 C   0  0  0  0  0  0  0  0  0  0  0  0
    1.5840   -5.5840   24.1050 C   0  0  0  0  0  0  0  0  0  0  0  0
   11.2950    5.0130   24.4980 C   0  0  0  0  0  0  0  0  0  0  0  0
    1.2670   -3.9450   26.3710 C   0  0  0  0  0  0  0  0  0  0  0  0
    0.4450   -4.7580   24.1980 C   0  0  0  0  0  0  0  0  0  0  0  0
    0.1810   -3.9000   25.2800 C   0  0  0  0  0  0  0  0  0  0  0  0
   -1.1960   -2.8740   25.4130 Cl  0  0  0  0  0  0  0  0  0  0  0  0
  1  2  1  0
  2  3  2  0
  1  4  1  0
  1  5  1  0
  1  6  1  6
  2  7  1  0
  4  8  1  6
  4  9  1  0
  6 10  2  0
  6 11  1  0
 12  5  1  6
  7 13  1  0
  8 14  1  0
  8 15  2  0
  9 16  2  0
  9 17  1  0
 10 18  1  0
 11 19  2  0
 12 20  1  0
 13 20  1  0
 12 21  1  0
 14 22  1  0
 17 23  2  0
 16 24  1  0
 18 25  2  0
 19 25  1  0
 21 26  1  0
 20 27  1  0
 22 28  1  6
 25 29  1  0
 22 30  1  0
 26 31  1  0
 23 32  1  0
 24 32  2  0
 26 33  1  0
 27 33  1  0
 28 34  1  0
 29 35  1  0
 29 36  1  0
 29 37  1  0
 30 38  1  0
 31 39  2  0
 31 40  2  0
 31 41  1  0
 34 42  1  0
 38 43  1  0
 41 44  2  0
 41 45  1  0
 42 46  1  0
 44 47  1  0
 45 48  2  0
 47 49  2  0
 48 49  1  0
 49 50  1  0
M  END
