x3115-x3117
     RDKit          3D

 32 34  0  0  0  0  0  0  0  0999 V2000
    6.8230   -1.5810   21.9020 N   0  0  0  0  0  0  0  0  0  0  0  0
    6.0230   -2.7980   21.6110 C   0  0  0  0  0  0  0  0  0  0  0  0
    4.7850   -2.9940   21.2770 O   0  0  0  0  0  0  0  0  0  0  0  0
    6.4720   -0.2180   21.7460 C   0  0  1  0  0  0  0  0  0  0  0  0
    8.1250   -1.6590   22.4830 C   0  0  0  0  0  0  0  0  0  0  0  0
    6.7790   -4.1010   21.7220 C   0  0  0  0  0  0  0  0  0  0  0  0
    7.6410    0.7660   22.0080 C   0  0  0  0  0  0  0  0  0  0  0  0
    6.0160    0.2210   20.4070 C   0  0  0  0  0  0  0  0  0  0  0  0
    9.1920   -1.9160   21.6490 C   0  0  0  0  0  0  0  0  0  0  0  0
    8.4180   -1.4740   23.8260 C   0  0  0  0  0  0  0  0  0  0  0  0
    6.6770   -4.8100   20.3910 C   0  0  0  0  0  0  0  0  0  0  0  0
    7.5380    1.9570   22.9270 N   0  0  0  0  0  0  0  0  0  0  0  0
    8.6870    0.6000   21.3930 O   0  0  0  0  0  0  0  0  0  0  0  0
    4.8640    1.0320   20.2630 C   0  0  0  0  0  0  0  0  0  0  0  0
    6.7690   -0.1380   19.0840 C   0  0  0  0  0  0  0  0  0  0  0  0
   10.6700   -1.9830   22.1990 C   0  0  0  0  0  0  0  0  0  0  0  0
    9.7170   -1.5160   24.3740 C   0  0  0  0  0  0  0  0  0  0  0  0
    6.3120    0.3490   17.7820 N   0  0  0  0  0  0  0  0  0  0  0  0
    4.4730    1.4630   19.0190 C   0  0  0  0  0  0  0  0  0  0  0  0
   10.9730   -1.7870   23.5180 C   0  0  0  0  0  0  0  0  0  0  0  0
    8.4770    3.0630   22.8530 C   0  0  2  0  0  0  0  0  0  0  0  0
   12.3840   -1.8060   24.0860 C   0  0  0  0  0  0  0  0  0  0  0  0
    5.2020    1.1160   17.8410 C   0  0  0  0  0  0  0  0  0  0  0  0
    9.6070    2.9060   23.7320 C   0  0  0  0  0  0  0  0  0  0  0  0
    7.9830    4.3670   23.1630 C   0  0  2  0  0  0  0  0  0  0  0  0
    7.1910    4.8400   21.9410 C   0  0  0  0  0  0  0  0  0  0  0  0
   13.4130   -1.8050   22.9700 C   0  0  0  0  0  0  0  0  0  0  0  0
   12.7270   -2.9880   24.9770 C   0  0  0  0  0  0  0  0  0  0  0  0
   12.5220   -0.5450   24.9340 C   0  0  0  0  0  0  0  0  0  0  0  0
   10.5660    3.9010   23.6230 C   0  0  0  0  0  0  0  0  0  0  0  0
    9.0120    5.4600   23.6030 C   0  0  0  0  0  0  0  0  0  0  0  0
   10.0950    5.0210   24.2640 O   0  0  0  0  0  0  0  0  0  0  0  0
  1  2  1  0
  2  3  2  0
  1  4  1  0
  1  5  1  0
  2  6  1  0
  4  7  1  6
  4  8  1  0
  5  9  2  0
  5 10  1  0
  6 11  1  0
  7 12  1  0
  7 13  2  0
  8 14  2  0
  8 15  1  0
  9 16  1  0
 10 17  2  0
 15 18  2  0
 14 19  1  0
 16 20  2  0
 17 20  1  0
 21 12  1  1
 20 22  1  0
 18 23  1  0
 19 23  2  0
 21 24  1  0
 21 25  1  0
 25 26  1  6
 22 27  1  0
 22 28  1  0
 22 29  1  0
 24 30  1  0
 25 31  1  0
 30 32  1  0
 31 32  1  0
M  END
