x3117-x1374-x1458
     RDKit          3D

 51 55  0  0  0  0  0  0  0  0999 V2000
    6.8690   -1.4040   21.8650 N   0  0  0  0  0  0  0  0  0  0  0  0
    5.9980   -2.6140   21.5500 C   0  0  0  0  0  0  0  0  0  0  0  0
    4.7180   -2.8870   21.2600 O   0  0  0  0  0  0  0  0  0  0  0  0
    6.5430   -0.0520   21.6480 C   0  0  1  0  0  0  0  0  0  0  0  0
    8.1920   -1.4910   22.4220 C   0  0  0  0  0  0  0  0  0  0  0  0
    6.7130   -3.8850   21.5440 C   0  0  1  0  0  0  0  0  0  0  0  0
    7.6310    0.8870   21.8340 C   0  0  0  0  0  0  0  0  0  0  0  0
    6.0700    0.2990   20.3040 C   0  0  0  0  0  0  0  0  0  0  0  0
    9.2710   -1.9590   21.6840 C   0  0  0  0  0  0  0  0  0  0  0  0
    8.4790   -1.1040   23.7350 C   0  0  0  0  0  0  0  0  0  0  0  0
    6.6810   -4.3090   20.0820 C   0  0  0  0  0  0  0  0  0  0  0  0
    7.2630    2.1150   22.3350 N   0  0  0  0  0  0  0  0  0  0  0  0
    8.7960    0.6340   21.5150 O   0  0  0  0  0  0  0  0  0  0  0  0
    4.8310    1.1910   20.1900 C   0  0  0  0  0  0  0  0  0  0  0  0
    6.7850   -0.1730   19.2090 C   0  0  0  0  0  0  0  0  0  0  0  0
   10.7020   -2.0710   22.2280 C   0  0  0  0  0  0  0  0  0  0  0  0
    9.7390   -1.1710   24.3210 C   0  0  0  0  0  0  0  0  0  0  0  0
    7.5880   -4.3370   22.7280 C   0  0  0  0  0  0  0  0  0  0  0  0
    6.2860    0.2540   17.8850 N   0  0  0  0  0  0  0  0  0  0  0  0
    4.4340    1.5460   18.8100 C   0  0  0  0  0  0  0  0  0  0  0  0
    8.1260    3.1360   22.9230 C   0  0  0  0  0  0  0  0  0  0  0  0
   10.8970   -1.6380   23.6560 C   0  0  0  0  0  0  0  0  0  0  0  0
    8.0590   -3.7050   23.8890 C   0  0  0  0  0  0  0  0  0  0  0  0
    7.8930   -5.6400   22.5500 C   0  0  0  0  0  0  0  0  0  0  0  0
   12.2440   -1.7090   24.3220 C   0  0  0  0  0  0  0  0  0  0  0  0
    5.2060    1.0420   17.8110 C   0  0  0  0  0  0  0  0  0  0  0  0
    9.5920    2.8660   22.6450 C   0  0  0  0  0  0  0  0  0  0  0  0
    7.6760    4.5210   22.5230 C   0  0  0  0  0  0  0  0  0  0  0  0
    8.8880   -4.5210   24.8820 C   0  0  0  0  0  0  0  0  0  0  0  0
    8.6360   -6.3820   23.4220 C   0  0  0  0  0  0  0  0  0  0  0  0
   12.2800   -0.5410   25.1280 C   0  0  0  0  0  0  0  0  0  0  0  0
   13.3270   -1.8010   23.3080 C   0  0  0  0  0  0  0  0  0  0  0  0
   12.2820   -3.0460   24.9440 C   0  0  0  0  0  0  0  0  0  0  0  0
    9.4480   -3.9820   26.2100 C   0  0  0  0  0  0  0  0  0  0  0  0
   10.4720    3.9350   22.8200 C   0  0  0  0  0  0  0  0  0  0  0  0
    8.6400    5.5330   22.8260 C   0  0  0  0  0  0  0  0  0  0  0  0
    9.1360   -5.8330   24.5810 C   0  0  0  0  0  0  0  0  0  0  0  0
    8.2500   -4.0830   27.2070 C   0  0  1  0  0  0  0  0  0  0  0  0
    9.7290    4.9930   23.4730 O   0  0  0  0  0  0  0  0  0  0  0  0
    7.2240   -3.2550   26.5730 N   0  0  0  0  0  0  0  0  0  0  0  0
    7.9510   -5.5440   27.6090 C   0  0  0  0  0  0  0  0  0  0  0  0
    6.5190   -2.2990   27.4100 C   0  0  0  0  0  0  0  0  0  0  0  0
    6.3150   -4.0420   25.8830 C   0  0  0  0  0  0  0  0  0  0  0  0
    4.9550   -3.6340   25.4620 N   0  0  0  0  0  0  0  0  0  0  0  0
    4.3540   -4.7940   24.7840 C   0  0  0  0  0  0  0  0  0  0  0  0
    4.6180   -4.8410   23.4160 C   0  0  0  0  0  0  0  0  0  0  0  0
    3.6510   -5.7760   25.3470 C   0  0  0  0  0  0  0  0  0  0  0  0
    4.5620   -6.1220   22.9410 C   0  0  0  0  0  0  0  0  0  0  0  0
    3.3190   -6.9310   23.9910 S   0  0  0  0  0  0  0  0  0  0  0  0
    2.0150   -6.7380   23.3870 O   0  0  0  0  0  0  0  0  0  0  0  0
    3.8240   -8.2290   24.2760 O   0  0  0  0  0  0  0  0  0  0  0  0
  1  2  1  0
  2  3  2  0
  1  4  1  0
  1  5  1  0
  2  6  1  0
  4  7  1  6
  4  8  1  0
  5  9  2  0
  5 10  1  0
  6 11  1  6
  7 12  1  0
  7 13  2  0
  8 14  2  0
  8 15  1  0
  9 16  1  0
 10 17  2  0
  6 18  1  0
 15 19  2  0
 14 20  1  0
 12 21  1  0
 16 22  2  0
 17 22  1  0
 18 23  2  0
 18 24  1  0
 22 25  1  0
 19 26  1  0
 20 26  2  0
 21 27  1  0
 21 28  1  0
 23 29  1  0
 24 30  2  0
 25 31  1  0
 25 32  1  0
 25 33  1  0
 29 34  1  0
 27 35  1  0
 28 36  1  0
 29 37  2  0
 30 37  1  0
 34 38  1  0
 35 39  1  0
 36 39  1  0
 38 40  1  0
 38 41  1  6
 40 42  1  0
 40 43  1  0
 43 44  2  3
 44 45  1  0
 45 46  1  0
 45 47  2  0
 46 48  1  0
 47 49  1  0
 48 49  1  0
 49 50  1  0
 49 51  1  0
M  END
