x3117-x2705-x1374
     RDKit          3D

 50 54  0  0  0  0  0  0  0  0999 V2000
    6.3260   -1.1440   22.1110 N   0  0  0  0  0  0  0  0  0  0  0  0
    5.7750   -2.4520   21.6060 C   0  0  0  0  0  0  0  0  0  0  0  0
    4.5270   -2.8190   21.4380 O   0  0  0  0  0  0  0  0  0  0  0  0
    5.8290    0.2240   21.6180 C   0  0  1  0  0  0  0  0  0  0  0  0
    7.5840   -1.1450   23.0520 C   0  0  0  0  0  0  0  0  0  0  0  0
    6.8140   -3.5270   21.2530 C   0  0  2  0  0  0  0  0  0  0  0  0
    6.7230    1.3700   21.7700 C   0  0  0  0  0  0  0  0  0  0  0  0
    5.4090    0.3910   20.1650 C   0  0  0  0  0  0  0  0  0  0  0  0
    7.7420   -1.2510   24.5430 N   0  0  0  0  0  0  0  0  0  0  0  0
    8.8390   -1.0330   22.4760 C   0  0  0  0  0  0  0  0  0  0  0  0
    6.6110   -4.1870   19.9030 C   0  0  0  0  0  0  0  0  0  0  0  0
    6.3320    2.4450   22.5310 N   0  0  0  0  0  0  0  0  0  0  0  0
    7.8090    1.4530   21.1860 O   0  0  0  0  0  0  0  0  0  0  0  0
    4.1830    1.0840   19.8620 C   0  0  0  0  0  0  0  0  0  0  0  0
    6.1990   -0.0850   19.0760 C   0  0  0  0  0  0  0  0  0  0  0  0
    9.1140   -1.1900   24.6340 N   0  0  0  0  0  0  0  0  0  0  0  0
    9.7440   -1.0620   23.4000 C   0  0  0  0  0  0  0  0  0  0  0  0
    7.1470   -4.4780   22.4280 C   0  0  0  0  0  0  0  0  0  0  0  0
   11.3230   -0.9550   23.1140 C   0  0  0  0  0  0  0  0  0  0  0  0
    5.8840    0.0850   17.7580 N   0  0  0  0  0  0  0  0  0  0  0  0
    3.8160    1.2900   18.5200 C   0  0  0  0  0  0  0  0  0  0  0  0
    6.7430    3.8390   22.2160 C   0  0  0  0  0  0  0  0  0  0  0  0
    8.6310   -4.3390   22.8870 C   0  0  0  0  0  0  0  0  0  0  0  0
    5.9980   -5.3450   22.9470 C   0  0  0  0  0  0  0  0  0  0  0  0
   11.6680    0.3630   22.6930 C   0  0  0  0  0  0  0  0  0  0  0  0
   12.2230   -1.4170   24.3440 C   0  0  0  0  0  0  0  0  0  0  0  0
   11.6860   -1.8530   21.9870 C   0  0  0  0  0  0  0  0  0  0  0  0
    4.6310    0.8210   17.4810 C   0  0  0  0  0  0  0  0  0  0  0  0
    8.1170    4.2920   22.8280 C   0  0  0  0  0  0  0  0  0  0  0  0
    6.0230    4.7980   21.4160 C   0  0  0  0  0  0  0  0  0  0  0  0
    8.5770   -5.2850   24.0280 C   0  0  0  0  0  0  0  0  0  0  0  0
    5.9730   -6.3740   24.1720 C   0  0  0  0  0  0  0  0  0  0  0  0
    8.9840    3.4460   23.6690 C   0  0  0  0  0  0  0  0  0  0  0  0
    4.6900    4.5310   20.7520 C   0  0  0  0  0  0  0  0  0  0  0  0
   12.4570   -0.5680   25.4640 C   0  0  0  0  0  0  0  0  0  0  0  0
    9.8160   -5.6300   25.0170 C   0  0  0  0  0  0  0  0  0  0  0  0
    8.5920    5.6500   22.5490 C   0  0  0  0  0  0  0  0  0  0  0  0
    6.6020    6.2140   21.1690 C   0  0  0  0  0  0  0  0  0  0  0  0
    7.4660   -6.0920   24.5220 C   0  0  0  0  0  0  0  0  0  0  0  0
    4.4470   -6.6630   23.8140 C   0  0  0  0  0  0  0  0  0  0  0  0
    8.4840    3.3770   24.9670 C   0  0  0  0  0  0  0  0  0  0  0  0
    7.8130    6.6640   21.6820 C   0  0  0  0  0  0  0  0  0  0  0  0
    3.4510   -5.7070   24.2440 C   0  0  0  0  0  0  0  0  0  0  0  0
    2.6640   -6.0910   25.5490 C   0  0  2  0  0  0  0  0  0  0  0  0
    3.5190   -6.5430   26.7300 C   0  0  0  0  0  0  0  0  0  0  0  0
    1.5990   -7.1620   25.3550 C   0  0  0  0  0  0  0  0  0  0  0  0
    1.7240   -8.2810   26.7280 S   0  0  0  0  0  0  0  0  0  0  0  0
    3.1470   -7.6560   27.4190 C   0  0  0  0  0  0  0  0  0  0  0  0
    0.5750   -8.0180   27.5780 O   0  0  0  0  0  0  0  0  0  0  0  0
    1.9520   -9.6040   26.2070 O   0  0  0  0  0  0  0  0  0  0  0  0
  1  2  1  0
  2  3  2  0
  1  4  1  0
  1  5  1  0
  2  6  1  0
  4  7  1  6
  4  8  1  0
  5  9  2  0
  5 10  1  0
  6 11  1  6
  7 12  1  0
  7 13  2  0
  8 14  2  0
  8 15  1  0
  9 16  1  0
 10 17  2  0
 16 17  1  0
  6 18  1  0
 17 19  1  0
 15 20  2  0
 14 21  1  0
 12 22  1  0
 18 23  2  0
 18 24  1  0
 19 25  1  0
 19 26  1  0
 19 27  1  0
 20 28  1  0
 21 28  2  0
 22 29  2  0
 22 30  1  0
 23 31  1  0
 24 32  2  0
 29 33  1  0
 30 34  1  0
 26 35  1  0
 31 36  1  0
 29 37  1  0
 30 38  2  0
 31 39  2  0
 32 39  1  0
 32 40  1  0
 33 41  1  0
 37 42  2  0
 38 42  1  0
 40 43  1  0
 44 43  1  6
 44 45  1  0
 44 46  1  0
 46 47  1  0
 45 48  2  0
 47 48  1  0
 47 49  1  0
 47 50  1  0
M  END
