x3113-x3115-x1311-x0540-x3110-x0786-x0426-x2929
     RDKit          3D

 99108  0  0  0  0  0  0  0  0999 V2000
    8.0200    1.3510   23.1630 N   0  0  0  0  0  0  0  0  0  0  0  0
    8.7440    2.5500   23.3890 C   0  0  1  0  0  0  0  0  0  0  0  0
   10.2620    2.1860   23.3700 C   0  0  0  0  0  0  0  0  0  0  0  0
    7.8330    0.7500   21.8100 C   0  0  0  0  0  0  0  0  0  0  0  0
    8.5240    1.1910   20.8810 O   0  0  0  0  0  0  0  0  0  0  0  0
    6.7140   -0.3590   21.5760 C   0  0  2  0  0  0  0  0  0  0  0  0
    8.2740    3.7450   22.5290 C   0  0  0  0  0  0  0  0  0  0  0  0
    7.0660   -1.5030   21.6710 N   0  0  0  0  0  0  0  0  0  0  0  0
   11.0950    3.3260   23.3360 C   0  0  0  0  0  0  0  0  0  0  0  0
    8.6150    5.0320   23.0680 O   0  0  0  0  0  0  0  0  0  0  0  0
    6.1900    0.1050   20.2410 C   0  0  0  0  0  0  0  0  0  0  0  0
   11.9930    3.3340   22.4860 O   0  0  0  0  0  0  0  0  0  0  0  0
   10.9420    4.2560   24.1190 O   0  0  0  0  0  0  0  0  0  0  0  0
    6.1780   -2.7360   21.5010 C   0  0  0  0  0  0  0  0  0  0  0  0
    8.2120    6.1310   22.2440 C   0  0  0  0  0  0  0  0  0  0  0  0
    4.9750    0.7590   20.2090 C   0  0  0  0  0  0  0  0  0  0  0  0
    6.8680   -0.0670   19.0420 C   0  0  0  0  0  0  0  0  0  0  0  0
    8.3630   -1.5170   22.3550 C   0  0  0  0  0  0  0  0  0  0  0  0
   12.1990    4.3970   21.8770 C   0  0  0  0  0  0  0  0  0  0  0  0
    4.8820   -2.9960   21.0770 O   0  0  0  0  0  0  0  0  0  0  0  0
    6.8270   -4.0320   21.8790 C   0  0  1  0  0  0  0  0  0  0  0  0
    4.1690    0.9710   21.4530 C   0  0  0  0  0  0  0  0  0  0  0  0
    6.4070    0.3890   17.8550 N   0  0  0  0  0  0  0  0  0  0  0  0
    4.4760    1.2390   19.0000 C   0  0  0  0  0  0  0  0  0  0  0  0
    9.4930   -2.0090   21.7160 C   0  0  0  0  0  0  0  0  0  0  0  0
    8.5410   -1.0610   23.6300 C   0  0  0  0  0  0  0  0  0  0  0  0
   13.5310    5.1530   21.9360 C   0  0  0  0  0  0  0  0  0  0  0  0
    6.9400   -4.9570   20.6420 C   0  0  0  0  0  0  0  0  0  0  0  0
    4.8730    1.8170   22.3130 C   0  0  0  0  0  0  0  0  0  0  0  0
    5.2320    1.0350   17.8550 C   0  0  0  0  0  0  0  0  0  0  0  0
   10.8800   -2.1620   22.0850 C   0  0  0  0  0  0  0  0  0  0  0  0
    9.7640   -1.0900   24.2320 C   0  0  0  0  0  0  0  0  0  0  0  0
    7.9100   -4.4130   22.9600 C   0  0  0  0  0  0  0  0  0  0  0  0
    5.8530   -4.3230   23.0960 C   0  0  0  0  0  0  0  0  0  0  0  0
    4.0930    2.9990   22.6800 N   0  0  0  0  0  0  0  0  0  0  0  0
   14.5470    4.3780   22.7560 C   0  0  0  0  0  0  0  0  0  0  0  0
   10.8660   -1.5970   23.5270 C   0  0  0  0  0  0  0  0  0  0  0  0
    8.3670   -5.7420   22.9670 C   0  0  0  0  0  0  0  0  0  0  0  0
    8.3980   -3.5320   23.9090 C   0  0  0  0  0  0  0  0  0  0  0  0
    4.9270   -5.3350   23.2500 C   0  0  0  0  0  0  0  0  0  0  0  0
    5.9480   -3.4140   24.2000 C   0  0  0  0  0  0  0  0  0  0  0  0
   12.2630   -1.6360   24.1900 C   0  0  0  0  0  0  0  0  0  0  0  0
    2.8220    2.4960   23.3200 C   0  0  1  0  0  0  0  0  0  0  0  0
   15.8150    4.9680   22.6950 C   0  0  0  0  0  0  0  0  0  0  0  0
    9.2900   -6.2160   23.8780 C   0  0  0  0  0  0  0  0  0  0  0  0
    9.4040   -4.0140   24.9080 C   0  0  0  0  0  0  0  0  0  0  0  0
    4.5440   -6.3230   22.3680 C   0  0  0  0  0  0  0  0  0  0  0  0
    4.2440   -5.3690   24.4660 C   0  0  0  0  0  0  0  0  0  0  0  0
    5.2180   -3.5020   25.3780 C   0  0  0  0  0  0  0  0  0  0  0  0
   12.3480   -0.5980   25.0880 C   0  0  0  0  0  0  0  0  0  0  0  0
   13.2830   -1.7410   23.2310 C   0  0  0  0  0  0  0  0  0  0  0  0
   12.3110   -2.9310   25.0050 C   0  0  0  0  0  0  0  0  0  0  0  0
    3.0430    2.1390   24.7150 N   0  0  0  0  0  0  0  0  0  0  0  0
    1.9050    3.4790   23.1560 N   0  0  0  0  0  0  0  0  0  0  0  0
   17.1450    4.6570   23.2890 C   0  0  0  0  0  0  0  0  0  0  0  0
    9.8360   -5.2940   24.9080 C   0  0  0  0  0  0  0  0  0  0  0  0
    3.2200   -6.7030   24.4430 S   0  0  1  0  0  0  0  0  0  0  0  0
    3.5440   -7.0730   22.8620 C   0  0  0  0  0  0  0  0  0  0  0  0
    4.3360   -4.5240   25.5250 C   0  0  0  0  0  0  0  0  0  0  0  0
    2.6010    1.0310   25.0270 O   0  0  0  0  0  0  0  0  0  0  0  0
    3.7650   -7.8240   25.1910 O   0  0  0  0  0  0  0  0  0  0  0  0
   18.2670    5.6410   23.5270 C   0  0  0  0  0  0  0  0  0  0  0  0
    0.6870    3.3900   23.9870 C   0  0  1  0  0  0  0  0  0  0  0  0
    1.6060   -6.5310   24.5010 N   0  0  0  0  0  0  0  0  0  0  0  0
   19.4640    5.5660   24.3440 C   0  0  0  0  0  0  0  0  0  0  0  0
    0.4730    4.7660   24.6750 C   0  0  1  0  0  0  0  0  0  0  0  0
   -0.5240    3.0540   23.1170 C   0  0  0  0  0  0  0  0  0  0  0  0
    1.0990   -5.3800   23.7840 C   0  0  0  0  0  0  0  0  0  0  0  0
    0.7460   -7.6790   24.2630 C   0  0  0  0  0  0  0  0  0  0  0  0
   20.8090    5.8230   23.9910 C   0  0  0  0  0  0  0  0  0  0  0  0
   -0.7790    4.8910   25.1450 C   0  0  0  0  0  0  0  0  0  0  0  0
   -1.8360    3.3550   23.8330 C   0  0  0  0  0  0  0  0  0  0  0  0
   -0.2150   -4.8360   24.3250 C   0  0  0  0  0  0  0  0  0  0  0  0
   -0.6120   -7.5030   24.9310 C   0  0  0  0  0  0  0  0  0  0  0  0
    1.4590    5.0070   25.8230 C   0  0  0  0  0  0  0  0  0  0  0  0
   21.7250    4.9690   24.8160 N   0  0  0  0  0  0  0  0  0  0  0  0
   -1.8610    4.6200   24.2890 C   0  0  0  0  0  0  0  0  0  0  0  0
   -1.5360   -6.0820   24.2590 S   0  0  0  0  0  0  0  0  0  0  0  0
    2.7070    4.6110   25.4570 F   0  0  0  0  0  0  0  0  0  0  0  0
   22.9820    4.6680   24.4580 C   0  0  0  0  0  0  0  0  0  0  0  0
   23.2510    5.2880   23.2950 N   0  0  0  0  0  0  0  0  0  0  0  0
   24.0880    3.7540   25.0870 C   0  0  2  0  0  0  0  0  0  0  0  0
   23.6670    2.3110   24.7780 C   0  0  0  0  0  0  0  0  0  0  0  0
   24.2910    3.6980   26.6230 C   0  0  1  0  0  0  0  0  0  0  0  0
   24.0730    1.4890   25.9000 N   0  0  0  0  0  0  0  0  0  0  0  0
   24.8560    2.2820   26.8390 C   0  0  0  0  0  0  0  0  0  0  0  0
   25.1580    4.7520   27.2930 C   0  0  0  0  0  0  0  0  0  0  0  0
   24.3250    0.0780   25.6700 C   0  0  0  0  0  0  0  0  0  0  0  0
   25.2110    4.8120   28.6970 C   0  0  0  0  0  0  0  0  0  0  0  0
   25.8970    5.6530   26.5320 C   0  0  0  0  0  0  0  0  0  0  0  0
   23.1200   -0.6070   25.0910 C   0  0  0  0  0  0  0  0  0  0  0  0
   25.9980    5.7670   29.3330 C   0  0  0  0  0  0  0  0  0  0  0  0
   26.6870    6.6120   27.1760 C   0  0  0  0  0  0  0  0  0  0  0  0
   22.0920   -1.0200   25.9230 C   0  0  0  0  0  0  0  0  0  0  0  0
   22.9880   -0.8430   23.6650 C   0  0  0  0  0  0  0  0  0  0  0  0
   26.7430    6.6740   28.5710 C   0  0  0  0  0  0  0  0  0  0  0  0
   20.9730   -1.6250   25.4800 N   0  0  0  0  0  0  0  0  0  0  0  0
   21.8380   -1.4680   23.2080 C   0  0  0  0  0  0  0  0  0  0  0  0
   20.8720   -1.8310   24.1490 C   0  0  0  0  0  0  0  0  0  0  0  0
  1  2  1  0
  2  3  1  6
  1  4  1  0
  4  5  2  0
  6  4  1  6
  2  7  1  0
  6  8  1  0
  3  9  1  0
  7 10  1  0
  6 11  1  0
  9 12  1  0
  9 13  2  0
  8 14  1  0
 10 15  1  0
 11 16  1  0
 11 17  2  0
  8 18  1  0
 12 19  1  0
 14 20  2  0
 21 14  1  0
 16 22  1  0
 17 23  1  0
 16 24  2  0
 18 25  2  0
 18 26  1  0
 19 27  1  0
 21 28  1  6
 22 29  1  0
 23 30  2  0
 24 30  1  0
 25 31  1  0
 26 32  2  0
 21 33  1  0
 21 34  1  0
 29 35  1  0
 27 36  1  0
 31 37  2  0
 32 37  1  0
 33 38  2  0
 33 39  1  0
 34 40  1  0
 34 41  2  0
 37 42  1  0
 43 35  1  1
 36 44  1  0
 38 45  1  0
 39 46  2  0
 40 47  1  0
 40 48  2  0
 41 49  1  0
 42 50  1  0
 42 51  1  0
 42 52  1  0
 43 53  1  0
 43 54  1  0
 44 55  1  0
 45 56  2  0
 46 56  1  0
 48 57  1  0
 47 58  2  0
 57 58  1  0
 48 59  1  0
 49 59  2  0
 53 60  2  0
 57 61  1  1
 55 62  1  0
 63 54  1  6
 57 64  1  0
 62 65  1  0
 63 66  1  0
 63 67  1  0
 64 68  1  0
 64 69  1  0
 65 70  1  0
 66 71  1  0
 67 72  1  0
 68 73  1  0
 69 74  1  0
 66 75  1  1
 70 76  1  0
 71 77  1  0
 72 77  1  0
 73 78  1  0
 74 78  1  0
 75 79  1  0
 76 80  2  3
 80 81  1  0
 82 80  1  1
 82 83  1  0
 82 84  1  0
 83 85  1  0
 84 86  1  0
 85 86  1  0
 84 87  1  6
 85 88  1  0
 87 89  2  0
 87 90  1  0
 88 91  1  0
 89 92  1  0
 90 93  2  0
 91 94  2  0
 91 95  1  0
 92 96  2  0
 93 96  1  0
 94 97  1  0
 95 98  2  0
 97 99  2  0
 98 99  1  0
M  END
