x3110-x0771
     RDKit          3D

 50 54  0  0  0  0  0  0  0  0999 V2000
    7.8030    1.3380   23.4960 N   0  0  0  0  0  0  0  0  0  0  0  0
    8.6700    2.5010   23.5580 C   0  0  0  0  0  0  0  0  0  0  0  0
   10.1830    2.1340   23.5900 C   0  0  0  0  0  0  0  0  0  0  0  0
    7.6580    0.7750   22.1420 C   0  0  0  0  0  0  0  0  0  0  0  0
    8.4830    1.0450   21.2520 O   0  0  0  0  0  0  0  0  0  0  0  0
    6.4060   -0.1290   21.9130 C   0  0  2  0  0  0  0  0  0  0  0  0
    6.7700   -1.5850   22.2290 C   0  0  2  0  0  0  0  0  0  0  0  0
   11.1640    3.3270   23.3640 C   0  0  0  0  0  0  0  0  0  0  0  0
    5.9740    0.2980   20.4860 C   0  0  0  0  0  0  0  0  0  0  0  0
   11.9970    3.2260   22.4570 O   0  0  0  0  0  0  0  0  0  0  0  0
   11.0510    4.3130   24.0950 O   0  0  0  0  0  0  0  0  0  0  0  0
    6.0770   -2.7220   21.4050 C   0  0  0  0  0  0  0  0  0  0  0  0
    6.2170   -2.3650   23.4070 C   0  0  0  0  0  0  0  0  0  0  0  0
    4.8500    1.0720   20.1940 C   0  0  0  0  0  0  0  0  0  0  0  0
    6.7860   -0.0960   19.3330 C   0  0  0  0  0  0  0  0  0  0  0  0
    8.3000   -1.6470   22.6050 C   0  0  0  0  0  0  0  0  0  0  0  0
   12.4040    4.5020   21.9420 C   0  0  0  0  0  0  0  0  0  0  0  0
    4.8260   -2.9640   21.0520 O   0  0  0  0  0  0  0  0  0  0  0  0
    7.0600   -3.7310   21.1300 C   0  0  2  0  0  0  0  0  0  0  0  0
    6.4310    0.3170   17.9580 N   0  0  0  0  0  0  0  0  0  0  0  0
    4.5210    1.4550   18.9130 C   0  0  0  0  0  0  0  0  0  0  0  0
    9.3730   -1.8730   21.7320 C   0  0  0  0  0  0  0  0  0  0  0  0
    8.6690   -1.4560   23.9460 C   0  0  0  0  0  0  0  0  0  0  0  0
    6.9400   -3.7970   23.4150 C   0  0  2  0  0  0  0  0  0  0  0  0
   13.3970    5.2000   22.8600 C   0  0  0  0  0  0  0  0  0  0  0  0
    6.8480   -4.0210   19.7280 C   0  0  0  0  0  0  0  0  0  0  0  0
    5.2800    1.0960   17.8510 C   0  0  0  0  0  0  0  0  0  0  0  0
   10.6920   -1.9120   22.2070 C   0  0  0  0  0  0  0  0  0  0  0  0
    9.9360   -1.4920   24.3780 C   0  0  0  0  0  0  0  0  0  0  0  0
    6.8610   -4.6030   22.1580 N   0  0  0  0  0  0  0  0  0  0  0  0
    6.6550   -4.5280   24.5030 C   0  0  0  0  0  0  0  0  0  0  0  0
   11.0010   -1.7270   23.5340 C   0  0  0  0  0  0  0  0  0  0  0  0
    5.7580   -5.4770   22.0040 C   0  0  0  0  0  0  0  0  0  0  0  0
    5.4100   -5.2530   24.2990 N   0  0  0  0  0  0  0  0  0  0  0  0
   12.4300   -1.7660   24.0630 C   0  0  0  0  0  0  0  0  0  0  0  0
    4.7880   -5.7540   25.7960 S   0  0  0  0  0  0  0  0  0  0  0  0
    5.3840   -6.1820   23.1270 C   0  0  0  0  0  0  0  0  0  0  0  0
   12.6670   -0.5150   24.6110 C   0  0  0  0  0  0  0  0  0  0  0  0
   13.4360   -1.9720   22.9190 C   0  0  0  0  0  0  0  0  0  0  0  0
   12.6740   -2.8620   24.9060 C   0  0  0  0  0  0  0  0  0  0  0  0
    4.1570   -7.0470   25.6530 O   0  0  0  0  0  0  0  0  0  0  0  0
    5.8170   -5.4970   26.7850 O   0  0  0  0  0  0  0  0  0  0  0  0
    3.5560   -4.4850   25.9080 C   0  0  0  0  0  0  0  0  0  0  0  0
    2.1150   -4.7680   25.4710 C   0  0  0  0  0  0  0  0  0  0  0  0
    3.9550   -3.2320   26.3990 C   0  0  0  0  0  0  0  0  0  0  0  0
    1.6210   -6.0800   24.9300 C   0  0  0  0  0  0  0  0  0  0  0  0
    1.2610   -3.6800   25.6150 C   0  0  0  0  0  0  0  0  0  0  0  0
    3.0340   -2.1930   26.5100 C   0  0  0  0  0  0  0  0  0  0  0  0
    1.6060   -2.4300   26.0980 C   0  0  0  0  0  0  0  0  0  0  0  0
    0.5860   -1.3420   26.2110 C   0  0  0  0  0  0  0  0  0  0  0  0
  1  2  1  0
  2  3  1  0
  1  4  1  0
  4  5  2  0
  6  4  1  6
  6  7  1  0
  3  8  1  0
  6  9  1  0
  8 10  1  0
  8 11  2  0
  7 12  1  0
  7 13  1  0
  9 14  2  0
  9 15  1  0
  7 16  1  1
 10 17  1  0
 12 18  2  0
 12 19  1  0
 15 20  2  0
 14 21  1  0
 16 22  2  0
 16 23  1  0
 24 13  1  6
 17 25  1  0
 19 26  1  6
 20 27  1  0
 21 27  2  0
 22 28  1  0
 23 29  2  0
 19 30  1  0
 24 30  1  0
 24 31  1  0
 28 32  2  0
 29 32  1  0
 30 33  1  0
 31 34  1  0
 32 35  1  0
 34 36  1  0
 33 37  1  0
 34 37  1  0
 35 38  1  0
 35 39  1  0
 35 40  1  0
 36 41  2  0
 36 42  2  0
 36 43  1  0
 43 44  2  0
 43 45  1  0
 44 46  1  0
 44 47  1  0
 45 48  2  0
 47 49  2  0
 48 49  1  0
 49 50  1  0
M  END
