x3113-x1374
     RDKit          3D

 46 50  0  0  0  0  0  0  0  0999 V2000
    7.1400   -1.4730   21.6900 N   0  0  0  0  0  0  0  0  0  0  0  0
    6.2910   -2.6840   21.2500 C   0  0  0  0  0  0  0  0  0  0  0  0
    4.9260   -3.0580   21.1250 O   0  0  0  0  0  0  0  0  0  0  0  0
    6.7380   -0.0170   21.5450 C   0  0  1  0  0  0  0  0  0  0  0  0
    8.5790   -1.5730   22.2730 C   0  0  0  0  0  0  0  0  0  0  0  0
    7.2560   -3.7440   20.8970 C   0  0  1  0  0  0  0  0  0  0  0  0
    7.6980    1.0370   21.8560 C   0  0  0  0  0  0  0  0  0  0  0  0
    6.2220    0.4000   20.2170 C   0  0  0  0  0  0  0  0  0  0  0  0
    9.5030   -0.5410   22.1570 C   0  0  0  0  0  0  0  0  0  0  0  0
    9.1420   -2.6220   22.9470 C   0  0  0  0  0  0  0  0  0  0  0  0
    8.3170   -3.2190   19.9850 C   0  0  0  0  0  0  0  0  0  0  0  0
    7.9390    1.3200   23.1790 N   0  0  0  0  0  0  0  0  0  0  0  0
    8.2870    1.6810   20.9630 O   0  0  0  0  0  0  0  0  0  0  0  0
    5.0800    1.2110   20.1920 C   0  0  0  0  0  0  0  0  0  0  0  0
    6.8230    0.0440   19.0160 C   0  0  0  0  0  0  0  0  0  0  0  0
   10.7790   -0.6080   22.7170 C   0  0  0  0  0  0  0  0  0  0  0  0
   10.3980   -2.6960   23.5010 C   0  0  0  0  0  0  0  0  0  0  0  0
    8.5480   -3.8330   23.1700 C   0  0  0  0  0  0  0  0  0  0  0  0
    7.7120   -4.3140   22.1830 C   0  0  0  0  0  0  0  0  0  0  0  0
    8.9330    2.2130   23.5200 C   0  0  0  0  0  0  0  0  0  0  0  0
    6.3790    0.4440   17.8120 N   0  0  0  0  0  0  0  0  0  0  0  0
    4.5660    1.6600   18.9780 C   0  0  0  0  0  0  0  0  0  0  0  0
   11.1780   -1.6230   23.3580 C   0  0  0  0  0  0  0  0  0  0  0  0
    8.8290   -4.6290   24.4270 C   0  0  0  0  0  0  0  0  0  0  0  0
    7.2110   -5.4170   22.3180 C   0  0  0  0  0  0  0  0  0  0  0  0
   10.0470    2.4120   22.7070 C   0  0  0  0  0  0  0  0  0  0  0  0
   12.5550   -1.6790   23.9840 C   0  0  0  0  0  0  0  0  0  0  0  0
    9.7010   -4.3040   25.6310 C   0  0  0  0  0  0  0  0  0  0  0  0
    5.1880    1.3020   17.8020 C   0  0  0  0  0  0  0  0  0  0  0  0
    7.3350   -6.2160   23.2720 C   0  0  0  0  0  0  0  0  0  0  0  0
    8.1230   -5.9230   24.4210 C   0  0  0  0  0  0  0  0  0  0  0  0
   11.1970    2.7810   23.4190 C   0  0  0  0  0  0  0  0  0  0  0  0
   13.4650   -1.9540   23.0160 C   0  0  0  0  0  0  0  0  0  0  0  0
   12.7510   -2.7750   25.0570 C   0  0  0  0  0  0  0  0  0  0  0  0
   12.7270   -0.4330   24.6210 C   0  0  0  0  0  0  0  0  0  0  0  0
    6.4830   -7.2710   22.7620 C   0  0  0  0  0  0  0  0  0  0  0  0
   11.5240    4.1100   23.2240 O   0  0  0  0  0  0  0  0  0  0  0  0
    5.2450   -7.0380   23.5060 C   0  0  0  0  0  0  0  0  0  0  0  0
   12.8680    4.3620   22.8040 C   0  0  0  0  0  0  0  0  0  0  0  0
    4.3970   -5.9760   22.9230 C   0  0  2  0  0  0  0  0  0  0  0  0
    4.4370   -5.0450   23.9520 C   0  0  0  0  0  0  0  0  0  0  0  0
    3.1120   -6.6780   22.9880 C   0  0  0  0  0  0  0  0  0  0  0  0
    2.8440   -6.8000   24.6940 S   0  0  0  0  0  0  0  0  0  0  0  0
    3.6600   -5.3540   25.0250 C   0  0  0  0  0  0  0  0  0  0  0  0
    1.4380   -6.5940   24.8000 O   0  0  0  0  0  0  0  0  0  0  0  0
    3.5290   -7.9930   25.1940 O   0  0  0  0  0  0  0  0  0  0  0  0
  1  2  1  0
  2  3  2  0
  1  4  1  0
  1  5  1  0
  2  6  1  0
  4  7  1  6
  4  8  1  0
  5  9  2  0
  5 10  1  0
  6 11  1  1
  7 12  1  0
  7 13  2  0
  8 14  2  0
  8 15  1  0
  9 16  1  0
 10 17  2  0
 10 18  1  0
  6 19  1  0
 18 19  2  0
 12 20  1  0
 15 21  2  0
 14 22  1  0
 16 23  2  0
 17 23  1  0
 18 24  1  0
 19 25  1  0
 20 26  1  0
 23 27  1  0
 24 28  1  0
 21 29  1  0
 22 29  2  0
 25 30  2  0
 24 31  2  0
 30 31  1  0
 26 32  1  0
 27 33  1  0
 27 34  1  0
 27 35  1  0
 30 36  1  0
 32 37  1  0
 36 38  1  0
 37 39  1  0
 40 38  1  1
 40 41  1  0
 40 42  1  0
 42 43  1  0
 41 44  2  0
 43 44  1  0
 43 45  1  0
 43 46  1  0
M  END
