x3113-x3115-x1311-x0540-x0786-x3110-x2754-x2776-x0426-x2929-x0946
     RDKit          3D

116128  0  0  0  0  0  0  0  0999 V2000
    7.7700    1.7170   23.0020 N   0  0  0  0  0  0  0  0  0  0  0  0
    7.7680    0.9600   21.8070 C   0  0  0  0  0  0  0  0  0  0  0  0
    8.5820    1.1730   20.9140 O   0  0  0  0  0  0  0  0  0  0  0  0
    8.2880    3.0570   23.2700 C   0  0  0  0  0  0  0  0  0  0  0  0
    6.6230   -0.1320   21.6070 C   0  0  2  0  0  0  0  0  0  0  0  0
    9.6750    3.3330   23.3520 C   0  0  0  0  0  0  0  0  0  0  0  0
    7.4930    4.2560   23.4550 C   0  0  0  0  0  0  0  0  0  0  0  0
    7.0450   -1.4900   21.6370 N   0  0  0  0  0  0  0  0  0  0  0  0
    6.1320    0.2720   20.2480 C   0  0  0  0  0  0  0  0  0  0  0  0
   10.0810    4.7250   23.6530 C   0  0  0  0  0  0  0  0  0  0  0  0
    8.0370    5.7610   23.7540 C   0  0  0  0  0  0  0  0  0  0  0  0
   10.8540    2.6080   23.1750 C   0  0  0  0  0  0  0  0  0  0  0  0
    6.1650   -2.7240   21.4570 C   0  0  0  0  0  0  0  0  0  0  0  0
    7.1020    6.9040   23.8910 C   0  0  0  0  0  0  0  0  0  0  0  0
    8.7720    4.7350   23.6630 O   0  0  0  0  0  0  0  0  0  0  0  0
    4.8970    0.8790   20.1150 C   0  0  0  0  0  0  0  0  0  0  0  0
    6.8570    0.0900   19.0950 C   0  0  0  0  0  0  0  0  0  0  0  0
    8.3440   -1.5410   22.3500 C   0  0  0  0  0  0  0  0  0  0  0  0
    9.5640    5.9100   23.8770 C   0  0  0  0  0  0  0  0  0  0  0  0
   11.8200    3.5770   23.0390 C   0  0  0  0  0  0  0  0  0  0  0  0
   11.0530    1.2720   23.1100 C   0  0  0  0  0  0  0  0  0  0  0  0
    4.8690   -2.9800   21.0600 O   0  0  0  0  0  0  0  0  0  0  0  0
    6.7970   -4.0480   21.7800 C   0  0  1  0  0  0  0  0  0  0  0  0
   10.2150    7.0920   24.1430 O   0  0  0  0  0  0  0  0  0  0  0  0
    4.0140    1.1010   21.3070 C   0  0  0  0  0  0  0  0  0  0  0  0
    6.4990    0.4590   17.8650 N   0  0  0  0  0  0  0  0  0  0  0  0
    4.4620    1.2920   18.8730 C   0  0  0  0  0  0  0  0  0  0  0  0
    9.4890   -2.0480   21.7430 C   0  0  0  0  0  0  0  0  0  0  0  0
    8.5340   -1.0900   23.6890 C   0  0  0  0  0  0  0  0  0  0  0  0
   12.3330    0.8400   22.8760 C   0  0  0  0  0  0  0  0  0  0  0  0
   13.0900    3.2890   22.8160 C   0  0  0  0  0  0  0  0  0  0  0  0
   14.0790    4.4960   22.6850 C   0  0  2  0  0  0  0  0  0  0  0  0
    6.9100   -4.9470   20.5300 C   0  0  0  0  0  0  0  0  0  0  0  0
   11.4780    6.8660   24.8060 C   0  0  0  0  0  0  0  0  0  0  0  0
    4.4800    2.1100   22.1390 C   0  0  0  0  0  0  0  0  0  0  0  0
    5.2690    1.0810   17.7910 C   0  0  0  0  0  0  0  0  0  0  0  0
   10.7350   -2.1250   22.3680 C   0  0  0  0  0  0  0  0  0  0  0  0
    9.8000   -1.1720   24.3310 C   0  0  0  0  0  0  0  0  0  0  0  0
   13.3740    1.7550   22.7260 C   0  0  0  0  0  0  0  0  0  0  0  0
    7.9280   -4.4810   22.7970 C   0  0  0  0  0  0  0  0  0  0  0  0
    5.8870   -4.3470   23.0070 C   0  0  0  0  0  0  0  0  0  0  0  0
   13.3450    5.5640   21.9270 C   0  0  0  0  0  0  0  0  0  0  0  0
    4.1970    1.8900   23.3880 N   0  0  0  0  0  0  0  0  0  0  0  0
   15.5120    4.3580   22.0640 C   0  0  0  0  0  0  0  0  0  0  0  0
   10.9240   -1.6950   23.6730 C   0  0  0  0  0  0  0  0  0  0  0  0
    8.2640   -5.8360   22.8860 C   0  0  0  0  0  0  0  0  0  0  0  0
    8.5960   -3.6520   23.6330 C   0  0  0  0  0  0  0  0  0  0  0  0
    4.9300   -5.3260   23.1640 C   0  0  0  0  0  0  0  0  0  0  0  0
    6.0950   -3.5100   24.1150 C   0  0  0  0  0  0  0  0  0  0  0  0
   12.3390   -1.8050   24.3170 C   0  0  0  0  0  0  0  0  0  0  0  0
    3.0190    2.6860   23.8190 C   0  0  2  0  0  0  0  0  0  0  0  0
   16.8260    4.2630   22.6240 C   0  0  0  0  0  0  0  0  0  0  0  0
    9.2140   -6.2680   23.7680 C   0  0  0  0  0  0  0  0  0  0  0  0
    9.5450   -4.0640   24.5130 C   0  0  0  0  0  0  0  0  0  0  0  0
    4.5300   -6.2410   22.2500 C   0  0  0  0  0  0  0  0  0  0  0  0
    4.2660   -5.4010   24.3960 C   0  0  0  0  0  0  0  0  0  0  0  0
    5.3640   -3.6520   25.3850 C   0  0  0  0  0  0  0  0  0  0  0  0
   12.5590   -0.7020   25.1170 C   0  0  0  0  0  0  0  0  0  0  0  0
   13.3940   -1.8220   23.2060 C   0  0  0  0  0  0  0  0  0  0  0  0
   12.6780   -3.0340   25.1730 C   0  0  0  0  0  0  0  0  0  0  0  0
    2.7620    2.1940   25.0340 N   0  0  0  0  0  0  0  0  0  0  0  0
    1.8390    2.7670   23.1340 N   0  0  0  0  0  0  0  0  0  0  0  0
    5.7000   -2.8340   26.4600 N   0  0  0  0  0  0  0  0  0  0  0  0
   17.4900    5.0570   23.5710 C   0  0  0  0  0  0  0  0  0  0  0  0
    9.8640   -5.3730   24.6020 C   0  0  0  0  0  0  0  0  0  0  0  0
    3.2030   -6.7000   24.3200 S   0  0  1  0  0  0  0  0  0  0  0  0
    3.5260   -7.0030   22.7250 C   0  0  0  0  0  0  0  0  0  0  0  0
    4.4350   -4.6110   25.4800 C   0  0  0  0  0  0  0  0  0  0  0  0
    2.3970    1.0160   25.0620 O   0  0  0  0  0  0  0  0  0  0  0  0
    3.7470   -7.8220   25.0690 O   0  0  0  0  0  0  0  0  0  0  0  0
    3.7420   -4.7580   26.6230 O   0  0  0  0  0  0  0  0  0  0  0  0
    4.6030   -2.4850   27.3590 C   0  0  0  0  0  0  0  0  0  0  0  0
   18.7060    5.8600   23.4800 C   0  0  0  0  0  0  0  0  0  0  0  0
    0.6190    3.1050   23.9120 C   0  0  1  0  0  0  0  0  0  0  0  0
    1.6070   -6.4970   24.5370 N   0  0  0  0  0  0  0  0  0  0  0  0
    6.8320   -3.4900   26.9560 C   0  0  0  0  0  0  0  0  0  0  0  0
   19.7430    5.7500   24.4390 C   0  0  0  0  0  0  0  0  0  0  0  0
    0.6640    4.5200   24.5420 C   0  0  1  0  0  0  0  0  0  0  0  0
   -0.6300    2.9240   23.0370 C   0  0  0  0  0  0  0  0  0  0  0  0
    1.0800   -5.3330   23.8540 C   0  0  0  0  0  0  0  0  0  0  0  0
    0.7260   -7.6390   24.2910 C   0  0  0  0  0  0  0  0  0  0  0  0
    6.7840   -4.5530   27.8640 C   0  0  0  0  0  0  0  0  0  0  0  0
    8.0910   -3.1230   26.5180 C   0  0  0  0  0  0  0  0  0  0  0  0
   21.1030    5.9380   24.1890 C   0  0  0  0  0  0  0  0  0  0  0  0
   -0.6110    5.0110   24.8630 C   0  0  0  0  0  0  0  0  0  0  0  0
   -1.7710    3.2370   23.7670 C   0  0  0  0  0  0  0  0  0  0  0  0
   -0.2100   -4.8000   24.4450 C   0  0  0  0  0  0  0  0  0  0  0  0
   -0.6740   -7.4680   24.8820 C   0  0  0  0  0  0  0  0  0  0  0  0
    7.9410   -5.2040   28.2990 C   0  0  0  0  0  0  0  0  0  0  0  0
    9.2470   -3.7760   26.9610 C   0  0  0  0  0  0  0  0  0  0  0  0
    1.5070    4.5780   25.8270 C   0  0  0  0  0  0  0  0  0  0  0  0
   21.8760    4.8680   24.8660 N   0  0  0  0  0  0  0  0  0  0  0  0
   -1.7580    4.5550   24.1950 C   0  0  0  0  0  0  0  0  0  0  0  0
   -1.5500   -6.0110   24.2240 S   0  0  0  0  0  0  0  0  0  0  0  0
    9.1780   -4.8120   27.8460 C   0  0  0  0  0  0  0  0  0  0  0  0
    2.8100    4.7990   25.5090 F   0  0  0  0  0  0  0  0  0  0  0  0
   23.0620    4.6030   24.4660 C   0  0  0  0  0  0  0  0  0  0  0  0
   23.6830    5.3740   23.3730 N   0  0  0  0  0  0  0  0  0  0  0  0
   23.9470    3.4410   25.0060 C   0  0  2  0  0  0  0  0  0  0  0  0
   23.2910    2.0690   25.2220 C   0  0  0  0  0  0  0  0  0  0  0  0
   24.9640    3.4850   26.2060 C   0  0  2  0  0  0  0  0  0  0  0  0
   24.4580    1.3290   25.7240 N   0  0  0  0  0  0  0  0  0  0  0  0
   24.8040    2.1240   26.8980 C   0  0  0  0  0  0  0  0  0  0  0  0
   25.3640    4.6410   27.0930 C   0  0  0  0  0  0  0  0  0  0  0  0
   24.2690   -0.1110   25.9180 C   0  0  0  0  0  0  0  0  0  0  0  0
   25.1580    4.5960   28.4880 C   0  0  0  0  0  0  0  0  0  0  0  0
   25.9750    5.7760   26.5540 C   0  0  0  0  0  0  0  0  0  0  0  0
   23.0540   -0.6840   25.2380 C   0  0  0  0  0  0  0  0  0  0  0  0
   25.5590    5.6590   29.3050 C   0  0  0  0  0  0  0  0  0  0  0  0
   26.3750    6.8340   27.3670 C   0  0  0  0  0  0  0  0  0  0  0  0
   21.9630   -1.0630   26.0050 C   0  0  0  0  0  0  0  0  0  0  0  0
   22.9600   -0.8580   23.8530 C   0  0  0  0  0  0  0  0  0  0  0  0
   26.1700    6.7780   28.7430 C   0  0  0  0  0  0  0  0  0  0  0  0
   20.8220   -1.5800   25.5120 N   0  0  0  0  0  0  0  0  0  0  0  0
   21.7960   -1.3920   23.3100 C   0  0  0  0  0  0  0  0  0  0  0  0
   20.7690   -1.7290   24.1770 C   0  0  0  0  0  0  0  0  0  0  0  0
  1  2  1  0
  2  3  2  0
  1  4  1  0
  5  2  1  6
  4  6  1  0
  4  7  2  0
  5  8  1  0
  5  9  1  0
  6 10  2  0
  7 11  1  0
  6 12  1  0
  8 13  1  0
 11 14  1  0
 10 15  1  0
  9 16  1  0
  9 17  2  0
  8 18  1  0
 10 19  1  0
 11 19  2  0
 12 20  2  0
 12 21  1  0
 13 22  2  0
 23 13  1  0
 19 24  1  0
 16 25  1  0
 17 26  1  0
 16 27  2  0
 18 28  2  0
 18 29  1  0
 21 30  2  0
 20 31  1  0
 31 32  1  0
 23 33  1  6
 24 34  1  0
 25 35  1  0
 26 36  2  0
 27 36  1  0
 28 37  1  0
 29 38  2  0
 30 39  1  0
 31 39  2  0
 23 40  1  0
 23 41  1  0
 32 42  1  6
 35 43  1  0
 32 44  1  0
 37 45  2  0
 38 45  1  0
 40 46  2  0
 40 47  1  0
 41 48  1  0
 41 49  2  0
 45 50  1  0
 51 43  1  6
 44 52  1  0
 46 53  1  0
 47 54  2  0
 48 55  1  0
 48 56  2  0
 49 57  1  0
 50 58  1  0
 50 59  1  0
 50 60  1  0
 51 61  1  0
 51 62  1  0
 57 63  1  0
 52 64  1  0
 53 65  2  0
 54 65  1  0
 56 66  1  0
 55 67  2  0
 66 67  1  0
 56 68  1  0
 57 68  2  0
 61 69  2  0
 66 70  1  1
 68 71  1  0
 63 72  1  0
 64 73  1  0
 74 62  1  6
 66 75  1  0
 63 76  1  0
 73 77  1  0
 74 78  1  0
 74 79  1  0
 75 80  1  0
 75 81  1  0
 76 82  2  0
 76 83  1  0
 77 84  1  0
 78 85  1  0
 79 86  1  0
 80 87  1  0
 81 88  1  0
 82 89  1  0
 83 90  2  0
 78 91  1  1
 84 92  1  0
 85 93  1  0
 86 93  1  0
 87 94  1  0
 88 94  1  0
 89 95  2  0
 90 95  1  0
 91 96  1  0
 92 97  2  3
 97 98  1  0
 99 97  1  1
 99100  1  0
 99101  1  0
100102  1  0
101103  1  0
102103  1  0
101104  1  1
102105  1  0
104106  2  0
104107  1  0
105108  1  0
106109  1  0
107110  2  0
108111  2  0
108112  1  0
109113  2  0
110113  1  0
111114  1  0
112115  2  0
114116  2  0
115116  1  0
M  END
