x3117-x2705-x1493-x2694
     RDKit          3D

 46 49  0  0  0  0  0  0  0  0999 V2000
    6.8190   -1.2970   22.1350 C   0  0  1  0  0  0  0  0  0  0  0  0
    6.1950   -2.7030   21.5310 C   0  0  0  0  0  0  0  0  0  0  0  0
    4.9540   -3.1280   21.1420 O   0  0  0  0  0  0  0  0  0  0  0  0
    6.6560    0.1160   21.5600 C   0  0  1  0  0  0  0  0  0  0  0  0
    5.8460   -1.3200   23.3110 C   0  0  0  0  0  0  0  0  0  0  0  0
    8.2850   -1.4030   22.7240 C   0  0  0  0  0  0  0  0  0  0  0  0
    7.3740   -3.6730   21.5950 C   0  0  2  0  0  0  0  0  0  0  0  0
    7.6380    1.1580   21.7880 C   0  0  0  0  0  0  0  0  0  0  0  0
    6.1470    0.4380   20.2100 C   0  0  0  0  0  0  0  0  0  0  0  0
    8.4390   -1.4570   24.1070 N   0  0  0  0  0  0  0  0  0  0  0  0
    9.6350   -1.4470   22.1250 C   0  0  0  0  0  0  0  0  0  0  0  0
    6.8830   -3.7870   20.1390 C   0  0  0  0  0  0  0  0  0  0  0  0
    7.5000    1.9430   22.6550 N   0  0  0  0  0  0  0  0  0  0  0  0
    8.6150    1.2470   21.0340 O   0  0  0  0  0  0  0  0  0  0  0  0
    5.0030    1.2130   20.0920 C   0  0  0  0  0  0  0  0  0  0  0  0
    6.8020    0.0030   19.0730 C   0  0  0  0  0  0  0  0  0  0  0  0
    9.7930   -1.5250   24.3880 N   0  0  0  0  0  0  0  0  0  0  0  0
   10.5310   -1.5230   23.1690 C   0  0  0  0  0  0  0  0  0  0  0  0
    7.3340   -4.7860   22.6590 C   0  0  1  0  0  0  0  0  0  0  0  0
   12.0570   -1.5940   23.1750 C   0  0  0  0  0  0  0  0  0  0  0  0
    6.4050    0.3000   17.8210 N   0  0  0  0  0  0  0  0  0  0  0  0
    4.5680    1.5370   18.8430 C   0  0  0  0  0  0  0  0  0  0  0  0
    8.2620    3.2280   22.9040 C   0  0  0  0  0  0  0  0  0  0  0  0
    6.4080   -4.4820   23.8300 C   0  0  0  0  0  0  0  0  0  0  0  0
    6.9290   -6.0150   21.9710 N   0  0  0  0  0  0  0  0  0  0  0  0
   12.5750   -0.3500   23.6820 C   0  0  0  0  0  0  0  0  0  0  0  0
   12.4570   -2.7050   24.1100 C   0  0  0  0  0  0  0  0  0  0  0  0
   12.5960   -1.7630   21.7550 C   0  0  0  0  0  0  0  0  0  0  0  0
    5.2090    1.1300   17.7140 C   0  0  0  0  0  0  0  0  0  0  0  0
    9.5460    3.2100   23.5050 C   0  0  0  0  0  0  0  0  0  0  0  0
    7.6840    4.4680   22.5350 C   0  0  0  0  0  0  0  0  0  0  0  0
    5.8280   -5.5480   24.3190 N   0  0  0  0  0  0  0  0  0  0  0  0
    5.5920   -6.1170   21.9710 C   0  0  0  0  0  0  0  0  0  0  0  0
   10.1550    1.9720   23.8850 C   0  0  0  0  0  0  0  0  0  0  0  0
    6.3240    4.5240   21.8870 C   0  0  0  0  0  0  0  0  0  0  0  0
   13.4230   -2.4220   25.2500 C   0  0  0  0  0  0  0  0  0  0  0  0
    5.6480   -5.6750   25.6620 C   0  0  0  0  0  0  0  0  0  0  0  0
   10.3040    4.3700   23.7740 C   0  0  0  0  0  0  0  0  0  0  0  0
    8.4250    5.6290   22.8010 C   0  0  0  0  0  0  0  0  0  0  0  0
    4.9930   -6.2590   23.3520 C   0  0  0  0  0  0  0  0  0  0  0  0
    9.2240    1.2920   24.9050 C   0  0  0  0  0  0  0  0  0  0  0  0
    4.4900   -6.3680   26.0310 C   0  0  0  0  0  0  0  0  0  0  0  0
    6.4800   -5.2040   26.6110 O   0  0  0  0  0  0  0  0  0  0  0  0
    9.8080    5.6170   23.4560 C   0  0  0  0  0  0  0  0  0  0  0  0
   10.5410    6.7590   23.7300 O   0  0  0  0  0  0  0  0  0  0  0  0
   11.6710    6.6400   24.6170 C   0  0  0  0  0  0  0  0  0  0  0  0
  1  2  1  0
  2  3  2  0
  1  4  1  0
  1  5  1  1
  1  6  1  0
  2  7  1  0
  4  8  1  6
  4  9  1  0
  6 10  2  0
  6 11  1  0
  7 12  1  6
  8 13  1  0
  8 14  2  0
  9 15  2  0
  9 16  1  0
 10 17  1  0
 11 18  2  0
 17 18  1  0
  7 19  1  0
 18 20  1  0
 16 21  2  0
 15 22  1  0
 13 23  1  0
 19 24  1  1
 19 25  1  0
 20 26  1  0
 20 27  1  0
 20 28  1  0
 21 29  1  0
 22 29  2  0
 23 30  2  0
 23 31  1  0
 24 32  1  0
 25 33  1  0
 30 34  1  0
 31 35  1  0
 27 36  1  0
 32 37  1  0
 30 38  1  0
 31 39  2  0
 32 40  1  0
 33 40  1  0
 34 41  1  0
 37 42  1  0
 37 43  2  0
 38 44  2  0
 39 44  1  0
 44 45  1  0
 45 46  1  0
M  END
