x3110-x0691-x1493-x0978-x0946
     RDKit          3D

 63 68  0  0  0  0  0  0  0  0999 V2000
    7.8960    1.1910   23.4220 N   0  0  0  0  0  0  0  0  0  0  0  0
    8.6370    2.3840   23.8950 C   0  0  0  0  0  0  0  0  0  0  0  0
   10.1270    2.3940   23.5530 C   0  0  0  0  0  0  0  0  0  0  0  0
    7.7400    0.8570   22.0120 C   0  0  0  0  0  0  0  0  0  0  0  0
    8.5030    1.4680   21.0180 O   0  0  0  0  0  0  0  0  0  0  0  0
    6.6640   -0.2160   21.6650 C   0  0  2  0  0  0  0  0  0  0  0  0
    6.9350   -1.6730   21.8220 N   0  0  0  0  0  0  0  0  0  0  0  0
    6.1670    0.2860   20.3520 C   0  0  0  0  0  0  0  0  0  0  0  0
   10.9620    3.6640   23.4320 C   0  0  0  0  0  0  0  0  0  0  0  0
   10.8230    1.0810   23.3130 C   0  0  0  0  0  0  0  0  0  0  0  0
   10.4390    5.0930   23.6460 C   0  0  0  0  0  0  0  0  0  0  0  0
    6.1010   -2.8480   21.3060 C   0  0  0  0  0  0  0  0  0  0  0  0
    4.9300    1.1960   20.1750 C   0  0  0  0  0  0  0  0  0  0  0  0
    6.8040    0.0010   19.0190 C   0  0  0  0  0  0  0  0  0  0  0  0
    8.2420   -1.7910   22.4180 C   0  0  0  0  0  0  0  0  0  0  0  0
   12.1500    1.0110   22.9840 C   0  0  0  0  0  0  0  0  0  0  0  0
   12.3010    3.4580   23.0910 C   0  0  0  0  0  0  0  0  0  0  0  0
   13.2730    4.6080   22.9290 C   0  0  0  0  0  0  0  0  0  0  0  0
    4.8040   -3.0020   21.2660 O   0  0  0  0  0  0  0  0  0  0  0  0
    6.7950   -4.0660   20.7300 C   0  0  1  0  0  0  0  0  0  0  0  0
    9.2040    5.3130   22.9810 N   0  0  0  0  0  0  0  0  0  0  0  0
   11.2470    6.0990   23.1870 O   0  0  0  0  0  0  0  0  0  0  0  0
   10.3630    5.5270   24.9520 O   0  0  0  0  0  0  0  0  0  0  0  0
    6.3810    0.4720   17.8290 N   0  0  0  0  0  0  0  0  0  0  0  0
    4.5830    1.6240   18.8950 C   0  0  0  0  0  0  0  0  0  0  0  0
    9.4310   -1.5100   21.7480 C   0  0  0  0  0  0  0  0  0  0  0  0
    8.3410   -2.1910   23.7560 C   0  0  0  0  0  0  0  0  0  0  0  0
   12.8650    2.1930   22.8780 C   0  0  0  0  0  0  0  0  0  0  0  0
   13.1200    5.2230   21.5880 C   0  0  0  0  0  0  0  0  0  0  0  0
    8.2030   -3.6190   20.3470 C   0  0  0  0  0  0  0  0  0  0  0  0
    5.2920    1.2780   17.7460 C   0  0  0  0  0  0  0  0  0  0  0  0
   10.6850   -1.6230   22.3170 C   0  0  0  0  0  0  0  0  0  0  0  0
    9.6220   -2.2930   24.3130 C   0  0  0  0  0  0  0  0  0  0  0  0
    6.8130   -5.2410   21.6920 N   0  0  0  0  0  0  0  0  0  0  0  0
   10.8000   -2.0200   23.6180 C   0  0  0  0  0  0  0  0  0  0  0  0
    5.6190   -6.1180   21.8170 C   0  0  0  0  0  0  0  0  0  0  0  0
    7.4200   -5.0130   22.9280 C   0  0  0  0  0  0  0  0  0  0  0  0
   12.0750   -2.1960   24.3430 C   0  0  0  0  0  0  0  0  0  0  0  0
    4.6460   -5.5840   22.9210 C   0  0  2  0  0  0  0  0  0  0  0  0
    6.4880   -4.5230   24.0740 C   0  0  0  0  0  0  0  0  0  0  0  0
   12.8210   -1.1500   24.9130 C   0  0  0  0  0  0  0  0  0  0  0  0
   13.3880   -2.1170   23.5420 C   0  0  0  0  0  0  0  0  0  0  0  0
   11.9980   -3.3550   25.2690 C   0  0  0  0  0  0  0  0  0  0  0  0
    3.3370   -6.4950   23.2180 C   0  0  2  0  0  0  0  0  0  0  0  0
    4.2030   -4.2930   22.4990 O   0  0  0  0  0  0  0  0  0  0  0  0
    5.3500   -5.4250   24.1940 N   0  0  0  0  0  0  0  0  0  0  0  0
    2.1370   -5.6250   23.1470 N   0  0  0  0  0  0  0  0  0  0  0  0
    3.6230   -6.9210   24.5140 C   0  0  1  0  0  0  0  0  0  0  0  0
    4.3580   -5.6070   25.3470 S   0  0  1  0  0  0  0  0  0  0  0  0
    2.4660   -7.5140   25.3790 C   0  0  0  0  0  0  0  0  0  0  0  0
    4.6030   -7.9190   24.2610 O   0  0  0  0  0  0  0  0  0  0  0  0
    0.9070   -6.2240   22.5810 C   0  0  0  0  0  0  0  0  0  0  0  0
    5.2340   -6.0310   26.7330 N   0  0  0  0  0  0  0  0  0  0  0  0
    3.2920   -4.2060   25.6550 C   0  0  0  0  0  0  0  0  0  0  0  0
    0.9100   -7.5060   21.9250 O   0  0  0  0  0  0  0  0  0  0  0  0
   -0.2980   -5.5120   22.6740 C   0  0  0  0  0  0  0  0  0  0  0  0
    6.4450   -5.7530   26.6460 O   0  0  0  0  0  0  0  0  0  0  0  0
    3.7690   -2.8960   25.7740 C   0  0  0  0  0  0  0  0  0  0  0  0
    1.9220   -4.4540   25.7610 C   0  0  0  0  0  0  0  0  0  0  0  0
    2.8920   -1.8210   25.9940 C   0  0  0  0  0  0  0  0  0  0  0  0
    1.0760   -3.3860   25.9770 C   0  0  0  0  0  0  0  0  0  0  0  0
    3.3060   -0.5470   26.1100 F   0  0  0  0  0  0  0  0  0  0  0  0
    1.5310   -2.0910   26.0940 C   0  0  0  0  0  0  0  0  0  0  0  0
  1  2  1  0
  2  3  1  0
  1  4  1  0
  4  5  2  0
  6  4  1  6
  6  7  1  0
  6  8  1  0
  3  9  2  0
  3 10  1  0
  9 11  1  0
  7 12  1  0
  8 13  2  0
  8 14  1  0
  7 15  1  0
 10 16  2  0
  9 17  1  0
 17 18  1  0
 12 19  2  0
 12 20  1  0
 11 21  1  0
 11 22  1  0
 11 23  1  0
 14 24  2  0
 13 25  1  0
 15 26  2  0
 15 27  1  0
 16 28  1  0
 17 28  2  0
 18 29  1  0
 20 30  1  1
 24 31  1  0
 25 31  2  0
 26 32  1  0
 27 33  2  0
 20 34  1  0
 32 35  2  0
 33 35  1  0
 34 36  1  0
 34 37  1  0
 35 38  1  0
 36 39  1  0
 37 40  1  0
 38 41  1  0
 38 42  1  0
 38 43  1  0
 39 44  1  0
 39 45  1  6
 39 46  1  0
 40 46  1  0
 44 47  1  1
 44 48  1  0
 46 49  1  0
 48 49  1  0
 48 50  1  1
 48 51  1  0
 47 52  1  0
 49 53  1  1
 49 54  1  0
 52 55  2  0
 52 56  1  0
 53 57  2  0
 54 58  2  0
 54 59  1  0
 58 60  1  0
 59 61  2  0
 60 62  1  0
 60 63  2  0
 61 63  1  0
M  END
