x3113-x3115-x1311-x0540-x3110-x2929-x0946
     RDKit          3D

 93101  0  0  0  0  0  0  0  0999 V2000
    8.0740    1.3450   23.4610 N   0  0  0  0  0  0  0  0  0  0  0  0
    8.7970    2.6480   23.6610 C   0  0  2  0  0  0  0  0  0  0  0  0
    8.1770    3.6590   22.6930 C   0  0  0  0  0  0  0  0  0  0  0  0
    7.8180    0.9270   22.0420 C   0  0  0  0  0  0  0  0  0  0  0  0
    8.5030    1.3960   20.9410 O   0  0  0  0  0  0  0  0  0  0  0  0
    6.6390   -0.1050   21.6910 C   0  0  2  0  0  0  0  0  0  0  0  0
   10.3080    2.5550   23.3550 C   0  0  0  0  0  0  0  0  0  0  0  0
    6.9370   -1.5330   21.9960 N   0  0  0  0  0  0  0  0  0  0  0  0
    8.3000    4.9450   23.1990 O   0  0  0  0  0  0  0  0  0  0  0  0
    6.1220    0.3140   20.3210 C   0  0  0  0  0  0  0  0  0  0  0  0
   11.2230    3.6680   23.3370 C   0  0  0  0  0  0  0  0  0  0  0  0
   10.8660    1.2010   23.0340 C   0  0  0  0  0  0  0  0  0  0  0  0
   10.6920    4.9920   23.7300 C   0  0  0  0  0  0  0  0  0  0  0  0
    6.2180   -2.7930   21.6580 C   0  0  0  0  0  0  0  0  0  0  0  0
    8.0920    6.0250   22.2660 C   0  0  0  0  0  0  0  0  0  0  0  0
    4.9670    0.9550   20.2870 C   0  0  0  0  0  0  0  0  0  0  0  0
    6.8900    0.0130   19.1620 C   0  0  0  0  0  0  0  0  0  0  0  0
    8.2720   -1.5680   22.5870 C   0  0  0  0  0  0  0  0  0  0  0  0
   12.1890    1.0660   22.7250 C   0  0  0  0  0  0  0  0  0  0  0  0
   12.5860    3.4590   22.9540 C   0  0  0  0  0  0  0  0  0  0  0  0
   13.6610    4.5640   22.7980 C   0  0  2  0  0  0  0  0  0  0  0  0
    4.9250   -3.1460   21.2960 O   0  0  0  0  0  0  0  0  0  0  0  0
    7.3210   -3.8220   21.7670 C   0  0  2  0  0  0  0  0  0  0  0  0
    4.1430    1.2580   21.4950 C   0  0  0  0  0  0  0  0  0  0  0  0
    9.5430    5.2130   24.5630 O   0  0  0  0  0  0  0  0  0  0  0  0
   11.4330    6.0060   23.2600 O   0  0  0  0  0  0  0  0  0  0  0  0
    6.5090    0.3750   17.9300 N   0  0  0  0  0  0  0  0  0  0  0  0
    4.4760    1.3980   18.9230 C   0  0  0  0  0  0  0  0  0  0  0  0
    9.3990   -1.9320   21.8060 C   0  0  0  0  0  0  0  0  0  0  0  0
    8.5130   -1.2550   23.9220 C   0  0  0  0  0  0  0  0  0  0  0  0
   13.0150    2.1630   22.6830 C   0  0  0  0  0  0  0  0  0  0  0  0
   13.1390    5.7250   21.9350 C   0  0  0  0  0  0  0  0  0  0  0  0
    7.1530   -4.7540   20.5890 C   0  0  0  0  0  0  0  0  0  0  0  0
    4.8290    2.2050   22.4470 C   0  0  0  0  0  0  0  0  0  0  0  0
   15.1330    4.2530   22.3310 C   0  0  0  0  0  0  0  0  0  0  0  0
    5.2550    1.0950   17.8690 C   0  0  0  0  0  0  0  0  0  0  0  0
   10.6750   -2.0030   22.2720 C   0  0  0  0  0  0  0  0  0  0  0  0
    9.7620   -1.3050   24.4150 C   0  0  0  0  0  0  0  0  0  0  0  0
    7.6740   -4.4440   23.1610 C   0  0  0  0  0  0  0  0  0  0  0  0
    3.8720    2.9710   23.0050 N   0  0  0  0  0  0  0  0  0  0  0  0
   16.0020    4.9160   23.1120 C   0  0  0  0  0  0  0  0  0  0  0  0
   10.9760   -1.7080   23.5950 C   0  0  0  0  0  0  0  0  0  0  0  0
    8.9490   -4.9640   23.1910 C   0  0  0  0  0  0  0  0  0  0  0  0
    6.9460   -4.5700   24.3700 C   0  0  0  0  0  0  0  0  0  0  0  0
   12.3980   -1.7620   24.2110 C   0  0  0  0  0  0  0  0  0  0  0  0
    2.7800    2.3370   23.6790 C   0  0  0  0  0  0  0  0  0  0  0  0
   17.3430    4.6480   23.0460 C   0  0  0  0  0  0  0  0  0  0  0  0
    9.4870   -5.5610   24.2520 C   0  0  0  0  0  0  0  0  0  0  0  0
    7.5380   -5.1840   25.4400 C   0  0  0  0  0  0  0  0  0  0  0  0
    5.5280   -4.1280   24.6770 C   0  0  0  0  0  0  0  0  0  0  0  0
   12.5580   -0.6560   25.0250 C   0  0  0  0  0  0  0  0  0  0  0  0
   13.3980   -1.7090   23.0620 C   0  0  0  0  0  0  0  0  0  0  0  0
   12.6630   -2.9270   24.8130 C   0  0  0  0  0  0  0  0  0  0  0  0
    2.8850    1.4530   24.7930 O   0  0  0  0  0  0  0  0  0  0  0  0
    1.6290    2.6760   23.0700 N   0  0  0  0  0  0  0  0  0  0  0  0
   18.4090    5.5340   23.8290 C   0  0  0  0  0  0  0  0  0  0  0  0
    8.7780   -5.6790   25.3990 C   0  0  0  0  0  0  0  0  0  0  0  0
    4.5930   -4.9550   23.8190 C   0  0  1  0  0  0  0  0  0  0  0  0
   19.7150    6.1050   23.4130 C   0  0  0  0  0  0  0  0  0  0  0  0
    0.5030    3.1570   23.8570 C   0  0  0  0  0  0  0  0  0  0  0  0
    5.3890   -5.6390   22.9130 C   0  0  0  0  0  0  0  0  0  0  0  0
    3.6030   -6.3310   24.4010 S   0  0  0  0  0  0  0  0  0  0  0  0
   20.5620    6.2270   24.5170 C   0  0  0  0  0  0  0  0  0  0  0  0
    0.6890    4.6210   24.2930 C   0  0  0  0  0  0  0  0  0  0  0  0
   -0.6040    2.9980   23.1330 C   0  0  0  0  0  0  0  0  0  0  0  0
    4.3440   -7.2890   25.2000 O   0  0  0  0  0  0  0  0  0  0  0  0
    2.3220   -5.8340   24.8280 O   0  0  0  0  0  0  0  0  0  0  0  0
    4.5350   -6.5690   22.2190 C   0  0  0  0  0  0  0  0  0  0  0  0
    3.4740   -7.0170   22.9060 C   0  0  0  0  0  0  0  0  0  0  0  0
   21.4600    5.0770   24.9680 N   0  0  0  0  0  0  0  0  0  0  0  0
   -0.5080    5.1240   25.1070 C   0  0  0  0  0  0  0  0  0  0  0  0
   -1.9020    3.2990   23.8890 C   0  0  0  0  0  0  0  0  0  0  0  0
   22.7510    4.9090   24.6900 C   0  0  0  0  0  0  0  0  0  0  0  0
   -1.8560    4.6750   24.5330 C   0  0  0  0  0  0  0  0  0  0  0  0
   23.2420    5.8520   23.8950 N   0  0  0  0  0  0  0  0  0  0  0  0
   23.8040    3.8010   25.1290 C   0  0  2  0  0  0  0  0  0  0  0  0
   23.3690    2.5120   24.8790 C   0  0  0  0  0  0  0  0  0  0  0  0
   24.2070    3.7640   26.6330 C   0  0  1  0  0  0  0  0  0  0  0  0
   23.8400    1.6080   25.9700 N   0  0  0  0  0  0  0  0  0  0  0  0
   24.8280    2.3320   26.7480 C   0  0  0  0  0  0  0  0  0  0  0  0
   25.1110    4.7890   27.2700 C   0  0  0  0  0  0  0  0  0  0  0  0
   24.2870    0.2970   25.4980 C   0  0  0  0  0  0  0  0  0  0  0  0
   25.1970    4.8570   28.6730 C   0  0  0  0  0  0  0  0  0  0  0  0
   25.8700    5.6780   26.5100 C   0  0  0  0  0  0  0  0  0  0  0  0
   23.1050   -0.4630   24.9890 C   0  0  0  0  0  0  0  0  0  0  0  0
   26.0190    5.7870   29.3090 C   0  0  0  0  0  0  0  0  0  0  0  0
   26.6960    6.6110   27.1350 C   0  0  0  0  0  0  0  0  0  0  0  0
   22.0400   -0.9020   25.8800 C   0  0  0  0  0  0  0  0  0  0  0  0
   22.9400   -0.8110   23.5240 C   0  0  0  0  0  0  0  0  0  0  0  0
   26.7720    6.6690   28.5230 C   0  0  0  0  0  0  0  0  0  0  0  0
   20.9560   -1.5740   25.4430 N   0  0  0  0  0  0  0  0  0  0  0  0
   21.8070   -1.5040   23.1360 C   0  0  0  0  0  0  0  0  0  0  0  0
   20.8750   -1.8470   24.1130 C   0  0  0  0  0  0  0  0  0  0  0  0
  1  2  1  0
  2  3  1  6
  1  4  1  0
  4  5  2  0
  6  4  1  6
  2  7  1  0
  6  8  1  0
  3  9  1  0
  6 10  1  0
  7 11  2  0
  7 12  1  0
 11 13  1  0
  8 14  1  0
  9 15  1  0
 10 16  1  0
 10 17  2  0
  8 18  1  0
 12 19  2  0
 11 20  1  0
 20 21  1  0
 14 22  2  0
 14 23  1  0
 16 24  1  0
 13 25  2  0
 13 26  1  0
 17 27  1  0
 16 28  2  0
 18 29  2  0
 18 30  1  0
 19 31  1  0
 20 31  2  0
 21 32  1  6
 23 33  1  6
 24 34  1  0
 21 35  1  0
 27 36  2  0
 28 36  1  0
 29 37  1  0
 30 38  2  0
 23 39  1  0
 34 40  1  0
 35 41  1  0
 37 42  2  0
 38 42  1  0
 39 43  2  0
 39 44  1  0
 42 45  1  0
 40 46  1  0
 41 47  1  0
 43 48  1  0
 44 49  2  0
 44 50  1  0
 45 51  1  0
 45 52  1  0
 45 53  1  0
 46 54  2  0
 46 55  1  0
 47 56  1  0
 48 57  2  0
 49 57  1  0
 58 50  1  1
 56 59  1  0
 55 60  1  0
 58 61  1  0
 58 62  1  0
 59 63  1  0
 60 64  1  0
 60 65  1  0
 62 66  1  0
 62 67  1  0
 61 68  1  0
 62 69  1  0
 68 69  2  0
 63 70  1  0
 64 71  1  0
 65 72  1  0
 70 73  2  3
 71 74  1  0
 72 74  1  0
 73 75  1  0
 76 73  1  1
 76 77  1  0
 76 78  1  0
 77 79  1  0
 78 80  1  0
 79 80  1  0
 78 81  1  6
 79 82  1  0
 81 83  2  0
 81 84  1  0
 82 85  1  0
 83 86  1  0
 84 87  2  0
 85 88  2  0
 85 89  1  0
 86 90  2  0
 87 90  1  0
 88 91  1  0
 89 92  2  0
 91 93  2  0
 92 93  1  0
M  END
