x3115-x0195
     RDKit          3D

 41 43  0  0  0  0  0  0  0  0999 V2000
    6.7220   -1.7290   21.9020 N   0  0  0  0  0  0  0  0  0  0  0  0
    5.9520   -2.8560   21.4910 C   0  0  0  0  0  0  0  0  0  0  0  0
    4.7880   -2.9450   21.0560 O   0  0  0  0  0  0  0  0  0  0  0  0
    6.3720   -0.3210   21.6050 C   0  0  1  0  0  0  0  0  0  0  0  0
    7.0070   -1.8870   23.2440 C   0  0  0  0  0  0  0  0  0  0  0  0
    6.6570   -4.1740   21.6500 C   0  0  0  0  0  0  0  0  0  0  0  0
    7.4110    0.6020   21.9200 C   0  0  0  0  0  0  0  0  0  0  0  0
    5.9710    0.2200   20.2270 C   0  0  0  0  0  0  0  0  0  0  0  0
    7.8520   -1.8680   24.4790 C   0  0  0  0  0  0  0  0  0  0  0  0
    6.6410   -4.8540   20.3160 C   0  0  0  0  0  0  0  0  0  0  0  0
    7.4430    1.0240   23.2310 N   0  0  0  0  0  0  0  0  0  0  0  0
    8.2190    1.0000   21.0690 O   0  0  0  0  0  0  0  0  0  0  0  0
    4.8480    1.1130   20.1760 C   0  0  0  0  0  0  0  0  0  0  0  0
    6.7110   -0.1440   19.0930 C   0  0  0  0  0  0  0  0  0  0  0  0
    9.2000   -1.4910   24.4840 C   0  0  2  0  0  0  0  0  0  0  0  0
    7.6910    2.3960   23.6100 C   0  0  0  0  0  0  0  0  0  0  0  0
    9.3740    0.0340   24.6560 C   0  0  0  0  0  0  0  0  0  0  0  0
    6.3420    0.4210   17.7620 N   0  0  0  0  0  0  0  0  0  0  0  0
    4.4110    1.7240   18.8850 C   0  0  0  0  0  0  0  0  0  0  0  0
   10.0970   -2.2570   23.7640 C   0  0  1  0  0  0  0  0  0  0  0  0
    8.4170    3.4110   22.7240 C   0  0  0  0  0  0  0  0  0  0  0  0
    5.2160    1.3370   17.7000 C   0  0  0  0  0  0  0  0  0  0  0  0
   10.1140   -2.3140   22.1970 C   0  0  0  0  0  0  0  0  0  0  0  0
   11.2880   -2.0550   24.4740 N   0  0  0  0  0  0  0  0  0  0  0  0
    8.6690    4.8180   23.0410 C   0  0  2  0  0  0  0  0  0  0  0  0
   12.2180   -1.1960   24.0360 C   0  0  0  0  0  0  0  0  0  0  0  0
    9.6000   -1.1980   21.6190 C   0  0  0  0  0  0  0  0  0  0  0  0
    8.0120    5.7430   22.2060 C   0  0  0  0  0  0  0  0  0  0  0  0
   11.6640   -0.1240   22.9540 C   0  0  0  0  0  0  0  0  0  0  0  0
   13.3450   -2.0400   23.6090 C   0  0  0  0  0  0  0  0  0  0  0  0
   12.6080   -0.5890   25.1400 C   0  0  0  0  0  0  0  0  0  0  0  0
   10.2530    5.2790   23.4510 S   0  0  0  0  0  0  0  0  0  0  0  0
   10.5210    5.4060   24.8490 O   0  0  0  0  0  0  0  0  0  0  0  0
   11.1370    6.0900   22.5140 N   0  0  0  0  0  0  0  0  0  0  0  0
   12.1970    1.2980   23.0940 C   0  0  2  0  0  0  0  0  0  0  0  0
   11.4470    3.8630   23.4940 C   0  0  1  0  0  0  0  0  0  0  0  0
   11.4790    2.7260   22.6080 C   0  0  1  0  0  0  0  0  0  0  0  0
   13.4420    0.8900   22.7820 C   0  0  0  0  0  0  0  0  0  0  0  0
   12.8770    4.4490   23.4040 C   0  0  0  0  0  0  0  0  0  0  0  0
   12.0960    3.6530   21.5020 C   0  0  0  0  0  0  0  0  0  0  0  0
   12.8890    4.5960   21.9840 C   0  0  0  0  0  0  0  0  0  0  0  0
  1  2  1  0
  2  3  2  0
  1  4  1  0
  1  5  1  0
  2  6  1  0
  4  7  1  0
  4  8  1  6
  5  9  2  0
  6 10  1  0
  7 11  1  0
  7 12  2  0
  8 13  2  0
  8 14  1  0
  9 15  1  0
 11 16  1  0
 15 17  1  6
 14 18  2  0
 13 19  1  0
 15 20  1  0
 16 21  2  0
 18 22  1  0
 19 22  2  0
 20 23  1  6
 20 24  1  0
 21 25  1  0
 24 26  1  0
 23 27  1  0
 25 28  1  6
 26 29  1  0
 26 30  1  0
 26 31  1  0
 25 32  1  0
 32 33  2  0
 32 34  1  0
 29 35  1  0
 32 36  1  0
 35 37  1  0
 36 37  1  0
 35 38  1  6
 36 39  1  6
 37 40  1  6
 39 41  1  0
 40 41  2  0
M  END
