x3115-x0946
     RDKit          3D

 38 40  0  0  0  0  0  0  0  0999 V2000
    6.8630   -1.6890   21.9770 N   0  0  0  0  0  0  0  0  0  0  0  0
    6.0440   -2.8760   21.6600 C   0  0  0  0  0  0  0  0  0  0  0  0
    4.8010   -3.0310   21.3100 O   0  0  0  0  0  0  0  0  0  0  0  0
    6.5120   -0.3360   21.7770 C   0  0  1  0  0  0  0  0  0  0  0  0
    8.2250   -1.7650   22.5620 C   0  0  0  0  0  0  0  0  0  0  0  0
    6.7730   -4.1910   21.7530 C   0  0  0  0  0  0  0  0  0  0  0  0
    7.6530    0.6580   22.0370 C   0  0  0  0  0  0  0  0  0  0  0  0
    6.0670    0.1190   20.4020 C   0  0  0  0  0  0  0  0  0  0  0  0
    9.3530   -1.9880   21.7710 C   0  0  0  0  0  0  0  0  0  0  0  0
    8.4850   -1.6020   23.9140 C   0  0  0  0  0  0  0  0  0  0  0  0
    6.6850   -4.8540   20.4020 C   0  0  0  0  0  0  0  0  0  0  0  0
    7.5020    1.8200   22.9600 N   0  0  0  0  0  0  0  0  0  0  0  0
    8.7010    0.5180   21.4180 O   0  0  0  0  0  0  0  0  0  0  0  0
    4.8380    1.0140   20.2700 C   0  0  0  0  0  0  0  0  0  0  0  0
    6.8260   -0.2480   19.0540 C   0  0  0  0  0  0  0  0  0  0  0  0
   10.6570   -2.0330   22.2620 C   0  0  0  0  0  0  0  0  0  0  0  0
    9.9630   -1.6530   24.4490 C   0  0  0  0  0  0  0  0  0  0  0  0
    8.0480    2.8930   22.4380 C   0  0  0  0  0  0  0  0  0  0  0  0
    6.3470    0.2740   17.7790 N   0  0  0  0  0  0  0  0  0  0  0  0
    4.4420    1.4670   19.0310 C   0  0  0  0  0  0  0  0  0  0  0  0
   11.0250   -1.8660   23.5870 C   0  0  0  0  0  0  0  0  0  0  0  0
    7.9680    4.0210   23.2830 C   0  0  0  0  0  0  0  0  0  0  0  0
   12.4410   -1.8760   24.1680 C   0  0  0  0  0  0  0  0  0  0  0  0
    5.1770    1.1050   17.8770 C   0  0  0  0  0  0  0  0  0  0  0  0
    8.8960    5.1300   22.9210 N   0  0  0  0  0  0  0  0  0  0  0  0
   13.3420   -1.9520   23.1080 C   0  0  0  0  0  0  0  0  0  0  0  0
   12.7290   -3.0800   25.0370 C   0  0  0  0  0  0  0  0  0  0  0  0
   12.6570   -0.7940   24.9820 C   0  0  0  0  0  0  0  0  0  0  0  0
    8.3140    6.3170   22.2690 C   0  0  0  0  0  0  0  0  0  0  0  0
   10.0980    5.3450   23.7810 S   0  0  0  0  0  0  0  0  0  0  0  0
    9.6790    5.4820   25.1490 O   0  0  0  0  0  0  0  0  0  0  0  0
   10.9970    6.3150   23.1790 O   0  0  0  0  0  0  0  0  0  0  0  0
   10.9450    3.8090   23.5370 C   0  0  0  0  0  0  0  0  0  0  0  0
   12.2850    3.9590   22.9210 C   0  0  0  0  0  0  0  0  0  0  0  0
   10.5170    2.5000   23.8380 C   0  0  0  0  0  0  0  0  0  0  0  0
   13.0960    2.7780   22.6470 C   0  0  0  0  0  0  0  0  0  0  0  0
   11.2780    1.3590   23.5750 C   0  0  0  0  0  0  0  0  0  0  0  0
   12.5590    1.4140   22.9840 C   0  0  0  0  0  0  0  0  0  0  0  0
  1  2  1  0
  2  3  2  0
  1  4  1  0
  1  5  1  0
  2  6  1  0
  4  7  1  6
  4  8  1  0
  5  9  2  0
  5 10  1  0
  6 11  1  0
  7 12  1  0
  7 13  2  0
  8 14  2  0
  8 15  1  0
  9 16  1  0
 10 17  2  0
 12 18  1  0
 15 19  2  0
 14 20  1  0
 16 21  2  0
 17 21  1  0
 18 22  1  0
 21 23  1  0
 19 24  1  0
 20 24  2  0
 22 25  1  0
 23 26  1  0
 23 27  1  0
 23 28  1  0
 25 29  1  0
 30 25  1  0
 30 31  2  0
 30 32  2  0
 30 33  1  0
 33 34  2  0
 33 35  1  0
 34 36  1  0
 35 37  2  0
 36 38  2  0
 37 38  1  0
M  END
