x3117-x1374
     RDKit          3D

 47 51  0  0  0  0  0  0  0  0999 V2000
    6.5160   -0.9820   21.5650 N   0  0  0  0  0  0  0  0  0  0  0  0
    5.3710   -2.0250   21.6480 C   0  0  0  0  0  0  0  0  0  0  0  0
    4.4320   -2.8920   21.7140 O   0  0  0  0  0  0  0  0  0  0  0  0
    6.1530    0.4580   21.3530 C   0  0  1  0  0  0  0  0  0  0  0  0
    7.9270   -0.9660   22.0630 C   0  0  0  0  0  0  0  0  0  0  0  0
    6.1930   -3.4000   21.0720 C   0  0  1  0  0  0  0  0  0  0  0  0
    7.2340    1.5970   21.5100 C   0  0  0  0  0  0  0  0  0  0  0  0
    5.5430    0.7100   19.9820 C   0  0  0  0  0  0  0  0  0  0  0  0
    9.0570   -1.1510   21.1860 C   0  0  0  0  0  0  0  0  0  0  0  0
    8.2510   -0.7300   23.4410 C   0  0  0  0  0  0  0  0  0  0  0  0
    6.6160   -3.3100   19.5270 C   0  0  0  0  0  0  0  0  0  0  0  0
    7.0430    2.4810   22.6740 N   0  0  0  0  0  0  0  0  0  0  0  0
    8.1930    1.8370   20.7420 O   0  0  0  0  0  0  0  0  0  0  0  0
    4.2570    1.2200   19.8060 C   0  0  0  0  0  0  0  0  0  0  0  0
    6.2920    0.4960   18.8160 C   0  0  0  0  0  0  0  0  0  0  0  0
   10.3560   -1.1150   21.6450 C   0  0  0  0  0  0  0  0  0  0  0  0
    9.6620   -0.6730   24.0110 C   0  0  0  0  0  0  0  0  0  0  0  0
    7.4460   -3.8730   22.0880 C   0  0  0  0  0  0  0  0  0  0  0  0
    5.9370    0.7390   17.5460 N   0  0  0  0  0  0  0  0  0  0  0  0
    3.8010    1.4570   18.5540 C   0  0  0  0  0  0  0  0  0  0  0  0
    7.8790    3.5800   22.9080 C   0  0  0  0  0  0  0  0  0  0  0  0
   10.7160   -0.8480   23.1220 C   0  0  0  0  0  0  0  0  0  0  0  0
    8.5210   -4.2150   22.9400 C   0  0  0  0  0  0  0  0  0  0  0  0
    6.9320   -5.4370   22.3170 C   0  0  0  0  0  0  0  0  0  0  0  0
   12.3080   -0.8260   23.5640 C   0  0  0  0  0  0  0  0  0  0  0  0
    4.6080    1.2280   17.4250 C   0  0  0  0  0  0  0  0  0  0  0  0
    9.2220    3.1650   23.6020 C   0  0  0  0  0  0  0  0  0  0  0  0
    7.1850    4.5830   23.8320 C   0  0  0  0  0  0  0  0  0  0  0  0
    9.1490   -5.2440   23.7590 C   0  0  0  0  0  0  0  0  0  0  0  0
    7.2990   -6.9860   23.1010 C   0  0  0  0  0  0  0  0  0  0  0  0
   12.5020   -1.1200   25.0570 C   0  0  0  0  0  0  0  0  0  0  0  0
   12.8710    0.5090   23.0560 C   0  0  0  0  0  0  0  0  0  0  0  0
   13.1390   -1.9450   22.7690 C   0  0  0  0  0  0  0  0  0  0  0  0
   10.4270   -5.0050   24.5950 C   0  0  0  0  0  0  0  0  0  0  0  0
   10.0710    4.2940   23.7390 C   0  0  0  0  0  0  0  0  0  0  0  0
    8.1520    5.7780   24.0200 C   0  0  0  0  0  0  0  0  0  0  0  0
    8.5760   -6.4110   23.7630 C   0  0  0  0  0  0  0  0  0  0  0  0
    6.1050   -7.5240   22.4820 C   0  0  0  0  0  0  0  0  0  0  0  0
    9.4620    5.3440   24.5050 O   0  0  0  0  0  0  0  0  0  0  0  0
    4.9640   -7.4120   23.3910 C   0  0  0  0  0  0  0  0  0  0  0  0
    3.5580   -6.7750   22.9060 C   0  0  2  0  0  0  0  0  0  0  0  0
    3.1850   -5.6920   23.7350 C   0  0  0  0  0  0  0  0  0  0  0  0
    2.5090   -7.7100   22.7670 C   0  0  0  0  0  0  0  0  0  0  0  0
    1.8680   -7.7260   24.4650 S   0  0  0  0  0  0  0  0  0  0  0  0
    2.2280   -6.0380   24.7530 C   0  0  0  0  0  0  0  0  0  0  0  0
    0.4530   -7.9390   24.5220 O   0  0  0  0  0  0  0  0  0  0  0  0
    2.7800   -8.5840   25.2430 O   0  0  0  0  0  0  0  0  0  0  0  0
  1  2  1  0
  2  3  2  0
  1  4  1  0
  1  5  1  0
  2  6  1  0
  4  7  1  6
  4  8  1  0
  5  9  2  0
  5 10  1  0
  6 11  1  6
  7 12  1  0
  7 13  2  0
  8 14  2  0
  8 15  1  0
  9 16  1  0
 10 17  2  0
  6 18  1  0
 15 19  2  0
 14 20  1  0
 12 21  1  0
 16 22  2  0
 17 22  1  0
 18 23  2  0
 18 24  1  0
 22 25  1  0
 19 26  1  0
 20 26  2  0
 21 27  1  0
 21 28  1  0
 23 29  1  0
 24 30  2  0
 25 31  1  0
 25 32  1  0
 25 33  1  0
 29 34  1  0
 27 35  1  0
 28 36  1  0
 29 37  2  0
 30 37  1  0
 30 38  1  0
 35 39  1  0
 36 39  1  0
 38 40  1  0
 41 40  1  1
 41 42  1  0
 41 43  1  0
 43 44  1  0
 42 45  2  0
 44 45  1  0
 44 46  1  0
 44 47  1  0
M  END
