x3115-x0769-x0540-x0689-x3110-x0820-x0946
     RDKit          3D

 76 84  0  0  0  0  0  0  0  0999 V2000
    7.9440    0.9900   23.4300 N   0  0  0  0  0  0  0  0  0  0  0  0
    8.5530    2.3770   23.6260 C   0  0  2  0  0  0  0  0  0  0  0  0
    7.8960    3.4540   22.7220 C   0  0  0  0  0  0  0  0  0  0  0  0
    7.7420    0.3510   22.2150 C   0  0  0  0  0  0  0  0  0  0  0  0
    8.4610    0.5240   21.2210 O   0  0  0  0  0  0  0  0  0  0  0  0
    6.6050   -0.5710   21.9580 C   0  0  2  0  0  0  0  0  0  0  0  0
   10.0810    2.4300   23.3750 C   0  0  0  0  0  0  0  0  0  0  0  0
    6.9830   -2.1030   21.9900 C   0  0  2  0  0  0  0  0  0  0  0  0
    8.0070    4.7740   23.2360 O   0  0  0  0  0  0  0  0  0  0  0  0
    6.1850   -0.0300   20.5630 C   0  0  0  0  0  0  0  0  0  0  0  0
   10.8390    3.6080   23.5310 C   0  0  0  0  0  0  0  0  0  0  0  0
   10.6910    1.2620   22.9660 C   0  0  0  0  0  0  0  0  0  0  0  0
   10.1450    4.8070   24.0420 C   0  0  0  0  0  0  0  0  0  0  0  0
    5.9960   -3.0290   20.9740 C   0  0  0  0  0  0  0  0  0  0  0  0
    7.9680    5.8040   22.2420 C   0  0  0  0  0  0  0  0  0  0  0  0
    6.5560   -3.5630   22.6220 C   0  0  1  0  0  0  0  0  0  0  0  0
    4.9740    0.8090   20.2530 C   0  0  0  0  0  0  0  0  0  0  0  0
    6.9470   -0.2310   19.2290 C   0  0  0  0  0  0  0  0  0  0  0  0
    8.6830   -2.1570   22.3450 C   0  0  0  0  0  0  0  0  0  0  0  0
   12.1640    1.1740   22.6450 C   0  0  0  0  0  0  0  0  0  0  0  0
   12.2950    3.5470   23.1760 C   0  0  0  0  0  0  0  0  0  0  0  0
   13.2100    4.7480   23.2420 C   0  0  0  0  0  0  0  0  0  0  0  0
    4.9100   -3.0730   20.3370 O   0  0  0  0  0  0  0  0  0  0  0  0
    6.7950   -4.1970   21.1190 C   0  0  2  0  0  0  0  0  0  0  0  0
    3.9840    1.2110   21.3170 C   0  0  0  0  0  0  0  0  0  0  0  0
    9.8010    5.9660   24.3050 O   0  0  0  0  0  0  0  0  0  0  0  0
   11.1180    5.3720   23.3170 O   0  0  0  0  0  0  0  0  0  0  0  0
    6.5740    0.3010   17.9000 N   0  0  0  0  0  0  0  0  0  0  0  0
    4.6290    1.3070   18.9960 C   0  0  0  0  0  0  0  0  0  0  0  0
    9.8480   -2.5630   21.7230 C   0  0  0  0  0  0  0  0  0  0  0  0
    8.8100   -1.6460   23.6250 C   0  0  0  0  0  0  0  0  0  0  0  0
   12.8640    2.3490   22.7680 C   0  0  0  0  0  0  0  0  0  0  0  0
    7.6990   -4.4300   22.9340 N   0  0  0  0  0  0  0  0  0  0  0  0
    5.7250   -4.1840   23.8370 C   0  0  1  0  0  0  0  0  0  0  0  0
   13.1230    5.5140   21.8940 C   0  0  0  0  0  0  0  0  0  0  0  0
    7.1970   -3.5200   19.7820 C   0  0  0  0  0  0  0  0  0  0  0  0
    4.7590    1.5750   22.5740 C   0  0  0  0  0  0  0  0  0  0  0  0
    5.3520    1.1050   17.8320 C   0  0  0  0  0  0  0  0  0  0  0  0
   11.0410   -2.4560   22.3870 C   0  0  0  0  0  0  0  0  0  0  0  0
   10.0090   -1.5550   24.2360 C   0  0  0  0  0  0  0  0  0  0  0  0
    6.3830   -4.2090   25.3460 C   0  0  2  0  0  0  0  0  0  0  0  0
    4.5430   -3.4700   24.1060 C   0  0  0  0  0  0  0  0  0  0  0  0
    7.3910   -5.8620   22.5960 C   0  0  0  0  0  0  0  0  0  0  0  0
    5.1990   -5.5330   23.5040 N   0  0  0  0  0  0  0  0  0  0  0  0
    3.9980    2.7870   22.9700 N   0  0  0  0  0  0  0  0  0  0  0  0
   11.1560   -1.9630   23.6570 C   0  0  0  0  0  0  0  0  0  0  0  0
    5.6430   -5.0100   26.1720 C   0  0  0  0  0  0  0  0  0  0  0  0
    3.7310   -3.9090   25.3560 C   0  0  0  0  0  0  0  0  0  0  0  0
    6.7110   -3.1110   26.3360 C   0  0  0  0  0  0  0  0  0  0  0  0
    6.0760   -6.3070   22.6510 C   0  0  0  0  0  0  0  0  0  0  0  0
   12.4490   -1.8600   24.3660 C   0  0  0  0  0  0  0  0  0  0  0  0
    2.7650    2.5720   23.6480 C   0  0  0  0  0  0  0  0  0  0  0  0
    4.1690   -4.9260   26.1470 C   0  0  0  0  0  0  0  0  0  0  0  0
    6.3010   -5.8390   27.1250 C   0  0  0  0  0  0  0  0  0  0  0  0
    7.0590   -3.4980   27.7630 C   0  0  0  0  0  0  0  0  0  0  0  0
    2.6700   -3.0890   25.6760 C   0  0  0  0  0  0  0  0  0  0  0  0
   12.8040   -0.4430   24.7360 C   0  0  0  0  0  0  0  0  0  0  0  0
   13.4120   -1.3960   23.3570 C   0  0  0  0  0  0  0  0  0  0  0  0
   13.1250   -2.9900   25.1380 C   0  0  0  0  0  0  0  0  0  0  0  0
    2.6270    1.7840   24.5770 O   0  0  0  0  0  0  0  0  0  0  0  0
    1.7770    3.3380   23.1340 N   0  0  0  0  0  0  0  0  0  0  0  0
    3.2900   -5.6810   26.8810 O   0  0  0  0  0  0  0  0  0  0  0  0
    7.0970   -5.0130   28.0690 C   0  0  0  0  0  0  0  0  0  0  0  0
    3.1550   -1.9040   26.2070 C   0  0  0  0  0  0  0  0  0  0  0  0
    1.4010   -3.3470   25.5170 C   0  0  0  0  0  0  0  0  0  0  0  0
    3.3390   -6.9700   26.2230 O   0  0  0  0  0  0  0  0  0  0  0  0
    0.5280    3.4900   23.8710 C   0  0  0  0  0  0  0  0  0  0  0  0
    4.4860   -1.7030   26.3490 F   0  0  0  0  0  0  0  0  0  0  0  0
    0.3630   -2.4450   25.8640 C   0  0  0  0  0  0  0  0  0  0  0  0
    2.2840   -0.9350   26.5880 C   0  0  0  0  0  0  0  0  0  0  0  0
    0.5450    4.7010   24.5830 C   0  0  0  0  0  0  0  0  0  0  0  0
   -0.5550    3.2720   23.0210 C   0  0  0  0  0  0  0  0  0  0  0  0
    0.7910   -1.2090   26.4090 C   0  0  0  0  0  0  0  0  0  0  0  0
   -0.7760    5.0350   25.3340 C   0  0  0  0  0  0  0  0  0  0  0  0
   -1.8900    3.5550   23.7000 C   0  0  0  0  0  0  0  0  0  0  0  0
   -2.0010    4.7310   24.4430 C   0  0  0  0  0  0  0  0  0  0  0  0
  1  2  1  0
  2  3  1  6
  1  4  1  0
  4  5  2  0
  6  4  1  6
  2  7  1  0
  6  8  1  0
  3  9  1  0
  6 10  1  0
  7 11  2  0
  7 12  1  0
 11 13  1  0
  8 14  1  0
  9 15  1  0
  8 16  1  0
 10 17  1  0
 10 18  2  0
  8 19  1  6
 12 20  2  0
 11 21  1  0
 21 22  1  0
 14 23  2  0
 14 24  1  0
 16 24  1  0
 17 25  1  0
 13 26  2  0
 13 27  1  0
 18 28  1  0
 17 29  2  0
 19 30  2  0
 19 31  1  0
 20 32  1  0
 21 32  2  0
 16 33  1  1
 16 34  1  0
 22 35  1  0
 24 36  1  6
 25 37  1  0
 28 38  2  0
 29 38  1  0
 30 39  1  0
 31 40  2  0
 34 41  1  0
 34 42  1  1
 33 43  1  0
 34 44  1  0
 37 45  1  0
 39 46  2  0
 40 46  1  0
 41 47  1  0
 42 48  2  0
 41 49  1  1
 43 50  1  0
 44 50  1  0
 46 51  1  0
 45 52  1  0
 47 53  2  0
 48 53  1  0
 47 54  1  0
 49 55  2  0
 48 56  1  0
 51 57  1  0
 51 58  1  0
 51 59  1  0
 52 60  2  0
 52 61  1  0
 53 62  1  0
 54 63  2  0
 55 63  1  0
 56 64  2  0
 56 65  1  0
 62 66  1  0
 61 67  1  0
 64 68  1  0
 65 69  2  0
 64 70  1  0
 67 71  1  0
 67 72  1  0
 69 73  1  0
 70 73  2  0
 71 74  1  0
 72 75  1  0
 74 76  1  0
 75 76  1  0
M  END
