x3110-x1077
     RDKit          3D

 40 42  0  0  0  0  0  0  0  0999 V2000
    7.5780    1.7920   23.1190 N   0  0  0  0  0  0  0  0  0  0  0  0
    8.2600    3.0550   23.3300 C   0  0  0  0  0  0  0  0  0  0  0  0
    9.8290    3.0480   23.4360 C   0  0  0  0  0  0  0  0  0  0  0  0
    7.5670    1.0510   21.8430 C   0  0  0  0  0  0  0  0  0  0  0  0
    8.3270    1.4320   20.9320 O   0  0  0  0  0  0  0  0  0  0  0  0
    6.5760   -0.1990   21.6330 C   0  0  2  0  0  0  0  0  0  0  0  0
    7.0010   -1.5620   21.7720 N   0  0  0  0  0  0  0  0  0  0  0  0
   10.5740    4.3850   23.4850 C   0  0  0  0  0  0  0  0  0  0  0  0
    5.9570    0.1730   20.2470 C   0  0  0  0  0  0  0  0  0  0  0  0
   11.7430    4.2960   23.0390 O   0  0  0  0  0  0  0  0  0  0  0  0
   10.0780    5.4140   23.9470 O   0  0  0  0  0  0  0  0  0  0  0  0
    5.8240   -2.5190   21.7140 C   0  0  0  0  0  0  0  0  0  0  0  0
    4.7300    0.8950   20.1350 C   0  0  0  0  0  0  0  0  0  0  0  0
    6.6750   -0.2180   19.0660 C   0  0  0  0  0  0  0  0  0  0  0  0
    8.2490   -1.6740   22.6120 C   0  0  0  0  0  0  0  0  0  0  0  0
   12.0910    4.8880   21.7440 C   0  0  0  0  0  0  0  0  0  0  0  0
    4.8610   -3.3730   21.6490 O   0  0  0  0  0  0  0  0  0  0  0  0
    6.6890   -3.8230   21.2850 C   0  0  0  0  0  0  0  0  0  0  0  0
    6.1090    0.1570   17.7460 N   0  0  0  0  0  0  0  0  0  0  0  0
    4.1650    1.2520   18.8910 C   0  0  0  0  0  0  0  0  0  0  0  0
    9.3960   -1.5830   21.7910 C   0  0  0  0  0  0  0  0  0  0  0  0
    8.0210   -1.8610   24.1570 C   0  0  0  0  0  0  0  0  0  0  0  0
   13.5460    5.3870   21.7460 C   0  0  0  0  0  0  0  0  0  0  0  0
    6.7900   -3.9490   19.7530 C   0  0  0  0  0  0  0  0  0  0  0  0
    4.8380    0.8950   17.7230 C   0  0  0  0  0  0  0  0  0  0  0  0
   10.6500   -1.6320   22.2660 C   0  0  0  0  0  0  0  0  0  0  0  0
    9.5530   -1.8800   24.5100 C   0  0  0  0  0  0  0  0  0  0  0  0
    7.7900   -2.0510   25.7280 C   0  0  0  0  0  0  0  0  0  0  0  0
   10.8120   -1.7760   23.7580 C   0  0  0  0  0  0  0  0  0  0  0  0
    7.8910   -3.2970   26.4610 N   0  0  0  0  0  0  0  0  0  0  0  0
   12.2570   -1.8200   24.4650 C   0  0  0  0  0  0  0  0  0  0  0  0
    8.4690   -4.6130   25.9250 C   0  0  0  0  0  0  0  0  0  0  0  0
    7.2120   -3.3080   27.8300 C   0  0  0  0  0  0  0  0  0  0  0  0
   12.4400   -0.6490   25.2540 C   0  0  0  0  0  0  0  0  0  0  0  0
   13.4420   -1.9230   23.3900 C   0  0  0  0  0  0  0  0  0  0  0  0
   12.4650   -3.0640   25.4060 C   0  0  0  0  0  0  0  0  0  0  0  0
    7.7610   -5.7420   26.2950 C   0  0  0  0  0  0  0  0  0  0  0  0
    5.9430   -3.9050   27.9350 C   0  0  0  0  0  0  0  0  0  0  0  0
    5.7770   -5.2640   27.4590 O   0  0  0  0  0  0  0  0  0  0  0  0
    6.3440   -5.6530   26.1850 C   0  0  0  0  0  0  0  0  0  0  0  0
  1  2  1  0
  2  3  1  0
  1  4  1  0
  4  5  2  0
  6  4  1  6
  6  7  1  0
  3  8  1  0
  6  9  1  0
  8 10  1  0
  8 11  2  0
  7 12  1  0
  9 13  2  0
  9 14  1  0
  7 15  1  0
 10 16  1  0
 12 17  2  0
 12 18  1  0
 14 19  2  0
 13 20  1  0
 15 21  2  0
 15 22  1  0
 16 23  1  0
 18 24  1  0
 19 25  1  0
 20 25  2  0
 21 26  1  0
 22 27  2  0
 22 28  1  0
 26 29  2  0
 27 29  1  0
 28 30  1  0
 29 31  1  0
 30 32  1  0
 30 33  1  0
 31 34  1  0
 31 35  1  0
 31 36  1  0
 32 37  1  0
 33 38  1  0
 38 39  1  0
 37 40  1  0
 39 40  1  0
M  END
