x3110-x0946-x0426
     RDKit          3D

 50 53  0  0  0  0  0  0  0  0999 V2000
    7.8860    1.0510   23.3220 N   0  0  0  0  0  0  0  0  0  0  0  0
    8.6400    2.2130   23.8610 C   0  0  0  0  0  0  0  0  0  0  0  0
   10.1210    2.3300   23.5280 C   0  0  0  0  0  0  0  0  0  0  0  0
    7.7010    0.7090   21.8930 C   0  0  0  0  0  0  0  0  0  0  0  0
    8.3360    1.2560   20.9550 O   0  0  0  0  0  0  0  0  0  0  0  0
    6.6340   -0.3740   21.4330 C   0  0  2  0  0  0  0  0  0  0  0  0
    7.0130   -1.6600   21.5010 N   0  0  0  0  0  0  0  0  0  0  0  0
    6.1400    0.1060   20.2680 C   0  0  0  0  0  0  0  0  0  0  0  0
   10.8910    3.6470   23.4480 C   0  0  0  0  0  0  0  0  0  0  0  0
   10.8340    1.1770   23.2680 C   0  0  0  0  0  0  0  0  0  0  0  0
   10.3530    5.0690   23.6940 C   0  0  0  0  0  0  0  0  0  0  0  0
    6.1730   -2.8890   21.3200 C   0  0  0  0  0  0  0  0  0  0  0  0
    4.9040    0.8010   20.1920 C   0  0  0  0  0  0  0  0  0  0  0  0
    6.8470   -0.0520   19.1040 C   0  0  0  0  0  0  0  0  0  0  0  0
    8.2220   -1.7840   22.2620 C   0  0  0  0  0  0  0  0  0  0  0  0
   12.3060    1.1180   22.9010 C   0  0  0  0  0  0  0  0  0  0  0  0
   12.3490    3.4970   23.0790 C   0  0  0  0  0  0  0  0  0  0  0  0
   13.2630    4.7010   22.9580 C   0  0  0  0  0  0  0  0  0  0  0  0
    4.8980   -3.0340   21.0130 O   0  0  0  0  0  0  0  0  0  0  0  0
    6.7640   -4.2170   21.5260 C   0  0  0  0  0  0  0  0  0  0  0  0
    4.0530    1.0460   21.2490 C   0  0  0  0  0  0  0  0  0  0  0  0
   10.7800    6.0630   22.8310 N   0  0  0  0  0  0  0  0  0  0  0  0
   10.6980    5.5020   24.7910 O   0  0  0  0  0  0  0  0  0  0  0  0
    9.1940    5.1070   23.4180 O   0  0  0  0  0  0  0  0  0  0  0  0
    6.5150    0.3880   17.8830 N   0  0  0  0  0  0  0  0  0  0  0  0
    4.5350    1.2710   18.9380 C   0  0  0  0  0  0  0  0  0  0  0  0
    9.4910   -1.4450   21.7190 C   0  0  0  0  0  0  0  0  0  0  0  0
    8.3350   -2.2280   23.5740 C   0  0  0  0  0  0  0  0  0  0  0  0
   12.9370    2.3040   22.8380 C   0  0  0  0  0  0  0  0  0  0  0  0
   13.1950    5.2750   21.5600 C   0  0  0  0  0  0  0  0  0  0  0  0
    8.2050   -4.3970   20.9590 C   0  0  0  0  0  0  0  0  0  0  0  0
    4.4210    1.8080   22.5430 C   0  0  0  0  0  0  0  0  0  0  0  0
    5.3280    1.0650   17.8430 C   0  0  0  0  0  0  0  0  0  0  0  0
   10.7390   -1.5480   22.3890 C   0  0  0  0  0  0  0  0  0  0  0  0
    9.5500   -2.3230   24.2330 C   0  0  0  0  0  0  0  0  0  0  0  0
    3.2950    2.5880   23.0960 N   0  0  0  0  0  0  0  0  0  0  0  0
   10.7730   -2.0030   23.6960 C   0  0  0  0  0  0  0  0  0  0  0  0
   12.0460   -2.1570   24.5150 C   0  0  0  0  0  0  0  0  0  0  0  0
    2.2410    1.8350   23.8200 C   0  0  0  0  0  0  0  0  0  0  0  0
   12.7210   -1.0130   24.9250 C   0  0  0  0  0  0  0  0  0  0  0  0
   13.3260   -2.0840   23.7330 C   0  0  0  0  0  0  0  0  0  0  0  0
   11.9970   -3.3400   25.2510 C   0  0  0  0  0  0  0  0  0  0  0  0
    2.1800    0.4720   23.8370 O   0  0  0  0  0  0  0  0  0  0  0  0
    1.2140    2.6240   24.5590 C   0  0  0  0  0  0  0  0  0  0  0  0
    1.5340    3.7960   25.2090 C   0  0  0  0  0  0  0  0  0  0  0  0
   -0.1010    2.1110   24.5590 C   0  0  0  0  0  0  0  0  0  0  0  0
    2.7820    4.2920   25.2170 F   0  0  0  0  0  0  0  0  0  0  0  0
   -1.1180    2.7500   25.2020 C   0  0  0  0  0  0  0  0  0  0  0  0
    0.5550    4.4910   25.8770 C   0  0  0  0  0  0  0  0  0  0  0  0
   -0.8350    3.9500   25.8780 C   0  0  0  0  0  0  0  0  0  0  0  0
  1  2  1  0
  2  3  1  0
  1  4  1  0
  4  5  2  0
  6  4  1  6
  6  7  1  0
  6  8  1  0
  3  9  2  0
  3 10  1  0
  9 11  1  0
  7 12  1  0
  8 13  1  0
  8 14  2  0
  7 15  1  0
 10 16  2  0
  9 17  1  0
 17 18  1  0
 12 19  2  0
 12 20  1  0
 13 21  1  0
 11 22  1  0
 11 23  1  0
 11 24  1  0
 14 25  1  0
 13 26  2  0
 15 27  2  0
 15 28  1  0
 16 29  1  0
 17 29  2  0
 18 30  1  0
 20 31  1  0
 21 32  1  0
 25 33  2  0
 26 33  1  0
 27 34  1  0
 28 35  2  0
 32 36  1  0
 34 37  2  0
 35 37  1  0
 37 38  1  0
 36 39  1  0
 38 40  1  0
 38 41  1  0
 38 42  1  0
 39 43  2  0
 39 44  1  0
 44 45  2  0
 44 46  1  0
 45 47  1  0
 46 48  2  0
 45 49  1  0
 48 50  1  0
 49 50  2  0
M  END
