x3110-x0769-x3115
     RDKit          3D

 53 57  0  0  0  0  0  0  0  0999 V2000
    7.8160    1.4710   23.2090 N   0  0  0  0  0  0  0  0  0  0  0  0
    8.6840    2.6030   23.5590 C   0  0  1  0  0  0  0  0  0  0  0  0
   10.1660    2.1530   23.5180 C   0  0  0  0  0  0  0  0  0  0  0  0
    7.6410    0.9140   21.8460 C   0  0  0  0  0  0  0  0  0  0  0  0
    8.4290    1.2330   20.9350 O   0  0  0  0  0  0  0  0  0  0  0  0
    6.4930    0.0440   21.6510 C   0  0  2  0  0  0  0  0  0  0  0  0
    8.3410    3.8020   22.6280 C   0  0  0  0  0  0  0  0  0  0  0  0
    6.6950   -1.3710   22.1120 C   0  0  2  0  0  0  0  0  0  0  0  0
   11.0510    3.2880   23.3600 C   0  0  0  0  0  0  0  0  0  0  0  0
    8.5300    4.9090   23.1450 O   0  0  0  0  0  0  0  0  0  0  0  0
    6.1070    0.3980   20.2440 C   0  0  0  0  0  0  0  0  0  0  0  0
   11.9290    3.2110   22.5000 O   0  0  0  0  0  0  0  0  0  0  0  0
   10.8890    4.2720   24.0860 O   0  0  0  0  0  0  0  0  0  0  0  0
    6.0640   -2.6110   21.3460 C   0  0  0  0  0  0  0  0  0  0  0  0
    8.2050    6.0170   22.2970 C   0  0  0  0  0  0  0  0  0  0  0  0
    5.8340   -1.7260   23.2980 C   0  0  0  0  0  0  0  0  0  0  0  0
    4.9290    1.3250   20.1680 C   0  0  0  0  0  0  0  0  0  0  0  0
    6.7870   -0.0700   19.1220 C   0  0  0  0  0  0  0  0  0  0  0  0
    8.2040   -1.4750   22.5540 C   0  0  0  0  0  0  0  0  0  0  0  0
   12.3380    4.4770   21.9470 C   0  0  0  0  0  0  0  0  0  0  0  0
    4.8420   -2.9340   20.9060 O   0  0  0  0  0  0  0  0  0  0  0  0
    7.0480   -3.6510   21.3310 C   0  0  2  0  0  0  0  0  0  0  0  0
    5.6170   -3.1640   23.4120 C   0  0  0  0  0  0  0  0  0  0  0  0
    6.3400    0.3720   17.8180 N   0  0  0  0  0  0  0  0  0  0  0  0
    4.5440    1.7150   18.8950 C   0  0  0  0  0  0  0  0  0  0  0  0
    9.2320   -1.8230   21.6470 C   0  0  0  0  0  0  0  0  0  0  0  0
    8.5580   -1.1990   23.8960 C   0  0  0  0  0  0  0  0  0  0  0  0
   13.3640    5.1200   22.8520 C   0  0  0  0  0  0  0  0  0  0  0  0
    6.9880   -4.4830   20.1160 C   0  0  0  0  0  0  0  0  0  0  0  0
    5.2250    1.2610   17.7770 C   0  0  0  0  0  0  0  0  0  0  0  0
   10.7090   -1.9070   22.0960 C   0  0  0  0  0  0  0  0  0  0  0  0
    9.8700   -1.2540   24.3480 C   0  0  0  0  0  0  0  0  0  0  0  0
    6.5030   -4.2740   22.6100 C   0  0  0  0  0  0  0  0  0  0  0  0
   11.0280   -1.6280   23.4190 C   0  0  0  0  0  0  0  0  0  0  0  0
    5.6720   -5.5460   22.2910 C   0  0  0  0  0  0  0  0  0  0  0  0
    7.6370   -4.7430   23.5480 C   0  0  0  0  0  0  0  0  0  0  0  0
   12.4570   -1.6660   23.9730 C   0  0  0  0  0  0  0  0  0  0  0  0
    5.0270   -6.1280   23.5350 C   0  0  0  0  0  0  0  0  0  0  0  0
    7.0120   -5.1330   24.8670 C   0  0  0  0  0  0  0  0  0  0  0  0
   12.5650   -0.6100   24.8720 C   0  0  0  0  0  0  0  0  0  0  0  0
   13.3760   -1.8130   22.9390 C   0  0  0  0  0  0  0  0  0  0  0  0
   12.7350   -2.8800   24.8710 C   0  0  0  0  0  0  0  0  0  0  0  0
    5.5420   -5.3860   24.7260 N   0  0  0  0  0  0  0  0  0  0  0  0
    4.6530   -5.4280   26.1350 S   0  0  0  0  0  0  0  0  0  0  0  0
    5.5910   -5.1950   27.2040 O   0  0  0  0  0  0  0  0  0  0  0  0
    3.8200   -6.6060   26.1060 O   0  0  0  0  0  0  0  0  0  0  0  0
    3.6500   -3.9630   26.0310 C   0  0  0  0  0  0  0  0  0  0  0  0
    4.2290   -2.6530   26.1660 C   0  0  0  0  0  0  0  0  0  0  0  0
    2.2660   -4.1530   25.8180 C   0  0  0  0  0  0  0  0  0  0  0  0
    5.5410   -2.4910   26.3670 F   0  0  0  0  0  0  0  0  0  0  0  0
    1.4050   -2.9130   25.7410 C   0  0  0  0  0  0  0  0  0  0  0  0
    3.4510   -1.4750   26.0980 C   0  0  0  0  0  0  0  0  0  0  0  0
    2.1320   -1.5590   25.9030 C   0  0  0  0  0  0  0  0  0  0  0  0
  1  2  1  0
  2  3  1  6
  1  4  1  0
  4  5  2  0
  6  4  1  6
  2  7  1  0
  6  8  1  0
  3  9  1  0
  7 10  1  0
  6 11  1  0
  9 12  1  0
  9 13  2  0
  8 14  1  0
 10 15  1  0
  8 16  1  0
 11 17  2  0
 11 18  1  0
  8 19  1  1
 12 20  1  0
 14 21  2  0
 14 22  1  0
 16 23  1  0
 18 24  2  0
 17 25  1  0
 19 26  2  0
 19 27  1  0
 20 28  1  0
 22 29  1  6
 24 30  1  0
 25 30  2  0
 26 31  1  0
 27 32  2  0
 22 33  1  0
 33 23  1  0
 31 34  2  0
 32 34  1  0
 33 35  1  0
 33 36  1  0
 34 37  1  0
 35 38  1  0
 36 39  1  0
 37 40  1  0
 37 41  1  0
 37 42  1  0
 38 43  1  0
 39 43  1  0
 43 44  1  0
 44 45  2  0
 44 46  2  0
 44 47  1  0
 47 48  2  0
 47 49  1  0
 48 50  1  0
 49 51  2  0
 48 52  1  0
 51 53  1  0
 52 53  2  0
M  END
