x3113-x3115-x0769-x0540-x3110-x0734-x0731-x0978-x0946
     RDKit          3D

 80 86  0  0  0  0  0  0  0  0999 V2000
    7.5670    1.4110   23.0560 N   0  0  0  0  0  0  0  0  0  0  0  0
    8.1110    2.8410   23.0180 C   0  0  2  0  0  0  0  0  0  0  0  0
    7.6090    3.6500   21.7810 C   0  0  0  0  0  0  0  0  0  0  0  0
    7.4300    0.6220   21.7900 C   0  0  0  0  0  0  0  0  0  0  0  0
    8.2230    0.8280   20.6820 O   0  0  0  0  0  0  0  0  0  0  0  0
    6.3290   -0.5490   21.6180 C   0  0  2  0  0  0  0  0  0  0  0  0
    9.6870    2.9810   23.0440 C   0  0  0  0  0  0  0  0  0  0  0  0
    6.9250   -1.9700   21.8550 N   0  0  0  0  0  0  0  0  0  0  0  0
    7.1710    4.8970   22.2420 O   0  0  0  0  0  0  0  0  0  0  0  0
    5.6540   -0.1500   20.2800 C   0  0  0  0  0  0  0  0  0  0  0  0
   10.3810    4.1770   23.5570 C   0  0  0  0  0  0  0  0  0  0  0  0
   10.5470    1.9740   22.5720 C   0  0  0  0  0  0  0  0  0  0  0  0
    9.6070    5.3030   24.0960 C   0  0  0  0  0  0  0  0  0  0  0  0
    6.1510   -3.2680   21.6860 C   0  0  0  0  0  0  0  0  0  0  0  0
    7.1280    5.9950   21.2930 C   0  0  0  0  0  0  0  0  0  0  0  0
    4.5170    0.6880   20.0560 C   0  0  0  0  0  0  0  0  0  0  0  0
    6.2780   -0.6740   19.1420 C   0  0  0  0  0  0  0  0  0  0  0  0
    8.2320   -1.9700   22.4930 C   0  0  0  0  0  0  0  0  0  0  0  0
   11.9660    2.0670   22.5640 C   0  0  0  0  0  0  0  0  0  0  0  0
   11.8380    4.2860   23.5490 C   0  0  0  0  0  0  0  0  0  0  0  0
   12.6390    5.4720   24.0420 C   0  0  0  0  0  0  0  0  0  0  0  0
    4.8780   -3.2510   21.4910 O   0  0  0  0  0  0  0  0  0  0  0  0
    6.7200   -4.7560   21.6300 C   0  0  1  0  0  0  0  0  0  0  0  0
    3.5890    1.4260   20.9310 C   0  0  0  0  0  0  0  0  0  0  0  0
    8.8750    5.1740   25.1400 O   0  0  0  0  0  0  0  0  0  0  0  0
    9.6210    6.5540   23.5240 O   0  0  0  0  0  0  0  0  0  0  0  0
    5.7840   -0.3370   17.7960 N   0  0  0  0  0  0  0  0  0  0  0  0
    4.0300    1.0040   18.6220 C   0  0  0  0  0  0  0  0  0  0  0  0
    9.4590   -2.0820   21.7640 C   0  0  0  0  0  0  0  0  0  0  0  0
    8.4390   -1.8330   23.9950 C   0  0  0  0  0  0  0  0  0  0  0  0
   12.5870    3.2220   23.0490 C   0  0  0  0  0  0  0  0  0  0  0  0
   12.9680    6.4930   22.8990 C   0  0  0  0  0  0  0  0  0  0  0  0
    8.1970   -5.0190   21.1790 C   0  0  0  0  0  0  0  0  0  0  0  0
    3.7950    1.7830   22.4120 C   0  0  0  0  0  0  0  0  0  0  0  0
    4.7290    0.4550   17.6160 C   0  0  0  0  0  0  0  0  0  0  0  0
   10.7910   -2.0800   22.4060 C   0  0  0  0  0  0  0  0  0  0  0  0
    9.6620   -1.8330   24.5870 C   0  0  0  0  0  0  0  0  0  0  0  0
    6.2870   -5.8030   22.8510 C   0  0  2  0  0  0  0  0  0  0  0  0
    3.2410    2.8790   23.0330 N   0  0  0  0  0  0  0  0  0  0  0  0
   10.8410   -1.9520   23.8210 C   0  0  0  0  0  0  0  0  0  0  0  0
    5.3630   -6.9050   22.4510 N   0  0  0  0  0  0  0  0  0  0  0  0
    6.3420   -5.6310   24.4130 C   0  0  2  0  0  0  0  0  0  0  0  0
   12.2210   -1.9530   24.6230 C   0  0  0  0  0  0  0  0  0  0  0  0
    2.1190    2.6740   23.7520 C   0  0  0  0  0  0  0  0  0  0  0  0
    4.7660   -5.6000   25.5060 S   0  0  1  0  0  0  0  0  0  0  0  0
    4.0860   -6.6020   22.0650 C   0  0  0  0  0  0  0  0  0  0  0  0
    7.6430   -5.0950   25.0170 C   0  0  0  0  0  0  0  0  0  0  0  0
   12.3560   -0.7070   25.3530 C   0  0  0  0  0  0  0  0  0  0  0  0
   13.5120   -2.0980   23.7210 C   0  0  0  0  0  0  0  0  0  0  0  0
   12.2070   -3.1080   25.4170 C   0  0  0  0  0  0  0  0  0  0  0  0
    3.7020   -7.0550   25.2900 C   0  0  2  0  0  0  0  0  0  0  0  0
    2.2530    2.3740   24.9980 O   0  0  0  0  0  0  0  0  0  0  0  0
    0.8380    2.7640   23.2480 N   0  0  0  0  0  0  0  0  0  0  0  0
    5.3090   -5.7610   26.8760 O   0  0  0  0  0  0  0  0  0  0  0  0
    4.0830   -3.9510   25.8590 C   0  0  0  0  0  0  0  0  0  0  0  0
    2.9720   -6.1670   23.0070 C   0  0  2  0  0  0  0  0  0  0  0  0
    8.2760   -5.3910   26.2530 C   0  0  0  0  0  0  0  0  0  0  0  0
    3.2470   -7.7440   26.4660 C   0  0  0  0  0  0  0  0  0  0  0  0
    4.6300   -8.0890   24.8980 O   0  0  0  0  0  0  0  0  0  0  0  0
    2.7050   -7.0000   24.2050 C   0  0  2  0  0  0  0  0  0  0  0  0
    1.7830   -6.2520   22.2060 O   0  0  0  0  0  0  0  0  0  0  0  0
   -0.3300    3.3130   23.9780 C   0  0  0  0  0  0  0  0  0  0  0  0
    4.8540   -3.0070   26.4190 C   0  0  0  0  0  0  0  0  0  0  0  0
    2.6890   -3.6020   25.5700 C   0  0  0  0  0  0  0  0  0  0  0  0
    7.7580   -6.2820   27.1870 C   0  0  0  0  0  0  0  0  0  0  0  0
    6.4060   -6.4180   27.4290 C   0  0  0  0  0  0  0  0  0  0  0  0
    1.2820   -6.7820   24.6870 N   0  0  0  0  0  0  0  0  0  0  0  0
    6.1450   -3.0690   26.7840 F   0  0  0  0  0  0  0  0  0  0  0  0
   -0.2890    4.7310   24.0050 C   0  0  0  0  0  0  0  0  0  0  0  0
   -1.6330    2.7830   23.3440 C   0  0  0  0  0  0  0  0  0  0  0  0
    1.7990   -2.4300   25.7250 C   0  0  0  0  0  0  0  0  0  0  0  0
    4.2550   -1.7990   26.6670 C   0  0  0  0  0  0  0  0  0  0  0  0
    0.2300   -7.7820   24.4190 C   0  0  0  0  0  0  0  0  0  0  0  0
    0.8850   -1.2260   25.8840 C   0  0  0  0  0  0  0  0  0  0  0  0
   -1.4600    5.4080   24.7570 C   0  0  0  0  0  0  0  0  0  0  0  0
   -2.9100    3.4830   23.8720 C   0  0  0  0  0  0  0  0  0  0  0  0
    2.8980   -1.5590   26.3530 C   0  0  0  0  0  0  0  0  0  0  0  0
    0.2660   -8.9890   25.1690 O   0  0  0  0  0  0  0  0  0  0  0  0
   -0.8270   -7.6240   23.4850 C   0  0  0  0  0  0  0  0  0  0  0  0
   -2.8170    5.0040   24.1410 C   0  0  0  0  0  0  0  0  0  0  0  0
  1  2  1  0
  2  3  1  6
  1  4  1  0
  4  5  2  0
  6  4  1  6
  2  7  1  0
  6  8  1  0
  3  9  1  0
  6 10  1  0
  7 11  2  0
  7 12  1  0
 11 13  1  0
  8 14  1  0
  9 15  1  0
 10 16  1  0
 10 17  2  0
  8 18  1  0
 12 19  2  0
 11 20  1  0
 20 21  1  0
 14 22  2  0
 14 23  1  0
 16 24  1  0
 13 25  2  0
 13 26  1  0
 17 27  1  0
 16 28  2  0
 18 29  2  0
 18 30  1  0
 19 31  1  0
 20 31  2  0
 21 32  1  0
 23 33  1  1
 24 34  1  0
 27 35  2  0
 28 35  1  0
 29 36  1  0
 30 37  2  0
 23 38  1  0
 34 39  1  0
 36 40  2  0
 37 40  1  0
 38 41  1  6
 38 42  1  0
 40 43  1  0
 39 44  1  0
 42 45  1  0
 41 46  1  0
 42 47  1  6
 43 48  1  0
 43 49  1  0
 43 50  1  0
 45 51  1  0
 44 52  2  0
 44 53  1  0
 45 54  1  0
 45 55  1  1
 46 56  1  0
 47 57  2  0
 51 58  1  1
 51 59  1  0
 51 60  1  0
 56 60  1  0
 56 61  1  6
 53 62  1  0
 55 63  2  0
 55 64  1  0
 57 65  1  0
 54 66  1  0
 65 66  2  0
 60 67  1  1
 63 68  1  0
 62 69  1  0
 62 70  1  0
 64 71  2  0
 63 72  1  0
 67 73  1  0
 71 74  1  0
 69 75  1  0
 70 76  1  0
 71 77  1  0
 72 77  2  0
 73 78  2  0
 73 79  1  0
 75 80  1  0
 76 80  1  0
M  END
