x3113-x0540-x1458
     RDKit          3D

 55 59  0  0  0  0  0  0  0  0999 V2000
    7.2040   -1.6970   21.6270 C   0  0  2  0  0  0  0  0  0  0  0  0
    6.2660   -3.0540   21.2890 C   0  0  0  0  0  0  0  0  0  0  0  0
    5.0430   -3.2040   20.7890 O   0  0  0  0  0  0  0  0  0  0  0  0
    6.8880   -0.1790   21.4550 C   0  0  1  0  0  0  0  0  0  0  0  0
    6.5580   -2.1020   22.8970 C   0  0  0  0  0  0  0  0  0  0  0  0
    8.6290   -1.7570   22.3100 C   0  0  0  0  0  0  0  0  0  0  0  0
    8.0110    0.8840   21.7660 C   0  0  0  0  0  0  0  0  0  0  0  0
    6.2640    0.2910   20.1870 C   0  0  0  0  0  0  0  0  0  0  0  0
    9.7910   -2.2720   21.7620 C   0  0  0  0  0  0  0  0  0  0  0  0
    8.7330   -1.1910   23.7340 C   0  0  0  0  0  0  0  0  0  0  0  0
    6.9630   -4.2750   21.8240 C   0  0  2  0  0  0  0  0  0  0  0  0
    7.3900   -3.4090   23.0390 C   0  0  2  0  0  0  0  0  0  0  0  0
    8.1710   -4.7740   21.0170 C   0  0  0  0  0  0  0  0  0  0  0  0
    8.1390    1.2960   23.0930 N   0  0  0  0  0  0  0  0  0  0  0  0
    8.7400    1.4050   20.9270 O   0  0  0  0  0  0  0  0  0  0  0  0
    5.0470    0.9040   20.2040 C   0  0  0  0  0  0  0  0  0  0  0  0
    6.9040    0.1270   19.0420 C   0  0  0  0  0  0  0  0  0  0  0  0
   11.0350   -2.2950   22.4170 C   0  0  0  0  0  0  0  0  0  0  0  0
    9.9610   -1.2430   24.3300 C   0  0  0  0  0  0  0  0  0  0  0  0
    7.1080   -4.0080   24.1410 C   0  0  0  0  0  0  0  0  0  0  0  0
    5.9480   -5.4230   22.1680 C   0  0  0  0  0  0  0  0  0  0  0  0
    9.0980    2.3400   23.4530 C   0  0  0  0  0  0  0  0  0  0  0  0
    4.2610    1.0840   21.4750 C   0  0  0  0  0  0  0  0  0  0  0  0
    6.4210    0.5880   17.7590 N   0  0  0  0  0  0  0  0  0  0  0  0
    4.4630    1.4220   18.9290 C   0  0  0  0  0  0  0  0  0  0  0  0
   11.0660   -1.7670   23.7070 C   0  0  0  0  0  0  0  0  0  0  0  0
    5.6650   -4.1660   24.2720 C   0  0  1  0  0  0  0  0  0  0  0  0
    5.3050   -5.3180   23.6030 C   0  0  0  0  0  0  0  0  0  0  0  0
   10.5920    1.9950   23.5810 C   0  0  0  0  0  0  0  0  0  0  0  0
   12.3620   -1.7380   24.4930 C   0  0  0  0  0  0  0  0  0  0  0  0
    4.9150    1.8900   22.4090 C   0  0  0  0  0  0  0  0  0  0  0  0
    5.3180   -3.9460   25.7360 C   0  0  0  0  0  0  0  0  0  0  0  0
    5.1330    1.2820   17.7400 C   0  0  0  0  0  0  0  0  0  0  0  0
   11.4470    3.0070   22.7940 C   0  0  0  0  0  0  0  0  0  0  0  0
   12.9370   -2.9340   24.9060 C   0  0  0  0  0  0  0  0  0  0  0  0
   13.4710   -2.3210   23.7240 C   0  0  0  0  0  0  0  0  0  0  0  0
   12.7230   -0.5840   24.9830 C   0  0  0  0  0  0  0  0  0  0  0  0
    4.0500    2.8290   23.0270 N   0  0  0  0  0  0  0  0  0  0  0  0
    6.2910   -4.0480   26.6910 N   0  0  0  0  0  0  0  0  0  0  0  0
    4.1660   -3.6110   25.9870 O   0  0  0  0  0  0  0  0  0  0  0  0
   11.7590    3.9990   23.4510 O   0  0  0  0  0  0  0  0  0  0  0  0
    2.8430    2.3900   23.5170 C   0  0  0  0  0  0  0  0  0  0  0  0
    6.4100   -5.1320   27.4690 C   0  0  0  0  0  0  0  0  0  0  0  0
    6.3890   -2.7960   27.2180 C   0  0  0  0  0  0  0  0  0  0  0  0
   12.8520    4.6460   22.9400 C   0  0  0  0  0  0  0  0  0  0  0  0
    2.7110    1.3940   24.2190 O   0  0  0  0  0  0  0  0  0  0  0  0
    1.8440    3.2140   23.1000 N   0  0  0  0  0  0  0  0  0  0  0  0
    7.1570   -5.1090   28.6370 C   0  0  0  0  0  0  0  0  0  0  0  0
    5.1290   -5.5640   27.7560 C   0  0  0  0  0  0  0  0  0  0  0  0
    0.6930    3.3370   23.9430 C   0  0  0  0  0  0  0  0  0  0  0  0
    0.5700    4.5400   24.6410 C   0  0  0  0  0  0  0  0  0  0  0  0
   -0.4450    2.9200   23.2550 C   0  0  0  0  0  0  0  0  0  0  0  0
   -0.7120    4.9060   25.0480 C   0  0  0  0  0  0  0  0  0  0  0  0
   -1.7050    3.2180   23.8270 C   0  0  0  0  0  0  0  0  0  0  0  0
   -1.8050    4.5670   24.1910 C   0  0  0  0  0  0  0  0  0  0  0  0
  1  2  1  0
  2  3  2  0
  1  4  1  0
  1  5  1  0
  1  6  1  1
  4  7  1  6
  4  8  1  0
  6  9  2  0
  6 10  1  0
  2 11  1  0
 12  5  1  1
 11 12  1  0
 11 13  1  6
  7 14  1  0
  7 15  2  0
  8 16  1  0
  8 17  2  0
  9 18  1  0
 10 19  2  0
 12 20  1  0
 11 21  1  0
 14 22  1  0
 16 23  1  0
 17 24  1  0
 16 25  2  0
 18 26  2  0
 19 26  1  0
 20 27  1  0
 21 28  1  0
 27 28  1  0
 22 29  1  0
 26 30  1  0
 23 31  1  0
 27 32  1  1
 24 33  2  0
 25 33  1  0
 29 34  1  0
 30 35  1  0
 30 36  1  0
 30 37  1  0
 31 38  1  0
 32 39  1  0
 32 40  2  0
 34 41  1  0
 38 42  1  0
 39 43  1  0
 39 44  1  0
 41 45  1  0
 42 46  2  0
 42 47  1  0
 43 48  1  0
 43 49  1  0
 47 50  1  0
 50 51  1  0
 50 52  1  0
 51 53  1  0
 52 54  1  0
 53 55  1  0
 54 55  1  0
M  END
