x3117-x1458-x1374
     RDKit          3D

 51 55  0  0  0  0  0  0  0  0999 V2000
    6.7890   -1.3770   21.8760 N   0  0  0  0  0  0  0  0  0  0  0  0
    5.9450   -2.5840   21.5000 C   0  0  0  0  0  0  0  0  0  0  0  0
    4.6600   -2.8890   21.3960 O   0  0  0  0  0  0  0  0  0  0  0  0
    6.4470    0.0580   21.6540 C   0  0  1  0  0  0  0  0  0  0  0  0
    8.1310   -1.4620   22.4590 C   0  0  0  0  0  0  0  0  0  0  0  0
    6.6780   -3.7850   21.1160 C   0  0  1  0  0  0  0  0  0  0  0  0
    7.6130    1.0640   21.8620 C   0  0  0  0  0  0  0  0  0  0  0  0
    5.9590    0.4440   20.2910 C   0  0  0  0  0  0  0  0  0  0  0  0
    9.1990   -1.9620   21.6820 C   0  0  0  0  0  0  0  0  0  0  0  0
    8.4190   -1.0610   23.7790 C   0  0  0  0  0  0  0  0  0  0  0  0
    7.0790   -3.3790   19.6690 C   0  0  0  0  0  0  0  0  0  0  0  0
    7.6500    1.6810   23.0890 N   0  0  0  0  0  0  0  0  0  0  0  0
    8.4610    1.3350   20.9950 O   0  0  0  0  0  0  0  0  0  0  0  0
    4.8170    1.1820   20.0620 C   0  0  0  0  0  0  0  0  0  0  0  0
    6.7110    0.0470   19.1690 C   0  0  0  0  0  0  0  0  0  0  0  0
   10.4870   -2.0790   22.1850 C   0  0  0  0  0  0  0  0  0  0  0  0
    9.7140   -1.1760   24.2970 C   0  0  0  0  0  0  0  0  0  0  0  0
    7.4620   -4.3660   22.3430 C   0  0  0  0  0  0  0  0  0  0  0  0
    6.4240    0.3160   18.0640 N   0  0  0  0  0  0  0  0  0  0  0  0
    4.3710    1.5620   18.8240 C   0  0  0  0  0  0  0  0  0  0  0  0
    8.2880    2.9370   23.3500 C   0  0  0  0  0  0  0  0  0  0  0  0
   10.7300   -1.6880   23.4980 C   0  0  0  0  0  0  0  0  0  0  0  0
    8.0080   -3.7470   23.5270 C   0  0  0  0  0  0  0  0  0  0  0  0
    7.5910   -5.6920   22.2730 C   0  0  0  0  0  0  0  0  0  0  0  0
   12.1480   -1.7930   24.1880 C   0  0  0  0  0  0  0  0  0  0  0  0
    5.2530    1.0810   17.8630 C   0  0  0  0  0  0  0  0  0  0  0  0
    9.8400    2.9520   23.5350 C   0  0  0  0  0  0  0  0  0  0  0  0
    7.9390    4.1540   22.4880 C   0  0  0  0  0  0  0  0  0  0  0  0
    8.6580   -4.4860   24.5750 C   0  0  0  0  0  0  0  0  0  0  0  0
    8.2060   -6.4070   23.2290 C   0  0  0  0  0  0  0  0  0  0  0  0
   12.4290   -0.6020   25.1130 C   0  0  0  0  0  0  0  0  0  0  0  0
   13.3150   -1.8960   23.2030 C   0  0  0  0  0  0  0  0  0  0  0  0
   12.1800   -3.0690   25.0230 C   0  0  0  0  0  0  0  0  0  0  0  0
    9.2030   -3.9350   25.8680 C   0  0  0  0  0  0  0  0  0  0  0  0
   10.2100    4.1900   24.0660 C   0  0  0  0  0  0  0  0  0  0  0  0
    8.4590    5.3210   23.0830 C   0  0  0  0  0  0  0  0  0  0  0  0
    8.8050   -5.8300   24.4810 C   0  0  0  0  0  0  0  0  0  0  0  0
    8.1750   -4.2820   26.7940 C   0  0  2  0  0  0  0  0  0  0  0  0
    9.8730    5.1640   23.2020 O   0  0  0  0  0  0  0  0  0  0  0  0
    6.9650   -3.4520   26.5540 N   0  0  0  0  0  0  0  0  0  0  0  0
    8.3980   -4.5600   28.1340 C   0  0  0  0  0  0  0  0  0  0  0  0
    7.0140   -2.0050   26.2570 C   0  0  0  0  0  0  0  0  0  0  0  0
    5.9790   -4.1640   25.7610 C   0  0  0  0  0  0  0  0  0  0  0  0
    4.8150   -3.5790   25.3070 N   0  0  0  0  0  0  0  0  0  0  0  0
    4.2770   -4.6980   24.5930 C   0  0  0  0  0  0  0  0  0  0  0  0
    4.5070   -4.8470   23.1030 C   0  0  0  0  0  0  0  0  0  0  0  0
    3.6090   -5.6770   25.1800 C   0  0  0  0  0  0  0  0  0  0  0  0
    4.5980   -6.3300   22.7980 C   0  0  0  0  0  0  0  0  0  0  0  0
    3.2760   -6.8520   23.8480 S   0  0  0  0  0  0  0  0  0  0  0  0
    2.0390   -6.5760   23.1720 O   0  0  0  0  0  0  0  0  0  0  0  0
    3.6470   -8.3420   24.3010 O   0  0  0  0  0  0  0  0  0  0  0  0
  1  2  1  0
  2  3  2  0
  1  4  1  0
  1  5  1  0
  2  6  1  0
  4  7  1  6
  4  8  1  0
  5  9  2  0
  5 10  1  0
  6 11  1  6
  7 12  1  0
  7 13  2  0
  8 14  2  0
  8 15  1  0
  9 16  1  0
 10 17  2  0
  6 18  1  0
 15 19  2  0
 14 20  1  0
 12 21  1  0
 16 22  2  0
 17 22  1  0
 18 23  2  0
 18 24  1  0
 22 25  1  0
 19 26  1  0
 20 26  2  0
 21 27  1  0
 21 28  1  0
 23 29  1  0
 24 30  2  0
 25 31  1  0
 25 32  1  0
 25 33  1  0
 29 34  1  0
 27 35  1  0
 28 36  1  0
 29 37  2  0
 30 37  1  0
 34 38  1  0
 35 39  1  0
 36 39  1  0
 38 40  1  0
 38 41  1  1
 40 42  1  0
 40 43  1  0
 43 44  2  3
 44 45  1  0
 45 46  1  0
 45 47  2  0
 46 48  1  0
 47 49  1  0
 48 49  1  0
 49 50  1  0
 49 51  1  0
M  END
