x3113-x0786-x3115-x1311
     RDKit          3D

 55 60  0  0  0  0  0  0  0  0999 V2000
    7.0110   -1.6300   21.7090 N   0  0  0  0  0  0  0  0  0  0  0  0
    6.1100   -2.8310   21.5210 C   0  0  0  0  0  0  0  0  0  0  0  0
    4.8870   -2.9960   20.9750 O   0  0  0  0  0  0  0  0  0  0  0  0
    6.6670   -0.1740   21.5540 C   0  0  1  0  0  0  0  0  0  0  0  0
    8.2710   -1.6970   22.4040 C   0  0  0  0  0  0  0  0  0  0  0  0
    6.5450   -4.1960   21.9940 C   0  0  2  0  0  0  0  0  0  0  0  0
    7.8150    0.8480   21.8490 C   0  0  0  0  0  0  0  0  0  0  0  0
    6.1560    0.2930   20.2580 C   0  0  0  0  0  0  0  0  0  0  0  0
    9.4890   -2.1760   21.6600 C   0  0  0  0  0  0  0  0  0  0  0  0
    8.4680   -1.2760   23.8680 C   0  0  0  0  0  0  0  0  0  0  0  0
    6.7960   -5.0600   20.6970 C   0  0  0  0  0  0  0  0  0  0  0  0
    7.9670    1.3480   23.1230 N   0  0  0  0  0  0  0  0  0  0  0  0
    8.5800    1.2620   20.9690 O   0  0  0  0  0  0  0  0  0  0  0  0
    5.0390    1.1070   20.1990 C   0  0  0  0  0  0  0  0  0  0  0  0
    6.8550   -0.1060   19.1150 C   0  0  0  0  0  0  0  0  0  0  0  0
   10.8240   -2.2120   22.3700 C   0  0  0  0  0  0  0  0  0  0  0  0
    9.8350   -1.3410   24.5390 C   0  0  0  0  0  0  0  0  0  0  0  0
    5.0980   -4.4750   22.7990 C   0  0  1  0  0  0  0  0  0  0  0  0
    7.5250   -4.4510   23.1270 C   0  0  0  0  0  0  0  0  0  0  0  0
    8.7550    2.4950   23.4420 C   0  0  1  0  0  0  0  0  0  0  0  0
    6.4030    0.3480   17.8970 N   0  0  0  0  0  0  0  0  0  0  0  0
    4.6100    1.5430   18.9810 C   0  0  0  0  0  0  0  0  0  0  0  0
   11.0420   -1.8100   23.7930 C   0  0  0  0  0  0  0  0  0  0  0  0
    4.9070   -5.5080   23.7570 C   0  0  2  0  0  0  0  0  0  0  0  0
    4.6730   -3.2490   23.3600 C   0  0  0  0  0  0  0  0  0  0  0  0
    8.2920   -5.6290   23.0830 C   0  0  0  0  0  0  0  0  0  0  0  0
    7.6730   -3.5910   24.1910 C   0  0  0  0  0  0  0  0  0  0  0  0
   10.2730    2.0600   23.5560 C   0  0  0  0  0  0  0  0  0  0  0  0
   12.3580   -1.8270   24.4680 C   0  0  0  0  0  0  0  0  0  0  0  0
    8.4600    3.6880   22.5420 C   0  0  0  0  0  0  0  0  0  0  0  0
    5.2560    1.1970   17.8350 C   0  0  0  0  0  0  0  0  0  0  0  0
    5.5250   -5.3260   24.9830 C   0  0  0  0  0  0  0  0  0  0  0  0
    4.8840   -3.0840   24.7170 C   0  0  0  0  0  0  0  0  0  0  0  0
    9.3150   -6.0790   24.1200 C   0  0  0  0  0  0  0  0  0  0  0  0
    8.6610   -3.9180   25.2800 C   0  0  0  0  0  0  0  0  0  0  0  0
    5.1920   -6.9260   23.2450 C   0  0  0  0  0  0  0  0  0  0  0  0
    3.4220   -6.1380   24.4910 S   0  0  0  0  0  0  0  0  0  0  0  0
   11.2340    2.9420   22.7300 C   0  0  0  0  0  0  0  0  0  0  0  0
   13.4530   -2.3130   23.7800 C   0  0  0  0  0  0  0  0  0  0  0  0
   12.9550   -3.0200   25.2500 C   0  0  0  0  0  0  0  0  0  0  0  0
   12.7270   -0.4770   24.9060 C   0  0  0  0  0  0  0  0  0  0  0  0
    8.7250    4.7770   23.0890 O   0  0  0  0  0  0  0  0  0  0  0  0
    3.6140   -6.6090   25.8390 O   0  0  0  0  0  0  0  0  0  0  0  0
    5.4860   -4.0370   25.5030 C   0  0  0  0  0  0  0  0  0  0  0  0
    1.8650   -6.3100   24.0170 N   0  0  0  0  0  0  0  0  0  0  0  0
    9.5090   -5.1520   25.2920 C   0  0  0  0  0  0  0  0  0  0  0  0
    4.0590   -7.4910   23.7650 C   0  0  0  0  0  0  0  0  0  0  0  0
   11.6610    4.0610   23.5000 O   0  0  0  0  0  0  0  0  0  0  0  0
    8.2510    5.9210   22.3470 C   0  0  0  0  0  0  0  0  0  0  0  0
    1.1530   -5.2460   23.6410 C   0  0  0  0  0  0  0  0  0  0  0  0
    1.1300   -7.6090   24.0290 C   0  0  0  0  0  0  0  0  0  0  0  0
   12.8650    4.6260   22.9470 C   0  0  0  0  0  0  0  0  0  0  0  0
    0.0060   -5.0090   24.3690 C   0  0  0  0  0  0  0  0  0  0  0  0
   -0.1300   -7.5330   24.8980 C   0  0  0  0  0  0  0  0  0  0  0  0
   -1.1160   -6.2790   24.2700 S   0  0  0  0  0  0  0  0  0  0  0  0
  1  2  1  0
  2  3  2  0
  1  4  1  0
  1  5  1  0
  6  2  1  0
  4  7  1  6
  4  8  1  0
  5  9  2  0
  5 10  1  0
  6 11  1  6
  7 12  1  0
  7 13  2  0
  8 14  2  0
  8 15  1  0
  9 16  1  0
 10 17  2  0
  6 18  1  0
  6 19  1  0
 12 20  1  0
 15 21  2  0
 14 22  1  0
 16 23  2  0
 17 23  1  0
 18 24  1  0
 18 25  1  1
 19 26  2  0
 19 27  1  0
 20 28  1  6
 23 29  1  0
 20 30  1  0
 21 31  1  0
 22 31  2  0
 24 32  1  1
 25 33  2  0
 26 34  1  0
 27 35  2  0
 24 36  1  0
 24 37  1  0
 28 38  1  0
 29 39  1  0
 29 40  1  0
 29 41  1  0
 30 42  1  0
 37 43  1  0
 32 44  2  0
 33 44  1  0
 37 45  1  0
 34 46  2  0
 35 46  1  0
 36 47  2  0
 37 47  1  0
 38 48  1  0
 42 49  1  0
 45 50  1  0
 45 51  1  0
 48 52  1  0
 50 53  1  0
 51 54  1  0
 53 55  1  0
 54 55  1  0
M  END
