x3110-x0755-x0540
     RDKit          3D

 63 68  0  0  0  0  0  0  0  0999 V2000
    7.9150    1.2460   23.1930 N   0  0  0  0  0  0  0  0  0  0  0  0
    8.8640    2.2120   23.5420 C   0  0  0  0  0  0  0  0  0  0  0  0
   10.2510    1.9690   23.5460 C   0  0  0  0  0  0  0  0  0  0  0  0
    7.5780    0.6320   21.8970 C   0  0  0  0  0  0  0  0  0  0  0  0
    8.4670    0.8770   20.9100 O   0  0  0  0  0  0  0  0  0  0  0  0
    6.5420   -0.0270   21.6850 C   0  0  2  0  0  0  0  0  0  0  0  0
    6.7210   -1.4900   22.1550 C   0  0  2  0  0  0  0  0  0  0  0  0
   11.0250    3.2890   23.4330 C   0  0  0  0  0  0  0  0  0  0  0  0
    6.1510    0.3710   20.2570 C   0  0  0  0  0  0  0  0  0  0  0  0
   11.9620    3.2240   22.6420 O   0  0  0  0  0  0  0  0  0  0  0  0
   10.7380    4.2960   24.0650 O   0  0  0  0  0  0  0  0  0  0  0  0
    6.0680   -2.6890   21.3700 C   0  0  0  0  0  0  0  0  0  0  0  0
    5.9020   -1.8130   23.3540 C   0  0  0  0  0  0  0  0  0  0  0  0
    4.9180    1.2150   20.0980 C   0  0  0  0  0  0  0  0  0  0  0  0
    6.8560    0.0260   19.1130 C   0  0  0  0  0  0  0  0  0  0  0  0
    8.2190   -1.5960   22.6330 C   0  0  0  0  0  0  0  0  0  0  0  0
   12.2420    4.4580   21.9630 C   0  0  0  0  0  0  0  0  0  0  0  0
    4.8430   -2.9500   20.9360 O   0  0  0  0  0  0  0  0  0  0  0  0
    7.0350   -3.7200   21.3100 C   0  0  2  0  0  0  0  0  0  0  0  0
    4.1410    1.6010   21.1670 C   0  0  0  0  0  0  0  0  0  0  0  0
    5.8840   -3.2380   23.5980 C   0  0  0  0  0  0  0  0  0  0  0  0
    6.4890    0.4350   17.8720 N   0  0  0  0  0  0  0  0  0  0  0  0
    4.6060    1.5910   18.8310 C   0  0  0  0  0  0  0  0  0  0  0  0
    9.2960   -2.0060   21.8180 C   0  0  0  0  0  0  0  0  0  0  0  0
    8.6650   -1.2820   23.9040 C   0  0  0  0  0  0  0  0  0  0  0  0
   13.5270    5.0430   22.5120 C   0  0  0  0  0  0  0  0  0  0  0  0
    6.8570   -4.3280   19.9780 C   0  0  0  0  0  0  0  0  0  0  0  0
    4.8120    2.5430   21.9290 C   0  0  0  0  0  0  0  0  0  0  0  0
    5.3520    1.2360   17.7200 C   0  0  0  0  0  0  0  0  0  0  0  0
   10.6190   -2.0770   22.2730 C   0  0  0  0  0  0  0  0  0  0  0  0
    9.9800   -1.3560   24.3160 C   0  0  0  0  0  0  0  0  0  0  0  0
    6.5490   -4.3690   22.6020 C   0  0  0  0  0  0  0  0  0  0  0  0
    4.1800    3.1240   23.1090 N   0  0  0  0  0  0  0  0  0  0  0  0
   11.0350   -1.7580   23.5450 C   0  0  0  0  0  0  0  0  0  0  0  0
    7.7040   -5.0160   23.3720 C   0  0  0  0  0  0  0  0  0  0  0  0
    5.5570   -5.5090   22.3060 C   0  0  0  0  0  0  0  0  0  0  0  0
   12.4540   -1.8090   24.0720 C   0  0  0  0  0  0  0  0  0  0  0  0
    2.9380    2.5690   23.6590 C   0  0  0  0  0  0  0  0  0  0  0  0
    7.3050   -5.2400   24.6790 C   0  0  0  0  0  0  0  0  0  0  0  0
    5.0640   -6.0880   23.6180 C   0  0  0  0  0  0  0  0  0  0  0  0
   12.6420   -0.7270   24.9140 C   0  0  0  0  0  0  0  0  0  0  0  0
   13.4620   -1.8080   22.9390 C   0  0  0  0  0  0  0  0  0  0  0  0
   12.7200   -2.8650   24.8430 C   0  0  0  0  0  0  0  0  0  0  0  0
    2.8490    1.6440   24.4690 O   0  0  0  0  0  0  0  0  0  0  0  0
    1.8120    3.3470   23.0510 N   0  0  0  0  0  0  0  0  0  0  0  0
    5.8290   -5.4930   24.7490 N   0  0  0  0  0  0  0  0  0  0  0  0
    5.0420   -5.2550   26.2170 S   0  0  0  0  0  0  0  0  0  0  0  0
    0.6840    3.2930   23.9450 C   0  0  0  0  0  0  0  0  0  0  0  0
    4.3200   -6.4690   26.5010 O   0  0  0  0  0  0  0  0  0  0  0  0
    5.9850   -4.8580   27.2440 O   0  0  0  0  0  0  0  0  0  0  0  0
    0.6350    4.5430   24.5650 C   0  0  0  0  0  0  0  0  0  0  0  0
   -0.5260    3.0040   23.0270 C   0  0  0  0  0  0  0  0  0  0  0  0
    3.8600   -3.9240   26.0640 C   0  0  0  0  0  0  0  0  0  0  0  0
   -0.6880    4.9930   25.1740 C   0  0  0  0  0  0  0  0  0  0  0  0
   -1.8600    3.2050   23.7510 C   0  0  0  0  0  0  0  0  0  0  0  0
    2.3920   -4.2750   25.8290 C   0  0  0  0  0  0  0  0  0  0  0  0
    4.2630   -2.5750   26.1680 C   0  0  0  0  0  0  0  0  0  0  0  0
    1.9620   -5.5420   25.7200 F   0  0  0  0  0  0  0  0  0  0  0  0
    5.5380   -2.2380   26.3710 F   0  0  0  0  0  0  0  0  0  0  0  0
   -1.8950    4.6400   24.2900 C   0  0  0  0  0  0  0  0  0  0  0  0
    3.3330   -1.5310   26.0680 C   0  0  0  0  0  0  0  0  0  0  0  0
    1.4730   -3.2330   25.7320 C   0  0  0  0  0  0  0  0  0  0  0  0
    1.9750   -1.7810   25.8630 C   0  0  0  0  0  0  0  0  0  0  0  0
  1  2  1  0
  2  3  1  0
  1  4  1  0
  4  5  2  0
  6  4  1  6
  6  7  1  0
  3  8  1  0
  6  9  1  0
  8 10  1  0
  8 11  2  0
  7 12  1  0
  7 13  1  0
  9 14  1  0
  9 15  2  0
  7 16  1  1
 10 17  1  0
 12 18  2  0
 12 19  1  0
 14 20  1  0
 13 21  1  0
 15 22  1  0
 14 23  2  0
 16 24  2  0
 16 25  1  0
 17 26  1  0
 19 27  1  6
 20 28  1  0
 22 29  2  0
 23 29  1  0
 24 30  1  0
 25 31  2  0
 19 32  1  0
 32 21  1  0
 28 33  1  0
 30 34  2  0
 31 34  1  0
 32 35  1  0
 32 36  1  0
 34 37  1  0
 33 38  1  0
 35 39  1  0
 36 40  1  0
 37 41  1  0
 37 42  1  0
 37 43  1  0
 38 44  2  0
 38 45  1  0
 39 46  1  0
 40 46  1  0
 46 47  1  0
 45 48  1  0
 47 49  2  0
 47 50  2  0
 48 51  1  0
 48 52  1  0
 47 53  1  0
 51 54  1  0
 52 55  1  0
 53 56  2  0
 53 57  1  0
 56 58  1  0
 57 59  1  0
 54 60  1  0
 55 60  1  0
 57 61  2  0
 56 62  1  0
 61 63  1  0
 62 63  2  0
M  END
