x3110-x0072-x0426
     RDKit          3D

 55 59  0  0  0  0  0  0  0  0999 V2000
    7.7730    1.3930   23.1680 N   0  0  0  0  0  0  0  0  0  0  0  0
    8.4550    2.6280   23.5800 C   0  0  0  0  0  0  0  0  0  0  0  0
    9.9700    2.4490   23.6170 C   0  0  0  0  0  0  0  0  0  0  0  0
    7.6210    0.8760   21.8020 C   0  0  0  0  0  0  0  0  0  0  0  0
    8.3680    1.2780   20.8960 O   0  0  0  0  0  0  0  0  0  0  0  0
    6.5380   -0.0800   21.5970 C   0  0  2  0  0  0  0  0  0  0  0  0
    6.8950   -1.5100   21.7190 N   0  0  0  0  0  0  0  0  0  0  0  0
   10.9690    3.5710   23.4670 C   0  0  0  0  0  0  0  0  0  0  0  0
    6.0250    0.3810   20.2310 C   0  0  0  0  0  0  0  0  0  0  0  0
   11.7510    3.3480   22.5440 O   0  0  0  0  0  0  0  0  0  0  0  0
   10.9850    4.5610   24.1850 O   0  0  0  0  0  0  0  0  0  0  0  0
    6.0710   -2.7340   21.3560 C   0  0  0  0  0  0  0  0  0  0  0  0
    4.8000    0.9830   20.1200 C   0  0  0  0  0  0  0  0  0  0  0  0
    6.7740    0.2370   19.0830 C   0  0  0  0  0  0  0  0  0  0  0  0
    8.1970   -1.5570   22.4490 C   0  0  2  0  0  0  0  0  0  0  0  0
   12.2170    4.4830   21.9650 C   0  0  0  0  0  0  0  0  0  0  0  0
    4.7860   -3.0170   21.3510 O   0  0  0  0  0  0  0  0  0  0  0  0
    6.8740   -3.8820   20.8520 C   0  0  0  0  0  0  0  0  0  0  0  0
    3.8580    1.1690   21.2970 C   0  0  0  0  0  0  0  0  0  0  0  0
    6.3500    0.7200   17.7780 N   0  0  0  0  0  0  0  0  0  0  0  0
    4.3590    1.4990   18.7430 C   0  0  0  0  0  0  0  0  0  0  0  0
    9.3490   -2.1290   21.8760 C   0  0  0  0  0  0  0  0  0  0  0  0
    7.9030   -1.7600   23.9500 C   0  0  0  0  0  0  0  0  0  0  0  0
   13.3590    5.0420   22.7970 C   0  0  0  0  0  0  0  0  0  0  0  0
    7.2770   -3.3640   19.5010 C   0  0  0  0  0  0  0  0  0  0  0  0
    4.4070    2.1370   22.3440 C   0  0  0  0  0  0  0  0  0  0  0  0
    5.1660    1.3500   17.6520 C   0  0  0  0  0  0  0  0  0  0  0  0
   10.6430   -2.1230   22.7460 C   0  0  2  0  0  0  0  0  0  0  0  0
    9.1010   -2.3170   24.6700 C   0  0  1  0  0  0  0  0  0  0  0  0
    3.3120    2.7270   23.1950 N   0  0  0  0  0  0  0  0  0  0  0  0
    9.1540   -3.7920   24.5410 C   0  0  0  0  0  0  0  0  0  0  0  0
   10.3790   -1.7430   24.2090 C   0  0  2  0  0  0  0  0  0  0  0  0
   11.6330   -1.1530   22.1440 C   0  0  0  0  0  0  0  0  0  0  0  0
    2.2980    1.9100   23.7790 C   0  0  0  0  0  0  0  0  0  0  0  0
    7.9360   -4.3590   25.1020 N   0  0  0  0  0  0  0  0  0  0  0  0
   12.5680   -0.6190   23.0590 C   0  0  2  0  0  0  0  0  0  0  0  0
   10.4430   -0.2170   24.4130 C   0  0  0  0  0  0  0  0  0  0  0  0
   13.6280   -1.7140   23.8550 C   0  0  0  0  0  0  0  0  0  0  0  0
    2.2770    0.5950   23.6920 O   0  0  0  0  0  0  0  0  0  0  0  0
    8.1700   -4.9110   26.6240 S   0  0  0  0  0  0  0  0  0  0  0  0
    1.2250    2.5900   24.5170 C   0  0  0  0  0  0  0  0  0  0  0  0
   11.7430    0.2290   24.2130 C   0  0  1  0  0  0  0  0  0  0  0  0
   12.5640   -0.3170   25.2620 C   0  0  0  0  0  0  0  0  0  0  0  0
   13.4520   -2.7280   22.8460 C   0  0  0  0  0  0  0  0  0  0  0  0
   13.4240   -2.5210   24.9770 C   0  0  0  0  0  0  0  0  0  0  0  0
    6.6150   -5.5270   26.9520 C   0  0  0  0  0  0  0  0  0  0  0  0
    9.0610   -6.0210   26.4200 O   0  0  0  0  0  0  0  0  0  0  0  0
    8.4550   -3.9790   27.6710 O   0  0  0  0  0  0  0  0  0  0  0  0
    1.4870    3.8920   25.2920 C   0  0  0  0  0  0  0  0  0  0  0  0
   -0.2010    2.0200   24.5360 C   0  0  0  0  0  0  0  0  0  0  0  0
   12.7820   -0.8040   24.2070 C   0  0  0  0  0  0  0  0  0  0  0  0
    2.7160    4.4200   25.3010 F   0  0  0  0  0  0  0  0  0  0  0  0
   -1.1490    2.7320   25.2550 C   0  0  0  0  0  0  0  0  0  0  0  0
    0.4710    4.5610   26.0020 C   0  0  0  0  0  0  0  0  0  0  0  0
   -0.9140    3.8990   25.9480 C   0  0  0  0  0  0  0  0  0  0  0  0
  1  2  1  0
  2  3  1  0
  1  4  1  0
  4  5  2  0
  6  4  1  6
  6  7  1  0
  3  8  1  0
  6  9  1  0
  8 10  1  0
  8 11  2  0
  7 12  1  0
  9 13  1  0
  9 14  2  0
 15  7  1  6
 10 16  1  0
 12 17  2  0
 12 18  1  0
 13 19  1  0
 14 20  1  0
 13 21  2  0
 15 22  1  0
 15 23  1  0
 16 24  1  0
 18 25  1  0
 19 26  1  0
 20 27  2  0
 21 27  1  0
 28 22  1  6
 23 29  1  0
 26 30  1  0
 29 31  1  6
 28 32  1  0
 29 32  1  0
 28 33  1  0
 30 34  1  0
 31 35  1  0
 36 33  1  6
 32 37  1  6
 36 38  1  0
 34 39  2  0
 40 35  1  0
 34 41  1  0
 36 42  1  0
 42 37  1  1
 42 43  1  0
 38 44  1  0
 38 45  1  0
 40 46  1  0
 40 47  2  0
 40 48  2  0
 41 49  2  0
 41 50  1  0
 38 51  1  0
 43 51  2  0
 49 52  1  0
 50 53  2  0
 49 54  1  0
 53 55  1  0
 54 55  2  0
M  END
