x3110-x3115-x0734
     RDKit          3D

 49 52  0  0  0  0  0  0  0  0999 V2000
    7.8210    1.3100   23.1690 N   0  0  0  0  0  0  0  0  0  0  0  0
    8.6070    2.5300   23.4650 C   0  0  1  0  0  0  0  0  0  0  0  0
   10.1170    2.2080   23.5310 C   0  0  0  0  0  0  0  0  0  0  0  0
    7.6950    0.8680   21.8510 C   0  0  0  0  0  0  0  0  0  0  0  0
    8.5580    1.4080   20.9380 O   0  0  0  0  0  0  0  0  0  0  0  0
    6.5510   -0.1720   21.4630 C   0  0  2  0  0  0  0  0  0  0  0  0
    8.3830    3.7850   22.5870 C   0  0  0  0  0  0  0  0  0  0  0  0
    7.0540   -1.5830   21.5890 N   0  0  0  0  0  0  0  0  0  0  0  0
   11.0350    3.4060   23.4480 C   0  0  0  0  0  0  0  0  0  0  0  0
    8.5100    4.8570   23.1830 O   0  0  0  0  0  0  0  0  0  0  0  0
    6.0670    0.3180   20.1290 C   0  0  0  0  0  0  0  0  0  0  0  0
   11.9510    3.2850   22.4590 O   0  0  0  0  0  0  0  0  0  0  0  0
   10.9620    4.3810   24.1870 O   0  0  0  0  0  0  0  0  0  0  0  0
    6.2510   -2.8440   21.2760 C   0  0  0  0  0  0  0  0  0  0  0  0
    8.2180    5.9930   22.3520 C   0  0  0  0  0  0  0  0  0  0  0  0
    4.9500    1.1640   20.0830 C   0  0  0  0  0  0  0  0  0  0  0  0
    6.7700   -0.0730   18.9840 C   0  0  0  0  0  0  0  0  0  0  0  0
    8.2840   -1.6060   22.3850 C   0  0  0  0  0  0  0  0  0  0  0  0
   12.3110    4.4830   21.9320 C   0  0  0  0  0  0  0  0  0  0  0  0
    4.9540   -3.0710   20.9180 O   0  0  0  0  0  0  0  0  0  0  0  0
    6.3850    0.3730   17.7780 N   0  0  0  0  0  0  0  0  0  0  0  0
    4.5030    1.6580   18.8790 C   0  0  0  0  0  0  0  0  0  0  0  0
    9.4270   -1.8640   21.7040 C   0  0  0  0  0  0  0  0  0  0  0  0
    8.3770   -1.3900   23.7840 C   0  0  0  0  0  0  0  0  0  0  0  0
    6.9310   -4.1270   21.4940 C   0  0  0  0  0  0  0  0  0  0  0  0
   13.3900    5.0930   22.7960 C   0  0  0  0  0  0  0  0  0  0  0  0
    8.3100   -4.5180   20.9230 C   0  0  0  0  0  0  0  0  0  0  0  0
    5.2060    1.2730   17.7770 C   0  0  0  0  0  0  0  0  0  0  0  0
   10.6560   -1.9330   22.3340 C   0  0  0  0  0  0  0  0  0  0  0  0
    9.6140   -1.4630   24.4180 C   0  0  0  0  0  0  0  0  0  0  0  0
    6.1120   -5.3830   21.8590 C   0  0  0  0  0  0  0  0  0  0  0  0
    7.5680   -3.8050   22.7970 C   0  0  0  0  0  0  0  0  0  0  0  0
   10.7740   -1.7380   23.7070 C   0  0  0  0  0  0  0  0  0  0  0  0
    6.4480   -5.9220   23.0790 C   0  0  0  0  0  0  0  0  0  0  0  0
    6.5410   -3.5260   23.8090 C   0  0  0  0  0  0  0  0  0  0  0  0
   12.1230   -1.8150   24.4080 C   0  0  0  0  0  0  0  0  0  0  0  0
    6.3820   -4.8990   24.1960 N   0  0  0  0  0  0  0  0  0  0  0  0
   12.6550   -0.5920   24.7340 C   0  0  0  0  0  0  0  0  0  0  0  0
   13.2530   -1.4690   23.4980 C   0  0  0  0  0  0  0  0  0  0  0  0
   12.4570   -2.9980   25.0920 C   0  0  0  0  0  0  0  0  0  0  0  0
    7.0750   -5.1930   25.3330 C   0  0  0  0  0  0  0  0  0  0  0  0
    6.4670   -5.2790   26.5430 C   0  0  0  0  0  0  0  0  0  0  0  0
    8.4460   -5.3960   25.2260 C   0  0  0  0  0  0  0  0  0  0  0  0
    5.0420   -5.0630   26.6690 N   0  0  0  0  0  0  0  0  0  0  0  0
    9.2050   -5.6880   26.3380 C   0  0  0  0  0  0  0  0  0  0  0  0
    7.2520   -5.5780   27.6570 C   0  0  0  0  0  0  0  0  0  0  0  0
    4.3400   -5.7760   25.9360 O   0  0  0  0  0  0  0  0  0  0  0  0
    4.7030   -3.9300   27.0290 O   0  0  0  0  0  0  0  0  0  0  0  0
    8.6520   -5.7890   27.5690 C   0  0  0  0  0  0  0  0  0  0  0  0
  1  2  1  0
  2  3  1  6
  1  4  1  0
  4  5  2  0
  6  4  1  6
  2  7  1  0
  6  8  1  0
  3  9  1  0
  7 10  1  0
  6 11  1  0
  9 12  1  0
  9 13  2  0
  8 14  1  0
 10 15  1  0
 11 16  2  0
 11 17  1  0
  8 18  1  0
 12 19  1  0
 14 20  2  0
 17 21  2  0
 16 22  1  0
 18 23  2  0
 18 24  1  0
 25 14  1  0
 19 26  1  0
 25 27  1  0
 21 28  1  0
 22 28  2  0
 23 29  1  0
 24 30  2  0
 25 31  1  0
 25 32  1  0
 29 33  2  0
 30 33  1  0
 31 34  1  0
 32 35  1  0
 33 36  1  0
 34 37  1  0
 35 37  1  0
 36 38  1  0
 36 39  1  0
 36 40  1  0
 37 41  1  0
 41 42  2  0
 41 43  1  0
 42 44  1  0
 43 45  2  0
 42 46  1  0
 44 47  2  0
 44 48  1  0
 45 49  1  0
 46 49  2  0
M  CHG  2  44   1  48  -1
M  END
