x3110-x3124
     RDKit          3D

 32 33  0  0  0  0  0  0  0  0999 V2000
    7.8860    1.2720   23.2340 N   0  0  0  0  0  0  0  0  0  0  0  0
    8.7530    2.4050   23.5120 C   0  0  0  0  0  0  0  0  0  0  0  0
   10.2930    2.1560   23.5040 C   0  0  0  0  0  0  0  0  0  0  0  0
    7.6030    0.8010   21.8910 C   0  0  0  0  0  0  0  0  0  0  0  0
    8.2570    1.2900   20.9380 O   0  0  0  0  0  0  0  0  0  0  0  0
    6.4800   -0.2770   21.6340 C   0  0  2  0  0  0  0  0  0  0  0  0
    6.8470   -1.6090   21.7640 N   0  0  0  0  0  0  0  0  0  0  0  0
   11.1630    3.3970   23.3410 C   0  0  0  0  0  0  0  0  0  0  0  0
    6.0930    0.2140   20.2500 C   0  0  0  0  0  0  0  0  0  0  0  0
   11.9390    3.3050   22.4070 O   0  0  0  0  0  0  0  0  0  0  0  0
   11.0810    4.3830   24.0610 O   0  0  0  0  0  0  0  0  0  0  0  0
    6.0360   -2.8060   21.3390 C   0  0  0  0  0  0  0  0  0  0  0  0
    5.0060    1.0810   20.1470 C   0  0  0  0  0  0  0  0  0  0  0  0
    6.8340   -0.1940   19.1220 C   0  0  0  0  0  0  0  0  0  0  0  0
    8.1630   -1.6390   22.4020 C   0  0  0  0  0  0  0  0  0  0  0  0
   12.4070    4.5660   21.9130 C   0  0  0  0  0  0  0  0  0  0  0  0
    4.7440   -2.9940   21.3860 O   0  0  0  0  0  0  0  0  0  0  0  0
    6.6540   -4.0530   20.7420 C   0  0  0  0  0  0  0  0  0  0  0  0
    6.4030    0.3540   17.8290 N   0  0  0  0  0  0  0  0  0  0  0  0
    4.5800    1.6090   18.9500 C   0  0  0  0  0  0  0  0  0  0  0  0
    9.2280   -1.7130   21.5670 C   0  0  0  0  0  0  0  0  0  0  0  0
    8.4690   -1.5620   23.8580 C   0  0  0  0  0  0  0  0  0  0  0  0
   13.4180    5.2010   22.8560 C   0  0  0  0  0  0  0  0  0  0  0  0
    8.1640   -3.9880   20.6170 C   0  0  0  0  0  0  0  0  0  0  0  0
    5.2600    1.2620   17.8120 C   0  0  0  0  0  0  0  0  0  0  0  0
   10.5640   -1.7380   21.9750 C   0  0  0  0  0  0  0  0  0  0  0  0
    9.7850   -1.5680   24.2960 C   0  0  0  0  0  0  0  0  0  0  0  0
   10.8990   -1.6600   23.4560 C   0  0  0  0  0  0  0  0  0  0  0  0
   12.3310   -1.6630   24.0390 C   0  0  0  0  0  0  0  0  0  0  0  0
   12.4450   -0.5730   24.8850 C   0  0  0  0  0  0  0  0  0  0  0  0
   13.3500   -1.6230   22.8750 C   0  0  0  0  0  0  0  0  0  0  0  0
   12.7190   -2.8900   24.8820 C   0  0  0  0  0  0  0  0  0  0  0  0
  1  2  1  0
  2  3  1  0
  1  4  1  0
  4  5  2  0
  6  4  1  6
  6  7  1  0
  3  8  1  0
  6  9  1  0
  8 10  1  0
  8 11  2  0
  7 12  1  0
  9 13  2  0
  9 14  1  0
  7 15  1  0
 10 16  1  0
 12 17  2  0
 12 18  1  0
 14 19  2  0
 13 20  1  0
 15 21  2  0
 15 22  1  0
 16 23  1  0
 18 24  1  0
 19 25  1  0
 20 25  2  0
 21 26  1  0
 22 27  2  0
 26 28  2  0
 27 28  1  0
 28 29  1  0
 29 30  1  0
 29 31  1  0
 29 32  1  0
M  END
