x3110-x0771-x1119-x0107
     RDKit          3D

 73 80  0  0  0  0  0  0  0  0999 V2000
    8.1430    1.0920   23.2380 N   0  0  0  0  0  0  0  0  0  0  0  0
    8.9020    2.3450   23.2580 C   0  0  0  0  0  0  0  0  0  0  0  0
   10.4100    2.1480   23.5010 C   0  0  0  0  0  0  0  0  0  0  0  0
    8.2530   -0.0140   22.2210 C   0  0  2  0  0  0  0  0  0  0  0  0
    8.9690    0.3190   21.2610 O   0  0  0  0  0  0  0  0  0  0  0  0
    6.8430   -0.4120   21.8430 C   0  0  2  0  0  0  0  0  0  0  0  0
    9.1540   -1.3050   22.9520 C   0  0  0  0  0  0  0  0  0  0  0  0
    6.7670   -1.8680   21.9730 C   0  0  2  0  0  0  0  0  0  0  0  0
   11.1150    3.3820   23.2190 C   0  0  0  0  0  0  0  0  0  0  0  0
    6.3320    0.1470   20.4980 C   0  0  0  0  0  0  0  0  0  0  0  0
    9.4180   -2.2410   21.8290 C   0  0  0  0  0  0  0  0  0  0  0  0
   11.7010    3.4570   22.1340 O   0  0  0  0  0  0  0  0  0  0  0  0
   11.0890    4.2830   24.0630 O   0  0  0  0  0  0  0  0  0  0  0  0
    6.0200   -2.8870   21.0450 C   0  0  0  0  0  0  0  0  0  0  0  0
    6.3530   -2.6610   23.1690 C   0  0  0  0  0  0  0  0  0  0  0  0
    5.1250    1.0890   20.4520 C   0  0  0  0  0  0  0  0  0  0  0  0
    7.0180   -0.2280   19.1310 C   0  0  0  0  0  0  0  0  0  0  0  0
   10.8010   -2.1940   22.2110 C   0  0  0  0  0  0  0  0  0  0  0  0
    8.2490   -1.8310   22.2840 C   0  0  0  0  0  0  0  0  0  0  0  0
   12.5970    4.5780   21.9570 C   0  0  0  0  0  0  0  0  0  0  0  0
    4.7890   -2.9000   20.7880 O   0  0  0  0  0  0  0  0  0  0  0  0
    6.7250   -4.0720   20.5830 C   0  0  1  0  0  0  0  0  0  0  0  0
    6.4400    0.3780   17.8950 N   0  0  0  0  0  0  0  0  0  0  0  0
    4.7040    1.5660   19.2070 C   0  0  0  0  0  0  0  0  0  0  0  0
   11.0460   -1.5560   23.4410 C   0  0  0  0  0  0  0  0  0  0  0  0
    8.5880   -1.1860   23.5350 C   0  0  0  0  0  0  0  0  0  0  0  0
    7.0720   -4.0690   23.0670 C   0  0  2  0  0  0  0  0  0  0  0  0
   13.8590    4.2300   22.7070 C   0  0  0  0  0  0  0  0  0  0  0  0
    8.0950   -3.5970   20.1870 C   0  0  0  0  0  0  0  0  0  0  0  0
   12.4640   -1.4550   24.0210 C   0  0  0  0  0  0  0  0  0  0  0  0
    5.3320    1.2260   18.0060 C   0  0  0  0  0  0  0  0  0  0  0  0
    9.9000   -1.0340   24.1240 C   0  0  0  0  0  0  0  0  0  0  0  0
    6.8260   -4.8790   21.7970 N   0  0  0  0  0  0  0  0  0  0  0  0
    6.7850   -4.7480   24.2220 C   0  0  0  0  0  0  0  0  0  0  0  0
   12.4270   -0.5080   25.0200 C   0  0  0  0  0  0  0  0  0  0  0  0
   13.3680   -1.3660   22.9710 C   0  0  0  0  0  0  0  0  0  0  0  0
   12.8350   -2.7350   24.8070 C   0  0  0  0  0  0  0  0  0  0  0  0
   15.1690    4.9260   22.3560 C   0  0  0  0  0  0  0  0  0  0  0  0
    5.7600   -5.9370   21.9010 C   0  0  0  0  0  0  0  0  0  0  0  0
    5.5240   -5.4890   24.2890 N   0  0  0  0  0  0  0  0  0  0  0  0
    4.8780   -5.7680   25.7880 S   0  0  0  0  0  0  0  0  0  0  0  0
   16.6410    4.3940   22.5800 C   0  0  0  0  0  0  0  0  0  0  0  0
    4.7750   -5.6510   23.0190 C   0  0  0  0  0  0  0  0  0  0  0  0
    4.2100   -7.0440   25.7720 O   0  0  0  0  0  0  0  0  0  0  0  0
    5.9200   -5.4380   26.7300 O   0  0  0  0  0  0  0  0  0  0  0  0
   17.5860    5.1920   23.5160 C   0  0  0  0  0  0  0  0  0  0  0  0
    3.6640   -4.5040   25.9060 C   0  0  0  0  0  0  0  0  0  0  0  0
   18.8370    5.8280   23.1440 C   0  0  0  0  0  0  0  0  0  0  0  0
    2.2210   -4.8110   25.5280 C   0  0  0  0  0  0  0  0  0  0  0  0
    4.0690   -3.0900   26.4000 C   0  0  0  0  0  0  0  0  0  0  0  0
    1.7590   -6.1560   25.0350 C   0  0  0  0  0  0  0  0  0  0  0  0
   19.2980    7.1330   23.4060 C   0  0  0  0  0  0  0  0  0  0  0  0
    1.2890   -3.7890   25.6530 C   0  0  0  0  0  0  0  0  0  0  0  0
    3.1260   -2.0880   26.5160 C   0  0  0  0  0  0  0  0  0  0  0  0
   20.6880    7.2700   22.9620 N   0  0  0  0  0  0  0  0  0  0  0  0
    1.6720   -2.3940   26.1490 C   0  0  0  0  0  0  0  0  0  0  0  0
    0.5400   -1.3680   26.2550 C   0  0  0  0  0  0  0  0  0  0  0  0
   21.5220    6.3060   23.4710 C   0  0  0  0  0  0  0  0  0  0  0  0
   22.5050    5.6880   22.6920 C   0  0  0  0  0  0  0  0  0  0  0  0
   21.3640    5.9320   24.8070 C   0  0  0  0  0  0  0  0  0  0  0  0
   23.3030    4.6950   23.2850 C   0  0  0  0  0  0  0  0  0  0  0  0
   22.1340    4.9690   25.3830 C   0  0  0  0  0  0  0  0  0  0  0  0
   23.1010    4.3430   24.6310 C   0  0  0  0  0  0  0  0  0  0  0  0
   24.0720    3.0890   25.4050 S   0  0  0  0  0  0  0  0  0  0  0  0
   23.3650    1.7070   25.3210 O   0  0  0  0  0  0  0  0  0  0  0  0
   24.1460    3.5430   26.9810 N   0  0  0  0  0  0  0  0  0  0  0  0
   25.4080    3.1830   24.8620 O   0  0  0  0  0  0  0  0  0  0  0  0
   24.9980    4.5510   27.4100 C   0  0  0  0  0  0  0  0  0  0  0  0
   25.1210    4.7930   28.7110 N   0  0  0  0  0  0  0  0  0  0  0  0
   25.7660    5.3420   26.3720 C   0  0  0  0  0  0  0  0  0  0  0  0
   25.9730    5.7880   29.0450 C   0  0  0  0  0  0  0  0  0  0  0  0
   26.6070    6.3300   26.8080 C   0  0  0  0  0  0  0  0  0  0  0  0
   26.7140    6.5570   28.1430 C   0  0  0  0  0  0  0  0  0  0  0  0
  1  2  1  0
  2  3  1  0
  1  4  1  0
  4  5  1  6
  4  6  1  0
  4  7  1  0
  6  8  1  0
  3  9  1  0
  6 10  1  6
  7 11  1  0
  9 12  1  0
  9 13  2  0
  8 14  1  0
  8 15  1  1
 10 16  2  0
 10 17  1  0
 11 18  2  0
  8 19  1  0
 11 19  1  0
 12 20  1  0
 14 21  2  0
 14 22  1  0
 17 23  2  0
 16 24  1  0
 18 25  1  0
 19 26  2  0
 27 15  1  6
 20 28  1  0
 22 29  1  1
 25 30  1  0
 23 31  1  0
 24 31  2  0
 25 32  2  0
 26 32  1  0
 22 33  1  0
 27 33  1  0
 27 34  1  0
 30 35  1  0
 30 36  1  0
 30 37  1  0
 28 38  1  0
 33 39  1  0
 34 40  1  0
 40 41  1  0
 38 42  1  0
 39 43  1  0
 40 43  1  0
 41 44  2  0
 41 45  2  0
 42 46  1  0
 41 47  1  0
 46 48  1  0
 47 49  2  0
 47 50  1  0
 49 51  1  0
 48 52  1  0
 49 53  1  0
 50 54  2  0
 52 55  1  0
 53 56  2  0
 54 56  1  0
 56 57  1  0
 55 58  1  0
 58 59  2  0
 58 60  1  0
 59 61  1  0
 60 62  2  0
 61 63  2  0
 62 63  1  0
 63 64  1  0
 64 65  2  0
 64 66  1  0
 64 67  2  0
 66 68  1  0
 68 69  2  0
 68 70  1  0
 69 71  1  0
 70 72  2  0
 71 73  2  0
 72 73  1  0
M  END
