x3110-x0946-x2754-x3124
     RDKit          3D

 53 57  0  0  0  0  0  0  0  0999 V2000
    8.0590    1.1600   23.3140 N   0  0  0  0  0  0  0  0  0  0  0  0
    8.7340    2.3760   23.6430 C   0  0  0  0  0  0  0  0  0  0  0  0
   10.0810    2.3760   23.4020 C   0  0  0  0  0  0  0  0  0  0  0  0
    7.8740    0.8900   21.8470 C   0  0  0  0  0  0  0  0  0  0  0  0
    8.5970    1.4330   20.9910 O   0  0  0  0  0  0  0  0  0  0  0  0
    6.7230   -0.0400   21.6470 C   0  0  2  0  0  0  0  0  0  0  0  0
    7.0840   -1.5010   21.5960 N   0  0  0  0  0  0  0  0  0  0  0  0
    6.0350    0.4720   20.4290 C   0  0  0  0  0  0  0  0  0  0  0  0
   10.9260    3.5420   23.3990 C   0  0  0  0  0  0  0  0  0  0  0  0
   10.7080    1.0230   23.1120 C   0  0  0  0  0  0  0  0  0  0  0  0
   10.3890    4.9290   23.7020 C   0  0  0  0  0  0  0  0  0  0  0  0
    6.2320   -2.7620   21.3320 C   0  0  0  0  0  0  0  0  0  0  0  0
    4.7810    1.2980   20.2990 C   0  0  0  0  0  0  0  0  0  0  0  0
    6.8380    0.0410   19.2120 C   0  0  0  0  0  0  0  0  0  0  0  0
    8.3050   -1.6360   22.3910 C   0  0  0  0  0  0  0  0  0  0  0  0
   12.0530    0.8920   22.8430 C   0  0  0  0  0  0  0  0  0  0  0  0
   12.2910    3.4570   23.1180 C   0  0  0  0  0  0  0  0  0  0  0  0
   13.1630    4.6990   23.0990 C   0  0  0  0  0  0  0  0  0  0  0  0
    4.9430   -3.0420   20.8980 O   0  0  0  0  0  0  0  0  0  0  0  0
   10.5790    5.8570   22.6870 N   0  0  0  0  0  0  0  0  0  0  0  0
   10.8850    5.5170   24.8910 O   0  0  0  0  0  0  0  0  0  0  0  0
    9.2150    4.9410   23.9150 O   0  0  0  0  0  0  0  0  0  0  0  0
    6.3850    0.4570   17.8810 N   0  0  0  0  0  0  0  0  0  0  0  0
    4.4460    1.6330   19.0080 C   0  0  0  0  0  0  0  0  0  0  0  0
    9.5930   -1.9640   21.7110 C   0  0  0  0  0  0  0  0  0  0  0  0
    8.3090   -1.4550   23.8590 C   0  0  0  0  0  0  0  0  0  0  0  0
   12.8860    2.0910   22.8360 C   0  0  0  0  0  0  0  0  0  0  0  0
    6.9040   -4.0980   21.7140 C   0  0  1  0  0  0  0  0  0  0  0  0
   13.1500    5.3070   21.7040 C   0  0  0  0  0  0  0  0  0  0  0  0
    8.2090   -4.6560   21.0510 C   0  0  0  0  0  0  0  0  0  0  0  0
    5.2290    1.2330   17.7920 C   0  0  0  0  0  0  0  0  0  0  0  0
   11.0180   -2.1790   22.2230 C   0  0  0  0  0  0  0  0  0  0  0  0
    9.5080   -1.6490   24.3760 C   0  0  0  0  0  0  0  0  0  0  0  0
    7.4190   -3.9520   23.0780 C   0  0  0  0  0  0  0  0  0  0  0  0
    5.8000   -5.1780   21.9450 C   0  0  0  0  0  0  0  0  0  0  0  0
   10.7460   -1.9900   23.5950 C   0  0  0  0  0  0  0  0  0  0  0  0
    6.4660   -3.3350   23.8240 C   0  0  0  0  0  0  0  0  0  0  0  0
    4.8490   -4.6800   22.9030 C   0  0  0  0  0  0  0  0  0  0  0  0
   11.9760   -2.1970   24.4610 C   0  0  0  0  0  0  0  0  0  0  0  0
    5.4960   -4.2510   24.0570 C   0  0  2  0  0  0  0  0  0  0  0  0
   13.3860   -1.8800   23.9980 C   0  0  0  0  0  0  0  0  0  0  0  0
   12.6000   -0.8900   24.8350 C   0  0  0  0  0  0  0  0  0  0  0  0
   11.6930   -3.3560   25.3270 C   0  0  0  0  0  0  0  0  0  0  0  0
    4.6370   -3.6200   25.1500 C   0  0  0  0  0  0  0  0  0  0  0  0
    3.3130   -3.1970   24.8870 O   0  0  0  0  0  0  0  0  0  0  0  0
    5.2680   -3.5120   26.3310 N   0  0  0  0  0  0  0  0  0  0  0  0
    4.8320   -2.3390   27.1890 C   0  0  0  0  0  0  0  0  0  0  0  0
    6.4240   -4.2030   26.7560 C   0  0  0  0  0  0  0  0  0  0  0  0
    7.4460   -4.6290   25.9120 C   0  0  0  0  0  0  0  0  0  0  0  0
    6.6170   -4.5000   28.0700 C   0  0  0  0  0  0  0  0  0  0  0  0
    8.5630   -5.2860   26.3350 C   0  0  0  0  0  0  0  0  0  0  0  0
    7.7660   -5.1750   28.4790 C   0  0  0  0  0  0  0  0  0  0  0  0
    8.7680   -5.5810   27.6240 C   0  0  0  0  0  0  0  0  0  0  0  0
  1  2  1  0
  2  3  1  0
  1  4  1  0
  4  5  2  0
  6  4  1  6
  6  7  1  0
  6  8  1  0
  3  9  2  0
  3 10  1  0
  9 11  1  0
  7 12  1  0
  8 13  2  0
  8 14  1  0
  7 15  1  0
 10 16  2  0
  9 17  1  0
 17 18  1  0
 12 19  2  0
 11 20  1  0
 11 21  1  0
 11 22  1  0
 14 23  2  0
 13 24  1  0
 15 25  2  0
 15 26  1  0
 16 27  1  0
 17 27  2  0
 28 12  1  0
 18 29  1  0
 28 30  1  6
 23 31  1  0
 24 31  2  0
 25 32  1  0
 26 33  2  0
 28 34  1  0
 28 35  1  0
 32 36  2  0
 33 36  1  0
 34 37  1  0
 35 38  1  0
 36 39  1  0
 37 40  1  0
 38 40  1  0
 39 41  1  0
 39 42  1  0
 39 43  1  0
 40 44  1  1
 44 45  2  0
 44 46  1  0
 46 47  1  0
 46 48  1  0
 48 49  2  0
 48 50  1  0
 49 51  1  0
 50 52  2  0
 51 53  2  0
 52 53  1  0
M  END
