x3110-x1348-x2754
     RDKit          3D

 52 56  0  0  0  0  0  0  0  0999 V2000
    7.8960    1.1130   23.3970 N   0  0  0  0  0  0  0  0  0  0  0  0
    8.7590    2.2960   23.6880 C   0  0  0  0  0  0  0  0  0  0  0  0
   10.2840    2.0160   23.5580 C   0  0  0  0  0  0  0  0  0  0  0  0
    7.7400    0.6560   22.0230 C   0  0  0  0  0  0  0  0  0  0  0  0
    8.5060    1.0480   21.1410 O   0  0  0  0  0  0  0  0  0  0  0  0
    6.5410   -0.2920   21.6920 C   0  0  2  0  0  0  0  0  0  0  0  0
    6.8970   -1.6060   21.6700 N   0  0  0  0  0  0  0  0  0  0  0  0
   11.0710    3.1950   23.3710 C   0  0  0  0  0  0  0  0  0  0  0  0
    6.0730    0.2710   20.3930 C   0  0  0  0  0  0  0  0  0  0  0  0
   11.9720    3.1460   22.5390 O   0  0  0  0  0  0  0  0  0  0  0  0
   10.7360    4.1450   24.0860 O   0  0  0  0  0  0  0  0  0  0  0  0
    6.0740   -2.7790   21.3380 C   0  0  0  0  0  0  0  0  0  0  0  0
    4.8850    1.2070   20.1190 C   0  0  0  0  0  0  0  0  0  0  0  0
    6.6450    0.1210   18.9610 C   0  0  0  0  0  0  0  0  0  0  0  0
    8.2190   -1.7670   22.3640 C   0  0  0  0  0  0  0  0  0  0  0  0
   12.2780    4.4260   21.9600 C   0  0  0  0  0  0  0  0  0  0  0  0
    4.7940   -2.9650   21.1790 O   0  0  0  0  0  0  0  0  0  0  0  0
    6.7950   -4.0920   21.1430 C   0  0  1  0  0  0  0  0  0  0  0  0
    6.3160    0.6140   17.7370 N   0  0  0  0  0  0  0  0  0  0  0  0
    4.4850    1.7750   18.8070 C   0  0  0  0  0  0  0  0  0  0  0  0
    9.4690   -1.2410   21.7540 C   0  0  0  0  0  0  0  0  0  0  0  0
    8.4050   -2.3710   23.5800 C   0  0  0  0  0  0  0  0  0  0  0  0
   13.3690    5.1600   22.8360 C   0  0  0  0  0  0  0  0  0  0  0  0
    8.2890   -3.9760   20.7320 C   0  0  0  0  0  0  0  0  0  0  0  0
    5.2100    1.4870   17.5900 C   0  0  0  0  0  0  0  0  0  0  0  0
   10.7360   -1.3880   22.4800 C   0  0  0  0  0  0  0  0  0  0  0  0
    9.6330   -2.4920   24.2320 C   0  0  0  0  0  0  0  0  0  0  0  0
    6.7530   -4.7880   22.4420 N   0  0  0  0  0  0  0  0  0  0  0  0
   11.0300   -2.0170   23.8270 C   0  0  0  0  0  0  0  0  0  0  0  0
    5.6110   -4.9720   23.4320 C   0  0  2  0  0  0  0  0  0  0  0  0
    7.5530   -5.9660   22.4060 C   0  0  0  0  0  0  0  0  0  0  0  0
   12.3920   -2.0470   24.4470 C   0  0  0  0  0  0  0  0  0  0  0  0
    6.0610   -5.3030   24.6950 C   0  0  1  0  0  0  0  0  0  0  0  0
    4.9540   -6.2010   22.8430 C   0  0  1  0  0  0  0  0  0  0  0  0
    6.3710   -7.1330   22.5890 S   0  0  0  0  0  0  0  0  0  0  0  0
   12.9000   -0.7350   24.6640 C   0  0  0  0  0  0  0  0  0  0  0  0
   13.4010   -1.7370   23.3920 C   0  0  0  0  0  0  0  0  0  0  0  0
   12.8670   -3.2070   25.3080 C   0  0  0  0  0  0  0  0  0  0  0  0
    6.8450   -4.2750   24.9660 O   0  0  0  0  0  0  0  0  0  0  0  0
    3.9780   -6.8410   23.8080 C   0  0  0  0  0  0  0  0  0  0  0  0
    5.2490   -5.7390   25.7780 C   0  0  0  0  0  0  0  0  0  0  0  0
    4.1290   -6.6170   25.3100 C   0  0  0  0  0  0  0  0  0  0  0  0
    7.4290   -4.2530   26.1040 C   0  0  0  0  0  0  0  0  0  0  0  0
    8.7620   -4.9730   26.1550 C   0  0  0  0  0  0  0  0  0  0  0  0
    6.7810   -3.5910   27.0970 C   0  0  0  0  0  0  0  0  0  0  0  0
    5.5040   -2.9350   26.9050 N   0  0  0  0  0  0  0  0  0  0  0  0
    9.4310   -4.9220   27.4730 C   0  0  0  0  0  0  0  0  0  0  0  0
    7.3970   -3.5680   28.2980 C   0  0  0  0  0  0  0  0  0  0  0  0
    4.9730   -2.6990   25.6430 C   0  0  0  0  0  0  0  0  0  0  0  0
    4.9940   -2.1640   27.8790 C   0  0  0  0  0  0  0  0  0  0  0  0
    8.7510   -4.2530   28.4360 C   0  0  0  0  0  0  0  0  0  0  0  0
    3.6280   -2.9290   25.2160 O   0  0  0  0  0  0  0  0  0  0  0  0
  1  2  1  0
  2  3  1  0
  1  4  1  0
  4  5  2  0
  6  4  1  6
  6  7  1  0
  3  8  1  0
  6  9  1  0
  8 10  1  0
  8 11  2  0
  7 12  1  0
  9 13  2  0
  9 14  1  0
  7 15  1  0
 10 16  1  0
 12 17  2  0
 12 18  1  0
 14 19  2  0
 13 20  1  0
 15 21  2  0
 15 22  1  0
 16 23  1  0
 18 24  1  1
 19 25  1  0
 20 25  2  0
 21 26  1  0
 22 27  2  0
 18 28  1  0
 26 29  2  0
 27 29  1  0
 30 28  1  6
 28 31  1  0
 29 32  1  0
 30 33  1  0
 30 34  1  0
 31 35  2  0
 34 35  1  0
 32 36  1  0
 32 37  1  0
 32 38  1  0
 33 39  1  1
 34 40  1  1
 33 41  1  0
 40 42  2  0
 41 42  1  0
 39 43  1  0
 43 44  2  0
 43 45  1  0
 45 46  1  0
 44 47  1  0
 45 48  2  0
 46 49  1  0
 46 50  1  0
 47 51  2  0
 48 51  1  0
 49 52  2  0
M  END
