x3110-x0946-x0426-x2754
     RDKit          3D

 65 70  0  0  0  0  0  0  0  0999 V2000
    7.9930    1.1270   23.2190 N   0  0  0  0  0  0  0  0  0  0  0  0
    8.5840    2.4310   23.6270 C   0  0  0  0  0  0  0  0  0  0  0  0
   10.0900    2.5040   23.3700 C   0  0  0  0  0  0  0  0  0  0  0  0
    7.7830    0.8330   21.8270 C   0  0  0  0  0  0  0  0  0  0  0  0
    8.4870    1.4190   20.9780 O   0  0  0  0  0  0  0  0  0  0  0  0
    6.6240   -0.2300   21.5040 C   0  0  2  0  0  0  0  0  0  0  0  0
    7.0710   -1.6730   21.6140 N   0  0  0  0  0  0  0  0  0  0  0  0
    6.0810    0.2950   20.1910 C   0  0  0  0  0  0  0  0  0  0  0  0
   10.9250    3.6540   23.3610 C   0  0  0  0  0  0  0  0  0  0  0  0
   10.8220    1.2080   23.0740 C   0  0  0  0  0  0  0  0  0  0  0  0
   10.4120    5.0730   23.6400 C   0  0  0  0  0  0  0  0  0  0  0  0
    6.2760   -2.9360   21.4250 C   0  0  0  0  0  0  0  0  0  0  0  0
    4.8380    0.9690   20.1180 C   0  0  0  0  0  0  0  0  0  0  0  0
    6.8070    0.1290   19.0370 C   0  0  0  0  0  0  0  0  0  0  0  0
    8.3260   -1.6960   22.3930 C   0  0  0  0  0  0  0  0  0  0  0  0
   12.1690    1.1820   22.8190 C   0  0  0  0  0  0  0  0  0  0  0  0
   12.2880    3.5260   23.0840 C   0  0  0  0  0  0  0  0  0  0  0  0
   13.2410    4.7020   23.0440 C   0  0  0  0  0  0  0  0  0  0  0  0
    5.0000   -3.1530   20.9890 O   0  0  0  0  0  0  0  0  0  0  0  0
    3.8890    1.2240   21.2650 C   0  0  0  0  0  0  0  0  0  0  0  0
    9.0650    5.1790   23.6510 N   0  0  0  0  0  0  0  0  0  0  0  0
   10.7690    5.8990   22.8300 O   0  0  0  0  0  0  0  0  0  0  0  0
   10.8900    5.6040   24.6330 O   0  0  0  0  0  0  0  0  0  0  0  0
    6.4250    0.5820   17.8310 N   0  0  0  0  0  0  0  0  0  0  0  0
    4.4480    1.4400   18.8740 C   0  0  0  0  0  0  0  0  0  0  0  0
    9.4290   -2.0860   21.6670 C   0  0  0  0  0  0  0  0  0  0  0  0
    8.3510   -1.3140   23.7870 C   0  0  0  0  0  0  0  0  0  0  0  0
   12.8360    2.3270   22.8340 C   0  0  0  0  0  0  0  0  0  0  0  0
    7.0010   -4.1990   21.8660 C   0  0  1  0  0  0  0  0  0  0  0  0
   13.1540    5.3210   21.6970 C   0  0  0  0  0  0  0  0  0  0  0  0
    8.1890   -4.7520   21.0320 C   0  0  0  0  0  0  0  0  0  0  0  0
    4.3950    1.8510   22.3930 C   0  0  0  0  0  0  0  0  0  0  0  0
    5.2570    1.2360   17.7810 C   0  0  0  0  0  0  0  0  0  0  0  0
   10.8160   -2.1510   22.2400 C   0  0  0  0  0  0  0  0  0  0  0  0
    9.7770   -1.4470   24.1270 C   0  0  0  0  0  0  0  0  0  0  0  0
    7.5670   -4.0990   23.2690 C   0  0  0  0  0  0  0  0  0  0  0  0
    5.9140   -5.2980   22.0710 C   0  0  0  0  0  0  0  0  0  0  0  0
    3.3190    2.5650   23.0980 N   0  0  0  0  0  0  0  0  0  0  0  0
   10.9750   -1.8110   23.5050 C   0  0  0  0  0  0  0  0  0  0  0  0
    6.6690   -3.4250   24.0650 C   0  0  0  0  0  0  0  0  0  0  0  0
    5.1290   -4.9880   23.1970 C   0  0  0  0  0  0  0  0  0  0  0  0
   12.3360   -1.8020   24.2030 C   0  0  0  0  0  0  0  0  0  0  0  0
    2.2680    1.7980   23.7860 C   0  0  0  0  0  0  0  0  0  0  0  0
    5.3550   -3.7440   23.8090 C   0  0  1  0  0  0  0  0  0  0  0  0
   12.4410   -0.7110   25.0400 C   0  0  0  0  0  0  0  0  0  0  0  0
   13.4060   -1.6200   23.1330 C   0  0  0  0  0  0  0  0  0  0  0  0
   12.6810   -2.9890   24.8810 C   0  0  0  0  0  0  0  0  0  0  0  0
    2.1820    0.5750   23.7760 O   0  0  0  0  0  0  0  0  0  0  0  0
    4.5690   -3.5700   25.0980 C   0  0  0  0  0  0  0  0  0  0  0  0
    1.2640    2.5980   24.5360 C   0  0  0  0  0  0  0  0  0  0  0  0
    3.4740   -4.3360   25.3180 O   0  0  0  0  0  0  0  0  0  0  0  0
    4.9740   -2.6600   25.9700 N   0  0  0  0  0  0  0  0  0  0  0  0
    1.5480    3.7730   25.2020 C   0  0  0  0  0  0  0  0  0  0  0  0
   -0.2020    2.1290   24.6020 C   0  0  0  0  0  0  0  0  0  0  0  0
    2.7910    4.2810   25.2150 F   0  0  0  0  0  0  0  0  0  0  0  0
    3.9850   -1.9380   26.5330 C   0  0  0  0  0  0  0  0  0  0  0  0
   -1.2320    2.7870   25.2670 C   0  0  0  0  0  0  0  0  0  0  0  0
    0.4470    4.5330   25.9470 C   0  0  0  0  0  0  0  0  0  0  0  0
    5.8360   -3.1740   26.9050 C   0  0  0  0  0  0  0  0  0  0  0  0
   -0.9470    3.9970   25.9530 C   0  0  0  0  0  0  0  0  0  0  0  0
    5.9700   -4.5650   26.9990 C   0  0  0  0  0  0  0  0  0  0  0  0
    6.5440   -2.1970   27.7400 C   0  0  0  0  0  0  0  0  0  0  0  0
    6.7880   -5.1650   27.8970 C   0  0  0  0  0  0  0  0  0  0  0  0
    7.4590   -2.8520   28.7600 C   0  0  0  0  0  0  0  0  0  0  0  0
    7.5050   -4.3930   28.7400 C   0  0  0  0  0  0  0  0  0  0  0  0
  1  2  1  0
  2  3  1  0
  1  4  1  0
  4  5  2  0
  6  4  1  6
  6  7  1  0
  6  8  1  0
  3  9  2  0
  3 10  1  0
  9 11  1  0
  7 12  1  0
  8 13  1  0
  8 14  2  0
  7 15  1  0
 10 16  2  0
  9 17  1  0
 17 18  1  0
 12 19  2  0
 13 20  1  0
 11 21  1  0
 11 22  1  0
 11 23  1  0
 14 24  1  0
 13 25  2  0
 15 26  2  0
 15 27  1  0
 16 28  1  0
 17 28  2  0
 29 12  1  0
 18 30  1  0
 29 31  1  6
 20 32  1  0
 24 33  2  0
 25 33  1  0
 26 34  1  0
 27 35  2  0
 29 36  1  0
 29 37  1  0
 32 38  1  0
 34 39  2  0
 35 39  1  0
 36 40  1  0
 37 41  1  0
 39 42  1  0
 38 43  1  0
 40 44  1  0
 41 44  1  0
 42 45  1  0
 42 46  1  0
 42 47  1  0
 43 48  2  0
 44 49  1  1
 43 50  1  0
 49 51  2  0
 49 52  1  0
 50 53  2  0
 50 54  1  0
 53 55  1  0
 52 56  1  0
 54 57  2  0
 53 58  1  0
 52 59  1  0
 57 60  1  0
 58 60  2  0
 59 61  2  0
 59 62  1  0
 61 63  1  0
 62 64  2  0
 63 65  2  0
 64 65  1  0
M  END
