x3117-x2694-x1374
     RDKit          3D

 50 54  0  0  0  0  0  0  0  0999 V2000
    6.7380   -1.1010   22.1500 N   0  0  0  0  0  0  0  0  0  0  0  0
    6.1320   -2.3340   21.4940 C   0  0  0  0  0  0  0  0  0  0  0  0
    4.8430   -2.9890   21.2610 O   0  0  0  0  0  0  0  0  0  0  0  0
    6.4840    0.3330   21.7090 C   0  0  1  0  0  0  0  0  0  0  0  0
    8.0940   -1.1420   22.7860 C   0  0  0  0  0  0  0  0  0  0  0  0
    7.3700   -2.9900   21.0400 C   0  0  2  0  0  0  0  0  0  0  0  0
    7.7120    1.3530   21.8880 C   0  0  0  0  0  0  0  0  0  0  0  0
    6.1090    0.5820   20.2860 C   0  0  0  0  0  0  0  0  0  0  0  0
    8.3630   -1.0940   24.1340 N   0  0  0  0  0  0  0  0  0  0  0  0
    9.3530   -1.2390   22.1440 C   0  0  0  0  0  0  0  0  0  0  0  0
    6.9690   -3.7370   19.7820 C   0  0  0  0  0  0  0  0  0  0  0  0
    7.5800    2.3300   22.8700 N   0  0  0  0  0  0  0  0  0  0  0  0
    8.7070    1.3070   21.1430 O   0  0  0  0  0  0  0  0  0  0  0  0
    4.9210    1.5150   20.0730 C   0  0  0  0  0  0  0  0  0  0  0  0
    6.8300    0.0070   19.0710 C   0  0  0  0  0  0  0  0  0  0  0  0
    9.7550   -1.1750   24.3840 O   0  0  0  0  0  0  0  0  0  0  0  0
   10.5070   -1.2850   23.1140 C   0  0  0  0  0  0  0  0  0  0  0  0
    7.9010   -3.8500   22.1900 C   0  0  0  0  0  0  0  0  0  0  0  0
   12.0800   -1.4100   23.1260 C   0  0  0  0  0  0  0  0  0  0  0  0
    6.3450    0.4000   17.7610 N   0  0  0  0  0  0  0  0  0  0  0  0
    4.5160    1.8390   18.8480 C   0  0  0  0  0  0  0  0  0  0  0  0
    8.4780    3.4230   23.1100 C   0  0  0  0  0  0  0  0  0  0  0  0
    8.8750   -3.5750   23.1950 C   0  0  0  0  0  0  0  0  0  0  0  0
    7.3260   -5.0140   22.2150 C   0  0  0  0  0  0  0  0  0  0  0  0
   12.7190   -0.2110   23.8270 C   0  0  0  0  0  0  0  0  0  0  0  0
   12.7130   -1.5500   21.7390 C   0  0  0  0  0  0  0  0  0  0  0  0
   12.5160   -2.7110   23.8320 C   0  0  0  0  0  0  0  0  0  0  0  0
    5.1910    1.3180   17.7450 C   0  0  0  0  0  0  0  0  0  0  0  0
    9.7360    3.2340   23.6560 C   0  0  0  0  0  0  0  0  0  0  0  0
    8.0750    4.6650   22.7960 C   0  0  0  0  0  0  0  0  0  0  0  0
    9.1620   -4.5350   24.1660 C   0  0  0  0  0  0  0  0  0  0  0  0
    7.5610   -5.9580   23.0890 C   0  0  0  0  0  0  0  0  0  0  0  0
   10.2670    1.8670   24.0380 C   0  0  0  0  0  0  0  0  0  0  0  0
   12.6320   -2.4930   25.1710 C   0  0  0  0  0  0  0  0  0  0  0  0
   10.0750   -4.2850   25.1400 C   0  0  0  0  0  0  0  0  0  0  0  0
   10.6280    4.2820   23.9070 C   0  0  0  0  0  0  0  0  0  0  0  0
    8.9150    5.7590   23.0300 C   0  0  0  0  0  0  0  0  0  0  0  0
    8.5000   -5.7530   24.1260 C   0  0  0  0  0  0  0  0  0  0  0  0
    6.6850   -7.0500   22.7040 C   0  0  0  0  0  0  0  0  0  0  0  0
   10.1870    5.6260   23.5830 C   0  0  0  0  0  0  0  0  0  0  0  0
    5.5090   -6.8930   23.3520 C   0  0  0  0  0  0  0  0  0  0  0  0
   10.8910    6.7790   23.7670 O   0  0  0  0  0  0  0  0  0  0  0  0
    4.5570   -5.8500   22.8300 C   0  0  2  0  0  0  0  0  0  0  0  0
   11.8730    6.7480   24.8050 C   0  0  0  0  0  0  0  0  0  0  0  0
    4.5010   -4.8320   23.7920 C   0  0  0  0  0  0  0  0  0  0  0  0
    3.2000   -6.5340   22.8080 C   0  0  0  0  0  0  0  0  0  0  0  0
    3.0410   -6.7140   24.5400 S   0  0  0  0  0  0  0  0  0  0  0  0
    3.7240   -5.1080   24.8550 C   0  0  0  0  0  0  0  0  0  0  0  0
    1.6280   -6.7200   24.7790 O   0  0  0  0  0  0  0  0  0  0  0  0
    3.9020   -7.7570   25.0800 O   0  0  0  0  0  0  0  0  0  0  0  0
  1  2  1  0
  2  3  2  0
  1  4  1  0
  1  5  1  0
  2  6  1  0
  4  7  1  6
  4  8  1  0
  5  9  2  0
  5 10  1  0
  6 11  1  6
  7 12  1  0
  7 13  2  0
  8 14  2  0
  8 15  1  0
  9 16  1  0
 10 17  2  0
 16 17  1  0
  6 18  1  0
 17 19  1  0
 15 20  2  0
 14 21  1  0
 12 22  1  0
 18 23  2  0
 18 24  1  0
 19 25  1  0
 19 26  1  0
 19 27  1  0
 20 28  1  0
 21 28  2  0
 22 29  2  0
 22 30  1  0
 23 31  1  0
 24 32  2  0
 29 33  1  0
 27 34  1  0
 31 35  1  0
 29 36  1  0
 30 37  2  0
 31 38  2  0
 32 38  1  0
 32 39  1  0
 36 40  2  0
 37 40  1  0
 39 41  1  0
 40 42  1  0
 43 41  1  1
 42 44  1  0
 43 45  1  0
 43 46  1  0
 46 47  1  0
 45 48  2  0
 47 48  1  0
 47 49  1  0
 47 50  1  0
M  END
