x3110-x1119-x0946
     RDKit          3D

 60 64  0  0  0  0  0  0  0  0999 V2000
    8.1210    1.1400   23.2830 N   0  0  0  0  0  0  0  0  0  0  0  0
    8.8860    2.3690   23.7340 C   0  0  0  0  0  0  0  0  0  0  0  0
   10.3970    2.4100   23.3990 C   0  0  0  0  0  0  0  0  0  0  0  0
    7.8260    0.7750   21.9460 C   0  0  0  0  0  0  0  0  0  0  0  0
    8.4690    1.3250   20.8650 O   0  0  0  0  0  0  0  0  0  0  0  0
    6.6540   -0.2550   21.6100 C   0  0  2  0  0  0  0  0  0  0  0  0
    7.0180   -1.7200   21.7980 N   0  0  0  0  0  0  0  0  0  0  0  0
    6.1780    0.1990   20.2320 C   0  0  0  0  0  0  0  0  0  0  0  0
   11.2810    3.7070   23.3140 C   0  0  0  0  0  0  0  0  0  0  0  0
   10.9620    1.1790   23.1570 C   0  0  0  0  0  0  0  0  0  0  0  0
   10.6390    5.0960   23.5970 C   0  0  0  0  0  0  0  0  0  0  0  0
    6.1530   -2.9180   21.4600 C   0  0  0  0  0  0  0  0  0  0  0  0
    5.0620    1.0390   20.1810 C   0  0  0  0  0  0  0  0  0  0  0  0
    6.8460   -0.1960   19.0990 C   0  0  0  0  0  0  0  0  0  0  0  0
    8.3060   -1.8110   22.4730 C   0  0  0  0  0  0  0  0  0  0  0  0
   12.3000    1.0670   22.8280 C   0  0  0  0  0  0  0  0  0  0  0  0
   12.6740    3.4870   22.9600 C   0  0  0  0  0  0  0  0  0  0  0  0
   13.7990    4.6060   22.8010 C   0  0  2  0  0  0  0  0  0  0  0  0
    4.8740   -3.0280   21.1140 O   0  0  0  0  0  0  0  0  0  0  0  0
    6.8080   -4.3000   21.5590 C   0  0  0  0  0  0  0  0  0  0  0  0
    9.4850    5.2700   22.8990 N   0  0  0  0  0  0  0  0  0  0  0  0
   10.1040    5.2910   24.8650 O   0  0  0  0  0  0  0  0  0  0  0  0
   11.4870    5.9840   23.6050 O   0  0  0  0  0  0  0  0  0  0  0  0
    6.3930    0.2680   17.8820 N   0  0  0  0  0  0  0  0  0  0  0  0
    4.5830    1.5170   19.0010 C   0  0  0  0  0  0  0  0  0  0  0  0
    9.4290   -1.5350   21.6930 C   0  0  0  0  0  0  0  0  0  0  0  0
    8.4570   -2.1450   23.8340 C   0  0  0  0  0  0  0  0  0  0  0  0
   13.0990    2.1800   22.7390 C   0  0  0  0  0  0  0  0  0  0  0  0
   13.1830    5.7040   21.9840 C   0  0  0  0  0  0  0  0  0  0  0  0
    8.2340   -4.4070   20.9500 C   0  0  0  0  0  0  0  0  0  0  0  0
   15.1990    4.3440   22.0720 C   0  0  0  0  0  0  0  0  0  0  0  0
    5.2240    1.1540   17.8740 C   0  0  0  0  0  0  0  0  0  0  0  0
   10.8610   -1.5890   22.2680 C   0  0  0  0  0  0  0  0  0  0  0  0
    9.7570   -2.1980   24.4040 C   0  0  0  0  0  0  0  0  0  0  0  0
   16.5530    4.1980   22.5950 C   0  0  0  0  0  0  0  0  0  0  0  0
   11.0040   -1.9090   23.5910 C   0  0  0  0  0  0  0  0  0  0  0  0
   12.3780   -1.9810   24.2740 C   0  0  0  0  0  0  0  0  0  0  0  0
   17.3000    4.9950   23.5240 C   0  0  0  0  0  0  0  0  0  0  0  0
   12.5990   -0.8410   25.0160 C   0  0  0  0  0  0  0  0  0  0  0  0
   13.4760   -2.0410   23.2160 C   0  0  0  0  0  0  0  0  0  0  0  0
   12.5200   -3.1500   25.0630 C   0  0  0  0  0  0  0  0  0  0  0  0
   18.7830    5.2680   23.3100 C   0  0  0  0  0  0  0  0  0  0  0  0
   19.2400    6.6360   23.5300 C   0  0  0  0  0  0  0  0  0  0  0  0
   20.4850    7.0520   23.1630 N   0  0  0  0  0  0  0  0  0  0  0  0
   21.4400    6.0680   23.6150 C   0  0  0  0  0  0  0  0  0  0  0  0
   22.5850    5.6680   22.7020 C   0  0  0  0  0  0  0  0  0  0  0  0
   21.2180    5.5380   24.8670 C   0  0  0  0  0  0  0  0  0  0  0  0
   23.3790    4.6950   23.2370 C   0  0  0  0  0  0  0  0  0  0  0  0
   22.0260    4.5680   25.3710 C   0  0  0  0  0  0  0  0  0  0  0  0
   23.0910    4.1020   24.6230 C   0  0  0  0  0  0  0  0  0  0  0  0
   24.0560    2.8170   25.3070 S   0  0  0  0  0  0  0  0  0  0  0  0
   23.2450    1.6400   25.2190 O   0  0  0  0  0  0  0  0  0  0  0  0
   24.2360    3.2390   26.9280 N   0  0  0  0  0  0  0  0  0  0  0  0
   25.3430    2.8640   24.6840 O   0  0  0  0  0  0  0  0  0  0  0  0
   25.0410    4.3900   27.3230 C   0  0  0  0  0  0  0  0  0  0  0  0
   25.1010    4.6520   28.6470 N   0  0  0  0  0  0  0  0  0  0  0  0
   25.6540    5.0790   26.2540 C   0  0  0  0  0  0  0  0  0  0  0  0
   25.8440    5.7030   28.9950 C   0  0  0  0  0  0  0  0  0  0  0  0
   26.4260    6.1750   26.6370 C   0  0  0  0  0  0  0  0  0  0  0  0
   26.5690    6.5440   27.9600 C   0  0  0  0  0  0  0  0  0  0  0  0
  1  2  1  0
  2  3  1  0
  1  4  1  0
  4  5  2  0
  6  4  1  6
  6  7  1  0
  6  8  1  0
  3  9  2  0
  3 10  1  0
  9 11  1  0
  7 12  1  0
  8 13  2  0
  8 14  1  0
  7 15  1  0
 10 16  2  0
  9 17  1  0
 17 18  1  0
 12 19  2  0
 12 20  1  0
 11 21  1  0
 11 22  1  0
 11 23  1  0
 14 24  2  0
 13 25  1  0
 15 26  2  0
 15 27  1  0
 16 28  1  0
 17 28  2  0
 18 29  1  6
 20 30  1  0
 18 31  1  0
 24 32  1  0
 25 32  2  0
 26 33  1  0
 27 34  2  0
 31 35  1  0
 33 36  2  0
 34 36  1  0
 36 37  1  0
 35 38  1  0
 37 39  1  0
 37 40  1  0
 37 41  1  0
 38 42  1  0
 42 43  1  0
 43 44  1  0
 44 45  1  0
 45 46  2  0
 45 47  1  0
 46 48  1  0
 47 49  2  0
 48 50  2  0
 49 50  1  0
 50 51  1  0
 51 52  2  0
 51 53  1  0
 51 54  2  0
 53 55  1  0
 55 56  2  0
 55 57  1  0
 56 58  1  0
 57 59  2  0
 58 60  2  0
 59 60  1  0
M  END
