x3113-x3115-x0769-x1311-x0540-x3110-x0691-x2929-x0978-x0731-x1308-x0946
     RDKit          3D

109119  0  0  0  0  0  0  0  0999 V2000
    7.9690    1.3520   23.3180 N   0  0  0  0  0  0  0  0  0  0  0  0
    8.8380    2.5940   23.3250 C   0  0  1  0  0  0  0  0  0  0  0  0
    8.0550    3.9070   23.7370 C   0  0  0  0  0  0  0  0  0  0  0  0
    7.8650    0.6430   22.0780 C   0  0  0  0  0  0  0  0  0  0  0  0
    8.7760    0.7020   21.2510 O   0  0  0  0  0  0  0  0  0  0  0  0
    6.7110   -0.1020   21.6650 C   0  0  2  0  0  0  0  0  0  0  0  0
   10.2790    2.5990   23.1870 C   0  0  0  0  0  0  0  0  0  0  0  0
    7.0440   -1.6000   21.7110 N   0  0  0  0  0  0  0  0  0  0  0  0
    8.5150    4.9910   23.3480 O   0  0  0  0  0  0  0  0  0  0  0  0
    6.1230    0.2560   20.4490 C   0  0  0  0  0  0  0  0  0  0  0  0
   11.2420    3.6200   23.2190 C   0  0  0  0  0  0  0  0  0  0  0  0
   10.8640    1.3360   22.9360 C   0  0  0  0  0  0  0  0  0  0  0  0
   10.8280    4.9990   23.5780 C   0  0  0  0  0  0  0  0  0  0  0  0
    6.1470   -2.7760   21.2970 C   0  0  0  0  0  0  0  0  0  0  0  0
    7.8810    5.6180   22.2790 C   0  0  0  0  0  0  0  0  0  0  0  0
    4.9810    0.9270   20.2320 C   0  0  0  0  0  0  0  0  0  0  0  0
    6.8380   -0.0960   19.1380 C   0  0  0  0  0  0  0  0  0  0  0  0
    8.3210   -1.6510   22.3710 C   0  0  0  0  0  0  0  0  0  0  0  0
   12.1760    1.1390   22.7230 C   0  0  0  0  0  0  0  0  0  0  0  0
   12.6050    3.4600   22.9400 C   0  0  0  0  0  0  0  0  0  0  0  0
   13.6520    4.5140   22.8490 C   0  0  2  0  0  0  0  0  0  0  0  0
    4.8300   -2.9510   21.0810 O   0  0  0  0  0  0  0  0  0  0  0  0
    6.7730   -4.1350   21.1150 C   0  0  1  0  0  0  0  0  0  0  0  0
    4.0590    1.4000   21.2790 C   0  0  0  0  0  0  0  0  0  0  0  0
    9.9820    5.2090   24.4680 O   0  0  0  0  0  0  0  0  0  0  0  0
   11.4010    6.1180   23.0160 O   0  0  0  0  0  0  0  0  0  0  0  0
    6.3800    0.2420   17.9410 N   0  0  0  0  0  0  0  0  0  0  0  0
    4.5910    1.2300   18.9540 C   0  0  0  0  0  0  0  0  0  0  0  0
    9.4180   -1.9850   21.6840 C   0  0  0  0  0  0  0  0  0  0  0  0
    8.5070   -1.3370   23.7480 C   0  0  0  0  0  0  0  0  0  0  0  0
   13.0400    2.1480   22.7070 C   0  0  0  0  0  0  0  0  0  0  0  0
   13.1670    5.5010   21.8390 C   0  0  0  0  0  0  0  0  0  0  0  0
    8.2830   -4.3270   20.8360 C   0  0  0  0  0  0  0  0  0  0  0  0
    4.8930    1.9580   22.4090 C   0  0  0  0  0  0  0  0  0  0  0  0
   15.1340    4.1900   22.3390 C   0  0  0  0  0  0  0  0  0  0  0  0
    5.2560    0.9160   17.8040 C   0  0  0  0  0  0  0  0  0  0  0  0
   10.8230   -2.0680   22.2090 C   0  0  0  0  0  0  0  0  0  0  0  0
    9.7500   -1.3600   24.4080 C   0  0  0  0  0  0  0  0  0  0  0  0
    6.5480   -5.0240   22.1280 N   0  0  0  0  0  0  0  0  0  0  0  0
    4.1370    2.9830   22.8250 N   0  0  0  0  0  0  0  0  0  0  0  0
   15.9720    4.9170   23.2000 C   0  0  0  0  0  0  0  0  0  0  0  0
   11.0210   -1.7360   23.6700 C   0  0  0  0  0  0  0  0  0  0  0  0
    5.3520   -5.8260   22.0720 C   0  0  0  0  0  0  0  0  0  0  0  0
    7.1500   -5.0250   23.3520 C   0  0  0  0  0  0  0  0  0  0  0  0
   12.3570   -1.7720   24.2960 C   0  0  0  0  0  0  0  0  0  0  0  0
    2.9410    2.7050   23.4200 C   0  0  0  0  0  0  0  0  0  0  0  0
   17.5750    4.8720   23.3180 C   0  0  0  0  0  0  0  0  0  0  0  0
    4.3880   -5.3770   23.1170 C   0  0  2  0  0  0  0  0  0  0  0  0
    6.3080   -5.6970   24.3360 C   0  0  0  0  0  0  0  0  0  0  0  0
    8.3130   -5.9470   23.2380 C   0  0  0  0  0  0  0  0  0  0  0  0
    7.5710   -3.7990   23.9950 C   0  0  0  0  0  0  0  0  0  0  0  0
   12.5580   -0.6610   25.1010 C   0  0  0  0  0  0  0  0  0  0  0  0
   13.4560   -1.8210   23.2420 C   0  0  0  0  0  0  0  0  0  0  0  0
   12.5620   -3.0220   25.1580 C   0  0  0  0  0  0  0  0  0  0  0  0
    3.1580   -6.3260   23.3480 C   0  0  2  0  0  0  0  0  0  0  0  0
    3.9840   -4.1400   22.6890 O   0  0  0  0  0  0  0  0  0  0  0  0
    2.8650    1.8670   24.3470 O   0  0  0  0  0  0  0  0  0  0  0  0
    1.7840    3.3080   23.0480 N   0  0  0  0  0  0  0  0  0  0  0  0
   18.4810    6.1310   23.6800 C   0  0  0  0  0  0  0  0  0  0  0  0
    5.0290   -5.1870   24.4380 N   0  0  0  0  0  0  0  0  0  0  0  0
    9.2490   -5.9770   24.1350 C   0  0  0  0  0  0  0  0  0  0  0  0
    8.5230   -3.8180   24.9170 C   0  0  0  0  0  0  0  0  0  0  0  0
    2.0170   -5.5980   23.3030 N   0  0  0  0  0  0  0  0  0  0  0  0
    3.4720   -6.9240   24.5920 C   0  0  1  0  0  0  0  0  0  0  0  0
    4.0910   -5.5860   25.5920 S   0  0  0  0  0  0  0  0  0  0  0  0
   19.6700    5.8440   24.4860 C   0  0  0  0  0  0  0  0  0  0  0  0
    0.6200    3.3530   23.9080 C   0  0  0  0  0  0  0  0  0  0  0  0
    9.2190   -5.0960   25.3440 C   0  0  0  0  0  0  0  0  0  0  0  0
    2.4220   -7.6540   25.1950 C   0  0  0  0  0  0  0  0  0  0  0  0
    4.5070   -7.7420   24.2810 O   0  0  0  0  0  0  0  0  0  0  0  0
    0.8260   -6.1480   22.5990 C   0  0  0  0  0  0  0  0  0  0  0  0
    5.4090   -5.7110   26.5910 O   0  0  0  0  0  0  0  0  0  0  0  0
   20.9770    5.9890   23.9760 C   0  0  0  0  0  0  0  0  0  0  0  0
    0.6000    4.7120   24.5700 C   0  0  0  0  0  0  0  0  0  0  0  0
   -0.5770    3.2070   22.9550 C   0  0  0  0  0  0  0  0  0  0  0  0
    3.3570   -3.9970   25.7780 C   0  0  0  0  0  0  0  0  0  0  0  0
    0.9350   -7.2420   21.9940 O   0  0  0  0  0  0  0  0  0  0  0  0
   -0.4230   -5.5030   22.5730 C   0  0  0  0  0  0  0  0  0  0  0  0
   21.7010    5.0390   24.8860 N   0  0  0  0  0  0  0  0  0  0  0  0
   -0.6290    4.8400   25.2200 C   0  0  0  0  0  0  0  0  0  0  0  0
   -1.7430    3.3590   23.7170 C   0  0  0  0  0  0  0  0  0  0  0  0
    4.2330   -2.9490   26.0720 C   0  0  0  0  0  0  0  0  0  0  0  0
    2.0440   -3.7760   25.6620 C   0  0  0  0  0  0  0  0  0  0  0  0
    5.5690   -3.0790   26.2120 F   0  0  0  0  0  0  0  0  0  0  0  0
   22.9540    4.5800   24.6580 C   0  0  0  0  0  0  0  0  0  0  0  0
   -1.8890    4.5520   24.4270 C   0  0  0  0  0  0  0  0  0  0  0  0
    1.5180   -2.4980   25.8310 C   0  0  0  0  0  0  0  0  0  0  0  0
    3.7180   -1.6830   26.2380 C   0  0  0  0  0  0  0  0  0  0  0  0
    0.0910   -2.1750   25.7210 C   0  0  0  0  0  0  0  0  0  0  0  0
   23.5990    5.0160   23.5710 N   0  0  0  0  0  0  0  0  0  0  0  0
    2.3680   -1.4660   26.1190 C   0  0  0  0  0  0  0  0  0  0  0  0
   23.5550    3.5950   25.5510 C   0  0  1  0  0  0  0  0  0  0  0  0
   23.3890    2.1910   25.1430 C   0  0  0  0  0  0  0  0  0  0  0  0
   25.0440    3.6140   25.9340 C   0  0  2  0  0  0  0  0  0  0  0  0
   24.0680    1.4410   26.1350 N   0  0  0  0  0  0  0  0  0  0  0  0
   25.2880    2.1940   26.3820 C   0  0  0  0  0  0  0  0  0  0  0  0
   25.4610    4.6110   26.9270 C   0  0  0  0  0  0  0  0  0  0  0  0
   24.3650    0.1190   25.6380 C   0  0  0  0  0  0  0  0  0  0  0  0
   25.2140    4.5080   28.3030 C   0  0  0  0  0  0  0  0  0  0  0  0
   26.1440    5.7100   26.4910 C   0  0  0  0  0  0  0  0  0  0  0  0
   23.1850   -0.5500   25.0710 C   0  0  0  0  0  0  0  0  0  0  0  0
   25.6400    5.4670   29.1990 C   0  0  0  0  0  0  0  0  0  0  0  0
   26.5680    6.6660   27.3880 C   0  0  0  0  0  0  0  0  0  0  0  0
   22.1680   -0.9720   25.9050 C   0  0  0  0  0  0  0  0  0  0  0  0
   22.9900   -0.7960   23.7200 C   0  0  0  0  0  0  0  0  0  0  0  0
   26.3360    6.5760   28.7400 C   0  0  0  0  0  0  0  0  0  0  0  0
   21.0600   -1.5780   25.4280 N   0  0  0  0  0  0  0  0  0  0  0  0
   21.8550   -1.4150   23.2590 C   0  0  0  0  0  0  0  0  0  0  0  0
   20.8710   -1.8120   24.1150 C   0  0  0  0  0  0  0  0  0  0  0  0
  1  2  1  0
  2  3  1  1
  1  4  1  0
  4  5  2  0
  6  4  1  6
  2  7  1  0
  6  8  1  0
  3  9  1  0
  6 10  1  0
  7 11  2  0
  7 12  1  0
 11 13  1  0
  8 14  1  0
  9 15  1  0
 10 16  1  0
 10 17  2  0
  8 18  1  0
 12 19  2  0
 11 20  1  0
 20 21  1  0
 14 22  2  0
 14 23  1  0
 16 24  1  0
 13 25  2  0
 13 26  1  0
 17 27  1  0
 16 28  2  0
 18 29  2  0
 18 30  1  0
 19 31  1  0
 20 31  2  0
 21 32  1  6
 23 33  1  1
 24 34  1  0
 21 35  1  0
 27 36  2  0
 28 36  1  0
 29 37  1  0
 30 38  2  0
 23 39  1  0
 34 40  1  0
 35 41  1  0
 37 42  2  0
 38 42  1  0
 39 43  1  0
 39 44  1  0
 42 45  1  0
 40 46  1  0
 41 47  1  0
 43 48  1  0
 44 49  1  0
 44 50  1  0
 44 51  1  0
 45 52  1  0
 45 53  1  0
 45 54  1  0
 48 55  1  0
 48 56  1  6
 46 57  2  0
 46 58  1  0
 47 59  1  0
 48 60  1  0
 49 60  1  0
 50 61  2  0
 51 62  2  0
 55 63  1  1
 55 64  1  0
 60 65  1  0
 64 65  1  0
 59 66  1  0
 58 67  1  0
 61 68  1  0
 62 68  1  0
 64 69  1  1
 64 70  1  0
 63 71  1  0
 65 72  2  0
 66 73  1  0
 67 74  1  0
 67 75  1  0
 65 76  1  0
 71 77  2  0
 71 78  1  0
 73 79  1  0
 74 80  1  0
 75 81  1  0
 76 82  2  0
 76 83  1  0
 82 84  1  0
 79 85  2  3
 80 86  1  0
 81 86  1  0
 83 87  2  0
 82 88  1  0
 87 89  1  0
 85 90  1  0
 87 91  1  0
 88 91  2  0
 92 85  1  6
 92 93  1  0
 92 94  1  0
 93 95  1  0
 94 96  1  0
 95 96  1  0
 94 97  1  1
 95 98  1  0
 97 99  2  0
 97100  1  0
 98101  1  0
 99102  1  0
100103  2  0
101104  2  0
101105  1  0
102106  2  0
103106  1  0
104107  1  0
105108  2  0
107109  2  0
108109  1  0
M  END
