x3110-x2649
     RDKit          3D

 36 37  0  0  0  0  0  0  0  0999 V2000
    7.9610    1.0970   23.2310 N   0  0  0  0  0  0  0  0  0  0  0  0
    8.6850    2.2550   23.7660 C   0  0  0  0  0  0  0  0  0  0  0  0
   10.1870    2.1590   23.5090 C   0  0  0  0  0  0  0  0  0  0  0  0
    7.7660    0.7020   21.8320 C   0  0  0  0  0  0  0  0  0  0  0  0
    8.4640    1.1980   20.9310 O   0  0  0  0  0  0  0  0  0  0  0  0
    6.6740   -0.2340   21.5990 C   0  0  2  0  0  0  0  0  0  0  0  0
    6.9670   -1.7040   21.6490 N   0  0  0  0  0  0  0  0  0  0  0  0
   11.0690    3.3820   23.3890 C   0  0  0  0  0  0  0  0  0  0  0  0
    6.1250    0.2870   20.2470 C   0  0  0  0  0  0  0  0  0  0  0  0
   11.8900    3.2590   22.4870 O   0  0  0  0  0  0  0  0  0  0  0  0
   10.9620    4.3680   24.1030 O   0  0  0  0  0  0  0  0  0  0  0  0
    6.1200   -2.9180   21.4030 C   0  0  0  0  0  0  0  0  0  0  0  0
    4.9690    1.0550   20.2240 C   0  0  0  0  0  0  0  0  0  0  0  0
    6.7830    0.0230   19.0660 C   0  0  0  0  0  0  0  0  0  0  0  0
    8.1510   -1.7560   22.3780 C   0  0  0  0  0  0  0  0  0  0  0  0
   12.2580    4.4580   21.9700 C   0  0  0  0  0  0  0  0  0  0  0  0
    4.8730   -3.0250   21.0470 O   0  0  0  0  0  0  0  0  0  0  0  0
    6.7510   -4.3040   21.6170 C   0  0  0  0  0  0  0  0  0  0  0  0
    4.1450    1.4170   21.4150 C   0  0  0  0  0  0  0  0  0  0  0  0
    6.3560    0.5210   17.7410 N   0  0  0  0  0  0  0  0  0  0  0  0
    4.4500    1.6150   18.9100 C   0  0  0  0  0  0  0  0  0  0  0  0
    9.3330   -2.0050   21.7630 C   0  0  0  0  0  0  0  0  0  0  0  0
    8.1770   -1.5220   23.8380 C   0  0  0  0  0  0  0  0  0  0  0  0
   13.3580    5.0650   22.8230 C   0  0  0  0  0  0  0  0  0  0  0  0
    8.1350   -4.5610   21.0000 C   0  0  0  0  0  0  0  0  0  0  0  0
    6.8800   -1.2570   24.4700 C   0  0  0  0  0  0  0  0  0  0  0  0
    5.1520    1.3430   17.7230 C   0  0  0  0  0  0  0  0  0  0  0  0
   10.6760   -2.0620   22.4800 C   0  0  0  0  0  0  0  0  0  0  0  0
    9.4700   -1.5610   24.5400 C   0  0  0  0  0  0  0  0  0  0  0  0
   10.7780   -1.8450   23.8570 C   0  0  0  0  0  0  0  0  0  0  0  0
   12.0790   -1.8830   24.5760 C   0  0  0  0  0  0  0  0  0  0  0  0
   12.6650   -0.5130   24.9330 C   0  0  0  0  0  0  0  0  0  0  0  0
   13.1910   -1.4510   23.7310 C   0  0  0  0  0  0  0  0  0  0  0  0
   12.5440   -3.0490   25.1070 C   0  0  0  0  0  0  0  0  0  0  0  0
   13.2950   -2.4130   22.6400 C   0  0  0  0  0  0  0  0  0  0  0  0
   13.4020   -1.6690   21.1080 Cl  0  0  0  0  0  0  0  0  0  0  0  0
  1  2  1  0
  2  3  1  0
  1  4  1  0
  4  5  2  0
  6  4  1  6
  6  7  1  0
  3  8  1  0
  6  9  1  0
  8 10  1  0
  8 11  2  0
  7 12  1  0
  9 13  2  0
  9 14  1  0
  7 15  1  0
 10 16  1  0
 12 17  2  0
 12 18  1  0
 13 19  1  0
 14 20  2  0
 13 21  1  0
 15 22  2  0
 15 23  1  0
 16 24  1  0
 18 25  1  0
 23 26  1  0
 20 27  1  0
 21 27  2  0
 22 28  1  0
 23 29  2  0
 28 30  2  0
 29 30  1  0
 30 31  1  0
 31 32  1  0
 31 33  1  0
 31 34  1  0
 33 35  1  0
 35 36  1  0
M  END
