x3113-x1478
     RDKit          3D

 38 41  0  0  0  0  0  0  0  0999 V2000
    6.6110   -1.7780   22.0090 C   0  0  2  0  0  0  0  0  0  0  0  0
    5.8150   -2.8670   21.0680 C   0  0  0  0  0  0  0  0  0  0  0  0
    4.7480   -2.8510   20.3570 O   0  0  0  0  0  0  0  0  0  0  0  0
    6.4640   -0.2920   21.7360 C   0  0  1  0  0  0  0  0  0  0  0  0
    8.1890   -1.8410   22.5080 C   0  0  0  0  0  0  0  0  0  0  0  0
    5.5650   -2.5000   22.9920 C   0  0  1  0  0  0  0  0  0  0  0  0
    6.0890   -4.2340   21.2680 C   0  0  2  0  0  0  0  0  0  0  0  0
    7.7340    0.6190   21.9660 C   0  0  0  0  0  0  0  0  0  0  0  0
    6.0930    0.1830   20.3570 C   0  0  0  0  0  0  0  0  0  0  0  0
    9.2790   -2.0670   21.6910 C   0  0  0  0  0  0  0  0  0  0  0  0
    8.5740   -1.6240   23.8390 C   0  0  0  0  0  0  0  0  0  0  0  0
    5.1410   -3.8460   22.5060 C   0  0  1  0  0  0  0  0  0  0  0  0
    5.9750   -2.4480   24.3280 C   0  0  0  0  0  0  0  0  0  0  0  0
    7.6140   -4.5230   21.1050 C   0  0  0  0  0  0  0  0  0  0  0  0
    8.0220    1.3120   23.2220 N   0  0  0  0  0  0  0  0  0  0  0  0
    8.5200    0.8030   21.0410 O   0  0  0  0  0  0  0  0  0  0  0  0
    4.9680    1.0220   20.2280 C   0  0  0  0  0  0  0  0  0  0  0  0
    6.8300   -0.1630   19.2220 C   0  0  0  0  0  0  0  0  0  0  0  0
   10.5660   -2.0740   22.2250 C   0  0  0  0  0  0  0  0  0  0  0  0
    9.8790   -1.6270   24.3510 C   0  0  0  0  0  0  0  0  0  0  0  0
    4.8670   -4.9390   23.5120 C   0  0  0  0  0  0  0  0  0  0  0  0
    6.1870   -3.6210   25.0660 C   0  0  0  0  0  0  0  0  0  0  0  0
    9.0780    2.3920   23.2960 C   0  0  0  0  0  0  0  0  0  0  0  0
    6.4660    0.3320   17.9070 N   0  0  0  0  0  0  0  0  0  0  0  0
    4.5930    1.5140   18.9700 C   0  0  0  0  0  0  0  0  0  0  0  0
   10.9130   -1.8790   23.4460 C   0  0  0  0  0  0  0  0  0  0  0  0
    5.9820   -4.9260   24.4200 N   0  0  0  0  0  0  0  0  0  0  0  0
   10.3420    1.7790   23.1670 C   0  0  0  0  0  0  0  0  0  0  0  0
   12.3740   -1.8880   23.9600 C   0  0  0  0  0  0  0  0  0  0  0  0
    5.3270    1.1780   17.8530 C   0  0  0  0  0  0  0  0  0  0  0  0
    7.2030   -5.5070   23.8260 C   0  0  0  0  0  0  0  0  0  0  0  0
   11.3670    2.6980   23.4670 C   0  0  0  0  0  0  0  0  0  0  0  0
   13.3350   -1.8500   22.9640 C   0  0  0  0  0  0  0  0  0  0  0  0
   12.5420   -2.9330   24.8650 C   0  0  0  0  0  0  0  0  0  0  0  0
   12.5880   -0.6400   24.8310 C   0  0  0  0  0  0  0  0  0  0  0  0
    6.6390   -6.6750   22.6120 Cl  0  0  0  0  0  0  0  0  0  0  0  0
   11.5540    3.5440   22.4030 O   0  0  0  0  0  0  0  0  0  0  0  0
   12.7390    4.3360   22.5530 C   0  0  0  0  0  0  0  0  0  0  0  0
  1  2  1  0
  2  3  2  0
  1  4  1  0
  1  5  1  1
  1  6  1  0
  2  7  1  0
  4  8  1  6
  4  9  1  0
  5 10  2  0
  5 11  1  0
  6 12  1  0
  7 12  1  0
  6 13  1  1
  7 14  1  1
  8 15  1  0
  8 16  2  0
  9 17  2  0
  9 18  1  0
 10 19  1  0
 11 20  2  0
 12 21  1  1
 13 22  2  0
 15 23  1  0
 18 24  2  0
 17 25  1  0
 19 26  2  0
 20 26  1  0
 21 27  1  0
 22 27  1  0
 23 28  1  0
 26 29  1  0
 24 30  1  0
 25 30  2  0
 27 31  1  0
 28 32  1  0
 29 33  1  0
 29 34  1  0
 29 35  1  0
 31 36  1  0
 32 37  1  0
 37 38  1  0
M  END
