x3110-x0820-x0786
     RDKit          3D

 53 58  0  0  0  0  0  0  0  0999 V2000
    7.8020    1.0330   23.4890 N   0  0  0  0  0  0  0  0  0  0  0  0
    8.6740    2.1120   23.7080 C   0  0  0  0  0  0  0  0  0  0  0  0
   10.2160    1.9550   23.6180 C   0  0  0  0  0  0  0  0  0  0  0  0
    7.6750    0.3890   22.1710 C   0  0  0  0  0  0  0  0  0  0  0  0
    8.4850    0.6750   21.2950 O   0  0  0  0  0  0  0  0  0  0  0  0
    6.4790   -0.6030   21.8930 C   0  0  2  0  0  0  0  0  0  0  0  0
    6.9070   -2.0330   21.9860 C   0  0  2  0  0  0  0  0  0  0  0  0
   11.0350    3.2320   23.4460 C   0  0  0  0  0  0  0  0  0  0  0  0
    5.9820   -0.0440   20.5020 C   0  0  0  0  0  0  0  0  0  0  0  0
   12.0340    3.2140   22.5160 O   0  0  0  0  0  0  0  0  0  0  0  0
   10.8340    4.2500   24.0970 O   0  0  0  0  0  0  0  0  0  0  0  0
    6.1230   -3.1440   21.2400 C   0  0  0  0  0  0  0  0  0  0  0  0
    6.7510   -3.5050   22.8460 C   0  0  2  0  0  0  0  0  0  0  0  0
    4.8420    0.7420   20.3030 C   0  0  0  0  0  0  0  0  0  0  0  0
    6.7620   -0.3290   19.3620 C   0  0  0  0  0  0  0  0  0  0  0  0
    8.4630   -1.9600   22.5690 C   0  0  0  0  0  0  0  0  0  0  0  0
   12.2810    4.5030   21.9360 C   0  0  0  0  0  0  0  0  0  0  0  0
    5.0020   -3.1580   20.6120 O   0  0  0  0  0  0  0  0  0  0  0  0
    6.8160   -4.3840   21.5220 C   0  0  2  0  0  0  0  0  0  0  0  0
    6.4720    0.1170   18.0970 N   0  0  0  0  0  0  0  0  0  0  0  0
    4.4560    1.2440   19.0720 C   0  0  0  0  0  0  0  0  0  0  0  0
    9.5320   -1.9040   21.7410 C   0  0  0  0  0  0  0  0  0  0  0  0
    8.6370   -1.9620   23.9480 C   0  0  0  0  0  0  0  0  0  0  0  0
    6.1560   -4.0700   24.1790 C   0  0  0  0  0  0  0  0  0  0  0  0
   13.5710    5.0960   22.4640 C   0  0  0  0  0  0  0  0  0  0  0  0
    8.2910   -4.5960   21.0790 C   0  0  0  0  0  0  0  0  0  0  0  0
    5.2770    0.9230   18.0040 C   0  0  0  0  0  0  0  0  0  0  0  0
   10.9730   -1.8540   22.2170 C   0  0  0  0  0  0  0  0  0  0  0  0
   10.0220   -1.9190   24.5660 C   0  0  0  0  0  0  0  0  0  0  0  0
    6.9420   -4.3910   25.3140 C   0  0  0  0  0  0  0  0  0  0  0  0
    4.7770   -4.3530   24.3290 C   0  0  0  0  0  0  0  0  0  0  0  0
   11.1750   -1.8670   23.5950 C   0  0  0  0  0  0  0  0  0  0  0  0
    6.2850   -4.8900   26.4690 C   0  0  0  0  0  0  0  0  0  0  0  0
    4.1860   -4.8220   25.4860 C   0  0  0  0  0  0  0  0  0  0  0  0
    8.3630   -4.2850   25.4280 C   0  0  0  0  0  0  0  0  0  0  0  0
    3.7750   -4.2490   23.2880 C   0  0  0  0  0  0  0  0  0  0  0  0
   12.4720   -1.8180   24.1520 C   0  0  0  0  0  0  0  0  0  0  0  0
    4.9320   -5.0850   26.5720 C   0  0  0  0  0  0  0  0  0  0  0  0
    6.9910   -5.3030   27.7600 C   0  0  0  0  0  0  0  0  0  0  0  0
    9.1440   -4.7000   26.7000 C   0  0  0  0  0  0  0  0  0  0  0  0
    3.8420   -5.6320   22.9200 C   0  0  0  0  0  0  0  0  0  0  0  0
   12.5020   -0.5310   24.9750 C   0  0  0  0  0  0  0  0  0  0  0  0
   13.5000   -1.7670   23.0360 C   0  0  0  0  0  0  0  0  0  0  0  0
   12.9160   -2.9390   25.1030 C   0  0  0  0  0  0  0  0  0  0  0  0
    8.3390   -5.2270   27.8710 C   0  0  0  0  0  0  0  0  0  0  0  0
    3.2680   -6.7010   23.8750 C   0  0  0  0  0  0  0  0  0  0  0  0
    4.0350   -7.6330   24.5340 O   0  0  0  0  0  0  0  0  0  0  0  0
    1.7920   -6.7190   24.0180 N   0  0  0  0  0  0  0  0  0  0  0  0
    1.0450   -5.8390   23.1490 C   0  0  0  0  0  0  0  0  0  0  0  0
    1.0620   -7.8740   24.3430 C   0  0  0  0  0  0  0  0  0  0  0  0
    0.0810   -5.1310   23.8680 C   0  0  0  0  0  0  0  0  0  0  0  0
    0.0150   -7.5740   25.2180 C   0  0  0  0  0  0  0  0  0  0  0  0
   -1.1190   -6.3000   24.5830 S   0  0  0  0  0  0  0  0  0  0  0  0
  1  2  1  0
  2  3  1  0
  1  4  1  0
  4  5  2  0
  6  4  1  6
  6  7  1  0
  3  8  1  0
  6  9  1  0
  8 10  1  0
  8 11  2  0
  7 12  1  0
  7 13  1  0
  9 14  2  0
  9 15  1  0
  7 16  1  6
 10 17  1  0
 12 18  2  0
 12 19  1  0
 13 19  1  0
 15 20  2  0
 14 21  1  0
 16 22  2  0
 16 23  1  0
 13 24  1  6
 17 25  1  0
 19 26  1  6
 20 27  1  0
 21 27  2  0
 22 28  1  0
 23 29  2  0
 24 30  2  0
 24 31  1  0
 28 32  2  0
 29 32  1  0
 30 33  1  0
 31 34  2  0
 30 35  1  0
 31 36  1  0
 32 37  1  0
 33 38  2  0
 34 38  1  0
 33 39  1  0
 35 40  2  0
 36 41  1  0
 37 42  1  0
 37 43  1  0
 37 44  1  0
 39 45  2  0
 40 45  1  0
 41 46  1  0
 46 47  2  0
 46 48  1  0
 48 49  1  0
 48 50  1  0
 49 51  1  0
 50 52  1  0
 51 53  1  0
 52 53  1  0
M  END
