x3110-x3113-x0786
     RDKit          3D

 46 49  0  0  0  0  0  0  0  0999 V2000
    7.9010    1.2160   23.3000 N   0  0  0  0  0  0  0  0  0  0  0  0
    8.7580    2.3930   23.6230 C   0  0  0  0  0  0  0  0  0  0  0  0
   10.2820    2.0880   23.5710 C   0  0  0  0  0  0  0  0  0  0  0  0
    7.7580    0.7770   21.9180 C   0  0  0  0  0  0  0  0  0  0  0  0
    8.5140    1.2250   21.0330 O   0  0  0  0  0  0  0  0  0  0  0  0
    6.5760   -0.2120   21.5990 C   0  0  2  0  0  0  0  0  0  0  0  0
    6.9360   -1.5300   21.7120 N   0  0  0  0  0  0  0  0  0  0  0  0
   11.0880    3.2470   23.3640 C   0  0  0  0  0  0  0  0  0  0  0  0
    6.0860    0.2800   20.3120 C   0  0  0  0  0  0  0  0  0  0  0  0
   11.9780    3.1700   22.5250 O   0  0  0  0  0  0  0  0  0  0  0  0
   10.7750    4.2100   24.0720 O   0  0  0  0  0  0  0  0  0  0  0  0
    6.1140   -2.7350   21.4680 C   0  0  0  0  0  0  0  0  0  0  0  0
    4.8640    1.1660   20.1390 C   0  0  0  0  0  0  0  0  0  0  0  0
    6.8260   -0.0510   18.9960 C   0  0  0  0  0  0  0  0  0  0  0  0
    8.1970   -1.6300   22.4020 C   0  0  0  0  0  0  0  0  0  0  0  0
   12.3240    4.4430   21.9540 C   0  0  0  0  0  0  0  0  0  0  0  0
    4.8640   -2.9910   21.0380 O   0  0  0  0  0  0  0  0  0  0  0  0
    6.8110   -4.0280   21.8090 C   0  0  2  0  0  0  0  0  0  0  0  0
    6.3210    0.5090   17.7390 N   0  0  0  0  0  0  0  0  0  0  0  0
    4.4580    1.6640   18.7870 C   0  0  0  0  0  0  0  0  0  0  0  0
    9.3240   -2.0330   21.7270 C   0  0  0  0  0  0  0  0  0  0  0  0
    8.4050   -1.3240   23.7400 C   0  0  0  0  0  0  0  0  0  0  0  0
   13.3880    5.1640   22.8730 C   0  0  0  0  0  0  0  0  0  0  0  0
    6.8300   -4.9280   20.5670 C   0  0  0  0  0  0  0  0  0  0  0  0
    5.2350    1.2850   17.7330 C   0  0  0  0  0  0  0  0  0  0  0  0
   10.5850   -2.1100   22.3080 C   0  0  0  0  0  0  0  0  0  0  0  0
    9.7240   -1.3780   24.4510 C   0  0  0  0  0  0  0  0  0  0  0  0
    5.9700   -4.4540   23.0410 C   0  0  0  0  0  0  0  0  0  0  0  0
   10.7920   -1.7520   23.7450 C   0  0  0  0  0  0  0  0  0  0  0  0
    5.1030   -5.5500   23.0320 C   0  0  0  0  0  0  0  0  0  0  0  0
    6.0790   -3.6850   24.2000 C   0  0  0  0  0  0  0  0  0  0  0  0
   12.2280   -1.8190   24.2840 C   0  0  0  0  0  0  0  0  0  0  0  0
    4.2880   -5.8990   24.2430 C   0  0  0  0  0  0  0  0  0  0  0  0
    5.3080   -4.0030   25.3760 C   0  0  0  0  0  0  0  0  0  0  0  0
   12.6770   -0.5270   24.6920 C   0  0  0  0  0  0  0  0  0  0  0  0
   13.2500   -1.2860   23.3270 C   0  0  0  0  0  0  0  0  0  0  0  0
   12.7540   -3.0520   24.9820 C   0  0  0  0  0  0  0  0  0  0  0  0
    3.3540   -7.0420   24.2740 C   0  0  0  0  0  0  0  0  0  0  0  0
    4.4690   -5.0170   25.4360 C   0  0  0  0  0  0  0  0  0  0  0  0
    3.7630   -8.0920   24.7530 O   0  0  0  0  0  0  0  0  0  0  0  0
    2.0870   -6.9100   23.8070 N   0  0  0  0  0  0  0  0  0  0  0  0
    1.6120   -5.5650   23.4060 C   0  0  0  0  0  0  0  0  0  0  0  0
    1.0860   -7.9780   23.9030 C   0  0  0  0  0  0  0  0  0  0  0  0
    0.7890   -5.0420   24.4020 C   0  0  0  0  0  0  0  0  0  0  0  0
   -0.0460   -7.6170   24.6410 C   0  0  0  0  0  0  0  0  0  0  0  0
   -0.6950   -5.9730   24.2060 S   0  0  0  0  0  0  0  0  0  0  0  0
  1  2  1  0
  2  3  1  0
  1  4  1  0
  4  5  2  0
  6  4  1  6
  6  7  1  0
  3  8  1  0
  6  9  1  0
  8 10  1  0
  8 11  2  0
  7 12  1  0
  9 13  2  0
  9 14  1  0
  7 15  1  0
 10 16  1  0
 12 17  2  0
 12 18  1  0
 14 19  2  0
 13 20  1  0
 15 21  2  0
 15 22  1  0
 16 23  1  0
 18 24  1  6
 19 25  1  0
 20 25  2  0
 21 26  1  0
 22 27  2  0
 18 28  1  0
 26 29  2  0
 27 29  1  0
 28 30  2  0
 28 31  1  0
 29 32  1  0
 30 33  1  0
 31 34  2  0
 32 35  1  0
 32 36  1  0
 32 37  1  0
 33 38  1  0
 33 39  2  0
 34 39  1  0
 38 40  2  0
 38 41  1  0
 41 42  1  0
 41 43  1  0
 42 44  1  0
 43 45  1  0
 44 46  1  0
 45 46  1  0
M  END
