x3113-x3115-x1311-x0540-x1119-x3110-x0786-x2776-x0426-x2929-x0731-x0946
     RDKit          3D

119132  0  0  0  0  0  0  0  0999 V2000
    7.6700    1.5450   23.0340 N   0  0  0  0  0  0  0  0  0  0  0  0
    7.6020    0.8800   21.7040 C   0  0  0  0  0  0  0  0  0  0  0  0
    8.3620    1.2670   20.7970 O   0  0  0  0  0  0  0  0  0  0  0  0
    7.7720    2.9720   23.3990 C   0  0  0  0  0  0  0  0  0  0  0  0
    6.4890   -0.3110   21.5950 C   0  0  2  0  0  0  0  0  0  0  0  0
    9.0200    3.7890   23.4390 C   0  0  0  0  0  0  0  0  0  0  0  0
    6.5560    3.5940   23.7680 C   0  0  0  0  0  0  0  0  0  0  0  0
    6.9120   -1.7810   21.8120 N   0  0  0  0  0  0  0  0  0  0  0  0
    5.7250    0.0430   20.2740 C   0  0  0  0  0  0  0  0  0  0  0  0
    8.8250    5.2120   23.8880 C   0  0  0  0  0  0  0  0  0  0  0  0
    6.4110    4.9310   24.1710 C   0  0  0  0  0  0  0  0  0  0  0  0
   10.3950    3.2670   23.0790 C   0  0  0  0  0  0  0  0  0  0  0  0
    6.0660   -3.0340   21.6930 C   0  0  0  0  0  0  0  0  0  0  0  0
    5.0180    5.5600   24.5720 C   0  0  0  0  0  0  0  0  0  0  0  0
    9.9770    6.0860   23.9840 O   0  0  0  0  0  0  0  0  0  0  0  0
    4.4120    0.6750   20.1240 C   0  0  0  0  0  0  0  0  0  0  0  0
    6.4310   -0.3000   19.0760 C   0  0  0  0  0  0  0  0  0  0  0  0
    8.2740   -1.8930   22.4420 C   0  0  0  0  0  0  0  0  0  0  0  0
    7.5750    5.7400   24.2220 C   0  0  0  0  0  0  0  0  0  0  0  0
   11.4090    4.0510   22.4300 C   0  0  0  0  0  0  0  0  0  0  0  0
   10.8200    1.8160   23.4100 C   0  0  0  0  0  0  0  0  0  0  0  0
    4.8860   -3.0500   21.0860 O   0  0  0  0  0  0  0  0  0  0  0  0
    6.3710   -4.4770   22.3010 C   0  0  1  0  0  0  0  0  0  0  0  0
    7.4540    7.0830   24.6150 O   0  0  0  0  0  0  0  0  0  0  0  0
    3.4670    1.1230   21.2930 C   0  0  0  0  0  0  0  0  0  0  0  0
    5.9880   -0.0800   17.7980 N   0  0  0  0  0  0  0  0  0  0  0  0
    3.9290    0.9050   18.8200 C   0  0  0  0  0  0  0  0  0  0  0  0
    9.5590   -2.3880   21.6990 C   0  0  0  0  0  0  0  0  0  0  0  0
    8.4950   -1.5450   23.8260 C   0  0  0  0  0  0  0  0  0  0  0  0
   12.0870    1.3570   23.0830 C   0  0  0  0  0  0  0  0  0  0  0  0
   12.7320    3.6540   22.0930 C   0  0  0  0  0  0  0  0  0  0  0  0
   13.6980    4.6030   21.4440 C   0  0  2  0  0  0  0  0  0  0  0  0
    6.6300   -5.3490   20.9270 C   0  0  0  0  0  0  0  0  0  0  0  0
    7.6000    8.2100   23.7390 C   0  0  0  0  0  0  0  0  0  0  0  0
    3.2740    2.5330   21.4500 C   0  0  0  0  0  0  0  0  0  0  0  0
    4.7760    0.5100   17.6360 C   0  0  0  0  0  0  0  0  0  0  0  0
   10.8200   -2.4830   22.3700 C   0  0  0  0  0  0  0  0  0  0  0  0
    9.8630   -1.6540   24.5500 C   0  0  0  0  0  0  0  0  0  0  0  0
   13.0350    2.1770   22.4710 C   0  0  0  0  0  0  0  0  0  0  0  0
    7.5300   -4.9750   23.2890 C   0  0  0  0  0  0  0  0  0  0  0  0
    5.0210   -4.9190   23.1790 C   0  0  2  0  0  0  0  0  0  0  0  0
   13.3770    5.0130   20.0120 C   0  0  0  0  0  0  0  0  0  0  0  0
    1.9140    3.0230   21.8970 N   0  0  0  0  0  0  0  0  0  0  0  0
   15.2460    4.3990   21.6900 C   0  0  0  0  0  0  0  0  0  0  0  0
   11.0300   -2.1050   23.8910 C   0  0  0  0  0  0  0  0  0  0  0  0
    8.5490   -5.9560   23.0220 C   0  0  0  0  0  0  0  0  0  0  0  0
    7.6440   -4.4900   24.6530 C   0  0  0  0  0  0  0  0  0  0  0  0
    3.8180   -5.6880   22.6000 C   0  0  1  0  0  0  0  0  0  0  0  0
    4.3890   -3.8040   24.1440 C   0  0  0  0  0  0  0  0  0  0  0  0
   12.4010   -2.2480   24.5770 C   0  0  0  0  0  0  0  0  0  0  0  0
    1.7880    3.7780   23.1640 C   0  0  2  0  0  0  0  0  0  0  0  0
   15.7280    4.9230   22.9350 C   0  0  0  0  0  0  0  0  0  0  0  0
    9.5120   -6.3970   23.9480 C   0  0  0  0  0  0  0  0  0  0  0  0
    8.6160   -4.9340   25.5890 C   0  0  0  0  0  0  0  0  0  0  0  0
    3.8240   -7.1180   22.6670 C   0  0  0  0  0  0  0  0  0  0  0  0
    2.6310   -6.5440   24.0270 S   0  0  0  0  0  0  0  0  0  0  0  0
    4.1670   -3.8500   25.6180 C   0  0  2  0  0  0  0  0  0  0  0  0
   12.8430   -1.0560   25.4860 C   0  0  0  0  0  0  0  0  0  0  0  0
   13.5840   -2.5500   23.6370 C   0  0  0  0  0  0  0  0  0  0  0  0
   12.2610   -3.4820   25.5190 C   0  0  0  0  0  0  0  0  0  0  0  0
    1.9230    2.9460   24.2510 N   0  0  0  0  0  0  0  0  0  0  0  0
    0.7360    4.7010   23.1230 N   0  0  0  0  0  0  0  0  0  0  0  0
    2.4160   -6.1560   25.6530 O   0  0  0  0  0  0  0  0  0  0  0  0
    3.8540   -5.5200   26.2980 S   0  0  0  0  0  0  0  0  0  0  0  0
   17.0890    4.6740   23.3300 C   0  0  0  0  0  0  0  0  0  0  0  0
    9.5590   -5.8950   25.2380 C   0  0  0  0  0  0  0  0  0  0  0  0
    2.1520   -8.0190   23.0140 C   0  0  0  0  0  0  0  0  0  0  0  0
    2.8790   -3.3100   26.3560 C   0  0  0  0  0  0  0  0  0  0  0  0
    1.7340   -7.7880   24.7890 N   0  0  0  0  0  0  0  0  0  0  0  0
    2.6310   -7.2210   22.2130 C   0  0  0  0  0  0  0  0  0  0  0  0
    2.1430    3.3520   25.3500 O   0  0  0  0  0  0  0  0  0  0  0  0
    5.0060   -6.4110   26.2600 O   0  0  0  0  0  0  0  0  0  0  0  0
   18.0520    5.7260   23.4490 C   0  0  0  0  0  0  0  0  0  0  0  0
   -0.5860    4.4380   23.6730 C   0  0  1  0  0  0  0  0  0  0  0  0
    0.2420   -7.4670   24.9840 C   0  0  0  0  0  0  0  0  0  0  0  0
    2.2690   -8.8530   25.6960 C   0  0  0  0  0  0  0  0  0  0  0  0
    1.7210   -2.8240   27.0200 C   0  0  0  0  0  0  0  0  0  0  0  0
    3.4570   -1.8390   26.1590 C   0  0  0  0  0  0  0  0  0  0  0  0
   19.3450    5.4940   24.2370 C   0  0  0  0  0  0  0  0  0  0  0  0
   -1.0330    5.5020   24.5920 C   0  0  1  0  0  0  0  0  0  0  0  0
   -1.4360    4.2040   22.5390 C   0  0  0  0  0  0  0  0  0  0  0  0
   -0.6120   -8.7590   24.8990 C   0  0  0  0  0  0  0  0  0  0  0  0
    1.4660   -9.2850   26.9050 C   0  0  0  0  0  0  0  0  0  0  0  0
    1.1420   -1.5630   27.4160 C   0  0  0  0  0  0  0  0  0  0  0  0
    2.9690   -0.5550   26.5140 C   0  0  0  0  0  0  0  0  0  0  0  0
   20.6750    5.8040   23.6850 N   0  0  0  0  0  0  0  0  0  0  0  0
   -2.3370    5.2400   25.1440 C   0  0  0  0  0  0  0  0  0  0  0  0
   -2.9330    4.0250   22.9610 C   0  0  0  0  0  0  0  0  0  0  0  0
   -0.2220   -9.7390   26.3930 S   0  0  0  0  0  0  0  0  0  0  0  0
    1.7860   -0.4260   27.1530 C   0  0  0  0  0  0  0  0  0  0  0  0
   -0.0700    5.8280   25.7570 C   0  0  0  0  0  0  0  0  0  0  0  0
    1.2120    0.9150   27.5610 C   0  0  0  0  0  0  0  0  0  0  0  0
   -3.4280    4.9320   24.1090 C   0  0  0  0  0  0  0  0  0  0  0  0
   21.8510    4.9890   23.8150 C   0  0  0  0  0  0  0  0  0  0  0  0
   -0.4900    6.8360   26.5970 F   0  0  0  0  0  0  0  0  0  0  0  0
   22.7250    4.8380   22.7310 C   0  0  0  0  0  0  0  0  0  0  0  0
   22.1770    4.3070   24.9990 C   0  0  0  0  0  0  0  0  0  0  0  0
   23.8940    4.0150   22.8340 C   0  0  0  0  0  0  0  0  0  0  0  0
   23.3030    3.5110   25.0920 C   0  0  0  0  0  0  0  0  0  0  0  0
   24.2320    3.3160   23.9970 C   0  0  0  0  0  0  0  0  0  0  0  0
   25.4220    2.4250   24.2000 C   0  0  2  0  0  0  0  0  0  0  0  0
   25.0200    0.9140   23.7860 C   0  0  2  0  0  0  0  0  0  0  0  0
   26.0400    2.1070   25.5330 C   0  0  1  0  0  0  0  0  0  0  0  0
   24.1480    0.8550   22.7450 O   0  0  0  0  0  0  0  0  0  0  0  0
   26.5040    3.2110   26.3790 C   0  0  0  0  0  0  0  0  0  0  0  0
   24.3710    0.4630   25.0570 N   0  0  0  0  0  0  0  0  0  0  0  0
   25.3680    0.8920   26.0940 C   0  0  0  0  0  0  0  0  0  0  0  0
   23.9530   -0.9340   25.0900 C   0  0  0  0  0  0  0  0  0  0  0  0
   26.0930    3.3360   27.7000 N   0  0  0  0  0  0  0  0  0  0  0  0
   27.3820    4.1960   25.9150 C   0  0  0  0  0  0  0  0  0  0  0  0
   26.4960    4.3420   28.5180 C   0  0  0  0  0  0  0  0  0  0  0  0
   27.8320    5.2700   26.7330 C   0  0  0  0  0  0  0  0  0  0  0  0
   22.4330   -1.1040   25.0630 C   0  0  0  0  0  0  0  0  0  0  0  0
   27.3820    5.3390   28.0590 C   0  0  0  0  0  0  0  0  0  0  0  0
   21.6210   -1.1910   26.1960 C   0  0  0  0  0  0  0  0  0  0  0  0
   21.8290   -1.1850   23.7700 C   0  0  0  0  0  0  0  0  0  0  0  0
   20.2690   -1.3480   26.0630 N   0  0  0  0  0  0  0  0  0  0  0  0
   20.4400   -1.3470   23.6640 C   0  0  0  0  0  0  0  0  0  0  0  0
   19.6780   -1.4270   24.8240 C   0  0  0  0  0  0  0  0  0  0  0  0
  1  2  1  0
  2  3  2  0
  1  4  1  0
  5  2  1  6
  4  6  1  0
  4  7  2  0
  5  8  1  0
  5  9  1  0
  6 10  2  0
  7 11  1  0
  6 12  1  0
  8 13  1  0
 11 14  1  0
 10 15  1  0
  9 16  1  0
  9 17  2  0
  8 18  1  0
 10 19  1  0
 11 19  2  0
 12 20  2  0
 12 21  1  0
 13 22  2  0
 23 13  1  0
 19 24  1  0
 16 25  1  0
 17 26  1  0
 16 27  2  0
 18 28  2  0
 18 29  1  0
 21 30  2  0
 20 31  1  0
 31 32  1  0
 23 33  1  6
 24 34  1  0
 25 35  1  0
 26 36  2  0
 27 36  1  0
 28 37  1  0
 29 38  2  0
 30 39  1  0
 31 39  2  0
 23 40  1  0
 23 41  1  0
 32 42  1  6
 35 43  1  0
 32 44  1  0
 37 45  2  0
 38 45  1  0
 40 46  2  0
 40 47  1  0
 41 48  1  0
 41 49  1  6
 45 50  1  0
 51 43  1  6
 44 52  1  0
 46 53  1  0
 47 54  2  0
 48 55  1  6
 48 56  1  0
 49 57  1  0
 50 58  1  0
 50 59  1  0
 50 60  1  0
 51 61  1  0
 51 62  1  0
 56 63  1  0
 57 64  1  0
 64 63  1  6
 52 65  1  0
 53 66  2  0
 54 66  1  0
 56 67  2  0
 57 68  1  6
 56 69  1  0
 55 70  2  0
 67 70  1  0
 61 71  2  0
 64 72  2  0
 65 73  1  0
 74 62  1  6
 69 75  1  0
 69 76  1  0
 68 77  2  0
 68 78  1  0
 73 79  1  0
 74 80  1  0
 74 81  1  0
 75 82  1  0
 76 83  1  0
 77 84  1  0
 78 85  2  0
 79 86  1  0
 80 87  1  0
 81 88  1  0
 82 89  1  0
 83 89  1  0
 84 90  2  0
 85 90  1  0
 80 91  1  1
 90 92  1  0
 87 93  1  0
 88 93  1  0
 86 94  1  0
 91 95  1  0
 94 96  2  0
 94 97  1  0
 96 98  1  0
 97 99  2  0
 98100  2  0
 99100  1  0
101100  1  1
101102  1  0
101103  1  0
102104  1  6
103105  1  1
102106  1  0
103107  1  0
106107  1  0
106108  1  0
105109  2  0
105110  1  0
109111  1  0
110112  2  0
108113  1  0
111114  2  0
112114  1  0
113115  2  0
113116  1  0
115117  1  0
116118  2  0
117119  2  0
118119  1  0
M  END
