x3117-x2705-x0995-x1458
     RDKit          3D

 48 52  0  0  0  0  0  0  0  0999 V2000
    7.0050   -1.4790   21.8040 C   0  0  1  0  0  0  0  0  0  0  0  0
    6.1210   -2.8280   21.2980 C   0  0  0  0  0  0  0  0  0  0  0  0
    4.9130   -3.0150   20.7770 O   0  0  0  0  0  0  0  0  0  0  0  0
    6.6470    0.0090   21.6330 C   0  0  1  0  0  0  0  0  0  0  0  0
    6.4600   -2.1310   23.0420 C   0  0  0  0  0  0  0  0  0  0  0  0
    8.4330   -1.4340   22.5400 C   0  0  0  0  0  0  0  0  0  0  0  0
    7.6310    1.0570   21.7860 C   0  0  0  0  0  0  0  0  0  0  0  0
    6.0910    0.4100   20.3160 C   0  0  0  0  0  0  0  0  0  0  0  0
    8.5710   -1.1470   23.8930 N   0  0  0  0  0  0  0  0  0  0  0  0
    9.8150   -1.6630   21.9230 C   0  0  0  0  0  0  0  0  0  0  0  0
    6.8110   -4.0530   21.6960 C   0  0  2  0  0  0  0  0  0  0  0  0
    7.3550   -3.4140   22.9120 C   0  0  2  0  0  0  0  0  0  0  0  0
    8.0250   -4.5010   20.9300 C   0  0  0  0  0  0  0  0  0  0  0  0
    7.3720    2.0600   22.8510 N   0  0  0  0  0  0  0  0  0  0  0  0
    8.6230    1.1590   21.0470 O   0  0  0  0  0  0  0  0  0  0  0  0
    4.9700    1.1930   20.2200 C   0  0  0  0  0  0  0  0  0  0  0  0
    6.7210    0.0210   19.1140 C   0  0  0  0  0  0  0  0  0  0  0  0
    9.9810   -1.1540   24.2290 N   0  0  0  0  0  0  0  0  0  0  0  0
   10.7570   -1.4530   23.0650 C   0  0  0  0  0  0  0  0  0  0  0  0
    7.3480   -4.1250   23.9720 C   0  0  0  0  0  0  0  0  0  0  0  0
    5.7860   -5.1550   22.0630 C   0  0  0  0  0  0  0  0  0  0  0  0
   12.2760   -1.4950   23.1790 C   0  0  0  0  0  0  0  0  0  0  0  0
    6.3700    0.3280   17.8470 N   0  0  0  0  0  0  0  0  0  0  0  0
    4.4720    1.6090   18.8740 C   0  0  0  0  0  0  0  0  0  0  0  0
    8.1040    3.3040   22.9500 C   0  0  0  0  0  0  0  0  0  0  0  0
    6.1560   -4.7050   24.3460 C   0  0  2  0  0  0  0  0  0  0  0  0
    5.2210   -4.9330   23.3220 C   0  0  0  0  0  0  0  0  0  0  0  0
   12.7140   -0.2100   23.8920 C   0  0  0  0  0  0  0  0  0  0  0  0
   12.6070   -2.7730   23.8950 C   0  0  0  0  0  0  0  0  0  0  0  0
   12.7850   -1.7220   21.7950 C   0  0  0  0  0  0  0  0  0  0  0  0
    3.3780    2.3810   18.8080 N   0  0  0  0  0  0  0  0  0  0  0  0
    5.6090   -3.8320   25.4830 C   0  0  0  0  0  0  0  0  0  0  0  0
    5.1840    1.1700   17.7850 C   0  0  0  0  0  0  0  0  0  0  0  0
    9.3900    3.3160   23.4970 C   0  0  0  0  0  0  0  0  0  0  0  0
    7.4970    4.4800   22.4900 C   0  0  0  0  0  0  0  0  0  0  0  0
   10.1020    2.0330   24.0050 C   0  0  0  0  0  0  0  0  0  0  0  0
    6.0880    4.4040   21.8890 C   0  0  0  0  0  0  0  0  0  0  0  0
   13.3590   -2.6580   25.1660 C   0  0  0  0  0  0  0  0  0  0  0  0
    6.3760   -3.7660   26.7310 N   0  0  0  0  0  0  0  0  0  0  0  0
    4.5560   -3.2040   25.3850 O   0  0  0  0  0  0  0  0  0  0  0  0
   10.1130    4.5060   23.6120 C   0  0  0  0  0  0  0  0  0  0  0  0
    8.2330    5.8170   22.5870 C   0  0  0  0  0  0  0  0  0  0  0  0
    9.1200    1.5130   24.9260 C   0  0  0  0  0  0  0  0  0  0  0  0
    6.1200   -4.8210   27.7300 C   0  0  0  0  0  0  0  0  0  0  0  0
    6.5980   -2.4510   27.1930 C   0  0  0  0  0  0  0  0  0  0  0  0
    9.6580    5.9030   23.1880 C   0  0  0  0  0  0  0  0  0  0  0  0
    7.2420   -4.8000   28.7420 C   0  0  0  0  0  0  0  0  0  0  0  0
    6.0740   -6.0680   27.1340 C   0  0  0  0  0  0  0  0  0  0  0  0
  1  2  1  0
  2  3  2  0
  1  4  1  0
  1  5  1  0
  1  6  1  1
  4  7  1  6
  4  8  1  0
  6  9  2  0
  6 10  1  0
  2 11  1  0
 12  5  1  1
 11 12  1  0
 11 13  1  6
  7 14  1  0
  7 15  2  0
  8 16  2  0
  8 17  1  0
  9 18  1  0
 10 19  2  0
 18 19  1  0
 12 20  1  0
 11 21  1  0
 19 22  1  0
 17 23  2  0
 16 24  1  0
 14 25  1  0
 20 26  1  0
 21 27  1  0
 26 27  1  0
 22 28  1  0
 22 29  1  0
 22 30  1  0
 24 31  1  0
 26 32  1  1
 23 33  1  0
 24 33  2  0
 25 34  2  0
 25 35  1  0
 34 36  1  0
 35 37  1  0
 29 38  1  0
 32 39  1  0
 32 40  2  0
 34 41  1  0
 35 42  2  0
 36 43  1  0
 39 44  1  0
 39 45  1  0
 41 46  2  0
 42 46  1  0
 44 47  1  0
 44 48  1  0
M  END
