x3113-x1348-x1380
     RDKit          3D

 48 52  0  0  0  0  0  0  0  0999 V2000
    6.9610   -1.5970   22.0920 N   0  0  0  0  0  0  0  0  0  0  0  0
    6.1210   -2.7970   21.7440 C   0  0  0  0  0  0  0  0  0  0  0  0
    4.8090   -3.0690   21.4380 O   0  0  0  0  0  0  0  0  0  0  0  0
    6.7480   -0.1320   21.7150 C   0  0  1  0  0  0  0  0  0  0  0  0
    8.3560   -1.7760   22.6320 C   0  0  0  0  0  0  0  0  0  0  0  0
    7.0320   -3.9660   21.6740 C   0  0  2  0  0  0  0  0  0  0  0  0
    7.8680    0.7890   21.8890 C   0  0  0  0  0  0  0  0  0  0  0  0
    6.2370    0.2450   20.3540 C   0  0  0  0  0  0  0  0  0  0  0  0
    9.4760   -1.2970   21.9500 C   0  0  0  0  0  0  0  0  0  0  0  0
    8.6730   -2.3970   23.8240 C   0  0  0  0  0  0  0  0  0  0  0  0
    6.7370   -4.3510   20.2040 C   0  0  0  0  0  0  0  0  0  0  0  0
    8.1450    1.2600   23.1410 N   0  0  0  0  0  0  0  0  0  0  0  0
    8.5510    1.1890   20.9400 O   0  0  0  0  0  0  0  0  0  0  0  0
    5.0940    1.0600   20.2810 C   0  0  0  0  0  0  0  0  0  0  0  0
    6.8250   -0.1330   19.1550 C   0  0  0  0  0  0  0  0  0  0  0  0
   10.7830   -1.4090   22.4450 C   0  0  0  0  0  0  0  0  0  0  0  0
    9.9630   -2.5360   24.3480 C   0  0  0  0  0  0  0  0  0  0  0  0
    7.0590   -4.9750   22.6970 N   0  0  0  0  0  0  0  0  0  0  0  0
    9.1270    2.2160   23.2380 C   0  0  0  0  0  0  0  0  0  0  0  0
    6.3990    0.2240   17.9240 N   0  0  0  0  0  0  0  0  0  0  0  0
    4.5920    1.4730   19.0390 C   0  0  0  0  0  0  0  0  0  0  0  0
   11.0160   -1.9810   23.5870 C   0  0  0  0  0  0  0  0  0  0  0  0
    6.0950   -5.4730   23.7590 C   0  0  1  0  0  0  0  0  0  0  0  0
    6.8540   -6.0370   21.7620 C   0  0  0  0  0  0  0  0  0  0  0  0
   10.3450    1.8760   23.8080 C   0  0  0  0  0  0  0  0  0  0  0  0
   12.4880   -2.0100   24.0850 C   0  0  0  0  0  0  0  0  0  0  0  0
    5.2090    1.0870   17.8590 C   0  0  0  0  0  0  0  0  0  0  0  0
    6.1410   -4.8660   25.1350 C   0  0  2  0  0  0  0  0  0  0  0  0
    4.7510   -5.5130   23.3640 C   0  0  1  0  0  0  0  0  0  0  0  0
    5.2640   -6.4990   21.9640 S   0  0  0  0  0  0  0  0  0  0  0  0
   11.4560    2.5330   23.2240 C   0  0  0  0  0  0  0  0  0  0  0  0
   13.3690   -2.2630   23.0630 C   0  0  0  0  0  0  0  0  0  0  0  0
   12.8310   -3.0370   25.1750 C   0  0  0  0  0  0  0  0  0  0  0  0
   12.7250   -0.7250   24.6590 C   0  0  0  0  0  0  0  0  0  0  0  0
    7.4390   -4.9100   25.5800 O   0  0  0  0  0  0  0  0  0  0  0  0
    3.9960   -6.4270   24.1100 C   0  0  0  0  0  0  0  0  0  0  0  0
    5.4000   -5.7500   26.1590 C   0  0  0  0  0  0  0  0  0  0  0  0
   11.5140    3.8900   23.4350 O   0  0  0  0  0  0  0  0  0  0  0  0
    4.2920   -6.5630   25.4670 C   0  0  0  0  0  0  0  0  0  0  0  0
    7.7550   -4.0480   26.6950 C   0  0  2  0  0  0  0  0  0  0  0  0
   12.7060    4.4900   22.9130 C   0  0  0  0  0  0  0  0  0  0  0  0
    8.1760   -4.9050   27.9080 C   0  0  0  0  0  0  0  0  0  0  0  0
    6.6370   -3.1730   27.0220 N   0  0  0  0  0  0  0  0  0  0  0  0
    6.0710   -2.3870   26.0750 C   0  0  0  0  0  0  0  0  0  0  0  0
    7.1000   -5.5220   28.5460 C   0  0  0  0  0  0  0  0  0  0  0  0
    5.9650   -3.3200   28.2530 C   0  0  0  0  0  0  0  0  0  0  0  0
    4.7420   -2.2590   25.7590 O   0  0  0  0  0  0  0  0  0  0  0  0
    6.0610   -4.6980   28.9410 C   0  0  0  0  0  0  0  0  0  0  0  0
  1  2  1  0
  2  3  2  0
  1  4  1  0
  1  5  1  0
  2  6  1  0
  4  7  1  6
  4  8  1  0
  5  9  2  0
  5 10  1  0
  6 11  1  6
  7 12  1  0
  7 13  2  0
  8 14  2  0
  8 15  1  0
  9 16  1  0
 10 17  2  0
  6 18  1  0
 12 19  1  0
 15 20  2  0
 14 21  1  0
 16 22  2  0
 17 22  1  0
 23 18  1  6
 18 24  1  0
 19 25  1  0
 22 26  1  0
 20 27  1  0
 21 27  2  0
 23 28  1  0
 23 29  1  0
 24 30  2  0
 29 30  1  0
 25 31  1  0
 26 32  1  0
 26 33  1  0
 26 34  1  0
 28 35  1  1
 29 36  1  1
 28 37  1  0
 31 38  1  0
 36 39  2  0
 37 39  1  0
 40 35  1  6
 38 41  1  0
 40 42  1  0
 40 43  1  0
 43 44  1  0
 42 45  1  0
 43 46  1  0
 44 47  2  0
 45 48  1  0
 46 48  1  0
M  END
