x3110-x0540-x0769
     RDKit          3D

 62 67  0  0  0  0  0  0  0  0999 V2000
    7.9420    0.2900   22.8760 N   0  0  0  0  0  0  0  0  0  0  0  0
    8.8640    1.3630   22.4870 C   0  0  0  0  0  0  0  0  0  0  0  0
   10.1350    1.6000   23.3450 C   0  0  0  0  0  0  0  0  0  0  0  0
    7.4490   -0.3100   21.6220 C   0  0  0  0  0  0  0  0  0  0  0  0
    8.0320   -0.1120   20.5680 O   0  0  0  0  0  0  0  0  0  0  0  0
    6.1560   -1.1670   21.5900 C   0  0  2  0  0  0  0  0  0  0  0  0
    6.5660   -2.6340   21.9010 C   0  0  2  0  0  0  0  0  0  0  0  0
   10.5670    2.9220   23.1380 C   0  0  0  0  0  0  0  0  0  0  0  0
    5.5780   -0.3130   20.2640 C   0  0  0  0  0  0  0  0  0  0  0  0
   11.7630    3.0260   22.4180 O   0  0  0  0  0  0  0  0  0  0  0  0
    9.9770    3.9110   23.6190 O   0  0  0  0  0  0  0  0  0  0  0  0
    5.9300   -3.6290   20.9430 C   0  0  0  0  0  0  0  0  0  0  0  0
    5.8750   -2.9650   23.2270 C   0  0  0  0  0  0  0  0  0  0  0  0
    4.6950    0.9400   20.4420 C   0  0  0  0  0  0  0  0  0  0  0  0
    5.9550   -0.6460   18.8660 C   0  0  0  0  0  0  0  0  0  0  0  0
    8.0920   -2.5970   22.2990 C   0  0  0  0  0  0  0  0  0  0  0  0
   12.1940    4.3750   22.1180 C   0  0  0  0  0  0  0  0  0  0  0  0
    5.1000   -3.3380   20.1270 O   0  0  0  0  0  0  0  0  0  0  0  0
    6.3820   -5.1220   21.2020 C   0  0  1  0  0  0  0  0  0  0  0  0
    4.9240    0.5820   21.4880 C   0  0  0  0  0  0  0  0  0  0  0  0
    5.1460   -4.1420   23.1080 C   0  0  0  0  0  0  0  0  0  0  0  0
    5.6440   -0.0130   17.7100 N   0  0  0  0  0  0  0  0  0  0  0  0
    4.3550    1.4700   18.8950 C   0  0  0  0  0  0  0  0  0  0  0  0
    9.3330   -2.8160   21.6640 C   0  0  0  0  0  0  0  0  0  0  0  0
    8.2100   -2.1770   23.6250 C   0  0  0  0  0  0  0  0  0  0  0  0
   13.5530    4.6660   22.7800 C   0  0  0  0  0  0  0  0  0  0  0  0
    7.7150   -4.2530   20.9020 C   0  0  0  0  0  0  0  0  0  0  0  0
    4.6980    1.4140   22.5160 C   0  0  0  0  0  0  0  0  0  0  0  0
    4.7890    1.1530   17.6150 C   0  0  0  0  0  0  0  0  0  0  0  0
   10.5940   -2.6710   22.2500 C   0  0  0  0  0  0  0  0  0  0  0  0
    9.5810   -1.9680   24.1700 C   0  0  0  0  0  0  0  0  0  0  0  0
    5.9110   -5.4030   22.6510 C   0  0  0  0  0  0  0  0  0  0  0  0
    3.6150    2.4160   22.3930 N   0  0  0  0  0  0  0  0  0  0  0  0
   10.7420   -2.1490   23.5440 C   0  0  0  0  0  0  0  0  0  0  0  0
    5.2450   -6.7500   22.8670 C   0  0  0  0  0  0  0  0  0  0  0  0
    6.9690   -5.4850   23.4900 C   0  0  0  0  0  0  0  0  0  0  0  0
   12.0980   -1.9350   24.1950 C   0  0  0  0  0  0  0  0  0  0  0  0
    2.7570    2.3500   23.5540 C   0  0  0  0  0  0  0  0  0  0  0  0
    4.5610   -6.7840   24.2280 C   0  0  0  0  0  0  0  0  0  0  0  0
    6.7090   -5.6380   24.9890 C   0  0  0  0  0  0  0  0  0  0  0  0
   12.1550   -0.6330   24.8050 C   0  0  0  0  0  0  0  0  0  0  0  0
   13.2560   -2.1340   23.2380 C   0  0  0  0  0  0  0  0  0  0  0  0
   12.2680   -2.9380   25.3130 C   0  0  0  0  0  0  0  0  0  0  0  0
    2.6810    1.3570   24.5570 O   0  0  0  0  0  0  0  0  0  0  0  0
    1.9270    3.5740   23.6700 N   0  0  0  0  0  0  0  0  0  0  0  0
    5.2470   -5.9350   25.1510 N   0  0  0  0  0  0  0  0  0  0  0  0
    4.4810   -5.4380   26.6130 S   0  0  0  0  0  0  0  0  0  0  0  0
    0.4710    3.4050   23.9580 C   0  0  0  0  0  0  0  0  0  0  0  0
    5.6210   -5.1460   27.4780 O   0  0  0  0  0  0  0  0  0  0  0  0
    3.4840   -6.4670   26.9780 O   0  0  0  0  0  0  0  0  0  0  0  0
    0.1410    4.1340   25.2700 C   0  0  0  0  0  0  0  0  0  0  0  0
   -0.3090    3.6680   22.7130 C   0  0  0  0  0  0  0  0  0  0  0  0
    3.6230   -3.9130   26.3710 C   0  0  0  0  0  0  0  0  0  0  0  0
   -1.3820    4.0760   25.5050 C   0  0  0  0  0  0  0  0  0  0  0  0
   -1.7890    3.5580   23.0910 C   0  0  0  0  0  0  0  0  0  0  0  0
    4.3220   -2.6070   26.4110 C   0  0  0  0  0  0  0  0  0  0  0  0
    2.2680   -3.9820   26.0490 C   0  0  0  0  0  0  0  0  0  0  0  0
    5.6750   -2.4820   26.7570 F   0  0  0  0  0  0  0  0  0  0  0  0
   -2.2140    4.4340   24.2360 C   0  0  0  0  0  0  0  0  0  0  0  0
    1.5900   -2.7580   25.8750 C   0  0  0  0  0  0  0  0  0  0  0  0
    3.5580   -1.4840   26.2770 C   0  0  0  0  0  0  0  0  0  0  0  0
    2.2030   -1.5290   25.9760 C   0  0  0  0  0  0  0  0  0  0  0  0
  1  2  1  0
  2  3  1  0
  1  4  1  0
  4  5  2  0
  6  4  1  6
  6  7  1  0
  3  8  1  0
  6  9  1  0
  8 10  1  0
  8 11  2  0
  7 12  1  0
  7 13  1  0
  9 14  1  0
  9 15  2  0
  7 16  1  1
 10 17  1  0
 12 18  2  0
 12 19  1  0
 14 20  1  0
 13 21  1  0
 15 22  1  0
 14 23  2  0
 16 24  2  0
 16 25  1  0
 17 26  1  0
 19 27  1  1
 20 28  1  0
 22 29  2  0
 23 29  1  0
 24 30  1  0
 25 31  2  0
 19 32  1  0
 32 21  1  0
 28 33  1  0
 30 34  2  0
 31 34  1  0
 32 35  1  0
 32 36  1  0
 34 37  1  0
 33 38  1  0
 35 39  1  0
 36 40  1  0
 37 41  1  0
 37 42  1  0
 37 43  1  0
 38 44  2  0
 38 45  1  0
 39 46  1  0
 40 46  1  0
 46 47  1  0
 45 48  1  0
 47 49  2  0
 47 50  2  0
 48 51  1  0
 48 52  1  0
 47 53  1  0
 51 54  1  0
 52 55  1  0
 53 56  2  0
 53 57  1  0
 56 58  1  0
 54 59  1  0
 55 59  1  0
 57 60  2  0
 56 61  1  0
 60 62  1  0
 61 62  2  0
M  END
