x3117-x2764
     RDKit          3D

 33 35  0  0  0  0  0  0  0  0999 V2000
    6.9120   -1.5320   21.2190 N   0  0  0  0  0  0  0  0  0  0  0  0
    6.0820   -2.7510   21.3130 C   0  0  0  0  0  0  0  0  0  0  0  0
    4.8200   -2.9640   21.0720 O   0  0  0  0  0  0  0  0  0  0  0  0
    6.6150   -0.1510   21.4050 C   0  0  1  0  0  0  0  0  0  0  0  0
    8.3760   -1.7680   21.0500 N   0  0  0  0  0  0  0  0  0  0  0  0
    6.7660   -4.0590   21.7050 C   0  0  0  0  0  0  0  0  0  0  0  0
    7.8410    0.7870   21.7990 C   0  0  0  0  0  0  0  0  0  0  0  0
    6.0420    0.3820   20.1480 C   0  0  0  0  0  0  0  0  0  0  0  0
    9.0560   -1.6210   22.2730 C   0  0  0  0  0  0  0  0  0  0  0  0
    6.7980   -4.9800   20.4740 C   0  0  0  0  0  0  0  0  0  0  0  0
    7.4280    1.8950   22.7490 N   0  0  0  0  0  0  0  0  0  0  0  0
    8.9970    0.6860   21.3810 O   0  0  0  0  0  0  0  0  0  0  0  0
    4.8790    1.1380   20.1230 C   0  0  0  0  0  0  0  0  0  0  0  0
    6.6760    0.1430   18.9430 C   0  0  0  0  0  0  0  0  0  0  0  0
   10.3880   -1.7730   22.4400 C   0  0  0  0  0  0  0  0  0  0  0  0
    8.3600   -1.3060   23.3240 C   0  0  0  0  0  0  0  0  0  0  0  0
    6.2040    2.5480   22.4310 C   0  0  0  0  0  0  0  0  0  0  0  0
    6.2830    0.5800   17.7440 N   0  0  0  0  0  0  0  0  0  0  0  0
    4.4470    1.5980   18.9520 C   0  0  0  0  0  0  0  0  0  0  0  0
    8.2520    2.8750   23.2790 C   0  0  0  0  0  0  0  0  0  0  0  0
   10.9550   -1.5540   23.7920 C   0  0  0  0  0  0  0  0  0  0  0  0
    8.8890   -1.1010   24.5730 C   0  0  0  0  0  0  0  0  0  0  0  0
   12.4770   -1.7000   24.0210 C   0  0  0  0  0  0  0  0  0  0  0  0
    5.1540    1.3150   17.8030 C   0  0  0  0  0  0  0  0  0  0  0  0
    9.7190    2.5700   23.6030 C   0  0  0  0  0  0  0  0  0  0  0  0
    8.2090    4.2230   22.5320 C   0  0  0  0  0  0  0  0  0  0  0  0
   10.3040   -1.1680   25.0980 C   0  0  0  0  0  0  0  0  0  0  0  0
   12.8170   -0.4170   24.7010 C   0  0  0  0  0  0  0  0  0  0  0  0
   13.1860   -2.0480   22.7680 C   0  0  0  0  0  0  0  0  0  0  0  0
   12.7770   -2.9060   24.9750 C   0  0  0  0  0  0  0  0  0  0  0  0
   10.5150    3.7160   23.5300 C   0  0  0  0  0  0  0  0  0  0  0  0
    8.9190    5.3730   23.2970 C   0  0  0  0  0  0  0  0  0  0  0  0
    9.9370    4.8650   24.1470 O   0  0  0  0  0  0  0  0  0  0  0  0
  1  2  1  0
  2  3  2  0
  1  4  1  0
  1  5  1  0
  2  6  1  0
  4  7  1  6
  4  8  1  0
  5  9  1  0
  6 10  1  0
  7 11  1  0
  7 12  2  0
  8 13  2  0
  8 14  1  0
  9 15  2  0
  9 16  1  0
 11 17  1  0
 14 18  2  0
 13 19  1  0
 11 20  1  0
 15 21  1  0
 16 22  2  0
 21 23  1  0
 18 24  1  0
 19 24  2  0
 20 25  1  0
 20 26  1  0
 21 27  2  0
 22 27  1  0
 23 28  1  0
 23 29  1  0
 23 30  1  0
 25 31  1  0
 26 32  1  0
 31 33  1  0
 32 33  1  0
M  END
