x3113-x3110-x1311-x2754
     RDKit          3D

 59 64  0  0  0  0  0  0  0  0999 V2000
    7.8360    1.3740   23.1870 N   0  0  0  0  0  0  0  0  0  0  0  0
    8.7010    2.4620   23.4870 C   0  0  0  0  0  0  0  0  0  0  0  0
   10.1950    2.2110   23.4940 C   0  0  0  0  0  0  0  0  0  0  0  0
    7.6260    0.8840   21.7950 C   0  0  0  0  0  0  0  0  0  0  0  0
    8.3800    1.3230   20.9070 O   0  0  0  0  0  0  0  0  0  0  0  0
    6.5170   -0.0640   21.4800 C   0  0  2  0  0  0  0  0  0  0  0  0
    6.9780   -1.4850   21.4340 N   0  0  0  0  0  0  0  0  0  0  0  0
   11.0660    3.3230   23.3940 C   0  0  0  0  0  0  0  0  0  0  0  0
    6.0070    0.4640   20.1800 C   0  0  0  0  0  0  0  0  0  0  0  0
   11.9320    3.1980   22.5380 O   0  0  0  0  0  0  0  0  0  0  0  0
   10.9590    4.3260   24.0920 O   0  0  0  0  0  0  0  0  0  0  0  0
    6.1150   -2.7450   21.2030 C   0  0  0  0  0  0  0  0  0  0  0  0
    4.8850    1.2690   20.2170 C   0  0  0  0  0  0  0  0  0  0  0  0
    6.7230    0.1320   18.8960 C   0  0  0  0  0  0  0  0  0  0  0  0
    8.2550   -1.4920   22.1870 C   0  0  0  0  0  0  0  0  0  0  0  0
   12.3230    4.4470   21.9420 C   0  0  0  0  0  0  0  0  0  0  0  0
    4.8910   -2.9810   20.7550 O   0  0  0  0  0  0  0  0  0  0  0  0
    6.3710    0.5780   17.6960 N   0  0  0  0  0  0  0  0  0  0  0  0
    4.3770    1.8450   18.9030 C   0  0  0  0  0  0  0  0  0  0  0  0
    9.3760   -1.9080   21.5780 C   0  0  0  0  0  0  0  0  0  0  0  0
    8.4380   -1.0920   23.5410 C   0  0  0  0  0  0  0  0  0  0  0  0
    6.8710   -3.9520   21.6680 C   0  0  1  0  0  0  0  0  0  0  0  0
   13.3810    5.1400   22.8350 C   0  0  0  0  0  0  0  0  0  0  0  0
    8.2730   -4.4180   21.0670 C   0  0  0  0  0  0  0  0  0  0  0  0
    5.1820    1.4550   17.7010 C   0  0  0  0  0  0  0  0  0  0  0  0
   10.7380   -1.9730   22.1780 C   0  0  0  0  0  0  0  0  0  0  0  0
    9.6760   -1.1020   24.2500 C   0  0  0  0  0  0  0  0  0  0  0  0
    7.1880   -3.1880   22.9570 C   0  0  0  0  0  0  0  0  0  0  0  0
    6.3150   -5.0270   22.6980 C   0  0  1  0  0  0  0  0  0  0  0  0
   10.9720   -1.5620   23.5730 C   0  0  0  0  0  0  0  0  0  0  0  0
    7.5770   -5.1790   23.4480 C   0  0  0  0  0  0  0  0  0  0  0  0
    5.0030   -4.6990   23.5450 C   0  0  1  0  0  0  0  0  0  0  0  0
    6.1070   -2.5570   23.6370 C   0  0  0  0  0  0  0  0  0  0  0  0
   12.4000   -1.6190   24.1480 C   0  0  0  0  0  0  0  0  0  0  0  0
    8.1740   -6.3980   23.1250 C   0  0  0  0  0  0  0  0  0  0  0  0
    7.9600   -3.9630   24.3920 C   0  0  0  0  0  0  0  0  0  0  0  0
    4.2440   -5.1090   22.5280 C   0  0  0  0  0  0  0  0  0  0  0  0
    4.1630   -5.9340   24.6610 S   0  0  0  0  0  0  0  0  0  0  0  0
    4.9330   -3.3260   23.8280 C   0  0  2  0  0  0  0  0  0  0  0  0
   12.4910   -0.5370   25.1810 C   0  0  0  0  0  0  0  0  0  0  0  0
   13.3770   -1.5850   22.9960 C   0  0  0  0  0  0  0  0  0  0  0  0
   12.7120   -2.9330   24.9060 C   0  0  0  0  0  0  0  0  0  0  0  0
    4.8970   -6.4060   25.8040 O   0  0  0  0  0  0  0  0  0  0  0  0
    2.7150   -5.8100   24.7390 O   0  0  0  0  0  0  0  0  0  0  0  0
    4.2930   -2.9980   25.1950 C   0  0  0  0  0  0  0  0  0  0  0  0
    9.3330   -6.7090   23.6830 C   0  0  0  0  0  0  0  0  0  0  0  0
    9.1470   -4.7970   24.6720 C   0  0  0  0  0  0  0  0  0  0  0  0
    4.4910   -6.4600   22.3460 C   0  0  0  0  0  0  0  0  0  0  0  0
    4.4570   -7.1110   23.4710 C   0  0  0  0  0  0  0  0  0  0  0  0
    3.0670   -2.9500   25.2500 O   0  0  0  0  0  0  0  0  0  0  0  0
    5.1460   -2.7540   26.3780 N   0  0  0  0  0  0  0  0  0  0  0  0
    9.8430   -5.8480   24.5140 C   0  0  0  0  0  0  0  0  0  0  0  0
    4.4710   -1.9950   27.4440 C   0  0  0  0  0  0  0  0  0  0  0  0
    6.0320   -3.7530   26.8750 C   0  0  0  0  0  0  0  0  0  0  0  0
    6.6620   -4.6610   26.0590 C   0  0  0  0  0  0  0  0  0  0  0  0
    6.2790   -3.8230   28.2240 C   0  0  0  0  0  0  0  0  0  0  0  0
    7.6270   -5.7040   26.5480 C   0  0  0  0  0  0  0  0  0  0  0  0
    7.1430   -4.7650   28.7610 C   0  0  0  0  0  0  0  0  0  0  0  0
    7.8410   -5.7230   27.8590 C   0  0  0  0  0  0  0  0  0  0  0  0
  1  2  1  0
  2  3  1  0
  1  4  1  0
  4  5  2  0
  6  4  1  6
  6  7  1  0
  3  8  1  0
  6  9  1  0
  8 10  1  0
  8 11  2  0
  7 12  1  0
  9 13  2  0
  9 14  1  0
  7 15  1  0
 10 16  1  0
 12 17  2  0
 14 18  2  0
 13 19  1  0
 15 20  2  0
 15 21  1  0
 22 12  1  0
 16 23  1  0
 22 24  1  6
 18 25  1  0
 19 25  2  0
 20 26  1  0
 21 27  2  0
 22 28  1  0
 22 29  1  0
 26 30  2  0
 27 30  1  0
 29 31  1  1
 29 32  1  0
 28 33  1  0
 30 34  1  0
 31 35  2  0
 31 36  1  0
 32 37  1  6
 32 38  1  0
 32 39  1  0
 33 39  1  0
 34 40  1  0
 34 41  1  0
 34 42  1  0
 38 43  1  0
 38 44  1  0
 39 45  1  1
 35 46  1  0
 36 47  2  0
 37 48  1  0
 38 49  1  0
 48 49  2  0
 45 50  2  0
 45 51  1  0
 46 52  2  0
 47 52  1  0
 51 53  1  0
 51 54  1  0
 54 55  2  0
 54 56  1  0
 55 57  1  0
 56 58  2  0
 57 59  2  0
 58 59  1  0
M  END
