x3115-x0752
     RDKit          3D

 39 42  0  0  0  0  0  0  0  0999 V2000
    6.9080   -1.7110   21.9240 N   0  0  0  0  0  0  0  0  0  0  0  0
    6.1630   -2.9230   21.5450 C   0  0  0  0  0  0  0  0  0  0  0  0
    4.8870   -3.1330   21.2950 O   0  0  0  0  0  0  0  0  0  0  0  0
    6.5480   -0.3820   21.6410 C   0  0  1  0  0  0  0  0  0  0  0  0
    8.2560   -1.7580   22.5800 C   0  0  0  0  0  0  0  0  0  0  0  0
    7.0610   -4.1420   21.4160 C   0  0  2  0  0  0  0  0  0  0  0  0
    7.5730    0.6740   22.0300 C   0  0  0  0  0  0  0  0  0  0  0  0
    6.0880    0.1030   20.3450 C   0  0  0  0  0  0  0  0  0  0  0  0
    9.4110   -1.8860   21.8040 C   0  0  0  0  0  0  0  0  0  0  0  0
    8.3960   -1.6600   24.0190 C   0  0  0  0  0  0  0  0  0  0  0  0
    6.8200   -4.5950   20.0390 C   0  0  0  0  0  0  0  0  0  0  0  0
    7.1070    1.8100   22.8730 N   0  0  0  0  0  0  0  0  0  0  0  0
    8.7240    0.6120   21.6070 O   0  0  0  0  0  0  0  0  0  0  0  0
    6.7520   -5.2510   22.4330 C   0  0  0  0  0  0  0  0  0  0  0  0
    4.8760    0.9940   20.2130 C   0  0  0  0  0  0  0  0  0  0  0  0
    6.7430   -0.1910   19.1630 C   0  0  0  0  0  0  0  0  0  0  0  0
   10.7080   -1.9190   22.3110 C   0  0  0  0  0  0  0  0  0  0  0  0
    9.6680   -1.6930   24.5840 C   0  0  0  0  0  0  0  0  0  0  0  0
    7.9890    2.7270   23.1100 C   0  0  0  0  0  0  0  0  0  0  0  0
    6.3760    0.2740   17.9290 N   0  0  0  0  0  0  0  0  0  0  0  0
    4.4530    1.5160   18.8790 C   0  0  0  0  0  0  0  0  0  0  0  0
   10.9150   -1.8260   23.6710 C   0  0  0  0  0  0  0  0  0  0  0  0
    5.6630   -4.7280   23.2710 C   0  0  0  0  0  0  0  0  0  0  0  0
    7.8650    3.8780   22.3090 C   0  0  0  0  0  0  0  0  0  0  0  0
   12.3870   -1.8480   24.1570 C   0  0  0  0  0  0  0  0  0  0  0  0
    5.1910    1.1680   17.7760 C   0  0  0  0  0  0  0  0  0  0  0  0
    4.4300   -5.3520   23.3550 C   0  0  0  0  0  0  0  0  0  0  0  0
    5.9180   -3.5480   23.9750 C   0  0  0  0  0  0  0  0  0  0  0  0
    8.4840    5.0460   22.9030 O   0  0  0  0  0  0  0  0  0  0  0  0
   13.2470   -2.0330   23.0870 C   0  0  0  0  0  0  0  0  0  0  0  0
   12.7810   -2.9380   25.1670 C   0  0  0  0  0  0  0  0  0  0  0  0
   12.5950   -0.6370   24.7730 C   0  0  0  0  0  0  0  0  0  0  0  0
    3.4510   -4.7740   24.1440 C   0  0  0  0  0  0  0  0  0  0  0  0
    4.8840   -2.8770   24.8440 C   0  0  0  0  0  0  0  0  0  0  0  0
    8.2250    6.2590   22.1990 C   0  0  0  0  0  0  0  0  0  0  0  0
    3.6570   -3.5050   24.9110 C   0  0  0  0  0  0  0  0  0  0  0  0
    2.1960   -5.2330   24.3420 O   0  0  0  0  0  0  0  0  0  0  0  0
    2.5580   -3.1390   25.5920 O   0  0  0  0  0  0  0  0  0  0  0  0
    1.6800   -4.2530   25.2860 C   0  0  0  0  0  0  0  0  0  0  0  0
  1  2  1  0
  2  3  2  0
  1  4  1  0
  1  5  1  0
  2  6  1  0
  4  7  1  6
  4  8  1  0
  5  9  2  0
  5 10  1  0
  6 11  1  6
  7 12  1  0
  7 13  2  0
  6 14  1  0
  8 15  2  0
  8 16  1  0
  9 17  1  0
 10 18  2  0
 12 19  1  0
 16 20  2  0
 15 21  1  0
 17 22  2  0
 18 22  1  0
 14 23  1  0
 19 24  1  0
 22 25  1  0
 20 26  1  0
 21 26  2  0
 23 27  2  0
 23 28  1  0
 24 29  1  0
 25 30  1  0
 25 31  1  0
 25 32  1  0
 27 33  1  0
 28 34  2  0
 29 35  1  0
 33 36  2  0
 34 36  1  0
 33 37  1  0
 36 38  1  0
 37 39  1  0
 38 39  1  0
M  END
