x3110-x1077-x1119
     RDKit          3D

 62 66  0  0  0  0  0  0  0  0999 V2000
    8.1930    1.1330   23.2750 N   0  0  0  0  0  0  0  0  0  0  0  0
    8.9810    2.3990   23.4960 C   0  0  0  0  0  0  0  0  0  0  0  0
   10.5360    2.2360   23.3630 C   0  0  0  0  0  0  0  0  0  0  0  0
    7.8590    0.7190   21.9120 C   0  0  0  0  0  0  0  0  0  0  0  0
    8.4680    1.2390   20.9600 O   0  0  0  0  0  0  0  0  0  0  0  0
    6.6860   -0.3260   21.6730 C   0  0  2  0  0  0  0  0  0  0  0  0
    6.9470   -1.6970   21.8610 N   0  0  0  0  0  0  0  0  0  0  0  0
   11.2750    3.4670   23.1560 C   0  0  0  0  0  0  0  0  0  0  0  0
    6.1860    0.1260   20.2810 C   0  0  0  0  0  0  0  0  0  0  0  0
   11.9770    3.5560   22.1230 O   0  0  0  0  0  0  0  0  0  0  0  0
   11.1050    4.2930   24.0630 O   0  0  0  0  0  0  0  0  0  0  0  0
    6.0790   -2.8040   21.3420 C   0  0  0  0  0  0  0  0  0  0  0  0
    4.9760    1.0040   20.3120 C   0  0  0  0  0  0  0  0  0  0  0  0
    6.8940   -0.2680   19.0230 C   0  0  0  0  0  0  0  0  0  0  0  0
    8.2460   -1.8370   22.5170 C   0  0  0  0  0  0  0  0  0  0  0  0
   12.9100    4.6890   21.9870 C   0  0  0  0  0  0  0  0  0  0  0  0
    4.7780   -3.0220   21.3700 O   0  0  0  0  0  0  0  0  0  0  0  0
    6.7190   -3.9780   20.6170 C   0  0  0  0  0  0  0  0  0  0  0  0
    6.3050    0.2970   17.7900 N   0  0  0  0  0  0  0  0  0  0  0  0
    4.4840    1.4890   19.1090 C   0  0  0  0  0  0  0  0  0  0  0  0
    9.3130   -1.3230   21.7530 C   0  0  0  0  0  0  0  0  0  0  0  0
    8.5750   -2.3950   23.7880 C   0  0  0  0  0  0  0  0  0  0  0  0
   14.2220    4.2610   22.7740 C   0  0  0  0  0  0  0  0  0  0  0  0
    8.2140   -3.7640   20.3850 C   0  0  0  0  0  0  0  0  0  0  0  0
    5.2140    1.0930   17.8540 C   0  0  0  0  0  0  0  0  0  0  0  0
   10.7410   -1.3140   22.2150 C   0  0  0  0  0  0  0  0  0  0  0  0
    9.8630   -2.3840   24.2420 C   0  0  0  0  0  0  0  0  0  0  0  0
    7.6910   -3.0510   24.8050 C   0  0  0  0  0  0  0  0  0  0  0  0
   15.5540    4.9590   22.5330 C   0  0  0  0  0  0  0  0  0  0  0  0
   11.0380   -1.8580   23.5390 C   0  0  0  0  0  0  0  0  0  0  0  0
    8.5010   -4.1420   25.5040 N   0  0  0  0  0  0  0  0  0  0  0  0
   12.4120   -1.8510   24.1020 C   0  0  0  0  0  0  0  0  0  0  0  0
   17.0710    4.6150   23.0250 C   0  0  0  0  0  0  0  0  0  0  0  0
    9.2830   -5.0470   24.6210 C   0  0  0  0  0  0  0  0  0  0  0  0
    7.7350   -4.9960   26.4110 C   0  0  0  0  0  0  0  0  0  0  0  0
   13.2020   -0.8570   23.5140 C   0  0  0  0  0  0  0  0  0  0  0  0
   12.5680   -0.5990   24.8880 C   0  0  0  0  0  0  0  0  0  0  0  0
   12.9290   -2.9970   24.9770 C   0  0  0  0  0  0  0  0  0  0  0  0
   18.1260    5.6410   23.4170 C   0  0  0  0  0  0  0  0  0  0  0  0
    8.4760   -5.8190   23.5710 C   0  0  0  0  0  0  0  0  0  0  0  0
    6.4500   -5.0600   25.9310 C   0  0  0  0  0  0  0  0  0  0  0  0
   19.3170    6.0990   22.6650 C   0  0  0  0  0  0  0  0  0  0  0  0
    6.4530   -5.9440   24.8180 O   0  0  0  0  0  0  0  0  0  0  0  0
    7.1020   -5.5360   23.6060 C   0  0  0  0  0  0  0  0  0  0  0  0
   19.6640    7.6110   22.7770 C   0  0  0  0  0  0  0  0  0  0  0  0
   20.9870    7.7610   22.4870 N   0  0  0  0  0  0  0  0  0  0  0  0
   21.8300    6.8630   23.0910 C   0  0  0  0  0  0  0  0  0  0  0  0
   22.3050    5.7160   22.2180 C   0  0  0  0  0  0  0  0  0  0  0  0
   22.2260    6.9580   24.4070 C   0  0  0  0  0  0  0  0  0  0  0  0
   23.1610    4.6670   22.8800 C   0  0  0  0  0  0  0  0  0  0  0  0
   23.0250    5.9670   24.9690 C   0  0  0  0  0  0  0  0  0  0  0  0
   23.4460    4.7890   24.1980 C   0  0  0  0  0  0  0  0  0  0  0  0
   24.3230    3.3770   24.8580 S   0  0  0  0  0  0  0  0  0  0  0  0
   25.6000    3.2390   24.3060 O   0  0  0  0  0  0  0  0  0  0  0  0
   24.4850    3.5470   26.5510 N   0  0  0  0  0  0  0  0  0  0  0  0
   23.4210    2.2680   24.7420 O   0  0  0  0  0  0  0  0  0  0  0  0
   25.2480    4.5870   27.0470 C   0  0  0  0  0  0  0  0  0  0  0  0
   25.1860    4.7140   28.4200 N   0  0  0  0  0  0  0  0  0  0  0  0
   26.0230    5.4550   26.2530 C   0  0  0  0  0  0  0  0  0  0  0  0
   25.9410    5.7720   29.0860 C   0  0  0  0  0  0  0  0  0  0  0  0
   26.7610    6.4780   26.8440 C   0  0  0  0  0  0  0  0  0  0  0  0
   26.7050    6.6280   28.3350 C   0  0  0  0  0  0  0  0  0  0  0  0
  1  2  1  0
  2  3  1  0
  1  4  1  0
  4  5  2  0
  6  4  1  6
  6  7  1  0
  3  8  1  0
  6  9  1  0
  8 10  1  0
  8 11  2  0
  7 12  1  0
  9 13  2  0
  9 14  1  0
  7 15  1  0
 10 16  1  0
 12 17  2  0
 12 18  1  0
 14 19  2  0
 13 20  1  0
 15 21  2  0
 15 22  1  0
 16 23  1  0
 18 24  1  0
 19 25  1  0
 20 25  2  0
 21 26  1  0
 22 27  2  0
 22 28  1  0
 23 29  1  0
 26 30  2  0
 27 30  1  0
 28 31  1  0
 30 32  1  0
 29 33  1  0
 31 34  1  0
 31 35  1  0
 32 36  1  0
 32 37  1  0
 32 38  1  0
 33 39  1  0
 34 40  1  0
 35 41  1  0
 39 42  1  0
 41 43  1  0
 40 44  1  0
 43 44  1  0
 42 45  1  0
 45 46  1  0
 46 47  1  0
 47 48  2  0
 47 49  1  0
 48 50  1  0
 49 51  2  0
 50 52  2  0
 51 52  1  0
 52 53  1  0
 53 54  2  0
 53 55  1  0
 53 56  2  0
 55 57  1  0
 57 58  2  0
 57 59  1  0
 58 60  1  0
 59 61  2  0
 60 62  2  0
 61 62  1  0
M  END
