x3113-x0769
     RDKit          3D

 47 51  0  0  0  0  0  0  0  0999 V2000
    6.8670   -1.6630   22.0060 C   0  0  1  0  0  0  0  0  0  0  0  0
    5.8780   -2.5690   21.0770 C   0  0  0  0  0  0  0  0  0  0  0  0
    4.7060   -2.9650   21.3850 O   0  0  0  0  0  0  0  0  0  0  0  0
    6.6610   -0.1680   21.8620 C   0  0  1  0  0  0  0  0  0  0  0  0
    6.5610   -2.6340   23.1160 C   0  0  0  0  0  0  0  0  0  0  0  0
    8.4110   -1.7850   22.4960 C   0  0  0  0  0  0  0  0  0  0  0  0
    6.3330   -3.1210   19.8290 C   0  0  0  0  0  0  0  0  0  0  0  0
    7.8910    0.8020   22.0290 C   0  0  0  0  0  0  0  0  0  0  0  0
    6.2210    0.2580   20.4210 C   0  0  0  0  0  0  0  0  0  0  0  0
    9.6630   -2.2850   21.7240 C   0  0  0  0  0  0  0  0  0  0  0  0
    8.7840   -1.4100   23.7900 C   0  0  0  0  0  0  0  0  0  0  0  0
    7.3240   -4.0230   22.9690 C   0  0  2  0  0  0  0  0  0  0  0  0
    7.4660   -3.8870   20.3670 C   0  0  0  0  0  0  0  0  0  0  0  0
    8.3440    1.2560   23.3320 N   0  0  0  0  0  0  0  0  0  0  0  0
    8.4840    1.2330   21.0200 O   0  0  0  0  0  0  0  0  0  0  0  0
    5.1230    1.0000   20.3700 C   0  0  0  0  0  0  0  0  0  0  0  0
    6.8360   -0.0320   19.2120 C   0  0  0  0  0  0  0  0  0  0  0  0
   10.8060   -2.2790   22.3290 C   0  0  0  0  0  0  0  0  0  0  0  0
   10.0550   -1.4670   24.2920 C   0  0  0  0  0  0  0  0  0  0  0  0
    7.1050   -4.7100   21.6250 N   0  0  0  0  0  0  0  0  0  0  0  0
    6.9510   -4.8290   24.1890 C   0  0  0  0  0  0  0  0  0  0  0  0
    9.0780    2.5510   23.4950 C   0  0  0  0  0  0  0  0  0  0  0  0
    6.4240    0.3830   17.9310 N   0  0  0  0  0  0  0  0  0  0  0  0
    4.6250    1.4670   19.1290 C   0  0  0  0  0  0  0  0  0  0  0  0
   11.1320   -1.9030   23.5760 C   0  0  0  0  0  0  0  0  0  0  0  0
    5.9300   -5.6510   21.6200 C   0  0  0  0  0  0  0  0  0  0  0  0
    5.5990   -5.4060   24.1250 N   0  0  0  0  0  0  0  0  0  0  0  0
   10.4660    2.3220   23.4170 C   0  0  0  0  0  0  0  0  0  0  0  0
   12.5610   -1.9480   24.1190 C   0  0  0  0  0  0  0  0  0  0  0  0
    4.7360   -5.4390   25.6190 S   0  0  0  0  0  0  0  0  0  0  0  0
    5.2740    1.1620   17.9190 C   0  0  0  0  0  0  0  0  0  0  0  0
    4.9150   -5.3720   22.7800 C   0  0  0  0  0  0  0  0  0  0  0  0
   11.0580    3.5930   23.2850 C   0  0  0  0  0  0  0  0  0  0  0  0
   13.4360   -1.8530   23.0540 C   0  0  0  0  0  0  0  0  0  0  0  0
   12.7790   -2.9850   25.0200 C   0  0  0  0  0  0  0  0  0  0  0  0
   12.6800   -0.6640   24.9490 C   0  0  0  0  0  0  0  0  0  0  0  0
    5.7230   -5.4500   26.6740 O   0  0  0  0  0  0  0  0  0  0  0  0
    3.7630   -6.5050   25.5340 O   0  0  0  0  0  0  0  0  0  0  0  0
    3.8170   -3.9300   25.7430 C   0  0  0  0  0  0  0  0  0  0  0  0
   12.2510    3.4260   22.6420 O   0  0  0  0  0  0  0  0  0  0  0  0
    4.3490   -2.6490   26.0080 C   0  0  0  0  0  0  0  0  0  0  0  0
    2.4430   -4.0630   25.5670 C   0  0  0  0  0  0  0  0  0  0  0  0
   13.0500    4.6090   22.6690 C   0  0  0  0  0  0  0  0  0  0  0  0
    5.6530   -2.4250   26.1950 F   0  0  0  0  0  0  0  0  0  0  0  0
    1.5680   -2.9860   25.6430 C   0  0  0  0  0  0  0  0  0  0  0  0
    3.4640   -1.5610   26.0820 C   0  0  0  0  0  0  0  0  0  0  0  0
    2.0830   -1.7170   25.9050 C   0  0  0  0  0  0  0  0  0  0  0  0
  1  2  1  0
  2  3  2  0
  1  4  1  0
  1  5  1  0
  1  6  1  6
  2  7  1  0
  4  8  1  6
  4  9  1  0
  6 10  2  0
  6 11  1  0
 12  5  1  6
  7 13  1  0
  8 14  1  0
  8 15  2  0
  9 16  2  0
  9 17  1  0
 10 18  1  0
 11 19  2  0
 12 20  1  0
 13 20  1  0
 12 21  1  0
 14 22  1  0
 17 23  2  0
 16 24  1  0
 18 25  2  0
 19 25  1  0
 20 26  1  0
 21 27  1  0
 22 28  1  0
 25 29  1  0
 27 30  1  0
 23 31  1  0
 24 31  2  0
 26 32  1  0
 27 32  1  0
 28 33  1  0
 29 34  1  0
 29 35  1  0
 29 36  1  0
 30 37  2  0
 30 38  2  0
 30 39  1  0
 33 40  1  0
 39 41  2  0
 39 42  1  0
 40 43  1  0
 41 44  1  0
 42 45  2  0
 41 46  1  0
 45 47  1  0
 46 47  2  0
M  END
