x3117-x2705
     RDKit          3D

 34 36  0  0  0  0  0  0  0  0999 V2000
    6.9790   -1.5770   21.8370 N   0  0  0  0  0  0  0  0  0  0  0  0
    6.1320   -2.8030   21.6020 C   0  0  0  0  0  0  0  0  0  0  0  0
    4.8540   -3.0390   21.2410 O   0  0  0  0  0  0  0  0  0  0  0  0
    6.5970   -0.2100   21.6720 C   0  0  1  0  0  0  0  0  0  0  0  0
    8.3020   -1.5990   22.5580 C   0  0  0  0  0  0  0  0  0  0  0  0
    6.8700   -4.1240   21.8100 C   0  0  0  0  0  0  0  0  0  0  0  0
    7.7730    0.7970   21.9030 C   0  0  0  0  0  0  0  0  0  0  0  0
    6.1020    0.2060   20.3350 C   0  0  0  0  0  0  0  0  0  0  0  0
    8.4710   -1.8090   24.0180 N   0  0  0  0  0  0  0  0  0  0  0  0
    9.7070   -1.3850   21.8600 C   0  0  0  0  0  0  0  0  0  0  0  0
    6.8200   -4.9430   20.5180 C   0  0  0  0  0  0  0  0  0  0  0  0
    7.3540    1.9530   22.7460 N   0  0  0  0  0  0  0  0  0  0  0  0
    8.9100    0.7440   21.4300 O   0  0  0  0  0  0  0  0  0  0  0  0
    4.9420    0.9550   20.2390 C   0  0  0  0  0  0  0  0  0  0  0  0
    6.8300   -0.1360   19.1940 C   0  0  0  0  0  0  0  0  0  0  0  0
    9.8060   -1.7560   24.3160 N   0  0  0  0  0  0  0  0  0  0  0  0
   10.5120   -1.5250   23.1270 C   0  0  0  0  0  0  0  0  0  0  0  0
   12.0350   -1.4350   23.2240 C   0  0  0  0  0  0  0  0  0  0  0  0
    6.3680    0.3180   17.8970 N   0  0  0  0  0  0  0  0  0  0  0  0
    4.4410    1.4370   18.9210 C   0  0  0  0  0  0  0  0  0  0  0  0
    8.0440    3.2760   22.9080 C   0  0  0  0  0  0  0  0  0  0  0  0
   12.5290   -0.0940   23.8280 C   0  0  0  0  0  0  0  0  0  0  0  0
   12.5220   -1.5430   24.6550 C   0  0  0  0  0  0  0  0  0  0  0  0
   12.6570   -2.0230   22.0100 C   0  0  0  0  0  0  0  0  0  0  0  0
    5.1390    1.1320   17.7980 C   0  0  0  0  0  0  0  0  0  0  0  0
    9.3970    3.3410   23.5290 C   0  0  0  0  0  0  0  0  0  0  0  0
    7.4980    4.4740   22.5030 C   0  0  0  0  0  0  0  0  0  0  0  0
   10.0980    2.0670   23.9990 C   0  0  0  0  0  0  0  0  0  0  0  0
    6.1510    4.5870   21.8500 C   0  0  0  0  0  0  0  0  0  0  0  0
   12.9970   -2.9290   24.9420 C   0  0  0  0  0  0  0  0  0  0  0  0
   10.0040    4.7090   23.6470 C   0  0  0  0  0  0  0  0  0  0  0  0
    8.1610    5.7060   22.6620 C   0  0  0  0  0  0  0  0  0  0  0  0
    9.2410    1.2430   24.9630 C   0  0  0  0  0  0  0  0  0  0  0  0
    9.5250    6.1120   23.2540 C   0  0  0  0  0  0  0  0  0  0  0  0
  1  2  1  0
  2  3  2  0
  1  4  1  0
  1  5  1  0
  2  6  1  0
  4  7  1  6
  4  8  1  0
  5  9  2  0
  5 10  1  0
  6 11  1  0
  7 12  1  0
  7 13  2  0
  8 14  2  0
  8 15  1  0
  9 16  1  0
 10 17  2  0
 16 17  1  0
 17 18  1  0
 15 19  2  0
 14 20  1  0
 12 21  1  0
 18 22  1  0
 18 23  1  0
 18 24  1  0
 19 25  1  0
 20 25  2  0
 21 26  2  0
 21 27  1  0
 26 28  1  0
 27 29  1  0
 23 30  1  0
 26 31  1  0
 27 32  2  0
 28 33  1  0
 31 34  2  0
 32 34  1  0
M  END
