x3110-x0755-x0820
     RDKit          3D

 56 62  0  0  0  0  0  0  0  0999 V2000
    7.8790    0.9370   23.2050 N   0  0  0  0  0  0  0  0  0  0  0  0
    8.7490    2.1360   23.3070 C   0  0  0  0  0  0  0  0  0  0  0  0
   10.1580    1.9560   23.2640 C   0  0  0  0  0  0  0  0  0  0  0  0
    7.5800    0.3540   21.9710 C   0  0  0  0  0  0  0  0  0  0  0  0
    8.3910    0.8200   20.8880 O   0  0  0  0  0  0  0  0  0  0  0  0
    6.4880   -0.6060   21.8400 C   0  0  2  0  0  0  0  0  0  0  0  0
    6.9000   -2.0240   21.9720 C   0  0  2  0  0  0  0  0  0  0  0  0
   10.9300    3.1030   22.9520 C   0  0  0  0  0  0  0  0  0  0  0  0
    6.0640   -0.0700   20.4890 C   0  0  0  0  0  0  0  0  0  0  0  0
   12.0440    3.0690   22.4410 O   0  0  0  0  0  0  0  0  0  0  0  0
   10.3630    4.1500   23.2310 O   0  0  0  0  0  0  0  0  0  0  0  0
    6.2020   -3.1530   21.1210 C   0  0  0  0  0  0  0  0  0  0  0  0
    6.4700   -3.4310   22.7390 C   0  0  2  0  0  0  0  0  0  0  0  0
    4.9310    0.7530   20.3740 C   0  0  0  0  0  0  0  0  0  0  0  0
    6.7790   -0.3430   19.3240 C   0  0  0  0  0  0  0  0  0  0  0  0
    8.3790   -1.9600   22.4480 C   0  0  0  0  0  0  0  0  0  0  0  0
   12.5160    4.2940   22.0810 C   0  0  0  0  0  0  0  0  0  0  0  0
    5.0710   -3.2670   20.4340 O   0  0  0  0  0  0  0  0  0  0  0  0
    7.0220   -4.3040   21.4510 C   0  0  2  0  0  0  0  0  0  0  0  0
    6.4580    0.1350   18.0950 N   0  0  0  0  0  0  0  0  0  0  0  0
    4.5510    1.2740   19.1380 C   0  0  0  0  0  0  0  0  0  0  0  0
    9.5230   -2.1050   21.7320 C   0  0  0  0  0  0  0  0  0  0  0  0
    8.5040   -1.7080   23.8210 C   0  0  0  0  0  0  0  0  0  0  0  0
    5.2140   -3.7150   22.2910 N   0  0  0  0  0  0  0  0  0  0  0  0
    6.4090   -4.0630   24.2020 C   0  0  1  0  0  0  0  0  0  0  0  0
   13.3470    5.1520   22.9880 C   0  0  0  0  0  0  0  0  0  0  0  0
    8.4080   -4.5150   20.9550 C   0  0  0  0  0  0  0  0  0  0  0  0
    5.2780    0.9980   17.9860 C   0  0  0  0  0  0  0  0  0  0  0  0
   10.7630   -2.0200   22.3350 C   0  0  0  0  0  0  0  0  0  0  0  0
    9.7670   -1.6190   24.4440 C   0  0  0  0  0  0  0  0  0  0  0  0
    7.1890   -3.7410   25.5960 C   0  0  1  0  0  0  0  0  0  0  0  0
    5.0040   -3.6770   24.5710 C   0  0  0  0  0  0  0  0  0  0  0  0
    6.2580   -5.4980   24.0810 N   0  0  0  0  0  0  0  0  0  0  0  0
    4.7100   -5.0670   22.3170 C   0  0  0  0  0  0  0  0  0  0  0  0
   10.9440   -1.7810   23.6940 C   0  0  0  0  0  0  0  0  0  0  0  0
    6.4580   -4.5610   26.6910 C   0  0  0  0  0  0  0  0  0  0  0  0
    4.4310   -3.9900   25.7230 C   0  0  0  0  0  0  0  0  0  0  0  0
    8.6810   -4.0140   25.6790 C   0  0  0  0  0  0  0  0  0  0  0  0
    5.0940   -5.9170   23.3550 C   0  0  0  0  0  0  0  0  0  0  0  0
   12.3540   -1.7020   24.2990 C   0  0  0  0  0  0  0  0  0  0  0  0
    5.0930   -4.6780   26.6520 C   0  0  0  0  0  0  0  0  0  0  0  0
    7.2120   -5.1870   27.7490 C   0  0  0  0  0  0  0  0  0  0  0  0
    9.3230   -4.7020   26.6920 C   0  0  0  0  0  0  0  0  0  0  0  0
    3.1760   -3.3750   25.8560 C   0  0  0  0  0  0  0  0  0  0  0  0
   12.4500   -0.5700   25.0120 C   0  0  0  0  0  0  0  0  0  0  0  0
   13.3820   -1.6220   23.1620 C   0  0  0  0  0  0  0  0  0  0  0  0
   12.7900   -2.8660   25.1420 C   0  0  0  0  0  0  0  0  0  0  0  0
    4.2130   -5.4060   27.4900 O   0  0  0  0  0  0  0  0  0  0  0  0
    8.5920   -5.2340   27.7420 C   0  0  0  0  0  0  0  0  0  0  0  0
    1.9590   -3.9970   25.7620 C   0  0  0  0  0  0  0  0  0  0  0  0
    3.3720   -2.0450   26.0890 C   0  0  0  0  0  0  0  0  0  0  0  0
    1.8810   -5.3190   25.5300 F   0  0  0  0  0  0  0  0  0  0  0  0
    4.6220   -1.5390   26.1670 F   0  0  0  0  0  0  0  0  0  0  0  0
    2.1960   -1.1450   26.2600 C   0  0  0  0  0  0  0  0  0  0  0  0
    0.7660   -3.2670   25.9030 C   0  0  0  0  0  0  0  0  0  0  0  0
    0.8380   -1.8880   26.1440 C   0  0  0  0  0  0  0  0  0  0  0  0
  1  2  1  0
  2  3  1  0
  1  4  1  0
  4  5  2  0
  6  4  1  6
  6  7  1  0
  3  8  1  0
  6  9  1  0
  8 10  1  0
  8 11  2  0
  7 12  1  0
  7 13  1  0
  9 14  2  0
  9 15  1  0
  7 16  1  6
 10 17  1  0
 12 18  2  0
 12 19  1  0
 13 19  1  0
 15 20  2  0
 14 21  1  0
 16 22  2  0
 16 23  1  0
 13 24  1  6
 13 25  1  0
 17 26  1  0
 19 27  1  6
 20 28  1  0
 21 28  2  0
 22 29  1  0
 23 30  2  0
 25 31  1  0
 25 32  1  1
 25 33  1  0
 24 34  1  0
 29 35  2  0
 30 35  1  0
 31 36  1  0
 32 37  2  0
 31 38  1  6
 33 39  1  0
 34 39  1  0
 35 40  1  0
 36 41  2  0
 37 41  1  0
 36 42  1  0
 38 43  2  0
 37 44  1  0
 40 45  1  0
 40 46  1  0
 40 47  1  0
 41 48  1  0
 42 49  2  0
 43 49  1  0
 44 50  2  0
 44 51  1  0
 50 52  1  0
 51 53  1  0
 51 54  2  0
 50 55  1  0
 54 56  1  0
 55 56  2  0
M  END
