x3115-x0769-x0540-x3110-x0820-x0426-x0946
     RDKit          3D

 78 86  0  0  0  0  0  0  0  0999 V2000
    7.8960    1.1820   23.4490 N   0  0  0  0  0  0  0  0  0  0  0  0
    8.5740    2.5510   23.6910 C   0  0  2  0  0  0  0  0  0  0  0  0
    7.8420    3.6450   22.9260 C   0  0  0  0  0  0  0  0  0  0  0  0
    7.6910    0.4840   22.1340 C   0  0  0  0  0  0  0  0  0  0  0  0
    8.4750    0.8260   21.0600 O   0  0  0  0  0  0  0  0  0  0  0  0
    6.5640   -0.6400   21.8820 C   0  0  2  0  0  0  0  0  0  0  0  0
   10.0980    2.5050   23.4220 C   0  0  0  0  0  0  0  0  0  0  0  0
    6.9120   -2.1680   21.9680 C   0  0  2  0  0  0  0  0  0  0  0  0
    8.2140    4.7750   23.2670 O   0  0  0  0  0  0  0  0  0  0  0  0
    6.0970   -0.1350   20.5460 C   0  0  0  0  0  0  0  0  0  0  0  0
   10.9440    3.6360   23.4600 C   0  0  0  0  0  0  0  0  0  0  0  0
   10.5780    1.2770   23.1230 C   0  0  0  0  0  0  0  0  0  0  0  0
   10.5270    5.0020   23.8240 C   0  0  0  0  0  0  0  0  0  0  0  0
    6.0800   -3.1070   21.0570 C   0  0  0  0  0  0  0  0  0  0  0  0
    7.9800    5.8180   22.2770 C   0  0  0  0  0  0  0  0  0  0  0  0
    6.5340   -3.6000   22.7230 C   0  0  1  0  0  0  0  0  0  0  0  0
    4.9210    0.5030   20.4320 C   0  0  0  0  0  0  0  0  0  0  0  0
    6.9350   -0.3270   19.4040 C   0  0  0  0  0  0  0  0  0  0  0  0
    8.5330   -2.1080   22.4100 C   0  0  0  0  0  0  0  0  0  0  0  0
   11.9150    1.0420   22.8280 C   0  0  0  0  0  0  0  0  0  0  0  0
   12.4180    3.4960   23.1160 C   0  0  0  0  0  0  0  0  0  0  0  0
   13.3730    4.6610   23.0860 C   0  0  0  0  0  0  0  0  0  0  0  0
    4.9300   -3.0560   20.4410 O   0  0  0  0  0  0  0  0  0  0  0  0
    6.6710   -4.3350   21.2470 C   0  0  2  0  0  0  0  0  0  0  0  0
    4.0500    0.7230   21.4790 C   0  0  0  0  0  0  0  0  0  0  0  0
    9.4550    5.3390   24.6980 O   0  0  0  0  0  0  0  0  0  0  0  0
   11.3280    5.9280   23.2510 O   0  0  0  0  0  0  0  0  0  0  0  0
    6.5910    0.1350   18.1500 N   0  0  0  0  0  0  0  0  0  0  0  0
    4.5940    0.9630   19.1600 C   0  0  0  0  0  0  0  0  0  0  0  0
    9.6880   -2.3830   21.7420 C   0  0  0  0  0  0  0  0  0  0  0  0
    8.6830   -1.6900   23.7520 C   0  0  0  0  0  0  0  0  0  0  0  0
   12.8350    2.0830   22.8120 C   0  0  0  0  0  0  0  0  0  0  0  0
    7.5720   -4.3650   23.0880 N   0  0  0  0  0  0  0  0  0  0  0  0
    5.5150   -4.1530   23.8460 C   0  0  1  0  0  0  0  0  0  0  0  0
   13.2080    5.3710   21.7890 C   0  0  0  0  0  0  0  0  0  0  0  0
    8.1630   -4.6180   20.8630 C   0  0  0  0  0  0  0  0  0  0  0  0
    4.6710    1.6230   22.3980 C   0  0  0  0  0  0  0  0  0  0  0  0
    5.3200    0.8420   18.0110 C   0  0  0  0  0  0  0  0  0  0  0  0
   11.0080   -2.2500   22.4070 C   0  0  0  0  0  0  0  0  0  0  0  0
    9.9420   -1.5770   24.3390 C   0  0  0  0  0  0  0  0  0  0  0  0
    6.1640   -4.3920   25.2840 C   0  0  2  0  0  0  0  0  0  0  0  0
    4.3800   -3.3810   24.1580 C   0  0  0  0  0  0  0  0  0  0  0  0
    7.2700   -5.8480   23.0480 C   0  0  0  0  0  0  0  0  0  0  0  0
    4.9950   -5.4870   23.5360 N   0  0  0  0  0  0  0  0  0  0  0  0
    3.8660    2.6820   22.6100 N   0  0  0  0  0  0  0  0  0  0  0  0
   11.1320   -1.8560   23.6940 C   0  0  0  0  0  0  0  0  0  0  0  0
    5.3780   -5.0870   26.1650 C   0  0  0  0  0  0  0  0  0  0  0  0
    3.6670   -3.7950   25.4150 C   0  0  0  0  0  0  0  0  0  0  0  0
    6.5160   -3.2760   26.2720 C   0  0  0  0  0  0  0  0  0  0  0  0
    5.9420   -6.3340   22.9010 C   0  0  0  0  0  0  0  0  0  0  0  0
   12.4990   -1.7410   24.3450 C   0  0  0  0  0  0  0  0  0  0  0  0
    2.6340    2.3710   23.0660 C   0  0  1  0  0  0  0  0  0  0  0  0
    4.0810   -4.8320   26.1850 C   0  0  0  0  0  0  0  0  0  0  0  0
    5.9280   -5.9470   27.1530 C   0  0  0  0  0  0  0  0  0  0  0  0
    6.7150   -3.6280   27.6520 C   0  0  0  0  0  0  0  0  0  0  0  0
    2.6720   -2.9540   25.8260 C   0  0  0  0  0  0  0  0  0  0  0  0
   12.5750   -0.5880   25.0800 C   0  0  0  0  0  0  0  0  0  0  0  0
   13.4660   -1.5610   23.1690 C   0  0  0  0  0  0  0  0  0  0  0  0
   12.9300   -2.9120   24.9710 C   0  0  0  0  0  0  0  0  0  0  0  0
    2.7160    1.5150   24.1750 N   0  0  0  0  0  0  0  0  0  0  0  0
    1.9740    3.5250   23.2860 N   0  0  0  0  0  0  0  0  0  0  0  0
    3.1490   -5.4450   26.9860 O   0  0  0  0  0  0  0  0  0  0  0  0
    6.6460   -5.1720   28.0550 C   0  0  0  0  0  0  0  0  0  0  0  0
    3.1970   -1.7040   26.0850 C   0  0  0  0  0  0  0  0  0  0  0  0
    1.3630   -3.2860   25.9750 C   0  0  0  0  0  0  0  0  0  0  0  0
    2.0020    0.5130   24.0530 O   0  0  0  0  0  0  0  0  0  0  0  0
    0.7370    3.4250   24.0670 C   0  0  1  0  0  0  0  0  0  0  0  0
    4.5160   -1.4760   25.9280 F   0  0  0  0  0  0  0  0  0  0  0  0
    0.5520   -2.3260   26.3790 C   0  0  0  0  0  0  0  0  0  0  0  0
    2.3880   -0.6980   26.5020 C   0  0  0  0  0  0  0  0  0  0  0  0
    0.4680    4.8230   24.6730 C   0  0  1  0  0  0  0  0  0  0  0  0
   -0.4520    2.8740   23.2610 C   0  0  0  0  0  0  0  0  0  0  0  0
    1.0570   -1.0060   26.6480 C   0  0  0  0  0  0  0  0  0  0  0  0
   -0.8120    4.8800   25.2220 C   0  0  0  0  0  0  0  0  0  0  0  0
   -1.7320    3.3250   23.6130 C   0  0  0  0  0  0  0  0  0  0  0  0
    1.5150    5.3180   25.6780 C   0  0  0  0  0  0  0  0  0  0  0  0
   -1.8380    4.5200   24.3290 C   0  0  0  0  0  0  0  0  0  0  0  0
    2.6500    4.5880   25.4930 F   0  0  0  0  0  0  0  0  0  0  0  0
  1  2  1  0
  2  3  1  6
  1  4  1  0
  4  5  2  0
  6  4  1  6
  2  7  1  0
  6  8  1  0
  3  9  1  0
  6 10  1  0
  7 11  2  0
  7 12  1  0
 11 13  1  0
  8 14  1  0
  9 15  1  0
  8 16  1  0
 10 17  1  0
 10 18  2  0
  8 19  1  6
 12 20  2  0
 11 21  1  0
 21 22  1  0
 14 23  2  0
 14 24  1  0
 16 24  1  0
 17 25  1  0
 13 26  2  0
 13 27  1  0
 18 28  1  0
 17 29  2  0
 19 30  2  0
 19 31  1  0
 20 32  1  0
 21 32  2  0
 16 33  1  1
 16 34  1  0
 22 35  1  0
 24 36  1  6
 25 37  1  0
 28 38  2  0
 29 38  1  0
 30 39  1  0
 31 40  2  0
 34 41  1  0
 34 42  1  1
 33 43  1  0
 34 44  1  0
 37 45  1  0
 39 46  2  0
 40 46  1  0
 41 47  1  0
 42 48  2  0
 41 49  1  1
 43 50  1  0
 44 50  1  0
 46 51  1  0
 52 45  1  1
 47 53  2  0
 48 53  1  0
 47 54  1  0
 49 55  2  0
 48 56  1  0
 51 57  1  0
 51 58  1  0
 51 59  1  0
 52 60  1  0
 52 61  1  0
 53 62  1  0
 54 63  2  0
 55 63  1  0
 56 64  2  0
 56 65  1  0
 60 66  2  0
 67 61  1  6
 64 68  1  0
 65 69  2  0
 64 70  1  0
 67 71  1  0
 67 72  1  0
 69 73  1  0
 70 73  2  0
 71 74  1  0
 72 75  1  0
 71 76  1  1
 74 77  1  0
 75 77  1  0
 76 78  1  0
M  END
