x3115-x0769-x0540-x3110-x0691-x0978-x1308-x0946
     RDKit          3D

 77 83  0  0  0  0  0  0  0  0999 V2000
    7.9080    1.3620   23.2890 N   0  0  0  0  0  0  0  0  0  0  0  0
    8.6910    2.6180   23.1620 C   0  0  1  0  0  0  0  0  0  0  0  0
    8.0340    3.7120   23.9680 C   0  0  0  0  0  0  0  0  0  0  0  0
    7.7550    0.7880   21.9240 C   0  0  0  0  0  0  0  0  0  0  0  0
    8.5110    1.1800   20.8470 O   0  0  0  0  0  0  0  0  0  0  0  0
    6.6360   -0.2770   21.5600 C   0  0  2  0  0  0  0  0  0  0  0  0
   10.1590    2.6400   23.1220 C   0  0  0  0  0  0  0  0  0  0  0  0
    6.9410   -1.7070   21.8510 N   0  0  0  0  0  0  0  0  0  0  0  0
    8.4730    4.9220   23.4400 O   0  0  0  0  0  0  0  0  0  0  0  0
    6.1990    0.2320   20.2720 C   0  0  0  0  0  0  0  0  0  0  0  0
   11.0490    3.7110   23.2770 C   0  0  0  0  0  0  0  0  0  0  0  0
   10.7150    1.3880   22.8620 C   0  0  0  0  0  0  0  0  0  0  0  0
   10.7460    5.1000   23.6140 C   0  0  0  0  0  0  0  0  0  0  0  0
    6.1090   -2.8860   21.3800 C   0  0  0  0  0  0  0  0  0  0  0  0
    7.8280    5.4490   22.2690 C   0  0  0  0  0  0  0  0  0  0  0  0
    5.0210    1.1170   20.1500 C   0  0  0  0  0  0  0  0  0  0  0  0
    6.9420   -0.1250   19.0210 C   0  0  0  0  0  0  0  0  0  0  0  0
    8.3100   -1.7800   22.4210 C   0  0  0  0  0  0  0  0  0  0  0  0
   12.0710    1.1940   22.7230 C   0  0  0  0  0  0  0  0  0  0  0  0
   12.3720    3.4990   23.1000 C   0  0  0  0  0  0  0  0  0  0  0  0
   13.2740    4.6900   23.2000 C   0  0  0  0  0  0  0  0  0  0  0  0
    4.8090   -3.0100   21.2700 O   0  0  0  0  0  0  0  0  0  0  0  0
    6.7820   -4.1360   20.8970 C   0  0  1  0  0  0  0  0  0  0  0  0
    4.2500    1.4980   21.2680 C   0  0  0  0  0  0  0  0  0  0  0  0
    9.9840    5.3350   24.6100 O   0  0  0  0  0  0  0  0  0  0  0  0
   11.2550    6.2030   22.9770 O   0  0  0  0  0  0  0  0  0  0  0  0
    6.4220    0.4620   17.7880 N   0  0  0  0  0  0  0  0  0  0  0  0
    4.7090    1.5480   18.9140 C   0  0  0  0  0  0  0  0  0  0  0  0
    9.4700   -1.4660   21.7060 C   0  0  0  0  0  0  0  0  0  0  0  0
    8.5790   -2.1230   23.6940 C   0  0  0  0  0  0  0  0  0  0  0  0
   12.9010    2.2860   22.8310 C   0  0  0  0  0  0  0  0  0  0  0  0
   13.2040    5.4130   21.8350 C   0  0  0  0  0  0  0  0  0  0  0  0
    8.1690   -3.6770   20.4410 C   0  0  0  0  0  0  0  0  0  0  0  0
    4.9190    2.5950   22.0480 C   0  0  0  0  0  0  0  0  0  0  0  0
    5.3520    1.2600   17.7790 C   0  0  0  0  0  0  0  0  0  0  0  0
   10.7040   -1.5090   22.2530 C   0  0  0  0  0  0  0  0  0  0  0  0
    9.7980   -2.1820   24.3050 C   0  0  0  0  0  0  0  0  0  0  0  0
    6.7860   -5.1330   21.9300 N   0  0  0  0  0  0  0  0  0  0  0  0
    4.3290    3.2500   23.0740 N   0  0  0  0  0  0  0  0  0  0  0  0
   10.9120   -1.8770   23.6230 C   0  0  0  0  0  0  0  0  0  0  0  0
    5.5920   -5.8480   22.0330 C   0  0  0  0  0  0  0  0  0  0  0  0
    7.4970   -5.0350   23.0640 C   0  0  0  0  0  0  0  0  0  0  0  0
   12.3840   -1.8590   24.1480 C   0  0  0  0  0  0  0  0  0  0  0  0
    3.1420    2.7610   23.4720 C   0  0  0  0  0  0  0  0  0  0  0  0
    4.6110   -5.3030   22.8940 C   0  0  2  0  0  0  0  0  0  0  0  0
    6.6020   -5.0310   24.2980 C   0  0  0  0  0  0  0  0  0  0  0  0
   12.6320   -0.6490   24.7880 C   0  0  0  0  0  0  0  0  0  0  0  0
   13.3410   -2.0250   22.9660 C   0  0  0  0  0  0  0  0  0  0  0  0
   12.6200   -2.9240   24.9250 C   0  0  0  0  0  0  0  0  0  0  0  0
    3.4360   -6.2150   23.2830 C   0  0  2  0  0  0  0  0  0  0  0  0
    4.0340   -4.1910   22.3300 O   0  0  0  0  0  0  0  0  0  0  0  0
    3.1170    1.7980   24.3270 O   0  0  0  0  0  0  0  0  0  0  0  0
    1.9400    3.2230   23.0430 N   0  0  0  0  0  0  0  0  0  0  0  0
    5.2080   -4.7910   24.1160 N   0  0  0  0  0  0  0  0  0  0  0  0
    2.1360   -5.4920   23.2070 N   0  0  0  0  0  0  0  0  0  0  0  0
    3.6410   -6.8640   24.6640 C   0  0  1  0  0  0  0  0  0  0  0  0
    4.3610   -5.5110   25.4930 S   0  0  0  0  0  0  0  0  0  0  0  0
    0.7320    3.2840   23.8200 C   0  0  0  0  0  0  0  0  0  0  0  0
    2.6090   -7.6520   25.2070 C   0  0  0  0  0  0  0  0  0  0  0  0
    4.6100   -7.8640   24.4360 O   0  0  0  0  0  0  0  0  0  0  0  0
    0.9630   -6.1310   22.6100 C   0  0  0  0  0  0  0  0  0  0  0  0
    5.4360   -5.8520   26.3990 O   0  0  0  0  0  0  0  0  0  0  0  0
    0.5920    4.7060   24.3970 C   0  0  0  0  0  0  0  0  0  0  0  0
   -0.5340    3.0390   22.9840 C   0  0  0  0  0  0  0  0  0  0  0  0
    3.6020   -3.9630   25.8460 C   0  0  0  0  0  0  0  0  0  0  0  0
    1.1070   -7.4160   22.0380 O   0  0  0  0  0  0  0  0  0  0  0  0
   -0.3180   -5.5290   22.5530 C   0  0  0  0  0  0  0  0  0  0  0  0
   -0.6850    4.8150   25.2870 C   0  0  0  0  0  0  0  0  0  0  0  0
   -1.8710    3.3420   23.6660 C   0  0  0  0  0  0  0  0  0  0  0  0
    4.4320   -2.6850   26.1300 C   0  0  0  0  0  0  0  0  0  0  0  0
    2.1840   -3.8410   25.8680 C   0  0  0  0  0  0  0  0  0  0  0  0
    5.7950   -2.6110   26.1570 F   0  0  0  0  0  0  0  0  0  0  0  0
   -1.9660    4.6520   24.4590 C   0  0  0  0  0  0  0  0  0  0  0  0
    1.5690   -2.5940   26.1370 C   0  0  0  0  0  0  0  0  0  0  0  0
    3.7300   -1.5050   26.3790 C   0  0  0  0  0  0  0  0  0  0  0  0
   -0.1550   -2.3540   26.1900 Cl  0  0  0  0  0  0  0  0  0  0  0  0
    2.3490   -1.4910   26.3760 C   0  0  0  0  0  0  0  0  0  0  0  0
  1  2  1  0
  2  3  1  1
  1  4  1  0
  4  5  2  0
  6  4  1  6
  2  7  1  0
  6  8  1  0
  3  9  1  0
  6 10  1  0
  7 11  2  0
  7 12  1  0
 11 13  1  0
  8 14  1  0
  9 15  1  0
 10 16  1  0
 10 17  2  0
  8 18  1  0
 12 19  2  0
 11 20  1  0
 20 21  1  0
 14 22  2  0
 14 23  1  0
 16 24  1  0
 13 25  2  0
 13 26  1  0
 17 27  1  0
 16 28  2  0
 18 29  2  0
 18 30  1  0
 19 31  1  0
 20 31  2  0
 21 32  1  0
 23 33  1  1
 24 34  1  0
 27 35  2  0
 28 35  1  0
 29 36  1  0
 30 37  2  0
 23 38  1  0
 34 39  1  0
 36 40  2  0
 37 40  1  0
 38 41  1  0
 38 42  1  0
 40 43  1  0
 39 44  1  0
 41 45  1  0
 42 46  1  0
 43 47  1  0
 43 48  1  0
 43 49  1  0
 45 50  1  0
 45 51  1  6
 44 52  2  0
 44 53  1  0
 45 54  1  0
 46 54  1  0
 50 55  1  1
 50 56  1  0
 54 57  1  0
 56 57  1  0
 53 58  1  0
 56 59  1  1
 56 60  1  0
 55 61  1  0
 57 62  2  0
 58 63  1  0
 58 64  1  0
 57 65  1  0
 61 66  2  0
 61 67  1  0
 63 68  1  0
 64 69  1  0
 65 70  2  0
 65 71  1  0
 70 72  1  0
 68 73  1  0
 69 73  1  0
 71 74  2  0
 70 75  1  0
 74 76  1  0
 74 77  1  0
 75 77  2  0
M  END
