x3113-x1077
     RDKit          3D

 38 40  0  0  0  0  0  0  0  0999 V2000
    7.0740   -1.7790   21.9550 N   0  0  0  0  0  0  0  0  0  0  0  0
    6.1750   -2.9070   21.4290 C   0  0  0  0  0  0  0  0  0  0  0  0
    4.8410   -3.0830   21.3660 O   0  0  0  0  0  0  0  0  0  0  0  0
    6.7160   -0.3020   21.7960 C   0  0  1  0  0  0  0  0  0  0  0  0
    8.4380   -1.9010   22.5770 C   0  0  0  0  0  0  0  0  0  0  0  0
    6.8580   -4.1040   20.8300 C   0  0  0  0  0  0  0  0  0  0  0  0
    7.8430    0.6000   21.9930 C   0  0  0  0  0  0  0  0  0  0  0  0
    6.1830    0.1650   20.4410 C   0  0  0  0  0  0  0  0  0  0  0  0
    9.5400   -1.4430   21.7990 C   0  0  0  0  0  0  0  0  0  0  0  0
    8.7150   -2.4060   23.8790 C   0  0  0  0  0  0  0  0  0  0  0  0
    8.3210   -3.8070   20.4800 C   0  0  0  0  0  0  0  0  0  0  0  0
    8.0470    1.1540   23.2320 N   0  0  0  0  0  0  0  0  0  0  0  0
    8.5880    0.9140   21.0760 O   0  0  0  0  0  0  0  0  0  0  0  0
    5.0260    0.9790   20.2690 C   0  0  0  0  0  0  0  0  0  0  0  0
    6.8960   -0.2140   19.2890 C   0  0  0  0  0  0  0  0  0  0  0  0
   10.8430   -1.4650   22.2840 C   0  0  0  0  0  0  0  0  0  0  0  0
   10.0670   -2.3590   24.2410 C   0  0  0  0  0  0  0  0  0  0  0  0
    7.8580   -2.9730   24.9450 C   0  0  0  0  0  0  0  0  0  0  0  0
    9.0410    2.1000   23.3410 C   0  0  0  0  0  0  0  0  0  0  0  0
    6.4520    0.2330   17.9540 N   0  0  0  0  0  0  0  0  0  0  0  0
    4.5660    1.4260   19.0290 C   0  0  0  0  0  0  0  0  0  0  0  0
   11.1250   -1.9180   23.5370 C   0  0  0  0  0  0  0  0  0  0  0  0
    8.6930   -3.9730   25.7140 N   0  0  0  0  0  0  0  0  0  0  0  0
   10.3540    1.6850   23.1470 C   0  0  0  0  0  0  0  0  0  0  0  0
   12.5540   -1.9010   24.0890 C   0  0  0  0  0  0  0  0  0  0  0  0
    5.2590    1.0700   17.9040 C   0  0  0  0  0  0  0  0  0  0  0  0
    9.4480   -5.0020   24.9560 C   0  0  0  0  0  0  0  0  0  0  0  0
    8.0050   -4.5470   26.8470 C   0  0  0  0  0  0  0  0  0  0  0  0
   11.3080    2.6680   23.4920 C   0  0  0  0  0  0  0  0  0  0  0  0
   13.4530   -2.1310   23.0910 C   0  0  0  0  0  0  0  0  0  0  0  0
   12.8500   -2.9600   25.1800 C   0  0  0  0  0  0  0  0  0  0  0  0
   12.7210   -0.6220   24.6880 C   0  0  0  0  0  0  0  0  0  0  0  0
    8.6440   -5.5760   23.7990 C   0  0  0  0  0  0  0  0  0  0  0  0
    6.7660   -4.9240   26.3550 C   0  0  0  0  0  0  0  0  0  0  0  0
   11.5180    3.5820   22.4850 O   0  0  0  0  0  0  0  0  0  0  0  0
    6.8830   -5.9290   25.3490 O   0  0  0  0  0  0  0  0  0  0  0  0
    7.2620   -5.6010   24.0020 C   0  0  0  0  0  0  0  0  0  0  0  0
   12.7370    4.3260   22.6160 C   0  0  0  0  0  0  0  0  0  0  0  0
  1  2  1  0
  2  3  2  0
  1  4  1  0
  1  5  1  0
  2  6  1  0
  4  7  1  6
  4  8  1  0
  5  9  2  0
  5 10  1  0
  6 11  1  0
  7 12  1  0
  7 13  2  0
  8 14  2  0
  8 15  1  0
  9 16  1  0
 10 17  2  0
 10 18  1  0
 12 19  1  0
 15 20  2  0
 14 21  1  0
 16 22  2  0
 17 22  1  0
 18 23  1  0
 19 24  1  0
 22 25  1  0
 20 26  1  0
 21 26  2  0
 23 27  1  0
 23 28  1  0
 24 29  1  0
 25 30  1  0
 25 31  1  0
 25 32  1  0
 27 33  1  0
 28 34  1  0
 29 35  1  0
 34 36  1  0
 33 37  1  0
 36 37  1  0
 35 38  1  0
M  END
