x3117-x1493-x3113-x0540-x1119
     RDKit          3D

 80 88  0  0  0  0  0  0  0  0999 V2000
    6.8950   -1.7320   22.0980 C   0  0  1  0  0  0  0  0  0  0  0  0
    5.9470   -2.8970   21.3160 C   0  0  0  0  0  0  0  0  0  0  0  0
    4.7700   -2.8440   20.7770 O   0  0  0  0  0  0  0  0  0  0  0  0
    6.6640   -0.2510   21.7720 C   0  0  1  0  0  0  0  0  0  0  0  0
    6.3220   -2.1400   23.4460 C   0  0  0  0  0  0  0  0  0  0  0  0
    8.4400   -1.8210   22.4840 C   0  0  0  0  0  0  0  0  0  0  0  0
    6.2250   -4.3130   21.3960 C   0  0  1  0  0  0  0  0  0  0  0  0
    7.9150    0.6960   21.9980 C   0  0  0  0  0  0  0  0  0  0  0  0
    6.2810    0.1000   20.5090 C   0  0  0  0  0  0  0  0  0  0  0  0
    9.5730   -2.2400   21.7790 C   0  0  0  0  0  0  0  0  0  0  0  0
    8.6830   -1.3750   23.7820 C   0  0  0  0  0  0  0  0  0  0  0  0
    6.4830   -3.6760   23.7480 C   0  0  1  0  0  0  0  0  0  0  0  0
    7.7150   -4.6490   21.0810 C   0  0  0  0  0  0  0  0  0  0  0  0
    8.1820    1.4670   23.1990 N   0  0  0  0  0  0  0  0  0  0  0  0
    8.6640    0.8360   21.0420 O   0  0  0  0  0  0  0  0  0  0  0  0
    5.1030    0.8180   20.3100 C   0  0  0  0  0  0  0  0  0  0  0  0
    6.9020   -0.1320   19.2700 C   0  0  0  0  0  0  0  0  0  0  0  0
   10.8720   -2.2260   22.3430 C   0  0  0  0  0  0  0  0  0  0  0  0
    9.9350   -1.3650   24.3120 C   0  0  0  0  0  0  0  0  0  0  0  0
    5.6190   -4.5060   22.8660 C   0  0  2  0  0  0  0  0  0  0  0  0
    7.8170   -4.2760   23.6030 N   0  0  0  0  0  0  0  0  0  0  0  0
    4.2360    1.1900   21.5140 C   0  0  0  0  0  0  0  0  0  0  0  0
    6.5270    0.2380   18.0280 N   0  0  0  0  0  0  0  0  0  0  0  0
    4.6580    1.2250   19.0980 C   0  0  0  0  0  0  0  0  0  0  0  0
   11.0600   -1.7850   23.6480 C   0  0  0  0  0  0  0  0  0  0  0  0
    9.0650    2.7160   23.0850 C   0  0  2  0  0  0  0  0  0  0  0  0
    5.4970   -5.8140   23.4960 N   0  0  0  0  0  0  0  0  0  0  0  0
    7.8370   -5.7770   23.4440 C   0  0  0  0  0  0  0  0  0  0  0  0
   10.3340    2.1840   22.4450 C   0  0  0  0  0  0  0  0  0  0  0  0
   12.3820   -1.7220   24.3900 C   0  0  0  0  0  0  0  0  0  0  0  0
    4.9430    2.1250   22.2760 C   0  0  0  0  0  0  0  0  0  0  0  0
    5.4840   -5.8690   24.9200 C   0  0  0  0  0  0  0  0  0  0  0  0
    5.3910    0.9270   17.9640 C   0  0  0  0  0  0  0  0  0  0  0  0
    9.6900    3.4670   24.1580 C   0  0  1  0  0  0  0  0  0  0  0  0
    8.3450    3.4450   22.1490 C   0  0  0  0  0  0  0  0  0  0  0  0
    6.5720   -6.4760   22.8790 C   0  0  0  0  0  0  0  0  0  0  0  0
   11.1940    3.5240   23.9450 N   0  0  0  0  0  0  0  0  0  0  0  0
   11.3450    2.2890   23.5320 C   0  0  0  0  0  0  0  0  0  0  0  0
   13.0620   -2.8610   24.8370 C   0  0  0  0  0  0  0  0  0  0  0  0
   13.4730   -2.2240   23.5460 C   0  0  0  0  0  0  0  0  0  0  0  0
   12.6610   -0.5200   24.8350 C   0  0  0  0  0  0  0  0  0  0  0  0
    3.9600    2.9460   22.9480 N   0  0  0  0  0  0  0  0  0  0  0  0
    4.3250   -6.2850   25.5360 C   0  0  0  0  0  0  0  0  0  0  0  0
    6.4650   -5.5850   25.6260 O   0  0  0  0  0  0  0  0  0  0  0  0
    9.1790    4.7880   24.4140 O   0  0  0  0  0  0  0  0  0  0  0  0
    7.9530    4.7540   22.4580 C   0  0  0  0  0  0  0  0  0  0  0  0
   11.7620    4.3810   23.0200 C   0  0  0  0  0  0  0  0  0  0  0  0
    2.7670    2.3570   23.5430 C   0  0  0  0  0  0  0  0  0  0  0  0
    8.8350    5.5000   23.2310 C   0  0  0  0  0  0  0  0  0  0  0  0
    2.7270    1.3710   24.2780 O   0  0  0  0  0  0  0  0  0  0  0  0
    1.7120    3.0940   23.1420 N   0  0  0  0  0  0  0  0  0  0  0  0
   12.8520    3.7990   22.3000 C   0  0  0  0  0  0  0  0  0  0  0  0
   13.7070    4.7710   21.8070 C   0  0  0  0  0  0  0  0  0  0  0  0
    0.5290    3.2280   23.9720 C   0  0  0  0  0  0  0  0  0  0  0  0
   14.6990    5.0210   22.7430 C   0  0  0  0  0  0  0  0  0  0  0  0
    0.5540    4.6160   24.6270 C   0  0  0  0  0  0  0  0  0  0  0  0
   -0.6020    2.8730   23.2360 C   0  0  0  0  0  0  0  0  0  0  0  0
   16.0250    4.5620   22.5530 C   0  0  0  0  0  0  0  0  0  0  0  0
   -0.8130    5.0750   25.1150 C   0  0  0  0  0  0  0  0  0  0  0  0
   -1.8560    3.1840   23.7620 C   0  0  0  0  0  0  0  0  0  0  0  0
   17.0780    4.9140   23.4670 C   0  0  0  0  0  0  0  0  0  0  0  0
   -1.8730    4.6480   24.3100 C   0  0  0  0  0  0  0  0  0  0  0  0
   18.5770    5.0060   23.0850 C   0  0  0  0  0  0  0  0  0  0  0  0
   19.5140    6.0810   23.1590 N   0  0  0  0  0  0  0  0  0  0  0  0
   20.7170    5.5190   23.5530 C   0  0  0  0  0  0  0  0  0  0  0  0
   21.8840    5.4110   22.7720 C   0  0  0  0  0  0  0  0  0  0  0  0
   20.7210    4.9880   24.8140 C   0  0  0  0  0  0  0  0  0  0  0  0
   22.9950    4.7070   23.2890 C   0  0  0  0  0  0  0  0  0  0  0  0
   21.7790    4.3110   25.3170 C   0  0  0  0  0  0  0  0  0  0  0  0
   22.8850    4.1400   24.5670 C   0  0  0  0  0  0  0  0  0  0  0  0
   24.0760    3.1200   25.3450 S   0  0  0  0  0  0  0  0  0  0  0  0
   23.4750    1.8070   25.3560 O   0  0  0  0  0  0  0  0  0  0  0  0
   24.1430    3.6320   26.9210 N   0  0  0  0  0  0  0  0  0  0  0  0
   25.3510    3.2980   24.7090 O   0  0  0  0  0  0  0  0  0  0  0  0
   25.0290    4.6230   27.3180 C   0  0  0  0  0  0  0  0  0  0  0  0
   25.1600    4.8150   28.6380 N   0  0  0  0  0  0  0  0  0  0  0  0
   25.7200    5.3490   26.3570 C   0  0  0  0  0  0  0  0  0  0  0  0
   26.0190    5.7760   29.0260 C   0  0  0  0  0  0  0  0  0  0  0  0
   26.5980    6.3300   26.7870 C   0  0  0  0  0  0  0  0  0  0  0  0
   26.7550    6.5530   28.1440 C   0  0  0  0  0  0  0  0  0  0  0  0
  1  2  1  0
  2  3  2  0
  1  4  1  0
  1  5  1  0
  1  6  1  1
  2  7  1  0
  4  8  1  6
  4  9  1  0
  6 10  2  0
  6 11  1  0
 12  5  1  6
  7 13  1  1
  8 14  1  0
  8 15  2  0
  9 16  1  0
  9 17  2  0
 10 18  1  0
 11 19  2  0
  7 20  1  0
 12 20  1  0
 12 21  1  0
 16 22  1  0
 17 23  1  0
 16 24  2  0
 18 25  2  0
 19 25  1  0
 26 14  1  1
 20 27  1  1
 21 28  1  0
 26 29  1  0
 25 30  1  0
 22 31  1  0
 27 32  1  0
 23 33  2  0
 24 33  1  0
 26 34  1  0
 26 35  1  0
 27 36  1  0
 28 36  1  0
 34 37  1  0
 29 38  1  0
 37 38  1  0
 30 39  1  0
 30 40  1  0
 30 41  1  0
 31 42  1  0
 32 43  1  0
 32 44  2  0
 34 45  1  6
 35 46  1  0
 37 47  1  0
 42 48  1  0
 45 49  1  0
 46 49  1  0
 48 50  2  0
 48 51  1  0
 47 52  1  0
 52 53  1  0
 51 54  1  0
 53 55  1  0
 54 56  1  0
 54 57  1  0
 55 58  1  0
 56 59  1  0
 57 60  1  0
 58 61  1  0
 59 62  1  0
 60 62  1  0
 61 63  1  0
 63 64  1  0
 64 65  1  0
 65 66  2  0
 65 67  1  0
 66 68  1  0
 67 69  2  0
 68 70  2  0
 69 70  1  0
 70 71  1  0
 71 72  2  0
 71 73  1  0
 71 74  2  0
 73 75  1  0
 75 76  2  0
 75 77  1  0
 76 78  1  0
 77 79  2  0
 78 80  2  0
 79 80  1  0
M  END
