x3113-x2764
     RDKit          3D

 32 33  0  0  0  0  0  0  0  0999 V2000
    7.1080   -1.6850   21.1580 N   0  0  0  0  0  0  0  0  0  0  0  0
    6.2320   -2.9080   21.1990 C   0  0  0  0  0  0  0  0  0  0  0  0
    4.9410   -3.0720   20.9270 O   0  0  0  0  0  0  0  0  0  0  0  0
    6.7770   -0.2540   21.5160 C   0  0  1  0  0  0  0  0  0  0  0  0
    8.5450   -1.9210   20.9870 N   0  0  0  0  0  0  0  0  0  0  0  0
    6.9140   -4.2110   21.6260 C   0  0  0  0  0  0  0  0  0  0  0  0
    7.9330    0.5730   21.8480 C   0  0  0  0  0  0  0  0  0  0  0  0
    6.1530    0.3620   20.2830 C   0  0  0  0  0  0  0  0  0  0  0  0
    9.3040   -1.9070   22.2020 C   0  0  0  0  0  0  0  0  0  0  0  0
    8.2520   -4.6030   20.9190 C   0  0  0  0  0  0  0  0  0  0  0  0
    7.8130    1.4860   22.8830 N   0  0  0  0  0  0  0  0  0  0  0  0
    8.9820    0.5150   21.2400 O   0  0  0  0  0  0  0  0  0  0  0  0
    5.0250    1.1950   20.1720 C   0  0  0  0  0  0  0  0  0  0  0  0
    6.7730    0.0800   19.0420 C   0  0  0  0  0  0  0  0  0  0  0  0
   10.6570   -1.9300   22.5040 C   0  0  0  0  0  0  0  0  0  0  0  0
    8.3850   -1.8520   23.5230 C   0  0  0  0  0  0  0  0  0  0  0  0
    8.8250    2.4020   23.1460 C   0  0  1  0  0  0  0  0  0  0  0  0
    6.3820    0.5360   17.8140 N   0  0  0  0  0  0  0  0  0  0  0  0
    4.6270    1.6590   18.9430 C   0  0  0  0  0  0  0  0  0  0  0  0
   11.0710   -1.9020   23.8470 C   0  0  0  0  0  0  0  0  0  0  0  0
    8.8590   -1.8290   24.7760 C   0  0  0  0  0  0  0  0  0  0  0  0
   10.1600    1.9940   23.0450 C   0  0  0  0  0  0  0  0  0  0  0  0
   12.5570   -1.9030   24.2140 C   0  0  0  0  0  0  0  0  0  0  0  0
    8.3120    3.5730   22.3550 N   0  0  0  0  0  0  0  0  0  0  0  0
    5.3060    1.3260   17.8110 C   0  0  0  0  0  0  0  0  0  0  0  0
   10.2530   -1.8580   24.8490 C   0  0  0  0  0  0  0  0  0  0  0  0
   11.0900    2.9790   23.4400 C   0  0  0  0  0  0  0  0  0  0  0  0
   13.3840   -2.1200   23.1400 C   0  0  0  0  0  0  0  0  0  0  0  0
   12.9290   -2.9690   25.2710 C   0  0  0  0  0  0  0  0  0  0  0  0
   12.7610   -0.6250   24.7870 C   0  0  0  0  0  0  0  0  0  0  0  0
   11.6160    3.7060   22.3970 O   0  0  0  0  0  0  0  0  0  0  0  0
   12.8480    4.3730   22.6890 C   0  0  0  0  0  0  0  0  0  0  0  0
  1  2  1  0
  2  3  2  0
  1  4  1  0
  1  5  1  0
  2  6  1  0
  4  7  1  6
  4  8  1  0
  5  9  1  0
  6 10  1  0
  7 11  1  0
  7 12  2  0
  8 13  2  0
  8 14  1  0
  9 15  2  0
  9 16  1  0
 11 17  1  0
 14 18  2  0
 13 19  1  0
 15 20  1  0
 16 21  2  0
 17 22  1  0
 20 23  1  0
 17 24  1  6
 18 25  1  0
 19 25  2  0
 20 26  2  0
 21 26  1  0
 22 27  1  0
 23 28  1  0
 23 29  1  0
 23 30  1  0
 27 31  1  0
 31 32  1  0
M  END
