x3113-x3115-x1311-x0540-x3110-x0786-x2754-x2776-x0426-x2929-x0946
     RDKit          3D

116128  0  0  0  0  0  0  0  0999 V2000
    7.3290    1.3390   23.6230 N   0  0  0  0  0  0  0  0  0  0  0  0
    7.3120    0.8820   22.1900 C   0  0  0  0  0  0  0  0  0  0  0  0
    7.9370    1.3680   21.2400 O   0  0  0  0  0  0  0  0  0  0  0  0
    7.5430    2.6360   24.2440 C   0  0  0  0  0  0  0  0  0  0  0  0
    6.3720   -0.4070   21.8390 C   0  0  2  0  0  0  0  0  0  0  0  0
    8.8200    3.4400   24.3140 C   0  0  0  0  0  0  0  0  0  0  0  0
    6.4000    3.1090   24.8350 C   0  0  0  0  0  0  0  0  0  0  0  0
    6.7680   -1.5990   22.0520 N   0  0  0  0  0  0  0  0  0  0  0  0
    5.6800   -0.0710   20.4710 C   0  0  0  0  0  0  0  0  0  0  0  0
    8.6860    4.6960   25.0540 C   0  0  0  0  0  0  0  0  0  0  0  0
    6.1980    4.3430   25.5780 C   0  0  0  0  0  0  0  0  0  0  0  0
   10.1920    3.0280   23.6930 C   0  0  0  0  0  0  0  0  0  0  0  0
    5.9670   -2.8930   21.8320 C   0  0  0  0  0  0  0  0  0  0  0  0
    4.8500    4.6980   26.1670 C   0  0  0  0  0  0  0  0  0  0  0  0
    9.6800    5.6160   25.2920 O   0  0  0  0  0  0  0  0  0  0  0  0
    4.3850    0.5350   20.1790 C   0  0  0  0  0  0  0  0  0  0  0  0
    6.4750   -0.3940   19.1400 C   0  0  0  0  0  0  0  0  0  0  0  0
    8.1610   -1.7160   22.7030 C   0  0  0  0  0  0  0  0  0  0  0  0
    7.3530    5.1500   25.6910 C   0  0  0  0  0  0  0  0  0  0  0  0
   11.2020    4.0060   23.3380 C   0  0  0  0  0  0  0  0  0  0  0  0
   10.5480    1.7070   23.4380 C   0  0  0  0  0  0  0  0  0  0  0  0
    4.6750   -2.9570   21.4640 O   0  0  0  0  0  0  0  0  0  0  0  0
    6.4830   -4.3880   21.8950 C   0  0  1  0  0  0  0  0  0  0  0  0
    7.2820    6.3530   26.3870 O   0  0  0  0  0  0  0  0  0  0  0  0
    3.3190    0.9900   21.1980 C   0  0  0  0  0  0  0  0  0  0  0  0
    6.0300   -0.1370   17.8850 N   0  0  0  0  0  0  0  0  0  0  0  0
    3.9870    0.7730   18.8310 C   0  0  0  0  0  0  0  0  0  0  0  0
    9.3230   -1.9480   21.8970 C   0  0  0  0  0  0  0  0  0  0  0  0
    8.3770   -1.5960   24.1290 C   0  0  0  0  0  0  0  0  0  0  0  0
   11.7910    1.3390   22.8680 C   0  0  0  0  0  0  0  0  0  0  0  0
   12.4890    3.6530   22.7700 C   0  0  0  0  0  0  0  0  0  0  0  0
   13.5300    4.7860   22.4300 C   0  0  2  0  0  0  0  0  0  0  0  0
    6.5640   -4.7950   20.3530 C   0  0  0  0  0  0  0  0  0  0  0  0
    7.0380    7.4980   25.5330 C   0  0  0  0  0  0  0  0  0  0  0  0
    3.2700    2.4040   21.4310 C   0  0  0  0  0  0  0  0  0  0  0  0
    4.8230    0.4310   17.7490 C   0  0  0  0  0  0  0  0  0  0  0  0
   10.6320   -2.0670   22.4770 C   0  0  0  0  0  0  0  0  0  0  0  0
    9.6770   -1.7100   24.7210 C   0  0  0  0  0  0  0  0  0  0  0  0
   12.7450    2.2880   22.5420 C   0  0  0  0  0  0  0  0  0  0  0  0
    7.6280   -5.3270   22.5890 C   0  0  0  0  0  0  0  0  0  0  0  0
    5.4380   -4.9760   23.0540 C   0  0  0  0  0  0  0  0  0  0  0  0
   12.9990    5.5950   21.2090 C   0  0  0  0  0  0  0  0  0  0  0  0
    3.1840    2.5780   22.8040 N   0  0  0  0  0  0  0  0  0  0  0  0
   15.0810    4.3890   22.2030 C   0  0  0  0  0  0  0  0  0  0  0  0
   10.8580   -1.9550   23.9090 C   0  0  0  0  0  0  0  0  0  0  0  0
    7.4790   -6.7670   22.4020 C   0  0  0  0  0  0  0  0  0  0  0  0
    8.7600   -4.9890   23.3740 C   0  0  0  0  0  0  0  0  0  0  0  0
    4.2890   -6.0890   22.8940 C   0  0  0  0  0  0  0  0  0  0  0  0
    5.6950   -4.3280   24.5950 C   0  0  0  0  0  0  0  0  0  0  0  0
   12.3060   -2.0910   24.5990 C   0  0  0  0  0  0  0  0  0  0  0  0
    1.9170    2.7340   23.3390 C   0  0  1  0  0  0  0  0  0  0  0  0
   16.1010    5.1040   23.2020 C   0  0  0  0  0  0  0  0  0  0  0  0
    8.3580   -7.7050   22.9380 C   0  0  0  0  0  0  0  0  0  0  0  0
    9.6410   -5.9330   23.9080 C   0  0  0  0  0  0  0  0  0  0  0  0
    3.7100   -6.9660   21.8770 C   0  0  0  0  0  0  0  0  0  0  0  0
    3.8690   -6.0470   24.3320 C   0  0  0  0  0  0  0  0  0  0  0  0
    4.6930   -4.8760   26.0030 C   0  0  0  0  0  0  0  0  0  0  0  0
   12.6880   -0.9370   25.3410 C   0  0  0  0  0  0  0  0  0  0  0  0
   13.4640   -2.3910   23.5790 C   0  0  0  0  0  0  0  0  0  0  0  0
   12.3340   -3.3030   25.5920 C   0  0  0  0  0  0  0  0  0  0  0  0
    2.1130    2.5940   24.6770 N   0  0  0  0  0  0  0  0  0  0  0  0
    1.1520    4.0230   23.1030 N   0  0  0  0  0  0  0  0  0  0  0  0
    5.0480   -4.3340   27.3020 N   0  0  0  0  0  0  0  0  0  0  0  0
   17.4920    4.8710   23.0020 C   0  0  0  0  0  0  0  0  0  0  0  0
    9.4260   -7.2830   23.6750 C   0  0  0  0  0  0  0  0  0  0  0  0
    2.6190   -7.3210   23.9760 S   0  0  1  0  0  0  0  0  0  0  0  0
    2.7570   -7.6850   22.3390 C   0  0  0  0  0  0  0  0  0  0  0  0
    3.4410   -6.0050   25.8000 C   0  0  0  0  0  0  0  0  0  0  0  0
    2.2740    1.4310   25.0980 O   0  0  0  0  0  0  0  0  0  0  0  0
    3.0480   -8.5810   24.5340 O   0  0  0  0  0  0  0  0  0  0  0  0
    4.0350   -5.5110   25.2520 O   0  0  0  0  0  0  0  0  0  0  0  0
    4.4030   -3.1520   27.5950 C   0  0  0  0  0  0  0  0  0  0  0  0
   18.4850    5.6220   23.7220 C   0  0  0  0  0  0  0  0  0  0  0  0
   -0.3080    4.3460   23.3690 C   0  0  2  0  0  0  0  0  0  0  0  0
    1.0120   -6.9420   24.3420 N   0  0  0  0  0  0  0  0  0  0  0  0
    6.4080   -4.5720   27.7220 C   0  0  0  0  0  0  0  0  0  0  0  0
   19.5970    6.2230   23.0270 C   0  0  0  0  0  0  0  0  0  0  0  0
   -0.5630    5.5650   24.3840 C   0  0  1  0  0  0  0  0  0  0  0  0
   -1.1350    3.1930   23.6340 C   0  0  0  0  0  0  0  0  0  0  0  0
    0.3560   -5.8160   23.6020 C   0  0  0  0  0  0  0  0  0  0  0  0
    0.0190   -7.9750   24.7680 C   0  0  0  0  0  0  0  0  0  0  0  0
    6.7720   -5.9290   28.0200 C   0  0  0  0  0  0  0  0  0  0  0  0
    7.4460   -3.5830   27.8530 C   0  0  0  0  0  0  0  0  0  0  0  0
   20.7030    6.7750   23.7150 C   0  0  0  0  0  0  0  0  0  0  0  0
   -2.0130    5.5920   24.9680 C   0  0  0  0  0  0  0  0  0  0  0  0
   -2.5340    3.5370   23.4920 C   0  0  0  0  0  0  0  0  0  0  0  0
   -0.6360   -5.1180   24.3010 C   0  0  0  0  0  0  0  0  0  0  0  0
   -0.9820   -7.5210   25.6470 C   0  0  0  0  0  0  0  0  0  0  0  0
    8.0800   -6.2880   28.4150 C   0  0  0  0  0  0  0  0  0  0  0  0
    8.7630   -3.9390   28.2510 C   0  0  0  0  0  0  0  0  0  0  0  0
    0.4570    5.7110   25.5520 C   0  0  0  0  0  0  0  0  0  0  0  0
   21.3990    5.7970   24.5970 N   0  0  0  0  0  0  0  0  0  0  0  0
   -3.0700    4.7800   24.2290 C   0  0  0  0  0  0  0  0  0  0  0  0
   -1.9970   -6.1980   24.8780 S   0  0  0  0  0  0  0  0  0  0  0  0
    9.0820   -5.2770   28.5280 C   0  0  0  0  0  0  0  0  0  0  0  0
    1.5710    6.3770   25.1330 F   0  0  0  0  0  0  0  0  0  0  0  0
   22.4200    4.9970   24.3740 C   0  0  0  0  0  0  0  0  0  0  0  0
   23.0370    5.0270   23.0400 N   0  0  0  0  0  0  0  0  0  0  0  0
   22.9550    4.0260   25.4620 C   0  0  1  0  0  0  0  0  0  0  0  0
   22.4850    2.6130   25.1530 C   0  0  0  0  0  0  0  0  0  0  0  0
   24.4990    3.8620   25.6870 C   0  0  2  0  0  0  0  0  0  0  0  0
   23.3490    1.7920   26.0020 N   0  0  0  0  0  0  0  0  0  0  0  0
   24.6310    2.5150   26.1390 C   0  0  0  0  0  0  0  0  0  0  0  0
   25.2150    4.9770   26.5180 C   0  0  0  0  0  0  0  0  0  0  0  0
   23.4210    0.3370   25.7050 C   0  0  0  0  0  0  0  0  0  0  0  0
   24.8180    5.2960   27.8670 C   0  0  0  0  0  0  0  0  0  0  0  0
   26.3060    5.7450   25.9830 C   0  0  0  0  0  0  0  0  0  0  0  0
   22.0610   -0.3380   25.5440 C   0  0  0  0  0  0  0  0  0  0  0  0
   25.4660    6.3050   28.6240 C   0  0  0  0  0  0  0  0  0  0  0  0
   26.9540    6.7570   26.7450 C   0  0  0  0  0  0  0  0  0  0  0  0
   21.2450   -0.6600   26.6570 C   0  0  0  0  0  0  0  0  0  0  0  0
   21.5370   -0.6760   24.2520 C   0  0  0  0  0  0  0  0  0  0  0  0
   26.5310    7.0350   28.0640 C   0  0  0  0  0  0  0  0  0  0  0  0
   20.0090   -1.2540   26.5520 N   0  0  0  0  0  0  0  0  0  0  0  0
   20.2690   -1.2930   24.1230 C   0  0  0  0  0  0  0  0  0  0  0  0
   19.5540   -1.5580   25.2960 C   0  0  0  0  0  0  0  0  0  0  0  0
  1  2  1  0
  2  3  2  0
  1  4  1  0
  5  2  1  6
  4  6  1  0
  4  7  2  0
  5  8  1  0
  5  9  1  0
  6 10  2  0
  7 11  1  0
  6 12  1  0
  8 13  1  0
 11 14  1  0
 10 15  1  0
  9 16  1  0
  9 17  2  0
  8 18  1  0
 10 19  1  0
 11 19  2  0
 12 20  2  0
 12 21  1  0
 13 22  2  0
 23 13  1  0
 19 24  1  0
 16 25  1  0
 17 26  1  0
 16 27  2  0
 18 28  2  0
 18 29  1  0
 21 30  2  0
 20 31  1  0
 31 32  1  0
 23 33  1  6
 24 34  1  0
 25 35  1  0
 26 36  2  0
 27 36  1  0
 28 37  1  0
 29 38  2  0
 30 39  1  0
 31 39  2  0
 23 40  1  0
 23 41  1  0
 32 42  1  6
 35 43  1  0
 32 44  1  0
 37 45  2  0
 38 45  1  0
 40 46  2  0
 40 47  1  0
 41 48  1  0
 41 49  2  0
 45 50  1  0
 51 43  1  6
 44 52  1  0
 46 53  1  0
 47 54  2  0
 48 55  1  0
 48 56  2  0
 49 57  1  0
 50 58  1  0
 50 59  1  0
 50 60  1  0
 51 61  1  0
 51 62  1  0
 57 63  1  0
 52 64  1  0
 53 65  2  0
 54 65  1  0
 56 66  1  0
 55 67  2  0
 66 67  1  0
 56 68  1  0
 57 68  2  0
 61 69  2  0
 66 70  1  1
 68 71  1  0
 63 72  1  0
 64 73  1  0
 74 62  1  1
 66 75  1  0
 63 76  1  0
 73 77  1  0
 74 78  1  0
 74 79  1  0
 75 80  1  0
 75 81  1  0
 76 82  2  0
 76 83  1  0
 77 84  1  0
 78 85  1  0
 79 86  1  0
 80 87  1  0
 81 88  1  0
 82 89  1  0
 83 90  2  0
 78 91  1  1
 84 92  1  0
 85 93  1  0
 86 93  1  0
 87 94  1  0
 88 94  1  0
 89 95  2  0
 90 95  1  0
 91 96  1  0
 92 97  2  3
 97 98  1  0
 99 97  1  6
 99100  1  0
 99101  1  0
100102  1  0
101103  1  0
102103  1  0
101104  1  1
102105  1  0
104106  2  0
104107  1  0
105108  1  0
106109  1  0
107110  2  0
108111  2  0
108112  1  0
109113  2  0
110113  1  0
111114  1  0
112115  2  0
114116  2  0
115116  1  0
M  END
