x3117-x0755-x2776-x1311
     RDKit          3D

 58 63  0  0  0  0  0  0  0  0999 V2000
    6.9030   -1.4820   21.7620 N   0  0  0  0  0  0  0  0  0  0  0  0
    6.0700   -2.7120   21.4890 C   0  0  0  0  0  0  0  0  0  0  0  0
    4.8360   -2.9510   21.0210 O   0  0  0  0  0  0  0  0  0  0  0  0
    6.5330   -0.1050   21.6190 C   0  0  1  0  0  0  0  0  0  0  0  0
    8.1930   -1.5460   22.4180 C   0  0  0  0  0  0  0  0  0  0  0  0
    6.6840   -4.0540   21.7980 C   0  0  1  0  0  0  0  0  0  0  0  0
    7.7470    0.8430   21.9030 C   0  0  0  0  0  0  0  0  0  0  0  0
    6.1310    0.2860   20.2080 C   0  0  0  0  0  0  0  0  0  0  0  0
    9.3000   -1.6270   21.5950 C   0  0  0  0  0  0  0  0  0  0  0  0
    8.3860   -1.5120   23.8200 C   0  0  0  0  0  0  0  0  0  0  0  0
    6.9150   -4.9370   20.5390 C   0  0  0  0  0  0  0  0  0  0  0  0
    7.5620    1.8420   22.9790 N   0  0  0  0  0  0  0  0  0  0  0  0
    8.8070    0.8540   21.2860 O   0  0  0  0  0  0  0  0  0  0  0  0
    5.0160    1.0870   20.0830 C   0  0  0  0  0  0  0  0  0  0  0  0
    6.8740   -0.1310   19.1050 C   0  0  0  0  0  0  0  0  0  0  0  0
   10.6070   -1.6640   22.0770 C   0  0  0  0  0  0  0  0  0  0  0  0
    9.7140   -1.5460   24.3080 C   0  0  0  0  0  0  0  0  0  0  0  0
    7.6920   -4.3040   22.9820 C   0  0  0  0  0  0  0  0  0  0  0  0
    6.3880    0.3650   17.8020 N   0  0  0  0  0  0  0  0  0  0  0  0
    4.5940    1.5210   18.8600 C   0  0  0  0  0  0  0  0  0  0  0  0
    8.4420    2.9580   23.1570 C   0  0  0  0  0  0  0  0  0  0  0  0
   10.8020   -1.6130   23.4440 C   0  0  0  0  0  0  0  0  0  0  0  0
    9.0690   -4.1790   22.8640 C   0  0  0  0  0  0  0  0  0  0  0  0
    7.2140   -4.6840   24.2240 C   0  0  0  0  0  0  0  0  0  0  0  0
   12.2210   -1.6110   24.0380 C   0  0  0  0  0  0  0  0  0  0  0  0
    5.2530    1.1800   17.7670 C   0  0  0  0  0  0  0  0  0  0  0  0
    9.7880    2.8290   23.5990 C   0  0  0  0  0  0  0  0  0  0  0  0
    7.9030    4.2460   22.8820 C   0  0  0  0  0  0  0  0  0  0  0  0
    9.9060   -4.4470   23.9650 C   0  0  0  0  0  0  0  0  0  0  0  0
    8.0230   -4.9620   25.2880 C   0  0  0  0  0  0  0  0  0  0  0  0
   12.7390   -2.9370   24.2770 O   0  0  0  0  0  0  0  0  0  0  0  0
   10.3540    1.6510   23.8750 C   0  0  0  0  0  0  0  0  0  0  0  0
   13.1050   -0.9810   22.9460 C   0  0  0  0  0  0  0  0  0  0  0  0
   12.3840   -0.6210   25.1820 C   0  0  0  0  0  0  0  0  0  0  0  0
   10.6520    4.0810   23.7840 C   0  0  0  0  0  0  0  0  0  0  0  0
    8.6420    5.4460   23.0350 C   0  0  0  0  0  0  0  0  0  0  0  0
    9.3780   -4.8460   25.1630 C   0  0  0  0  0  0  0  0  0  0  0  0
    7.3610   -5.3890   26.5490 C   0  0  0  0  0  0  0  0  0  0  0  0
   13.1580   -3.2790   25.5900 C   0  0  0  0  0  0  0  0  0  0  0  0
    9.9560    5.3760   23.4710 C   0  0  0  0  0  0  0  0  0  0  0  0
    6.1120   -4.6660   26.6740 N   0  0  0  0  0  0  0  0  0  0  0  0
   10.7650    6.5580   23.6610 O   0  0  0  0  0  0  0  0  0  0  0  0
    4.6200   -5.2030   26.0120 S   0  0  2  0  0  0  0  0  0  0  0  0
   11.7280    6.5250   24.7230 C   0  0  0  0  0  0  0  0  0  0  0  0
    4.0700   -6.3340   26.7360 O   0  0  0  0  0  0  0  0  0  0  0  0
    4.3440   -5.5560   24.4000 C   0  0  1  0  0  0  0  0  0  0  0  0
    3.5610   -3.7920   26.0860 C   0  0  0  0  0  0  0  0  0  0  0  0
    5.1650   -6.2040   23.5620 C   0  0  0  0  0  0  0  0  0  0  0  0
    3.0290   -6.7520   24.3420 S   0  0  1  0  0  0  0  0  0  0  0  0
    2.0500   -3.9640   26.0800 C   0  0  0  0  0  0  0  0  0  0  0  0
    4.0620   -2.4970   26.1340 C   0  0  0  0  0  0  0  0  0  0  0  0
    1.7970   -6.0170   24.3370 O   0  0  0  0  0  0  0  0  0  0  0  0
    5.3780   -2.2410   26.1450 F   0  0  0  0  0  0  0  0  0  0  0  0
    4.5090   -6.5740   22.4300 C   0  0  0  0  0  0  0  0  0  0  0  0
    3.2490   -6.9590   22.6940 C   0  0  0  0  0  0  0  0  0  0  0  0
    3.1970   -1.4090   26.1710 C   0  0  0  0  0  0  0  0  0  0  0  0
    1.2230   -2.8630   26.1160 C   0  0  0  0  0  0  0  0  0  0  0  0
    1.7980   -1.5950   26.1610 C   0  0  0  0  0  0  0  0  0  0  0  0
  1  2  1  0
  2  3  2  0
  1  4  1  0
  1  5  1  0
  2  6  1  0
  4  7  1  6
  4  8  1  0
  5  9  2  0
  5 10  1  0
  6 11  1  6
  7 12  1  0
  7 13  2  0
  8 14  2  0
  8 15  1  0
  9 16  1  0
 10 17  2  0
  6 18  1  0
 15 19  2  0
 14 20  1  0
 12 21  1  0
 16 22  2  0
 17 22  1  0
 18 23  2  0
 18 24  1  0
 22 25  1  0
 19 26  1  0
 20 26  2  0
 21 27  2  0
 21 28  1  0
 23 29  1  0
 24 30  2  0
 25 31  1  0
 27 32  1  0
 25 33  1  0
 25 34  1  0
 27 35  1  0
 28 36  2  0
 29 37  2  0
 30 37  1  0
 30 38  1  0
 31 39  1  0
 35 40  2  0
 36 40  1  0
 38 41  1  0
 40 42  1  0
 41 43  2  0
 42 44  1  0
 43 45  2  0
 43 46  1  0
 43 47  1  1
 46 48  1  1
 46 49  1  0
 47 50  2  0
 47 51  1  0
 49 52  1  6
 51 53  1  0
 48 54  1  0
 49 55  1  0
 54 55  2  0
 51 56  2  0
 50 57  1  0
 56 58  1  0
 57 58  2  0
M  END
