x3110-x1478-x0734
     RDKit          3D

 50 53  0  0  0  0  0  0  0  0999 V2000
    7.8810    1.2220   23.2030 N   0  0  0  0  0  0  0  0  0  0  0  0
    8.6830    2.2980   23.7930 C   0  0  0  0  0  0  0  0  0  0  0  0
   10.1730    2.1640   23.4780 C   0  0  0  0  0  0  0  0  0  0  0  0
    7.7130    0.8430   21.7950 C   0  0  0  0  0  0  0  0  0  0  0  0
    8.4280    1.3390   20.9090 O   0  0  0  0  0  0  0  0  0  0  0  0
    6.6350   -0.0990   21.5570 C   0  0  2  0  0  0  0  0  0  0  0  0
    7.0100   -1.5270   21.5940 N   0  0  0  0  0  0  0  0  0  0  0  0
   11.0930    3.3630   23.4020 C   0  0  0  0  0  0  0  0  0  0  0  0
    6.1450    0.4120   20.1990 C   0  0  0  0  0  0  0  0  0  0  0  0
   11.9330    3.2310   22.5180 O   0  0  0  0  0  0  0  0  0  0  0  0
   10.9960    4.3400   24.1330 O   0  0  0  0  0  0  0  0  0  0  0  0
    6.1160   -2.7300   21.2560 C   0  0  0  0  0  0  0  0  0  0  0  0
    4.9940    1.2690   20.1900 C   0  0  0  0  0  0  0  0  0  0  0  0
    6.7690    0.1050   18.9810 C   0  0  0  0  0  0  0  0  0  0  0  0
    8.2810   -1.6320   22.3440 C   0  0  0  0  0  0  0  0  0  0  0  0
   12.2910    4.4160   21.9600 C   0  0  0  0  0  0  0  0  0  0  0  0
    4.8180   -2.9190   20.9940 O   0  0  0  0  0  0  0  0  0  0  0  0
    6.6870   -4.1060   21.2600 C   0  0  1  0  0  0  0  0  0  0  0  0
    6.3440    0.6080   17.6900 N   0  0  0  0  0  0  0  0  0  0  0  0
    4.5240    1.8050   18.8860 C   0  0  0  0  0  0  0  0  0  0  0  0
    9.4590   -1.9290   21.7100 C   0  0  0  0  0  0  0  0  0  0  0  0
    8.4360   -1.4130   23.8390 C   0  0  0  0  0  0  0  0  0  0  0  0
   13.3620    5.0890   22.8080 C   0  0  0  0  0  0  0  0  0  0  0  0
    8.1660   -4.3920   20.9660 C   0  0  0  0  0  0  0  0  0  0  0  0
    5.2230    1.4660   17.6270 C   0  0  0  0  0  0  0  0  0  0  0  0
   10.6960   -2.0410   22.3080 C   0  0  0  0  0  0  0  0  0  0  0  0
    9.7110   -1.5380   24.4320 C   0  0  0  0  0  0  0  0  0  0  0  0
    6.2850   -4.4850   22.7050 C   0  0  2  0  0  0  0  0  0  0  0  0
   10.8160   -1.8430   23.6800 C   0  0  0  0  0  0  0  0  0  0  0  0
    4.8240   -4.7130   22.8880 N   0  0  0  0  0  0  0  0  0  0  0  0
    6.7590   -3.2940   23.5450 C   0  0  0  0  0  0  0  0  0  0  0  0
   12.1660   -1.9400   24.3450 C   0  0  0  0  0  0  0  0  0  0  0  0
    5.8840   -2.4320   24.2130 C   0  0  0  0  0  0  0  0  0  0  0  0
    4.0920   -4.0910   23.9800 C   0  0  2  0  0  0  0  0  0  0  0  0
    4.4770   -6.0100   22.6720 C   0  0  0  0  0  0  0  0  0  0  0  0
   12.7680   -0.5860   24.7740 C   0  0  0  0  0  0  0  0  0  0  0  0
   13.2740   -1.5580   23.4240 C   0  0  0  0  0  0  0  0  0  0  0  0
   12.5550   -3.0650   25.0050 C   0  0  0  0  0  0  0  0  0  0  0  0
    4.5360   -2.6300   24.1540 C   0  0  0  0  0  0  0  0  0  0  0  0
    4.2960   -5.0470   25.1850 C   0  0  0  0  0  0  0  0  0  0  0  0
    5.5820   -6.4950   21.4220 Cl  0  0  0  0  0  0  0  0  0  0  0  0
    5.2060   -4.7360   26.3960 C   0  0  2  0  0  0  0  0  0  0  0  0
    4.6540   -5.6380   27.3160 O   0  0  0  0  0  0  0  0  0  0  0  0
    4.8780   -3.5960   26.9490 O   0  0  0  0  0  0  0  0  0  0  0  0
    6.7280   -5.0590   26.3810 C   0  0  0  0  0  0  0  0  0  0  0  0
    7.3700   -4.8510   24.9490 C   0  0  0  0  0  0  0  0  0  0  0  0
    7.2480   -5.4650   27.6170 C   0  0  0  0  0  0  0  0  0  0  0  0
    8.7260   -5.2060   25.2520 C   0  0  0  0  0  0  0  0  0  0  0  0
    8.6790   -5.7850   27.7030 C   0  0  0  0  0  0  0  0  0  0  0  0
    9.3490   -5.6100   26.3980 C   0  0  0  0  0  0  0  0  0  0  0  0
  1  2  1  0
  2  3  1  0
  1  4  1  0
  4  5  2  0
  6  4  1  6
  6  7  1  0
  3  8  1  0
  6  9  1  0
  8 10  1  0
  8 11  2  0
  7 12  1  0
  9 13  2  0
  9 14  1  0
  7 15  1  0
 10 16  1  0
 12 17  2  0
 12 18  1  0
 14 19  2  0
 13 20  1  0
 15 21  2  0
 15 22  1  0
 16 23  1  0
 18 24  1  1
 19 25  1  0
 20 25  2  0
 21 26  1  0
 22 27  2  0
 18 28  1  0
 26 29  2  0
 27 29  1  0
 28 30  1  0
 28 31  1  1
 29 32  1  0
 31 33  2  0
 30 34  1  0
 30 35  1  0
 32 36  1  0
 32 37  1  0
 32 38  1  0
 33 39  1  0
 34 39  1  0
 34 40  1  1
 35 41  1  0
 40 42  1  0
 42 43  1  1
 42 44  1  0
 42 45  1  0
 45 46  2  0
 45 47  1  0
 46 48  1  0
 47 49  2  0
 48 50  2  0
 49 50  1  0
M  CHG  1  44  -1
M  END
