x3113-x2193
     RDKit          3D

 37 39  0  0  0  0  0  0  0  0999 V2000
    7.0650   -1.7300   21.8680 N   0  0  0  0  0  0  0  0  0  0  0  0
    6.1590   -2.8760   21.3910 C   0  0  0  0  0  0  0  0  0  0  0  0
    4.8310   -3.0540   21.3340 O   0  0  0  0  0  0  0  0  0  0  0  0
    6.7000   -0.2570   21.7440 C   0  0  1  0  0  0  0  0  0  0  0  0
    8.4040   -1.8510   22.5120 C   0  0  0  0  0  0  0  0  0  0  0  0
    6.8440   -4.1060   20.8540 C   0  0  0  0  0  0  0  0  0  0  0  0
    7.8350    0.6360   21.9550 C   0  0  0  0  0  0  0  0  0  0  0  0
    6.1680    0.2190   20.3980 C   0  0  0  0  0  0  0  0  0  0  0  0
    9.5370   -1.4040   21.7850 C   0  0  0  0  0  0  0  0  0  0  0  0
    8.5740   -2.3640   23.8030 C   0  0  0  0  0  0  0  0  0  0  0  0
    8.2960   -3.8060   20.4730 C   0  0  0  0  0  0  0  0  0  0  0  0
    8.0290    1.1910   23.1940 N   0  0  0  0  0  0  0  0  0  0  0  0
    8.6010    0.9420   21.0510 O   0  0  0  0  0  0  0  0  0  0  0  0
    5.0150    1.0370   20.2320 C   0  0  0  0  0  0  0  0  0  0  0  0
    6.8780   -0.1630   19.2500 C   0  0  0  0  0  0  0  0  0  0  0  0
   10.8140   -1.4450   22.3190 C   0  0  0  0  0  0  0  0  0  0  0  0
    9.9260   -2.3500   24.2530 C   0  0  0  0  0  0  0  0  0  0  0  0
    7.5030   -2.8960   24.6920 C   0  0  0  0  0  0  0  0  0  0  0  0
    9.0330    2.1280   23.3060 C   0  0  0  0  0  0  0  0  0  0  0  0
    6.4390    0.2880   17.9190 N   0  0  0  0  0  0  0  0  0  0  0  0
    4.5590    1.4880   18.9950 C   0  0  0  0  0  0  0  0  0  0  0  0
   11.0420   -1.9130   23.5810 C   0  0  0  0  0  0  0  0  0  0  0  0
    7.8710   -4.2210   25.1950 N   0  0  0  0  0  0  0  0  0  0  0  0
   10.3460    1.6920   23.1660 C   0  0  0  0  0  0  0  0  0  0  0  0
   12.4820   -1.9020   24.1430 C   0  0  0  0  0  0  0  0  0  0  0  0
    5.2500    1.1300   17.8720 C   0  0  0  0  0  0  0  0  0  0  0  0
    8.5080   -4.1470   26.5390 C   0  0  0  0  0  0  0  0  0  0  0  0
    8.7420   -4.9680   24.2560 C   0  0  0  0  0  0  0  0  0  0  0  0
   11.2970    2.6840   23.4920 C   0  0  0  0  0  0  0  0  0  0  0  0
   13.4010   -2.1270   23.1510 C   0  0  0  0  0  0  0  0  0  0  0  0
   12.7710   -2.9700   25.2190 C   0  0  0  0  0  0  0  0  0  0  0  0
   12.6760   -0.6240   24.7320 C   0  0  0  0  0  0  0  0  0  0  0  0
    8.6490   -5.4150   27.0750 C   0  0  0  0  0  0  0  0  0  0  0  0
    9.5840   -5.7850   24.9580 C   0  0  0  0  0  0  0  0  0  0  0  0
   11.5350    3.5550   22.4540 O   0  0  0  0  0  0  0  0  0  0  0  0
    9.0960   -6.3320   26.1900 N   0  0  0  0  0  0  0  0  0  0  0  0
   12.7360    4.3210   22.6080 C   0  0  0  0  0  0  0  0  0  0  0  0
  1  2  1  0
  2  3  2  0
  1  4  1  0
  1  5  1  0
  2  6  1  0
  4  7  1  6
  4  8  1  0
  5  9  2  0
  5 10  1  0
  6 11  1  0
  7 12  1  0
  7 13  2  0
  8 14  2  0
  8 15  1  0
  9 16  1  0
 10 17  2  0
 10 18  1  0
 12 19  1  0
 15 20  2  0
 14 21  1  0
 16 22  2  0
 17 22  1  0
 18 23  1  0
 19 24  1  0
 22 25  1  0
 20 26  1  0
 21 26  2  0
 23 27  1  0
 23 28  1  0
 24 29  1  0
 25 30  1  0
 25 31  1  0
 25 32  1  0
 27 33  1  0
 28 34  1  0
 29 35  1  0
 33 36  1  0
 34 36  1  0
 35 37  1  0
M  END
