x3110-x1493-x0540
     RDKit          3D

 54 58  0  0  0  0  0  0  0  0999 V2000
    8.0240    1.0540   23.3510 N   0  0  0  0  0  0  0  0  0  0  0  0
    8.8460    2.1780   23.8270 C   0  0  0  0  0  0  0  0  0  0  0  0
   10.3350    1.9960   23.5850 C   0  0  0  0  0  0  0  0  0  0  0  0
    7.7770    0.7270   21.9340 C   0  0  0  0  0  0  0  0  0  0  0  0
    8.4550    1.3600   20.8350 O   0  0  0  0  0  0  0  0  0  0  0  0
    6.6510   -0.3380   21.6410 C   0  0  2  0  0  0  0  0  0  0  0  0
    6.9970   -1.6970   21.7690 C   0  0  2  0  0  0  0  0  0  0  0  0
   11.1500    3.2930   23.3940 C   0  0  0  0  0  0  0  0  0  0  0  0
    6.1440    0.1820   20.3370 C   0  0  0  0  0  0  0  0  0  0  0  0
   11.9710    3.2390   22.4850 O   0  0  0  0  0  0  0  0  0  0  0  0
   11.0200    4.3100   24.0660 O   0  0  0  0  0  0  0  0  0  0  0  0
    6.0480   -2.8640   20.9880 C   0  0  0  0  0  0  0  0  0  0  0  0
    6.2620   -2.3340   22.9180 C   0  0  0  0  0  0  0  0  0  0  0  0
    4.9760    0.8430   20.2690 C   0  0  0  0  0  0  0  0  0  0  0  0
    6.8390    0.0310   19.1780 C   0  0  0  0  0  0  0  0  0  0  0  0
    8.4830   -1.7570   22.3190 C   0  0  0  0  0  0  0  0  0  0  0  0
   12.3430    4.5270   21.9730 C   0  0  0  0  0  0  0  0  0  0  0  0
    4.9120   -3.0550   20.4000 O   0  0  0  0  0  0  0  0  0  0  0  0
    6.8680   -4.0660   21.2790 C   0  0  2  0  0  0  0  0  0  0  0  0
    4.1370    1.0420   21.4940 C   0  0  0  0  0  0  0  0  0  0  0  0
    6.4710    0.5400   17.8050 N   0  0  0  0  0  0  0  0  0  0  0  0
    4.5570    1.3770   18.9350 C   0  0  0  0  0  0  0  0  0  0  0  0
    9.5980   -1.3210   21.6300 C   0  0  0  0  0  0  0  0  0  0  0  0
    8.7740   -2.2240   23.5520 C   0  0  0  0  0  0  0  0  0  0  0  0
    6.4020   -3.9050   22.7160 C   0  0  1  0  0  0  0  0  0  0  0  0
   13.3870    5.1670   22.8800 C   0  0  0  0  0  0  0  0  0  0  0  0
    8.3430   -4.1870   20.9040 C   0  0  0  0  0  0  0  0  0  0  0  0
    4.8590    1.8610   22.5280 C   0  0  0  0  0  0  0  0  0  0  0  0
    5.3160    1.2350   17.6770 C   0  0  0  0  0  0  0  0  0  0  0  0
   10.9900   -1.3570   22.1800 C   0  0  0  0  0  0  0  0  0  0  0  0
   10.0160   -2.2580   24.0580 C   0  0  0  0  0  0  0  0  0  0  0  0
    7.1430   -4.5850   23.8450 C   0  0  0  0  0  0  0  0  0  0  0  0
    5.0750   -4.3690   22.6250 N   0  0  0  0  0  0  0  0  0  0  0  0
    4.0760    2.9670   23.0610 N   0  0  0  0  0  0  0  0  0  0  0  0
   11.0700   -1.8390   23.4060 C   0  0  0  0  0  0  0  0  0  0  0  0
    6.3080   -5.6930   24.3360 N   0  0  0  0  0  0  0  0  0  0  0  0
    4.9560   -5.8250   22.2780 C   0  0  0  0  0  0  0  0  0  0  0  0
   12.4490   -1.8770   24.0520 C   0  0  0  0  0  0  0  0  0  0  0  0
    2.8770    2.5060   23.6290 C   0  0  0  0  0  0  0  0  0  0  0  0
    5.7050   -5.7490   25.5560 C   0  0  0  0  0  0  0  0  0  0  0  0
    5.8220   -6.5540   23.2540 C   0  0  0  0  0  0  0  0  0  0  0  0
   12.5810   -0.6860   24.9590 C   0  0  0  0  0  0  0  0  0  0  0  0
   13.4710   -1.9160   22.9720 C   0  0  0  0  0  0  0  0  0  0  0  0
   12.7030   -2.8860   24.8870 C   0  0  0  0  0  0  0  0  0  0  0  0
    2.8780    1.5750   24.4400 O   0  0  0  0  0  0  0  0  0  0  0  0
    1.7810    3.1820   23.1990 N   0  0  0  0  0  0  0  0  0  0  0  0
    4.4430   -6.3560   25.6080 C   0  0  0  0  0  0  0  0  0  0  0  0
    6.1970   -5.3150   26.5820 O   0  0  0  0  0  0  0  0  0  0  0  0
    0.6150    3.3060   24.0590 C   0  0  0  0  0  0  0  0  0  0  0  0
    0.5000    4.5890   24.5950 C   0  0  0  0  0  0  0  0  0  0  0  0
   -0.6100    2.7900   23.2950 C   0  0  0  0  0  0  0  0  0  0  0  0
   -0.7680    4.9530   25.0530 C   0  0  0  0  0  0  0  0  0  0  0  0
   -1.8250    3.3140   23.7400 C   0  0  0  0  0  0  0  0  0  0  0  0
   -1.7790    4.5770   24.2270 C   0  0  0  0  0  0  0  0  0  0  0  0
  1  2  1  0
  2  3  1  0
  1  4  1  0
  4  5  2  0
  6  4  1  6
  6  7  1  0
  3  8  1  0
  6  9  1  0
  8 10  1  0
  8 11  2  0
  7 12  1  0
  7 13  1  0
  9 14  1  0
  9 15  2  0
  7 16  1  1
 10 17  1  0
 12 18  2  0
 12 19  1  0
 14 20  1  0
 15 21  1  0
 14 22  2  0
 16 23  2  0
 16 24  1  0
 25 13  1  1
 19 25  1  0
 17 26  1  0
 19 27  1  1
 20 28  1  0
 21 29  2  0
 22 29  1  0
 23 30  1  0
 24 31  2  0
 25 32  1  0
 25 33  1  0
 28 34  1  0
 30 35  2  0
 31 35  1  0
 32 36  1  0
 33 37  1  0
 35 38  1  0
 34 39  1  0
 36 40  1  0
 36 41  1  0
 37 41  1  0
 38 42  1  0
 38 43  1  0
 38 44  1  0
 39 45  2  0
 39 46  1  0
 40 47  1  0
 40 48  2  0
 46 49  1  0
 49 50  1  0
 49 51  1  0
 50 52  1  0
 51 53  1  0
 52 54  1  0
 53 54  1  0
M  END
