x3110-x2643
     RDKit          3D

 34 35  0  0  0  0  0  0  0  0999 V2000
    7.8400    1.1460   23.2800 N   0  0  0  0  0  0  0  0  0  0  0  0
    8.5660    2.3310   23.7570 C   0  0  0  0  0  0  0  0  0  0  0  0
   10.0720    2.2310   23.5060 C   0  0  0  0  0  0  0  0  0  0  0  0
    7.6980    0.6380   21.9110 C   0  0  0  0  0  0  0  0  0  0  0  0
    8.4720    0.9700   21.0190 O   0  0  0  0  0  0  0  0  0  0  0  0
    6.5780   -0.2460   21.7000 C   0  0  2  0  0  0  0  0  0  0  0  0
    6.8840   -1.6990   21.8310 N   0  0  0  0  0  0  0  0  0  0  0  0
   10.9680    3.4480   23.3780 C   0  0  0  0  0  0  0  0  0  0  0  0
    6.1140    0.2750   20.3110 C   0  0  0  0  0  0  0  0  0  0  0  0
   11.7060    3.3520   22.4020 O   0  0  0  0  0  0  0  0  0  0  0  0
   10.9460    4.3990   24.1500 O   0  0  0  0  0  0  0  0  0  0  0  0
    6.0270   -2.8450   21.3300 C   0  0  0  0  0  0  0  0  0  0  0  0
    4.9580    1.1290   20.2690 C   0  0  0  0  0  0  0  0  0  0  0  0
    6.7680   -0.0170   19.0960 C   0  0  0  0  0  0  0  0  0  0  0  0
    8.1790   -1.8480   22.5150 C   0  0  0  0  0  0  0  0  0  0  0  0
   12.1870    4.5430   21.9710 C   0  0  0  0  0  0  0  0  0  0  0  0
    4.7580   -3.0450   21.4330 O   0  0  0  0  0  0  0  0  0  0  0  0
    6.6790   -3.9830   20.5690 C   0  0  0  0  0  0  0  0  0  0  0  0
    6.3580    0.4970   17.7940 N   0  0  0  0  0  0  0  0  0  0  0  0
    4.5100    1.6740   18.9540 C   0  0  0  0  0  0  0  0  0  0  0  0
    9.3680   -1.8330   21.7970 C   0  0  0  0  0  0  0  0  0  0  0  0
    8.3530   -1.9940   24.0080 C   0  0  0  0  0  0  0  0  0  0  0  0
   13.4310    4.8990   22.7680 C   0  0  0  0  0  0  0  0  0  0  0  0
    8.0120   -3.4730   20.1360 C   0  0  0  0  0  0  0  0  0  0  0  0
    5.2380    1.3470   17.7040 C   0  0  0  0  0  0  0  0  0  0  0  0
   10.6210   -1.9450   22.3470 C   0  0  0  0  0  0  0  0  0  0  0  0
    9.6740   -2.0930   24.5460 C   0  0  0  0  0  0  0  0  0  0  0  0
   10.7870   -2.0650   23.7300 C   0  0  0  0  0  0  0  0  0  0  0  0
   12.2030   -2.1540   24.2980 C   0  0  0  0  0  0  0  0  0  0  0  0
   13.3400   -1.4770   23.5260 C   0  0  0  0  0  0  0  0  0  0  0  0
   12.7670   -0.9090   24.8840 C   0  0  0  0  0  0  0  0  0  0  0  0
   12.5710   -3.1910   25.0830 C   0  0  0  0  0  0  0  0  0  0  0  0
   12.9120   -0.4970   22.4510 C   0  0  0  0  0  0  0  0  0  0  0  0
   12.8040    1.1230   23.0250 Cl  0  0  0  0  0  0  0  0  0  0  0  0
  1  2  1  0
  2  3  1  0
  1  4  1  0
  4  5  2  0
  6  4  1  6
  6  7  1  0
  3  8  1  0
  6  9  1  0
  8 10  1  0
  8 11  2  0
  7 12  1  0
  9 13  2  0
  9 14  1  0
  7 15  1  0
 10 16  1  0
 12 17  2  0
 12 18  1  0
 14 19  2  0
 13 20  1  0
 15 21  2  0
 15 22  1  0
 16 23  1  0
 18 24  1  0
 19 25  1  0
 20 25  2  0
 21 26  1  0
 22 27  2  0
 26 28  2  0
 27 28  1  0
 28 29  1  0
 29 30  1  0
 29 31  1  0
 29 32  1  0
 30 33  1  0
 33 34  1  0
M  END
