x3117-x0426-x3110-x1458-x2776
     RDKit          3D

 63 68  0  0  0  0  0  0  0  0999 V2000
    8.0040    1.6650   23.0390 N   0  0  0  0  0  0  0  0  0  0  0  0
    7.7620    1.0430   21.7950 C   0  0  0  0  0  0  0  0  0  0  0  0
    8.5100    1.4860   20.6800 O   0  0  0  0  0  0  0  0  0  0  0  0
    8.5710    3.0040   23.2990 C   0  0  0  0  0  0  0  0  0  0  0  0
    6.6220   -0.1010   21.5580 C   0  0  2  0  0  0  0  0  0  0  0  0
    9.9700    3.2950   23.3790 C   0  0  0  0  0  0  0  0  0  0  0  0
    7.6350    4.2070   23.5050 C   0  0  0  0  0  0  0  0  0  0  0  0
    6.9770   -1.5120   21.7050 C   0  0  2  0  0  0  0  0  0  0  0  0
   11.1640    2.4050   23.2010 C   0  0  2  0  0  0  0  0  0  0  0  0
    6.0580    0.3230   20.2360 C   0  0  0  0  0  0  0  0  0  0  0  0
   10.5000    4.6820   23.6760 C   0  0  0  0  0  0  0  0  0  0  0  0
    8.1250    5.6630   23.8060 C   0  0  0  0  0  0  0  0  0  0  0  0
   11.9110    3.0120   22.2020 O   0  0  0  0  0  0  0  0  0  0  0  0
   10.6430    1.0410   23.0140 C   0  0  0  0  0  0  0  0  0  0  0  0
    6.1430   -2.8470   21.2030 C   0  0  0  0  0  0  0  0  0  0  0  0
    6.4010   -2.1460   22.9640 C   0  0  0  0  0  0  0  0  0  0  0  0
    4.7950    0.9290   20.2250 C   0  0  0  0  0  0  0  0  0  0  0  0
    6.8720    0.0910   19.0960 C   0  0  0  0  0  0  0  0  0  0  0  0
    8.4050   -1.6030   22.3570 C   0  0  0  0  0  0  0  0  0  0  0  0
    9.6230    5.9010   23.9050 C   0  0  0  0  0  0  0  0  0  0  0  0
   13.0460    3.8120   22.6010 C   0  0  0  0  0  0  0  0  0  0  0  0
    4.9350   -3.0440   20.6950 O   0  0  0  0  0  0  0  0  0  0  0  0
   10.1110    7.1430   24.1840 O   0  0  0  0  0  0  0  0  0  0  0  0
    3.8960    1.1540   21.4150 C   0  0  0  0  0  0  0  0  0  0  0  0
    6.4370    0.5060   17.8730 N   0  0  0  0  0  0  0  0  0  0  0  0
    4.2700    1.4080   18.8990 C   0  0  0  0  0  0  0  0  0  0  0  0
    9.5510   -2.0620   21.7210 C   0  0  0  0  0  0  0  0  0  0  0  0
    8.6020   -1.2130   23.6950 C   0  0  0  0  0  0  0  0  0  0  0  0
    6.8750   -4.1220   21.6000 C   0  0  2  0  0  0  0  0  0  0  0  0
    7.2950   -3.4020   22.8780 C   0  0  2  0  0  0  0  0  0  0  0  0
   13.1800    5.1090   21.8450 C   0  0  0  0  0  0  0  0  0  0  0  0
    8.2560   -4.6010   21.0380 C   0  0  0  0  0  0  0  0  0  0  0  0
   11.4610    7.1510   24.7280 C   0  0  0  0  0  0  0  0  0  0  0  0
    4.3170    2.1780   22.2550 C   0  0  0  0  0  0  0  0  0  0  0  0
    5.1920    1.1500   17.7630 C   0  0  0  0  0  0  0  0  0  0  0  0
   10.7990   -2.1360   22.3600 C   0  0  0  0  0  0  0  0  0  0  0  0
    9.8150   -1.2890   24.3160 C   0  0  0  0  0  0  0  0  0  0  0  0
    7.3100   -4.1350   23.9490 C   0  0  0  0  0  0  0  0  0  0  0  0
    5.9300   -5.2940   22.0040 C   0  0  0  0  0  0  0  0  0  0  0  0
    3.4860    2.5290   23.3120 N   0  0  0  0  0  0  0  0  0  0  0  0
   10.9300   -1.7450   23.6830 C   0  0  0  0  0  0  0  0  0  0  0  0
    6.1710   -4.7650   24.2860 C   0  0  2  0  0  0  0  0  0  0  0  0
    5.2790   -5.0410   23.2360 C   0  0  0  0  0  0  0  0  0  0  0  0
   12.2290   -1.8040   24.3640 C   0  0  0  0  0  0  0  0  0  0  0  0
    2.3090    1.8220   23.8340 C   0  0  0  0  0  0  0  0  0  0  0  0
    5.6150   -3.9050   25.4250 C   0  0  0  0  0  0  0  0  0  0  0  0
   13.2630   -1.3270   23.6130 C   0  0  0  0  0  0  0  0  0  0  0  0
   12.8050   -0.5050   24.8030 C   0  0  0  0  0  0  0  0  0  0  0  0
   12.8010   -3.0300   24.9760 C   0  0  0  0  0  0  0  0  0  0  0  0
    2.1780    0.6070   23.6970 O   0  0  0  0  0  0  0  0  0  0  0  0
    6.3470   -3.7450   26.5470 N   0  0  0  0  0  0  0  0  0  0  0  0
    4.5110   -3.3610   25.3370 O   0  0  0  0  0  0  0  0  0  0  0  0
    1.2080    2.6300   24.5870 C   0  0  0  0  0  0  0  0  0  0  0  0
    6.3520   -4.7190   27.6450 C   0  0  0  0  0  0  0  0  0  0  0  0
    6.5890   -2.3300   26.9280 C   0  0  0  0  0  0  0  0  0  0  0  0
    1.4330    3.8400   25.2700 C   0  0  0  0  0  0  0  0  0  0  0  0
   -0.1060    2.1370   24.5970 C   0  0  0  0  0  0  0  0  0  0  0  0
    2.6680    4.3620   25.2950 F   0  0  0  0  0  0  0  0  0  0  0  0
    7.1980   -4.5620   28.7040 C   0  0  0  0  0  0  0  0  0  0  0  0
    6.2950   -6.0320   27.2500 C   0  0  0  0  0  0  0  0  0  0  0  0
   -1.1620    2.7690   25.2310 C   0  0  0  0  0  0  0  0  0  0  0  0
    0.4180    4.5500   25.9400 C   0  0  0  0  0  0  0  0  0  0  0  0
   -0.8900    4.0710   25.9580 C   0  0  0  0  0  0  0  0  0  0  0  0
  1  2  1  0
  2  3  2  0
  1  4  1  0
  5  2  1  6
  4  6  2  0
  4  7  1  0
  5  8  1  0
  6  9  1  0
  5 10  1  0
  6 11  1  0
  7 12  2  0
  9 13  1  0
  9 14  1  6
  8 15  1  0
  8 16  1  0
 10 17  1  0
 10 18  2  0
  8 19  1  1
 11 20  2  0
 12 20  1  0
 13 21  1  0
 15 22  2  0
 20 23  1  0
 17 24  1  0
 18 25  1  0
 17 26  2  0
 19 27  2  0
 19 28  1  0
 15 29  1  0
 30 16  1  1
 29 30  1  0
 21 31  1  0
 29 32  1  6
 23 33  1  0
 24 34  1  0
 25 35  2  0
 26 35  1  0
 27 36  1  0
 28 37  2  0
 30 38  1  0
 29 39  1  0
 34 40  1  0
 36 41  2  0
 37 41  1  0
 38 42  1  0
 39 43  1  0
 42 43  1  0
 41 44  1  0
 40 45  1  0
 42 46  1  1
 44 47  1  0
 44 48  1  0
 44 49  1  0
 45 50  2  0
 46 51  1  0
 46 52  2  0
 45 53  1  0
 51 54  1  0
 51 55  1  0
 53 56  2  0
 53 57  1  0
 56 58  1  0
 54 59  1  0
 54 60  1  0
 57 61  2  0
 56 62  1  0
 61 63  1  0
 62 63  2  0
M  END
