x3110-x3113-x1308
     RDKit          3D

 50 54  0  0  0  0  0  0  0  0999 V2000
    7.7940    1.2570   23.2750 N   0  0  0  0  0  0  0  0  0  0  0  0
    8.8170    2.3150   23.4780 C   0  0  0  0  0  0  0  0  0  0  0  0
   10.1810    2.0340   23.6210 C   0  0  0  0  0  0  0  0  0  0  0  0
    7.5530    0.6720   21.9180 C   0  0  0  0  0  0  0  0  0  0  0  0
    8.3690    0.9800   21.0380 O   0  0  0  0  0  0  0  0  0  0  0  0
    6.4200   -0.1680   21.6350 C   0  0  2  0  0  0  0  0  0  0  0  0
    6.6530   -1.6470   22.0080 C   0  0  2  0  0  0  0  0  0  0  0  0
   10.9610    3.1480   23.4030 C   0  0  0  0  0  0  0  0  0  0  0  0
    6.1750    0.1910   20.1510 C   0  0  0  0  0  0  0  0  0  0  0  0
   11.9590    3.1400   22.4760 O   0  0  0  0  0  0  0  0  0  0  0  0
   10.7110    4.1440   24.0710 O   0  0  0  0  0  0  0  0  0  0  0  0
    6.0020   -2.8130   21.1110 C   0  0  0  0  0  0  0  0  0  0  0  0
    5.7600   -2.0740   23.1400 C   0  0  0  0  0  0  0  0  0  0  0  0
    5.1180    1.0590   20.2170 C   0  0  0  0  0  0  0  0  0  0  0  0
    6.7710   -0.1780   19.0930 C   0  0  0  0  0  0  0  0  0  0  0  0
    8.1490   -1.6830   22.4550 C   0  0  0  0  0  0  0  0  0  0  0  0
   12.3280    4.4360   22.0030 C   0  0  0  0  0  0  0  0  0  0  0  0
    4.8020   -2.8990   20.6660 O   0  0  0  0  0  0  0  0  0  0  0  0
    6.7090   -4.0770   20.9550 C   0  0  1  0  0  0  0  0  0  0  0  0
    5.2780   -3.5210   23.0050 C   0  0  0  0  0  0  0  0  0  0  0  0
    6.3920    0.2900   17.8770 N   0  0  0  0  0  0  0  0  0  0  0  0
    4.6740    1.5770   19.0120 C   0  0  0  0  0  0  0  0  0  0  0  0
    9.3370   -1.4870   21.5950 C   0  0  0  0  0  0  0  0  0  0  0  0
    8.4820   -1.8960   23.7980 C   0  0  0  0  0  0  0  0  0  0  0  0
   13.4480    5.2530   22.6810 C   0  0  0  0  0  0  0  0  0  0  0  0
    8.2300   -4.0510   20.7130 C   0  0  0  0  0  0  0  0  0  0  0  0
    5.2480    1.2480   17.8560 C   0  0  0  0  0  0  0  0  0  0  0  0
   10.7070   -1.5130   22.0210 C   0  0  0  0  0  0  0  0  0  0  0  0
    9.9010   -1.9280   24.3550 C   0  0  0  0  0  0  0  0  0  0  0  0
    6.2950   -4.5700   22.3280 C   0  0  0  0  0  0  0  0  0  0  0  0
   10.9860   -1.7480   23.5220 C   0  0  0  0  0  0  0  0  0  0  0  0
    7.3960   -4.8020   23.1300 C   0  0  0  0  0  0  0  0  0  0  0  0
    5.6430   -5.9590   22.2200 C   0  0  0  0  0  0  0  0  0  0  0  0
   12.3980   -1.7710   24.0990 C   0  0  0  0  0  0  0  0  0  0  0  0
    7.0360   -5.0050   24.4420 C   0  0  0  0  0  0  0  0  0  0  0  0
    5.0800   -6.3640   23.4190 C   0  0  0  0  0  0  0  0  0  0  0  0
   12.5780   -0.5950   24.8090 C   0  0  0  0  0  0  0  0  0  0  0  0
   13.4290   -1.7880   22.9760 C   0  0  0  0  0  0  0  0  0  0  0  0
   12.6510   -2.9100   24.8950 C   0  0  0  0  0  0  0  0  0  0  0  0
    5.7070   -5.6600   24.5500 N   0  0  0  0  0  0  0  0  0  0  0  0
    5.0170   -5.8010   26.1070 S   0  0  0  0  0  0  0  0  0  0  0  0
    5.9620   -5.4370   27.1150 O   0  0  0  0  0  0  0  0  0  0  0  0
    4.3000   -7.0430   26.1720 O   0  0  0  0  0  0  0  0  0  0  0  0
    3.8230   -4.5000   26.1460 C   0  0  0  0  0  0  0  0  0  0  0  0
    4.2360   -3.0430   26.5080 C   0  0  0  0  0  0  0  0  0  0  0  0
    2.5000   -4.7600   25.8640 C   0  0  0  0  0  0  0  0  0  0  0  0
    3.2300   -2.0460   26.5480 C   0  0  0  0  0  0  0  0  0  0  0  0
    1.4640   -3.6870   25.9140 C   0  0  0  0  0  0  0  0  0  0  0  0
    1.8860   -2.2720   26.2840 C   0  0  0  0  0  0  0  0  0  0  0  0
    0.6630   -1.0780   26.3530 Cl  0  0  0  0  0  0  0  0  0  0  0  0
  1  2  1  0
  2  3  1  0
  1  4  1  0
  4  5  2  0
  6  4  1  6
  6  7  1  0
  3  8  1  0
  6  9  1  0
  8 10  1  0
  8 11  2  0
  7 12  1  0
  7 13  1  0
  9 14  2  0
  9 15  1  0
  7 16  1  1
 10 17  1  0
 12 18  2  0
 12 19  1  0
 13 20  1  0
 15 21  2  0
 14 22  1  0
 16 23  2  0
 16 24  1  0
 17 25  1  0
 19 26  1  1
 21 27  1  0
 22 27  2  0
 23 28  1  0
 24 29  2  0
 19 30  1  0
 30 20  1  0
 28 31  2  0
 29 31  1  0
 30 32  1  0
 30 33  1  0
 31 34  1  0
 32 35  1  0
 33 36  1  0
 34 37  1  0
 34 38  1  0
 34 39  1  0
 35 40  1  0
 36 40  1  0
 40 41  1  0
 41 42  2  0
 41 43  2  0
 41 44  1  0
 44 45  2  0
 44 46  1  0
 45 47  1  0
 46 48  2  0
 47 49  2  0
 48 49  1  0
 49 50  1  0
M  END
