x3110-x1119-x0072
     RDKit          3D

 65 70  0  0  0  0  0  0  0  0999 V2000
    7.9720    1.2730   23.1580 N   0  0  0  0  0  0  0  0  0  0  0  0
    8.7940    2.4450   23.2450 C   0  0  0  0  0  0  0  0  0  0  0  0
   10.1620    2.3130   23.5510 C   0  0  0  0  0  0  0  0  0  0  0  0
    7.7850    0.5890   21.9070 C   0  0  0  0  0  0  0  0  0  0  0  0
    8.6130    0.8660   21.0510 O   0  0  0  0  0  0  0  0  0  0  0  0
    6.6770   -0.3040   21.6010 C   0  0  2  0  0  0  0  0  0  0  0  0
    6.9950   -1.7770   21.4920 N   0  0  0  0  0  0  0  0  0  0  0  0
   10.9740    3.5790   23.3450 C   0  0  0  0  0  0  0  0  0  0  0  0
    6.1280    0.2730   20.3100 C   0  0  0  0  0  0  0  0  0  0  0  0
   11.7080    3.5040   22.1910 O   0  0  0  0  0  0  0  0  0  0  0  0
   10.9750    4.5280   24.1150 O   0  0  0  0  0  0  0  0  0  0  0  0
    6.1090   -2.9370   21.1750 C   0  0  0  0  0  0  0  0  0  0  0  0
    5.0300    1.0810   20.1810 C   0  0  0  0  0  0  0  0  0  0  0  0
    6.7150    0.0660   19.0720 C   0  0  0  0  0  0  0  0  0  0  0  0
    8.1160   -2.0920   22.2560 C   0  0  1  0  0  0  0  0  0  0  0  0
   12.6670    4.5610   21.9230 C   0  0  0  0  0  0  0  0  0  0  0  0
    4.8550   -2.9910   20.9720 O   0  0  0  0  0  0  0  0  0  0  0  0
    6.7650   -4.3270   21.1380 C   0  0  0  0  0  0  0  0  0  0  0  0
    6.3320    0.5650   17.8710 N   0  0  0  0  0  0  0  0  0  0  0  0
    4.5630    1.6630   18.8770 C   0  0  0  0  0  0  0  0  0  0  0  0
    9.3960   -1.7510   21.8150 C   0  0  0  0  0  0  0  0  0  0  0  0
    7.7930   -1.9440   23.6100 C   0  0  0  0  0  0  0  0  0  0  0  0
   13.9580    4.1770   22.6490 C   0  0  0  0  0  0  0  0  0  0  0  0
    7.1550   -3.5420   19.8460 C   0  0  0  0  0  0  0  0  0  0  0  0
    5.1700    1.4630   17.6460 C   0  0  0  0  0  0  0  0  0  0  0  0
   10.1440   -1.0560   22.7210 C   0  0  1  0  0  0  0  0  0  0  0  0
    8.8690   -2.2500   24.3750 C   0  0  1  0  0  0  0  0  0  0  0  0
    9.0270   -3.7270   24.4460 C   0  0  0  0  0  0  0  0  0  0  0  0
   15.2510    4.9490   22.3260 C   0  0  0  0  0  0  0  0  0  0  0  0
   10.0630   -1.4780   23.9830 C   0  0  2  0  0  0  0  0  0  0  0  0
   11.3640   -0.7200   22.2900 C   0  0  0  0  0  0  0  0  0  0  0  0
    7.8330   -4.2750   25.0360 N   0  0  0  0  0  0  0  0  0  0  0  0
   16.4880    4.2680   22.5870 C   0  0  0  0  0  0  0  0  0  0  0  0
   12.4210   -0.6460   23.3620 C   0  0  2  0  0  0  0  0  0  0  0  0
   10.4900   -0.3870   24.9040 C   0  0  0  0  0  0  0  0  0  0  0  0
   12.8220   -2.0660   23.8730 C   0  0  0  0  0  0  0  0  0  0  0  0
    8.0250   -4.9180   26.5610 S   0  0  0  0  0  0  0  0  0  0  0  0
   17.4470    4.7360   23.5460 C   0  0  0  0  0  0  0  0  0  0  0  0
   11.9140   -0.0550   24.6130 C   0  0  1  0  0  0  0  0  0  0  0  0
   12.8990   -0.6270   25.5360 C   0  0  0  0  0  0  0  0  0  0  0  0
   13.6250   -2.5800   22.8460 C   0  0  0  0  0  0  0  0  0  0  0  0
   11.8900   -3.1010   24.5100 C   0  0  0  0  0  0  0  0  0  0  0  0
    6.4970   -5.5450   26.8910 C   0  0  0  0  0  0  0  0  0  0  0  0
    8.9800   -5.9840   26.3890 O   0  0  0  0  0  0  0  0  0  0  0  0
    8.2800   -3.8040   27.4250 O   0  0  0  0  0  0  0  0  0  0  0  0
   18.5350    5.7870   23.5350 C   0  0  0  0  0  0  0  0  0  0  0  0
   13.4540   -1.7360   25.1160 C   0  0  0  0  0  0  0  0  0  0  0  0
   19.4460    6.1760   22.4890 C   0  0  0  0  0  0  0  0  0  0  0  0
   20.6290    6.7680   22.7360 N   0  0  0  0  0  0  0  0  0  0  0  0
   21.5780    5.8660   23.2980 C   0  0  0  0  0  0  0  0  0  0  0  0
   23.0630    6.1080   23.1610 C   0  0  0  0  0  0  0  0  0  0  0  0
   21.1110    4.7730   23.9540 C   0  0  0  0  0  0  0  0  0  0  0  0
   23.8440    4.9820   23.8570 C   0  0  0  0  0  0  0  0  0  0  0  0
   21.8950    3.8420   24.5230 C   0  0  0  0  0  0  0  0  0  0  0  0
   23.2280    3.9240   24.4990 C   0  0  0  0  0  0  0  0  0  0  0  0
   24.0890    2.5710   25.3360 S   0  0  0  0  0  0  0  0  0  0  0  0
   23.0460    1.5730   25.4990 O   0  0  0  0  0  0  0  0  0  0  0  0
   24.4070    3.0780   26.8870 N   0  0  0  0  0  0  0  0  0  0  0  0
   25.4670    2.2360   24.5040 O   0  0  0  0  0  0  0  0  0  0  0  0
   25.1520    4.2840   27.2250 C   0  0  0  0  0  0  0  0  0  0  0  0
   25.0940    4.7130   28.6210 N   0  0  0  0  0  0  0  0  0  0  0  0
   25.8610    4.9690   26.3170 C   0  0  0  0  0  0  0  0  0  0  0  0
   25.8690    5.9400   28.9370 C   0  0  0  0  0  0  0  0  0  0  0  0
   26.5630    6.0940   26.6330 C   0  0  0  0  0  0  0  0  0  0  0  0
   26.5710    6.5770   27.9290 C   0  0  0  0  0  0  0  0  0  0  0  0
  1  2  1  0
  2  3  1  0
  1  4  1  0
  4  5  2  0
  6  4  1  6
  6  7  1  0
  3  8  1  0
  6  9  1  0
  8 10  1  0
  8 11  2  0
  7 12  1  0
  9 13  2  0
  9 14  1  0
 15  7  1  6
 10 16  1  0
 12 17  2  0
 12 18  1  0
 14 19  2  0
 13 20  1  0
 15 21  1  0
 15 22  1  0
 16 23  1  0
 18 24  1  0
 19 25  1  0
 20 25  2  0
 26 21  1  6
 22 27  1  0
 27 28  1  6
 23 29  1  0
 26 30  1  0
 27 30  1  0
 26 31  1  0
 28 32  1  0
 29 33  1  0
 34 31  1  6
 30 35  1  1
 34 36  1  0
 37 32  1  0
 33 38  1  0
 34 39  1  0
 39 35  1  1
 39 40  1  0
 36 41  1  0
 36 42  1  0
 37 43  1  0
 37 44  2  0
 37 45  2  0
 38 46  1  0
 36 47  1  0
 40 47  2  0
 46 48  1  0
 48 49  1  0
 49 50  1  0
 50 51  2  0
 50 52  1  0
 51 53  1  0
 52 54  2  0
 53 55  2  0
 54 55  1  0
 55 56  1  0
 56 57  2  0
 56 58  1  0
 56 59  2  0
 58 60  1  0
 60 61  2  0
 60 62  1  0
 61 63  1  0
 62 64  2  0
 63 65  2  0
 64 65  1  0
M  END
