x3110-x1119-x1348
     RDKit          3D

 65 70  0  0  0  0  0  0  0  0999 V2000
    8.1130    1.0530   23.2830 N   0  0  0  0  0  0  0  0  0  0  0  0
    8.9170    2.2470   23.6730 C   0  0  0  0  0  0  0  0  0  0  0  0
   10.3050    2.1330   23.5180 C   0  0  0  0  0  0  0  0  0  0  0  0
    7.8460    0.7230   21.8810 C   0  0  0  0  0  0  0  0  0  0  0  0
    8.5700    1.3990   20.9260 O   0  0  0  0  0  0  0  0  0  0  0  0
    6.7160   -0.3400   21.5570 C   0  0  2  0  0  0  0  0  0  0  0  0
    7.1320   -1.7780   21.5680 N   0  0  0  0  0  0  0  0  0  0  0  0
   10.9940    3.3290   23.3060 C   0  0  0  0  0  0  0  0  0  0  0  0
    6.1200    0.2310   20.2820 C   0  0  0  0  0  0  0  0  0  0  0  0
   11.6800    3.4440   22.0680 O   0  0  0  0  0  0  0  0  0  0  0  0
   11.0070    4.2330   24.1250 O   0  0  0  0  0  0  0  0  0  0  0  0
    6.2530   -2.9860   21.3090 C   0  0  0  0  0  0  0  0  0  0  0  0
    4.9850    1.0460   20.1900 C   0  0  0  0  0  0  0  0  0  0  0  0
    6.8590   -0.1320   19.1590 C   0  0  0  0  0  0  0  0  0  0  0  0
    8.4120   -1.8190   22.2980 C   0  0  0  0  0  0  0  0  0  0  0  0
   12.6530    4.3880   21.9760 C   0  0  0  0  0  0  0  0  0  0  0  0
    4.9810   -3.1170   20.8980 O   0  0  0  0  0  0  0  0  0  0  0  0
    6.8820   -4.3320   21.6440 C   0  0  1  0  0  0  0  0  0  0  0  0
    6.4000    0.3950   17.8670 N   0  0  0  0  0  0  0  0  0  0  0  0
    4.5530    1.5420   18.9640 C   0  0  0  0  0  0  0  0  0  0  0  0
    9.5700   -1.3380   21.6750 C   0  0  0  0  0  0  0  0  0  0  0  0
    8.5320   -2.3120   23.6200 C   0  0  0  0  0  0  0  0  0  0  0  0
   13.9610    4.1800   22.6800 C   0  0  0  0  0  0  0  0  0  0  0  0
    8.3340   -4.5590   21.1850 C   0  0  0  0  0  0  0  0  0  0  0  0
    5.2030    1.2710   17.7700 C   0  0  0  0  0  0  0  0  0  0  0  0
   10.7470   -1.3500   22.3050 C   0  0  0  0  0  0  0  0  0  0  0  0
    9.7940   -2.3080   24.2640 C   0  0  0  0  0  0  0  0  0  0  0  0
    6.6310   -4.3960   23.1220 N   0  0  0  0  0  0  0  0  0  0  0  0
   15.2790    4.9170   22.2570 C   0  0  0  0  0  0  0  0  0  0  0  0
   10.9640   -1.8420   23.6780 C   0  0  0  0  0  0  0  0  0  0  0  0
    6.3940   -5.5740   23.9340 C   0  0  1  0  0  0  0  0  0  0  0  0
    5.5450   -3.6730   23.3190 C   0  0  0  0  0  0  0  0  0  0  0  0
   12.2100   -1.7970   24.2330 C   0  0  0  0  0  0  0  0  0  0  0  0
   16.6210    4.4340   22.5270 C   0  0  0  0  0  0  0  0  0  0  0  0
    6.2990   -5.2380   25.3440 C   0  0  2  0  0  0  0  0  0  0  0  0
    5.1680   -5.9200   23.3800 C   0  0  2  0  0  0  0  0  0  0  0  0
    3.9550   -4.5000   23.4660 S   0  0  0  0  0  0  0  0  0  0  0  0
   12.3250   -0.6190   24.9580 C   0  0  0  0  0  0  0  0  0  0  0  0
   13.3010   -1.7660   23.1430 C   0  0  0  0  0  0  0  0  0  0  0  0
   12.6330   -2.9710   25.1340 C   0  0  0  0  0  0  0  0  0  0  0  0
    7.6620   -5.3460   25.8510 O   0  0  0  0  0  0  0  0  0  0  0  0
   17.4800    5.0470   23.4840 C   0  0  0  0  0  0  0  0  0  0  0  0
    4.3490   -6.9740   24.1040 C   0  0  0  0  0  0  0  0  0  0  0  0
    5.3970   -5.9490   26.1830 C   0  0  0  0  0  0  0  0  0  0  0  0
    7.8240   -5.5360   27.2740 C   0  0  0  0  0  0  0  0  0  0  0  0
   18.7030    5.8840   23.4970 C   0  0  0  0  0  0  0  0  0  0  0  0
    4.5350   -6.8960   25.6270 C   0  0  0  0  0  0  0  0  0  0  0  0
   19.4700    6.4700   22.4130 C   0  0  0  0  0  0  0  0  0  0  0  0
   20.6720    6.9960   22.7060 N   0  0  0  0  0  0  0  0  0  0  0  0
   21.5170    6.1100   23.3120 C   0  0  0  0  0  0  0  0  0  0  0  0
   22.5690    5.4520   22.7110 C   0  0  0  0  0  0  0  0  0  0  0  0
   21.3060    5.8080   24.6650 C   0  0  0  0  0  0  0  0  0  0  0  0
   23.3320    4.5430   23.4070 C   0  0  0  0  0  0  0  0  0  0  0  0
   22.0750    4.8900   25.3560 C   0  0  0  0  0  0  0  0  0  0  0  0
   23.1100    4.2210   24.7290 C   0  0  0  0  0  0  0  0  0  0  0  0
   24.0540    3.0530   25.5360 S   0  0  0  0  0  0  0  0  0  0  0  0
   23.3760    1.6470   25.5900 O   0  0  0  0  0  0  0  0  0  0  0  0
   24.1080    3.5700   27.1070 N   0  0  0  0  0  0  0  0  0  0  0  0
   25.3890    2.9310   25.0200 O   0  0  0  0  0  0  0  0  0  0  0  0
   25.0150    4.5880   27.3550 C   0  0  0  0  0  0  0  0  0  0  0  0
   25.1290    4.8270   28.6720 N   0  0  0  0  0  0  0  0  0  0  0  0
   25.7040    5.2570   26.3440 C   0  0  0  0  0  0  0  0  0  0  0  0
   26.0500    5.8780   29.1520 C   0  0  0  0  0  0  0  0  0  0  0  0
   26.6450    6.3220   26.7550 C   0  0  0  0  0  0  0  0  0  0  0  0
   26.7930    6.6130   28.2390 C   0  0  0  0  0  0  0  0  0  0  0  0
  1  2  1  0
  2  3  1  0
  1  4  1  0
  4  5  2  0
  6  4  1  6
  6  7  1  0
  3  8  1  0
  6  9  1  0
  8 10  1  0
  8 11  2  0
  7 12  1  0
  9 13  2  0
  9 14  1  0
  7 15  1  0
 10 16  1  0
 12 17  2  0
 12 18  1  0
 14 19  2  0
 13 20  1  0
 15 21  2  0
 15 22  1  0
 16 23  1  0
 18 24  1  1
 19 25  1  0
 20 25  2  0
 21 26  1  0
 22 27  2  0
 18 28  1  0
 23 29  1  0
 26 30  2  0
 27 30  1  0
 31 28  1  6
 28 32  1  0
 30 33  1  0
 29 34  1  0
 31 35  1  0
 31 36  1  0
 32 37  2  0
 36 37  1  0
 33 38  1  0
 33 39  1  0
 33 40  1  0
 35 41  1  1
 34 42  1  0
 36 43  1  1
 35 44  1  0
 41 45  1  0
 42 46  1  0
 43 47  2  0
 44 47  1  0
 46 48  1  0
 48 49  1  0
 49 50  1  0
 50 51  2  0
 50 52  1  0
 51 53  1  0
 52 54  2  0
 53 55  2  0
 54 55  1  0
 55 56  1  0
 56 57  2  0
 56 58  1  0
 56 59  2  0
 58 60  1  0
 60 61  2  0
 60 62  1  0
 61 63  1  0
 62 64  2  0
 63 65  2  0
 64 65  1  0
M  END
