x3113-x1493
     RDKit          3D

 40 43  0  0  0  0  0  0  0  0999 V2000
    6.7850   -1.5090   22.1400 C   0  0  1  0  0  0  0  0  0  0  0  0
    5.9880   -2.7430   21.4090 C   0  0  0  0  0  0  0  0  0  0  0  0
    4.7960   -2.8900   20.8870 O   0  0  0  0  0  0  0  0  0  0  0  0
    6.5630   -0.0750   21.7520 C   0  0  1  0  0  0  0  0  0  0  0  0
    6.3230   -2.0800   23.5010 C   0  0  0  0  0  0  0  0  0  0  0  0
    8.3130   -1.6730   22.5320 C   0  0  0  0  0  0  0  0  0  0  0  0
    6.6820   -4.0150   21.5330 C   0  0  2  0  0  0  0  0  0  0  0  0
    7.7920    0.8940   21.9350 C   0  0  0  0  0  0  0  0  0  0  0  0
    6.1850    0.2770   20.3360 C   0  0  0  0  0  0  0  0  0  0  0  0
    9.4420   -2.2180   21.7140 C   0  0  0  0  0  0  0  0  0  0  0  0
    8.7700   -1.2710   23.8100 C   0  0  0  0  0  0  0  0  0  0  0  0
    6.7650   -3.5760   23.4950 C   0  0  2  0  0  0  0  0  0  0  0  0
    6.6410   -4.7440   20.2150 C   0  0  0  0  0  0  0  0  0  0  0  0
    8.2330    1.3450   23.2470 N   0  0  0  0  0  0  0  0  0  0  0  0
    8.4100    1.3140   20.9400 O   0  0  0  0  0  0  0  0  0  0  0  0
    5.0830    1.1060   20.2210 C   0  0  0  0  0  0  0  0  0  0  0  0
    6.7990   -0.1080   19.2620 C   0  0  0  0  0  0  0  0  0  0  0  0
   10.7850   -2.3110   22.1700 C   0  0  0  0  0  0  0  0  0  0  0  0
   10.1870   -1.3640   24.3120 C   0  0  0  0  0  0  0  0  0  0  0  0
    5.8960   -4.3450   22.8050 C   0  0  2  0  0  0  0  0  0  0  0  0
    7.3690   -4.3180   24.5780 N   0  0  0  0  0  0  0  0  0  0  0  0
    9.0180    2.6100   23.4200 C   0  0  0  0  0  0  0  0  0  0  0  0
    6.4430    0.2510   18.0060 N   0  0  0  0  0  0  0  0  0  0  0  0
    4.6650    1.5110   18.9710 C   0  0  0  0  0  0  0  0  0  0  0  0
   11.2140   -1.8630   23.5620 C   0  0  0  0  0  0  0  0  0  0  0  0
    5.8380   -5.6710   23.4420 N   0  0  0  0  0  0  0  0  0  0  0  0
    8.0590   -5.4520   23.9300 C   0  0  0  0  0  0  0  0  0  0  0  0
   10.4020    2.3340   23.4000 C   0  0  0  0  0  0  0  0  0  0  0  0
   12.6310   -1.9360   24.0830 C   0  0  0  0  0  0  0  0  0  0  0  0
    5.5450   -5.8370   24.9190 C   0  0  0  0  0  0  0  0  0  0  0  0
    5.2780    1.1390   17.8670 C   0  0  0  0  0  0  0  0  0  0  0  0
    7.0830   -6.2520   23.0710 C   0  0  0  0  0  0  0  0  0  0  0  0
   11.0360    3.5870   23.2800 C   0  0  0  0  0  0  0  0  0  0  0  0
   13.4830   -1.9690   23.0180 C   0  0  0  0  0  0  0  0  0  0  0  0
   12.8240   -2.9570   25.0070 C   0  0  0  0  0  0  0  0  0  0  0  0
   12.7980   -0.6280   24.8630 C   0  0  0  0  0  0  0  0  0  0  0  0
    4.2940   -6.3340   25.2680 C   0  0  0  0  0  0  0  0  0  0  0  0
    6.4910   -5.5430   25.9700 O   0  0  0  0  0  0  0  0  0  0  0  0
   12.2390    3.3930   22.6660 O   0  0  0  0  0  0  0  0  0  0  0  0
   13.0350    4.5790   22.6640 C   0  0  0  0  0  0  0  0  0  0  0  0
  1  2  1  0
  2  3  2  0
  1  4  1  0
  1  5  1  0
  1  6  1  1
  2  7  1  0
  4  8  1  6
  4  9  1  0
  6 10  2  0
  6 11  1  0
 12  5  1  1
  7 13  1  6
  8 14  1  0
  8 15  2  0
  9 16  2  0
  9 17  1  0
 10 18  1  0
 11 19  2  0
  7 20  1  0
 12 20  1  0
 12 21  1  0
 14 22  1  0
 17 23  2  0
 16 24  1  0
 18 25  2  0
 19 25  1  0
 20 26  1  1
 21 27  1  0
 22 28  1  0
 25 29  1  0
 26 30  1  0
 23 31  1  0
 24 31  2  0
 26 32  1  0
 27 32  1  0
 28 33  1  0
 29 34  1  0
 29 35  1  0
 29 36  1  0
 30 37  1  0
 30 38  2  0
 33 39  1  0
 39 40  1  0
M  END
