x3110-x0771-x3117
     RDKit          3D

 55 61  0  0  0  0  0  0  0  0999 V2000
    7.4670    1.8300   23.0630 N   0  0  0  0  0  0  0  0  0  0  0  0
    7.5840    0.8100   22.0070 C   0  0  0  0  0  0  0  0  0  0  0  0
    8.5240    0.7830   21.2120 O   0  0  0  0  0  0  0  0  0  0  0  0
    8.3480    2.9410   23.0520 C   0  0  2  0  0  0  0  0  0  0  0  0
    6.5130   -0.2870   21.7820 C   0  0  2  0  0  0  0  0  0  0  0  0
    9.5700    2.8730   23.6730 C   0  0  1  0  0  0  0  0  0  0  0  0
    7.7230    4.1900   23.3080 C   0  0  0  0  0  0  0  0  0  0  0  0
    6.8660   -1.7680   21.9940 C   0  0  2  0  0  0  0  0  0  0  0  0
   10.3100    1.5660   23.5790 C   0  0  0  0  0  0  0  0  0  0  0  0
    6.1250    0.1420   20.5090 C   0  0  0  0  0  0  0  0  0  0  0  0
   10.3250    3.9850   23.2260 C   0  0  2  0  0  0  0  0  0  0  0  0
    8.5150    5.3850   23.4870 C   0  0  0  0  0  0  0  0  0  0  0  0
   11.8240    3.5400   23.0520 C   0  0  1  0  0  0  0  0  0  0  0  0
    6.0980   -2.8790   21.1400 C   0  0  0  0  0  0  0  0  0  0  0  0
    6.2680   -2.5630   23.1190 C   0  0  0  0  0  0  0  0  0  0  0  0
    5.0170    0.9640   20.3450 C   0  0  0  0  0  0  0  0  0  0  0  0
    6.8230   -0.1940   19.3180 C   0  0  0  0  0  0  0  0  0  0  0  0
    8.3630   -1.7430   22.5420 C   0  0  0  0  0  0  0  0  0  0  0  0
    9.8870    5.1590   23.8680 O   0  0  0  0  0  0  0  0  0  0  0  0
   11.3980    2.1650   23.2690 C   0  0  0  0  0  0  0  0  0  0  0  0
   12.2200    3.6720   21.9190 O   0  0  0  0  0  0  0  0  0  0  0  0
    4.8390   -2.9510   20.8600 O   0  0  0  0  0  0  0  0  0  0  0  0
    6.8750   -4.0800   20.7940 C   0  0  1  0  0  0  0  0  0  0  0  0
    6.4150    0.3050   17.9650 N   0  0  0  0  0  0  0  0  0  0  0  0
    4.5360    1.5160   18.9850 C   0  0  0  0  0  0  0  0  0  0  0  0
    9.4030   -1.5530   21.6370 C   0  0  0  0  0  0  0  0  0  0  0  0
    8.6930   -1.8880   23.9030 C   0  0  0  0  0  0  0  0  0  0  0  0
    7.0010   -3.9850   23.1820 C   0  0  2  0  0  0  0  0  0  0  0  0
   12.7380    4.7560   21.7170 C   0  0  0  0  0  0  0  0  0  0  0  0
    8.3130   -3.7410   20.3990 C   0  0  0  0  0  0  0  0  0  0  0  0
    5.2360    1.1840   17.8440 C   0  0  0  0  0  0  0  0  0  0  0  0
   10.7390   -1.5380   22.1180 C   0  0  0  0  0  0  0  0  0  0  0  0
   10.0270   -1.8520   24.3020 C   0  0  0  0  0  0  0  0  0  0  0  0
    6.7700   -4.8260   21.9650 N   0  0  0  0  0  0  0  0  0  0  0  0
    6.6990   -4.5870   24.5080 C   0  0  0  0  0  0  0  0  0  0  0  0
   13.3810    5.5480   22.8420 C   0  0  0  0  0  0  0  0  0  0  0  0
   11.0830   -1.6880   23.4530 C   0  0  0  0  0  0  0  0  0  0  0  0
    5.7180   -5.8450   22.0480 C   0  0  0  0  0  0  0  0  0  0  0  0
    5.6470   -5.6050   24.4240 N   0  0  0  0  0  0  0  0  0  0  0  0
   12.4790   -1.6670   23.9570 C   0  0  0  0  0  0  0  0  0  0  0  0
    4.8230   -5.8740   25.8870 S   0  0  0  0  0  0  0  0  0  0  0  0
    4.8750   -5.6210   23.1470 C   0  0  0  0  0  0  0  0  0  0  0  0
   12.5430   -0.5600   24.7920 C   0  0  0  0  0  0  0  0  0  0  0  0
   13.3370   -1.7830   22.8680 C   0  0  0  0  0  0  0  0  0  0  0  0
   12.8080   -2.8490   24.8910 C   0  0  0  0  0  0  0  0  0  0  0  0
    4.1180   -7.1260   25.7950 O   0  0  0  0  0  0  0  0  0  0  0  0
    5.7770   -5.6190   26.9370 O   0  0  0  0  0  0  0  0  0  0  0  0
    3.6370   -4.5430   25.9400 C   0  0  0  0  0  0  0  0  0  0  0  0
    2.3070   -4.7680   25.5460 C   0  0  0  0  0  0  0  0  0  0  0  0
    4.0520   -3.2870   26.3850 C   0  0  0  0  0  0  0  0  0  0  0  0
    1.8180   -6.1010   25.0540 C   0  0  0  0  0  0  0  0  0  0  0  0
    1.3630   -3.7230   25.6090 C   0  0  0  0  0  0  0  0  0  0  0  0
    3.0290   -2.1680   26.4480 C   0  0  0  0  0  0  0  0  0  0  0  0
    1.7070   -2.4370   26.0580 C   0  0  0  0  0  0  0  0  0  0  0  0
    0.6950   -1.3750   26.1280 C   0  0  0  0  0  0  0  0  0  0  0  0
  1  2  1  0
  2  3  2  0
  4  1  1  1
  5  2  1  6
  4  6  1  0
  4  7  1  0
  5  8  1  0
  6  9  1  6
  5 10  1  0
  6 11  1  0
  7 12  1  0
 11 13  1  0
  8 14  1  0
  8 15  1  0
 10 16  2  0
 10 17  1  0
  8 18  1  1
 11 19  1  1
 12 19  1  0
  9 20  2  0
 13 20  1  0
 13 21  1  6
 14 22  2  0
 14 23  1  0
 17 24  2  0
 16 25  1  0
 18 26  2  0
 18 27  1  0
 28 15  1  6
 21 29  1  0
 23 30  1  1
 24 31  1  0
 25 31  2  0
 26 32  1  0
 27 33  2  0
 23 34  1  0
 28 34  1  0
 28 35  1  0
 29 36  1  0
 32 37  2  0
 33 37  1  0
 34 38  1  0
 35 39  1  0
 37 40  1  0
 39 41  1  0
 38 42  1  0
 39 42  1  0
 40 43  1  0
 40 44  1  0
 40 45  1  0
 41 46  2  0
 41 47  2  0
 41 48  1  0
 48 49  2  0
 48 50  1  0
 49 51  1  0
 49 52  1  0
 50 53  2  0
 52 54  2  0
 53 54  1  0
 54 55  1  0
M  END
