x3110-x0107-x0769-x1311
     RDKit          3D

 56 61  0  0  0  0  0  0  0  0999 V2000
    7.1020    1.8400   22.6410 N   0  0  0  0  0  0  0  0  0  0  0  0
    7.8190    3.1260   22.8110 C   0  0  0  0  0  0  0  0  0  0  0  0
    8.8180    3.1620   23.9820 C   0  0  0  0  0  0  0  0  0  0  0  0
    6.8860    1.2060   21.3710 C   0  0  2  0  0  0  0  0  0  0  0  0
    6.6750    2.0710   20.4950 O   0  0  0  0  0  0  0  0  0  0  0  0
    5.9370   -0.0760   21.4730 C   0  0  2  0  0  0  0  0  0  0  0  0
    8.1880    0.5020   20.8390 C   0  0  0  0  0  0  0  0  0  0  0  0
    6.7100   -1.2980   22.0040 N   0  0  0  0  0  0  0  0  0  0  0  0
    9.6620    4.4270   23.9420 C   0  0  0  0  0  0  0  0  0  0  0  0
    5.3090   -0.1870   20.0260 C   0  0  0  0  0  0  0  0  0  0  0  0
    9.2910    0.0550   21.6870 C   0  0  0  0  0  0  0  0  0  0  0  0
   10.9360    4.1640   23.4850 O   0  0  0  0  0  0  0  0  0  0  0  0
    9.2530    5.5330   24.2870 O   0  0  0  0  0  0  0  0  0  0  0  0
    6.0760   -2.7320   21.6840 C   0  0  0  0  0  0  0  0  0  0  0  0
    4.2080    0.6740   19.7520 C   0  0  0  0  0  0  0  0  0  0  0  0
    5.8460   -1.0940   19.0170 C   0  0  0  0  0  0  0  0  0  0  0  0
   10.4550   -0.4160   22.5810 C   0  0  0  0  0  0  0  0  0  0  0  0
    8.2400   -0.9850   22.3680 C   0  0  0  0  0  0  0  0  0  0  0  0
   11.3700    4.7280   22.2170 C   0  0  0  0  0  0  0  0  0  0  0  0
    4.7780   -3.0270   21.4000 O   0  0  0  0  0  0  0  0  0  0  0  0
    7.0070   -3.9900   21.6160 C   0  0  2  0  0  0  0  0  0  0  0  0
    5.2740   -1.0980   17.7800 N   0  0  0  0  0  0  0  0  0  0  0  0
    3.6580    0.6560   18.4900 C   0  0  0  0  0  0  0  0  0  0  0  0
   10.8050   -1.3700   23.7310 C   0  0  0  0  0  0  0  0  0  0  0  0
    8.5810   -1.9250   23.5810 C   0  0  0  0  0  0  0  0  0  0  0  0
   12.8700    5.0090   22.2450 C   0  0  0  0  0  0  0  0  0  0  0  0
    6.8410   -4.7980   20.3550 C   0  0  0  0  0  0  0  0  0  0  0  0
   12.3130   -1.4030   24.2330 C   0  0  0  0  0  0  0  0  0  0  0  0
    4.1950   -0.2170   17.5570 C   0  0  0  0  0  0  0  0  0  0  0  0
    9.9010   -2.2140   24.3910 C   0  0  0  0  0  0  0  0  0  0  0  0
    7.4090   -4.8010   22.9340 C   0  0  0  0  0  0  0  0  0  0  0  0
   12.4940   -0.3770   25.2040 C   0  0  0  0  0  0  0  0  0  0  0  0
   13.3080   -1.3010   23.0230 C   0  0  0  0  0  0  0  0  0  0  0  0
   12.6740   -2.8270   24.7860 C   0  0  0  0  0  0  0  0  0  0  0  0
    8.7600   -5.2640   22.9030 C   0  0  0  0  0  0  0  0  0  0  0  0
    6.6290   -5.0840   24.1360 C   0  0  0  0  0  0  0  0  0  0  0  0
    9.3740   -5.9600   23.9780 C   0  0  0  0  0  0  0  0  0  0  0  0
    7.2750   -5.7780   25.2020 C   0  0  0  0  0  0  0  0  0  0  0  0
    5.1440   -4.6870   24.4090 C   0  0  0  0  0  0  0  0  0  0  0  0
    8.6210   -6.2030   25.1280 C   0  0  0  0  0  0  0  0  0  0  0  0
    3.8000   -5.5620   24.2930 C   0  0  1  0  0  0  0  0  0  0  0  0
    2.8820   -5.5520   25.8000 S   0  0  0  0  0  0  0  0  0  0  0  0
    3.0980   -5.3530   23.0360 C   0  0  0  0  0  0  0  0  0  0  0  0
    4.2550   -7.3220   23.8740 S   0  0  1  0  0  0  0  0  0  0  0  0
    1.7540   -6.4500   25.6700 O   0  0  0  0  0  0  0  0  0  0  0  0
    4.0410   -8.1490   25.0340 O   0  0  0  0  0  0  0  0  0  0  0  0
    3.7650   -5.8310   26.9120 O   0  0  0  0  0  0  0  0  0  0  0  0
    2.3670   -6.4670   22.5900 C   0  0  0  0  0  0  0  0  0  0  0  0
    2.8600   -7.6420   22.9490 C   0  0  0  0  0  0  0  0  0  0  0  0
    2.1790   -3.9750   26.0220 C   0  0  0  0  0  0  0  0  0  0  0  0
    2.9260   -2.9110   26.8990 C   0  0  0  0  0  0  0  0  0  0  0  0
    0.8600   -3.4300   25.4610 C   0  0  0  0  0  0  0  0  0  0  0  0
    4.0990   -3.1320   27.5100 F   0  0  0  0  0  0  0  0  0  0  0  0
    0.3940   -2.1320   25.7140 C   0  0  0  0  0  0  0  0  0  0  0  0
    2.3730   -1.6070   27.1000 C   0  0  0  0  0  0  0  0  0  0  0  0
    1.1350   -1.2420   26.5150 C   0  0  0  0  0  0  0  0  0  0  0  0
  1  2  1  0
  2  3  1  0
  1  4  1  0
  4  5  1  6
  4  6  1  0
  4  7  1  0
  6  8  1  0
  3  9  1  0
  6 10  1  6
  7 11  1  0
  9 12  1  0
  9 13  2  0
  8 14  1  0
 10 15  2  0
 10 16  1  0
 11 17  2  0
  8 18  1  0
 11 18  1  0
 12 19  1  0
 14 20  2  0
 14 21  1  0
 16 22  2  0
 15 23  1  0
 17 24  1  0
 18 25  2  0
 19 26  1  0
 21 27  1  6
 24 28  1  0
 22 29  1  0
 23 29  2  0
 24 30  2  0
 25 30  1  0
 21 31  1  0
 28 32  1  0
 28 33  1  0
 28 34  1  0
 31 35  2  0
 31 36  1  0
 35 37  1  0
 36 38  2  0
 36 39  1  0
 37 40  2  0
 38 40  1  0
 41 39  1  1
 41 42  1  0
 41 43  1  0
 41 44  1  0
 42 45  2  0
 44 46  1  1
 42 47  2  0
 43 48  1  0
 44 49  1  0
 48 49  2  0
 42 50  1  0
 50 51  2  0
 50 52  1  0
 51 53  1  0
 52 54  2  0
 51 55  1  0
 54 56  1  0
 55 56  2  0
M  END
