x3110-x0691-x0978-x1308-x0946
     RDKit          3D

 63 68  0  0  0  0  0  0  0  0999 V2000
    7.9990    1.2260   23.2770 N   0  0  0  0  0  0  0  0  0  0  0  0
    8.6140    2.5540   23.4710 C   0  0  0  0  0  0  0  0  0  0  0  0
   10.0800    2.4880   23.2370 C   0  0  0  0  0  0  0  0  0  0  0  0
    7.7820    0.8220   21.9360 C   0  0  0  0  0  0  0  0  0  0  0  0
    8.5080    1.3000   21.0360 O   0  0  0  0  0  0  0  0  0  0  0  0
    6.5730   -0.1740   21.6900 C   0  0  2  0  0  0  0  0  0  0  0  0
    6.9210   -1.6520   21.8730 N   0  0  0  0  0  0  0  0  0  0  0  0
    6.0490    0.3020   20.3270 C   0  0  0  0  0  0  0  0  0  0  0  0
   10.9180    3.6370   23.3420 C   0  0  0  0  0  0  0  0  0  0  0  0
   10.5950    1.2270   22.9110 C   0  0  0  0  0  0  0  0  0  0  0  0
   10.3910    4.9440   23.6910 C   0  0  0  0  0  0  0  0  0  0  0  0
    6.1130   -2.8540   21.3890 C   0  0  0  0  0  0  0  0  0  0  0  0
    4.8010    1.1500   20.1500 C   0  0  0  0  0  0  0  0  0  0  0  0
    6.7370   -0.0050   19.1640 C   0  0  0  0  0  0  0  0  0  0  0  0
    8.2810   -1.7280   22.4230 C   0  0  0  0  0  0  0  0  0  0  0  0
   11.8810    1.0090   22.6890 C   0  0  0  0  0  0  0  0  0  0  0  0
   12.2810    3.5550   23.1170 C   0  0  0  0  0  0  0  0  0  0  0  0
   13.2030    4.6920   23.1840 C   0  0  0  0  0  0  0  0  0  0  0  0
    4.8120   -2.9990   21.2510 O   0  0  0  0  0  0  0  0  0  0  0  0
    6.7720   -4.1670   20.9740 C   0  0  1  0  0  0  0  0  0  0  0  0
    9.2670    5.2460   22.9970 N   0  0  0  0  0  0  0  0  0  0  0  0
    9.9330    4.9380   25.0280 O   0  0  0  0  0  0  0  0  0  0  0  0
   11.2760    6.0210   23.6870 O   0  0  0  0  0  0  0  0  0  0  0  0
    6.4000    0.3870   17.9260 N   0  0  0  0  0  0  0  0  0  0  0  0
    4.4420    1.5640   18.8750 C   0  0  0  0  0  0  0  0  0  0  0  0
    9.4150   -1.8690   21.6510 C   0  0  0  0  0  0  0  0  0  0  0  0
    8.5980   -1.6250   23.8880 C   0  0  0  0  0  0  0  0  0  0  0  0
   12.8140    2.1790   22.7880 C   0  0  0  0  0  0  0  0  0  0  0  0
   13.0560    5.4500   21.9070 C   0  0  0  0  0  0  0  0  0  0  0  0
    8.2260   -3.8560   20.5730 C   0  0  0  0  0  0  0  0  0  0  0  0
    5.1970    1.2210   17.7620 C   0  0  0  0  0  0  0  0  0  0  0  0
   10.7340   -1.9420   22.0120 C   0  0  0  0  0  0  0  0  0  0  0  0
    9.9420   -1.6820   24.3040 C   0  0  0  0  0  0  0  0  0  0  0  0
    6.7060   -5.2330   21.9250 N   0  0  0  0  0  0  0  0  0  0  0  0
   10.9730   -1.8480   23.3780 C   0  0  0  0  0  0  0  0  0  0  0  0
    5.5270   -5.9430   21.9750 C   0  0  0  0  0  0  0  0  0  0  0  0
    7.2080   -4.9770   23.2240 C   0  0  0  0  0  0  0  0  0  0  0  0
   12.4450   -1.9360   23.8630 C   0  0  0  0  0  0  0  0  0  0  0  0
    4.5790   -5.6180   22.9730 C   0  0  2  0  0  0  0  0  0  0  0  0
    6.2770   -4.4400   24.1340 C   0  0  0  0  0  0  0  0  0  0  0  0
   12.9510   -0.7720   24.2770 C   0  0  0  0  0  0  0  0  0  0  0  0
   13.4060   -2.2610   22.7430 C   0  0  0  0  0  0  0  0  0  0  0  0
   12.5790   -2.9390   24.8500 C   0  0  0  0  0  0  0  0  0  0  0  0
    3.2960   -6.4080   23.2540 C   0  0  2  0  0  0  0  0  0  0  0  0
    4.0790   -4.3750   22.5310 O   0  0  0  0  0  0  0  0  0  0  0  0
    5.1060   -5.2250   24.2630 N   0  0  0  0  0  0  0  0  0  0  0  0
    2.0320   -5.6180   23.2700 N   0  0  0  0  0  0  0  0  0  0  0  0
    3.6450   -6.9740   24.4960 C   0  0  1  0  0  0  0  0  0  0  0  0
    4.2730   -5.7050   25.4680 S   0  0  0  0  0  0  0  0  0  0  0  0
    2.6370   -7.6220   25.1990 C   0  0  0  0  0  0  0  0  0  0  0  0
    4.6360   -7.8820   24.1190 O   0  0  0  0  0  0  0  0  0  0  0  0
    0.9570   -6.1780   22.6320 C   0  0  0  0  0  0  0  0  0  0  0  0
    5.4290   -5.7350   26.3480 O   0  0  0  0  0  0  0  0  0  0  0  0
    3.3350   -4.2120   25.6610 C   0  0  0  0  0  0  0  0  0  0  0  0
    1.0320   -7.2590   22.0550 O   0  0  0  0  0  0  0  0  0  0  0  0
   -0.2630   -5.5050   22.6300 C   0  0  0  0  0  0  0  0  0  0  0  0
    3.9280   -2.9420   25.7170 C   0  0  0  0  0  0  0  0  0  0  0  0
    1.9000   -4.2380   25.7720 C   0  0  0  0  0  0  0  0  0  0  0  0
    3.2800   -1.7030   25.8670 C   0  0  0  0  0  0  0  0  0  0  0  0
    1.1980   -3.0560   25.9230 C   0  0  0  0  0  0  0  0  0  0  0  0
    3.9920   -0.5300   25.9090 F   0  0  0  0  0  0  0  0  0  0  0  0
   -0.5270   -2.9290   26.0750 Cl  0  0  0  0  0  0  0  0  0  0  0  0
    1.9070   -1.7320   25.9730 C   0  0  0  0  0  0  0  0  0  0  0  0
  1  2  1  0
  2  3  1  0
  1  4  1  0
  4  5  2  0
  6  4  1  6
  6  7  1  0
  6  8  1  0
  3  9  2  0
  3 10  1  0
  9 11  1  0
  7 12  1  0
  8 13  2  0
  8 14  1  0
  7 15  1  0
 10 16  2  0
  9 17  1  0
 17 18  1  0
 12 19  2  0
 12 20  1  0
 11 21  1  0
 11 22  1  0
 11 23  1  0
 14 24  2  0
 13 25  1  0
 15 26  2  0
 15 27  1  0
 16 28  1  0
 17 28  2  0
 18 29  1  0
 20 30  1  1
 24 31  1  0
 25 31  2  0
 26 32  1  0
 27 33  2  0
 20 34  1  0
 32 35  2  0
 33 35  1  0
 34 36  1  0
 34 37  1  0
 35 38  1  0
 36 39  1  0
 37 40  1  0
 38 41  1  0
 38 42  1  0
 38 43  1  0
 39 44  1  0
 39 45  1  6
 39 46  1  0
 40 46  1  0
 44 47  1  1
 44 48  1  0
 46 49  1  0
 48 49  1  0
 48 50  1  1
 48 51  1  0
 47 52  1  0
 49 53  2  0
 49 54  1  0
 52 55  2  0
 52 56  1  0
 54 57  2  0
 54 58  1  0
 57 59  1  0
 58 60  2  0
 59 61  1  0
 60 62  1  0
 59 63  2  0
 60 63  1  0
M  END
