x3117-x1458-x0786-x3124
     RDKit          3D

 58 65  0  0  0  0  0  0  0  0999 V2000
    6.9930   -1.4550   21.7440 C   0  0  1  0  0  0  0  0  0  0  0  0
    6.0180   -2.7000   21.2630 C   0  0  0  0  0  0  0  0  0  0  0  0
    4.7480   -2.8880   21.0960 O   0  0  0  0  0  0  0  0  0  0  0  0
    6.5500   -0.0320   21.6260 C   0  0  1  0  0  0  0  0  0  0  0  0
    6.7090   -2.3030   22.8940 C   0  0  0  0  0  0  0  0  0  0  0  0
    8.4520   -1.5260   22.3220 C   0  0  0  0  0  0  0  0  0  0  0  0
    7.6560    1.0970   21.7880 C   0  0  0  0  0  0  0  0  0  0  0  0
    6.0310    0.4190   20.3200 C   0  0  0  0  0  0  0  0  0  0  0  0
    9.5380   -2.0490   21.7000 C   0  0  0  0  0  0  0  0  0  0  0  0
    8.6740   -1.0260   23.6030 C   0  0  0  0  0  0  0  0  0  0  0  0
    6.7980   -3.9090   21.0400 C   0  0  2  0  0  0  0  0  0  0  0  0
    7.6050   -3.4920   22.3100 C   0  0  2  0  0  0  0  0  0  0  0  0
    7.1930   -3.4420   19.6100 C   0  0  0  0  0  0  0  0  0  0  0  0
    7.3380    2.0560   22.8580 N   0  0  0  0  0  0  0  0  0  0  0  0
    8.6430    1.1570   21.0440 O   0  0  0  0  0  0  0  0  0  0  0  0
    4.7920    1.2800   20.1700 C   0  0  0  0  0  0  0  0  0  0  0  0
    6.7360    0.0620   19.0200 C   0  0  0  0  0  0  0  0  0  0  0  0
   10.9380   -2.1390   22.2650 C   0  0  0  0  0  0  0  0  0  0  0  0
    9.9110   -1.0780   24.1800 C   0  0  0  0  0  0  0  0  0  0  0  0
    8.0220   -4.5490   23.3400 C   0  0  0  0  0  0  0  0  0  0  0  0
    5.8630   -5.1390   21.2260 C   0  0  0  0  0  0  0  0  0  0  0  0
    6.3090    0.4980   17.7050 N   0  0  0  0  0  0  0  0  0  0  0  0
    4.4480    1.6560   18.8940 C   0  0  0  0  0  0  0  0  0  0  0  0
    8.1360    3.2640   22.9860 C   0  0  0  0  0  0  0  0  0  0  0  0
   11.0280   -1.6130   23.5540 C   0  0  0  0  0  0  0  0  0  0  0  0
    4.9350   -5.0930   22.4650 C   0  0  1  0  0  0  0  0  0  0  0  0
    6.8480   -5.1620   24.0460 C   0  0  2  0  0  0  0  0  0  0  0  0
   12.3880   -1.6360   24.2400 C   0  0  0  0  0  0  0  0  0  0  0  0
    5.1380    1.3070   17.7670 C   0  0  0  0  0  0  0  0  0  0  0  0
    9.5910    3.0030   22.6240 C   0  0  0  0  0  0  0  0  0  0  0  0
    7.8330    4.3080   22.1430 C   0  0  0  0  0  0  0  0  0  0  0  0
    4.5750   -6.3650   22.8580 C   0  0  0  0  0  0  0  0  0  0  0  0
    5.6020   -4.4100   23.6030 C   0  0  2  0  0  0  0  0  0  0  0  0
    6.9950   -5.1000   25.5420 C   0  0  0  0  0  0  0  0  0  0  0  0
   12.5540   -0.5960   25.1610 C   0  0  0  0  0  0  0  0  0  0  0  0
   13.3730   -1.4780   23.3010 C   0  0  0  0  0  0  0  0  0  0  0  0
   12.6910   -2.8560   25.0560 C   0  0  0  0  0  0  0  0  0  0  0  0
    6.8850   -3.6440   25.9740 C   0  0  2  0  0  0  0  0  0  0  0  0
   10.3550    4.1070   22.9380 C   0  0  0  0  0  0  0  0  0  0  0  0
    8.3670    5.4180   22.7570 C   0  0  0  0  0  0  0  0  0  0  0  0
    4.1230   -6.4930   24.3220 C   0  0  2  0  0  0  0  0  0  0  0  0
    4.6500   -3.9800   24.6930 C   0  0  1  0  0  0  0  0  0  0  0  0
    2.9210   -7.4060   24.3750 C   0  0  0  0  0  0  0  0  0  0  0  0
    7.3650   -3.4520   27.2360 N   0  0  0  0  0  0  0  0  0  0  0  0
    9.6310    5.1680   23.4020 O   0  0  0  0  0  0  0  0  0  0  0  0
    3.9250   -5.2230   25.1760 C   0  0  0  0  0  0  0  0  0  0  0  0
    5.3990   -3.2460   25.8120 C   0  0  0  0  0  0  0  0  0  0  0  0
    3.1890   -8.6690   24.9600 O   0  0  0  0  0  0  0  0  0  0  0  0
    7.9520   -4.5900   27.9540 C   0  0  0  0  0  0  0  0  0  0  0  0
    6.6150   -2.6800   28.0830 C   0  0  0  0  0  0  0  0  0  0  0  0
    1.6970   -7.0540   23.8680 N   0  0  0  0  0  0  0  0  0  0  0  0
    9.2300   -4.9500   27.4840 C   0  0  0  0  0  0  0  0  0  0  0  0
    7.0000   -5.6080   28.1510 C   0  0  0  0  0  0  0  0  0  0  0  0
    1.4310   -5.6520   23.5090 C   0  0  0  0  0  0  0  0  0  0  0  0
    0.5600   -7.9640   23.8120 C   0  0  0  0  0  0  0  0  0  0  0  0
    0.5770   -5.0340   24.4210 C   0  0  0  0  0  0  0  0  0  0  0  0
   -0.4520   -7.5600   24.6920 C   0  0  0  0  0  0  0  0  0  0  0  0
   -1.0370   -5.8690   24.3220 S   0  0  0  0  0  0  0  0  0  0  0  0
  1  2  1  0
  2  3  2  0
  1  4  1  0
  1  5  1  0
  1  6  1  6
  4  7  1  6
  4  8  1  0
  6  9  2  0
  6 10  1  0
  2 11  1  0
 12  5  1  1
 11 12  1  0
 11 13  1  6
  7 14  1  0
  7 15  2  0
  8 16  2  0
  8 17  1  0
  9 18  1  0
 10 19  2  0
 12 20  1  0
 11 21  1  0
 17 22  2  0
 16 23  1  0
 14 24  1  0
 18 25  2  0
 19 25  1  0
 26 21  1  6
 27 20  1  6
 25 28  1  0
 22 29  1  0
 23 29  2  0
 24 30  1  0
 24 31  1  0
 26 32  1  0
 33 26  1  6
 27 33  1  0
 27 34  1  0
 28 35  1  0
 28 36  1  0
 28 37  1  0
 34 38  1  0
 30 39  1  0
 31 40  1  0
 32 41  1  0
 33 42  1  0
 41 43  1  6
 38 44  1  1
 39 45  1  0
 40 45  1  0
 41 46  1  0
 42 46  1  1
 38 47  1  0
 42 47  1  0
 43 48  2  0
 44 49  1  0
 44 50  1  0
 43 51  1  0
 49 52  1  0
 49 53  1  0
 51 54  1  0
 51 55  1  0
 54 56  1  0
 55 57  1  0
 56 58  1  0
 57 58  1  0
M  END
