x3113-x0540-x1493-x3110
     RDKit          3D

 54 58  0  0  0  0  0  0  0  0999 V2000
    7.9530    1.0290   23.3040 N   0  0  0  0  0  0  0  0  0  0  0  0
    8.9180    2.0670   23.7050 C   0  0  0  0  0  0  0  0  0  0  0  0
   10.4190    1.8390   23.5960 C   0  0  0  0  0  0  0  0  0  0  0  0
    7.6990    0.7180   21.9060 C   0  0  0  0  0  0  0  0  0  0  0  0
    8.4960    1.3320   20.8890 O   0  0  0  0  0  0  0  0  0  0  0  0
    6.5820   -0.1670   21.6410 C   0  0  2  0  0  0  0  0  0  0  0  0
    6.9510   -1.6820   21.8380 C   0  0  2  0  0  0  0  0  0  0  0  0
   11.0870    3.2380   23.3880 C   0  0  0  0  0  0  0  0  0  0  0  0
    6.0720    0.2440   20.2640 C   0  0  0  0  0  0  0  0  0  0  0  0
   11.8760    3.2210   22.4470 O   0  0  0  0  0  0  0  0  0  0  0  0
   10.8470    4.2150   24.0860 O   0  0  0  0  0  0  0  0  0  0  0  0
    6.1570   -2.8730   21.1040 C   0  0  0  0  0  0  0  0  0  0  0  0
    6.0270   -2.6860   22.8560 C   0  0  0  0  0  0  0  0  0  0  0  0
    4.8570    0.8620   20.2300 C   0  0  0  0  0  0  0  0  0  0  0  0
    6.8800   -0.0100   19.1510 C   0  0  0  0  0  0  0  0  0  0  0  0
    8.4910   -1.7530   22.4930 C   0  0  0  0  0  0  0  0  0  0  0  0
   12.2520    4.5270   21.9890 C   0  0  0  0  0  0  0  0  0  0  0  0
    4.9050   -3.0040   20.6930 O   0  0  0  0  0  0  0  0  0  0  0  0
    6.8890   -4.1310   21.0910 C   0  0  2  0  0  0  0  0  0  0  0  0
    3.9610    1.1260   21.4340 C   0  0  0  0  0  0  0  0  0  0  0  0
    6.4470    0.4240   17.8230 N   0  0  0  0  0  0  0  0  0  0  0  0
    4.4420    1.3010   18.8430 C   0  0  0  0  0  0  0  0  0  0  0  0
    9.6050   -1.3750   21.7610 C   0  0  0  0  0  0  0  0  0  0  0  0
    8.6870   -2.1770   23.8310 C   0  0  0  0  0  0  0  0  0  0  0  0
    6.3700   -4.2070   22.5020 C   0  0  1  0  0  0  0  0  0  0  0  0
   13.4520    5.0200   22.8340 C   0  0  0  0  0  0  0  0  0  0  0  0
    8.3750   -4.1730   20.7920 C   0  0  0  0  0  0  0  0  0  0  0  0
    4.7140    2.0510   22.3610 C   0  0  0  0  0  0  0  0  0  0  0  0
    5.2680    1.0510   17.7830 C   0  0  0  0  0  0  0  0  0  0  0  0
   10.9990   -1.4080   22.3550 C   0  0  0  0  0  0  0  0  0  0  0  0
    9.9520   -2.2190   24.4150 C   0  0  0  0  0  0  0  0  0  0  0  0
    7.1230   -4.9170   23.6170 C   0  0  0  0  0  0  0  0  0  0  0  0
    5.2160   -4.7740   22.2210 N   0  0  0  0  0  0  0  0  0  0  0  0
    3.8900    2.8820   23.0660 N   0  0  0  0  0  0  0  0  0  0  0  0
   11.2040   -1.8070   23.6420 C   0  0  0  0  0  0  0  0  0  0  0  0
    6.1630   -5.6130   24.4870 N   0  0  0  0  0  0  0  0  0  0  0  0
    5.1980   -6.1880   22.4610 C   0  0  0  0  0  0  0  0  0  0  0  0
   12.5630   -1.8290   24.2830 C   0  0  0  0  0  0  0  0  0  0  0  0
    2.8040    2.2370   23.8070 C   0  0  0  0  0  0  0  0  0  0  0  0
    6.1680   -5.7010   25.9530 C   0  0  0  0  0  0  0  0  0  0  0  0
    5.0710   -6.3170   23.8110 C   0  0  0  0  0  0  0  0  0  0  0  0
   12.6410   -0.6640   25.0250 C   0  0  0  0  0  0  0  0  0  0  0  0
   13.4300   -2.0030   23.2090 C   0  0  0  0  0  0  0  0  0  0  0  0
   12.8060   -2.9190   25.1680 C   0  0  0  0  0  0  0  0  0  0  0  0
    2.6680    1.0300   24.0000 O   0  0  0  0  0  0  0  0  0  0  0  0
    1.8450    3.1920   24.3590 N   0  0  0  0  0  0  0  0  0  0  0  0
    4.9920   -6.1030   26.5840 C   0  0  0  0  0  0  0  0  0  0  0  0
    7.4000   -5.3840   26.5930 O   0  0  0  0  0  0  0  0  0  0  0  0
    0.7230    3.6920   23.6420 C   0  0  0  0  0  0  0  0  0  0  0  0
    0.3320    4.9620   24.0630 C   0  0  0  0  0  0  0  0  0  0  0  0
   -0.3290    2.7780   23.4550 C   0  0  0  0  0  0  0  0  0  0  0  0
   -0.6950    4.8780   25.0120 C   0  0  0  0  0  0  0  0  0  0  0  0
   -1.6280    3.3000   23.5720 C   0  0  0  0  0  0  0  0  0  0  0  0
   -1.8600    4.3790   24.4300 C   0  0  0  0  0  0  0  0  0  0  0  0
  1  2  1  0
  2  3  1  0
  1  4  1  0
  4  5  2  0
  6  4  1  6
  6  7  1  0
  3  8  1  0
  6  9  1  0
  8 10  1  0
  8 11  2  0
  7 12  1  0
  7 13  1  0
  9 14  1  0
  9 15  2  0
  7 16  1  1
 10 17  1  0
 12 18  2  0
 12 19  1  0
 14 20  1  0
 15 21  1  0
 14 22  2  0
 16 23  2  0
 16 24  1  0
 25 13  1  1
 19 25  1  0
 17 26  1  0
 19 27  1  1
 20 28  1  0
 21 29  2  0
 22 29  1  0
 23 30  1  0
 24 31  2  0
 25 32  1  0
 25 33  1  0
 28 34  1  0
 30 35  2  0
 31 35  1  0
 32 36  1  0
 33 37  1  0
 35 38  1  0
 34 39  1  0
 36 40  1  0
 36 41  1  0
 37 41  1  0
 38 42  1  0
 38 43  1  0
 38 44  1  0
 39 45  2  0
 39 46  1  0
 40 47  1  0
 40 48  2  0
 46 49  1  0
 49 50  1  0
 49 51  1  0
 50 52  1  0
 51 53  1  0
 52 54  1  0
 53 54  1  0
M  END
