x3113-x1348-x2754
     RDKit          3D

 50 54  0  0  0  0  0  0  0  0999 V2000
    7.1210   -1.7920   21.5980 N   0  0  0  0  0  0  0  0  0  0  0  0
    6.2520   -2.9930   21.3950 C   0  0  0  0  0  0  0  0  0  0  0  0
    4.9950   -3.1420   20.9390 O   0  0  0  0  0  0  0  0  0  0  0  0
    6.6740   -0.3480   21.6090 C   0  0  1  0  0  0  0  0  0  0  0  0
    8.4370   -1.8430   22.3750 C   0  0  0  0  0  0  0  0  0  0  0  0
    6.8740   -4.3030   21.8560 C   0  0  1  0  0  0  0  0  0  0  0  0
    7.8000    0.7350   21.9580 C   0  0  0  0  0  0  0  0  0  0  0  0
    6.1970    0.1780   20.3000 C   0  0  0  0  0  0  0  0  0  0  0  0
    9.5770   -2.2070   21.7570 C   0  0  0  0  0  0  0  0  0  0  0  0
    8.6130   -1.4800   23.8850 C   0  0  0  0  0  0  0  0  0  0  0  0
    8.1700   -4.7430   21.1190 C   0  0  0  0  0  0  0  0  0  0  0  0
    8.0610    1.1580   23.2550 N   0  0  0  0  0  0  0  0  0  0  0  0
    8.6090    1.4100   20.9600 O   0  0  0  0  0  0  0  0  0  0  0  0
    4.9860    1.1060   20.2110 C   0  0  0  0  0  0  0  0  0  0  0  0
    6.8980   -0.1860   19.2070 C   0  0  0  0  0  0  0  0  0  0  0  0
   10.9490   -2.2780   22.3800 C   0  0  0  0  0  0  0  0  0  0  0  0
    9.8740   -1.5310   24.5410 C   0  0  0  0  0  0  0  0  0  0  0  0
    6.8740   -4.3900   23.2810 N   0  0  0  0  0  0  0  0  0  0  0  0
    8.9850    2.2850   23.5660 C   0  0  0  0  0  0  0  0  0  0  0  0
    6.4350    0.3770   17.9310 N   0  0  0  0  0  0  0  0  0  0  0  0
    4.4730    1.6980   18.9490 C   0  0  0  0  0  0  0  0  0  0  0  0
   11.0920   -1.9630   23.6710 C   0  0  0  0  0  0  0  0  0  0  0  0
    6.6340   -5.5170   24.1290 C   0  0  1  0  0  0  0  0  0  0  0  0
    5.6140   -3.7080   23.4830 C   0  0  0  0  0  0  0  0  0  0  0  0
   10.2970    2.2530   22.7530 C   0  0  0  0  0  0  0  0  0  0  0  0
   12.4920   -2.0110   24.3120 C   0  0  0  0  0  0  0  0  0  0  0  0
    5.2790    1.2870   17.7720 C   0  0  0  0  0  0  0  0  0  0  0  0
    6.7950   -5.4150   25.6100 C   0  0  1  0  0  0  0  0  0  0  0  0
    5.3700   -5.9650   23.6270 C   0  0  2  0  0  0  0  0  0  0  0  0
    4.1200   -4.6530   23.6740 S   0  0  0  0  0  0  0  0  0  0  0  0
   11.4570    2.7200   23.3790 C   0  0  0  0  0  0  0  0  0  0  0  0
   13.4660   -2.1710   23.3380 C   0  0  0  0  0  0  0  0  0  0  0  0
   12.8390   -3.0810   25.3840 C   0  0  0  0  0  0  0  0  0  0  0  0
   12.6750   -0.6720   25.0260 C   0  0  0  0  0  0  0  0  0  0  0  0
    7.6030   -4.2640   26.3510 O   0  0  0  0  0  0  0  0  0  0  0  0
    4.6750   -6.8710   24.4260 C   0  0  0  0  0  0  0  0  0  0  0  0
    5.6370   -5.8120   26.3690 C   0  0  0  0  0  0  0  0  0  0  0  0
   11.6300    4.0840   22.9830 O   0  0  0  0  0  0  0  0  0  0  0  0
    4.8080   -6.7750   25.8000 C   0  0  0  0  0  0  0  0  0  0  0  0
    7.1790   -4.3910   27.6400 C   0  0  0  0  0  0  0  0  0  0  0  0
   12.9970    4.4560   22.7940 C   0  0  0  0  0  0  0  0  0  0  0  0
    8.2950   -5.1930   27.7490 C   0  0  0  0  0  0  0  0  0  0  0  0
    6.5140   -3.4420   26.7050 C   0  0  0  0  0  0  0  0  0  0  0  0
    5.3040   -2.6960   26.8480 N   0  0  0  0  0  0  0  0  0  0  0  0
    9.1050   -5.0670   26.6180 C   0  0  0  0  0  0  0  0  0  0  0  0
    7.3680   -3.3300   25.5720 C   0  0  0  0  0  0  0  0  0  0  0  0
    4.4580   -2.4010   25.6750 C   0  0  0  0  0  0  0  0  0  0  0  0
    4.9820   -2.1200   28.1620 C   0  0  0  0  0  0  0  0  0  0  0  0
    8.6300   -4.0740   25.4690 C   0  0  0  0  0  0  0  0  0  0  0  0
    3.3650   -2.8160   25.3150 O   0  0  0  0  0  0  0  0  0  0  0  0
  1  2  1  0
  2  3  2  0
  1  4  1  0
  1  5  1  0
  2  6  1  0
  4  7  1  6
  4  8  1  0
  5  9  2  0
  5 10  1  0
  6 11  1  1
  7 12  1  0
  7 13  2  0
  8 14  2  0
  8 15  1  0
  9 16  1  0
 10 17  2  0
  6 18  1  0
 12 19  1  0
 15 20  2  0
 14 21  1  0
 16 22  2  0
 17 22  1  0
 23 18  1  6
 18 24  1  0
 19 25  1  0
 22 26  1  0
 20 27  1  0
 21 27  2  0
 23 28  1  0
 23 29  1  0
 24 30  2  0
 29 30  1  0
 25 31  1  0
 26 32  1  0
 26 33  1  0
 26 34  1  0
 28 35  1  6
 29 36  1  1
 28 37  1  0
 31 38  1  0
 36 39  2  0
 37 39  1  0
 35 40  1  0
 38 41  1  0
 40 42  2  0
 40 43  1  0
 43 44  1  0
 42 45  1  0
 43 46  2  0
 44 47  1  0
 44 48  1  0
 45 49  2  0
 46 49  1  0
 47 50  2  0
M  END
