x3110-x2193
     RDKit          3D

 39 41  0  0  0  0  0  0  0  0999 V2000
    7.8910    1.2610   23.2430 N   0  0  0  0  0  0  0  0  0  0  0  0
    8.7550    2.3850   23.5360 C   0  0  0  0  0  0  0  0  0  0  0  0
   10.2920    2.1230   23.5380 C   0  0  0  0  0  0  0  0  0  0  0  0
    7.6360    0.7940   21.8940 C   0  0  0  0  0  0  0  0  0  0  0  0
    8.2930    1.3000   20.9520 O   0  0  0  0  0  0  0  0  0  0  0  0
    6.5460   -0.3020   21.6200 C   0  0  2  0  0  0  0  0  0  0  0  0
    6.9440   -1.6330   21.7200 N   0  0  0  0  0  0  0  0  0  0  0  0
   11.1780    3.3570   23.4080 C   0  0  0  0  0  0  0  0  0  0  0  0
    6.1240    0.2130   20.2460 C   0  0  0  0  0  0  0  0  0  0  0  0
   11.9520    3.2690   22.4680 O   0  0  0  0  0  0  0  0  0  0  0  0
   11.1080    4.3210   24.1590 O   0  0  0  0  0  0  0  0  0  0  0  0
    6.1720   -2.8330   21.3260 C   0  0  0  0  0  0  0  0  0  0  0  0
    4.9810    1.0090   20.1570 C   0  0  0  0  0  0  0  0  0  0  0  0
    6.8910   -0.1050   19.1060 C   0  0  0  0  0  0  0  0  0  0  0  0
    8.2800   -1.7390   22.3290 C   0  0  0  0  0  0  0  0  0  0  0  0
   12.3950    4.5280   21.9390 C   0  0  0  0  0  0  0  0  0  0  0  0
    4.8670   -3.1010   21.3010 O   0  0  0  0  0  0  0  0  0  0  0  0
    7.0590   -3.9290   20.8350 C   0  0  0  0  0  0  0  0  0  0  0  0
    6.4350    0.4500   17.8250 N   0  0  0  0  0  0  0  0  0  0  0  0
    4.5280    1.5440   18.9700 C   0  0  0  0  0  0  0  0  0  0  0  0
    9.3690   -1.2550   21.6370 C   0  0  0  0  0  0  0  0  0  0  0  0
    8.5930   -2.3140   23.6630 C   0  0  0  0  0  0  0  0  0  0  0  0
   13.4020    5.2060   22.8570 C   0  0  0  0  0  0  0  0  0  0  0  0
    7.4920   -3.3390   19.4990 C   0  0  0  0  0  0  0  0  0  0  0  0
    5.2370    1.2770   17.8250 C   0  0  0  0  0  0  0  0  0  0  0  0
   10.6750   -1.2790   22.1480 C   0  0  0  0  0  0  0  0  0  0  0  0
    9.8760   -2.3370   24.1760 C   0  0  0  0  0  0  0  0  0  0  0  0
    7.5730   -2.9120   24.5650 C   0  0  0  0  0  0  0  0  0  0  0  0
   10.9850   -1.8420   23.5160 C   0  0  0  0  0  0  0  0  0  0  0  0
    8.0850   -4.1600   25.1300 N   0  0  0  0  0  0  0  0  0  0  0  0
   12.4100   -1.8480   24.1130 C   0  0  0  0  0  0  0  0  0  0  0  0
    8.5230   -4.0000   26.5320 C   0  0  0  0  0  0  0  0  0  0  0  0
    9.1200   -4.8720   24.3380 C   0  0  0  0  0  0  0  0  0  0  0  0
   12.6110   -0.6150   24.7320 C   0  0  0  0  0  0  0  0  0  0  0  0
   13.3840   -2.0600   22.9310 C   0  0  0  0  0  0  0  0  0  0  0  0
   12.7650   -2.9130   25.1760 C   0  0  0  0  0  0  0  0  0  0  0  0
    8.5690   -5.2310   27.1670 C   0  0  0  0  0  0  0  0  0  0  0  0
    9.4590   -5.9690   25.0850 C   0  0  0  0  0  0  0  0  0  0  0  0
    8.4500   -6.2220   26.1220 N   0  0  0  0  0  0  0  0  0  0  0  0
  1  2  1  0
  2  3  1  0
  1  4  1  0
  4  5  2  0
  6  4  1  6
  6  7  1  0
  3  8  1  0
  6  9  1  0
  8 10  1  0
  8 11  2  0
  7 12  1  0
  9 13  2  0
  9 14  1  0
  7 15  1  0
 10 16  1  0
 12 17  2  0
 12 18  1  0
 14 19  2  0
 13 20  1  0
 15 21  2  0
 15 22  1  0
 16 23  1  0
 18 24  1  0
 19 25  1  0
 20 25  2  0
 21 26  1  0
 22 27  2  0
 22 28  1  0
 26 29  2  0
 27 29  1  0
 28 30  1  0
 29 31  1  0
 30 32  1  0
 30 33  1  0
 31 34  1  0
 31 35  1  0
 31 36  1  0
 32 37  1  0
 33 38  1  0
 37 39  1  0
 38 39  1  0
M  END
