x3115-x2193
     RDKit          3D

 37 39  0  0  0  0  0  0  0  0999 V2000
    6.9450   -1.6100   21.9250 N   0  0  0  0  0  0  0  0  0  0  0  0
    6.0880   -2.8100   21.6100 C   0  0  0  0  0  0  0  0  0  0  0  0
    4.8130   -3.0180   21.2760 O   0  0  0  0  0  0  0  0  0  0  0  0
    6.6870   -0.2400   21.6430 C   0  0  1  0  0  0  0  0  0  0  0  0
    8.3250   -1.6860   22.5390 C   0  0  0  0  0  0  0  0  0  0  0  0
    6.8340   -4.1070   21.6810 C   0  0  0  0  0  0  0  0  0  0  0  0
    7.8560    0.7860   21.7480 C   0  0  0  0  0  0  0  0  0  0  0  0
    6.1130    0.2040   20.3820 C   0  0  0  0  0  0  0  0  0  0  0  0
    9.4670   -1.4340   21.7410 C   0  0  0  0  0  0  0  0  0  0  0  0
    8.5340   -2.0000   23.9400 C   0  0  0  0  0  0  0  0  0  0  0  0
    6.6900   -4.7860   20.3530 C   0  0  0  0  0  0  0  0  0  0  0  0
    8.3870    1.4410   22.9710 N   0  0  0  0  0  0  0  0  0  0  0  0
    8.3590    1.1670   20.7050 O   0  0  0  0  0  0  0  0  0  0  0  0
    4.8810    1.0600   20.3010 C   0  0  0  0  0  0  0  0  0  0  0  0
    6.7190   -0.1300   19.1890 C   0  0  0  0  0  0  0  0  0  0  0  0
   10.7790   -1.4660   22.2480 C   0  0  0  0  0  0  0  0  0  0  0  0
    9.8020   -2.0340   24.4710 C   0  0  0  0  0  0  0  0  0  0  0  0
    7.4940   -2.3170   24.9590 C   0  0  0  0  0  0  0  0  0  0  0  0
    7.7660    2.5830   23.1240 C   0  0  0  0  0  0  0  0  0  0  0  0
    9.8650    1.5340   23.2150 C   0  0  0  0  0  0  0  0  0  0  0  0
    6.2880    0.2720   17.9620 N   0  0  0  0  0  0  0  0  0  0  0  0
    4.4110    1.5020   18.9500 C   0  0  0  0  0  0  0  0  0  0  0  0
   10.9960   -1.7480   23.5730 C   0  0  0  0  0  0  0  0  0  0  0  0
    7.7260   -3.6960   25.4360 N   0  0  0  0  0  0  0  0  0  0  0  0
    8.3550    3.6480   22.3910 C   0  0  0  0  0  0  0  0  0  0  0  0
   12.4530   -1.7370   24.0570 C   0  0  0  0  0  0  0  0  0  0  0  0
    5.0840    1.1360   17.8070 C   0  0  0  0  0  0  0  0  0  0  0  0
    8.3600   -3.8500   26.7460 C   0  0  0  0  0  0  0  0  0  0  0  0
    8.5190   -4.5400   24.5550 C   0  0  0  0  0  0  0  0  0  0  0  0
    8.5060    4.8820   23.1330 O   0  0  0  0  0  0  0  0  0  0  0  0
   13.3000   -1.8410   22.9660 C   0  0  0  0  0  0  0  0  0  0  0  0
   12.8610   -2.8640   25.0210 C   0  0  0  0  0  0  0  0  0  0  0  0
   12.6010   -0.5560   24.7400 C   0  0  0  0  0  0  0  0  0  0  0  0
    8.5410   -5.2480   27.2690 C   0  0  0  0  0  0  0  0  0  0  0  0
    8.1930   -5.7970   24.9590 C   0  0  0  0  0  0  0  0  0  0  0  0
    8.2720    6.0670   22.3670 C   0  0  0  0  0  0  0  0  0  0  0  0
    8.8670   -6.2000   26.2020 N   0  0  0  0  0  0  0  0  0  0  0  0
  1  2  1  0
  2  3  2  0
  1  4  1  0
  1  5  1  0
  2  6  1  0
  4  7  1  6
  4  8  1  0
  5  9  2  0
  5 10  1  0
  6 11  1  0
  7 12  1  0
  7 13  2  0
  8 14  2  0
  8 15  1  0
  9 16  1  0
 10 17  2  0
 10 18  1  0
 12 19  1  0
 12 20  1  0
 15 21  2  0
 14 22  1  0
 16 23  2  0
 17 23  1  0
 18 24  1  0
 19 25  1  0
 23 26  1  0
 21 27  1  0
 22 27  2  0
 24 28  1  0
 24 29  1  0
 25 30  1  0
 26 31  1  0
 26 32  1  0
 26 33  1  0
 28 34  1  0
 29 35  1  0
 30 36  1  0
 34 37  1  0
 35 37  1  0
M  END
