x3113-x0978-x0769
     RDKit          3D

 54 58  0  0  0  0  0  0  0  0999 V2000
    7.0040   -1.3610   21.6240 N   0  0  0  0  0  0  0  0  0  0  0  0
    6.1840   -2.6070   21.4800 C   0  0  0  0  0  0  0  0  0  0  0  0
    4.9350   -3.0410   20.9980 O   0  0  0  0  0  0  0  0  0  0  0  0
    6.6970   -0.0020   21.6110 C   0  0  1  0  0  0  0  0  0  0  0  0
    8.2450   -1.4940   22.3920 C   0  0  0  0  0  0  0  0  0  0  0  0
    7.0460   -3.6410   22.0890 C   0  0  0  0  0  0  0  0  0  0  0  0
    7.9190    0.9630   21.8720 C   0  0  0  0  0  0  0  0  0  0  0  0
    6.1220    0.4750   20.3500 C   0  0  0  0  0  0  0  0  0  0  0  0
    9.4210   -1.7380   21.6320 C   0  0  0  0  0  0  0  0  0  0  0  0
    8.4220   -1.3890   23.7360 C   0  0  0  0  0  0  0  0  0  0  0  0
    7.7060   -4.7730   21.3430 C   0  0  0  0  0  0  0  0  0  0  0  0
    8.1000    1.2550   23.3230 N   0  0  0  0  0  0  0  0  0  0  0  0
    8.6670    1.4790   21.0180 O   0  0  0  0  0  0  0  0  0  0  0  0
    4.9860    1.2680   20.3430 C   0  0  0  0  0  0  0  0  0  0  0  0
    6.8030    0.1030   19.0860 C   0  0  0  0  0  0  0  0  0  0  0  0
   10.9580   -1.9210   21.9350 C   0  0  0  0  0  0  0  0  0  0  0  0
    9.7990   -1.5130   24.2690 C   0  0  0  0  0  0  0  0  0  0  0  0
    8.9820    2.4560   23.4220 C   0  0  0  0  0  0  0  0  0  0  0  0
    6.3680    0.5340   17.7660 N   0  0  0  0  0  0  0  0  0  0  0  0
    4.4660    1.7590   19.0180 C   0  0  0  0  0  0  0  0  0  0  0  0
   10.9140   -1.7400   23.4620 C   0  0  0  0  0  0  0  0  0  0  0  0
    6.8870   -5.8990   21.5990 N   0  0  0  0  0  0  0  0  0  0  0  0
   10.4940    2.1720   23.4280 C   0  0  0  0  0  0  0  0  0  0  0  0
   12.1970   -1.7820   24.2270 C   0  0  0  0  0  0  0  0  0  0  0  0
    5.1710    1.3910   17.7390 C   0  0  0  0  0  0  0  0  0  0  0  0
    5.4600   -5.9240   21.5650 C   0  0  0  0  0  0  0  0  0  0  0  0
    7.2680   -6.4070   22.8550 C   0  0  0  0  0  0  0  0  0  0  0  0
   11.1300    3.5660   23.2460 C   0  0  0  0  0  0  0  0  0  0  0  0
   13.3510   -2.1540   23.6480 C   0  0  0  0  0  0  0  0  0  0  0  0
   12.7150   -3.0130   24.9080 C   0  0  0  0  0  0  0  0  0  0  0  0
   12.4080   -0.5380   25.0550 C   0  0  0  0  0  0  0  0  0  0  0  0
    4.6990   -5.4490   22.8750 C   0  0  2  0  0  0  0  0  0  0  0  0
    6.9040   -5.5150   24.0600 C   0  0  0  0  0  0  0  0  0  0  0  0
   12.2300    3.4240   22.7260 O   0  0  0  0  0  0  0  0  0  0  0  0
    3.4420   -6.2790   23.2130 C   0  0  2  0  0  0  0  0  0  0  0  0
    4.2070   -4.1890   22.5590 O   0  0  0  0  0  0  0  0  0  0  0  0
    5.4560   -5.2620   24.1700 N   0  0  0  0  0  0  0  0  0  0  0  0
   12.9590    4.5830   22.6940 C   0  0  0  0  0  0  0  0  0  0  0  0
    2.1920   -5.5430   23.0580 N   0  0  0  0  0  0  0  0  0  0  0  0
    3.7680   -6.8840   24.5600 C   0  0  1  0  0  0  0  0  0  0  0  0
    4.5170   -5.6540   25.5380 S   0  0  0  0  0  0  0  0  0  0  0  0
    2.7460   -7.4820   25.2920 C   0  0  0  0  0  0  0  0  0  0  0  0
    4.5860   -7.9350   24.2780 O   0  0  0  0  0  0  0  0  0  0  0  0
    1.0250   -6.1980   22.5940 C   0  0  0  0  0  0  0  0  0  0  0  0
    5.5300   -5.9110   26.5480 O   0  0  0  0  0  0  0  0  0  0  0  0
    3.7160   -4.1700   25.6940 C   0  0  0  0  0  0  0  0  0  0  0  0
    1.0120   -7.4790   21.9770 O   0  0  0  0  0  0  0  0  0  0  0  0
   -0.1740   -5.4950   22.7530 C   0  0  0  0  0  0  0  0  0  0  0  0
    4.3200   -2.9740   25.9580 C   0  0  0  0  0  0  0  0  0  0  0  0
    2.1780   -4.1370   25.5380 C   0  0  0  0  0  0  0  0  0  0  0  0
    5.6490   -2.8810   26.1190 F   0  0  0  0  0  0  0  0  0  0  0  0
    1.4080   -2.8330   25.6750 C   0  0  0  0  0  0  0  0  0  0  0  0
    3.5910   -1.7630   26.0820 C   0  0  0  0  0  0  0  0  0  0  0  0
    2.1240   -1.7060   25.9380 C   0  0  0  0  0  0  0  0  0  0  0  0
  1  2  1  0
  2  3  2  0
  1  4  1  0
  1  5  1  0
  2  6  1  0
  4  7  1  6
  4  8  1  0
  5  9  2  0
  5 10  1  0
  6 11  1  0
  7 12  1  0
  7 13  2  0
  8 14  2  0
  8 15  1  0
  9 16  1  0
 10 17  2  0
 12 18  1  0
 15 19  2  0
 14 20  1  0
 16 21  2  0
 17 21  1  0
 11 22  1  0
 18 23  1  0
 21 24  1  0
 19 25  1  0
 20 25  2  0
 22 26  1  0
 22 27  1  0
 23 28  1  0
 24 29  1  0
 24 30  1  0
 24 31  1  0
 26 32  1  0
 27 33  1  0
 28 34  1  0
 32 35  1  0
 32 36  1  6
 32 37  1  0
 33 37  1  0
 34 38  1  0
 35 39  1  1
 35 40  1  0
 37 41  1  0
 40 41  1  0
 40 42  1  1
 40 43  1  0
 39 44  1  0
 41 45  2  0
 41 46  1  0
 44 47  2  0
 44 48  1  0
 46 49  2  0
 46 50  1  0
 49 51  1  0
 50 52  2  0
 49 53  1  0
 52 54  1  0
 53 54  2  0
M  END
