x3113-x3115
     RDKit          3D

 33 34  0  0  0  0  0  0  0  0999 V2000
    7.0650   -1.7660   21.8330 N   0  0  0  0  0  0  0  0  0  0  0  0
    6.1930   -2.9650   21.5290 C   0  0  0  0  0  0  0  0  0  0  0  0
    4.9110   -3.0900   21.1670 O   0  0  0  0  0  0  0  0  0  0  0  0
    6.7540   -0.2670   21.6850 C   0  0  1  0  0  0  0  0  0  0  0  0
    8.3920   -1.8810   22.5300 C   0  0  0  0  0  0  0  0  0  0  0  0
    6.8820   -4.3180   21.6900 C   0  0  0  0  0  0  0  0  0  0  0  0
    7.8810    0.6310   21.9450 C   0  0  0  0  0  0  0  0  0  0  0  0
    6.2410    0.1820   20.3630 C   0  0  0  0  0  0  0  0  0  0  0  0
    9.6930   -1.4440   21.7970 C   0  0  0  0  0  0  0  0  0  0  0  0
    8.6260   -2.3340   23.8100 C   0  0  0  0  0  0  0  0  0  0  0  0
    8.2660   -4.4790   21.0010 C   0  0  0  0  0  0  0  0  0  0  0  0
    7.9240    1.3590   23.1200 N   0  0  0  0  0  0  0  0  0  0  0  0
    8.7640    0.7950   21.1290 O   0  0  0  0  0  0  0  0  0  0  0  0
    5.1670    0.9650   20.2940 C   0  0  0  0  0  0  0  0  0  0  0  0
    6.9440   -0.2370   19.2290 C   0  0  0  0  0  0  0  0  0  0  0  0
   10.8340   -1.5400   22.4470 C   0  0  0  0  0  0  0  0  0  0  0  0
    9.8870   -2.3850   24.3840 C   0  0  0  0  0  0  0  0  0  0  0  0
    8.8770    2.3640   23.2560 C   0  0  1  0  0  0  0  0  0  0  0  0
    6.4250    0.2580   17.9440 N   0  0  0  0  0  0  0  0  0  0  0  0
    4.6400    1.4540   19.0920 C   0  0  0  0  0  0  0  0  0  0  0  0
   11.0340   -1.9850   23.7230 C   0  0  0  0  0  0  0  0  0  0  0  0
   10.1430    2.2060   22.6750 C   0  0  0  0  0  0  0  0  0  0  0  0
   12.4700   -1.9860   24.3060 C   0  0  0  0  0  0  0  0  0  0  0  0
    8.1990    3.6000   22.6110 C   0  0  0  0  0  0  0  0  0  0  0  0
    5.2420    1.1310   17.8840 C   0  0  0  0  0  0  0  0  0  0  0  0
   11.2100    2.7370   23.4290 C   0  0  0  0  0  0  0  0  0  0  0  0
   13.3590   -2.1350   23.2650 C   0  0  0  0  0  0  0  0  0  0  0  0
   12.8530   -3.0770   25.3290 C   0  0  0  0  0  0  0  0  0  0  0  0
   12.6260   -0.7220   24.9380 C   0  0  0  0  0  0  0  0  0  0  0  0
    8.6400    4.6470   23.1120 O   0  0  0  0  0  0  0  0  0  0  0  0
   11.5040    4.0440   23.0850 O   0  0  0  0  0  0  0  0  0  0  0  0
    8.2430    5.8200   22.3880 C   0  0  0  0  0  0  0  0  0  0  0  0
   12.8770    4.3260   22.7900 C   0  0  0  0  0  0  0  0  0  0  0  0
  1  2  1  0
  2  3  2  0
  1  4  1  0
  1  5  1  0
  2  6  1  0
  4  7  1  6
  4  8  1  0
  5  9  2  0
  5 10  1  0
  6 11  1  0
  7 12  1  0
  7 13  2  0
  8 14  2  0
  8 15  1  0
  9 16  1  0
 10 17  2  0
 12 18  1  0
 15 19  2  0
 14 20  1  0
 16 21  2  0
 17 21  1  0
 18 22  1  6
 21 23  1  0
 18 24  1  0
 19 25  1  0
 20 25  2  0
 22 26  1  0
 23 27  1  0
 23 28  1  0
 23 29  1  0
 24 30  1  0
 26 31  1  0
 30 32  1  0
 31 33  1  0
M  END
