x3110-x2776-x0755-x0978
     RDKit          3D

 63 67  0  0  0  0  0  0  0  0999 V2000
    8.0410    1.5970   22.9980 N   0  0  0  0  0  0  0  0  0  0  0  0
    7.7520    0.9240   21.7700 C   0  0  0  0  0  0  0  0  0  0  0  0
    8.3760    1.2180   20.7650 O   0  0  0  0  0  0  0  0  0  0  0  0
    8.5510    2.9640   23.2250 C   0  0  0  0  0  0  0  0  0  0  0  0
    6.6800   -0.0900   21.6030 C   0  0  2  0  0  0  0  0  0  0  0  0
    9.9440    3.3280   23.2570 C   0  0  0  0  0  0  0  0  0  0  0  0
    7.6150    4.1580   23.4720 C   0  0  0  0  0  0  0  0  0  0  0  0
    6.9840   -1.5030   21.8230 N   0  0  0  0  0  0  0  0  0  0  0  0
   11.2240    2.5570   23.0430 C   0  0  2  0  0  0  0  0  0  0  0  0
    6.2060    0.2770   20.3070 C   0  0  0  0  0  0  0  0  0  0  0  0
   10.5420    4.7000   23.5360 C   0  0  0  0  0  0  0  0  0  0  0  0
    8.1560    5.5760   23.7510 C   0  0  0  0  0  0  0  0  0  0  0  0
   11.9570    3.1530   22.0640 O   0  0  0  0  0  0  0  0  0  0  0  0
   10.8260    1.0730   22.7320 C   0  0  0  0  0  0  0  0  0  0  0  0
    6.2200   -2.7880   21.4220 C   0  0  0  0  0  0  0  0  0  0  0  0
    5.0860    1.1190   20.2510 C   0  0  0  0  0  0  0  0  0  0  0  0
    6.8010   -0.1320   19.1090 C   0  0  0  0  0  0  0  0  0  0  0  0
    8.2780   -1.5920   22.4570 C   0  0  0  0  0  0  0  0  0  0  0  0
    9.6510    5.8720   23.8020 C   0  0  0  0  0  0  0  0  0  0  0  0
   13.1090    3.8990   22.5310 C   0  0  0  0  0  0  0  0  0  0  0  0
    4.9450   -3.1010   21.0890 O   0  0  0  0  0  0  0  0  0  0  0  0
    7.2800   -3.9210   21.5160 C   0  0  2  0  0  0  0  0  0  0  0  0
   10.1060    7.1300   24.0740 O   0  0  0  0  0  0  0  0  0  0  0  0
    6.3600    0.2500   17.8790 N   0  0  0  0  0  0  0  0  0  0  0  0
    4.5950    1.5380   19.0350 C   0  0  0  0  0  0  0  0  0  0  0  0
    9.3320   -1.6100   21.5670 C   0  0  0  0  0  0  0  0  0  0  0  0
    8.5570   -1.6720   23.9720 C   0  0  0  0  0  0  0  0  0  0  0  0
   13.2710    5.2460   21.8560 C   0  0  0  0  0  0  0  0  0  0  0  0
    7.1170   -3.6450   20.0070 C   0  0  0  0  0  0  0  0  0  0  0  0
   11.4210    7.1710   24.6560 C   0  0  0  0  0  0  0  0  0  0  0  0
    5.1980    1.1340   17.8660 C   0  0  0  0  0  0  0  0  0  0  0  0
   10.6670   -1.7070   21.9630 C   0  0  0  0  0  0  0  0  0  0  0  0
    9.9020   -1.7610   24.3470 C   0  0  0  0  0  0  0  0  0  0  0  0
    6.6500   -5.2470   21.9300 N   0  0  0  0  0  0  0  0  0  0  0  0
   11.0220   -1.7880   23.3050 C   0  0  0  0  0  0  0  0  0  0  0  0
    7.3170   -5.8770   23.0170 C   0  0  0  0  0  0  0  0  0  0  0  0
    5.2120   -5.5610   22.0020 C   0  0  0  0  0  0  0  0  0  0  0  0
   12.5000   -1.8960   23.7560 C   0  0  0  0  0  0  0  0  0  0  0  0
    6.9330   -5.2740   24.1690 C   0  0  0  0  0  0  0  0  0  0  0  0
    4.5610   -5.2520   23.2130 C   0  0  1  0  0  0  0  0  0  0  0  0
   12.9430   -0.6180   24.1340 C   0  0  0  0  0  0  0  0  0  0  0  0
   13.3030   -2.2540   22.5750 C   0  0  0  0  0  0  0  0  0  0  0  0
   12.6800   -2.8280   24.9370 C   0  0  0  0  0  0  0  0  0  0  0  0
    3.3080   -6.2780   23.2750 C   0  0  2  0  0  0  0  0  0  0  0  0
    5.4990   -5.3390   24.3940 N   0  0  0  0  0  0  0  0  0  0  0  0
    2.0140   -5.5830   23.3090 N   0  0  0  0  0  0  0  0  0  0  0  0
    3.2140   -7.2140   24.3180 C   0  0  1  0  0  0  0  0  0  0  0  0
    5.0690   -4.9290   25.9740 S   0  0  0  0  0  0  0  0  0  0  0  0
    2.2530   -8.2220   24.3440 C   0  0  0  0  0  0  0  0  0  0  0  0
    4.4110   -7.9850   24.3170 O   0  0  0  0  0  0  0  0  0  0  0  0
    0.8680   -6.2150   22.5810 C   0  0  0  0  0  0  0  0  0  0  0  0
    4.4910   -6.1420   26.5120 O   0  0  0  0  0  0  0  0  0  0  0  0
    6.0190   -4.1400   27.0860 O   0  0  0  0  0  0  0  0  0  0  0  0
    3.8000   -3.8480   25.9220 C   0  0  0  0  0  0  0  0  0  0  0  0
    1.0030   -7.2680   21.9580 O   0  0  0  0  0  0  0  0  0  0  0  0
   -0.2890   -5.4510   22.7280 C   0  0  0  0  0  0  0  0  0  0  0  0
    2.2910   -4.1500   25.8560 C   0  0  0  0  0  0  0  0  0  0  0  0
    4.1620   -2.3510   25.9540 C   0  0  0  0  0  0  0  0  0  0  0  0
    1.8000   -5.3860   25.8310 F   0  0  0  0  0  0  0  0  0  0  0  0
    5.4290   -1.9180   26.0190 F   0  0  0  0  0  0  0  0  0  0  0  0
    3.1480   -1.4150   25.9180 C   0  0  0  0  0  0  0  0  0  0  0  0
    1.3880   -3.0900   25.8260 C   0  0  0  0  0  0  0  0  0  0  0  0
    1.7950   -1.7610   25.8570 C   0  0  0  0  0  0  0  0  0  0  0  0
  1  2  1  0
  2  3  2  0
  1  4  1  0
  5  2  1  6
  4  6  2  0
  4  7  1  0
  5  8  1  0
  6  9  1  0
  5 10  1  0
  6 11  1  0
  7 12  2  0
  9 13  1  0
  9 14  1  6
  8 15  1  0
 10 16  2  0
 10 17  1  0
  8 18  1  0
 11 19  2  0
 12 19  1  0
 13 20  1  0
 15 21  2  0
 15 22  1  0
 19 23  1  0
 17 24  2  0
 16 25  1  0
 18 26  2  0
 18 27  1  0
 20 28  1  0
 22 29  1  6
 23 30  1  0
 24 31  1  0
 25 31  2  0
 26 32  1  0
 27 33  2  0
 22 34  1  0
 32 35  2  0
 33 35  1  0
 34 36  1  0
 34 37  1  0
 35 38  1  0
 36 39  1  0
 40 37  1  6
 38 41  1  0
 38 42  1  0
 38 43  1  0
 40 44  1  0
 39 45  1  0
 40 45  1  0
 44 46  1  1
 44 47  1  0
 45 48  1  0
 47 49  1  6
 47 50  1  0
 46 51  1  0
 48 52  2  0
 48 53  2  0
 48 54  1  0
 51 55  2  0
 51 56  1  0
 54 57  2  0
 54 58  1  0
 57 59  1  0
 58 60  1  0
 58 61  2  0
 57 62  1  0
 61 63  1  0
 62 63  2  0
M  END
