x3110-x1348-x0786
     RDKit          3D

 51 55  0  0  0  0  0  0  0  0999 V2000
    8.0030    1.1010   23.3950 N   0  0  0  0  0  0  0  0  0  0  0  0
    8.7520    2.2720   23.6730 C   0  0  0  0  0  0  0  0  0  0  0  0
   10.2920    2.0710   23.5450 C   0  0  0  0  0  0  0  0  0  0  0  0
    7.8320    0.5930   22.0140 C   0  0  0  0  0  0  0  0  0  0  0  0
    8.5890    1.0110   21.1350 O   0  0  0  0  0  0  0  0  0  0  0  0
    6.6760   -0.4060   21.6260 C   0  0  2  0  0  0  0  0  0  0  0  0
    7.0560   -1.5600   21.7300 N   0  0  0  0  0  0  0  0  0  0  0  0
   11.0020    3.2780   23.3350 C   0  0  0  0  0  0  0  0  0  0  0  0
    6.2160    0.0450   20.2890 C   0  0  0  0  0  0  0  0  0  0  0  0
   11.6030    3.3770   22.2670 O   0  0  0  0  0  0  0  0  0  0  0  0
   11.0070    4.1770   24.1610 O   0  0  0  0  0  0  0  0  0  0  0  0
    6.2850   -2.8700   21.5860 C   0  0  0  0  0  0  0  0  0  0  0  0
    5.0680    0.8720   20.2470 C   0  0  0  0  0  0  0  0  0  0  0  0
    6.7990   -0.2190   19.0470 C   0  0  0  0  0  0  0  0  0  0  0  0
    8.3010   -1.6140   22.4130 C   0  0  0  0  0  0  0  0  0  0  0  0
   12.7130    3.9230   22.2210 C   0  0  0  0  0  0  0  0  0  0  0  0
    5.0230   -3.2100   21.1050 O   0  0  0  0  0  0  0  0  0  0  0  0
    7.2140   -3.9690   22.1730 C   0  0  2  0  0  0  0  0  0  0  0  0
    6.3200    0.2980   17.7790 N   0  0  0  0  0  0  0  0  0  0  0  0
    4.5570    1.3980   19.0510 C   0  0  0  0  0  0  0  0  0  0  0  0
    9.4280   -1.4450   21.6620 C   0  0  0  0  0  0  0  0  0  0  0  0
    8.5090   -1.8190   23.8010 C   0  0  0  0  0  0  0  0  0  0  0  0
   13.1320    5.1670   22.9980 C   0  0  0  0  0  0  0  0  0  0  0  0
    8.3350   -4.6670   21.2990 C   0  0  0  0  0  0  0  0  0  0  0  0
    5.1760    1.1190   17.8500 C   0  0  0  0  0  0  0  0  0  0  0  0
   10.7220   -1.4750   22.2300 C   0  0  0  0  0  0  0  0  0  0  0  0
    9.8090   -1.8480   24.3700 C   0  0  0  0  0  0  0  0  0  0  0  0
    6.4690   -4.9770   23.0090 N   0  0  0  0  0  0  0  0  0  0  0  0
   10.9430   -1.6740   23.5950 C   0  0  0  0  0  0  0  0  0  0  0  0
    5.7830   -4.6790   24.1190 C   0  0  2  0  0  0  0  0  0  0  0  0
    5.5830   -5.7350   22.1360 C   0  0  0  0  0  0  0  0  0  0  0  0
   12.3530   -1.6750   24.1800 C   0  0  0  0  0  0  0  0  0  0  0  0
    6.3790   -4.7660   25.4310 C   0  0  2  0  0  0  0  0  0  0  0  0
    4.4260   -5.4260   24.0740 C   0  0  1  0  0  0  0  0  0  0  0  0
    3.8540   -6.1940   22.5510 S   0  0  0  0  0  0  0  0  0  0  0  0
   12.4500   -0.5830   25.0210 C   0  0  0  0  0  0  0  0  0  0  0  0
   13.2660   -1.7820   23.1200 C   0  0  0  0  0  0  0  0  0  0  0  0
   12.6440   -2.8910   25.0770 C   0  0  0  0  0  0  0  0  0  0  0  0
    7.6930   -5.1580   25.3670 O   0  0  0  0  0  0  0  0  0  0  0  0
    4.7050   -6.7820   24.7110 C   0  0  2  0  0  0  0  0  0  0  0  0
    5.7330   -5.5720   26.3930 C   0  0  0  0  0  0  0  0  0  0  0  0
    8.2450   -5.5440   26.6350 C   0  0  0  0  0  0  0  0  0  0  0  0
    3.5730   -7.6470   24.6680 O   0  0  0  0  0  0  0  0  0  0  0  0
    4.8840   -6.5990   26.0600 C   0  0  0  0  0  0  0  0  0  0  0  0
    2.3390   -7.0500   25.0150 C   0  0  0  0  0  0  0  0  0  0  0  0
    1.4980   -6.9800   23.8060 N   0  0  0  0  0  0  0  0  0  0  0  0
    1.1610   -5.6070   23.4040 C   0  0  0  0  0  0  0  0  0  0  0  0
    0.4100   -7.9500   23.8800 C   0  0  0  0  0  0  0  0  0  0  0  0
    0.1800   -4.9530   24.3700 C   0  0  0  0  0  0  0  0  0  0  0  0
   -0.5070   -7.5710   24.8630 C   0  0  0  0  0  0  0  0  0  0  0  0
   -1.3130   -5.9910   24.4090 S   0  0  0  0  0  0  0  0  0  0  0  0
  1  2  1  0
  2  3  1  0
  1  4  1  0
  4  5  2  0
  6  4  1  6
  6  7  1  0
  3  8  1  0
  6  9  1  0
  8 10  1  0
  8 11  2  0
  7 12  1  0
  9 13  2  0
  9 14  1  0
  7 15  1  0
 10 16  1  0
 12 17  2  0
 12 18  1  0
 14 19  2  0
 13 20  1  0
 15 21  2  0
 15 22  1  0
 16 23  1  0
 18 24  1  6
 19 25  1  0
 20 25  2  0
 21 26  1  0
 22 27  2  0
 18 28  1  0
 26 29  2  0
 27 29  1  0
 30 28  1  6
 28 31  1  0
 29 32  1  0
 30 33  1  0
 30 34  1  0
 31 35  2  0
 34 35  1  6
 32 36  1  0
 32 37  1  0
 32 38  1  0
 33 39  1  6
 34 40  1  0
 33 41  1  0
 39 42  1  0
 40 43  1  1
 40 44  1  0
 41 44  2  0
 43 45  1  0
 45 46  1  0
 46 47  1  0
 46 48  1  0
 47 49  1  0
 48 50  1  0
 49 51  1  0
 50 51  1  0
M  END
