x3113-x2694
     RDKit          3D

 38 42  0  0  0  0  0  0  0  0999 V2000
    7.1350   -1.7430   21.8200 N   0  0  0  0  0  0  0  0  0  0  0  0
    6.2340   -2.9530   21.5280 C   0  0  0  0  0  0  0  0  0  0  0  0
    4.9310   -3.1030   21.1600 O   0  0  0  0  0  0  0  0  0  0  0  0
    6.7820   -0.2510   21.6720 C   0  0  1  0  0  0  0  0  0  0  0  0
    8.4580   -1.8710   22.5460 C   0  0  0  0  0  0  0  0  0  0  0  0
    6.9190   -4.3060   21.7080 C   0  0  0  0  0  0  0  0  0  0  0  0
    7.8750    0.7040   21.9230 C   0  0  0  0  0  0  0  0  0  0  0  0
    6.3000    0.1940   20.3210 C   0  0  0  0  0  0  0  0  0  0  0  0
    9.6770   -1.6200   21.8800 C   0  0  0  0  0  0  0  0  0  0  0  0
    8.5590   -2.2140   23.8940 C   0  0  0  0  0  0  0  0  0  0  0  0
    8.2950   -4.4920   21.0120 C   0  0  0  0  0  0  0  0  0  0  0  0
    7.7200    1.6710   22.9130 N   0  0  0  0  0  0  0  0  0  0  0  0
    8.8970    0.7130   21.2620 O   0  0  0  0  0  0  0  0  0  0  0  0
    5.1740    1.0400   20.2750 C   0  0  0  0  0  0  0  0  0  0  0  0
    6.9330   -0.1830   19.1430 C   0  0  0  0  0  0  0  0  0  0  0  0
   10.9070   -1.7150   22.5680 C   0  0  0  0  0  0  0  0  0  0  0  0
    9.8060   -2.2920   24.5350 C   0  0  0  0  0  0  0  0  0  0  0  0
   12.3370   -1.4970   22.0940 C   0  0  0  0  0  0  0  0  0  0  0  0
    6.4210    0.3180   17.8710 N   0  0  0  0  0  0  0  0  0  0  0  0
    4.6660    1.5280   19.0660 C   0  0  0  0  0  0  0  0  0  0  0  0
   10.9610   -2.0170   23.7930 C   0  0  0  0  0  0  0  0  0  0  0  0
    8.4460    2.9330   23.0790 C   0  0  0  0  0  0  0  0  0  0  0  0
   12.3820   -2.0250   24.3530 C   0  0  0  0  0  0  0  0  0  0  0  0
   13.2240   -1.9960   23.2640 C   0  0  0  0  0  0  0  0  0  0  0  0
    5.2560    1.1990   17.8620 C   0  0  0  0  0  0  0  0  0  0  0  0
    9.8540    2.9570   23.2200 C   0  0  0  0  0  0  0  0  0  0  0  0
    7.7930    4.3600   23.1230 C   0  0  0  0  0  0  0  0  0  0  0  0
   10.7610    1.7700   23.2190 C   0  0  0  0  0  0  0  0  0  0  0  0
   12.8080   -3.1420   25.3020 C   0  0  0  0  0  0  0  0  0  0  0  0
   12.5530   -0.7610   24.9930 C   0  0  0  0  0  0  0  0  0  0  0  0
   10.5280    4.1370   23.3800 C   0  0  0  0  0  0  0  0  0  0  0  0
    8.6500    5.4710   23.3110 C   0  0  0  0  0  0  0  0  0  0  0  0
   11.9400    3.8690   23.4670 N   0  0  0  0  0  0  0  0  0  0  0  0
   12.0130    2.4340   23.1520 C   0  0  0  0  0  0  0  0  0  0  0  0
   10.0270    5.4210   23.4520 C   0  0  0  0  0  0  0  0  0  0  0  0
   12.6810    4.6040   22.6160 C   0  0  0  0  0  0  0  0  0  0  0  0
   10.8800    6.4920   23.6460 O   0  0  0  0  0  0  0  0  0  0  0  0
   11.6090    6.5540   24.8060 C   0  0  0  0  0  0  0  0  0  0  0  0
  1  2  1  0
  2  3  2  0
  1  4  1  0
  1  5  1  0
  2  6  1  0
  4  7  1  6
  4  8  1  0
  5  9  2  0
  5 10  1  0
  6 11  1  0
  7 12  1  0
  7 13  2  0
  8 14  2  0
  8 15  1  0
  9 16  1  0
 10 17  2  0
 16 18  1  0
 15 19  2  0
 14 20  1  0
 16 21  2  0
 17 21  1  0
 12 22  1  0
 21 23  1  0
 18 24  1  0
 23 24  1  0
 19 25  1  0
 20 25  2  0
 22 26  1  0
 22 27  2  0
 26 28  1  0
 23 29  1  0
 23 30  1  0
 26 31  2  0
 27 32  1  0
 31 33  1  0
 28 34  1  0
 33 34  1  0
 31 35  1  0
 32 35  2  0
 33 36  1  0
 35 37  1  0
 37 38  1  0
M  END
