x3117-x0691
     RDKit          3D

 49 54  0  0  0  0  0  0  0  0999 V2000
    6.6090   -1.4350   22.0920 C   0  0  1  0  0  0  0  0  0  0  0  0
    5.7840   -2.3170   21.0570 C   0  0  0  0  0  0  0  0  0  0  0  0
    4.6520   -2.8710   21.3080 O   0  0  0  0  0  0  0  0  0  0  0  0
    6.4010    0.0860   21.8240 C   0  0  1  0  0  0  0  0  0  0  0  0
    5.7440   -2.1580   23.1200 C   0  0  0  0  0  0  0  0  0  0  0  0
    8.1490   -1.6050   22.5080 C   0  0  0  0  0  0  0  0  0  0  0  0
    6.1310   -2.7690   19.7560 C   0  0  0  0  0  0  0  0  0  0  0  0
    7.5920    0.9180   21.9930 C   0  0  0  0  0  0  0  0  0  0  0  0
    5.2830   -3.4970   22.6200 C   0  0  0  0  0  0  0  0  0  0  0  0
    5.9950    0.4620   20.4400 C   0  0  0  0  0  0  0  0  0  0  0  0
    9.2140   -1.9090   21.7230 C   0  0  0  0  0  0  0  0  0  0  0  0
    8.5950   -1.3990   23.8610 C   0  0  0  0  0  0  0  0  0  0  0  0
    6.5740   -4.1210   20.1280 C   0  0  0  0  0  0  0  0  0  0  0  0
    7.5060    1.9560   22.8990 N   0  0  0  0  0  0  0  0  0  0  0  0
    8.6190    0.7190   21.3300 O   0  0  0  0  0  0  0  0  0  0  0  0
    4.7750    1.2630   20.1400 C   0  0  0  0  0  0  0  0  0  0  0  0
    6.7680    0.0890   19.3270 C   0  0  0  0  0  0  0  0  0  0  0  0
   10.7340   -2.0560   21.9960 C   0  0  0  0  0  0  0  0  0  0  0  0
    9.8970   -1.4890   24.2370 C   0  0  0  0  0  0  0  0  0  0  0  0
    6.2830   -4.4440   21.7630 C   0  0  0  0  0  0  0  0  0  0  0  0
    6.3880    0.4780   17.9570 N   0  0  0  0  0  0  0  0  0  0  0  0
    4.4030    1.6340   18.8840 C   0  0  0  0  0  0  0  0  0  0  0  0
    8.3800    3.0920   22.9970 C   0  0  0  0  0  0  0  0  0  0  0  0
   11.0990   -1.7760   23.5390 C   0  0  0  0  0  0  0  0  0  0  0  0
    5.6950   -5.8420   21.7840 C   0  0  0  0  0  0  0  0  0  0  0  0
    7.4710   -4.7350   22.7260 C   0  0  0  0  0  0  0  0  0  0  0  0
   12.3230   -1.7890   24.0970 C   0  0  0  0  0  0  0  0  0  0  0  0
    5.1910    1.2580   17.8090 C   0  0  0  0  0  0  0  0  0  0  0  0
    9.7010    3.0490   23.7840 C   0  0  0  0  0  0  0  0  0  0  0  0
    8.2830    4.1270   24.1320 C   0  0  0  0  0  0  0  0  0  0  0  0
    5.0510   -6.2510   23.1110 C   0  0  0  0  0  0  0  0  0  0  0  0
    7.0100   -4.9710   24.1770 C   0  0  0  0  0  0  0  0  0  0  0  0
   12.4810   -0.5570   24.9780 C   0  0  0  0  0  0  0  0  0  0  0  0
   13.3390   -1.6850   23.1850 C   0  0  0  0  0  0  0  0  0  0  0  0
   12.6420   -3.0120   24.9560 C   0  0  0  0  0  0  0  0  0  0  0  0
   10.7360    4.1520   23.5160 C   0  0  0  0  0  0  0  0  0  0  0  0
    8.6320    4.9080   23.0160 C   0  0  0  0  0  0  0  0  0  0  0  0
    5.6200   -5.5030   24.2630 N   0  0  0  0  0  0  0  0  0  0  0  0
    4.8140   -5.5900   25.7400 S   0  0  0  0  0  0  0  0  0  0  0  0
    9.9430    5.3060   23.3780 O   0  0  0  0  0  0  0  0  0  0  0  0
    4.1290   -6.8720   25.7440 O   0  0  0  0  0  0  0  0  0  0  0  0
    5.7690   -5.2760   26.7720 O   0  0  0  0  0  0  0  0  0  0  0  0
    3.6490   -4.3810   25.7290 C   0  0  0  0  0  0  0  0  0  0  0  0
    3.8940   -3.0670   25.8430 C   0  0  0  0  0  0  0  0  0  0  0  0
    2.1610   -4.7160   25.5900 C   0  0  0  0  0  0  0  0  0  0  0  0
    2.9510   -2.0070   25.8530 C   0  0  0  0  0  0  0  0  0  0  0  0
    1.1680   -3.5630   25.6050 C   0  0  0  0  0  0  0  0  0  0  0  0
    3.3670   -0.7390   25.9820 F   0  0  0  0  0  0  0  0  0  0  0  0
    1.5770   -2.2580   25.7360 C   0  0  0  0  0  0  0  0  0  0  0  0
  1  2  1  0
  2  3  2  0
  1  4  1  0
  1  5  1  0
  1  6  1  1
  2  7  1  0
  4  8  1  6
  5  9  1  0
  4 10  1  0
  6 11  2  0
  6 12  1  0
  7 13  1  0
  8 14  1  0
  8 15  2  0
 10 16  2  0
 10 17  1  0
 11 18  1  0
 12 19  2  0
 20  9  1  0
 13 20  1  0
 17 21  2  0
 16 22  1  0
 14 23  1  0
 18 24  2  0
 19 24  1  0
 20 25  1  0
 20 26  1  0
 24 27  1  0
 21 28  1  0
 22 28  2  0
 23 29  1  0
 23 30  1  0
 25 31  1  0
 26 32  1  0
 27 33  1  0
 27 34  1  0
 27 35  1  0
 29 36  1  0
 30 37  1  0
 31 38  1  0
 32 38  1  0
 38 39  1  0
 36 40  1  0
 37 40  1  0
 39 41  2  0
 39 42  2  0
 39 43  1  0
 43 44  2  0
 43 45  1  0
 44 46  1  0
 45 47  2  0
 46 48  1  0
 46 49  2  0
 47 49  1  0
M  END
