x3113-x1402
     RDKit          3D

 47 51  0  0  0  0  0  0  0  0999 V2000
    6.7240   -1.4350   21.9700 C   0  0  1  0  0  0  0  0  0  0  0  0
    5.8510   -2.4170   21.0160 C   0  0  0  0  0  0  0  0  0  0  0  0
    4.6930   -2.9020   21.2850 O   0  0  0  0  0  0  0  0  0  0  0  0
    6.5790    0.0370   21.7320 C   0  0  1  0  0  0  0  0  0  0  0  0
    6.0140   -2.1000   23.0650 C   0  0  0  0  0  0  0  0  0  0  0  0
    8.2740   -1.5970   22.4620 C   0  0  0  0  0  0  0  0  0  0  0  0
    6.4080   -2.9480   19.8130 C   0  0  0  0  0  0  0  0  0  0  0  0
    7.8210    0.9730   21.9190 C   0  0  0  0  0  0  0  0  0  0  0  0
    6.5540   -3.4720   23.0810 C   0  0  0  0  0  0  0  0  0  0  0  0
    6.1460    0.4210   20.3270 C   0  0  0  0  0  0  0  0  0  0  0  0
    9.3590   -1.8830   21.6520 C   0  0  0  0  0  0  0  0  0  0  0  0
    8.6300   -1.4130   23.9240 C   0  0  0  0  0  0  0  0  0  0  0  0
    7.3780   -3.8320   20.4760 C   0  0  0  0  0  0  0  0  0  0  0  0
    8.1470    1.5330   23.2190 N   0  0  0  0  0  0  0  0  0  0  0  0
    8.5350    1.2760   20.9510 O   0  0  0  0  0  0  0  0  0  0  0  0
    5.0030    1.1840   20.1650 C   0  0  0  0  0  0  0  0  0  0  0  0
    6.8490    0.0510   19.1800 C   0  0  0  0  0  0  0  0  0  0  0  0
   10.6520   -1.9950   22.1190 C   0  0  0  0  0  0  0  0  0  0  0  0
    9.9310   -1.5210   24.3790 C   0  0  0  0  0  0  0  0  0  0  0  0
    6.7950   -4.5010   21.8820 C   0  0  0  0  0  0  0  0  0  0  0  0
    9.2220    2.5670   23.3490 C   0  0  0  0  0  0  0  0  0  0  0  0
    6.4760    0.4030   17.9300 N   0  0  0  0  0  0  0  0  0  0  0  0
    4.5980    1.5510   18.9710 C   0  0  0  0  0  0  0  0  0  0  0  0
   10.9750   -1.8100   23.5240 C   0  0  0  0  0  0  0  0  0  0  0  0
    7.7800   -5.1970   22.5100 C   0  0  0  0  0  0  0  0  0  0  0  0
    5.6760   -5.2320   21.6330 C   0  0  0  0  0  0  0  0  0  0  0  0
   10.4480    1.9030   23.1980 C   0  0  0  0  0  0  0  0  0  0  0  0
   12.4340   -1.9130   24.0560 C   0  0  0  0  0  0  0  0  0  0  0  0
    5.3590    1.1470   17.8690 C   0  0  0  0  0  0  0  0  0  0  0  0
    7.3060   -5.5560   23.7820 C   0  0  0  0  0  0  0  0  0  0  0  0
    4.9030   -5.4440   22.7870 C   0  0  0  0  0  0  0  0  0  0  0  0
   11.4910    2.8080   23.4310 C   0  0  0  0  0  0  0  0  0  0  0  0
   13.3080   -1.7850   22.9840 C   0  0  0  0  0  0  0  0  0  0  0  0
   12.6670   -2.9700   24.9350 C   0  0  0  0  0  0  0  0  0  0  0  0
   12.6050   -0.6680   24.9350 C   0  0  0  0  0  0  0  0  0  0  0  0
    5.7990   -5.8160   23.9310 N   0  0  0  0  0  0  0  0  0  0  0  0
   11.6360    3.6350   22.3520 O   0  0  0  0  0  0  0  0  0  0  0  0
    5.0640   -5.6570   25.5110 S   0  0  0  0  0  0  0  0  0  0  0  0
   12.8070    4.4450   22.4830 C   0  0  0  0  0  0  0  0  0  0  0  0
    4.0910   -6.7130   25.6530 O   0  0  0  0  0  0  0  0  0  0  0  0
    6.0900   -5.5100   26.5060 O   0  0  0  0  0  0  0  0  0  0  0  0
    4.1880   -4.2040   25.7060 C   0  0  0  0  0  0  0  0  0  0  0  0
    2.3720   -4.0330   25.8020 S   0  0  0  0  0  0  0  0  0  0  0  0
    4.7910   -2.8300   25.8480 C   0  0  0  0  0  0  0  0  0  0  0  0
    3.8180   -1.8600   26.0110 C   0  0  0  0  0  0  0  0  0  0  0  0
    2.4950   -2.3140   26.0200 C   0  0  0  0  0  0  0  0  0  0  0  0
    1.0750   -1.3780   26.2210 Cl  0  0  0  0  0  0  0  0  0  0  0  0
  1  2  1  0
  2  3  2  0
  1  4  1  0
  1  5  1  0
  1  6  1  1
  2  7  1  0
  4  8  1  6
  5  9  1  0
  4 10  1  0
  6 11  2  0
  6 12  1  0
  7 13  1  0
  8 14  1  0
  8 15  2  0
 10 16  2  0
 10 17  1  0
 11 18  1  0
 12 19  2  0
 20  9  1  0
 13 20  1  0
 14 21  1  0
 17 22  2  0
 16 23  1  0
 18 24  2  0
 19 24  1  0
 20 25  1  0
 20 26  1  0
 21 27  1  0
 24 28  1  0
 22 29  1  0
 23 29  2  0
 25 30  1  0
 26 31  1  0
 27 32  1  0
 28 33  1  0
 28 34  1  0
 28 35  1  0
 30 36  1  0
 31 36  1  0
 32 37  1  0
 36 38  1  0
 37 39  1  0
 38 40  2  0
 38 41  2  0
 38 42  1  0
 42 43  1  0
 42 44  2  0
 44 45  1  0
 43 46  1  0
 45 46  2  0
 46 47  1  0
M  END
