x3113-x3115-x1311-x0540-x3110-x0786-x2754-x0426-x2929-x0946
     RDKit          3D

113124  0  0  0  0  0  0  0  0999 V2000
    7.9140    1.4060   23.3510 N   0  0  0  0  0  0  0  0  0  0  0  0
    8.6280    2.7010   23.2750 C   0  0  1  0  0  0  0  0  0  0  0  0
    7.8630    3.8190   23.9410 C   0  0  0  0  0  0  0  0  0  0  0  0
    7.7730    0.8650   21.9700 C   0  0  0  0  0  0  0  0  0  0  0  0
    8.5390    1.2860   20.9060 O   0  0  0  0  0  0  0  0  0  0  0  0
    6.6560   -0.1980   21.5730 C   0  0  2  0  0  0  0  0  0  0  0  0
   10.1550    2.6760   23.1560 C   0  0  0  0  0  0  0  0  0  0  0  0
    7.0540   -1.6250   21.6710 N   0  0  0  0  0  0  0  0  0  0  0  0
    8.3660    5.0160   23.4350 O   0  0  0  0  0  0  0  0  0  0  0  0
    6.1090    0.2480   20.2460 C   0  0  0  0  0  0  0  0  0  0  0  0
   11.0620    3.7540   23.2110 C   0  0  0  0  0  0  0  0  0  0  0  0
   10.7630    1.2840   22.9080 C   0  0  0  0  0  0  0  0  0  0  0  0
   10.6640    5.1390   23.5400 C   0  0  0  0  0  0  0  0  0  0  0  0
    6.1800   -2.8320   21.4860 C   0  0  0  0  0  0  0  0  0  0  0  0
    7.7970    5.5760   22.2380 C   0  0  0  0  0  0  0  0  0  0  0  0
    4.8810    0.7940   20.1840 C   0  0  0  0  0  0  0  0  0  0  0  0
    6.8240    0.1270   19.1100 C   0  0  0  0  0  0  0  0  0  0  0  0
    8.3500   -1.6350   22.3330 C   0  0  0  0  0  0  0  0  0  0  0  0
   12.1160    1.1400   22.7230 C   0  0  0  0  0  0  0  0  0  0  0  0
   12.4280    3.5520   22.9470 C   0  0  0  0  0  0  0  0  0  0  0  0
   13.3760    4.7530   22.8710 C   0  0  2  0  0  0  0  0  0  0  0  0
    4.8920   -3.0200   21.0780 O   0  0  0  0  0  0  0  0  0  0  0  0
    6.7850   -4.1710   21.8050 C   0  0  1  0  0  0  0  0  0  0  0  0
    4.0230    0.9260   21.4160 C   0  0  0  0  0  0  0  0  0  0  0  0
    9.7700    5.4230   24.6330 O   0  0  0  0  0  0  0  0  0  0  0  0
   11.2330    6.1060   22.8140 O   0  0  0  0  0  0  0  0  0  0  0  0
    6.4480    0.5230   17.8810 N   0  0  0  0  0  0  0  0  0  0  0  0
    4.3830    1.2380   19.0130 C   0  0  0  0  0  0  0  0  0  0  0  0
    9.5020   -2.1020   21.7380 C   0  0  0  0  0  0  0  0  0  0  0  0
    8.5530   -1.1250   23.7790 C   0  0  0  0  0  0  0  0  0  0  0  0
   12.9100    2.2440   22.7290 C   0  0  0  0  0  0  0  0  0  0  0  0
   13.0150    5.5070   21.5950 C   0  0  0  0  0  0  0  0  0  0  0  0
    6.8990   -5.0490   20.5560 C   0  0  0  0  0  0  0  0  0  0  0  0
    4.6970    1.8070   22.4310 C   0  0  0  0  0  0  0  0  0  0  0  0
   14.8050    4.3470   22.7550 C   0  0  0  0  0  0  0  0  0  0  0  0
    5.2580    1.0790   17.8210 C   0  0  0  0  0  0  0  0  0  0  0  0
   10.7350   -2.1220   22.3760 C   0  0  0  0  0  0  0  0  0  0  0  0
    9.8380   -1.1890   24.3440 C   0  0  0  0  0  0  0  0  0  0  0  0
    7.9370   -4.5420   22.8230 C   0  0  0  0  0  0  0  0  0  0  0  0
    5.8540   -4.4180   23.0060 C   0  0  0  0  0  0  0  0  0  0  0  0
    4.0260    2.9170   22.7440 N   0  0  0  0  0  0  0  0  0  0  0  0
   15.6710    5.0240   22.2160 C   0  0  0  0  0  0  0  0  0  0  0  0
   10.8990   -1.6840   23.6450 C   0  0  0  0  0  0  0  0  0  0  0  0
    8.3010   -5.8670   22.9510 C   0  0  0  0  0  0  0  0  0  0  0  0
    8.6030   -3.6670   23.6330 C   0  0  0  0  0  0  0  0  0  0  0  0
    4.8900   -5.3500   23.2040 C   0  0  0  0  0  0  0  0  0  0  0  0
    6.1430   -3.4240   24.1320 C   0  0  0  0  0  0  0  0  0  0  0  0
   12.2940   -1.7560   24.3020 C   0  0  0  0  0  0  0  0  0  0  0  0
    2.7730    2.6450   23.3290 C   0  0  1  0  0  0  0  0  0  0  0  0
   17.0900    4.4930   22.5000 C   0  0  0  0  0  0  0  0  0  0  0  0
    9.2740   -6.2390   23.8430 C   0  0  0  0  0  0  0  0  0  0  0  0
    9.5690   -4.0370   24.5150 C   0  0  0  0  0  0  0  0  0  0  0  0
    4.3870   -6.4320   22.2820 C   0  0  0  0  0  0  0  0  0  0  0  0
    4.2300   -5.3350   24.4350 C   0  0  0  0  0  0  0  0  0  0  0  0
    5.3410   -3.5770   25.3820 C   0  0  0  0  0  0  0  0  0  0  0  0
   12.4360   -0.6370   25.1010 C   0  0  0  0  0  0  0  0  0  0  0  0
   13.3710   -1.7360   23.2230 C   0  0  0  0  0  0  0  0  0  0  0  0
   12.4690   -2.9350   24.9140 C   0  0  0  0  0  0  0  0  0  0  0  0
    2.9420    2.3090   24.6300 N   0  0  0  0  0  0  0  0  0  0  0  0
    2.0410    3.8850   23.0250 N   0  0  0  0  0  0  0  0  0  0  0  0
    5.6550   -2.7500   26.4450 N   0  0  0  0  0  0  0  0  0  0  0  0
   17.8580    5.1460   23.5930 C   0  0  0  0  0  0  0  0  0  0  0  0
    9.9100   -5.3170   24.6370 C   0  0  0  0  0  0  0  0  0  0  0  0
    3.0820   -6.7380   24.2940 S   0  0  1  0  0  0  0  0  0  0  0  0
    3.3660   -7.1540   22.7680 C   0  0  0  0  0  0  0  0  0  0  0  0
    4.3840   -4.5280   25.4900 C   0  0  0  0  0  0  0  0  0  0  0  0
    2.4700    1.0110   25.0190 O   0  0  0  0  0  0  0  0  0  0  0  0
    3.6820   -7.7910   25.0990 O   0  0  0  0  0  0  0  0  0  0  0  0
    3.6520   -4.6500   26.6140 O   0  0  0  0  0  0  0  0  0  0  0  0
    4.7370   -2.4420   27.3040 C   0  0  0  0  0  0  0  0  0  0  0  0
   19.0480    5.9360   23.4270 C   0  0  0  0  0  0  0  0  0  0  0  0
    0.6300    4.0780   23.4260 C   0  0  2  0  0  0  0  0  0  0  0  0
    1.5060   -6.4790   24.5730 N   0  0  0  0  0  0  0  0  0  0  0  0
    6.7720   -3.4520   26.9440 C   0  0  0  0  0  0  0  0  0  0  0  0
   20.1730    6.0480   24.5450 C   0  0  0  0  0  0  0  0  0  0  0  0
    0.5420    4.8490   24.7470 C   0  0  1  0  0  0  0  0  0  0  0  0
   -0.2200    2.8000   23.4570 C   0  0  0  0  0  0  0  0  0  0  0  0
    1.0020   -5.2900   23.9040 C   0  0  0  0  0  0  0  0  0  0  0  0
    0.6080   -7.6010   24.3010 C   0  0  0  0  0  0  0  0  0  0  0  0
    6.6610   -4.5290   27.8350 C   0  0  0  0  0  0  0  0  0  0  0  0
    8.0440   -3.1110   26.5200 C   0  0  0  0  0  0  0  0  0  0  0  0
   21.1320    4.9200   24.8980 N   0  0  0  0  0  0  0  0  0  0  0  0
   -0.9030    4.9070   25.2210 C   0  0  0  0  0  0  0  0  0  0  0  0
   -1.5010    2.9990   23.8160 C   0  0  0  0  0  0  0  0  0  0  0  0
   -0.1850   -4.7830   24.4060 C   0  0  0  0  0  0  0  0  0  0  0  0
   -0.6230   -7.4600   24.9090 C   0  0  0  0  0  0  0  0  0  0  0  0
    7.8990   -5.2980   28.3200 C   0  0  0  0  0  0  0  0  0  0  0  0
    9.2240   -3.7640   26.9260 C   0  0  0  0  0  0  0  0  0  0  0  0
    1.4020    4.2670   25.8640 C   0  0  0  0  0  0  0  0  0  0  0  0
   22.6250    4.8920   24.6810 C   0  0  0  0  0  0  0  0  0  0  0  0
   -1.8670    4.4130   24.3190 C   0  0  0  0  0  0  0  0  0  0  0  0
   -1.5110   -6.0180   24.2300 S   0  0  0  0  0  0  0  0  0  0  0  0
    9.1480   -4.9110   27.8690 C   0  0  0  0  0  0  0  0  0  0  0  0
    2.7110    4.5530   25.6110 F   0  0  0  0  0  0  0  0  0  0  0  0
   23.2730    5.9390   24.1040 N   0  0  0  0  0  0  0  0  0  0  0  0
   23.5540    3.6480   25.0590 C   0  0  2  0  0  0  0  0  0  0  0  0
   23.0340    2.3290   25.2730 C   0  0  0  0  0  0  0  0  0  0  0  0
   24.8310    3.6950   25.9860 C   0  0  2  0  0  0  0  0  0  0  0  0
   24.2670    1.5380   25.4990 N   0  0  0  0  0  0  0  0  0  0  0  0
   24.8880    2.2830   26.5600 C   0  0  0  0  0  0  0  0  0  0  0  0
   25.2650    4.7690   26.9780 C   0  0  0  0  0  0  0  0  0  0  0  0
   24.1620    0.1080   25.7710 C   0  0  0  0  0  0  0  0  0  0  0  0
   25.0320    4.6290   28.3650 C   0  0  0  0  0  0  0  0  0  0  0  0
   25.9350    5.9130   26.5380 C   0  0  0  0  0  0  0  0  0  0  0  0
   22.9920   -0.5590   25.1340 C   0  0  0  0  0  0  0  0  0  0  0  0
   25.4660    5.6110   29.2650 C   0  0  0  0  0  0  0  0  0  0  0  0
   26.3660    6.8870   27.4320 C   0  0  0  0  0  0  0  0  0  0  0  0
   21.9250   -0.9730   25.9200 C   0  0  0  0  0  0  0  0  0  0  0  0
   22.9220   -0.7870   23.7580 C   0  0  0  0  0  0  0  0  0  0  0  0
   26.1340    6.7380   28.7960 C   0  0  0  0  0  0  0  0  0  0  0  0
   20.8200   -1.5760   25.4500 N   0  0  0  0  0  0  0  0  0  0  0  0
   21.7900   -1.4110   23.2460 C   0  0  0  0  0  0  0  0  0  0  0  0
   20.7770   -1.7790   24.1210 C   0  0  0  0  0  0  0  0  0  0  0  0
  1  2  1  0
  2  3  1  1
  1  4  1  0
  4  5  2  0
  6  4  1  6
  2  7  1  0
  6  8  1  0
  3  9  1  0
  6 10  1  0
  7 11  2  0
  7 12  1  0
 11 13  1  0
  8 14  1  0
  9 15  1  0
 10 16  1  0
 10 17  2  0
  8 18  1  0
 12 19  2  0
 11 20  1  0
 20 21  1  0
 14 22  2  0
 23 14  1  0
 16 24  1  0
 13 25  2  0
 13 26  1  0
 17 27  1  0
 16 28  2  0
 18 29  2  0
 18 30  1  0
 19 31  1  0
 20 31  2  0
 21 32  1  6
 23 33  1  6
 24 34  1  0
 21 35  1  0
 27 36  2  0
 28 36  1  0
 29 37  1  0
 30 38  2  0
 23 39  1  0
 23 40  1  0
 34 41  1  0
 35 42  1  0
 37 43  2  0
 38 43  1  0
 39 44  2  0
 39 45  1  0
 40 46  1  0
 40 47  2  0
 43 48  1  0
 49 41  1  1
 42 50  1  0
 44 51  1  0
 45 52  2  0
 46 53  1  0
 46 54  2  0
 47 55  1  0
 48 56  1  0
 48 57  1  0
 48 58  1  0
 49 59  1  0
 49 60  1  0
 55 61  1  0
 50 62  1  0
 51 63  2  0
 52 63  1  0
 54 64  1  0
 53 65  2  0
 64 65  1  0
 54 66  1  0
 55 66  2  0
 59 67  2  0
 64 68  1  1
 66 69  1  0
 61 70  1  0
 62 71  1  0
 72 60  1  1
 64 73  1  0
 61 74  1  0
 71 75  1  0
 72 76  1  0
 72 77  1  0
 73 78  1  0
 73 79  1  0
 74 80  2  0
 74 81  1  0
 75 82  1  0
 76 83  1  0
 77 84  1  0
 78 85  1  0
 79 86  1  0
 80 87  1  0
 81 88  2  0
 76 89  1  1
 82 90  2  3
 83 91  1  0
 84 91  1  0
 85 92  1  0
 86 92  1  0
 87 93  2  0
 88 93  1  0
 89 94  1  0
 90 95  1  0
 96 90  1  1
 96 97  1  0
 96 98  1  0
 97 99  1  0
 98100  1  0
 99100  1  0
 98101  1  1
 99102  1  0
101103  2  0
101104  1  0
102105  1  0
103106  1  0
104107  2  0
105108  2  0
105109  1  0
106110  2  0
107110  1  0
108111  1  0
109112  2  0
111113  2  0
112113  1  0
M  END
