x3110-x0540-x0978
     RDKit          3D

 55 57  0  0  0  0  0  0  0  0999 V2000
    7.9580    1.0480   23.3280 N   0  0  0  0  0  0  0  0  0  0  0  0
    8.7660    2.2280   23.5980 C   0  0  0  0  0  0  0  0  0  0  0  0
   10.3170    2.0530   23.5350 C   0  0  0  0  0  0  0  0  0  0  0  0
    7.7500    0.5490   21.9830 C   0  0  0  0  0  0  0  0  0  0  0  0
    8.4570    1.0180   21.0810 O   0  0  0  0  0  0  0  0  0  0  0  0
    6.6580   -0.5120   21.6200 C   0  0  2  0  0  0  0  0  0  0  0  0
    7.0370   -1.8470   21.6610 N   0  0  0  0  0  0  0  0  0  0  0  0
   11.1410    3.3310   23.3940 C   0  0  0  0  0  0  0  0  0  0  0  0
    6.0710    0.0360   20.3320 C   0  0  0  0  0  0  0  0  0  0  0  0
   11.9530    3.2500   22.4820 O   0  0  0  0  0  0  0  0  0  0  0  0
   10.9930    4.3140   24.1090 O   0  0  0  0  0  0  0  0  0  0  0  0
    6.1430   -3.0320   21.5190 C   0  0  0  0  0  0  0  0  0  0  0  0
    4.8960    0.7580   20.2750 C   0  0  0  0  0  0  0  0  0  0  0  0
    6.7920   -0.1910   19.1580 C   0  0  0  0  0  0  0  0  0  0  0  0
    8.3400   -1.9240   22.3470 C   0  0  0  0  0  0  0  0  0  0  0  0
   12.3940    4.5060   21.9510 C   0  0  0  0  0  0  0  0  0  0  0  0
    4.9230   -3.0900   21.0600 O   0  0  0  0  0  0  0  0  0  0  0  0
    6.6850   -4.3870   21.9910 C   0  0  2  0  0  0  0  0  0  0  0  0
    4.0720    1.0790   21.2730 C   0  0  0  0  0  0  0  0  0  0  0  0
    6.4170    0.2650   17.9310 N   0  0  0  0  0  0  0  0  0  0  0  0
    4.4410    1.2590   19.0670 C   0  0  0  0  0  0  0  0  0  0  0  0
    9.6020   -1.3840   21.6770 C   0  0  0  0  0  0  0  0  0  0  0  0
    8.5760   -2.4470   23.6450 C   0  0  0  0  0  0  0  0  0  0  0  0
   13.4010    5.1910   22.8650 C   0  0  0  0  0  0  0  0  0  0  0  0
    7.9480   -4.9300   21.2090 C   0  0  0  0  0  0  0  0  0  0  0  0
    5.4880   -5.3600   22.0380 N   0  0  0  0  0  0  0  0  0  0  0  0
    4.1760    2.3770   21.7900 C   0  0  0  0  0  0  0  0  0  0  0  0
    5.2800    0.9750   17.8670 C   0  0  0  0  0  0  0  0  0  0  0  0
   10.8270   -1.4220   22.3210 C   0  0  0  0  0  0  0  0  0  0  0  0
    9.9270   -2.5050   24.3950 C   0  0  0  0  0  0  0  0  0  0  0  0
    4.5230   -5.2570   23.0330 C   0  0  0  0  0  0  0  0  0  0  0  0
    4.2200    2.6420   23.1120 N   0  0  0  0  0  0  0  0  0  0  0  0
   11.0260   -1.9850   23.7160 C   0  0  0  0  0  0  0  0  0  0  0  0
   12.4380   -1.9360   24.3080 C   0  0  0  0  0  0  0  0  0  0  0  0
    3.3700   -6.2750   23.1590 C   0  0  2  0  0  0  0  0  0  0  0  0
    4.5780   -4.3190   23.8190 O   0  0  0  0  0  0  0  0  0  0  0  0
    2.9630    2.3300   23.6570 C   0  0  0  0  0  0  0  0  0  0  0  0
   12.5310   -0.7170   24.9710 C   0  0  0  0  0  0  0  0  0  0  0  0
   13.4330   -2.0160   23.1260 C   0  0  0  0  0  0  0  0  0  0  0  0
   12.8510   -3.0360   25.3090 C   0  0  0  0  0  0  0  0  0  0  0  0
    2.1970   -5.5790   23.0640 N   0  0  0  0  0  0  0  0  0  0  0  0
    3.3270   -6.9990   24.3660 C   0  0  1  0  0  0  0  0  0  0  0  0
    2.8020    1.4320   24.4820 O   0  0  0  0  0  0  0  0  0  0  0  0
    1.9560    3.1350   23.1970 N   0  0  0  0  0  0  0  0  0  0  0  0
    2.3430   -7.9880   24.5060 C   0  0  0  0  0  0  0  0  0  0  0  0
    4.5380   -7.7220   24.4920 O   0  0  0  0  0  0  0  0  0  0  0  0
    1.0710   -6.2470   22.5900 C   0  0  0  0  0  0  0  0  0  0  0  0
    0.7390    3.3370   24.0070 C   0  0  0  0  0  0  0  0  0  0  0  0
    1.0820   -7.3370   22.0320 O   0  0  0  0  0  0  0  0  0  0  0  0
   -0.1150   -5.5260   22.8140 C   0  0  0  0  0  0  0  0  0  0  0  0
    0.6580    4.6730   24.4320 C   0  0  0  0  0  0  0  0  0  0  0  0
   -0.3750    2.7930   23.3560 C   0  0  0  0  0  0  0  0  0  0  0  0
   -0.5950    4.9590   25.0560 C   0  0  0  0  0  0  0  0  0  0  0  0
   -1.6370    3.3240   23.6170 C   0  0  0  0  0  0  0  0  0  0  0  0
   -1.6710    4.5700   24.2780 C   0  0  0  0  0  0  0  0  0  0  0  0
  1  2  1  0
  2  3  1  0
  1  4  1  0
  4  5  2  0
  6  4  1  6
  6  7  1  0
  3  8  1  0
  6  9  1  0
  8 10  1  0
  8 11  2  0
  7 12  1  0
  9 13  1  0
  9 14  2  0
  7 15  1  0
 10 16  1  0
 12 17  2  0
 12 18  1  0
 13 19  1  0
 14 20  1  0
 13 21  2  0
 15 22  2  0
 15 23  1  0
 16 24  1  0
 18 25  1  6
 18 26  1  0
 19 27  1  0
 20 28  2  0
 21 28  1  0
 22 29  1  0
 23 30  2  0
 26 31  1  0
 27 32  1  0
 29 33  2  0
 30 33  1  0
 33 34  1  0
 31 35  1  0
 31 36  2  0
 32 37  1  0
 34 38  1  0
 34 39  1  0
 34 40  1  0
 35 41  1  1
 35 42  1  0
 37 43  2  0
 37 44  1  0
 42 45  1  6
 42 46  1  0
 41 47  1  0
 44 48  1  0
 47 49  2  0
 47 50  1  0
 48 51  1  0
 48 52  1  0
 51 53  1  0
 52 54  1  0
 53 55  1  0
 54 55  1  0
M  END
