x3110-x0354
     RDKit          3D

 43 45  0  0  0  0  0  0  0  0999 V2000
    7.6860    1.4480   22.7730 N   0  0  0  0  0  0  0  0  0  0  0  0
    8.4960    2.6660   22.8580 C   0  0  0  0  0  0  0  0  0  0  0  0
   10.0060    2.3640   22.8400 C   0  0  0  0  0  0  0  0  0  0  0  0
    7.8610    0.4280   21.7510 C   0  0  0  0  0  0  0  0  0  0  0  0
    8.9300    0.3250   21.1860 O   0  0  0  0  0  0  0  0  0  0  0  0
    6.7220   -0.3890   21.4430 C   0  0  2  0  0  0  0  0  0  0  0  0
    7.0900   -1.8350   21.4400 N   0  0  0  0  0  0  0  0  0  0  0  0
   11.0510    3.4720   22.8850 C   0  0  0  0  0  0  0  0  0  0  0  0
    6.1280    0.2140   20.2090 C   0  0  0  0  0  0  0  0  0  0  0  0
   12.0670    3.2320   22.2570 O   0  0  0  0  0  0  0  0  0  0  0  0
   10.8810    4.5220   23.4680 O   0  0  0  0  0  0  0  0  0  0  0  0
    6.2000   -3.0210   21.3420 C   0  0  0  0  0  0  0  0  0  0  0  0
    4.9860    0.9640   20.2380 C   0  0  0  0  0  0  0  0  0  0  0  0
    6.7570    0.0390   18.9870 C   0  0  0  0  0  0  0  0  0  0  0  0
    8.2740   -1.8470   22.2200 C   0  0  0  0  0  0  0  0  0  0  0  0
   12.6020    4.4010   21.8050 C   0  0  0  0  0  0  0  0  0  0  0  0
    4.9460   -3.1100   21.0020 O   0  0  0  0  0  0  0  0  0  0  0  0
    6.8170   -4.3740   21.7090 C   0  0  0  0  0  0  0  0  0  0  0  0
    6.3270    0.5830   17.7680 N   0  0  0  0  0  0  0  0  0  0  0  0
    4.5040    1.5260   19.0800 C   0  0  0  0  0  0  0  0  0  0  0  0
    9.5260   -2.2790   21.7420 C   0  0  0  0  0  0  0  0  0  0  0  0
    8.2130   -1.3460   23.6090 C   0  0  0  0  0  0  0  0  0  0  0  0
   13.3870    5.1010   22.9040 C   0  0  0  0  0  0  0  0  0  0  0  0
    8.1380   -4.7240   21.0060 C   0  0  0  0  0  0  0  0  0  0  0  0
    5.2060    1.3480   17.7350 C   0  0  0  0  0  0  0  0  0  0  0  0
   10.7140   -2.2650   22.4840 C   0  0  0  0  0  0  0  0  0  0  0  0
    9.3940   -1.2900   24.4380 C   0  0  0  0  0  0  0  0  0  0  0  0
    9.0980   -0.7290   25.7670 C   0  0  0  0  0  0  0  0  0  0  0  0
   10.6690   -1.7860   23.7920 C   0  0  0  0  0  0  0  0  0  0  0  0
   12.0690   -1.8440   24.3690 C   0  0  0  0  0  0  0  0  0  0  0  0
   10.0270   -0.5390   26.6230 O   0  0  0  0  0  0  0  0  0  0  0  0
    7.8190   -0.3510   26.2060 C   0  0  0  0  0  0  0  0  0  0  0  0
   12.6620   -0.4940   24.8050 C   0  0  0  0  0  0  0  0  0  0  0  0
   13.1230   -1.3560   23.4060 C   0  0  0  0  0  0  0  0  0  0  0  0
   12.5380   -2.9930   24.9190 C   0  0  0  0  0  0  0  0  0  0  0  0
    7.4920   -0.6640   27.5600 O   0  0  0  0  0  0  0  0  0  0  0  0
    7.1130    0.4000   28.3190 C   0  0  0  0  0  0  0  0  0  0  0  0
    7.8470    1.5760   28.3980 C   0  0  0  0  0  0  0  0  0  0  0  0
    5.8170    0.3030   29.1250 C   0  0  0  0  0  0  0  0  0  0  0  0
    7.3500    2.7290   29.2760 C   0  0  0  0  0  0  0  0  0  0  0  0
    5.3130    1.3260   29.9450 C   0  0  0  0  0  0  0  0  0  0  0  0
    6.0670    2.6520   30.0820 C   0  0  0  0  0  0  0  0  0  0  0  0
    5.5640    3.7700   30.9430 C   0  0  0  0  0  0  0  0  0  0  0  0
  1  2  1  0
  2  3  1  0
  1  4  1  0
  4  5  2  0
  6  4  1  6
  6  7  1  0
  3  8  1  0
  6  9  1  0
  8 10  1  0
  8 11  2  0
  7 12  1  0
  9 13  2  0
  9 14  1  0
  7 15  1  0
 10 16  1  0
 12 17  2  0
 12 18  1  0
 14 19  2  0
 13 20  1  0
 15 21  2  0
 15 22  1  0
 16 23  1  0
 18 24  1  0
 19 25  1  0
 20 25  2  0
 21 26  1  0
 22 27  2  0
 27 28  1  0
 26 29  2  0
 27 29  1  0
 29 30  1  0
 28 31  2  0
 28 32  1  0
 30 33  1  0
 30 34  1  0
 30 35  1  0
 32 36  1  0
 36 37  1  0
 37 38  2  0
 37 39  1  0
 38 40  1  0
 39 41  2  0
 40 42  2  0
 41 42  1  0
 42 43  1  0
M  END
