x3117-x0731
     RDKit          3D

 48 53  0  0  0  0  0  0  0  0999 V2000
    6.7250   -1.4620   22.0020 C   0  0  1  0  0  0  0  0  0  0  0  0
    5.7970   -2.3820   21.0660 C   0  0  0  0  0  0  0  0  0  0  0  0
    4.7020   -2.9830   21.4370 O   0  0  0  0  0  0  0  0  0  0  0  0
    6.3750    0.0510   21.9270 C   0  0  1  0  0  0  0  0  0  0  0  0
    6.3470   -2.3910   23.0600 C   0  0  0  0  0  0  0  0  0  0  0  0
    8.2580   -1.5950   22.4180 C   0  0  0  0  0  0  0  0  0  0  0  0
    6.0310   -2.8190   19.7240 C   0  0  0  0  0  0  0  0  0  0  0  0
    7.5190    0.9460   22.1710 C   0  0  0  0  0  0  0  0  0  0  0  0
    5.9730    0.4460   20.5330 C   0  0  0  0  0  0  0  0  0  0  0  0
    9.3160   -1.9940   21.6910 C   0  0  0  0  0  0  0  0  0  0  0  0
    8.6850   -1.2530   23.7540 C   0  0  0  0  0  0  0  0  0  0  0  0
    7.0540   -3.7840   22.6950 C   0  0  2  0  0  0  0  0  0  0  0  0
    6.5810   -4.1590   19.9930 C   0  0  0  0  0  0  0  0  0  0  0  0
    7.4810    1.8020   23.2720 N   0  0  0  0  0  0  0  0  0  0  0  0
    8.4900    0.9570   21.3920 O   0  0  0  0  0  0  0  0  0  0  0  0
    4.7490    1.2420   20.1970 C   0  0  0  0  0  0  0  0  0  0  0  0
    6.7720    0.0750   19.4270 C   0  0  0  0  0  0  0  0  0  0  0  0
   10.8220   -2.1360   22.0180 C   0  0  0  0  0  0  0  0  0  0  0  0
    9.9730   -1.3380   24.1450 C   0  0  0  0  0  0  0  0  0  0  0  0
    6.5010   -4.5550   21.4780 N   0  0  0  0  0  0  0  0  0  0  0  0
    7.0200   -4.5850   23.9530 C   0  0  0  0  0  0  0  0  0  0  0  0
    6.4210    0.4530   18.0440 N   0  0  0  0  0  0  0  0  0  0  0  0
    4.3960    1.6090   18.9250 C   0  0  0  0  0  0  0  0  0  0  0  0
    8.3300    2.9480   23.5070 C   0  0  0  0  0  0  0  0  0  0  0  0
   11.1770   -1.7200   23.5230 C   0  0  0  0  0  0  0  0  0  0  0  0
    5.7050   -5.2040   24.1160 N   0  0  0  0  0  0  0  0  0  0  0  0
    6.1660   -5.9770   21.7650 C   0  0  0  0  0  0  0  0  0  0  0  0
   12.3750   -1.7110   24.0960 C   0  0  0  0  0  0  0  0  0  0  0  0
    5.1780   -5.4440   25.6700 S   0  0  0  0  0  0  0  0  0  0  0  0
    5.2200    1.2220   17.8760 C   0  0  0  0  0  0  0  0  0  0  0  0
    9.8420    2.9360   23.1740 C   0  0  0  0  0  0  0  0  0  0  0  0
    8.5950    4.0440   22.4720 C   0  0  0  0  0  0  0  0  0  0  0  0
    5.3040   -6.1380   23.0230 C   0  0  0  0  0  0  0  0  0  0  0  0
   12.4450   -0.5170   25.0220 C   0  0  0  0  0  0  0  0  0  0  0  0
   13.3670   -1.5140   23.1860 C   0  0  0  0  0  0  0  0  0  0  0  0
   12.7380   -2.9590   24.9040 C   0  0  0  0  0  0  0  0  0  0  0  0
    6.2310   -5.1170   26.6060 O   0  0  0  0  0  0  0  0  0  0  0  0
    4.4820   -6.7040   25.7770 O   0  0  0  0  0  0  0  0  0  0  0  0
   10.6220    4.1850   23.6140 C   0  0  0  0  0  0  0  0  0  0  0  0
    8.3710    4.7000   23.7170 C   0  0  0  0  0  0  0  0  0  0  0  0
    3.9740   -4.1560   25.8000 C   0  0  0  0  0  0  0  0  0  0  0  0
    9.6730    5.0720   24.1610 O   0  0  0  0  0  0  0  0  0  0  0  0
    2.6040   -4.2910   25.3240 C   0  0  0  0  0  0  0  0  0  0  0  0
    4.3390   -2.8090   26.4460 C   0  0  0  0  0  0  0  0  0  0  0  0
    1.7400   -3.2940   25.4640 C   0  0  0  0  0  0  0  0  0  0  0  0
    3.3570   -1.8470   26.5360 C   0  0  0  0  0  0  0  0  0  0  0  0
    2.0630   -2.0690   26.0600 C   0  0  0  0  0  0  0  0  0  0  0  0
    1.0210   -1.0000   26.1950 C   0  0  0  0  0  0  0  0  0  0  0  0
  1  2  1  0
  2  3  2  0
  1  4  1  0
  1  5  1  0
  1  6  1  6
  2  7  1  0
  4  8  1  6
  4  9  1  0
  6 10  2  0
  6 11  1  0
 12  5  1  1
  7 13  1  0
  8 14  1  0
  8 15  2  0
  9 16  2  0
  9 17  1  0
 10 18  1  0
 11 19  2  0
 12 20  1  0
 13 20  1  0
 12 21  1  0
 17 22  2  0
 16 23  1  0
 14 24  1  0
 18 25  2  0
 19 25  1  0
 21 26  1  0
 20 27  1  0
 25 28  1  0
 26 29  1  0
 22 30  1  0
 23 30  2  0
 24 31  1  0
 24 32  1  0
 26 33  1  0
 27 33  1  0
 28 34  1  0
 28 35  1  0
 28 36  1  0
 29 37  2  0
 29 38  2  0
 31 39  1  0
 32 40  1  0
 29 41  1  0
 39 42  1  0
 40 42  1  0
 41 43  2  0
 41 44  1  0
 43 45  1  0
 44 46  2  0
 45 47  2  0
 46 47  1  0
 47 48  1  0
M  END
