x3110-x0820-x0161-x3115
     RDKit          3D

 52 57  0  0  0  0  0  0  0  0999 V2000
    7.8120    1.4080   23.3310 N   0  0  0  0  0  0  0  0  0  0  0  0
    8.4390    2.7120   23.2760 C   0  0  1  0  0  0  0  0  0  0  0  0
    7.7300    3.9550   23.8020 C   0  0  0  0  0  0  0  0  0  0  0  0
    7.7750    0.6310   22.0650 C   0  0  0  0  0  0  0  0  0  0  0  0
    8.5880    0.8850   21.1860 O   0  0  0  0  0  0  0  0  0  0  0  0
    6.6410   -0.4770   21.8570 C   0  0  2  0  0  0  0  0  0  0  0  0
    9.9850    2.6080   23.1920 C   0  0  0  0  0  0  0  0  0  0  0  0
    7.0270   -1.9170   21.9070 C   0  0  2  0  0  0  0  0  0  0  0  0
    8.2900    5.2030   23.4000 O   0  0  0  0  0  0  0  0  0  0  0  0
    6.0810    0.0460   20.4880 C   0  0  0  0  0  0  0  0  0  0  0  0
   10.9130    3.6790   23.3060 C   0  0  0  0  0  0  0  0  0  0  0  0
   10.5350    1.3850   22.9540 C   0  0  0  0  0  0  0  0  0  0  0  0
   10.5690    5.0890   23.6110 C   0  0  0  0  0  0  0  0  0  0  0  0
    6.0150   -3.0270   21.0490 C   0  0  0  0  0  0  0  0  0  0  0  0
    7.7820    5.7420   22.1810 C   0  0  0  0  0  0  0  0  0  0  0  0
    6.3340   -3.1300   22.6740 C   0  0  1  0  0  0  0  0  0  0  0  0
    4.8970    0.8090   20.3420 C   0  0  0  0  0  0  0  0  0  0  0  0
    6.8410   -0.2570   19.3710 C   0  0  0  0  0  0  0  0  0  0  0  0
    8.4670   -1.9430   22.3950 C   0  0  0  0  0  0  0  0  0  0  0  0
   11.8700    1.2020   22.8020 C   0  0  0  0  0  0  0  0  0  0  0  0
   12.2500    3.4830   23.1260 C   0  0  0  0  0  0  0  0  0  0  0  0
   13.1840    4.6940   23.1990 C   0  0  0  0  0  0  0  0  0  0  0  0
    4.9900   -3.2010   20.3040 O   0  0  0  0  0  0  0  0  0  0  0  0
    6.6930   -4.2090   21.6200 C   0  0  2  0  0  0  0  0  0  0  0  0
   10.9690    6.0560   22.9730 O   0  0  0  0  0  0  0  0  0  0  0  0
    9.8040    5.2010   24.7100 O   0  0  0  0  0  0  0  0  0  0  0  0
    6.4810    0.1830   18.0340 N   0  0  0  0  0  0  0  0  0  0  0  0
    4.4900    1.2660   19.0830 C   0  0  0  0  0  0  0  0  0  0  0  0
    9.5710   -2.3310   21.7050 C   0  0  0  0  0  0  0  0  0  0  0  0
    8.7550   -1.5170   23.6900 C   0  0  0  0  0  0  0  0  0  0  0  0
   12.7870    2.2100   22.8660 C   0  0  0  0  0  0  0  0  0  0  0  0
    5.8780   -3.5810   24.1660 C   0  0  0  0  0  0  0  0  0  0  0  0
   13.1270    5.4310   21.9000 C   0  0  0  0  0  0  0  0  0  0  0  0
    8.0710   -4.6230   21.0080 C   0  0  0  0  0  0  0  0  0  0  0  0
    5.2470    0.9740   17.9620 C   0  0  0  0  0  0  0  0  0  0  0  0
   10.9520   -2.3140   22.2950 C   0  0  0  0  0  0  0  0  0  0  0  0
   10.0600   -1.4850   24.2660 C   0  0  0  0  0  0  0  0  0  0  0  0
    6.5020   -4.3140   25.1570 C   0  0  0  0  0  0  0  0  0  0  0  0
    4.4480   -3.0690   24.4120 C   0  0  0  0  0  0  0  0  0  0  0  0
   11.1840   -1.9030   23.5610 C   0  0  0  0  0  0  0  0  0  0  0  0
    5.8520   -4.5560   26.3670 C   0  0  0  0  0  0  0  0  0  0  0  0
    3.7400   -3.3470   25.7170 C   0  0  0  0  0  0  0  0  0  0  0  0
    7.7900   -4.8940   25.1000 C   0  0  0  0  0  0  0  0  0  0  0  0
   12.6140   -1.9240   24.0900 C   0  0  0  0  0  0  0  0  0  0  0  0
    4.4520   -4.0600   26.6370 C   0  0  0  0  0  0  0  0  0  0  0  0
    6.4570   -5.3440   27.5460 C   0  0  0  0  0  0  0  0  0  0  0  0
    8.3570   -5.6400   26.1680 C   0  0  0  0  0  0  0  0  0  0  0  0
   12.8010   -0.6080   24.7150 C   0  0  0  0  0  0  0  0  0  0  0  0
   13.5350   -2.1860   22.9740 C   0  0  0  0  0  0  0  0  0  0  0  0
   12.8690   -2.9600   25.0190 C   0  0  0  0  0  0  0  0  0  0  0  0
    7.7050   -5.8550   27.3860 C   0  0  0  0  0  0  0  0  0  0  0  0
   13.3340    0.2310   24.0390 O   0  0  0  0  0  0  0  0  0  0  0  0
  1  2  1  0
  2  3  1  1
  1  4  1  0
  4  5  2  0
  6  4  1  6
  2  7  1  0
  6  8  1  0
  3  9  1  0
  6 10  1  0
  7 11  2  0
  7 12  1  0
 11 13  1  0
  8 14  1  0
  9 15  1  0
  8 16  1  0
 10 17  2  0
 10 18  1  0
  8 19  1  6
 12 20  2  0
 11 21  1  0
 21 22  1  0
 14 23  2  0
 14 24  1  0
 16 24  1  0
 13 25  2  0
 13 26  1  0
 18 27  2  0
 17 28  1  0
 19 29  2  0
 19 30  1  0
 20 31  1  0
 21 31  2  0
 16 32  1  1
 22 33  1  0
 24 34  1  6
 27 35  1  0
 28 35  2  0
 29 36  1  0
 30 37  2  0
 32 38  1  0
 32 39  2  0
 36 40  2  0
 37 40  1  0
 38 41  2  0
 39 42  1  0
 38 43  1  0
 40 44  1  0
 41 45  1  0
 42 45  2  0
 41 46  1  0
 43 47  2  0
 44 48  1  0
 44 49  1  0
 44 50  1  0
 46 51  2  0
 47 51  1  0
 48 52  2  0
M  END
