x3117-x0107
     RDKit          3D

 31 34  0  0  0  0  0  0  0  0999 V2000
    7.1490   -1.8150   21.9840 N   0  0  0  0  0  0  0  0  0  0  0  0
    6.1590   -2.9500   21.6660 C   0  0  0  0  0  0  0  0  0  0  0  0
    4.8520   -3.0580   21.3020 O   0  0  0  0  0  0  0  0  0  0  0  0
    6.9420   -0.3820   21.8560 C   0  0  1  0  0  0  0  0  0  0  0  0
    8.5560   -2.2650   22.5690 C   0  0  1  0  0  0  0  0  0  0  0  0
    6.7090   -4.3720   21.7460 C   0  0  0  0  0  0  0  0  0  0  0  0
    8.1950    0.4730   22.3130 C   0  0  2  0  0  0  0  0  0  0  0  0
    6.3360    0.0880   20.5250 C   0  0  0  0  0  0  0  0  0  0  0  0
    9.4800   -2.4820   21.6280 C   0  0  0  0  0  0  0  0  0  0  0  0
    9.3810   -1.3720   23.5850 C   0  0  2  0  0  0  0  0  0  0  0  0
    6.5740   -5.0330   20.3770 C   0  0  0  0  0  0  0  0  0  0  0  0
    7.6110    1.8420   22.5810 N   0  0  0  0  0  0  0  0  0  0  0  0
    9.1500    0.4930   21.5270 O   0  0  0  0  0  0  0  0  0  0  0  0
    8.8050    0.0810   23.5260 C   0  0  0  0  0  0  0  0  0  0  0  0
    5.2190    0.9140   20.4840 C   0  0  0  0  0  0  0  0  0  0  0  0
    6.8410   -0.2570   19.2920 C   0  0  0  0  0  0  0  0  0  0  0  0
   10.6720   -1.9500   21.9230 C   0  0  0  0  0  0  0  0  0  0  0  0
   10.7100   -1.2420   23.1690 C   0  0  2  0  0  0  0  0  0  0  0  0
   12.0490   -1.4930   23.9950 C   0  0  0  0  0  0  0  0  0  0  0  0
    6.3880    0.1070   18.0640 N   0  0  0  0  0  0  0  0  0  0  0  0
    4.7200    1.3120   19.2990 C   0  0  0  0  0  0  0  0  0  0  0  0
    8.2700    2.9110   23.1890 C   0  0  0  0  0  0  0  0  0  0  0  0
   12.1510   -0.4850   25.0970 C   0  0  0  0  0  0  0  0  0  0  0  0
   13.1980   -1.5280   23.0420 C   0  0  0  0  0  0  0  0  0  0  0  0
   12.1360   -2.9210   24.5910 C   0  0  0  0  0  0  0  0  0  0  0  0
    5.2700    0.9360   18.0830 C   0  0  0  0  0  0  0  0  0  0  0  0
    9.7880    2.8240   23.4680 C   0  0  0  0  0  0  0  0  0  0  0  0
    7.9640    4.2900   22.5670 C   0  0  0  0  0  0  0  0  0  0  0  0
   10.4320    4.0550   23.4700 C   0  0  0  0  0  0  0  0  0  0  0  0
    8.6490    5.4900   23.2890 C   0  0  0  0  0  0  0  0  0  0  0  0
    9.7030    5.0680   24.1430 O   0  0  0  0  0  0  0  0  0  0  0  0
  1  2  1  0
  2  3  2  0
  1  4  1  0
  1  5  1  0
  2  6  1  0
  4  7  1  0
  4  8  1  6
  5  9  1  6
  5 10  1  0
  6 11  1  0
  7 12  1  0
  7 13  1  6
  7 14  1  0
 10 14  1  6
  8 15  2  0
  8 16  1  0
  9 17  2  0
 10 18  1  0
 17 18  1  0
 18 19  1  1
 16 20  2  0
 15 21  1  0
 12 22  1  0
 19 23  1  0
 19 24  1  0
 19 25  1  0
 20 26  1  0
 21 26  2  0
 22 27  1  0
 22 28  1  0
 27 29  1  0
 28 30  1  0
 29 31  1  0
 30 31  1  0
M  END
