x3110-x1382
     RDKit          3D

 35 36  0  0  0  0  0  0  0  0999 V2000
    7.8860    1.1990   23.1690 N   0  0  0  0  0  0  0  0  0  0  0  0
    8.7310    2.3410   23.4650 C   0  0  0  0  0  0  0  0  0  0  0  0
   10.2740    2.1040   23.5050 C   0  0  0  0  0  0  0  0  0  0  0  0
    7.6730    0.7230   21.8140 C   0  0  0  0  0  0  0  0  0  0  0  0
    8.3460    1.2500   20.9000 O   0  0  0  0  0  0  0  0  0  0  0  0
    6.6080   -0.3890   21.4830 C   0  0  2  0  0  0  0  0  0  0  0  0
    7.0010   -1.7370   21.6000 N   0  0  0  0  0  0  0  0  0  0  0  0
   11.1470    3.3500   23.3930 C   0  0  0  0  0  0  0  0  0  0  0  0
    6.2500    0.0310   20.2490 C   0  0  0  0  0  0  0  0  0  0  0  0
   11.9470    3.2690   22.4740 O   0  0  0  0  0  0  0  0  0  0  0  0
   11.0460    4.3160   24.1350 O   0  0  0  0  0  0  0  0  0  0  0  0
    6.1750   -2.9570   21.4070 C   0  0  0  0  0  0  0  0  0  0  0  0
    5.1240    0.8620   20.2880 C   0  0  0  0  0  0  0  0  0  0  0  0
    6.9070   -0.2820   19.0400 C   0  0  0  0  0  0  0  0  0  0  0  0
    8.2210   -1.7760   22.3810 C   0  0  0  0  0  0  0  0  0  0  0  0
   12.3940    4.5280   21.9520 C   0  0  0  0  0  0  0  0  0  0  0  0
    4.9230   -3.0730   21.0170 O   0  0  0  0  0  0  0  0  0  0  0  0
    6.8240   -4.3090   21.7250 C   0  0  0  0  0  0  0  0  0  0  0  0
    6.4240    0.2550   17.8760 N   0  0  0  0  0  0  0  0  0  0  0  0
    4.6960    1.3580   19.0830 C   0  0  0  0  0  0  0  0  0  0  0  0
    9.3710   -2.0660   21.7720 C   0  0  0  0  0  0  0  0  0  0  0  0
    8.3170   -1.5200   23.7420 C   0  0  0  0  0  0  0  0  0  0  0  0
   13.4100    5.1950   22.8670 C   0  0  0  0  0  0  0  0  0  0  0  0
    8.1790   -4.6280   21.0220 C   0  0  0  0  0  0  0  0  0  0  0  0
    7.1500   -1.1860   24.6090 C   0  0  0  0  0  0  0  0  0  0  0  0
    5.3400    1.0570   17.9220 C   0  0  0  0  0  0  0  0  0  0  0  0
   10.7150   -2.1190   22.4310 C   0  0  0  0  0  0  0  0  0  0  0  0
    9.6560   -1.5520   24.4610 C   0  0  0  0  0  0  0  0  0  0  0  0
   10.8570   -1.8370   23.8300 C   0  0  0  0  0  0  0  0  0  0  0  0
   12.2110   -1.8370   24.5160 C   0  0  0  0  0  0  0  0  0  0  0  0
   12.4050   -0.6670   25.2170 C   0  0  0  0  0  0  0  0  0  0  0  0
   13.2890   -1.8750   23.4640 C   0  0  0  0  0  0  0  0  0  0  0  0
   12.5360   -3.0590   25.3900 C   0  0  0  0  0  0  0  0  0  0  0  0
   13.2040   -0.8240   22.3930 C   0  0  0  0  0  0  0  0  0  0  0  0
   13.4220   -1.6620   20.9420 Cl  0  0  0  0  0  0  0  0  0  0  0  0
  1  2  1  0
  2  3  1  0
  1  4  1  0
  4  5  2  0
  6  4  1  6
  6  7  1  0
  3  8  1  0
  6  9  1  0
  8 10  1  0
  8 11  2  0
  7 12  1  0
  9 13  2  0
  9 14  1  0
  7 15  1  0
 10 16  1  0
 12 17  2  0
 12 18  1  0
 14 19  2  0
 13 20  1  0
 15 21  2  0
 15 22  1  0
 16 23  1  0
 18 24  1  0
 22 25  1  0
 19 26  1  0
 20 26  2  0
 21 27  1  0
 22 28  2  0
 27 29  2  0
 28 29  1  0
 29 30  1  0
 30 31  1  0
 30 32  1  0
 30 33  1  0
 32 34  1  0
 34 35  1  0
M  END
