x3110-x0946-x1458
     RDKit          3D

 51 55  0  0  0  0  0  0  0  0999 V2000
    7.9230    1.2650   23.2400 N   0  0  0  0  0  0  0  0  0  0  0  0
    8.6680    2.4620   23.7130 C   0  0  0  0  0  0  0  0  0  0  0  0
   10.1640    2.5120   23.4090 C   0  0  0  0  0  0  0  0  0  0  0  0
    7.7980    0.9390   21.8840 C   0  0  0  0  0  0  0  0  0  0  0  0
    8.6810    1.4820   20.9730 O   0  0  0  0  0  0  0  0  0  0  0  0
    6.5930    0.0040   21.4400 C   0  0  2  0  0  0  0  0  0  0  0  0
    6.9630   -1.4720   21.6060 C   0  0  2  0  0  0  0  0  0  0  0  0
    6.0870    0.5030   20.1370 C   0  0  0  0  0  0  0  0  0  0  0  0
   10.9040    3.6680   23.3990 C   0  0  0  0  0  0  0  0  0  0  0  0
   10.7220    1.3110   23.1340 C   0  0  0  0  0  0  0  0  0  0  0  0
   10.3900    5.0940   23.6900 C   0  0  0  0  0  0  0  0  0  0  0  0
    6.1320   -2.8620   21.1290 C   0  0  0  0  0  0  0  0  0  0  0  0
    6.2930   -1.7500   22.8370 C   0  0  0  0  0  0  0  0  0  0  0  0
    5.0030    1.3630   20.0130 C   0  0  0  0  0  0  0  0  0  0  0  0
    6.8200    0.0330   19.0610 C   0  0  0  0  0  0  0  0  0  0  0  0
    8.4750   -1.6080   22.3470 C   0  0  0  0  0  0  0  0  0  0  0  0
   12.1700    1.1000   22.7910 C   0  0  0  0  0  0  0  0  0  0  0  0
   12.2610    3.5580   23.0910 C   0  0  0  0  0  0  0  0  0  0  0  0
   13.1840    4.7500   23.0420 C   0  0  0  0  0  0  0  0  0  0  0  0
    4.9730   -3.1050   20.5630 O   0  0  0  0  0  0  0  0  0  0  0  0
    9.0530    5.1520   23.9830 N   0  0  0  0  0  0  0  0  0  0  0  0
   10.6280    5.9150   22.8370 O   0  0  0  0  0  0  0  0  0  0  0  0
   10.9210    5.5570   24.6860 O   0  0  0  0  0  0  0  0  0  0  0  0
    6.3880    0.5150   17.7830 N   0  0  0  0  0  0  0  0  0  0  0  0
    4.5990    1.8120   18.8120 C   0  0  0  0  0  0  0  0  0  0  0  0
    9.5930   -2.0350   21.6860 C   0  0  0  0  0  0  0  0  0  0  0  0
    8.6960   -1.2910   23.7150 C   0  0  0  0  0  0  0  0  0  0  0  0
   12.9390    2.2480   22.7790 C   0  0  0  0  0  0  0  0  0  0  0  0
    6.8020   -3.9980   21.6670 C   0  0  2  0  0  0  0  0  0  0  0  0
    6.8070   -3.1990   22.9470 C   0  0  0  0  0  0  0  0  0  0  0  0
   13.1640    5.3720   21.6550 C   0  0  0  0  0  0  0  0  0  0  0  0
    8.1960   -4.5030   21.1360 C   0  0  0  0  0  0  0  0  0  0  0  0
    5.2450    1.4360   17.6680 C   0  0  0  0  0  0  0  0  0  0  0  0
   10.8060   -2.1600   22.2460 C   0  0  0  0  0  0  0  0  0  0  0  0
    9.9030   -1.3980   24.3420 C   0  0  0  0  0  0  0  0  0  0  0  0
    7.2440   -3.6800   24.0650 C   0  0  0  0  0  0  0  0  0  0  0  0
    5.8230   -5.1600   22.0700 C   0  0  0  0  0  0  0  0  0  0  0  0
   11.0010   -1.8340   23.6610 C   0  0  0  0  0  0  0  0  0  0  0  0
    6.0440   -4.2750   24.2410 C   0  0  1  0  0  0  0  0  0  0  0  0
    5.8170   -5.4630   23.5020 C   0  0  0  0  0  0  0  0  0  0  0  0
   12.3360   -1.9790   24.2700 C   0  0  0  0  0  0  0  0  0  0  0  0
    5.4990   -4.0330   25.6360 C   0  0  0  0  0  0  0  0  0  0  0  0
   13.3370   -1.2450   23.8080 C   0  0  0  0  0  0  0  0  0  0  0  0
   12.6720   -0.7750   25.0410 C   0  0  0  0  0  0  0  0  0  0  0  0
   12.6500   -3.1310   24.9630 C   0  0  0  0  0  0  0  0  0  0  0  0
    6.4120   -3.8490   26.7290 N   0  0  0  0  0  0  0  0  0  0  0  0
    4.2710   -3.9130   25.7710 O   0  0  0  0  0  0  0  0  0  0  0  0
    6.3070   -4.8920   27.7570 C   0  0  0  0  0  0  0  0  0  0  0  0
    6.5750   -2.4260   27.1510 C   0  0  0  0  0  0  0  0  0  0  0  0
    7.1550   -4.8430   28.8230 C   0  0  0  0  0  0  0  0  0  0  0  0
    6.3030   -6.1260   27.1940 C   0  0  0  0  0  0  0  0  0  0  0  0
  1  2  1  0
  2  3  1  0
  1  4  1  0
  4  5  2  0
  6  4  1  6
  6  7  1  0
  6  8  1  0
  3  9  2  0
  3 10  1  0
  9 11  1  0
  7 12  1  0
  7 13  1  0
  8 14  2  0
  8 15  1  0
  7 16  1  1
 10 17  2  0
  9 18  1  0
 18 19  1  0
 12 20  2  0
 11 21  1  0
 11 22  1  0
 11 23  1  0
 15 24  2  0
 14 25  1  0
 16 26  2  0
 16 27  1  0
 17 28  1  0
 18 28  2  0
 12 29  1  0
 13 30  1  0
 29 30  1  0
 19 31  1  0
 29 32  1  6
 24 33  1  0
 25 33  2  0
 26 34  1  0
 27 35  2  0
 30 36  1  0
 29 37  1  0
 34 38  2  0
 35 38  1  0
 36 39  1  0
 37 40  1  0
 39 40  1  0
 38 41  1  0
 39 42  1  1
 41 43  1  0
 41 44  1  0
 41 45  1  0
 42 46  1  0
 42 47  2  0
 46 48  1  0
 46 49  1  0
 48 50  1  0
 48 51  1  0
M  END
