x3110-x0731-x0946
     RDKit          3D

 55 60  0  0  0  0  0  0  0  0999 V2000
    7.8700    1.3330   23.5570 N   0  0  0  0  0  0  0  0  0  0  0  0
    8.6130    2.5630   23.8080 C   0  0  0  0  0  0  0  0  0  0  0  0
   10.1070    2.5500   23.4890 C   0  0  0  0  0  0  0  0  0  0  0  0
    7.6240    0.8020   22.2280 C   0  0  0  0  0  0  0  0  0  0  0  0
    8.4010    1.1540   21.3170 O   0  0  0  0  0  0  0  0  0  0  0  0
    6.4280   -0.1520   21.9240 C   0  0  2  0  0  0  0  0  0  0  0  0
    6.7870   -1.6060   22.2520 C   0  0  2  0  0  0  0  0  0  0  0  0
    6.0550    0.2440   20.4850 C   0  0  0  0  0  0  0  0  0  0  0  0
   10.9160    3.7110   23.4140 C   0  0  0  0  0  0  0  0  0  0  0  0
   10.6860    1.3060   23.2520 C   0  0  0  0  0  0  0  0  0  0  0  0
   10.3310    5.1290   23.6600 C   0  0  0  0  0  0  0  0  0  0  0  0
    6.0750   -2.7120   21.3940 C   0  0  0  0  0  0  0  0  0  0  0  0
    6.2560   -2.4200   23.4800 C   0  0  0  0  0  0  0  0  0  0  0  0
    4.9290    1.0380   20.2690 C   0  0  0  0  0  0  0  0  0  0  0  0
    6.7990   -0.1310   19.3560 C   0  0  0  0  0  0  0  0  0  0  0  0
    8.2960   -1.6680   22.6440 C   0  0  0  0  0  0  0  0  0  0  0  0
   12.0110    1.1240   22.9430 C   0  0  0  0  0  0  0  0  0  0  0  0
   12.2530    3.5120   23.1050 C   0  0  0  0  0  0  0  0  0  0  0  0
   13.2260    4.6540   23.0030 C   0  0  0  0  0  0  0  0  0  0  0  0
    4.8230   -2.9580   21.0570 O   0  0  0  0  0  0  0  0  0  0  0  0
    7.0700   -3.6810   21.0790 C   0  0  2  0  0  0  0  0  0  0  0  0
    9.1130    5.2860   22.8920 N   0  0  0  0  0  0  0  0  0  0  0  0
   11.1840    5.9780   23.3940 O   0  0  0  0  0  0  0  0  0  0  0  0
   10.3430    5.4450   24.8270 O   0  0  0  0  0  0  0  0  0  0  0  0
    6.4700    0.2670   17.9730 N   0  0  0  0  0  0  0  0  0  0  0  0
    4.4990    1.4870   19.0270 C   0  0  0  0  0  0  0  0  0  0  0  0
    9.4030   -1.9550   21.8320 C   0  0  0  0  0  0  0  0  0  0  0  0
    8.6130   -1.4110   23.9850 C   0  0  0  0  0  0  0  0  0  0  0  0
   12.8090    2.2450   22.8700 C   0  0  0  0  0  0  0  0  0  0  0  0
    7.0800   -3.7820   23.4580 C   0  0  2  0  0  0  0  0  0  0  0  0
   13.1300    5.4440   21.7510 C   0  0  0  0  0  0  0  0  0  0  0  0
    6.8280   -4.1960   19.7640 C   0  0  0  0  0  0  0  0  0  0  0  0
    5.2390    1.1220   17.9270 C   0  0  0  0  0  0  0  0  0  0  0  0
   10.7960   -2.0140   22.2590 C   0  0  0  0  0  0  0  0  0  0  0  0
    9.9140   -1.4560   24.4270 C   0  0  0  0  0  0  0  0  0  0  0  0
    6.9350   -4.5360   22.2180 N   0  0  0  0  0  0  0  0  0  0  0  0
    6.7790   -4.5690   24.4770 C   0  0  0  0  0  0  0  0  0  0  0  0
   11.0630   -1.7710   23.5560 C   0  0  0  0  0  0  0  0  0  0  0  0
    5.4420   -5.1270   24.3460 N   0  0  0  0  0  0  0  0  0  0  0  0
    6.4410   -5.9550   22.2580 C   0  0  0  0  0  0  0  0  0  0  0  0
   12.5020   -1.8130   24.1150 C   0  0  0  0  0  0  0  0  0  0  0  0
    4.9130   -5.4910   25.9070 S   0  0  0  0  0  0  0  0  0  0  0  0
    5.3070   -6.1040   23.3270 C   0  0  0  0  0  0  0  0  0  0  0  0
   12.7020   -0.6690   24.8640 C   0  0  0  0  0  0  0  0  0  0  0  0
   13.4510   -1.9700   22.9140 C   0  0  0  0  0  0  0  0  0  0  0  0
   12.8290   -2.9760   25.0480 C   0  0  0  0  0  0  0  0  0  0  0  0
    5.7870   -5.2950   27.0460 O   0  0  0  0  0  0  0  0  0  0  0  0
    4.1360   -6.7040   25.8020 O   0  0  0  0  0  0  0  0  0  0  0  0
    3.7920   -4.1290   25.9590 C   0  0  0  0  0  0  0  0  0  0  0  0
    2.5080   -4.2640   25.4480 C   0  0  0  0  0  0  0  0  0  0  0  0
    4.1370   -2.8930   26.4890 C   0  0  0  0  0  0  0  0  0  0  0  0
    1.5550   -3.2530   25.4390 C   0  0  0  0  0  0  0  0  0  0  0  0
    3.2160   -1.8590   26.4990 C   0  0  0  0  0  0  0  0  0  0  0  0
    1.9190   -2.0130   25.9840 C   0  0  0  0  0  0  0  0  0  0  0  0
    0.9410   -0.8800   26.0130 C   0  0  0  0  0  0  0  0  0  0  0  0
  1  2  1  0
  2  3  1  0
  1  4  1  0
  4  5  2  0
  6  4  1  6
  6  7  1  0
  6  8  1  0
  3  9  2  0
  3 10  1  0
  9 11  1  0
  7 12  1  0
  7 13  1  0
  8 14  2  0
  8 15  1  0
  7 16  1  1
 10 17  2  0
  9 18  1  0
 18 19  1  0
 12 20  2  0
 12 21  1  0
 11 22  1  0
 11 23  1  0
 11 24  1  0
 15 25  2  0
 14 26  1  0
 16 27  2  0
 16 28  1  0
 17 29  1  0
 18 29  2  0
 30 13  1  6
 19 31  1  0
 21 32  1  6
 25 33  1  0
 26 33  2  0
 27 34  1  0
 28 35  2  0
 21 36  1  0
 30 36  1  0
 30 37  1  0
 34 38  2  0
 35 38  1  0
 37 39  1  0
 36 40  1  0
 38 41  1  0
 39 42  1  0
 39 43  1  0
 40 43  1  0
 41 44  1  0
 41 45  1  0
 41 46  1  0
 42 47  2  0
 42 48  2  0
 42 49  1  0
 49 50  2  0
 49 51  1  0
 50 52  1  0
 51 53  2  0
 52 54  2  0
 53 54  1  0
 54 55  1  0
M  END
