x3117-x0981
     RDKit          3D

 43 45  0  0  0  0  0  0  0  0999 V2000
    6.8700   -1.7410   21.9890 N   0  0  0  0  0  0  0  0  0  0  0  0
    5.9570   -2.9380   21.6960 C   0  0  0  0  0  0  0  0  0  0  0  0
    4.7010   -2.9590   21.4030 O   0  0  0  0  0  0  0  0  0  0  0  0
    6.6300   -0.3200   21.8030 C   0  0  1  0  0  0  0  0  0  0  0  0
    8.2350   -1.7970   22.5310 C   0  0  0  0  0  0  0  0  0  0  0  0
    6.3800   -4.4370   21.6240 C   0  0  2  0  0  0  0  0  0  0  0  0
    7.8680    0.6260   22.1090 C   0  0  0  0  0  0  0  0  0  0  0  0
    6.0800    0.1290   20.4730 C   0  0  0  0  0  0  0  0  0  0  0  0
    9.3090   -2.1440   21.7260 C   0  0  0  0  0  0  0  0  0  0  0  0
    8.5110   -1.4890   23.7850 C   0  0  0  0  0  0  0  0  0  0  0  0
    6.4070   -4.8340   20.1490 C   0  0  0  0  0  0  0  0  0  0  0  0
    7.5070    1.7380   23.0730 N   0  0  0  0  0  0  0  0  0  0  0  0
    8.9980    0.5340   21.6100 O   0  0  0  0  0  0  0  0  0  0  0  0
    5.3980   -5.4200   22.2710 N   0  0  0  0  0  0  0  0  0  0  0  0
    4.8380    0.9650   20.2730 C   0  0  0  0  0  0  0  0  0  0  0  0
    6.7300   -0.1660   19.0990 C   0  0  0  0  0  0  0  0  0  0  0  0
   10.7190   -2.1670   22.2220 C   0  0  0  0  0  0  0  0  0  0  0  0
    9.7910   -1.4760   24.3440 C   0  0  0  0  0  0  0  0  0  0  0  0
    4.5900   -5.1840   23.4060 C   0  0  0  0  0  0  0  0  0  0  0  0
    6.2910    0.2490   17.8870 N   0  0  0  0  0  0  0  0  0  0  0  0
    4.3940    1.3990   18.9130 C   0  0  0  0  0  0  0  0  0  0  0  0
    8.2840    2.8840   23.4640 C   0  0  0  0  0  0  0  0  0  0  0  0
   10.9030   -1.8120   23.5670 C   0  0  0  0  0  0  0  0  0  0  0  0
   12.3680   -1.7820   24.1820 C   0  0  0  0  0  0  0  0  0  0  0  0
    3.1470   -5.8970   23.5500 C   0  0  1  0  0  0  0  0  0  0  0  0
    4.9820   -4.4270   24.2840 O   0  0  0  0  0  0  0  0  0  0  0  0
    5.1680    1.0030   17.8520 C   0  0  0  0  0  0  0  0  0  0  0  0
    9.7430    2.5690   23.7210 C   0  0  0  0  0  0  0  0  0  0  0  0
    8.0550    3.9570   22.4100 C   0  0  0  0  0  0  0  0  0  0  0  0
   12.4100   -0.5460   25.0490 C   0  0  0  0  0  0  0  0  0  0  0  0
   13.3320   -1.8510   23.0480 C   0  0  0  0  0  0  0  0  0  0  0  0
   12.8140   -2.9890   25.0620 C   0  0  0  0  0  0  0  0  0  0  0  0
    2.9330   -6.9150   22.7140 N   0  0  0  0  0  0  0  0  0  0  0  0
    2.9890   -6.1700   24.9130 C   0  0  0  0  0  0  0  0  0  0  0  0
   10.5090    3.7260   23.5240 C   0  0  0  0  0  0  0  0  0  0  0  0
    8.3710    4.7040   23.7130 C   0  0  0  0  0  0  0  0  0  0  0  0
    1.6300   -7.2230   22.3000 C   0  0  0  0  0  0  0  0  0  0  0  0
    3.1630   -7.5180   25.2080 C   0  0  0  0  0  0  0  0  0  0  0  0
    9.7780    4.8770   23.8900 O   0  0  0  0  0  0  0  0  0  0  0  0
    1.4050   -8.5850   21.6060 C   0  0  0  0  0  0  0  0  0  0  0  0
    0.5150   -6.3180   22.4590 O   0  0  0  0  0  0  0  0  0  0  0  0
    2.4810   -8.1450   26.1510 N   0  0  0  0  0  0  0  0  0  0  0  0
    3.9950   -8.1370   24.5730 O   0  0  0  0  0  0  0  0  0  0  0  0
  1  2  1  0
  2  3  2  0
  1  4  1  0
  1  5  1  0
  2  6  1  0
  4  7  1  6
  4  8  1  0
  5  9  2  0
  5 10  1  0
  6 11  1  6
  7 12  1  0
  7 13  2  0
  6 14  1  0
  8 15  2  0
  8 16  1  0
  9 17  1  0
 10 18  2  0
 14 19  1  0
 16 20  2  0
 15 21  1  0
 12 22  1  0
 17 23  2  0
 18 23  1  0
 23 24  1  0
 19 25  1  0
 19 26  2  0
 20 27  1  0
 21 27  2  0
 22 28  1  0
 22 29  1  0
 24 30  1  0
 24 31  1  0
 24 32  1  0
 25 33  1  0
 25 34  1  1
 28 35  1  0
 29 36  1  0
 33 37  1  0
 34 38  1  0
 35 39  1  0
 36 39  1  0
 37 40  1  0
 37 41  2  0
 38 42  1  0
 38 43  2  0
M  END
