x3113-x0752
     RDKit          3D

 39 42  0  0  0  0  0  0  0  0999 V2000
    7.1100   -1.6640   21.7380 N   0  0  0  0  0  0  0  0  0  0  0  0
    6.1920   -2.8370   21.4560 C   0  0  0  0  0  0  0  0  0  0  0  0
    4.9270   -3.0320   20.9570 O   0  0  0  0  0  0  0  0  0  0  0  0
    6.7490   -0.1990   21.6190 C   0  0  1  0  0  0  0  0  0  0  0  0
    8.4060   -1.7550   22.4280 C   0  0  0  0  0  0  0  0  0  0  0  0
    6.7560   -4.1410   21.8880 C   0  0  2  0  0  0  0  0  0  0  0  0
    7.8410    0.7480   21.8520 C   0  0  0  0  0  0  0  0  0  0  0  0
    6.1730    0.2800   20.3090 C   0  0  0  0  0  0  0  0  0  0  0  0
    9.5140   -2.2100   21.7330 C   0  0  0  0  0  0  0  0  0  0  0  0
    8.5920   -1.3660   23.7710 C   0  0  0  0  0  0  0  0  0  0  0  0
    6.8370   -5.0000   20.6110 C   0  0  0  0  0  0  0  0  0  0  0  0
    8.0630    1.1980   23.1260 N   0  0  0  0  0  0  0  0  0  0  0  0
    8.5540    1.2000   20.9460 O   0  0  0  0  0  0  0  0  0  0  0  0
    5.0280    1.0970   20.1750 C   0  0  0  0  0  0  0  0  0  0  0  0
    6.8520   -0.1040   19.1450 C   0  0  0  0  0  0  0  0  0  0  0  0
   10.7610   -2.2530   22.3010 C   0  0  0  0  0  0  0  0  0  0  0  0
    9.9140   -1.4440   24.2810 C   0  0  0  0  0  0  0  0  0  0  0  0
    5.7100   -4.1880   22.9640 C   0  0  0  0  0  0  0  0  0  0  0  0
    9.0510    2.1360   23.2860 C   0  0  0  0  0  0  0  0  0  0  0  0
    6.3800    0.3550   17.8260 N   0  0  0  0  0  0  0  0  0  0  0  0
    4.5390    1.5540   18.9620 C   0  0  0  0  0  0  0  0  0  0  0  0
   11.0400   -1.8690   23.5840 C   0  0  0  0  0  0  0  0  0  0  0  0
    4.5720   -4.9960   23.0800 C   0  0  0  0  0  0  0  0  0  0  0  0
    5.9610   -3.1910   23.9500 C   0  0  0  0  0  0  0  0  0  0  0  0
   10.3840    1.7480   23.1790 C   0  0  0  0  0  0  0  0  0  0  0  0
   12.4790   -1.8990   24.1390 C   0  0  0  0  0  0  0  0  0  0  0  0
    5.1930    1.2020   17.8220 C   0  0  0  0  0  0  0  0  0  0  0  0
    3.6550   -4.8470   24.1070 C   0  0  0  0  0  0  0  0  0  0  0  0
    4.9880   -2.9990   25.0890 C   0  0  0  0  0  0  0  0  0  0  0  0
   11.2930    2.7850   23.4650 C   0  0  0  0  0  0  0  0  0  0  0  0
   13.4120   -2.0250   23.1380 C   0  0  0  0  0  0  0  0  0  0  0  0
   12.7940   -3.0580   25.0730 C   0  0  0  0  0  0  0  0  0  0  0  0
   12.6610   -0.6970   24.8740 C   0  0  0  0  0  0  0  0  0  0  0  0
    3.8060   -3.8900   25.1000 C   0  0  0  0  0  0  0  0  0  0  0  0
    2.5020   -5.5610   24.3020 O   0  0  0  0  0  0  0  0  0  0  0  0
   11.6040    3.6000   22.4020 O   0  0  0  0  0  0  0  0  0  0  0  0
    2.7920   -3.8940   25.9970 O   0  0  0  0  0  0  0  0  0  0  0  0
    1.8520   -4.6880   25.2580 C   0  0  0  0  0  0  0  0  0  0  0  0
   12.8010    4.3630   22.5900 C   0  0  0  0  0  0  0  0  0  0  0  0
  1  2  1  0
  2  3  2  0
  1  4  1  0
  1  5  1  0
  2  6  1  0
  4  7  1  6
  4  8  1  0
  5  9  2  0
  5 10  1  0
  6 11  1  6
  7 12  1  0
  7 13  2  0
  8 14  2  0
  8 15  1  0
  9 16  1  0
 10 17  2  0
  6 18  1  0
 12 19  1  0
 15 20  2  0
 14 21  1  0
 16 22  2  0
 17 22  1  0
 18 23  2  0
 18 24  1  0
 19 25  1  0
 22 26  1  0
 20 27  1  0
 21 27  2  0
 23 28  1  0
 24 29  2  0
 25 30  1  0
 26 31  1  0
 26 32  1  0
 26 33  1  0
 28 34  2  0
 29 34  1  0
 28 35  1  0
 30 36  1  0
 34 37  1  0
 35 38  1  0
 37 38  1  0
 36 39  1  0
M  END
