x3110-x0981-x2193
     RDKit          3D

 51 53  0  0  0  0  0  0  0  0999 V2000
    7.1420    0.6780   23.8050 N   0  0  0  0  0  0  0  0  0  0  0  0
    7.9680    1.7810   24.4070 C   0  0  0  0  0  0  0  0  0  0  0  0
    9.5290    1.7010   24.1700 C   0  0  0  0  0  0  0  0  0  0  0  0
    7.1270    0.4110   22.3560 C   0  0  0  0  0  0  0  0  0  0  0  0
    7.7850    1.1260   21.5840 O   0  0  0  0  0  0  0  0  0  0  0  0
    6.2440   -0.8020   21.8140 C   0  0  2  0  0  0  0  0  0  0  0  0
    6.7940   -2.1330   21.7570 N   0  0  0  0  0  0  0  0  0  0  0  0
   10.1280    2.8660   23.5510 C   0  0  0  0  0  0  0  0  0  0  0  0
    5.7100   -0.2340   20.5060 C   0  0  0  0  0  0  0  0  0  0  0  0
   10.5970    2.7240   22.3940 O   0  0  0  0  0  0  0  0  0  0  0  0
   10.0920    3.8690   24.2900 O   0  0  0  0  0  0  0  0  0  0  0  0
    5.9600   -3.1030   20.9510 C   0  0  0  0  0  0  0  0  0  0  0  0
    4.5100    0.3560   20.1470 C   0  0  0  0  0  0  0  0  0  0  0  0
    6.4530   -0.1420   19.1250 C   0  0  0  0  0  0  0  0  0  0  0  0
    8.2010   -2.1700   22.2380 C   0  0  0  0  0  0  0  0  0  0  0  0
   11.3210    3.8280   21.7590 C   0  0  0  0  0  0  0  0  0  0  0  0
    5.2830   -3.9580   20.3090 O   0  0  0  0  0  0  0  0  0  0  0  0
    6.4310   -4.5000   21.6980 C   0  0  2  0  0  0  0  0  0  0  0  0
    6.0160    0.4200   17.8180 N   0  0  0  0  0  0  0  0  0  0  0  0
    3.9950    0.9450   18.8530 C   0  0  0  0  0  0  0  0  0  0  0  0
    9.1430   -1.9430   21.1880 C   0  0  0  0  0  0  0  0  0  0  0  0
    8.2830   -2.4020   23.6400 C   0  0  0  0  0  0  0  0  0  0  0  0
   12.8300    3.8890   22.2740 C   0  0  0  0  0  0  0  0  0  0  0  0
    7.8080   -5.1720   21.2200 C   0  0  0  0  0  0  0  0  0  0  0  0
    5.3390   -5.5820   21.7030 N   0  0  0  0  0  0  0  0  0  0  0  0
    4.6860    1.0210   17.6490 C   0  0  0  0  0  0  0  0  0  0  0  0
   10.5710   -1.8700   21.4300 C   0  0  0  0  0  0  0  0  0  0  0  0
    9.8720   -2.2800   23.7440 C   0  0  0  0  0  0  0  0  0  0  0  0
    8.3750   -2.6600   25.1970 C   0  0  0  0  0  0  0  0  0  0  0  0
    4.9180   -6.2480   22.8350 C   0  0  0  0  0  0  0  0  0  0  0  0
   10.9110   -2.0330   22.7640 C   0  0  0  0  0  0  0  0  0  0  0  0
    8.6110   -4.0240   25.8390 N   0  0  0  0  0  0  0  0  0  0  0  0
   12.4780   -1.9410   23.2470 C   0  0  0  0  0  0  0  0  0  0  0  0
    3.5500   -6.2680   23.0830 C   0  0  1  0  0  0  0  0  0  0  0  0
    5.7540   -6.8110   23.5550 O   0  0  0  0  0  0  0  0  0  0  0  0
    9.0480   -3.9460   27.2680 C   0  0  0  0  0  0  0  0  0  0  0  0
    9.1880   -5.1900   25.0850 C   0  0  0  0  0  0  0  0  0  0  0  0
   13.4050   -1.4840   22.1370 C   0  0  0  0  0  0  0  0  0  0  0  0
   12.7590   -0.5140   23.8760 C   0  0  0  0  0  0  0  0  0  0  0  0
   13.0400   -3.0470   24.1850 C   0  0  0  0  0  0  0  0  0  0  0  0
    3.0040   -7.6640   22.9410 N   0  0  0  0  0  0  0  0  0  0  0  0
    3.3990   -5.7200   24.4190 C   0  0  0  0  0  0  0  0  0  0  0  0
    9.4170   -5.2390   27.9410 C   0  0  0  0  0  0  0  0  0  0  0  0
    9.2610   -6.3720   25.8450 C   0  0  0  0  0  0  0  0  0  0  0  0
    1.8850   -7.7620   22.1520 C   0  0  0  0  0  0  0  0  0  0  0  0
    3.4370   -6.7810   25.5790 C   0  0  0  0  0  0  0  0  0  0  0  0
    9.9390   -6.2450   27.0290 N   0  0  0  0  0  0  0  0  0  0  0  0
    1.8470   -8.6550   20.9210 C   0  0  0  0  0  0  0  0  0  0  0  0
    0.8930   -7.1050   22.4980 O   0  0  0  0  0  0  0  0  0  0  0  0
    2.9990   -6.3170   26.7570 N   0  0  0  0  0  0  0  0  0  0  0  0
    3.9070   -8.1240   25.3790 O   0  0  0  0  0  0  0  0  0  0  0  0
  1  2  1  0
  2  3  1  0
  1  4  1  0
  4  5  2  0
  6  4  1  6
  6  7  1  0
  3  8  1  0
  6  9  1  0
  8 10  1  0
  8 11  2  0
  7 12  1  0
  9 13  2  0
  9 14  1  0
  7 15  1  0
 10 16  1  0
 12 17  2  0
 12 18  1  0
 14 19  2  0
 13 20  1  0
 15 21  2  0
 15 22  1  0
 16 23  1  0
 18 24  1  6
 18 25  1  0
 19 26  1  0
 20 26  2  0
 21 27  1  0
 22 28  2  0
 22 29  1  0
 25 30  1  0
 27 31  2  0
 28 31  1  0
 29 32  1  0
 31 33  1  0
 30 34  1  0
 30 35  2  0
 32 36  1  0
 32 37  1  0
 33 38  1  0
 33 39  1  0
 33 40  1  0
 34 41  1  0
 34 42  1  1
 36 43  1  0
 37 44  1  0
 41 45  1  0
 42 46  1  0
 43 47  1  0
 44 47  1  0
 45 48  1  0
 45 49  2  0
 46 50  1  0
 46 51  2  0
M  END
