x3117-x1402-x1374
     RDKit          3D

 56 61  0  0  0  0  0  0  0  0999 V2000
    6.6990   -1.1550   22.1130 N   0  0  0  0  0  0  0  0  0  0  0  0
    6.0920   -2.3390   21.4210 C   0  0  0  0  0  0  0  0  0  0  0  0
    4.8160   -2.9670   21.2510 O   0  0  0  0  0  0  0  0  0  0  0  0
    6.4910    0.1930   21.7530 C   0  0  1  0  0  0  0  0  0  0  0  0
    8.0470   -1.2660   22.6240 C   0  0  0  0  0  0  0  0  0  0  0  0
    7.2960   -2.9380   20.8540 C   0  0  2  0  0  0  0  0  0  0  0  0
    7.6440    1.0430   21.8990 C   0  0  0  0  0  0  0  0  0  0  0  0
    6.0060    0.4540   20.3930 C   0  0  0  0  0  0  0  0  0  0  0  0
    9.0650   -1.3410   21.6560 C   0  0  0  0  0  0  0  0  0  0  0  0
    8.4680   -1.2950   23.9680 C   0  0  0  0  0  0  0  0  0  0  0  0
    6.9760   -3.5650   19.5270 C   0  0  0  0  0  0  0  0  0  0  0  0
    7.5310    2.1100   22.9540 N   0  0  0  0  0  0  0  0  0  0  0  0
    8.5660    0.8550   21.1250 O   0  0  0  0  0  0  0  0  0  0  0  0
    4.8480    1.1860   20.2280 C   0  0  0  0  0  0  0  0  0  0  0  0
    6.6870    0.0130   19.2450 C   0  0  0  0  0  0  0  0  0  0  0  0
   10.4270   -1.4490   22.0260 C   0  0  0  0  0  0  0  0  0  0  0  0
    9.8460   -1.3930   24.3010 C   0  0  0  0  0  0  0  0  0  0  0  0
    7.8020   -3.8820   21.9150 C   0  0  0  0  0  0  0  0  0  0  0  0
    6.2890    0.2690   17.9700 N   0  0  0  0  0  0  0  0  0  0  0  0
    4.3550    1.5010   19.0070 C   0  0  0  0  0  0  0  0  0  0  0  0
    8.5140    3.2260   22.7820 C   0  0  0  0  0  0  0  0  0  0  0  0
   10.8410   -1.4780   23.3510 C   0  0  0  0  0  0  0  0  0  0  0  0
    8.8620   -3.8630   22.8580 C   0  0  0  0  0  0  0  0  0  0  0  0
    6.9500   -5.0730   21.9270 C   0  0  0  0  0  0  0  0  0  0  0  0
   12.3220   -1.5910   23.6970 C   0  0  0  0  0  0  0  0  0  0  0  0
    5.1140    1.0260   17.8050 C   0  0  0  0  0  0  0  0  0  0  0  0
    9.4480    3.0990   23.8250 C   0  0  0  0  0  0  0  0  0  0  0  0
    7.7740    4.5660   22.9600 C   0  0  0  0  0  0  0  0  0  0  0  0
    9.0640   -4.9120   23.7350 C   0  0  0  0  0  0  0  0  0  0  0  0
    7.1940   -6.0200   22.7690 C   0  0  0  0  0  0  0  0  0  0  0  0
   12.9120   -0.2510   23.9620 C   0  0  0  0  0  0  0  0  0  0  0  0
   13.1430   -2.1040   22.5280 C   0  0  0  0  0  0  0  0  0  0  0  0
   12.5410   -2.4380   24.7530 C   0  0  0  0  0  0  0  0  0  0  0  0
   10.0970   -5.1120   24.7690 C   0  0  0  0  0  0  0  0  0  0  0  0
   10.3940    4.1340   23.8780 C   0  0  0  0  0  0  0  0  0  0  0  0
    8.7410    5.5710   23.1230 C   0  0  0  0  0  0  0  0  0  0  0  0
    8.2220   -5.9470   23.6590 C   0  0  0  0  0  0  0  0  0  0  0  0
    6.2500   -7.0860   22.6400 C   0  0  0  0  0  0  0  0  0  0  0  0
    9.7820    5.3960   24.0800 O   0  0  0  0  0  0  0  0  0  0  0  0
    5.4010   -6.7600   23.8010 C   0  0  0  0  0  0  0  0  0  0  0  0
    4.5230   -5.5870   23.7030 C   0  0  2  0  0  0  0  0  0  0  0  0
    4.1480   -5.6770   25.0270 C   0  0  0  0  0  0  0  0  0  0  0  0
    3.4350   -6.0950   22.8660 C   0  0  0  0  0  0  0  0  0  0  0  0
    5.0240   -4.8490   26.3300 S   0  0  0  0  0  0  0  0  0  0  0  0
    2.5580   -7.1760   24.0050 S   0  0  0  0  0  0  0  0  0  0  0  0
    3.1260   -6.4470   25.3780 C   0  0  0  0  0  0  0  0  0  0  0  0
    1.1600   -6.9240   23.7800 O   0  0  0  0  0  0  0  0  0  0  0  0
    3.1250   -8.4860   23.8910 O   0  0  0  0  0  0  0  0  0  0  0  0
    4.6420   -5.5730   27.5080 O   0  0  0  0  0  0  0  0  0  0  0  0
    6.4090   -4.5980   26.0380 O   0  0  0  0  0  0  0  0  0  0  0  0
    4.0760   -3.3800   26.2690 C   0  0  0  0  0  0  0  0  0  0  0  0
    2.3600   -3.4550   26.1150 S   0  0  0  0  0  0  0  0  0  0  0  0
    4.5100   -2.0940   26.3230 C   0  0  0  0  0  0  0  0  0  0  0  0
    3.3760   -1.1220   26.2390 C   0  0  0  0  0  0  0  0  0  0  0  0
    2.1930   -1.7560   26.1300 C   0  0  0  0  0  0  0  0  0  0  0  0
    0.6340   -1.0590   26.0160 Cl  0  0  0  0  0  0  0  0  0  0  0  0
  1  2  1  0
  2  3  2  0
  1  4  1  0
  1  5  1  0
  2  6  1  0
  4  7  1  6
  4  8  1  0
  5  9  2  0
  5 10  1  0
  6 11  1  6
  7 12  1  0
  7 13  2  0
  8 14  2  0
  8 15  1  0
  9 16  1  0
 10 17  2  0
  6 18  1  0
 15 19  2  0
 14 20  1  0
 12 21  1  0
 16 22  2  0
 17 22  1  0
 18 23  2  0
 18 24  1  0
 22 25  1  0
 19 26  1  0
 20 26  2  0
 21 27  1  0
 21 28  1  0
 23 29  1  0
 24 30  2  0
 25 31  1  0
 25 32  1  0
 25 33  1  0
 29 34  1  0
 27 35  1  0
 28 36  1  0
 29 37  2  0
 30 37  1  0
 30 38  1  0
 35 39  1  0
 36 39  1  0
 38 40  1  0
 41 40  1  1
 41 42  1  0
 41 43  1  0
 44 42  1  0
 43 45  1  0
 42 46  2  0
 45 46  1  0
 45 47  1  0
 45 48  1  0
 44 49  2  0
 44 50  2  0
 44 51  1  0
 51 52  1  0
 51 53  2  0
 53 54  1  0
 52 55  1  0
 54 55  2  0
 55 56  1  0
M  END
