x3117-x2643
     RDKit          3D

 33 35  0  0  0  0  0  0  0  0999 V2000
    6.8260   -1.5480   21.8990 N   0  0  0  0  0  0  0  0  0  0  0  0
    6.0420   -2.7820   21.6290 C   0  0  0  0  0  0  0  0  0  0  0  0
    4.7920   -3.0010   21.2900 O   0  0  0  0  0  0  0  0  0  0  0  0
    6.5390   -0.1680   21.6810 C   0  0  1  0  0  0  0  0  0  0  0  0
    8.1730   -1.6590   22.5610 C   0  0  0  0  0  0  0  0  0  0  0  0
    6.7950   -4.1030   21.7610 C   0  0  0  0  0  0  0  0  0  0  0  0
    7.8250    0.7190   21.8780 C   0  0  0  0  0  0  0  0  0  0  0  0
    6.0270    0.2640   20.3350 C   0  0  0  0  0  0  0  0  0  0  0  0
    9.3390   -2.1490   21.7600 C   0  0  0  0  0  0  0  0  0  0  0  0
    8.3240   -1.2750   23.9440 C   0  0  0  0  0  0  0  0  0  0  0  0
    6.7190   -4.8710   20.4430 C   0  0  0  0  0  0  0  0  0  0  0  0
    7.5350    1.9580   22.6770 N   0  0  0  0  0  0  0  0  0  0  0  0
    8.9480    0.4810   21.4220 O   0  0  0  0  0  0  0  0  0  0  0  0
    4.9180    1.0240   20.2780 C   0  0  0  0  0  0  0  0  0  0  0  0
    6.6960   -0.0900   19.1530 C   0  0  0  0  0  0  0  0  0  0  0  0
   10.7790   -2.3130   22.2230 C   0  0  0  0  0  0  0  0  0  0  0  0
    9.5150   -1.3630   24.4600 C   0  0  0  0  0  0  0  0  0  0  0  0
    6.3110    0.3040   17.7980 N   0  0  0  0  0  0  0  0  0  0  0  0
    4.4160    1.4830   19.0960 C   0  0  0  0  0  0  0  0  0  0  0  0
    8.2740    3.2370   22.4010 C   0  0  0  0  0  0  0  0  0  0  0  0
   10.6740   -1.8620   23.5940 C   0  0  0  0  0  0  0  0  0  0  0  0
   11.9940   -1.8730   24.3750 C   0  0  0  0  0  0  0  0  0  0  0  0
    5.1480    1.1060   17.8350 C   0  0  0  0  0  0  0  0  0  0  0  0
    9.6220    2.9550   22.5800 C   0  0  0  0  0  0  0  0  0  0  0  0
    7.6780    4.2790   23.1100 C   0  0  0  0  0  0  0  0  0  0  0  0
   12.0730   -0.6080   25.2150 C   0  0  0  0  0  0  0  0  0  0  0  0
   13.1110   -2.0960   23.4070 C   0  0  0  0  0  0  0  0  0  0  0  0
   11.9200   -3.1700   25.2550 C   0  0  0  0  0  0  0  0  0  0  0  0
   10.5270    4.1670   22.7910 C   0  0  0  0  0  0  0  0  0  0  0  0
    8.5220    5.5410   22.8930 C   0  0  0  0  0  0  0  0  0  0  0  0
    9.8090    5.2280   23.4420 O   0  0  0  0  0  0  0  0  0  0  0  0
   13.1300   -1.0700   22.2740 C   0  0  0  0  0  0  0  0  0  0  0  0
   13.1910    0.5210   22.8940 Cl  0  0  0  0  0  0  0  0  0  0  0  0
  1  2  1  0
  2  3  2  0
  1  4  1  0
  1  5  1  0
  2  6  1  0
  4  7  1  6
  4  8  1  0
  5  9  2  0
  5 10  1  0
  6 11  1  0
  7 12  1  0
  7 13  2  0
  8 14  2  0
  8 15  1  0
  9 16  1  0
 10 17  2  0
 15 18  2  0
 14 19  1  0
 12 20  1  0
 16 21  2  0
 17 21  1  0
 21 22  1  0
 18 23  1  0
 19 23  2  0
 20 24  1  0
 20 25  1  0
 22 26  1  0
 22 27  1  0
 22 28  1  0
 24 29  1  0
 25 30  1  0
 29 31  1  0
 30 31  1  0
 27 32  1  0
 32 33  1  0
M  END
