x3113-x1425
     RDKit          3D

 44 48  0  0  0  0  0  0  0  0999 V2000
    7.1960   -1.4670   21.7240 C   0  0  1  0  0  0  0  0  0  0  0  0
    6.8890    0.0550   21.7490 C   0  0  1  0  0  0  0  0  0  0  0  0
    7.9520    0.9900   21.9550 C   0  0  0  0  0  0  0  0  0  0  0  0
    8.6400   -1.5820   22.3800 C   0  0  0  0  0  0  0  0  0  0  0  0
    6.5850   -2.7550   22.4640 C   0  0  2  0  0  0  0  0  0  0  0  0
    6.7560   -1.8870   20.2640 C   0  0  0  0  0  0  0  0  0  0  0  0
    6.0360   -3.1850   20.4310 C   0  0  0  0  0  0  0  0  0  0  0  0
    6.3260    0.5040   20.3940 C   0  0  0  0  0  0  0  0  0  0  0  0
    9.7200   -2.0640   21.7390 C   0  0  0  0  0  0  0  0  0  0  0  0
    8.7970   -1.1750   23.6990 C   0  0  0  0  0  0  0  0  0  0  0  0
    6.7040   -4.0070   21.4380 C   0  0  1  0  0  0  0  0  0  0  0  0
    5.1140   -2.6620   22.7080 C   0  0  0  0  0  0  0  0  0  0  0  0
    8.1220   -4.5010   20.9930 C   0  0  0  0  0  0  0  0  0  0  0  0
    4.9960   -3.5300   19.8830 O   0  0  0  0  0  0  0  0  0  0  0  0
    8.1370    1.4900   23.3300 N   0  0  0  0  0  0  0  0  0  0  0  0
    8.6810    1.4220   21.0560 O   0  0  0  0  0  0  0  0  0  0  0  0
    5.1300    1.2320   20.3210 C   0  0  0  0  0  0  0  0  0  0  0  0
    6.9580    0.2240   19.1710 C   0  0  0  0  0  0  0  0  0  0  0  0
   10.9340   -2.1180   22.3640 C   0  0  0  0  0  0  0  0  0  0  0  0
   10.0310   -1.2430   24.3260 C   0  0  0  0  0  0  0  0  0  0  0  0
    5.0530   -3.7050   23.7100 N   0  0  0  0  0  0  0  0  0  0  0  0
    5.7910   -5.1870   21.8540 C   0  0  0  0  0  0  0  0  0  0  0  0
    9.2400    2.4310   23.6290 C   0  0  0  0  0  0  0  0  0  0  0  0
    6.4000    0.6720   17.9070 N   0  0  0  0  0  0  0  0  0  0  0  0
    4.5310    1.6960   19.1380 C   0  0  0  0  0  0  0  0  0  0  0  0
   11.1110   -1.7360   23.5710 C   0  0  0  0  0  0  0  0  0  0  0  0
    4.5300   -3.3760   24.9270 C   0  0  0  0  0  0  0  0  0  0  0  0
    5.3240   -5.0960   23.3110 C   0  0  0  0  0  0  0  0  0  0  0  0
   10.4760    1.9570   23.2330 C   0  0  0  0  0  0  0  0  0  0  0  0
   12.5090   -1.8020   24.1810 C   0  0  0  0  0  0  0  0  0  0  0  0
    5.1840    1.4080   17.9450 C   0  0  0  0  0  0  0  0  0  0  0  0
    5.2970   -2.5450   25.7830 C   0  0  0  0  0  0  0  0  0  0  0  0
    3.2700   -3.8580   25.2650 C   0  0  0  0  0  0  0  0  0  0  0  0
   11.4480    2.9450   23.4250 C   0  0  0  0  0  0  0  0  0  0  0  0
   13.4620   -1.8520   23.1980 C   0  0  0  0  0  0  0  0  0  0  0  0
   12.7840   -3.0290   25.0450 C   0  0  0  0  0  0  0  0  0  0  0  0
   12.6720   -0.6560   24.9870 C   0  0  0  0  0  0  0  0  0  0  0  0
    4.7350   -2.1920   27.0350 C   0  0  0  0  0  0  0  0  0  0  0  0
    2.6810   -3.5490   26.4590 C   0  0  0  0  0  0  0  0  0  0  0  0
   11.7220    3.7170   22.3320 O   0  0  0  0  0  0  0  0  0  0  0  0
    3.3510   -2.7430   27.3470 C   0  0  0  0  0  0  0  0  0  0  0  0
   12.9120    4.4880   22.5020 C   0  0  0  0  0  0  0  0  0  0  0  0
    2.8130   -2.3940   28.5470 O   0  0  0  0  0  0  0  0  0  0  0  0
    1.4590   -2.2760   28.5730 C   0  0  0  0  0  0  0  0  0  0  0  0
  1  2  1  0
  2  3  1  6
  1  4  1  6
  1  5  1  0
  1  6  1  0
  6  7  1  0
  2  8  1  0
  4  9  2  0
  4 10  1  0
  5 11  1  0
  7 11  1  0
  5 12  1  6
 11 13  1  6
  7 14  2  0
  3 15  1  0
  3 16  2  0
  8 17  2  0
  8 18  1  0
  9 19  1  0
 10 20  2  0
 12 21  1  0
 11 22  1  0
 15 23  1  0
 18 24  2  0
 17 25  1  0
 19 26  2  0
 20 26  1  0
 21 27  1  0
 21 28  1  0
 22 28  1  0
 23 29  1  0
 26 30  1  0
 24 31  1  0
 25 31  2  0
 27 32  2  0
 27 33  1  0
 29 34  1  0
 30 35  1  0
 30 36  1  0
 30 37  1  0
 32 38  1  0
 33 39  2  0
 34 40  1  0
 38 41  2  0
 39 41  1  0
 40 42  1  0
 41 43  1  0
 43 44  1  0
M  END
