x3110-x1348-x0540
     RDKit          3D

 55 59  0  0  0  0  0  0  0  0999 V2000
    8.1100    1.0730   23.2060 N   0  0  0  0  0  0  0  0  0  0  0  0
    8.9340    2.1690   23.5330 C   0  0  0  0  0  0  0  0  0  0  0  0
   10.3140    1.9780   23.5230 C   0  0  0  0  0  0  0  0  0  0  0  0
    7.8020    0.7390   21.8570 C   0  0  0  0  0  0  0  0  0  0  0  0
    8.4880    1.3140   20.9870 O   0  0  0  0  0  0  0  0  0  0  0  0
    6.7190   -0.1780   21.5530 C   0  0  2  0  0  0  0  0  0  0  0  0
    7.0810   -1.5870   21.7310 N   0  0  0  0  0  0  0  0  0  0  0  0
   11.0490    3.2930   23.4240 C   0  0  0  0  0  0  0  0  0  0  0  0
    6.1760    0.2400   20.1840 C   0  0  0  0  0  0  0  0  0  0  0  0
   11.9870    3.2370   22.4480 O   0  0  0  0  0  0  0  0  0  0  0  0
   10.8350    4.2720   24.1180 O   0  0  0  0  0  0  0  0  0  0  0  0
    6.3120   -2.8510   21.5150 C   0  0  0  0  0  0  0  0  0  0  0  0
    4.9990    0.9150   20.1510 C   0  0  0  0  0  0  0  0  0  0  0  0
    6.8710   -0.0390   19.0300 C   0  0  0  0  0  0  0  0  0  0  0  0
    8.3480   -1.6720   22.4110 C   0  0  0  0  0  0  0  0  0  0  0  0
   12.4110    4.5130   21.9430 C   0  0  0  0  0  0  0  0  0  0  0  0
    5.0180   -3.2150   21.1590 O   0  0  0  0  0  0  0  0  0  0  0  0
    7.4060   -3.8700   21.8580 C   0  0  2  0  0  0  0  0  0  0  0  0
    4.1220    1.2770   21.3760 C   0  0  0  0  0  0  0  0  0  0  0  0
    6.3960    0.3790   17.8120 N   0  0  0  0  0  0  0  0  0  0  0  0
    4.4680    1.3600   18.9590 C   0  0  0  0  0  0  0  0  0  0  0  0
    9.5190   -1.4040   21.7220 C   0  0  0  0  0  0  0  0  0  0  0  0
    8.4260   -2.0210   23.7590 C   0  0  0  0  0  0  0  0  0  0  0  0
   13.3910    5.1640   22.9110 C   0  0  0  0  0  0  0  0  0  0  0  0
    7.0630   -3.9180   20.3270 C   0  0  0  0  0  0  0  0  0  0  0  0
    4.9300    2.0610   22.2210 C   0  0  0  0  0  0  0  0  0  0  0  0
    5.2250    1.0580   17.8470 C   0  0  0  0  0  0  0  0  0  0  0  0
   10.8450   -1.4580   22.2620 C   0  0  0  0  0  0  0  0  0  0  0  0
    9.8000   -2.1190   24.4860 C   0  0  0  0  0  0  0  0  0  0  0  0
    6.9990   -4.9510   22.7850 N   0  0  0  0  0  0  0  0  0  0  0  0
    4.0480    2.9440   22.9480 N   0  0  0  0  0  0  0  0  0  0  0  0
   10.9670   -1.8070   23.6070 C   0  0  0  0  0  0  0  0  0  0  0  0
    6.0660   -4.7970   23.9880 C   0  0  2  0  0  0  0  0  0  0  0  0
    6.5770   -6.0310   22.0080 C   0  0  0  0  0  0  0  0  0  0  0  0
   12.3780   -1.8610   24.2220 C   0  0  0  0  0  0  0  0  0  0  0  0
    2.8920    2.4470   23.4960 C   0  0  0  0  0  0  0  0  0  0  0  0
    6.6540   -5.4880   25.2430 C   0  0  1  0  0  0  0  0  0  0  0  0
    4.6690   -5.4060   23.6250 C   0  0  1  0  0  0  0  0  0  0  0  0
    4.9770   -6.4720   22.3680 S   0  0  0  0  0  0  0  0  0  0  0  0
   12.5520   -0.5420   24.9310 C   0  0  0  0  0  0  0  0  0  0  0  0
   13.3780   -1.9170   23.1130 C   0  0  0  0  0  0  0  0  0  0  0  0
   12.7230   -3.0010   25.1920 C   0  0  0  0  0  0  0  0  0  0  0  0
    2.8050    1.3050   24.3470 O   0  0  0  0  0  0  0  0  0  0  0  0
    1.7380    3.2540   23.0810 N   0  0  0  0  0  0  0  0  0  0  0  0
    7.5790   -4.6880   26.0150 O   0  0  0  0  0  0  0  0  0  0  0  0
    3.9500   -6.1490   24.7490 C   0  0  0  0  0  0  0  0  0  0  0  0
    5.7880   -5.9400   26.2850 C   0  0  0  0  0  0  0  0  0  0  0  0
    8.3080   -5.4660   26.8890 C   0  0  0  0  0  0  0  0  0  0  0  0
    0.6070    3.3780   23.8710 C   0  0  0  0  0  0  0  0  0  0  0  0
    4.5170   -6.3770   25.9670 C   0  0  0  0  0  0  0  0  0  0  0  0
    0.4810    4.6550   24.4870 C   0  0  0  0  0  0  0  0  0  0  0  0
   -0.6720    2.9150   23.1710 C   0  0  0  0  0  0  0  0  0  0  0  0
   -0.7310    4.8900   25.1340 C   0  0  0  0  0  0  0  0  0  0  0  0
   -1.9560    3.2690   23.9040 C   0  0  0  0  0  0  0  0  0  0  0  0
   -2.0160    4.5880   24.3490 C   0  0  0  0  0  0  0  0  0  0  0  0
  1  2  1  0
  2  3  1  0
  1  4  1  0
  4  5  2  0
  6  4  1  6
  6  7  1  0
  3  8  1  0
  6  9  1  0
  8 10  1  0
  8 11  2  0
  7 12  1  0
  9 13  1  0
  9 14  2  0
  7 15  1  0
 10 16  1  0
 12 17  2  0
 12 18  1  0
 13 19  1  0
 14 20  1  0
 13 21  2  0
 15 22  2  0
 15 23  1  0
 16 24  1  0
 18 25  1  6
 19 26  1  0
 20 27  2  0
 21 27  1  0
 22 28  1  0
 23 29  2  0
 18 30  1  0
 26 31  1  0
 28 32  2  0
 29 32  1  0
 33 30  1  6
 30 34  1  0
 32 35  1  0
 31 36  1  0
 33 37  1  0
 33 38  1  0
 34 39  2  0
 38 39  1  0
 35 40  1  0
 35 41  1  0
 35 42  1  0
 36 43  2  0
 36 44  1  0
 37 45  1  1
 38 46  1  1
 37 47  1  0
 45 48  1  0
 44 49  1  0
 46 50  2  0
 47 50  1  0
 49 51  1  0
 49 52  1  0
 51 53  1  0
 52 54  1  0
 53 55  1  0
 54 55  1  0
M  END
