x3115-x1308
     RDKit          3D

 46 50  0  0  0  0  0  0  0  0999 V2000
    6.7660   -1.5000   22.0140 C   0  0  1  0  0  0  0  0  0  0  0  0
    5.8200   -2.5180   21.1490 C   0  0  0  0  0  0  0  0  0  0  0  0
    4.6640   -2.9590   21.4480 O   0  0  0  0  0  0  0  0  0  0  0  0
    6.4030   -0.1370   21.9260 C   0  0  1  0  0  0  0  0  0  0  0  0
    6.2000   -2.6040   22.9680 C   0  0  0  0  0  0  0  0  0  0  0  0
    8.2470   -1.5910   22.3820 C   0  0  0  0  0  0  0  0  0  0  0  0
    6.2520   -3.1130   19.9120 C   0  0  0  0  0  0  0  0  0  0  0  0
    7.4730    0.8120   22.0860 C   0  0  0  0  0  0  0  0  0  0  0  0
    5.9230    0.3450   20.5170 C   0  0  0  0  0  0  0  0  0  0  0  0
    9.3140   -1.7040   21.5450 C   0  0  0  0  0  0  0  0  0  0  0  0
    8.6070   -1.5530   23.8600 C   0  0  0  0  0  0  0  0  0  0  0  0
    7.1320   -3.9920   22.8850 C   0  0  2  0  0  0  0  0  0  0  0  0
    7.3670   -3.9070   20.3750 C   0  0  0  0  0  0  0  0  0  0  0  0
    7.4020    1.6450   23.1920 N   0  0  0  0  0  0  0  0  0  0  0  0
    8.3980    0.9170   21.2690 O   0  0  0  0  0  0  0  0  0  0  0  0
    4.7220    1.1230   20.3760 C   0  0  0  0  0  0  0  0  0  0  0  0
    6.6660    0.0420   19.3520 C   0  0  0  0  0  0  0  0  0  0  0  0
   10.6390   -1.7950   21.9540 C   0  0  0  0  0  0  0  0  0  0  0  0
    9.9680   -1.6400   24.2500 C   0  0  0  0  0  0  0  0  0  0  0  0
    7.0170   -4.7800   21.5890 N   0  0  0  0  0  0  0  0  0  0  0  0
    6.9630   -4.8410   24.1260 C   0  0  0  0  0  0  0  0  0  0  0  0
    8.3060    2.8060   23.3380 C   0  0  0  0  0  0  0  0  0  0  0  0
    6.4500    0.3720   18.0530 N   0  0  0  0  0  0  0  0  0  0  0  0
    4.3700    1.5580   18.9800 C   0  0  0  0  0  0  0  0  0  0  0  0
   10.9710   -1.7680   23.3210 C   0  0  0  0  0  0  0  0  0  0  0  0
    5.6090   -5.3730   24.1610 N   0  0  0  0  0  0  0  0  0  0  0  0
    5.7750   -5.6050   21.6380 C   0  0  0  0  0  0  0  0  0  0  0  0
    7.9170    3.9940   22.4380 C   0  0  0  0  0  0  0  0  0  0  0  0
   12.4340   -1.8750   23.7550 C   0  0  0  0  0  0  0  0  0  0  0  0
    5.0320   -5.7620   25.6780 S   0  0  0  0  0  0  0  0  0  0  0  0
    5.2530    1.1750   17.8350 C   0  0  0  0  0  0  0  0  0  0  0  0
    5.2820   -6.1990   22.9960 C   0  0  0  0  0  0  0  0  0  0  0  0
    8.5440    5.0900   22.9630 O   0  0  0  0  0  0  0  0  0  0  0  0
   13.2370   -2.4440   22.5780 C   0  0  0  0  0  0  0  0  0  0  0  0
   12.6880   -2.7280   24.9300 C   0  0  0  0  0  0  0  0  0  0  0  0
   12.8830   -0.6410   24.0930 C   0  0  0  0  0  0  0  0  0  0  0  0
    6.0630   -5.5350   26.6620 O   0  0  0  0  0  0  0  0  0  0  0  0
    4.3160   -7.0120   25.6340 O   0  0  0  0  0  0  0  0  0  0  0  0
    3.8640   -4.4600   25.8970 C   0  0  0  0  0  0  0  0  0  0  0  0
    8.2290    6.2750   22.2270 C   0  0  0  0  0  0  0  0  0  0  0  0
    4.2860   -3.1930   26.3000 C   0  0  0  0  0  0  0  0  0  0  0  0
    2.3770   -4.6910   25.6510 C   0  0  0  0  0  0  0  0  0  0  0  0
    3.2600   -2.0830   26.4870 C   0  0  0  0  0  0  0  0  0  0  0  0
    1.3790   -3.5600   25.8470 C   0  0  0  0  0  0  0  0  0  0  0  0
    1.7600   -2.2760   26.2530 C   0  0  0  0  0  0  0  0  0  0  0  0
    0.6230   -1.0120   26.4720 Cl  0  0  0  0  0  0  0  0  0  0  0  0
  1  2  1  0
  2  3  2  0
  1  4  1  0
  1  5  1  0
  1  6  1  6
  2  7  1  0
  4  8  1  6
  4  9  1  0
  6 10  2  0
  6 11  1  0
 12  5  1  6
  7 13  1  0
  8 14  1  0
  8 15  2  0
  9 16  2  0
  9 17  1  0
 10 18  1  0
 11 19  2  0
 12 20  1  0
 13 20  1  0
 12 21  1  0
 14 22  1  0
 17 23  2  0
 16 24  1  0
 18 25  2  0
 19 25  1  0
 21 26  1  0
 20 27  1  0
 22 28  1  0
 25 29  1  0
 26 30  1  0
 23 31  1  0
 24 31  2  0
 26 32  1  0
 27 32  1  0
 28 33  1  0
 29 34  1  0
 29 35  1  0
 29 36  1  0
 30 37  2  0
 30 38  2  0
 30 39  1  0
 33 40  1  0
 39 41  2  0
 39 42  1  0
 41 43  1  0
 42 44  2  0
 43 45  2  0
 44 45  1  0
 45 46  1  0
M  END
