x3110-x0540-x0786
     RDKit          3D

 58 62  0  0  0  0  0  0  0  0999 V2000
    8.0630    0.9910   23.1890 N   0  0  0  0  0  0  0  0  0  0  0  0
    8.8280    2.1840   23.5900 C   0  0  0  0  0  0  0  0  0  0  0  0
   10.3400    1.9540   23.5670 C   0  0  0  0  0  0  0  0  0  0  0  0
    7.8250    0.6750   21.8590 C   0  0  0  0  0  0  0  0  0  0  0  0
    8.5450    1.2510   21.0130 O   0  0  0  0  0  0  0  0  0  0  0  0
    6.6830   -0.2810   21.5430 C   0  0  2  0  0  0  0  0  0  0  0  0
    6.9920   -1.7610   21.7010 N   0  0  0  0  0  0  0  0  0  0  0  0
   11.0310    3.2850   23.4470 C   0  0  0  0  0  0  0  0  0  0  0  0
    6.1420    0.2170   20.1810 C   0  0  0  0  0  0  0  0  0  0  0  0
   12.0410    3.2360   22.5510 O   0  0  0  0  0  0  0  0  0  0  0  0
   10.7090    4.2780   24.0810 O   0  0  0  0  0  0  0  0  0  0  0  0
    6.0900   -2.9060   21.3130 C   0  0  0  0  0  0  0  0  0  0  0  0
    4.9540    0.9190   20.2210 C   0  0  0  0  0  0  0  0  0  0  0  0
    6.8010    0.0100   18.9750 C   0  0  0  0  0  0  0  0  0  0  0  0
    8.2470   -1.7830   22.4230 C   0  0  0  0  0  0  0  0  0  0  0  0
   12.2920    4.4930   21.9140 C   0  0  0  0  0  0  0  0  0  0  0  0
    4.8280   -2.9390   20.9840 O   0  0  0  0  0  0  0  0  0  0  0  0
    6.5790   -4.3130   21.3550 C   0  0  1  0  0  0  0  0  0  0  0  0
    4.2570    1.1390   21.4150 C   0  0  0  0  0  0  0  0  0  0  0  0
    6.3630    0.4730   17.7930 N   0  0  0  0  0  0  0  0  0  0  0  0
    4.4460    1.4360   18.9740 C   0  0  0  0  0  0  0  0  0  0  0  0
    9.4010   -1.8900   21.6570 C   0  0  0  0  0  0  0  0  0  0  0  0
    8.4290   -1.6840   23.8050 C   0  0  0  0  0  0  0  0  0  0  0  0
   13.5660    5.0810   22.4820 C   0  0  0  0  0  0  0  0  0  0  0  0
    8.0910   -4.5280   21.0800 C   0  0  0  0  0  0  0  0  0  0  0  0
    4.9540    1.9840   22.2800 C   0  0  0  0  0  0  0  0  0  0  0  0
    5.1720    1.1990   17.8150 C   0  0  0  0  0  0  0  0  0  0  0  0
   10.7150   -1.9100   22.1360 C   0  0  0  0  0  0  0  0  0  0  0  0
    9.8230   -1.6920   24.4140 C   0  0  0  0  0  0  0  0  0  0  0  0
    5.9570   -4.6390   22.7260 C   0  0  0  0  0  0  0  0  0  0  0  0
    3.9480    2.8670   22.9370 N   0  0  0  0  0  0  0  0  0  0  0  0
   10.9630   -1.7980   23.6630 C   0  0  0  0  0  0  0  0  0  0  0  0
    4.9480   -5.7720   22.8910 C   0  0  0  0  0  0  0  0  0  0  0  0
    6.2750   -3.8690   23.8660 C   0  0  0  0  0  0  0  0  0  0  0  0
   12.3910   -1.7910   24.2270 C   0  0  0  0  0  0  0  0  0  0  0  0
    2.8980    2.3390   23.5850 C   0  0  0  0  0  0  0  0  0  0  0  0
    4.3620   -6.0150   24.1430 C   0  0  0  0  0  0  0  0  0  0  0  0
    5.6470   -4.1260   25.2260 C   0  0  0  0  0  0  0  0  0  0  0  0
   12.5330   -0.6470   25.0220 C   0  0  0  0  0  0  0  0  0  0  0  0
   13.3760   -1.6670   23.0660 C   0  0  0  0  0  0  0  0  0  0  0  0
   12.8290   -3.0050   25.0520 C   0  0  0  0  0  0  0  0  0  0  0  0
    3.0390    1.5680   24.5320 O   0  0  0  0  0  0  0  0  0  0  0  0
    1.5690    2.6770   23.1110 N   0  0  0  0  0  0  0  0  0  0  0  0
    3.3860   -7.0930   24.3010 C   0  0  0  0  0  0  0  0  0  0  0  0
    4.7250   -5.1610   25.3480 C   0  0  0  0  0  0  0  0  0  0  0  0
    3.7660   -8.0880   24.9000 O   0  0  0  0  0  0  0  0  0  0  0  0
    0.5380    3.1000   24.0380 C   0  0  0  0  0  0  0  0  0  0  0  0
    2.0100   -6.9410   23.7490 N   0  0  0  0  0  0  0  0  0  0  0  0
    0.6170    4.4840   24.2650 C   0  0  0  0  0  0  0  0  0  0  0  0
   -0.7700    2.6250   23.4120 C   0  0  0  0  0  0  0  0  0  0  0  0
    1.5510   -5.6470   23.4770 C   0  0  0  0  0  0  0  0  0  0  0  0
    0.9870   -7.9890   23.8450 C   0  0  0  0  0  0  0  0  0  0  0  0
   -0.4540    5.0480   25.0210 C   0  0  0  0  0  0  0  0  0  0  0  0
   -2.0050    3.3550   23.9330 C   0  0  0  0  0  0  0  0  0  0  0  0
    0.7790   -5.0070   24.4540 C   0  0  0  0  0  0  0  0  0  0  0  0
   -0.2580   -7.5370   24.6070 C   0  0  0  0  0  0  0  0  0  0  0  0
   -1.7620    4.8210   24.2540 C   0  0  0  0  0  0  0  0  0  0  0  0
   -0.7820   -5.8350   24.1930 S   0  0  0  0  0  0  0  0  0  0  0  0
  1  2  1  0
  2  3  1  0
  1  4  1  0
  4  5  2  0
  6  4  1  6
  6  7  1  0
  3  8  1  0
  6  9  1  0
  8 10  1  0
  8 11  2  0
  7 12  1  0
  9 13  1  0
  9 14  2  0
  7 15  1  0
 10 16  1  0
 12 17  2  0
 12 18  1  0
 13 19  1  0
 14 20  1  0
 13 21  2  0
 15 22  2  0
 15 23  1  0
 16 24  1  0
 18 25  1  1
 19 26  1  0
 20 27  2  0
 21 27  1  0
 22 28  1  0
 23 29  2  0
 18 30  1  0
 26 31  1  0
 28 32  2  0
 29 32  1  0
 30 33  2  0
 30 34  1  0
 32 35  1  0
 31 36  1  0
 33 37  1  0
 34 38  2  0
 35 39  1  0
 35 40  1  0
 35 41  1  0
 36 42  2  0
 36 43  1  0
 37 44  1  0
 37 45  2  0
 38 45  1  0
 44 46  2  0
 43 47  1  0
 44 48  1  0
 47 49  1  0
 47 50  1  0
 48 51  1  0
 48 52  1  0
 49 53  1  0
 50 54  1  0
 51 55  1  0
 52 56  1  0
 53 57  1  0
 54 57  1  0
 55 58  1  0
 56 58  1  0
M  END
