x3115-x1119-x1311-x3110-x0786-x2754-x0426-x0946
     RDKit          3D

105115  0  0  0  0  0  0  0  0999 V2000
    8.0160    1.4150   23.2680 N   0  0  0  0  0  0  0  0  0  0  0  0
    8.7720    2.7210   23.5600 C   0  0  2  0  0  0  0  0  0  0  0  0
    8.1060    3.9290   22.7670 C   0  0  0  0  0  0  0  0  0  0  0  0
    7.7380    0.8820   21.9520 C   0  0  0  0  0  0  0  0  0  0  0  0
    8.4210    1.2320   20.9630 O   0  0  0  0  0  0  0  0  0  0  0  0
    6.6210   -0.0430   21.7220 C   0  0  2  0  0  0  0  0  0  0  0  0
   10.3000    2.6160   23.3000 C   0  0  0  0  0  0  0  0  0  0  0  0
    7.0180   -1.5190   21.7850 N   0  0  0  0  0  0  0  0  0  0  0  0
    8.3650    5.0730   23.1540 O   0  0  0  0  0  0  0  0  0  0  0  0
    6.0850    0.3580   20.3490 C   0  0  0  0  0  0  0  0  0  0  0  0
   11.2770    3.6720   23.3280 C   0  0  0  0  0  0  0  0  0  0  0  0
   10.7500    1.3500   22.9880 C   0  0  0  0  0  0  0  0  0  0  0  0
   10.7680    5.0070   23.7650 C   0  0  0  0  0  0  0  0  0  0  0  0
    6.1550   -2.7340   21.5290 C   0  0  0  0  0  0  0  0  0  0  0  0
    8.0960    6.0920   22.2380 C   0  0  0  0  0  0  0  0  0  0  0  0
    4.7480    1.0580   20.1650 C   0  0  0  0  0  0  0  0  0  0  0  0
    6.9010    0.0790   19.0470 C   0  0  0  0  0  0  0  0  0  0  0  0
    8.3010   -1.5580   22.4040 C   0  0  0  0  0  0  0  0  0  0  0  0
   12.1860    1.0480   22.6680 C   0  0  0  0  0  0  0  0  0  0  0  0
   12.6810    3.4840   22.9720 C   0  0  0  0  0  0  0  0  0  0  0  0
   13.7830    4.6220   22.8860 C   0  0  2  0  0  0  0  0  0  0  0  0
    4.8700   -2.9870   21.0860 O   0  0  0  0  0  0  0  0  0  0  0  0
    6.7810   -4.0650   21.8450 C   0  0  1  0  0  0  0  0  0  0  0  0
    3.7930    1.3830   21.2850 C   0  0  0  0  0  0  0  0  0  0  0  0
    9.7860    5.2160   24.4480 O   0  0  0  0  0  0  0  0  0  0  0  0
   11.5260    6.0330   23.3870 O   0  0  0  0  0  0  0  0  0  0  0  0
    6.4570    0.4630   17.8400 N   0  0  0  0  0  0  0  0  0  0  0  0
    4.4090    1.4030   18.8690 C   0  0  0  0  0  0  0  0  0  0  0  0
    9.5100   -2.0900   21.6730 C   0  0  0  0  0  0  0  0  0  0  0  0
    8.5330   -1.1180   23.7130 C   0  0  0  0  0  0  0  0  0  0  0  0
   13.1310    2.2080   22.6700 C   0  0  0  0  0  0  0  0  0  0  0  0
   13.1470    5.6750   22.0260 C   0  0  0  0  0  0  0  0  0  0  0  0
    6.8760   -4.9760   20.6090 C   0  0  0  0  0  0  0  0  0  0  0  0
    4.2350    2.1200   22.3980 C   0  0  0  0  0  0  0  0  0  0  0  0
   15.1500    4.2750   22.1770 C   0  0  0  0  0  0  0  0  0  0  0  0
    5.2610    1.1000   17.8120 C   0  0  0  0  0  0  0  0  0  0  0  0
   10.7990   -2.1180   22.3170 C   0  0  0  0  0  0  0  0  0  0  0  0
    9.7670   -1.1320   24.3820 C   0  0  0  0  0  0  0  0  0  0  0  0
    7.9260   -4.4640   22.8270 C   0  0  0  0  0  0  0  0  0  0  0  0
    5.8500   -4.4060   23.0040 C   0  0  0  0  0  0  0  0  0  0  0  0
    3.2750    2.8340   23.0540 N   0  0  0  0  0  0  0  0  0  0  0  0
   16.6730    4.1310   22.5960 C   0  0  0  0  0  0  0  0  0  0  0  0
   10.9640   -1.6680   23.6270 C   0  0  0  0  0  0  0  0  0  0  0  0
    8.2670   -5.7960   22.9330 C   0  0  0  0  0  0  0  0  0  0  0  0
    8.6160   -3.6220   23.6390 C   0  0  0  0  0  0  0  0  0  0  0  0
    4.9020   -5.3820   23.1380 C   0  0  0  0  0  0  0  0  0  0  0  0
    6.0630   -3.5450   24.1230 C   0  0  0  0  0  0  0  0  0  0  0  0
   12.3600   -1.7140   24.2700 C   0  0  0  0  0  0  0  0  0  0  0  0
    2.5600    2.1110   24.0900 C   0  0  0  0  0  0  0  0  0  0  0  0
   17.3890    5.0340   23.5120 C   0  0  0  0  0  0  0  0  0  0  0  0
    9.2450   -6.2170   23.8120 C   0  0  0  0  0  0  0  0  0  0  0  0
    9.5890   -4.0490   24.5080 C   0  0  0  0  0  0  0  0  0  0  0  0
    4.4980   -6.3100   22.2580 C   0  0  0  0  0  0  0  0  0  0  0  0
    4.1760   -5.4400   24.4650 C   0  0  0  0  0  0  0  0  0  0  0  0
    5.4260   -3.6040   25.3060 C   0  0  0  0  0  0  0  0  0  0  0  0
   12.4910   -0.6250   25.1100 C   0  0  0  0  0  0  0  0  0  0  0  0
   13.4480   -1.6690   23.2090 C   0  0  0  0  0  0  0  0  0  0  0  0
   12.6840   -2.9720   25.0890 C   0  0  0  0  0  0  0  0  0  0  0  0
    2.8800    1.0080   24.4990 O   0  0  0  0  0  0  0  0  0  0  0  0
    5.7800   -2.7610   26.3550 N   0  0  0  0  0  0  0  0  0  0  0  0
   18.7590    5.3090   23.2440 C   0  0  0  0  0  0  0  0  0  0  0  0
    1.3240    2.8430   24.7370 C   0  0  0  0  0  0  0  0  0  0  0  0
    9.9360   -5.3480   24.6380 C   0  0  0  0  0  0  0  0  0  0  0  0
    3.0590   -6.8020   24.3450 S   0  0  1  0  0  0  0  0  0  0  0  0
    3.4850   -7.0650   22.7570 C   0  0  0  0  0  0  0  0  0  0  0  0
    4.3670   -4.6330   25.5050 C   0  0  0  0  0  0  0  0  0  0  0  0
    3.6210   -8.0700   25.1440 O   0  0  0  0  0  0  0  0  0  0  0  0
    3.6950   -4.7110   26.6690 O   0  0  0  0  0  0  0  0  0  0  0  0
    4.7720   -2.3750   27.2010 C   0  0  0  0  0  0  0  0  0  0  0  0
   19.3340    6.6260   23.4910 C   0  0  0  0  0  0  0  0  0  0  0  0
    1.4510    4.1890   25.4340 C   0  0  0  0  0  0  0  0  0  0  0  0
   -0.0130    2.0760   24.6090 C   0  0  0  0  0  0  0  0  0  0  0  0
    1.4550   -6.5940   24.4520 N   0  0  0  0  0  0  0  0  0  0  0  0
    6.8850   -3.4490   26.9000 C   0  0  0  0  0  0  0  0  0  0  0  0
    2.6440    4.7950   25.5080 F   0  0  0  0  0  0  0  0  0  0  0  0
   20.5620    6.8950   22.9490 N   0  0  0  0  0  0  0  0  0  0  0  0
   -1.2090    2.7730   25.2390 C   0  0  0  0  0  0  0  0  0  0  0  0
    0.3440    4.8180   26.0070 C   0  0  0  0  0  0  0  0  0  0  0  0
    0.9650   -5.4190   23.7670 C   0  0  0  0  0  0  0  0  0  0  0  0
    0.5620   -7.7170   24.1900 C   0  0  0  0  0  0  0  0  0  0  0  0
    6.7690   -4.5040   27.8120 C   0  0  0  0  0  0  0  0  0  0  0  0
    8.1700   -3.1000   26.4930 C   0  0  0  0  0  0  0  0  0  0  0  0
   -1.0320    4.1420   25.9360 C   0  0  0  0  0  0  0  0  0  0  0  0
   -0.3320   -4.8470   24.3060 C   0  0  0  0  0  0  0  0  0  0  0  0
   -0.7910   -7.5010   24.9230 C   0  0  0  0  0  0  0  0  0  0  0  0
    7.7990   -5.1670   28.2930 C   0  0  0  0  0  0  0  0  0  0  0  0
    9.2620   -3.7080   26.9260 C   0  0  0  0  0  0  0  0  0  0  0  0
   21.5600    6.0040   23.3010 C   0  0  0  0  0  0  0  0  0  0  0  0
   -1.6790   -6.0610   24.2500 S   0  0  0  0  0  0  0  0  0  0  0  0
    9.2170   -4.8450   27.9020 C   0  0  0  0  0  0  0  0  0  0  0  0
   22.8600    5.8960   22.7640 C   0  0  0  0  0  0  0  0  0  0  0  0
   21.2090    5.1300   24.2850 C   0  0  0  0  0  0  0  0  0  0  0  0
   23.7320    4.8910   23.2690 C   0  0  0  0  0  0  0  0  0  0  0  0
   22.0520    4.1810   24.7320 C   0  0  0  0  0  0  0  0  0  0  0  0
   23.2680    4.0380   24.2790 C   0  0  0  0  0  0  0  0  0  0  0  0
   24.0650    2.7010   25.1130 S   0  0  0  0  0  0  0  0  0  0  0  0
   23.0980    1.6290   25.1540 O   0  0  0  0  0  0  0  0  0  0  0  0
   24.2600    3.2380   26.7760 N   0  0  0  0  0  0  0  0  0  0  0  0
   25.3740    2.5240   24.5410 O   0  0  0  0  0  0  0  0  0  0  0  0
   25.0600    4.3470   27.0990 C   0  0  0  0  0  0  0  0  0  0  0  0
   25.1410    4.6210   28.4200 N   0  0  0  0  0  0  0  0  0  0  0  0
   25.6980    5.0690   26.1380 C   0  0  0  0  0  0  0  0  0  0  0  0
   25.9010    5.6770   28.7790 C   0  0  0  0  0  0  0  0  0  0  0  0
   26.4760    6.1500   26.5330 C   0  0  0  0  0  0  0  0  0  0  0  0
   26.5770    6.4590   27.8870 C   0  0  0  0  0  0  0  0  0  0  0  0
  1  2  1  0
  2  3  1  6
  1  4  1  0
  4  5  2  0
  6  4  1  6
  2  7  1  0
  6  8  1  0
  3  9  1  0
  6 10  1  0
  7 11  2  0
  7 12  1  0
 11 13  1  0
  8 14  1  0
  9 15  1  0
 10 16  1  0
 10 17  2  0
  8 18  1  0
 12 19  2  0
 11 20  1  0
 20 21  1  0
 14 22  2  0
 23 14  1  0
 16 24  1  0
 13 25  2  0
 13 26  1  0
 17 27  1  0
 16 28  2  0
 18 29  2  0
 18 30  1  0
 19 31  1  0
 20 31  2  0
 21 32  1  6
 23 33  1  6
 24 34  1  0
 21 35  1  0
 27 36  2  0
 28 36  1  0
 29 37  1  0
 30 38  2  0
 23 39  1  0
 23 40  1  0
 34 41  1  0
 35 42  1  0
 37 43  2  0
 38 43  1  0
 39 44  2  0
 39 45  1  0
 40 46  1  0
 40 47  2  0
 43 48  1  0
 41 49  1  0
 42 50  1  0
 44 51  1  0
 45 52  2  0
 46 53  1  0
 46 54  2  0
 47 55  1  0
 48 56  1  0
 48 57  1  0
 48 58  1  0
 49 59  2  0
 55 60  1  0
 50 61  1  0
 49 62  1  0
 51 63  2  0
 52 63  1  0
 54 64  1  0
 53 65  2  0
 64 65  1  0
 54 66  1  0
 55 66  2  0
 64 67  1  1
 66 68  1  0
 60 69  1  0
 61 70  1  0
 62 71  2  0
 62 72  1  0
 64 73  1  0
 60 74  1  0
 71 75  1  0
 70 76  1  0
 72 77  2  0
 71 78  1  0
 73 79  1  0
 73 80  1  0
 74 81  2  0
 74 82  1  0
 77 83  1  0
 78 83  2  0
 79 84  1  0
 80 85  1  0
 81 86  1  0
 82 87  2  0
 76 88  1  0
 84 89  1  0
 85 89  1  0
 86 90  2  0
 87 90  1  0
 88 91  2  0
 88 92  1  0
 91 93  1  0
 92 94  2  0
 93 95  2  0
 94 95  1  0
 95 96  1  0
 96 97  2  0
 96 98  1  0
 96 99  2  0
 98100  1  0
100101  2  0
100102  1  0
101103  1  0
102104  2  0
103105  2  0
104105  1  0
M  END
