x3110-x0771-x0946
     RDKit          3D

 56 61  0  0  0  0  0  0  0  0999 V2000
    7.9330    1.1400   23.3860 N   0  0  0  0  0  0  0  0  0  0  0  0
    8.5290    2.3710   23.8070 C   0  0  0  0  0  0  0  0  0  0  0  0
   10.0300    2.4660   23.4880 C   0  0  0  0  0  0  0  0  0  0  0  0
    7.6890    0.7480   22.0200 C   0  0  0  0  0  0  0  0  0  0  0  0
    8.4450    1.3800   21.0360 O   0  0  0  0  0  0  0  0  0  0  0  0
    6.6760   -0.2610   21.6820 C   0  0  2  0  0  0  0  0  0  0  0  0
    6.9360   -1.8490   21.8990 C   0  0  2  0  0  0  0  0  0  0  0  0
    6.2410    0.1880   20.2730 C   0  0  0  0  0  0  0  0  0  0  0  0
   10.8760    3.6120   23.4580 C   0  0  0  0  0  0  0  0  0  0  0  0
   10.7120    1.1510   23.1490 C   0  0  0  0  0  0  0  0  0  0  0  0
   10.3820    5.0320   23.7820 C   0  0  0  0  0  0  0  0  0  0  0  0
    6.0360   -2.9620   21.0990 C   0  0  0  0  0  0  0  0  0  0  0  0
    6.3320   -2.5390   23.0760 C   0  0  0  0  0  0  0  0  0  0  0  0
    5.1330    1.0230   20.2090 C   0  0  0  0  0  0  0  0  0  0  0  0
    6.8950   -0.1780   19.1270 C   0  0  0  0  0  0  0  0  0  0  0  0
    8.3970   -1.8720   22.4770 C   0  0  0  0  0  0  0  0  0  0  0  0
   12.1640    1.0620   22.8040 C   0  0  0  0  0  0  0  0  0  0  0  0
   12.2370    3.4620   23.1160 C   0  0  0  0  0  0  0  0  0  0  0  0
   13.1560    4.6690   23.0610 C   0  0  0  0  0  0  0  0  0  0  0  0
    4.8130   -2.9120   20.8010 O   0  0  0  0  0  0  0  0  0  0  0  0
    6.5630   -4.3510   20.8370 C   0  0  1  0  0  0  0  0  0  0  0  0
   10.1560    5.6880   22.5970 N   0  0  0  0  0  0  0  0  0  0  0  0
   11.1460    5.5320   24.6060 O   0  0  0  0  0  0  0  0  0  0  0  0
    9.4470    5.0390   24.5300 O   0  0  0  0  0  0  0  0  0  0  0  0
    6.4120    0.3360   17.8440 N   0  0  0  0  0  0  0  0  0  0  0  0
    4.6130    1.5480   19.0380 C   0  0  0  0  0  0  0  0  0  0  0  0
    9.5250   -2.1720   21.7510 C   0  0  0  0  0  0  0  0  0  0  0  0
    8.5970   -1.5250   23.9470 C   0  0  0  0  0  0  0  0  0  0  0  0
   12.8510    2.2460   22.8090 C   0  0  0  0  0  0  0  0  0  0  0  0
    7.0220   -3.9540   23.2390 C   0  0  2  0  0  0  0  0  0  0  0  0
   13.0310    5.3360   21.6860 C   0  0  0  0  0  0  0  0  0  0  0  0
    7.2280   -3.3850   19.8400 C   0  0  0  0  0  0  0  0  0  0  0  0
    5.2250    1.2350   17.8280 C   0  0  0  0  0  0  0  0  0  0  0  0
   10.8710   -2.1990   22.1780 C   0  0  0  0  0  0  0  0  0  0  0  0
    9.9880   -1.5570   24.3620 C   0  0  0  0  0  0  0  0  0  0  0  0
    7.0250   -4.8640   22.0310 N   0  0  0  0  0  0  0  0  0  0  0  0
    6.7100   -4.6080   24.3890 C   0  0  0  0  0  0  0  0  0  0  0  0
   11.1070   -1.8650   23.5750 C   0  0  0  0  0  0  0  0  0  0  0  0
    6.4220   -6.1770   22.3420 C   0  0  0  0  0  0  0  0  0  0  0  0
    5.4270   -5.2020   24.2980 N   0  0  0  0  0  0  0  0  0  0  0  0
   12.4900   -1.8250   24.1860 C   0  0  0  0  0  0  0  0  0  0  0  0
    4.8580   -5.6540   25.7730 S   0  0  0  0  0  0  0  0  0  0  0  0
    5.2830   -6.1660   23.1640 C   0  0  0  0  0  0  0  0  0  0  0  0
   12.6110   -0.5950   25.0390 C   0  0  0  0  0  0  0  0  0  0  0  0
   13.5030   -1.7470   23.1170 C   0  0  0  0  0  0  0  0  0  0  0  0
   12.8360   -3.0240   25.0470 C   0  0  0  0  0  0  0  0  0  0  0  0
    4.3090   -6.9840   25.6280 O   0  0  0  0  0  0  0  0  0  0  0  0
    5.8800   -5.3270   26.7340 O   0  0  0  0  0  0  0  0  0  0  0  0
    3.6220   -4.5550   25.8620 C   0  0  0  0  0  0  0  0  0  0  0  0
    2.1840   -4.8390   25.4560 C   0  0  0  0  0  0  0  0  0  0  0  0
    3.9440   -3.1380   26.3850 C   0  0  0  0  0  0  0  0  0  0  0  0
    1.7120   -6.1610   24.9230 C   0  0  0  0  0  0  0  0  0  0  0  0
    1.1810   -3.7220   25.6010 C   0  0  0  0  0  0  0  0  0  0  0  0
    2.9730   -2.1470   26.4950 C   0  0  0  0  0  0  0  0  0  0  0  0
    1.6350   -2.3630   26.1400 C   0  0  0  0  0  0  0  0  0  0  0  0
    0.6390   -1.2150   26.3060 C   0  0  0  0  0  0  0  0  0  0  0  0
  1  2  1  0
  2  3  1  0
  1  4  1  0
  4  5  2  0
  6  4  1  6
  6  7  1  0
  6  8  1  0
  3  9  2  0
  3 10  1  0
  9 11  1  0
  7 12  1  0
  7 13  1  0
  8 14  2  0
  8 15  1  0
  7 16  1  1
 10 17  2  0
  9 18  1  0
 18 19  1  0
 12 20  2  0
 12 21  1  0
 11 22  1  0
 11 23  1  0
 11 24  1  0
 15 25  2  0
 14 26  1  0
 16 27  2  0
 16 28  1  0
 17 29  1  0
 18 29  2  0
 30 13  1  6
 19 31  1  0
 21 32  1  6
 25 33  1  0
 26 33  2  0
 27 34  1  0
 28 35  2  0
 21 36  1  0
 30 36  1  0
 30 37  1  0
 34 38  2  0
 35 38  1  0
 36 39  1  0
 37 40  1  0
 38 41  1  0
 40 42  1  0
 39 43  1  0
 40 43  1  0
 41 44  1  0
 41 45  1  0
 41 46  1  0
 42 47  2  0
 42 48  2  0
 42 49  1  0
 49 50  2  0
 49 51  1  0
 50 52  1  0
 50 53  1  0
 51 54  2  0
 53 55  2  0
 54 55  1  0
 55 56  1  0
M  END
