x3110-x0786-x0426
     RDKit          3D

 58 62  0  0  0  0  0  0  0  0999 V2000
    7.8880    1.2310   23.2120 N   0  0  0  0  0  0  0  0  0  0  0  0
    8.6650    2.3450   23.7650 C   0  0  0  0  0  0  0  0  0  0  0  0
   10.1620    2.1940   23.5070 C   0  0  0  0  0  0  0  0  0  0  0  0
    7.7110    0.7990   21.8180 C   0  0  0  0  0  0  0  0  0  0  0  0
    8.4220    1.2550   20.9070 O   0  0  0  0  0  0  0  0  0  0  0  0
    6.6220   -0.1460   21.6220 C   0  0  2  0  0  0  0  0  0  0  0  0
    6.9490   -1.5930   21.6510 N   0  0  0  0  0  0  0  0  0  0  0  0
   11.0800    3.3880   23.3820 C   0  0  0  0  0  0  0  0  0  0  0  0
    6.1280    0.3710   20.2290 C   0  0  0  0  0  0  0  0  0  0  0  0
   11.8690    3.2560   22.4550 O   0  0  0  0  0  0  0  0  0  0  0  0
   11.0250    4.3650   24.1170 O   0  0  0  0  0  0  0  0  0  0  0  0
    6.1120   -2.8070   21.4510 C   0  0  0  0  0  0  0  0  0  0  0  0
    4.8880    1.2490   20.0360 C   0  0  0  0  0  0  0  0  0  0  0  0
    6.8790    0.0410   18.9520 C   0  0  0  0  0  0  0  0  0  0  0  0
    8.2200   -1.7190   22.3000 C   0  0  0  0  0  0  0  0  0  0  0  0
   12.2690    4.4510   21.9550 C   0  0  0  0  0  0  0  0  0  0  0  0
    4.8740   -3.0080   21.0390 O   0  0  0  0  0  0  0  0  0  0  0  0
    6.7950   -4.0860   21.8010 C   0  0  2  0  0  0  0  0  0  0  0  0
    3.8730    1.7830   21.0340 C   0  0  0  0  0  0  0  0  0  0  0  0
    6.4560    0.5290   17.7740 N   0  0  0  0  0  0  0  0  0  0  0  0
    4.5300    1.7000   18.8110 C   0  0  0  0  0  0  0  0  0  0  0  0
    9.3720   -2.1690   21.6530 C   0  0  0  0  0  0  0  0  0  0  0  0
    8.3510   -1.3180   23.7750 C   0  0  0  0  0  0  0  0  0  0  0  0
   13.4810    4.9320   22.7340 C   0  0  0  0  0  0  0  0  0  0  0  0
    6.8240   -4.9830   20.5750 C   0  0  0  0  0  0  0  0  0  0  0  0
    4.1780    1.7450   22.5190 C   0  0  0  0  0  0  0  0  0  0  0  0
    5.2470    1.4020   17.6570 C   0  0  0  0  0  0  0  0  0  0  0  0
   10.6120   -2.2460   22.2710 C   0  0  0  0  0  0  0  0  0  0  0  0
    9.6750   -1.3790   24.5060 C   0  0  0  0  0  0  0  0  0  0  0  0
    5.9550   -4.4850   23.0340 C   0  0  0  0  0  0  0  0  0  0  0  0
    3.2170    2.6300   23.2600 N   0  0  0  0  0  0  0  0  0  0  0  0
   10.8520   -1.8510   23.7320 C   0  0  0  0  0  0  0  0  0  0  0  0
    5.0760   -5.5730   23.0080 C   0  0  0  0  0  0  0  0  0  0  0  0
    6.0970   -3.6860   24.1920 C   0  0  0  0  0  0  0  0  0  0  0  0
   12.2250   -1.9020   24.3600 C   0  0  0  0  0  0  0  0  0  0  0  0
    2.4690    2.0290   24.2990 C   0  0  0  0  0  0  0  0  0  0  0  0
    4.3180   -5.8760   24.1400 C   0  0  0  0  0  0  0  0  0  0  0  0
    5.3540   -3.9660   25.3370 C   0  0  0  0  0  0  0  0  0  0  0  0
   12.7460   -0.5130   24.7600 C   0  0  0  0  0  0  0  0  0  0  0  0
   13.2030   -1.3690   23.3570 C   0  0  0  0  0  0  0  0  0  0  0  0
   12.7500   -3.0050   24.9490 C   0  0  0  0  0  0  0  0  0  0  0  0
    2.8120    0.9010   24.8530 O   0  0  0  0  0  0  0  0  0  0  0  0
    3.3610   -7.0110   24.1830 C   0  0  0  0  0  0  0  0  0  0  0  0
    1.2730    2.7380   24.7990 C   0  0  0  0  0  0  0  0  0  0  0  0
    4.4640   -5.0200   25.3820 C   0  0  0  0  0  0  0  0  0  0  0  0
    3.7620   -8.0420   24.7120 O   0  0  0  0  0  0  0  0  0  0  0  0
    1.4310    4.1280   25.4160 C   0  0  0  0  0  0  0  0  0  0  0  0
   -0.1150    2.0750   24.7000 C   0  0  0  0  0  0  0  0  0  0  0  0
    2.2740   -6.8890   23.7420 N   0  0  0  0  0  0  0  0  0  0  0  0
    2.6350    4.7150   25.5060 F   0  0  0  0  0  0  0  0  0  0  0  0
   -1.3080    2.8780   25.2520 C   0  0  0  0  0  0  0  0  0  0  0  0
    0.3110    4.7840   25.8890 C   0  0  0  0  0  0  0  0  0  0  0  0
    1.7550   -5.5590   23.4150 C   0  0  0  0  0  0  0  0  0  0  0  0
    1.2840   -7.9690   23.8780 C   0  0  0  0  0  0  0  0  0  0  0  0
   -1.0630    4.1360   25.7980 C   0  0  0  0  0  0  0  0  0  0  0  0
    0.7860   -5.0110   24.5120 C   0  0  0  0  0  0  0  0  0  0  0  0
    0.0080   -7.6210   24.6580 C   0  0  0  0  0  0  0  0  0  0  0  0
   -0.6740   -5.9780   24.2300 S   0  0  0  0  0  0  0  0  0  0  0  0
  1  2  1  0
  2  3  1  0
  1  4  1  0
  4  5  2  0
  6  4  1  6
  6  7  1  0
  3  8  1  0
  6  9  1  0
  8 10  1  0
  8 11  2  0
  7 12  1  0
  9 13  1  0
  9 14  2  0
  7 15  1  0
 10 16  1  0
 12 17  2  0
 12 18  1  0
 13 19  1  0
 14 20  1  0
 13 21  2  0
 15 22  2  0
 15 23  1  0
 16 24  1  0
 18 25  1  6
 19 26  1  0
 20 27  2  0
 21 27  1  0
 22 28  1  0
 23 29  2  0
 18 30  1  0
 26 31  1  0
 28 32  2  0
 29 32  1  0
 30 33  2  0
 30 34  1  0
 32 35  1  0
 31 36  1  0
 33 37  1  0
 34 38  2  0
 35 39  1  0
 35 40  1  0
 35 41  1  0
 36 42  2  0
 37 43  1  0
 36 44  1  0
 37 45  2  0
 38 45  1  0
 43 46  2  0
 44 47  2  0
 44 48  1  0
 43 49  1  0
 47 50  1  0
 48 51  2  0
 47 52  1  0
 49 53  1  0
 49 54  1  0
 51 55  1  0
 52 55  2  0
 53 56  1  0
 54 57  1  0
 56 58  1  0
 57 58  1  0
M  END
