x3115-x1119-x3110-x0786-x2754-x0426-x0946
     RDKit          3D

 97105  0  0  0  0  0  0  0  0999 V2000
    8.1560    1.4310   23.1560 N   0  0  0  0  0  0  0  0  0  0  0  0
    8.9170    2.7590   23.1460 C   0  0  1  0  0  0  0  0  0  0  0  0
    8.2670    3.9800   23.8940 C   0  0  0  0  0  0  0  0  0  0  0  0
    7.7720    0.8560   21.8940 C   0  0  0  0  0  0  0  0  0  0  0  0
    8.4190    1.1520   20.8740 O   0  0  0  0  0  0  0  0  0  0  0  0
    6.6110   -0.0140   21.7120 C   0  0  2  0  0  0  0  0  0  0  0  0
   10.4730    2.5730   23.0590 C   0  0  0  0  0  0  0  0  0  0  0  0
    6.9780   -1.5070   21.7400 N   0  0  0  0  0  0  0  0  0  0  0  0
    8.5900    5.1180   23.5030 O   0  0  0  0  0  0  0  0  0  0  0  0
    5.9490    0.4810   20.4240 C   0  0  0  0  0  0  0  0  0  0  0  0
   11.4480    3.6350   23.1240 C   0  0  0  0  0  0  0  0  0  0  0  0
   10.9430    1.2760   22.8690 C   0  0  0  0  0  0  0  0  0  0  0  0
   10.9750    5.0100   23.4100 C   0  0  0  0  0  0  0  0  0  0  0  0
    6.1030   -2.7140   21.4740 C   0  0  0  0  0  0  0  0  0  0  0  0
    7.9620    5.6240   22.3630 C   0  0  0  0  0  0  0  0  0  0  0  0
    4.7920    1.1790   20.1400 C   0  0  0  0  0  0  0  0  0  0  0  0
    6.8180    0.1070   19.2240 C   0  0  0  0  0  0  0  0  0  0  0  0
    8.3060   -1.6400   22.4070 C   0  0  0  0  0  0  0  0  0  0  0  0
   12.2890    1.0250   22.7150 C   0  0  0  0  0  0  0  0  0  0  0  0
   12.8580    3.3930   22.9210 C   0  0  0  0  0  0  0  0  0  0  0  0
   13.9750    4.5320   22.9020 C   0  0  2  0  0  0  0  0  0  0  0  0
    4.8400   -2.9540   21.0520 O   0  0  0  0  0  0  0  0  0  0  0  0
    6.7660   -4.0090   21.7690 C   0  0  2  0  0  0  0  0  0  0  0  0
    3.7140    1.6860   21.0780 C   0  0  0  0  0  0  0  0  0  0  0  0
   10.3270    5.3520   24.3860 O   0  0  0  0  0  0  0  0  0  0  0  0
   11.3420    5.9030   22.4870 O   0  0  0  0  0  0  0  0  0  0  0  0
    6.5460    0.4230   17.9420 N   0  0  0  0  0  0  0  0  0  0  0  0
    4.5080    1.5260   18.6990 C   0  0  0  0  0  0  0  0  0  0  0  0
    9.4410   -2.0830   21.7310 C   0  0  0  0  0  0  0  0  0  0  0  0
    8.4810   -1.3120   23.7150 C   0  0  0  0  0  0  0  0  0  0  0  0
   13.2110    2.0480   22.7290 C   0  0  0  0  0  0  0  0  0  0  0  0
   13.4640    5.4420   21.8370 C   0  0  0  0  0  0  0  0  0  0  0  0
    6.8450   -4.9140   20.5330 C   0  0  0  0  0  0  0  0  0  0  0  0
    4.0970    1.8690   22.4220 C   0  0  0  0  0  0  0  0  0  0  0  0
   15.5530    4.3040   22.5240 C   0  0  0  0  0  0  0  0  0  0  0  0
    5.4010    1.1300   17.7400 C   0  0  0  0  0  0  0  0  0  0  0  0
   10.7140   -2.1880   22.3060 C   0  0  0  0  0  0  0  0  0  0  0  0
    9.7520   -1.4210   24.2900 C   0  0  0  0  0  0  0  0  0  0  0  0
    5.9090   -4.4740   22.9500 C   0  0  0  0  0  0  0  0  0  0  0  0
    3.3250    2.7110   23.1700 N   0  0  0  0  0  0  0  0  0  0  0  0
   16.8990    4.2550   23.4380 C   0  0  0  0  0  0  0  0  0  0  0  0
   10.9020   -1.8450   23.6390 C   0  0  0  0  0  0  0  0  0  0  0  0
    5.0250   -5.5730   22.8760 C   0  0  0  0  0  0  0  0  0  0  0  0
    6.0880   -3.7130   24.0710 C   0  0  0  0  0  0  0  0  0  0  0  0
   12.2930   -1.9490   24.2920 C   0  0  0  0  0  0  0  0  0  0  0  0
    2.5510    2.0610   24.2050 C   0  0  0  0  0  0  0  0  0  0  0  0
   17.8500    5.2120   23.3140 C   0  0  0  0  0  0  0  0  0  0  0  0
    4.3100   -5.8100   24.1120 C   0  0  0  0  0  0  0  0  0  0  0  0
    5.4040   -3.9860   25.1890 C   0  0  0  0  0  0  0  0  0  0  0  0
   12.5770   -0.8170   25.0640 C   0  0  0  0  0  0  0  0  0  0  0  0
   13.3990   -2.1110   23.2390 C   0  0  0  0  0  0  0  0  0  0  0  0
   12.3860   -3.2030   25.1520 C   0  0  0  0  0  0  0  0  0  0  0  0
    2.8650    0.9850   24.6890 O   0  0  0  0  0  0  0  0  0  0  0  0
    3.3630   -6.9480   24.1820 C   0  0  0  0  0  0  0  0  0  0  0  0
    5.6120   -3.2720   26.3990 N   0  0  0  0  0  0  0  0  0  0  0  0
   19.1730    5.3790   23.6650 C   0  0  0  0  0  0  0  0  0  0  0  0
    1.3650    2.7340   24.7290 C   0  0  0  0  0  0  0  0  0  0  0  0
    4.5020   -5.0310   25.1880 C   0  0  0  0  0  0  0  0  0  0  0  0
    3.7790   -7.9760   24.7190 O   0  0  0  0  0  0  0  0  0  0  0  0
    3.8370   -5.2220   26.3480 O   0  0  0  0  0  0  0  0  0  0  0  0
    5.3340   -1.9320   26.3750 C   0  0  0  0  0  0  0  0  0  0  0  0
   19.5070    6.7920   23.6780 C   0  0  0  0  0  0  0  0  0  0  0  0
    1.4490    3.9840   25.3310 C   0  0  0  0  0  0  0  0  0  0  0  0
   -0.0140    2.1150   24.6540 C   0  0  0  0  0  0  0  0  0  0  0  0
    2.0700   -6.8350   23.6660 N   0  0  0  0  0  0  0  0  0  0  0  0
    6.8850   -3.7380   26.7950 C   0  0  0  0  0  0  0  0  0  0  0  0
    2.6440    4.5780   25.4230 F   0  0  0  0  0  0  0  0  0  0  0  0
   20.8640    7.1240   23.1850 N   0  0  0  0  0  0  0  0  0  0  0  0
   -1.1860    2.9050   25.2400 C   0  0  0  0  0  0  0  0  0  0  0  0
    0.3380    4.6640   25.8530 C   0  0  0  0  0  0  0  0  0  0  0  0
    1.5590   -5.5100   23.3780 C   0  0  0  0  0  0  0  0  0  0  0  0
    1.0720   -7.9120   23.7740 C   0  0  0  0  0  0  0  0  0  0  0  0
    7.0810   -4.7130   27.7340 C   0  0  0  0  0  0  0  0  0  0  0  0
    7.9980   -3.2300   26.1910 C   0  0  0  0  0  0  0  0  0  0  0  0
   -0.9560    4.1380   25.8110 C   0  0  0  0  0  0  0  0  0  0  0  0
    0.5530   -5.0110   24.4340 C   0  0  0  0  0  0  0  0  0  0  0  0
   -0.0460   -7.6000   24.8140 C   0  0  0  0  0  0  0  0  0  0  0  0
    8.3640   -5.1510   28.0270 C   0  0  0  0  0  0  0  0  0  0  0  0
    9.2750   -3.6400   26.4550 C   0  0  0  0  0  0  0  0  0  0  0  0
   21.6760    6.1500   23.6210 C   0  0  0  0  0  0  0  0  0  0  0  0
   -0.9360   -6.0580   24.4180 S   0  0  0  0  0  0  0  0  0  0  0  0
    9.4430   -4.6440   27.4170 C   0  0  0  0  0  0  0  0  0  0  0  0
   22.5980    5.6220   22.8730 C   0  0  0  0  0  0  0  0  0  0  0  0
   21.4410    5.7250   24.9260 C   0  0  0  0  0  0  0  0  0  0  0  0
   23.3530    4.6370   23.2950 C   0  0  0  0  0  0  0  0  0  0  0  0
   22.0970    4.7640   25.4730 C   0  0  0  0  0  0  0  0  0  0  0  0
   23.1620    4.0680   24.6890 C   0  0  0  0  0  0  0  0  0  0  0  0
   24.0400    2.7250   25.3770 S   0  0  0  0  0  0  0  0  0  0  0  0
   23.1280    1.6360   25.2250 O   0  0  0  0  0  0  0  0  0  0  0  0
   24.1730    3.1940   27.0590 N   0  0  0  0  0  0  0  0  0  0  0  0
   25.3570    2.6810   24.7890 O   0  0  0  0  0  0  0  0  0  0  0  0
   24.9980    4.3300   27.2900 C   0  0  0  0  0  0  0  0  0  0  0  0
   25.0870    4.6370   28.6090 N   0  0  0  0  0  0  0  0  0  0  0  0
   25.6100    4.9960   26.2530 C   0  0  0  0  0  0  0  0  0  0  0  0
   25.8450    5.6980   28.9870 C   0  0  0  0  0  0  0  0  0  0  0  0
   26.4560    6.1640   26.5690 C   0  0  0  0  0  0  0  0  0  0  0  0
   26.5880    6.5470   28.0330 C   0  0  0  0  0  0  0  0  0  0  0  0
  1  2  1  0
  2  3  1  1
  1  4  1  0
  4  5  2  0
  6  4  1  6
  2  7  1  0
  6  8  1  0
  3  9  1  0
  6 10  1  0
  7 11  2  0
  7 12  1  0
 11 13  1  0
  8 14  1  0
  9 15  1  0
 10 16  1  0
 10 17  2  0
  8 18  1  0
 12 19  2  0
 11 20  1  0
 20 21  1  0
 14 22  2  0
 14 23  1  0
 16 24  1  0
 13 25  2  0
 13 26  1  0
 17 27  1  0
 16 28  2  0
 18 29  2  0
 18 30  1  0
 19 31  1  0
 20 31  2  0
 21 32  1  6
 23 33  1  6
 24 34  1  0
 21 35  1  0
 27 36  2  0
 28 36  1  0
 29 37  1  0
 30 38  2  0
 23 39  1  0
 34 40  1  0
 35 41  1  0
 37 42  2  0
 38 42  1  0
 39 43  2  0
 39 44  1  0
 42 45  1  0
 40 46  1  0
 41 47  1  0
 43 48  1  0
 44 49  2  0
 45 50  1  0
 45 51  1  0
 45 52  1  0
 46 53  2  0
 48 54  1  0
 49 55  1  0
 47 56  1  0
 46 57  1  0
 48 58  2  0
 49 58  1  0
 54 59  2  0
 58 60  1  0
 55 61  1  0
 56 62  1  0
 57 63  2  0
 57 64  1  0
 54 65  1  0
 55 66  1  0
 63 67  1  0
 62 68  1  0
 64 69  2  0
 63 70  1  0
 65 71  1  0
 65 72  1  0
 66 73  2  0
 66 74  1  0
 69 75  1  0
 70 75  2  0
 71 76  1  0
 72 77  1  0
 73 78  1  0
 74 79  2  0
 68 80  1  0
 76 81  1  0
 77 81  1  0
 78 82  2  0
 79 82  1  0
 80 83  2  0
 80 84  1  0
 83 85  1  0
 84 86  2  0
 85 87  2  0
 86 87  1  0
 87 88  1  0
 88 89  2  0
 88 90  1  0
 88 91  2  0
 90 92  1  0
 92 93  2  0
 92 94  1  0
 93 95  1  0
 94 96  2  0
 95 97  2  0
 96 97  1  0
M  END
