x3113-x1119
     RDKit          3D

 53 56  0  0  0  0  0  0  0  0999 V2000
    7.0250   -1.7740   21.9530 N   0  0  0  0  0  0  0  0  0  0  0  0
    6.1870   -2.9890   21.6070 C   0  0  0  0  0  0  0  0  0  0  0  0
    4.9260   -3.1120   21.1630 O   0  0  0  0  0  0  0  0  0  0  0  0
    6.7140   -0.2940   21.7470 C   0  0  1  0  0  0  0  0  0  0  0  0
    8.3730   -1.8280   22.5640 C   0  0  0  0  0  0  0  0  0  0  0  0
    6.8550   -4.3490   21.8380 C   0  0  0  0  0  0  0  0  0  0  0  0
    7.8540    0.5910   21.9830 C   0  0  0  0  0  0  0  0  0  0  0  0
    6.2410    0.1320   20.3850 C   0  0  0  0  0  0  0  0  0  0  0  0
    9.5590   -2.1710   21.7640 C   0  0  0  0  0  0  0  0  0  0  0  0
    8.6190   -1.5310   23.9060 C   0  0  0  0  0  0  0  0  0  0  0  0
    8.1640   -4.6870   21.0560 C   0  0  0  0  0  0  0  0  0  0  0  0
    8.0570    1.1150   23.2390 N   0  0  0  0  0  0  0  0  0  0  0  0
    8.6180    0.9040   21.0790 O   0  0  0  0  0  0  0  0  0  0  0  0
    5.1020    0.9510   20.2820 C   0  0  0  0  0  0  0  0  0  0  0  0
    6.8950   -0.2270   19.1560 C   0  0  0  0  0  0  0  0  0  0  0  0
   10.8180   -2.1850   22.2710 C   0  0  0  0  0  0  0  0  0  0  0  0
    9.9340   -1.5470   24.4170 C   0  0  0  0  0  0  0  0  0  0  0  0
    8.9680    2.1400   23.4270 C   0  0  0  0  0  0  0  0  0  0  0  0
    6.3650    0.2800   17.8680 N   0  0  0  0  0  0  0  0  0  0  0  0
    4.6170    1.4130   19.0620 C   0  0  0  0  0  0  0  0  0  0  0  0
   11.0460   -1.8690   23.6040 C   0  0  0  0  0  0  0  0  0  0  0  0
   10.1720    2.1490   22.7170 C   0  0  0  0  0  0  0  0  0  0  0  0
   12.4720   -1.8480   24.1730 C   0  0  0  0  0  0  0  0  0  0  0  0
    5.2640    1.0660   17.9020 C   0  0  0  0  0  0  0  0  0  0  0  0
   11.1760    2.9230   23.3470 C   0  0  0  0  0  0  0  0  0  0  0  0
   13.4090   -1.9080   23.1730 C   0  0  0  0  0  0  0  0  0  0  0  0
   12.7910   -3.0420   25.0700 C   0  0  0  0  0  0  0  0  0  0  0  0
   12.6050   -0.6650   24.9410 C   0  0  0  0  0  0  0  0  0  0  0  0
   11.9550    3.5790   22.3980 O   0  0  0  0  0  0  0  0  0  0  0  0
   12.2670    4.9540   22.6730 C   0  0  0  0  0  0  0  0  0  0  0  0
   13.6350    5.3160   22.0640 C   0  0  0  0  0  0  0  0  0  0  0  0
   14.6010    4.5760   22.7320 C   0  0  0  0  0  0  0  0  0  0  0  0
   16.0370    4.5040   22.4240 C   0  0  0  0  0  0  0  0  0  0  0  0
   17.1460    4.8910   23.4010 C   0  0  0  0  0  0  0  0  0  0  0  0
   18.5120    4.9580   22.9220 C   0  0  0  0  0  0  0  0  0  0  0  0
   19.2010    6.2480   22.7650 C   0  0  0  0  0  0  0  0  0  0  0  0
   20.5190    6.6400   22.7400 N   0  0  0  0  0  0  0  0  0  0  0  0
   21.5440    5.7800   23.2450 C   0  0  0  0  0  0  0  0  0  0  0  0
   23.0210    5.9340   22.8500 C   0  0  0  0  0  0  0  0  0  0  0  0
   21.0780    4.8270   24.0820 C   0  0  0  0  0  0  0  0  0  0  0  0
   23.9790    4.8910   23.5030 C   0  0  0  0  0  0  0  0  0  0  0  0
   21.9600    3.8380   24.6830 C   0  0  0  0  0  0  0  0  0  0  0  0
   23.3450    3.8550   24.4320 C   0  0  0  0  0  0  0  0  0  0  0  0
   24.1130    2.5490   25.3190 S   0  0  0  0  0  0  0  0  0  0  0  0
   23.0940    1.5270   25.4400 O   0  0  0  0  0  0  0  0  0  0  0  0
   24.3520    3.1800   26.8480 N   0  0  0  0  0  0  0  0  0  0  0  0
   25.3760    2.3040   24.6800 O   0  0  0  0  0  0  0  0  0  0  0  0
   25.1210    4.3230   27.1090 C   0  0  0  0  0  0  0  0  0  0  0  0
   25.1360    4.5900   28.4350 N   0  0  0  0  0  0  0  0  0  0  0  0
   25.7800    5.0820   26.1660 C   0  0  0  0  0  0  0  0  0  0  0  0
   25.8450    5.6710   28.8330 C   0  0  0  0  0  0  0  0  0  0  0  0
   26.5030    6.1880   26.6070 C   0  0  0  0  0  0  0  0  0  0  0  0
   26.5380    6.4900   27.9630 C   0  0  0  0  0  0  0  0  0  0  0  0
  1  2  1  0
  2  3  2  0
  1  4  1  0
  1  5  1  0
  2  6  1  0
  4  7  1  6
  4  8  1  0
  5  9  2  0
  5 10  1  0
  6 11  1  0
  7 12  1  0
  7 13  2  0
  8 14  2  0
  8 15  1  0
  9 16  1  0
 10 17  2  0
 12 18  1  0
 15 19  2  0
 14 20  1  0
 16 21  2  0
 17 21  1  0
 18 22  1  0
 21 23  1  0
 19 24  1  0
 20 24  2  0
 22 25  1  0
 23 26  1  0
 23 27  1  0
 23 28  1  0
 25 29  1  0
 29 30  1  0
 30 31  1  0
 31 32  1  0
 32 33  1  0
 33 34  1  0
 34 35  1  0
 35 36  1  0
 36 37  1  0
 37 38  1  0
 38 39  2  0
 38 40  1  0
 39 41  1  0
 40 42  2  0
 41 43  2  0
 42 43  1  0
 43 44  1  0
 44 45  2  0
 44 46  1  0
 44 47  2  0
 46 48  1  0
 48 49  2  0
 48 50  1  0
 49 51  1  0
 50 52  2  0
 51 53  2  0
 52 53  1  0
M  END
