x3110-x0786-x0426-x1308-x0946
     RDKit          3D

 73 79  0  0  0  0  0  0  0  0999 V2000
    8.0110    1.0830   23.2510 N   0  0  0  0  0  0  0  0  0  0  0  0
    8.6650    2.2660   23.6390 C   0  0  0  0  0  0  0  0  0  0  0  0
   10.1770    2.3360   23.3820 C   0  0  0  0  0  0  0  0  0  0  0  0
    7.7460    0.8720   21.9900 C   0  0  0  0  0  0  0  0  0  0  0  0
    8.4000    1.4560   20.9180 O   0  0  0  0  0  0  0  0  0  0  0  0
    6.5390   -0.1130   21.6180 C   0  0  2  0  0  0  0  0  0  0  0  0
    6.9660   -1.5300   21.7000 N   0  0  0  0  0  0  0  0  0  0  0  0
    6.0140    0.3750   20.3040 C   0  0  0  0  0  0  0  0  0  0  0  0
   10.9410    3.5310   23.3220 C   0  0  0  0  0  0  0  0  0  0  0  0
   10.8460    1.1320   23.1830 C   0  0  0  0  0  0  0  0  0  0  0  0
   10.3970    4.9640   23.5150 C   0  0  0  0  0  0  0  0  0  0  0  0
    6.1030   -2.7420   21.4850 C   0  0  0  0  0  0  0  0  0  0  0  0
    4.7770    1.0190   20.1490 C   0  0  0  0  0  0  0  0  0  0  0  0
    6.8420    0.1630   19.1950 C   0  0  0  0  0  0  0  0  0  0  0  0
    8.2270   -1.6660   22.3860 C   0  0  0  0  0  0  0  0  0  0  0  0
   12.2010    1.0400   22.9200 C   0  0  0  0  0  0  0  0  0  0  0  0
   12.2960    3.4310   23.0620 C   0  0  0  0  0  0  0  0  0  0  0  0
   13.2340    4.6180   22.9710 C   0  0  0  0  0  0  0  0  0  0  0  0
    4.8650   -2.9880   21.0390 O   0  0  0  0  0  0  0  0  0  0  0  0
    6.8050   -3.9870   21.8980 C   0  0  2  0  0  0  0  0  0  0  0  0
    3.8440    1.2600   21.1750 C   0  0  0  0  0  0  0  0  0  0  0  0
    9.0900    5.1070   23.0450 N   0  0  0  0  0  0  0  0  0  0  0  0
   10.9730    5.8060   22.8750 O   0  0  0  0  0  0  0  0  0  0  0  0
   10.5590    5.4350   24.6270 O   0  0  0  0  0  0  0  0  0  0  0  0
    6.5130    0.6040   17.8300 N   0  0  0  0  0  0  0  0  0  0  0  0
    4.4440    1.4520   18.8750 C   0  0  0  0  0  0  0  0  0  0  0  0
    9.4070   -1.4730   21.6540 C   0  0  0  0  0  0  0  0  0  0  0  0
    8.3310   -1.9790   23.7480 C   0  0  0  0  0  0  0  0  0  0  0  0
   12.8220    2.2130   22.8800 C   0  0  0  0  0  0  0  0  0  0  0  0
   13.1550    5.2170   21.6150 C   0  0  0  0  0  0  0  0  0  0  0  0
    6.8370   -4.9030   20.6480 C   0  0  0  0  0  0  0  0  0  0  0  0
    4.3380    2.2200   22.2530 C   0  0  0  0  0  0  0  0  0  0  0  0
    5.2310    1.2890   17.7460 C   0  0  0  0  0  0  0  0  0  0  0  0
   10.6710   -1.6000   22.2410 C   0  0  0  0  0  0  0  0  0  0  0  0
    9.5930   -2.0980   24.3360 C   0  0  0  0  0  0  0  0  0  0  0  0
    5.9950   -4.4240   23.1260 C   0  0  1  0  0  0  0  0  0  0  0  0
    3.1570    2.8040   22.9020 N   0  0  0  0  0  0  0  0  0  0  0  0
   10.7490   -1.9160   23.5950 C   0  0  0  0  0  0  0  0  0  0  0  0
    5.0160   -5.3660   22.9240 C   0  0  0  0  0  0  0  0  0  0  0  0
    6.6300   -4.6660   24.3510 C   0  0  0  0  0  0  0  0  0  0  0  0
   12.0350   -2.0900   24.3330 C   0  0  0  0  0  0  0  0  0  0  0  0
    2.5470    2.2040   23.9850 C   0  0  0  0  0  0  0  0  0  0  0  0
    3.9960   -5.3060   23.9070 C   0  0  1  0  0  0  0  0  0  0  0  0
    5.6790   -4.6360   25.5570 C   0  0  2  0  0  0  0  0  0  0  0  0
   12.7490   -1.0000   24.8490 C   0  0  0  0  0  0  0  0  0  0  0  0
   13.3100   -1.9460   23.5390 C   0  0  0  0  0  0  0  0  0  0  0  0
   12.0200   -3.3150   25.2240 C   0  0  0  0  0  0  0  0  0  0  0  0
    2.9470    1.1580   24.4570 O   0  0  0  0  0  0  0  0  0  0  0  0
    3.2810   -6.6170   24.0880 C   0  0  0  0  0  0  0  0  0  0  0  0
    6.0240   -5.9480   26.7420 S   0  0  0  0  0  0  0  0  0  0  0  0
    1.3270    2.8830   24.6400 C   0  0  0  0  0  0  0  0  0  0  0  0
    4.3330   -4.5560   25.2370 C   0  0  1  0  0  0  0  0  0  0  0  0
    4.0450   -7.7180   24.5660 O   0  0  0  0  0  0  0  0  0  0  0  0
    6.3560   -5.3070   27.9880 O   0  0  0  0  0  0  0  0  0  0  0  0
    5.0150   -6.9770   26.6100 O   0  0  0  0  0  0  0  0  0  0  0  0
    1.4810    4.0910   25.3360 C   0  0  0  0  0  0  0  0  0  0  0  0
    0.0520    2.2760   24.5440 C   0  0  0  0  0  0  0  0  0  0  0  0
    1.9590   -6.7290   23.7970 N   0  0  0  0  0  0  0  0  0  0  0  0
    4.2770   -3.0140   25.2500 C   0  0  0  0  0  0  0  0  0  0  0  0
    3.3130   -4.9870   26.3230 C   0  0  0  0  0  0  0  0  0  0  0  0
    2.6900    4.6660   25.4320 F   0  0  0  0  0  0  0  0  0  0  0  0
   -1.0220    2.9060   25.1500 C   0  0  0  0  0  0  0  0  0  0  0  0
    0.3880    4.7220   25.9470 C   0  0  0  0  0  0  0  0  0  0  0  0
    1.1570   -5.7960   23.0250 C   0  0  0  0  0  0  0  0  0  0  0  0
    1.2130   -7.9120   24.2270 C   0  0  0  0  0  0  0  0  0  0  0  0
    3.2390   -2.2860   25.6590 C   0  0  0  0  0  0  0  0  0  0  0  0
    2.2470   -4.2330   26.6990 C   0  0  0  0  0  0  0  0  0  0  0  0
   -0.8590    4.1000   25.8360 C   0  0  0  0  0  0  0  0  0  0  0  0
    0.1050   -5.1120   23.8870 C   0  0  0  0  0  0  0  0  0  0  0  0
    0.0560   -7.5550   25.1700 C   0  0  0  0  0  0  0  0  0  0  0  0
    1.9570   -2.8970   26.1010 C   0  0  1  0  0  0  0  0  0  0  0  0
    1.1100   -1.7930   27.2150 Cl  0  0  0  0  0  0  0  0  0  0  0  0
   -1.1140   -6.3480   24.4450 S   0  0  0  0  0  0  0  0  0  0  0  0
  1  2  1  0
  2  3  1  0
  1  4  1  0
  4  5  2  0
  6  4  1  6
  6  7  1  0
  6  8  1  0
  3  9  2  0
  3 10  1  0
  9 11  1  0
  7 12  1  0
  8 13  1  0
  8 14  2  0
  7 15  1  0
 10 16  2  0
  9 17  1  0
 17 18  1  0
 12 19  2  0
 12 20  1  0
 13 21  1  0
 11 22  1  0
 11 23  1  0
 11 24  1  0
 14 25  1  0
 13 26  2  0
 15 27  2  0
 15 28  1  0
 16 29  1  0
 17 29  2  0
 18 30  1  0
 20 31  1  6
 21 32  1  0
 25 33  2  0
 26 33  1  0
 27 34  1  0
 28 35  2  0
 20 36  1  0
 32 37  1  0
 34 38  2  0
 35 38  1  0
 36 39  1  6
 36 40  1  0
 38 41  1  0
 37 42  1  0
 39 43  1  0
 40 44  1  0
 41 45  1  0
 41 46  1  0
 41 47  1  0
 42 48  2  0
 43 49  1  1
 44 50  1  6
 42 51  1  0
 43 52  1  0
 44 52  1  0
 49 53  2  0
 50 54  2  0
 50 55  2  0
 51 56  2  0
 51 57  1  0
 49 58  1  0
 52 59  1  6
 52 60  1  0
 56 61  1  0
 57 62  2  0
 56 63  1  0
 58 64  1  0
 58 65  1  0
 59 66  2  0
 60 67  2  0
 62 68  1  0
 63 68  2  0
 64 69  1  0
 65 70  1  0
 66 71  1  0
 67 71  1  0
 71 72  1  1
 69 73  1  0
 70 73  1  0
M  END
