x3110-x2193-x0689
     RDKit          3D

 53 57  0  0  0  0  0  0  0  0999 V2000
    7.8360    1.1670   23.2080 N   0  0  0  0  0  0  0  0  0  0  0  0
    8.7210    2.2500   23.4580 C   0  0  0  0  0  0  0  0  0  0  0  0
   10.0950    1.9990   23.5440 C   0  0  0  0  0  0  0  0  0  0  0  0
    7.6680    0.6070   21.9010 C   0  0  0  0  0  0  0  0  0  0  0  0
    8.4910    0.9620   21.0600 O   0  0  0  0  0  0  0  0  0  0  0  0
    6.5750   -0.2840   21.5550 C   0  0  2  0  0  0  0  0  0  0  0  0
    6.9410   -1.7340   21.7230 N   0  0  0  0  0  0  0  0  0  0  0  0
   10.8950    3.2800   23.4520 C   0  0  0  0  0  0  0  0  0  0  0  0
    6.2310    0.1520   20.1180 C   0  0  0  0  0  0  0  0  0  0  0  0
   11.8370    3.1980   22.4780 O   0  0  0  0  0  0  0  0  0  0  0  0
   10.7220    4.2640   24.1510 O   0  0  0  0  0  0  0  0  0  0  0  0
    6.0850   -2.9220   21.1950 C   0  0  0  0  0  0  0  0  0  0  0  0
    5.1190    0.9650   20.2870 C   0  0  0  0  0  0  0  0  0  0  0  0
    6.8870   -0.1770   18.9370 C   0  0  0  0  0  0  0  0  0  0  0  0
    8.2420   -1.7460   22.4070 C   0  0  0  0  0  0  0  0  0  0  0  0
   12.2850    4.4660   21.9680 C   0  0  0  0  0  0  0  0  0  0  0  0
    4.8090   -2.9930   21.2160 O   0  0  0  0  0  0  0  0  0  0  0  0
    6.5190   -4.3020   20.5820 C   0  0  1  0  0  0  0  0  0  0  0  0
    6.4050    0.3590   17.7960 N   0  0  0  0  0  0  0  0  0  0  0  0
    4.6340    1.5080   19.0870 C   0  0  0  0  0  0  0  0  0  0  0  0
    9.4160   -1.8490   21.6740 C   0  0  0  0  0  0  0  0  0  0  0  0
    8.3670   -1.6250   23.8260 C   0  0  0  0  0  0  0  0  0  0  0  0
   13.4230    5.0010   22.8280 C   0  0  0  0  0  0  0  0  0  0  0  0
    7.6810   -3.4320   20.1480 C   0  0  0  0  0  0  0  0  0  0  0  0
    5.2370    1.2390   17.8510 C   0  0  0  0  0  0  0  0  0  0  0  0
   10.6980   -1.8570   22.1780 C   0  0  0  0  0  0  0  0  0  0  0  0
    9.6650   -1.6170   24.4050 C   0  0  0  0  0  0  0  0  0  0  0  0
    6.6140   -5.2770   21.6910 N   0  0  0  0  0  0  0  0  0  0  0  0
   10.9230   -1.7480   23.5280 C   0  0  0  0  0  0  0  0  0  0  0  0
    5.6070   -6.2860   21.9860 C   0  0  0  0  0  0  0  0  0  0  0  0
    7.2060   -4.7550   22.9080 C   0  0  0  0  0  0  0  0  0  0  0  0
   12.3430   -1.7390   24.1330 C   0  0  0  0  0  0  0  0  0  0  0  0
    4.7130   -5.8380   23.1640 C   0  0  0  0  0  0  0  0  0  0  0  0
    6.1360   -4.1910   23.8240 C   0  0  0  0  0  0  0  0  0  0  0  0
   12.6100   -0.3930   24.7280 C   0  0  0  0  0  0  0  0  0  0  0  0
   13.3610   -1.9610   23.0630 C   0  0  0  0  0  0  0  0  0  0  0  0
   12.5910   -2.8080   25.2010 C   0  0  0  0  0  0  0  0  0  0  0  0
    5.3230   -5.3220   24.2650 N   0  0  0  0  0  0  0  0  0  0  0  0
    4.5680   -5.2530   25.7840 S   0  0  1  0  0  0  0  0  0  0  0  0
    3.9330   -6.5090   26.1140 O   0  0  0  0  0  0  0  0  0  0  0  0
    5.6110   -4.7480   27.0630 N   0  0  0  0  0  0  0  0  0  0  0  0
    3.3410   -3.9640   25.7180 C   0  0  0  0  0  0  0  0  0  0  0  0
    6.6840   -5.5850   27.3650 C   0  0  0  0  0  0  0  0  0  0  0  0
    3.8400   -2.2870   26.0560 S   0  0  0  0  0  0  0  0  0  0  0  0
    1.8650   -3.9710   25.4200 C   0  0  0  0  0  0  0  0  0  0  0  0
    7.8420   -5.2590   26.4040 C   0  0  2  0  0  0  0  0  0  0  0  0
    1.2460   -2.6070   25.4960 C   0  0  0  0  0  0  0  0  0  0  0  0
    2.3110   -1.5910   25.8540 C   0  0  0  0  0  0  0  0  0  0  0  0
    8.7360   -6.2160   26.2150 N   0  0  0  0  0  0  0  0  0  0  0  0
    8.5390   -4.1340   26.7720 C   0  0  0  0  0  0  0  0  0  0  0  0
    9.2740   -3.6030   25.5990 N   0  0  0  0  0  0  0  0  0  0  0  0
    9.3450   -5.9140   24.9170 C   0  0  0  0  0  0  0  0  0  0  0  0
   10.1160   -4.6140   24.9660 C   0  0  0  0  0  0  0  0  0  0  0  0
  1  2  1  0
  2  3  1  0
  1  4  1  0
  4  5  2  0
  6  4  1  6
  6  7  1  0
  3  8  1  0
  6  9  1  0
  8 10  1  0
  8 11  2  0
  7 12  1  0
  9 13  2  0
  9 14  1  0
  7 15  1  0
 10 16  1  0
 12 17  2  0
 12 18  1  0
 14 19  2  0
 13 20  1  0
 15 21  2  0
 15 22  1  0
 16 23  1  0
 18 24  1  1
 19 25  1  0
 20 25  2  0
 21 26  1  0
 22 27  2  0
 18 28  1  0
 26 29  2  0
 27 29  1  0
 28 30  1  0
 28 31  1  0
 29 32  1  0
 30 33  1  0
 31 34  1  0
 32 35  1  0
 32 36  1  0
 32 37  1  0
 33 38  1  0
 34 38  1  0
 38 39  1  0
 39 40  2  0
 39 41  2  0
 39 42  1  6
 41 43  1  0
 42 44  1  0
 42 45  2  0
 46 43  1  1
 45 47  1  0
 44 48  1  0
 47 48  2  0
 46 49  1  0
 46 50  1  0
 50 51  1  0
 49 52  1  0
 51 53  1  0
 52 53  1  0
M  END
