x3117-x1402-x1493-x2776-x2703
     RDKit          3D

 57 62  0  0  0  0  0  0  0  0999 V2000
    6.6490   -1.3920   21.9370 C   0  0  1  0  0  0  0  0  0  0  0  0
    5.7110   -2.3020   21.0030 C   0  0  0  0  0  0  0  0  0  0  0  0
    4.6150   -2.8380   21.3120 O   0  0  0  0  0  0  0  0  0  0  0  0
    6.4560    0.1090   21.6700 C   0  0  1  0  0  0  0  0  0  0  0  0
    5.7760   -2.0370   22.9820 C   0  0  0  0  0  0  0  0  0  0  0  0
    8.1300   -1.5580   22.4240 C   0  0  0  0  0  0  0  0  0  0  0  0
    6.0670   -2.7130   19.7370 C   0  0  0  0  0  0  0  0  0  0  0  0
    7.6650    1.1300   21.8120 C   0  0  0  0  0  0  0  0  0  0  0  0
    5.2520   -3.4670   22.5580 C   0  0  0  0  0  0  0  0  0  0  0  0
    6.0410    0.5150   20.2790 C   0  0  0  0  0  0  0  0  0  0  0  0
    9.2740   -2.0070   21.7530 C   0  0  0  0  0  0  0  0  0  0  0  0
    8.4190   -1.1440   23.8460 C   0  0  0  0  0  0  0  0  0  0  0  0
    6.5370   -4.0740   20.0950 C   0  0  0  0  0  0  0  0  0  0  0  0
    7.5480    2.0130   22.8750 N   0  0  0  0  0  0  0  0  0  0  0  0
    8.6030    1.1510   21.0030 O   0  0  0  0  0  0  0  0  0  0  0  0
    4.9030    1.2840   20.0290 C   0  0  0  0  0  0  0  0  0  0  0  0
    6.7790    0.1670   19.1690 C   0  0  0  0  0  0  0  0  0  0  0  0
   10.6180   -2.0450   22.3410 C   0  0  0  0  0  0  0  0  0  0  0  0
    9.6490   -1.1970   24.3240 C   0  0  0  0  0  0  0  0  0  0  0  0
    6.2640   -4.4780   21.7440 C   0  0  1  0  0  0  0  0  0  0  0  0
    6.4080    0.5830   17.7920 N   0  0  0  0  0  0  0  0  0  0  0  0
    4.4820    1.7160   18.8050 C   0  0  0  0  0  0  0  0  0  0  0  0
    8.3310    3.1760   23.0410 C   0  0  0  0  0  0  0  0  0  0  0  0
   10.7030   -1.6080   23.6290 C   0  0  0  0  0  0  0  0  0  0  0  0
    7.3390   -4.6810   22.8500 C   0  0  0  0  0  0  0  0  0  0  0  0
    5.6490   -5.8930   21.8350 C   0  0  0  0  0  0  0  0  0  0  0  0
   12.1910   -1.6530   24.1440 C   0  0  0  0  0  0  0  0  0  0  0  0
    5.2130    1.3840   17.7040 C   0  0  0  0  0  0  0  0  0  0  0  0
    9.6250    3.1870   23.6390 C   0  0  0  0  0  0  0  0  0  0  0  0
    7.8610    4.5520   22.6000 C   0  0  0  0  0  0  0  0  0  0  0  0
    6.6440   -4.7790   24.2720 C   0  0  2  0  0  0  0  0  0  0  0  0
    4.7740   -6.0960   23.0800 C   0  0  0  0  0  0  0  0  0  0  0  0
   12.3030   -2.9080   24.6790 O   0  0  0  0  0  0  0  0  0  0  0  0
   10.1320    1.8030   24.1070 C   0  0  0  0  0  0  0  0  0  0  0  0
   13.1650   -1.5030   23.0120 C   0  0  0  0  0  0  0  0  0  0  0  0
    6.5320    4.8130   21.9320 C   0  0  0  0  0  0  0  0  0  0  0  0
   12.2800   -0.6180   25.0820 C   0  0  0  0  0  0  0  0  0  0  0  0
    7.6430   -5.3600   25.2740 C   0  0  0  0  0  0  0  0  0  0  0  0
   10.4840    4.3410   23.8580 C   0  0  0  0  0  0  0  0  0  0  0  0
    8.6860    5.5870   22.8290 C   0  0  0  0  0  0  0  0  0  0  0  0
    5.4450   -5.6660   24.3380 N   0  0  0  0  0  0  0  0  0  0  0  0
   13.5810   -2.9320   25.3430 C   0  0  0  0  0  0  0  0  0  0  0  0
    9.1660    1.3700   25.1690 C   0  0  0  0  0  0  0  0  0  0  0  0
    4.4150   -5.5210   25.6500 S   0  0  0  0  0  0  0  0  0  0  0  0
    7.1910   -5.8120   26.6320 C   0  0  0  0  0  0  0  0  0  0  0  0
    8.7970   -5.4730   25.0290 O   0  0  0  0  0  0  0  0  0  0  0  0
   10.0310    5.5320   23.4710 C   0  0  0  0  0  0  0  0  0  0  0  0
   10.7960    6.6730   23.6680 O   0  0  0  0  0  0  0  0  0  0  0  0
    3.2920   -6.3930   25.4390 O   0  0  0  0  0  0  0  0  0  0  0  0
    5.0280   -5.7050   27.1040 O   0  0  0  0  0  0  0  0  0  0  0  0
    3.7990   -3.8730   25.8100 C   0  0  0  0  0  0  0  0  0  0  0  0
   11.7830    6.6180   24.7020 C   0  0  0  0  0  0  0  0  0  0  0  0
    2.0980   -3.7120   25.9440 S   0  0  0  0  0  0  0  0  0  0  0  0
    4.4610   -2.5100   25.8720 C   0  0  0  0  0  0  0  0  0  0  0  0
    3.5050   -1.5160   26.0260 C   0  0  0  0  0  0  0  0  0  0  0  0
    2.2000   -2.0270   26.0860 C   0  0  0  0  0  0  0  0  0  0  0  0
    0.7650   -1.0600   26.2970 Cl  0  0  0  0  0  0  0  0  0  0  0  0
  1  2  1  0
  2  3  2  0
  1  4  1  0
  1  5  1  0
  1  6  1  1
  2  7  1  0
  4  8  1  6
  5  9  1  0
  4 10  1  0
  6 11  2  0
  6 12  1  0
  7 13  1  0
  8 14  1  0
  8 15  2  0
 10 16  2  0
 10 17  1  0
 11 18  1  0
 12 19  2  0
 20  9  1  1
 13 20  1  0
 17 21  2  0
 16 22  1  0
 14 23  1  0
 18 24  2  0
 19 24  1  0
 20 25  1  0
 20 26  1  0
 24 27  1  0
 21 28  1  0
 22 28  2  0
 23 29  2  0
 23 30  1  0
 25 31  1  0
 26 32  1  0
 27 33  1  0
 29 34  1  0
 27 35  1  0
 30 36  1  0
 27 37  1  0
 31 38  1  1
 29 39  1  0
 30 40  2  0
 31 41  1  0
 32 41  1  0
 33 42  1  0
 34 43  1  0
 41 44  1  0
 38 45  1  0
 38 46  2  0
 39 47  2  0
 40 47  1  0
 47 48  1  0
 44 49  2  0
 44 50  2  0
 44 51  1  0
 48 52  1  0
 51 53  1  0
 51 54  2  0
 54 55  1  0
 53 56  1  0
 55 56  2  0
 56 57  1  0
M  END
