x3110-x1308
     RDKit          3D

 50 54  0  0  0  0  0  0  0  0999 V2000
    7.9030    1.3280   23.3610 N   0  0  0  0  0  0  0  0  0  0  0  0
    8.7420    2.4940   23.5400 C   0  0  0  0  0  0  0  0  0  0  0  0
   10.2530    2.1370   23.5750 C   0  0  0  0  0  0  0  0  0  0  0  0
    7.6900    0.9390   21.9560 C   0  0  0  0  0  0  0  0  0  0  0  0
    8.4470    1.3640   21.0490 O   0  0  0  0  0  0  0  0  0  0  0  0
    6.4400    0.0200   21.7450 C   0  0  2  0  0  0  0  0  0  0  0  0
    6.6840   -1.4340   22.1680 C   0  0  2  0  0  0  0  0  0  0  0  0
   11.2170    3.3360   23.3520 C   0  0  0  0  0  0  0  0  0  0  0  0
    6.0810    0.3770   20.2860 C   0  0  0  0  0  0  0  0  0  0  0  0
   12.0370    3.2470   22.4330 O   0  0  0  0  0  0  0  0  0  0  0  0
   11.1050    4.3150   24.0950 O   0  0  0  0  0  0  0  0  0  0  0  0
    6.0360   -2.6310   21.3650 C   0  0  0  0  0  0  0  0  0  0  0  0
    5.9260   -1.9580   23.4410 C   0  0  0  0  0  0  0  0  0  0  0  0
    4.9960    1.2290   20.1030 C   0  0  0  0  0  0  0  0  0  0  0  0
    6.8450   -0.1270   19.0790 C   0  0  0  0  0  0  0  0  0  0  0  0
    8.2310   -1.5300   22.5950 C   0  0  0  0  0  0  0  0  0  0  0  0
   12.4450    4.5270   21.9330 C   0  0  0  0  0  0  0  0  0  0  0  0
    4.8130   -2.9120   20.9240 O   0  0  0  0  0  0  0  0  0  0  0  0
    7.0040   -3.6810   21.2840 C   0  0  2  0  0  0  0  0  0  0  0  0
    5.5790   -3.3350   23.3880 C   0  0  0  0  0  0  0  0  0  0  0  0
    6.3760    0.3470   17.7820 N   0  0  0  0  0  0  0  0  0  0  0  0
    4.6090    1.6300   18.8540 C   0  0  0  0  0  0  0  0  0  0  0  0
    9.2870   -1.9330   21.7550 C   0  0  0  0  0  0  0  0  0  0  0  0
    8.5690   -1.1970   23.8620 C   0  0  0  0  0  0  0  0  0  0  0  0
   13.4070    5.2220   22.8830 C   0  0  0  0  0  0  0  0  0  0  0  0
    6.8430   -4.3080   19.9590 C   0  0  0  0  0  0  0  0  0  0  0  0
    5.3190    1.1710   17.7810 C   0  0  0  0  0  0  0  0  0  0  0  0
   10.5680   -1.9970   22.1860 C   0  0  0  0  0  0  0  0  0  0  0  0
    9.8760   -1.2500   24.3190 C   0  0  0  0  0  0  0  0  0  0  0  0
    6.5530   -4.3550   22.5730 C   0  0  0  0  0  0  0  0  0  0  0  0
   10.9170   -1.6540   23.5060 C   0  0  0  0  0  0  0  0  0  0  0  0
    7.6550   -4.7460   23.2920 C   0  0  0  0  0  0  0  0  0  0  0  0
    5.7880   -5.6570   22.2650 C   0  0  0  0  0  0  0  0  0  0  0  0
   12.3530   -1.6960   24.0560 C   0  0  0  0  0  0  0  0  0  0  0  0
    7.2600   -5.0350   24.7190 C   0  0  0  0  0  0  0  0  0  0  0  0
    5.2470   -6.2500   23.5560 C   0  0  0  0  0  0  0  0  0  0  0  0
   12.5950   -0.5400   24.7650 C   0  0  0  0  0  0  0  0  0  0  0  0
   13.3490   -1.6600   22.8780 C   0  0  0  0  0  0  0  0  0  0  0  0
   12.6450   -2.8980   24.7260 C   0  0  0  0  0  0  0  0  0  0  0  0
    5.8990   -5.6180   24.7360 N   0  0  0  0  0  0  0  0  0  0  0  0
    5.2060   -5.7170   26.2430 S   0  0  0  0  0  0  0  0  0  0  0  0
    6.2130   -5.3290   27.2080 O   0  0  0  0  0  0  0  0  0  0  0  0
    4.5170   -6.9850   26.3330 O   0  0  0  0  0  0  0  0  0  0  0  0
    3.9630   -4.4480   26.2510 C   0  0  0  0  0  0  0  0  0  0  0  0
    4.3170   -3.1420   26.5850 C   0  0  0  0  0  0  0  0  0  0  0  0
    2.6530   -4.7660   25.9340 C   0  0  0  0  0  0  0  0  0  0  0  0
    3.3380   -2.1530   26.6140 C   0  0  0  0  0  0  0  0  0  0  0  0
    1.6570   -3.7720   25.9610 C   0  0  0  0  0  0  0  0  0  0  0  0
    1.9730   -2.4520   26.3070 C   0  0  0  0  0  0  0  0  0  0  0  0
    0.7600   -1.2420   26.3720 Cl  0  0  0  0  0  0  0  0  0  0  0  0
  1  2  1  0
  2  3  1  0
  1  4  1  0
  4  5  2  0
  6  4  1  6
  6  7  1  0
  3  8  1  0
  6  9  1  0
  8 10  1  0
  8 11  2  0
  7 12  1  0
  7 13  1  0
  9 14  2  0
  9 15  1  0
  7 16  1  1
 10 17  1  0
 12 18  2  0
 12 19  1  0
 13 20  1  0
 15 21  2  0
 14 22  1  0
 16 23  2  0
 16 24  1  0
 17 25  1  0
 19 26  1  6
 21 27  1  0
 22 27  2  0
 23 28  1  0
 24 29  2  0
 19 30  1  0
 30 20  1  0
 28 31  2  0
 29 31  1  0
 30 32  1  0
 30 33  1  0
 31 34  1  0
 32 35  1  0
 33 36  1  0
 34 37  1  0
 34 38  1  0
 34 39  1  0
 35 40  1  0
 36 40  1  0
 40 41  1  0
 41 42  2  0
 41 43  2  0
 41 44  1  0
 44 45  2  0
 44 46  1  0
 45 47  1  0
 46 48  2  0
 47 49  2  0
 48 49  1  0
 49 50  1  0
M  END
