x3117-x1493-x2776-x2703
     RDKit          3D

 47 50  0  0  0  0  0  0  0  0999 V2000
    6.6250   -1.3770   22.0260 C   0  0  1  0  0  0  0  0  0  0  0  0
    5.9120   -2.6970   21.3120 C   0  0  0  0  0  0  0  0  0  0  0  0
    4.7380   -2.8450   20.8920 O   0  0  0  0  0  0  0  0  0  0  0  0
    6.6670    0.0790   21.4480 C   0  0  1  0  0  0  0  0  0  0  0  0
    5.6760   -1.0780   23.2030 C   0  0  0  0  0  0  0  0  0  0  0  0
    8.0830   -1.5160   22.5840 C   0  0  0  0  0  0  0  0  0  0  0  0
    6.5830   -4.0570   21.2370 C   0  0  1  0  0  0  0  0  0  0  0  0
    7.7340    1.0150   21.7670 C   0  0  0  0  0  0  0  0  0  0  0  0
    6.0450    0.4790   20.1480 C   0  0  0  0  0  0  0  0  0  0  0  0
    9.2690   -1.7790   21.6940 C   0  0  0  0  0  0  0  0  0  0  0  0
    8.4160   -1.3570   24.0280 C   0  0  0  0  0  0  0  0  0  0  0  0
    6.8760   -3.3600   19.8790 C   0  0  0  0  0  0  0  0  0  0  0  0
    7.6830    1.7280   22.7090 N   0  0  0  0  0  0  0  0  0  0  0  0
    8.6960    1.1220   21.0070 O   0  0  0  0  0  0  0  0  0  0  0  0
    4.8590    1.1840   20.0690 C   0  0  0  0  0  0  0  0  0  0  0  0
    6.7240    0.1430   18.9770 C   0  0  0  0  0  0  0  0  0  0  0  0
   10.5560   -1.8310   22.2770 C   0  0  0  0  0  0  0  0  0  0  0  0
    9.7050   -1.4170   24.5060 C   0  0  0  0  0  0  0  0  0  0  0  0
    7.4860   -4.3970   22.4600 C   0  0  1  0  0  0  0  0  0  0  0  0
    6.3770    0.4210   17.8900 N   0  0  0  0  0  0  0  0  0  0  0  0
    4.4720    1.5010   18.8190 C   0  0  0  0  0  0  0  0  0  0  0  0
    8.3920    3.0350   22.9340 C   0  0  0  0  0  0  0  0  0  0  0  0
   10.7780   -1.6420   23.6530 C   0  0  0  0  0  0  0  0  0  0  0  0
    6.8390   -4.1830   23.8260 C   0  0  0  0  0  0  0  0  0  0  0  0
    7.6730   -5.8370   22.3450 N   0  0  0  0  0  0  0  0  0  0  0  0
   12.1740   -1.6600   24.2330 C   0  0  0  0  0  0  0  0  0  0  0  0
    5.2110    1.1380   17.7370 C   0  0  0  0  0  0  0  0  0  0  0  0
    9.6470    3.0130   23.5590 C   0  0  0  0  0  0  0  0  0  0  0  0
    7.8040    4.3900   22.5200 C   0  0  0  0  0  0  0  0  0  0  0  0
    6.0960   -5.3070   24.2330 N   0  0  0  0  0  0  0  0  0  0  0  0
    6.4220   -6.6060   22.2400 C   0  0  0  0  0  0  0  0  0  0  0  0
   12.3580   -2.7330   24.8070 O   0  0  0  0  0  0  0  0  0  0  0  0
   10.1920    1.6930   23.9750 C   0  0  0  0  0  0  0  0  0  0  0  0
   13.1420   -1.6250   23.0700 C   0  0  0  0  0  0  0  0  0  0  0  0
    6.4520    4.6010   21.8330 C   0  0  0  0  0  0  0  0  0  0  0  0
   12.3230   -0.6130   25.1250 C   0  0  0  0  0  0  0  0  0  0  0  0
    5.6870   -5.4450   25.6350 C   0  0  0  0  0  0  0  0  0  0  0  0
   10.4670    4.1330   23.8580 C   0  0  0  0  0  0  0  0  0  0  0  0
    8.7210    5.5060   22.8770 C   0  0  0  0  0  0  0  0  0  0  0  0
    5.3790   -5.9770   23.1530 C   0  0  0  0  0  0  0  0  0  0  0  0
   13.6280   -2.9390   25.4050 C   0  0  0  0  0  0  0  0  0  0  0  0
    9.3430    1.2400   24.9770 C   0  0  0  0  0  0  0  0  0  0  0  0
    4.7840   -6.4180   26.0710 C   0  0  0  0  0  0  0  0  0  0  0  0
    6.0790   -4.6890   26.7760 O   0  0  0  0  0  0  0  0  0  0  0  0
    9.9970    5.4620   23.5140 C   0  0  0  0  0  0  0  0  0  0  0  0
   10.6820    6.6400   23.7590 O   0  0  0  0  0  0  0  0  0  0  0  0
   11.7620    6.5800   24.6970 C   0  0  0  0  0  0  0  0  0  0  0  0
  1  2  1  0
  2  3  2  0
  1  4  1  0
  1  5  1  1
  1  6  1  0
  2  7  1  0
  4  8  1  6
  4  9  1  0
  6 10  2  0
  6 11  1  0
  7 12  1  6
  8 13  1  0
  8 14  2  0
  9 15  2  0
  9 16  1  0
 10 17  1  0
 11 18  2  0
  7 19  1  0
 16 20  2  0
 15 21  1  0
 13 22  1  0
 17 23  2  0
 18 23  1  0
 19 24  1  1
 19 25  1  0
 23 26  1  0
 20 27  1  0
 21 27  2  0
 22 28  2  0
 22 29  1  0
 24 30  1  0
 25 31  1  0
 26 32  1  0
 28 33  1  0
 26 34  1  0
 29 35  1  0
 26 36  1  0
 30 37  1  0
 28 38  1  0
 29 39  2  0
 30 40  1  0
 31 40  1  0
 32 41  1  0
 33 42  1  0
 37 43  1  0
 37 44  2  0
 38 45  2  0
 39 45  1  0
 45 46  1  0
 46 47  1  0
M  END
