x3117-x1382
     RDKit          3D

 34 36  0  0  0  0  0  0  0  0999 V2000
    6.8860   -1.4670   21.7880 N   0  0  0  0  0  0  0  0  0  0  0  0
    6.0720   -2.7220   21.5750 C   0  0  0  0  0  0  0  0  0  0  0  0
    4.8030   -2.9830   21.2440 O   0  0  0  0  0  0  0  0  0  0  0  0
    6.5330   -0.0900   21.6280 C   0  0  1  0  0  0  0  0  0  0  0  0
    8.1960   -1.5360   22.3800 C   0  0  0  0  0  0  0  0  0  0  0  0
    6.8150   -4.0430   21.7620 C   0  0  0  0  0  0  0  0  0  0  0  0
    7.7150    0.9490   21.8450 C   0  0  0  0  0  0  0  0  0  0  0  0
    6.0200    0.3020   20.2900 C   0  0  0  0  0  0  0  0  0  0  0  0
    9.3550   -1.3350   21.6630 C   0  0  0  0  0  0  0  0  0  0  0  0
    8.3600   -1.7930   23.7280 C   0  0  0  0  0  0  0  0  0  0  0  0
    6.7690   -4.8290   20.4510 C   0  0  0  0  0  0  0  0  0  0  0  0
    7.5350    1.7060   23.1260 N   0  0  0  0  0  0  0  0  0  0  0  0
    8.6580    1.1850   21.0620 O   0  0  0  0  0  0  0  0  0  0  0  0
    7.1160   -1.9890   24.4810 C   0  0  0  0  0  0  0  0  0  0  0  0
    4.8790    1.0560   20.1960 C   0  0  0  0  0  0  0  0  0  0  0  0
    6.6450   -0.0290   19.1150 C   0  0  0  0  0  0  0  0  0  0  0  0
   10.6020   -1.3990   22.2950 C   0  0  0  0  0  0  0  0  0  0  0  0
    9.6560   -1.8830   24.4830 C   0  0  0  0  0  0  0  0  0  0  0  0
    6.2750    0.3090   17.8710 N   0  0  0  0  0  0  0  0  0  0  0  0
    4.4470    1.4330   19.0030 C   0  0  0  0  0  0  0  0  0  0  0  0
    8.2450    2.8260   23.4980 C   0  0  0  0  0  0  0  0  0  0  0  0
   10.7510   -1.6860   23.7540 C   0  0  0  0  0  0  0  0  0  0  0  0
   12.1770   -1.7410   24.4190 C   0  0  0  0  0  0  0  0  0  0  0  0
    5.1170    1.0850   17.8400 C   0  0  0  0  0  0  0  0  0  0  0  0
    9.7610    2.5970   23.6230 C   0  0  0  0  0  0  0  0  0  0  0  0
    8.1320    4.0140   22.5320 C   0  0  0  0  0  0  0  0  0  0  0  0
   12.3040   -0.5100   25.2460 C   0  0  0  0  0  0  0  0  0  0  0  0
   13.2980   -1.9720   23.4940 C   0  0  0  0  0  0  0  0  0  0  0  0
   12.1320   -3.0430   25.2810 C   0  0  0  0  0  0  0  0  0  0  0  0
   10.4010    3.8410   23.7080 C   0  0  0  0  0  0  0  0  0  0  0  0
    8.6340    5.2430   23.3400 C   0  0  0  0  0  0  0  0  0  0  0  0
    9.5610    4.8100   24.3340 O   0  0  0  0  0  0  0  0  0  0  0  0
   13.0090   -2.7210   22.2320 C   0  0  0  0  0  0  0  0  0  0  0  0
   13.4030   -1.7340   20.9360 Cl  0  0  0  0  0  0  0  0  0  0  0  0
  1  2  1  0
  2  3  2  0
  1  4  1  0
  1  5  1  0
  2  6  1  0
  4  7  1  6
  4  8  1  0
  5  9  2  0
  5 10  1  0
  6 11  1  0
  7 12  1  0
  7 13  2  0
 10 14  1  0
  8 15  2  0
  8 16  1  0
  9 17  1  0
 10 18  2  0
 16 19  2  0
 15 20  1  0
 12 21  1  0
 17 22  2  0
 18 22  1  0
 22 23  1  0
 19 24  1  0
 20 24  2  0
 21 25  1  0
 21 26  1  0
 23 27  1  0
 23 28  1  0
 23 29  1  0
 25 30  1  0
 26 31  1  0
 30 32  1  0
 31 32  1  0
 28 33  1  0
 33 34  1  0
M  END
