x3110-x2754-x0161
     RDKit          3D

 54 58  0  0  0  0  0  0  0  0999 V2000
    7.9300    1.2430   23.4320 N   0  0  0  0  0  0  0  0  0  0  0  0
    8.6430    2.5370   23.6390 C   0  0  0  0  0  0  0  0  0  0  0  0
    9.9790    2.5370   23.4130 C   0  0  0  0  0  0  0  0  0  0  0  0
    7.7820    0.8660   22.0050 C   0  0  0  0  0  0  0  0  0  0  0  0
    8.5340    1.3930   20.9730 O   0  0  0  0  0  0  0  0  0  0  0  0
    6.6540   -0.1590   21.5440 C   0  0  2  0  0  0  0  0  0  0  0  0
    7.0660   -1.6110   21.5730 N   0  0  0  0  0  0  0  0  0  0  0  0
    6.1050    0.3620   20.2230 C   0  0  0  0  0  0  0  0  0  0  0  0
   10.7330    3.6900   23.3920 C   0  0  0  0  0  0  0  0  0  0  0  0
   10.5230    1.2430   23.1850 C   0  0  0  0  0  0  0  0  0  0  0  0
   10.1660    5.1260   23.6250 C   0  0  0  0  0  0  0  0  0  0  0  0
    6.2350   -2.8710   21.3380 C   0  0  0  0  0  0  0  0  0  0  0  0
    4.9150    1.2360   20.1230 C   0  0  0  0  0  0  0  0  0  0  0  0
    6.8240   -0.0340   19.1040 C   0  0  0  0  0  0  0  0  0  0  0  0
    8.3000   -1.6480   22.3840 C   0  0  0  0  0  0  0  0  0  0  0  0
   11.8470    1.0840   22.9210 C   0  0  0  0  0  0  0  0  0  0  0  0
   12.2270    3.5070   23.1000 C   0  0  0  0  0  0  0  0  0  0  0  0
   13.2410    4.6370   23.0260 C   0  0  0  0  0  0  0  0  0  0  0  0
    4.9630   -3.0790   20.8980 O   0  0  0  0  0  0  0  0  0  0  0  0
   11.1180    5.9100   23.5960 O   0  0  0  0  0  0  0  0  0  0  0  0
    9.6650    5.2730   24.9600 O   0  0  0  0  0  0  0  0  0  0  0  0
    9.0560    5.4090   22.8680 N   0  0  0  0  0  0  0  0  0  0  0  0
    6.3790    0.4370   17.9210 N   0  0  0  0  0  0  0  0  0  0  0  0
    4.5510    1.6550   18.8690 C   0  0  0  0  0  0  0  0  0  0  0  0
    9.4750   -2.0150   21.7490 C   0  0  0  0  0  0  0  0  0  0  0  0
    8.4020   -1.3440   23.7020 C   0  0  0  0  0  0  0  0  0  0  0  0
   12.7270    2.2710   22.8830 C   0  0  0  0  0  0  0  0  0  0  0  0
    6.9020   -4.1860   21.7230 C   0  0  1  0  0  0  0  0  0  0  0  0
   13.0970    5.4280   21.7230 C   0  0  0  0  0  0  0  0  0  0  0  0
    8.2760   -4.6570   21.1390 C   0  0  0  0  0  0  0  0  0  0  0  0
    5.2880    1.2580   17.7710 C   0  0  0  0  0  0  0  0  0  0  0  0
   10.7320   -2.1050   22.3160 C   0  0  0  0  0  0  0  0  0  0  0  0
    9.7710   -1.4270   24.3660 C   0  0  0  0  0  0  0  0  0  0  0  0
    7.3940   -3.9490   23.2020 C   0  0  0  0  0  0  0  0  0  0  0  0
    5.8670   -5.2830   22.0510 C   0  0  0  0  0  0  0  0  0  0  0  0
   11.0090   -1.8410   23.6020 C   0  0  0  0  0  0  0  0  0  0  0  0
    6.4010   -3.1650   23.7760 C   0  0  0  0  0  0  0  0  0  0  0  0
    5.0350   -4.8760   23.1210 C   0  0  0  0  0  0  0  0  0  0  0  0
   12.4710   -1.9490   24.1850 C   0  0  0  0  0  0  0  0  0  0  0  0
    5.1490   -3.5950   23.5700 C   0  0  1  0  0  0  0  0  0  0  0  0
   12.8180   -0.6470   24.7640 C   0  0  0  0  0  0  0  0  0  0  0  0
   13.3770   -2.1630   23.0160 C   0  0  0  0  0  0  0  0  0  0  0  0
   12.7380   -2.9540   24.9970 C   0  0  0  0  0  0  0  0  0  0  0  0
    4.3210   -3.3370   24.8430 C   0  0  0  0  0  0  0  0  0  0  0  0
   13.4520    0.0670   23.9960 O   0  0  0  0  0  0  0  0  0  0  0  0
    3.1860   -3.7960   24.9000 O   0  0  0  0  0  0  0  0  0  0  0  0
    4.8670   -2.6020   25.8300 N   0  0  0  0  0  0  0  0  0  0  0  0
    4.0210   -1.7240   26.4030 C   0  0  0  0  0  0  0  0  0  0  0  0
    5.6870   -3.2450   26.7870 C   0  0  0  0  0  0  0  0  0  0  0  0
    5.7720   -4.7910   26.7310 C   0  0  0  0  0  0  0  0  0  0  0  0
    6.2860   -2.4370   27.6380 C   0  0  0  0  0  0  0  0  0  0  0  0
    6.6180   -5.4790   27.7560 C   0  0  0  0  0  0  0  0  0  0  0  0
    7.1370   -3.0660   28.6860 C   0  0  0  0  0  0  0  0  0  0  0  0
    7.2910   -4.5780   28.7250 C   0  0  0  0  0  0  0  0  0  0  0  0
  1  2  1  0
  2  3  1  0
  1  4  1  0
  4  5  2  0
  6  4  1  6
  6  7  1  0
  6  8  1  0
  3  9  2  0
  3 10  1  0
  9 11  1  0
  7 12  1  0
  8 13  2  0
  8 14  1  0
  7 15  1  0
 10 16  2  0
  9 17  1  0
 17 18  1  0
 12 19  2  0
 11 20  1  0
 11 21  1  0
 11 22  1  0
 14 23  2  0
 13 24  1  0
 15 25  2  0
 15 26  1  0
 16 27  1  0
 17 27  2  0
 28 12  1  0
 18 29  1  0
 28 30  1  6
 23 31  1  0
 24 31  2  0
 25 32  1  0
 26 33  2  0
 28 34  1  0
 28 35  1  0
 32 36  2  0
 33 36  1  0
 34 37  1  0
 35 38  1  0
 36 39  1  0
 37 40  1  0
 38 40  1  0
 39 41  1  0
 39 42  1  0
 39 43  1  0
 40 44  1  1
 41 45  2  0
 44 46  2  0
 44 47  1  0
 47 48  1  0
 47 49  1  0
 49 50  2  0
 49 51  1  0
 50 52  1  0
 51 53  2  0
 52 54  2  0
 53 54  1  0
M  END
