x3110-x0820-x0540
     RDKit          3D

 55 60  0  0  0  0  0  0  0  0999 V2000
    7.7890    1.0850   23.3330 N   0  0  0  0  0  0  0  0  0  0  0  0
    8.7830    2.1430   23.6160 C   0  0  0  0  0  0  0  0  0  0  0  0
   10.2870    1.8710   23.6000 C   0  0  0  0  0  0  0  0  0  0  0  0
    7.6510    0.4590   22.0190 C   0  0  0  0  0  0  0  0  0  0  0  0
    8.5480    0.8160   20.9890 O   0  0  0  0  0  0  0  0  0  0  0  0
    6.5560   -0.4730   21.8030 C   0  0  2  0  0  0  0  0  0  0  0  0
    7.0260   -1.9970   21.8850 C   0  0  2  0  0  0  0  0  0  0  0  0
   11.0110    3.2460   23.4010 C   0  0  0  0  0  0  0  0  0  0  0  0
    6.1180    0.0350   20.3880 C   0  0  0  0  0  0  0  0  0  0  0  0
   11.8700    3.1890   22.5200 O   0  0  0  0  0  0  0  0  0  0  0  0
   10.7450    4.2470   24.0540 O   0  0  0  0  0  0  0  0  0  0  0  0
    6.1780   -3.1420   21.2330 C   0  0  0  0  0  0  0  0  0  0  0  0
    6.9150   -3.3170   22.8240 C   0  0  2  0  0  0  0  0  0  0  0  0
    4.9380    0.7760   20.3510 C   0  0  0  0  0  0  0  0  0  0  0  0
    6.8660   -0.2230   19.2740 C   0  0  0  0  0  0  0  0  0  0  0  0
    8.5850   -1.8980   22.4450 C   0  0  0  0  0  0  0  0  0  0  0  0
   12.2350    4.4720   21.9850 C   0  0  0  0  0  0  0  0  0  0  0  0
    5.0300   -3.2010   20.6350 O   0  0  0  0  0  0  0  0  0  0  0  0
    6.8920   -4.3380   21.5900 C   0  0  2  0  0  0  0  0  0  0  0  0
    4.2430    0.9970   21.4650 C   0  0  0  0  0  0  0  0  0  0  0  0
    6.5000    0.2750   17.9150 N   0  0  0  0  0  0  0  0  0  0  0  0
    4.5180    1.2800   19.1320 C   0  0  0  0  0  0  0  0  0  0  0  0
    9.7410   -2.2580   21.8020 C   0  0  0  0  0  0  0  0  0  0  0  0
    8.7120   -1.3300   23.8770 C   0  0  0  0  0  0  0  0  0  0  0  0
    5.9250   -3.6800   24.0540 C   0  0  0  0  0  0  0  0  0  0  0  0
   13.3580    5.0890   22.8560 C   0  0  0  0  0  0  0  0  0  0  0  0
    8.2790   -4.7440   21.0610 C   0  0  0  0  0  0  0  0  0  0  0  0
    4.9040    1.8180   22.5520 C   0  0  0  0  0  0  0  0  0  0  0  0
    5.2750    1.0660   17.8450 C   0  0  0  0  0  0  0  0  0  0  0  0
   10.9630   -2.1310   22.3840 C   0  0  0  0  0  0  0  0  0  0  0  0
   10.0010   -1.2420   24.3590 C   0  0  0  0  0  0  0  0  0  0  0  0
    6.3920   -4.3940   25.1990 C   0  0  0  0  0  0  0  0  0  0  0  0
    4.5890   -3.2560   23.9440 C   0  0  0  0  0  0  0  0  0  0  0  0
    4.0870    2.7770   23.0940 N   0  0  0  0  0  0  0  0  0  0  0  0
   11.1190   -1.6320   23.6480 C   0  0  0  0  0  0  0  0  0  0  0  0
    5.5260   -4.6670   26.2920 C   0  0  0  0  0  0  0  0  0  0  0  0
    3.7000   -3.5990   25.1390 C   0  0  0  0  0  0  0  0  0  0  0  0
    7.7220   -4.8740   25.3190 C   0  0  0  0  0  0  0  0  0  0  0  0
   12.5570   -1.5530   24.1470 C   0  0  0  0  0  0  0  0  0  0  0  0
    2.8660    2.2850   23.7360 C   0  0  0  0  0  0  0  0  0  0  0  0
    4.2300   -4.2590   26.2060 C   0  0  0  0  0  0  0  0  0  0  0  0
    5.8970   -5.3350   27.4690 C   0  0  0  0  0  0  0  0  0  0  0  0
    8.2170   -5.6380   26.5580 C   0  0  0  0  0  0  0  0  0  0  0  0
   12.5450   -0.5390   25.0750 C   0  0  0  0  0  0  0  0  0  0  0  0
   13.4030   -1.3780   23.0560 C   0  0  0  0  0  0  0  0  0  0  0  0
   12.9050   -2.7750   24.8060 C   0  0  0  0  0  0  0  0  0  0  0  0
    2.7940    1.5420   24.7190 O   0  0  0  0  0  0  0  0  0  0  0  0
    1.6490    2.7350   23.0670 N   0  0  0  0  0  0  0  0  0  0  0  0
    7.2840   -5.8810   27.7160 C   0  0  0  0  0  0  0  0  0  0  0  0
    0.5190    3.1870   23.8510 C   0  0  0  0  0  0  0  0  0  0  0  0
    0.5810    4.4910   24.3780 C   0  0  0  0  0  0  0  0  0  0  0  0
   -0.7300    2.9300   23.2920 C   0  0  0  0  0  0  0  0  0  0  0  0
   -0.6380    5.0400   25.1160 C   0  0  0  0  0  0  0  0  0  0  0  0
   -1.8450    3.3620   24.0390 C   0  0  0  0  0  0  0  0  0  0  0  0
   -1.8610    4.7480   24.2290 C   0  0  0  0  0  0  0  0  0  0  0  0
  1  2  1  0
  2  3  1  0
  1  4  1  0
  4  5  2  0
  6  4  1  6
  6  7  1  0
  3  8  1  0
  6  9  1  0
  8 10  1  0
  8 11  2  0
  7 12  1  0
  7 13  1  0
  9 14  1  0
  9 15  2  0
  7 16  1  6
 10 17  1  0
 12 18  2  0
 12 19  1  0
 13 19  1  0
 14 20  1  0
 15 21  1  0
 14 22  2  0
 16 23  2  0
 16 24  1  0
 13 25  1  6
 17 26  1  0
 19 27  1  6
 20 28  1  0
 21 29  2  0
 22 29  1  0
 23 30  1  0
 24 31  2  0
 25 32  1  0
 25 33  2  0
 28 34  1  0
 30 35  2  0
 31 35  1  0
 32 36  2  0
 33 37  1  0
 32 38  1  0
 35 39  1  0
 34 40  1  0
 36 41  1  0
 37 41  2  0
 36 42  1  0
 38 43  2  0
 39 44  1  0
 39 45  1  0
 39 46  1  0
 40 47  2  0
 40 48  1  0
 42 49  2  0
 43 49  1  0
 48 50  1  0
 50 51  1  0
 50 52  1  0
 51 53  1  0
 52 54  1  0
 53 55  1  0
 54 55  1  0
M  END
