x3113-x1119-x0540-x3110-x2754-x1348-x0946
     RDKit          3D

 92100  0  0  0  0  0  0  0  0999 V2000
    8.0130    0.9660   23.4020 N   0  0  0  0  0  0  0  0  0  0  0  0
    8.7230    2.2570   23.7690 C   0  0  0  0  0  0  0  0  0  0  0  0
   10.2290    2.3450   23.4590 C   0  0  0  0  0  0  0  0  0  0  0  0
    7.7580    0.6260   21.9510 C   0  0  0  0  0  0  0  0  0  0  0  0
    8.5220    1.3440   20.9440 O   0  0  0  0  0  0  0  0  0  0  0  0
    6.7390   -0.3470   21.5040 C   0  0  2  0  0  0  0  0  0  0  0  0
    7.0950   -1.8220   21.5890 N   0  0  0  0  0  0  0  0  0  0  0  0
    6.1780    0.1900   20.1840 C   0  0  0  0  0  0  0  0  0  0  0  0
   11.0340    3.5120   23.3890 C   0  0  0  0  0  0  0  0  0  0  0  0
   10.8660    1.0150   23.2010 C   0  0  0  0  0  0  0  0  0  0  0  0
   10.4270    4.9050   23.7000 C   0  0  0  0  0  0  0  0  0  0  0  0
    6.2760   -3.0750   21.1180 C   0  0  0  0  0  0  0  0  0  0  0  0
    4.9590    0.8440   20.2030 C   0  0  0  0  0  0  0  0  0  0  0  0
    6.8760    0.0370   18.9930 C   0  0  0  0  0  0  0  0  0  0  0  0
    8.4700   -1.9140   22.2570 C   0  0  0  0  0  0  0  0  0  0  0  0
   12.1860    0.9370   22.8830 C   0  0  0  0  0  0  0  0  0  0  0  0
   12.3930    3.3430   23.0310 C   0  0  0  0  0  0  0  0  0  0  0  0
   13.4780    4.4490   22.8440 C   0  0  2  0  0  0  0  0  0  0  0  0
    4.9820   -3.1060   20.8270 O   0  0  0  0  0  0  0  0  0  0  0  0
    6.8590   -4.5160   21.1240 C   0  0  1  0  0  0  0  0  0  0  0  0
    4.1370    1.0230   21.4540 C   0  0  0  0  0  0  0  0  0  0  0  0
   10.0370    5.6190   22.4840 N   0  0  0  0  0  0  0  0  0  0  0  0
   11.1650    5.4590   24.5240 O   0  0  0  0  0  0  0  0  0  0  0  0
    9.5220    4.7550   24.4660 O   0  0  0  0  0  0  0  0  0  0  0  0
    6.4550    0.5140   17.8090 N   0  0  0  0  0  0  0  0  0  0  0  0
    4.4510    1.3700   19.0200 C   0  0  0  0  0  0  0  0  0  0  0  0
    9.6270   -1.4270   21.6740 C   0  0  0  0  0  0  0  0  0  0  0  0
    8.5980   -2.5530   23.6420 C   0  0  0  0  0  0  0  0  0  0  0  0
   12.9240    2.0760   22.7940 C   0  0  0  0  0  0  0  0  0  0  0  0
   12.8340    5.6410   22.0800 C   0  0  0  0  0  0  0  0  0  0  0  0
    7.7170   -3.5250   20.2730 C   0  0  0  0  0  0  0  0  0  0  0  0
    4.7910    1.8360   22.3770 C   0  0  0  0  0  0  0  0  0  0  0  0
   14.8490    4.0420   22.2300 C   0  0  0  0  0  0  0  0  0  0  0  0
    5.1820    1.2170   17.8460 C   0  0  0  0  0  0  0  0  0  0  0  0
   10.8840   -1.4860   22.2710 C   0  0  0  0  0  0  0  0  0  0  0  0
    9.8330   -2.6390   24.3040 C   0  0  0  0  0  0  0  0  0  0  0  0
    6.7870   -4.7460   22.5920 N   0  0  0  0  0  0  0  0  0  0  0  0
    4.0760    2.8690   22.8740 N   0  0  0  0  0  0  0  0  0  0  0  0
   15.9590    4.7950   22.5710 C   0  0  0  0  0  0  0  0  0  0  0  0
   11.1000   -2.0910   23.6680 C   0  0  0  0  0  0  0  0  0  0  0  0
    6.4120   -5.9450   23.2410 C   0  0  1  0  0  0  0  0  0  0  0  0
    5.8100   -3.9170   22.9960 C   0  0  0  0  0  0  0  0  0  0  0  0
   12.5280   -2.0590   24.2560 C   0  0  0  0  0  0  0  0  0  0  0  0
    2.8990    2.4980   23.5010 C   0  0  0  0  0  0  0  0  0  0  0  0
   17.1650    4.4310   23.4600 C   0  0  0  0  0  0  0  0  0  0  0  0
    6.6440   -5.7510   24.7870 C   0  0  1  0  0  0  0  0  0  0  0  0
    5.0040   -6.0760   22.9110 C   0  0  2  0  0  0  0  0  0  0  0  0
    4.1060   -4.4820   23.2470 S   0  0  0  0  0  0  0  0  0  0  0  0
   12.7960   -0.8330   24.8590 C   0  0  0  0  0  0  0  0  0  0  0  0
   13.4540   -2.2270   23.1030 C   0  0  0  0  0  0  0  0  0  0  0  0
   12.8340   -3.1710   25.2630 C   0  0  0  0  0  0  0  0  0  0  0  0
    2.8770    1.5100   24.4750 O   0  0  0  0  0  0  0  0  0  0  0  0
    1.8630    3.1990   23.0600 N   0  0  0  0  0  0  0  0  0  0  0  0
    6.9230   -4.4330   24.9840 O   0  0  0  0  0  0  0  0  0  0  0  0
   18.6170    5.1190   23.3700 C   0  0  0  0  0  0  0  0  0  0  0  0
    4.2610   -6.9810   23.8410 C   0  0  0  0  0  0  0  0  0  0  0  0
    5.5180   -6.1370   25.7910 C   0  0  0  0  0  0  0  0  0  0  0  0
   19.0520    6.5190   23.6370 C   0  0  0  0  0  0  0  0  0  0  0  0
    0.6450    3.3830   23.8510 C   0  0  0  0  0  0  0  0  0  0  0  0
    4.4880   -7.0060   25.1540 C   0  0  0  0  0  0  0  0  0  0  0  0
    7.3570   -4.2480   26.1620 C   0  0  0  0  0  0  0  0  0  0  0  0
   20.4120    6.9050   23.1870 N   0  0  0  0  0  0  0  0  0  0  0  0
    0.6420    4.6770   24.4040 C   0  0  0  0  0  0  0  0  0  0  0  0
   -0.4860    3.1070   23.0490 C   0  0  0  0  0  0  0  0  0  0  0  0
    8.6240   -4.8270   26.2630 C   0  0  0  0  0  0  0  0  0  0  0  0
    6.7300   -3.6180   27.1740 C   0  0  0  0  0  0  0  0  0  0  0  0
    5.4310   -3.0260   27.0480 N   0  0  0  0  0  0  0  0  0  0  0  0
   -0.5920    4.9680   25.3040 C   0  0  0  0  0  0  0  0  0  0  0  0
   -1.8110    3.2650   23.7150 C   0  0  0  0  0  0  0  0  0  0  0  0
    9.3110   -4.7870   27.4110 C   0  0  0  0  0  0  0  0  0  0  0  0
    7.4320   -3.5890   28.3460 C   0  0  0  0  0  0  0  0  0  0  0  0
   21.3300    6.0120   23.6260 C   0  0  0  0  0  0  0  0  0  0  0  0
    4.9190   -2.7860   25.8030 C   0  0  0  0  0  0  0  0  0  0  0  0
    5.0450   -2.0540   28.0650 C   0  0  0  0  0  0  0  0  0  0  0  0
   -1.8600    4.5630   24.5050 C   0  0  0  0  0  0  0  0  0  0  0  0
    8.7180   -4.1760   28.4320 C   0  0  0  0  0  0  0  0  0  0  0  0
   22.4460    5.6220   22.8760 C   0  0  0  0  0  0  0  0  0  0  0  0
   21.1100    5.4660   24.8750 C   0  0  0  0  0  0  0  0  0  0  0  0
    3.7330   -2.9290   25.4530 O   0  0  0  0  0  0  0  0  0  0  0  0
   23.3110    4.6610   23.3940 C   0  0  0  0  0  0  0  0  0  0  0  0
   21.9430    4.5260   25.3880 C   0  0  0  0  0  0  0  0  0  0  0  0
   23.0200    4.1200   24.6490 C   0  0  0  0  0  0  0  0  0  0  0  0
   23.9890    2.8570   25.3820 S   0  0  0  0  0  0  0  0  0  0  0  0
   23.0970    1.7390   25.4030 O   0  0  0  0  0  0  0  0  0  0  0  0
   24.1590    3.3470   26.9670 N   0  0  0  0  0  0  0  0  0  0  0  0
   25.2560    2.7690   24.7050 O   0  0  0  0  0  0  0  0  0  0  0  0
   25.0130    4.4190   27.2400 C   0  0  0  0  0  0  0  0  0  0  0  0
   25.0620    4.6700   28.5630 N   0  0  0  0  0  0  0  0  0  0  0  0
   25.7130    5.1240   26.2780 C   0  0  0  0  0  0  0  0  0  0  0  0
   25.8600    5.6900   28.9460 C   0  0  0  0  0  0  0  0  0  0  0  0
   26.5260    6.1660   26.7030 C   0  0  0  0  0  0  0  0  0  0  0  0
   26.6040    6.4590   28.0630 C   0  0  0  0  0  0  0  0  0  0  0  0
  1  2  1  0
  2  3  1  0
  1  4  1  0
  4  5  2  0
  6  4  1  6
  6  7  1  0
  6  8  1  0
  3  9  2  0
  3 10  1  0
  9 11  1  0
  7 12  1  0
  8 13  1  0
  8 14  2  0
  7 15  1  0
 10 16  2  0
  9 17  1  0
 17 18  1  0
 12 19  2  0
 12 20  1  0
 13 21  1  0
 11 22  1  0
 11 23  1  0
 11 24  1  0
 14 25  1  0
 13 26  2  0
 15 27  2  0
 15 28  1  0
 16 29  1  0
 17 29  2  0
 18 30  1  6
 20 31  1  1
 21 32  1  0
 18 33  1  0
 25 34  2  0
 26 34  1  0
 27 35  1  0
 28 36  2  0
 20 37  1  0
 32 38  1  0
 33 39  1  0
 35 40  2  0
 36 40  1  0
 41 37  1  6
 37 42  1  0
 40 43  1  0
 38 44  1  0
 39 45  1  0
 41 46  1  0
 41 47  1  0
 42 48  2  0
 47 48  1  0
 43 49  1  0
 43 50  1  0
 43 51  1  0
 44 52  2  0
 44 53  1  0
 46 54  1  6
 45 55  1  0
 47 56  1  1
 46 57  1  0
 55 58  1  0
 53 59  1  0
 56 60  2  0
 57 60  1  0
 54 61  1  0
 58 62  1  0
 59 63  1  0
 59 64  1  0
 61 65  2  0
 61 66  1  0
 66 67  1  0
 63 68  1  0
 64 69  1  0
 65 70  1  0
 66 71  2  0
 62 72  1  0
 67 73  1  0
 67 74  1  0
 68 75  1  0
 69 75  1  0
 70 76  2  0
 71 76  1  0
 72 77  2  0
 72 78  1  0
 73 79  2  0
 77 80  1  0
 78 81  2  0
 80 82  2  0
 81 82  1  0
 82 83  1  0
 83 84  2  0
 83 85  1  0
 83 86  2  0
 85 87  1  0
 87 88  2  0
 87 89  1  0
 88 90  1  0
 89 91  2  0
 90 92  2  0
 91 92  1  0
M  END
