x3117-x0752
     RDKit          3D

 41 45  0  0  0  0  0  0  0  0999 V2000
    6.8880   -1.5560   21.9650 N   0  0  0  0  0  0  0  0  0  0  0  0
    6.1470   -2.8040   21.5760 C   0  0  0  0  0  0  0  0  0  0  0  0
    4.8500   -3.0760   21.3180 O   0  0  0  0  0  0  0  0  0  0  0  0
    6.5840   -0.1760   21.7150 C   0  0  1  0  0  0  0  0  0  0  0  0
    8.2300   -1.6240   22.5050 C   0  0  0  0  0  0  0  0  0  0  0  0
    7.0310   -4.0560   21.4130 C   0  0  2  0  0  0  0  0  0  0  0  0
    7.7970    0.8010   21.9900 C   0  0  0  0  0  0  0  0  0  0  0  0
    6.0670    0.2170   20.3610 C   0  0  0  0  0  0  0  0  0  0  0  0
    9.3220   -1.9940   21.7500 C   0  0  0  0  0  0  0  0  0  0  0  0
    8.4780   -1.2940   23.8310 C   0  0  0  0  0  0  0  0  0  0  0  0
    6.7970   -4.5910   20.0450 C   0  0  0  0  0  0  0  0  0  0  0  0
    7.4970    1.7410   23.1290 N   0  0  0  0  0  0  0  0  0  0  0  0
    8.8600    0.8420   21.3520 O   0  0  0  0  0  0  0  0  0  0  0  0
    6.8320   -5.1250   22.4930 C   0  0  0  0  0  0  0  0  0  0  0  0
    4.9170    0.9700   20.2550 C   0  0  0  0  0  0  0  0  0  0  0  0
    6.6980   -0.1120   19.1780 C   0  0  0  0  0  0  0  0  0  0  0  0
   10.6370   -2.0480   22.2180 C   0  0  0  0  0  0  0  0  0  0  0  0
    9.8440   -1.3060   24.4690 C   0  0  0  0  0  0  0  0  0  0  0  0
    6.3360    0.2160   17.9210 N   0  0  0  0  0  0  0  0  0  0  0  0
    4.5130    1.3250   19.0410 C   0  0  0  0  0  0  0  0  0  0  0  0
    8.2300    2.8620   23.4850 C   0  0  0  0  0  0  0  0  0  0  0  0
   10.8560   -1.6700   23.6550 C   0  0  0  0  0  0  0  0  0  0  0  0
    5.7840   -4.5520   23.3670 C   0  0  0  0  0  0  0  0  0  0  0  0
   12.3500   -1.7060   24.1540 C   0  0  0  0  0  0  0  0  0  0  0  0
    5.1760    0.9830   17.8760 C   0  0  0  0  0  0  0  0  0  0  0  0
    9.7400    2.6340   23.6810 C   0  0  0  0  0  0  0  0  0  0  0  0
    8.1450    4.0130   22.4670 C   0  0  0  0  0  0  0  0  0  0  0  0
    4.4570   -5.2710   23.3950 C   0  0  0  0  0  0  0  0  0  0  0  0
    5.9940   -3.3930   24.1160 C   0  0  0  0  0  0  0  0  0  0  0  0
   12.5150   -0.5450   25.0890 C   0  0  0  0  0  0  0  0  0  0  0  0
   13.2630   -1.8010   22.9780 C   0  0  0  0  0  0  0  0  0  0  0  0
   12.6850   -3.0010   24.9520 C   0  0  0  0  0  0  0  0  0  0  0  0
   10.4610    3.8310   23.5810 C   0  0  0  0  0  0  0  0  0  0  0  0
    8.7000    5.2690   23.1960 C   0  0  0  0  0  0  0  0  0  0  0  0
    3.4610   -4.7440   24.1710 C   0  0  0  0  0  0  0  0  0  0  0  0
    4.9180   -2.8220   24.9520 C   0  0  0  0  0  0  0  0  0  0  0  0
    9.7180    4.9190   24.1270 O   0  0  0  0  0  0  0  0  0  0  0  0
    3.6880   -3.4780   24.9730 C   0  0  0  0  0  0  0  0  0  0  0  0
    2.1950   -5.2080   24.3500 O   0  0  0  0  0  0  0  0  0  0  0  0
    2.5780   -3.1360   25.6510 O   0  0  0  0  0  0  0  0  0  0  0  0
    1.6860   -4.2330   25.3060 C   0  0  0  0  0  0  0  0  0  0  0  0
  1  2  1  0
  2  3  2  0
  1  4  1  0
  1  5  1  0
  2  6  1  0
  4  7  1  6
  4  8  1  0
  5  9  2  0
  5 10  1  0
  6 11  1  6
  7 12  1  0
  7 13  2  0
  6 14  1  0
  8 15  2  0
  8 16  1  0
  9 17  1  0
 10 18  2  0
 16 19  2  0
 15 20  1  0
 12 21  1  0
 17 22  2  0
 18 22  1  0
 14 23  1  0
 22 24  1  0
 19 25  1  0
 20 25  2  0
 21 26  1  0
 21 27  1  0
 23 28  2  0
 23 29  1  0
 24 30  1  0
 24 31  1  0
 24 32  1  0
 26 33  1  0
 27 34  1  0
 28 35  1  0
 29 36  2  0
 33 37  1  0
 34 37  1  0
 35 38  2  0
 36 38  1  0
 35 39  1  0
 38 40  1  0
 39 41  1  0
 40 41  1  0
M  END
