x3117-x1348-x1458
     RDKit          3D

 47 52  0  0  0  0  0  0  0  0999 V2000
    6.9570   -1.4630   21.6350 N   0  0  0  0  0  0  0  0  0  0  0  0
    6.1530   -2.7080   21.3340 C   0  0  0  0  0  0  0  0  0  0  0  0
    4.8650   -2.9860   21.0480 O   0  0  0  0  0  0  0  0  0  0  0  0
    6.5380   -0.0590   21.4860 C   0  0  1  0  0  0  0  0  0  0  0  0
    8.2610   -1.5630   22.3960 C   0  0  0  0  0  0  0  0  0  0  0  0
    7.0020   -3.9300   21.4830 C   0  0  2  0  0  0  0  0  0  0  0  0
    7.6810    1.0540   21.7650 C   0  0  0  0  0  0  0  0  0  0  0  0
    6.0320    0.4110   20.1150 C   0  0  0  0  0  0  0  0  0  0  0  0
    9.4370   -2.0200   21.7970 C   0  0  0  0  0  0  0  0  0  0  0  0
    8.4690   -1.2080   23.7260 C   0  0  0  0  0  0  0  0  0  0  0  0
    6.7290   -3.8360   19.9900 C   0  0  0  0  0  0  0  0  0  0  0  0
    7.6190    1.9290   22.9470 N   0  0  0  0  0  0  0  0  0  0  0  0
    8.6130    1.2340   20.9910 O   0  0  0  0  0  0  0  0  0  0  0  0
    4.9020    1.2270   20.1310 C   0  0  0  0  0  0  0  0  0  0  0  0
    6.6780    0.0680   18.9330 C   0  0  0  0  0  0  0  0  0  0  0  0
   10.7070   -2.1410   22.3800 C   0  0  0  0  0  0  0  0  0  0  0  0
    9.8380   -1.3300   24.4010 C   0  0  0  0  0  0  0  0  0  0  0  0
    6.2910   -4.7750   22.4450 C   0  0  0  0  0  0  0  0  0  0  0  0
    6.3100    0.4860   17.6660 N   0  0  0  0  0  0  0  0  0  0  0  0
    4.4990    1.6750   18.8660 C   0  0  0  0  0  0  0  0  0  0  0  0
    8.4390    3.1130   22.9820 C   0  0  0  0  0  0  0  0  0  0  0  0
   10.9530   -1.7970   23.7130 C   0  0  0  0  0  0  0  0  0  0  0  0
    6.6410   -4.4460   23.7900 N   0  0  0  0  0  0  0  0  0  0  0  0
    5.1400   -6.0360   22.1730 S   0  0  0  0  0  0  0  0  0  0  0  0
   12.2260   -1.9170   24.3440 C   0  0  0  0  0  0  0  0  0  0  0  0
    5.1480    1.3480   17.6830 C   0  0  0  0  0  0  0  0  0  0  0  0
    9.6030    2.9050   23.7550 C   0  0  0  0  0  0  0  0  0  0  0  0
    7.7740    4.2980   23.3660 C   0  0  0  0  0  0  0  0  0  0  0  0
    5.9660   -5.2690   24.6870 C   0  0  0  0  0  0  0  0  0  0  0  0
    5.0690   -6.2320   23.9460 C   0  0  0  0  0  0  0  0  0  0  0  0
   12.4730   -0.7490   25.0730 C   0  0  0  0  0  0  0  0  0  0  0  0
   13.3400   -2.1640   23.3880 C   0  0  0  0  0  0  0  0  0  0  0  0
   12.0870   -3.1270   25.2680 C   0  0  0  0  0  0  0  0  0  0  0  0
   10.5010    3.9650   23.6770 C   0  0  0  0  0  0  0  0  0  0  0  0
    8.7090    5.3940   23.2450 C   0  0  0  0  0  0  0  0  0  0  0  0
    6.1670   -5.1440   26.0330 C   0  0  0  0  0  0  0  0  0  0  0  0
    4.3140   -7.1490   24.9050 C   0  0  0  0  0  0  0  0  0  0  0  0
    7.0240   -4.1100   26.7420 C   0  0  2  0  0  0  0  0  0  0  0  0
    9.8500    5.1630   24.0640 O   0  0  0  0  0  0  0  0  0  0  0  0
    4.5740   -7.0380   26.4170 C   0  0  0  0  0  0  0  0  0  0  0  0
    5.5780   -5.9800   26.9390 C   0  0  0  0  0  0  0  0  0  0  0  0
    7.4490   -4.9170   27.9510 C   0  0  1  0  0  0  0  0  0  0  0  0
    6.1130   -5.6420   28.3110 C   0  0  0  0  0  0  0  0  0  0  0  0
    6.2110   -2.8970   27.2500 C   0  0  0  0  0  0  0  0  0  0  0  0
    7.7900   -3.4970   25.7540 C   0  0  0  0  0  0  0  0  0  0  0  0
    8.6380   -5.7690   27.5990 C   0  0  0  0  0  0  0  0  0  0  0  0
    7.1500   -2.6080   24.9260 O   0  0  0  0  0  0  0  0  0  0  0  0
  1  2  1  0
  2  3  2  0
  1  4  1  0
  1  5  1  0
  2  6  1  0
  4  7  1  6
  4  8  1  0
  5  9  2  0
  5 10  1  0
  6 11  1  6
  7 12  1  0
  7 13  2  0
  8 14  2  0
  8 15  1  0
  9 16  1  0
 10 17  2  0
  6 18  1  0
 15 19  2  0
 14 20  1  0
 12 21  1  0
 16 22  2  0
 17 22  1  0
 18 23  2  0
 18 24  1  0
 22 25  1  0
 19 26  1  0
 20 26  2  0
 21 27  1  0
 21 28  1  0
 23 29  1  0
 24 30  1  0
 29 30  2  0
 25 31  1  0
 25 32  1  0
 25 33  1  0
 27 34  1  0
 28 35  1  0
 29 36  1  0
 30 37  1  0
 36 38  1  0
 34 39  1  0
 35 39  1  0
 37 40  2  0
 36 41  2  0
 40 41  1  0
 38 42  1  0
 41 43  1  0
 42 43  1  0
 38 44  1  1
 38 45  1  0
 42 46  1  6
 45 47  2  0
M  END
