x3113-x3115-x0769-x0540-x0689-x3110-x0820-x0731-x0978-x0946
     RDKit          3D

 83 91  0  0  0  0  0  0  0  0999 V2000
    7.7450    1.1120   23.1410 N   0  0  0  0  0  0  0  0  0  0  0  0
    8.1070    2.5440   23.0390 C   0  0  1  0  0  0  0  0  0  0  0  0
    7.2460    3.4450   24.0030 C   0  0  0  0  0  0  0  0  0  0  0  0
    7.6350    0.3600   22.0580 C   0  0  0  0  0  0  0  0  0  0  0  0
    8.5380    0.3960   21.1910 O   0  0  0  0  0  0  0  0  0  0  0  0
    6.5270   -0.5610   21.7620 C   0  0  2  0  0  0  0  0  0  0  0  0
    9.7990    2.7870   22.9980 C   0  0  0  0  0  0  0  0  0  0  0  0
    7.0520   -2.0710   21.8390 C   0  0  2  0  0  0  0  0  0  0  0  0
    6.9350    4.8400   23.6250 O   0  0  0  0  0  0  0  0  0  0  0  0
    5.8990    0.0100   20.3450 C   0  0  0  0  0  0  0  0  0  0  0  0
   10.4870    4.0820   23.0760 C   0  0  0  0  0  0  0  0  0  0  0  0
   10.5860    1.7540   22.9160 C   0  0  0  0  0  0  0  0  0  0  0  0
    9.8560    5.5330   23.1060 C   0  0  0  0  0  0  0  0  0  0  0  0
    5.7580   -2.8750   20.9770 C   0  0  0  0  0  0  0  0  0  0  0  0
    6.7040    5.2250   22.3010 C   0  0  0  0  0  0  0  0  0  0  0  0
    6.4260   -3.7140   22.4880 C   0  0  1  0  0  0  0  0  0  0  0  0
    4.6060    0.6880   20.2040 C   0  0  0  0  0  0  0  0  0  0  0  0
    6.7150   -0.0650   19.0180 C   0  0  0  0  0  0  0  0  0  0  0  0
    8.6810   -2.2180   22.1060 C   0  0  0  0  0  0  0  0  0  0  0  0
   11.9420    1.7170   22.9230 C   0  0  0  0  0  0  0  0  0  0  0  0
   11.9600    4.0180   23.0600 C   0  0  0  0  0  0  0  0  0  0  0  0
   12.7110    5.3200   23.0650 C   0  0  0  0  0  0  0  0  0  0  0  0
    4.6190   -2.7110   20.4900 O   0  0  0  0  0  0  0  0  0  0  0  0
    6.3420   -4.1530   20.8490 C   0  0  2  0  0  0  0  0  0  0  0  0
    3.7590    0.9830   21.2760 C   0  0  0  0  0  0  0  0  0  0  0  0
    9.2420    6.5310   23.2850 O   0  0  0  0  0  0  0  0  0  0  0  0
    9.6100    5.0120   24.4340 O   0  0  0  0  0  0  0  0  0  0  0  0
    6.2360    0.2540   17.8180 N   0  0  0  0  0  0  0  0  0  0  0  0
    4.1850    1.1360   18.9290 C   0  0  0  0  0  0  0  0  0  0  0  0
    9.8960   -2.3260   21.3390 C   0  0  0  0  0  0  0  0  0  0  0  0
    8.9570   -2.2240   23.3640 C   0  0  0  0  0  0  0  0  0  0  0  0
    6.9570   -5.0690   22.4380 N   0  0  0  0  0  0  0  0  0  0  0  0
    5.5510   -3.8520   23.8790 C   0  0  1  0  0  0  0  0  0  0  0  0
   12.7270    2.9080   23.0260 C   0  0  0  0  0  0  0  0  0  0  0  0
   13.2970    5.8770   21.7120 C   0  0  0  0  0  0  0  0  0  0  0  0
    6.8020   -3.6140   19.4450 C   0  0  0  0  0  0  0  0  0  0  0  0
    4.3900    2.0210   22.1860 C   0  0  0  0  0  0  0  0  0  0  0  0
    4.9390    0.9390   17.7300 C   0  0  0  0  0  0  0  0  0  0  0  0
   11.3750   -2.4500   21.8390 C   0  0  0  0  0  0  0  0  0  0  0  0
   10.2790   -2.4160   24.3760 C   0  0  0  0  0  0  0  0  0  0  0  0
    5.9290   -6.3320   22.5710 C   0  0  0  0  0  0  0  0  0  0  0  0
    4.5880   -4.9560   23.9400 N   0  0  0  0  0  0  0  0  0  0  0  0
    6.5030   -4.1760   25.3960 C   0  0  2  0  0  0  0  0  0  0  0  0
    4.5640   -2.4910   24.2540 C   0  0  0  0  0  0  0  0  0  0  0  0
    3.6290    3.1050   22.6530 N   0  0  0  0  0  0  0  0  0  0  0  0
   11.5590   -2.4730   23.4820 C   0  0  0  0  0  0  0  0  0  0  0  0
    4.6020   -5.9350   22.8860 C   0  0  2  0  0  0  0  0  0  0  0  0
    5.4480   -4.0840   26.3520 C   0  0  0  0  0  0  0  0  0  0  0  0
    4.1170   -2.1370   25.5800 C   0  0  0  0  0  0  0  0  0  0  0  0
    7.8440   -4.0700   26.0020 C   0  0  0  0  0  0  0  0  0  0  0  0
   12.8290   -2.7030   24.3640 C   0  0  0  0  0  0  0  0  0  0  0  0
    3.3630   -6.9860   23.2220 C   0  0  2  0  0  0  0  0  0  0  0  0
    2.7310    2.7170   23.5180 C   0  0  0  0  0  0  0  0  0  0  0  0
    4.1910   -3.2140   26.8920 C   0  0  0  0  0  0  0  0  0  0  0  0
    5.7900   -5.0680   27.4310 C   0  0  0  0  0  0  0  0  0  0  0  0
    8.0370   -4.5780   27.3000 C   0  0  0  0  0  0  0  0  0  0  0  0
   13.4580   -1.3440   24.9720 C   0  0  0  0  0  0  0  0  0  0  0  0
   14.0020   -2.8570   23.2980 C   0  0  0  0  0  0  0  0  0  0  0  0
   13.0470   -3.6390   25.5420 C   0  0  0  0  0  0  0  0  0  0  0  0
    2.3110   -6.2110   22.8500 N   0  0  0  0  0  0  0  0  0  0  0  0
    3.2390   -7.6020   24.6740 C   0  0  1  0  0  0  0  0  0  0  0  0
    2.9380    2.0610   24.5590 O   0  0  0  0  0  0  0  0  0  0  0  0
    1.4290    3.2180   23.0320 N   0  0  0  0  0  0  0  0  0  0  0  0
    3.1720   -2.5090   27.3300 C   0  0  0  0  0  0  0  0  0  0  0  0
    7.1810   -5.2380   27.9090 C   0  0  0  0  0  0  0  0  0  0  0  0
    2.3040   -8.8760   24.8020 C   0  0  0  0  0  0  0  0  0  0  0  0
    4.4770   -8.0650   25.0140 O   0  0  0  0  0  0  0  0  0  0  0  0
    1.0260   -6.5480   22.4790 C   0  0  0  0  0  0  0  0  0  0  0  0
    0.2530    3.3850   23.8740 C   0  0  0  0  0  0  0  0  0  0  0  0
    3.4250   -1.6950   28.3280 C   0  0  0  0  0  0  0  0  0  0  0  0
    1.8930   -2.7930   26.4580 C   0  0  0  0  0  0  0  0  0  0  0  0
    0.7610   -7.7540   21.7710 O   0  0  0  0  0  0  0  0  0  0  0  0
   -0.0840   -5.5700   22.8270 C   0  0  0  0  0  0  0  0  0  0  0  0
    4.6490   -1.4770   29.0500 F   0  0  0  0  0  0  0  0  0  0  0  0
    0.2630    4.7480   24.6440 C   0  0  0  0  0  0  0  0  0  0  0  0
   -0.8920    3.2680   23.0410 C   0  0  0  0  0  0  0  0  0  0  0  0
    0.6350   -2.2140   26.3520 C   0  0  0  0  0  0  0  0  0  0  0  0
    2.3600   -0.8880   28.5700 C   0  0  0  0  0  0  0  0  0  0  0  0
   -0.8090   -1.3590   26.4220 C   0  0  0  0  0  0  0  0  0  0  0  0
   -0.9810    4.9710   25.2920 C   0  0  0  0  0  0  0  0  0  0  0  0
   -2.1410    3.4760   23.6580 C   0  0  0  0  0  0  0  0  0  0  0  0
    1.0520   -0.9160   27.6630 C   0  0  0  0  0  0  0  0  0  0  0  0
   -2.1770    4.6850   24.5850 C   0  0  0  0  0  0  0  0  0  0  0  0
  1  2  1  0
  2  3  1  1
  1  4  1  0
  4  5  2  0
  6  4  1  6
  2  7  1  0
  6  8  1  0
  3  9  1  0
  6 10  1  0
  7 11  2  0
  7 12  1  0
 11 13  1  0
  8 14  1  0
  9 15  1  0
  8 16  1  0
 10 17  1  0
 10 18  2  0
  8 19  1  6
 12 20  2  0
 11 21  1  0
 21 22  1  0
 14 23  2  0
 14 24  1  0
 16 24  1  0
 17 25  1  0
 13 26  2  0
 13 27  1  0
 18 28  1  0
 17 29  2  0
 19 30  2  0
 19 31  1  0
 16 32  1  1
 16 33  1  0
 20 34  1  0
 21 34  2  0
 22 35  1  0
 24 36  1  6
 25 37  1  0
 28 38  2  0
 29 38  1  0
 30 39  1  0
 31 40  2  0
 32 41  1  0
 33 42  1  0
 33 43  1  0
 33 44  1  1
 37 45  1  0
 39 46  2  0
 40 46  1  0
 47 41  1  1
 42 47  1  0
 43 48  1  0
 44 49  2  0
 43 50  1  1
 46 51  1  0
 47 52  1  0
 45 53  1  0
 48 54  2  0
 49 54  1  0
 48 55  1  0
 50 56  2  0
 51 57  1  0
 51 58  1  0
 51 59  1  0
 52 60  1  1
 52 61  1  0
 53 62  2  0
 53 63  1  0
 54 64  1  0
 55 65  2  0
 56 65  1  0
 61 66  1  6
 61 67  1  0
 60 68  1  0
 63 69  1  0
 64 70  2  0
 64 71  1  0
 68 72  2  0
 68 73  1  0
 70 74  1  0
 69 75  1  0
 69 76  1  0
 71 77  2  0
 70 78  1  0
 77 79  1  0
 75 80  1  0
 76 81  1  0
 77 82  1  0
 78 82  2  0
 80 83  1  0
 81 83  1  0
M  END
