x3113-x1382
     RDKit          3D

 33 34  0  0  0  0  0  0  0  0999 V2000
    7.0920   -1.8120   21.7930 N   0  0  0  0  0  0  0  0  0  0  0  0
    6.2040   -3.0090   21.5370 C   0  0  0  0  0  0  0  0  0  0  0  0
    4.9360   -3.1120   21.1330 O   0  0  0  0  0  0  0  0  0  0  0  0
    6.7360   -0.3340   21.6490 C   0  0  1  0  0  0  0  0  0  0  0  0
    8.4160   -1.8730   22.4760 C   0  0  0  0  0  0  0  0  0  0  0  0
    6.8390   -4.3750   21.8010 C   0  0  0  0  0  0  0  0  0  0  0  0
    7.8520    0.5800   21.8930 C   0  0  0  0  0  0  0  0  0  0  0  0
    6.2410    0.1480   20.3140 C   0  0  0  0  0  0  0  0  0  0  0  0
    9.5610   -2.2400   21.8140 C   0  0  0  0  0  0  0  0  0  0  0  0
    8.5650   -1.5340   23.8040 C   0  0  0  0  0  0  0  0  0  0  0  0
    8.1620   -4.7120   21.0510 C   0  0  0  0  0  0  0  0  0  0  0  0
    8.0200    1.1550   23.1270 N   0  0  0  0  0  0  0  0  0  0  0  0
    8.6250    0.8970   21.0100 O   0  0  0  0  0  0  0  0  0  0  0  0
    7.3290   -1.1340   24.5890 C   0  0  0  0  0  0  0  0  0  0  0  0
    5.1020    0.9830   20.2920 C   0  0  0  0  0  0  0  0  0  0  0  0
    6.8490   -0.1650   19.1010 C   0  0  0  0  0  0  0  0  0  0  0  0
   10.7850   -2.2450   22.4550 C   0  0  0  0  0  0  0  0  0  0  0  0
    9.7900   -1.5260   24.4620 C   0  0  0  0  0  0  0  0  0  0  0  0
    9.0140    2.1020   23.2450 C   0  0  0  0  0  0  0  0  0  0  0  0
    6.4190    0.2900   17.9010 N   0  0  0  0  0  0  0  0  0  0  0  0
    4.6070    1.4860   19.0810 C   0  0  0  0  0  0  0  0  0  0  0  0
   10.9000   -1.9010   23.6920 C   0  0  0  0  0  0  0  0  0  0  0  0
   10.3380    1.6840   23.1250 C   0  0  0  0  0  0  0  0  0  0  0  0
   12.2860   -1.8700   24.3610 C   0  0  0  0  0  0  0  0  0  0  0  0
    5.2380    1.1650   17.8950 C   0  0  0  0  0  0  0  0  0  0  0  0
   11.2740    2.6820   23.4710 C   0  0  0  0  0  0  0  0  0  0  0  0
   13.3000   -1.8640   23.5040 C   0  0  0  0  0  0  0  0  0  0  0  0
   12.6750   -3.1010   25.1650 C   0  0  0  0  0  0  0  0  0  0  0  0
   12.3870   -0.6890   25.1380 C   0  0  0  0  0  0  0  0  0  0  0  0
   11.5270    3.5590   22.4410 O   0  0  0  0  0  0  0  0  0  0  0  0
   13.1470   -0.8020   22.4530 C   0  0  0  0  0  0  0  0  0  0  0  0
   12.7310    4.3180   22.6050 C   0  0  0  0  0  0  0  0  0  0  0  0
   13.4090   -1.6700   20.9540 Cl  0  0  0  0  0  0  0  0  0  0  0  0
  1  2  1  0
  2  3  2  0
  1  4  1  0
  1  5  1  0
  2  6  1  0
  4  7  1  6
  4  8  1  0
  5  9  2  0
  5 10  1  0
  6 11  1  0
  7 12  1  0
  7 13  2  0
 10 14  1  0
  8 15  2  0
  8 16  1  0
  9 17  1  0
 10 18  2  0
 12 19  1  0
 16 20  2  0
 15 21  1  0
 17 22  2  0
 18 22  1  0
 19 23  1  0
 22 24  1  0
 20 25  1  0
 21 25  2  0
 23 26  1  0
 24 27  1  0
 24 28  1  0
 24 29  1  0
 26 30  1  0
 27 31  1  0
 30 32  1  0
 31 33  1  0
M  END
