x3110-x0755
     RDKit          3D

 51 55  0  0  0  0  0  0  0  0999 V2000
    7.9000    1.2000   23.3170 N   0  0  0  0  0  0  0  0  0  0  0  0
    8.7050    2.3960   23.4850 C   0  0  0  0  0  0  0  0  0  0  0  0
   10.2270    2.0880   23.5730 C   0  0  0  0  0  0  0  0  0  0  0  0
    7.7000    0.7940   21.9110 C   0  0  0  0  0  0  0  0  0  0  0  0
    8.4560    1.2380   21.0130 O   0  0  0  0  0  0  0  0  0  0  0  0
    6.4650   -0.1470   21.6680 C   0  0  2  0  0  0  0  0  0  0  0  0
    6.7180   -1.6370   22.0080 C   0  0  2  0  0  0  0  0  0  0  0  0
   11.1740    3.3050   23.3500 C   0  0  0  0  0  0  0  0  0  0  0  0
    6.0910    0.2900   20.2380 C   0  0  0  0  0  0  0  0  0  0  0  0
   12.0100    3.2220   22.4440 O   0  0  0  0  0  0  0  0  0  0  0  0
   11.0320    4.2900   24.0800 O   0  0  0  0  0  0  0  0  0  0  0  0
    6.0370   -2.8080   21.1200 C   0  0  0  0  0  0  0  0  0  0  0  0
    5.8810   -2.1740   23.2260 C   0  0  0  0  0  0  0  0  0  0  0  0
    4.9930    1.1410   20.0990 C   0  0  0  0  0  0  0  0  0  0  0  0
    6.8590   -0.1340   19.0050 C   0  0  0  0  0  0  0  0  0  0  0  0
    8.2330   -1.6750   22.5420 C   0  0  0  0  0  0  0  0  0  0  0  0
   12.4140    4.5040   21.9450 C   0  0  0  0  0  0  0  0  0  0  0  0
    4.8110   -2.8990   20.6860 O   0  0  0  0  0  0  0  0  0  0  0  0
    6.6950   -4.1180   20.9690 C   0  0  1  0  0  0  0  0  0  0  0  0
    5.2940   -3.4340   22.9880 C   0  0  0  0  0  0  0  0  0  0  0  0
    6.3850    0.4060   17.7370 N   0  0  0  0  0  0  0  0  0  0  0  0
    4.6020    1.6070   18.8720 C   0  0  0  0  0  0  0  0  0  0  0  0
    9.3300   -1.7680   21.6950 C   0  0  0  0  0  0  0  0  0  0  0  0
    8.5040   -1.5940   23.8690 C   0  0  0  0  0  0  0  0  0  0  0  0
   13.4130    5.1840   22.8700 C   0  0  0  0  0  0  0  0  0  0  0  0
    8.2130   -4.1880   20.7620 C   0  0  0  0  0  0  0  0  0  0  0  0
    5.3190    1.2150   17.7750 C   0  0  0  0  0  0  0  0  0  0  0  0
   10.6060   -1.7910   22.1450 C   0  0  0  0  0  0  0  0  0  0  0  0
    9.8080   -1.6080   24.3580 C   0  0  0  0  0  0  0  0  0  0  0  0
    6.2180   -4.5820   22.3430 C   0  0  0  0  0  0  0  0  0  0  0  0
   10.8970   -1.7110   23.5210 C   0  0  0  0  0  0  0  0  0  0  0  0
    7.3310   -4.8750   23.1360 C   0  0  0  0  0  0  0  0  0  0  0  0
    5.4340   -5.9270   22.2620 C   0  0  0  0  0  0  0  0  0  0  0  0
   12.3210   -1.7200   24.1080 C   0  0  0  0  0  0  0  0  0  0  0  0
    6.9720   -5.1020   24.4100 C   0  0  0  0  0  0  0  0  0  0  0  0
    4.8640   -6.2380   23.4850 C   0  0  0  0  0  0  0  0  0  0  0  0
   12.5680   -0.5350   24.7810 C   0  0  0  0  0  0  0  0  0  0  0  0
   13.3480   -1.7460   22.9530 C   0  0  0  0  0  0  0  0  0  0  0  0
   12.5910   -2.8920   24.8340 C   0  0  0  0  0  0  0  0  0  0  0  0
    5.5660   -5.5140   24.5750 N   0  0  0  0  0  0  0  0  0  0  0  0
    4.8730   -5.3400   26.0970 S   0  0  0  0  0  0  0  0  0  0  0  0
    4.1070   -6.5310   26.3780 O   0  0  0  0  0  0  0  0  0  0  0  0
    5.8850   -4.8790   27.0170 O   0  0  0  0  0  0  0  0  0  0  0  0
    3.7540   -3.9710   25.9790 C   0  0  0  0  0  0  0  0  0  0  0  0
    2.3750   -4.1940   25.7800 C   0  0  0  0  0  0  0  0  0  0  0  0
    4.2650   -2.5350   26.0990 C   0  0  0  0  0  0  0  0  0  0  0  0
    1.9030   -5.4400   25.6710 F   0  0  0  0  0  0  0  0  0  0  0  0
    5.5480   -2.1840   26.2880 F   0  0  0  0  0  0  0  0  0  0  0  0
    3.2910   -1.5540   26.0030 C   0  0  0  0  0  0  0  0  0  0  0  0
    1.4380   -3.1440   25.6920 C   0  0  0  0  0  0  0  0  0  0  0  0
    1.9450   -1.8250   25.8120 C   0  0  0  0  0  0  0  0  0  0  0  0
  1  2  1  0
  2  3  1  0
  1  4  1  0
  4  5  2  0
  6  4  1  6
  6  7  1  0
  3  8  1  0
  6  9  1  0
  8 10  1  0
  8 11  2  0
  7 12  1  0
  7 13  1  0
  9 14  2  0
  9 15  1  0
  7 16  1  1
 10 17  1  0
 12 18  2  0
 12 19  1  0
 13 20  1  0
 15 21  2  0
 14 22  1  0
 16 23  2  0
 16 24  1  0
 17 25  1  0
 19 26  1  1
 21 27  1  0
 22 27  2  0
 23 28  1  0
 24 29  2  0
 19 30  1  0
 30 20  1  0
 28 31  2  0
 29 31  1  0
 30 32  1  0
 30 33  1  0
 31 34  1  0
 32 35  1  0
 33 36  1  0
 34 37  1  0
 34 38  1  0
 34 39  1  0
 35 40  1  0
 36 40  1  0
 40 41  1  0
 41 42  2  0
 41 43  2  0
 41 44  1  0
 44 45  2  0
 44 46  1  0
 45 47  1  0
 46 48  1  0
 46 49  2  0
 45 50  1  0
 49 51  1  0
 50 51  2  0
M  END
