x3117-x2776-x3115-x1402
     RDKit          3D

 53 58  0  0  0  0  0  0  0  0999 V2000
    6.6980   -1.4730   21.9760 C   0  0  1  0  0  0  0  0  0  0  0  0
    5.7760   -2.3260   20.9680 C   0  0  0  0  0  0  0  0  0  0  0  0
    4.6400   -2.8250   21.2050 O   0  0  0  0  0  0  0  0  0  0  0  0
    6.5550    0.0250   21.7380 C   0  0  1  0  0  0  0  0  0  0  0  0
    5.9220   -2.1030   23.0910 C   0  0  0  0  0  0  0  0  0  0  0  0
    8.2140   -1.6290   22.4460 C   0  0  0  0  0  0  0  0  0  0  0  0
    6.2290   -2.7410   19.7190 C   0  0  0  0  0  0  0  0  0  0  0  0
    7.8250    0.9280   21.9280 C   0  0  0  0  0  0  0  0  0  0  0  0
    5.4800   -3.3850   22.7940 C   0  0  0  0  0  0  0  0  0  0  0  0
    5.9850    0.5180   20.3990 C   0  0  0  0  0  0  0  0  0  0  0  0
    9.2770   -2.0820   21.7000 C   0  0  0  0  0  0  0  0  0  0  0  0
    8.4890   -1.2550   23.7170 C   0  0  0  0  0  0  0  0  0  0  0  0
    6.5520   -4.1230   20.1600 C   0  0  0  0  0  0  0  0  0  0  0  0
    7.6390    1.9700   22.8270 N   0  0  0  0  0  0  0  0  0  0  0  0
    8.8590    0.7130   21.3040 O   0  0  0  0  0  0  0  0  0  0  0  0
    4.8200    1.2450   20.2550 C   0  0  0  0  0  0  0  0  0  0  0  0
    6.7770    0.1770   19.2900 C   0  0  0  0  0  0  0  0  0  0  0  0
   10.6730   -2.1550   22.2590 C   0  0  0  0  0  0  0  0  0  0  0  0
    9.7070   -1.2900   24.2990 C   0  0  0  0  0  0  0  0  0  0  0  0
    6.2900   -4.4450   21.8060 C   0  0  0  0  0  0  0  0  0  0  0  0
    6.4130    0.5850   17.9300 N   0  0  0  0  0  0  0  0  0  0  0  0
    4.4700    1.6540   18.8550 C   0  0  0  0  0  0  0  0  0  0  0  0
    8.4880    3.1860   23.0340 C   0  0  0  0  0  0  0  0  0  0  0  0
   10.7380   -1.7340   23.5420 C   0  0  0  0  0  0  0  0  0  0  0  0
    7.3900   -4.9310   22.5140 C   0  0  0  0  0  0  0  0  0  0  0  0
    5.3870   -5.7340   21.8460 C   0  0  0  0  0  0  0  0  0  0  0  0
   12.1030   -1.7650   24.1700 C   0  0  0  0  0  0  0  0  0  0  0  0
    5.2380    1.3440   17.7280 C   0  0  0  0  0  0  0  0  0  0  0  0
    9.7480    3.1110   23.6160 C   0  0  0  0  0  0  0  0  0  0  0  0
    8.0570    4.4060   22.6630 C   0  0  0  0  0  0  0  0  0  0  0  0
    7.2390   -4.9880   23.8590 C   0  0  0  0  0  0  0  0  0  0  0  0
    5.3440   -6.4080   23.0640 C   0  0  0  0  0  0  0  0  0  0  0  0
   12.2710   -3.0050   24.7220 O   0  0  0  0  0  0  0  0  0  0  0  0
   10.3310    1.8030   24.0540 C   0  0  0  0  0  0  0  0  0  0  0  0
   13.1710   -1.4150   23.1690 C   0  0  0  0  0  0  0  0  0  0  0  0
   12.2610   -0.5680   25.1140 C   0  0  0  0  0  0  0  0  0  0  0  0
   10.5160    4.1940   23.8230 C   0  0  0  0  0  0  0  0  0  0  0  0
    8.7540    5.5530   22.8240 C   0  0  0  0  0  0  0  0  0  0  0  0
    5.9490   -5.6480   24.1620 N   0  0  0  0  0  0  0  0  0  0  0  0
   13.5650   -2.9820   25.3510 C   0  0  0  0  0  0  0  0  0  0  0  0
    8.1780    6.8620   22.3620 C   0  0  0  0  0  0  0  0  0  0  0  0
    5.1480   -5.5050   25.6290 S   0  0  0  0  0  0  0  0  0  0  0  0
   10.1290    5.4470   23.4840 C   0  0  0  0  0  0  0  0  0  0  0  0
   10.8670    6.6060   23.6820 O   0  0  0  0  0  0  0  0  0  0  0  0
    4.1100   -6.5090   25.6980 O   0  0  0  0  0  0  0  0  0  0  0  0
    6.1580   -5.5730   26.8610 O   0  0  0  0  0  0  0  0  0  0  0  0
    4.2980   -3.9500   25.8040 C   0  0  0  0  0  0  0  0  0  0  0  0
   11.8290    6.6040   24.7360 C   0  0  0  0  0  0  0  0  0  0  0  0
    2.5580   -3.9440   25.8540 S   0  0  0  0  0  0  0  0  0  0  0  0
    4.7580   -2.5220   25.9310 C   0  0  0  0  0  0  0  0  0  0  0  0
    3.5990   -1.5980   26.0630 C   0  0  0  0  0  0  0  0  0  0  0  0
    2.3490   -2.2230   26.0430 C   0  0  0  0  0  0  0  0  0  0  0  0
    0.7890   -1.5190   26.1840 Cl  0  0  0  0  0  0  0  0  0  0  0  0
  1  2  1  0
  2  3  2  0
  1  4  1  0
  1  5  1  0
  1  6  1  1
  2  7  1  0
  4  8  1  6
  5  9  1  0
  4 10  1  0
  6 11  2  0
  6 12  1  0
  7 13  1  0
  8 14  1  0
  8 15  2  0
 10 16  2  0
 10 17  1  0
 11 18  1  0
 12 19  2  0
 20  9  1  0
 13 20  1  0
 17 21  2  0
 16 22  1  0
 14 23  1  0
 18 24  2  0
 19 24  1  0
 20 25  1  0
 20 26  1  0
 24 27  1  0
 21 28  1  0
 22 28  2  0
 23 29  2  0
 23 30  1  0
 25 31  1  0
 26 32  1  0
 27 33  1  0
 29 34  1  0
 27 35  1  0
 27 36  1  0
 29 37  1  0
 30 38  2  0
 31 39  1  0
 32 39  1  0
 33 40  1  0
 38 41  1  0
 39 42  1  0
 37 43  2  0
 38 43  1  0
 43 44  1  0
 42 45  2  0
 42 46  2  0
 42 47  1  0
 44 48  1  0
 47 49  1  0
 47 50  2  0
 50 51  1  0
 49 52  1  0
 51 52  2  0
 52 53  1  0
M  END
