x3113-x0540-x0769
     RDKit          3D

 59 64  0  0  0  0  0  0  0  0999 V2000
    6.8790   -1.7580   22.0970 C   0  0  1  0  0  0  0  0  0  0  0  0
    5.8990   -2.6230   21.1480 C   0  0  0  0  0  0  0  0  0  0  0  0
    4.7100   -2.9950   21.4390 O   0  0  0  0  0  0  0  0  0  0  0  0
    6.6730   -0.2050   21.9140 C   0  0  1  0  0  0  0  0  0  0  0  0
    6.4010   -2.6110   23.2270 C   0  0  0  0  0  0  0  0  0  0  0  0
    8.4390   -1.8370   22.4800 C   0  0  0  0  0  0  0  0  0  0  0  0
    6.2860   -3.1830   19.9030 C   0  0  0  0  0  0  0  0  0  0  0  0
    7.8800    0.7690   22.1110 C   0  0  0  0  0  0  0  0  0  0  0  0
    6.2050    0.2040   20.5280 C   0  0  0  0  0  0  0  0  0  0  0  0
    9.5060   -2.1310   21.6630 C   0  0  0  0  0  0  0  0  0  0  0  0
    8.8140   -1.5740   23.8130 C   0  0  0  0  0  0  0  0  0  0  0  0
    7.1920   -3.9980   23.0140 C   0  0  2  0  0  0  0  0  0  0  0  0
    7.4610   -3.9160   20.3410 C   0  0  0  0  0  0  0  0  0  0  0  0
    8.3510    1.1990   23.4330 N   0  0  0  0  0  0  0  0  0  0  0  0
    8.4730    1.2630   20.8990 O   0  0  0  0  0  0  0  0  0  0  0  0
    4.8940    0.9570   20.3060 C   0  0  0  0  0  0  0  0  0  0  0  0
    6.9570   -0.0670   19.2380 C   0  0  0  0  0  0  0  0  0  0  0  0
   10.8160   -2.1540   22.1630 C   0  0  0  0  0  0  0  0  0  0  0  0
   10.1060   -1.6050   24.2780 C   0  0  0  0  0  0  0  0  0  0  0  0
    6.9400   -4.6280   21.6380 N   0  0  0  0  0  0  0  0  0  0  0  0
    6.8900   -4.8190   24.2180 C   0  0  0  0  0  0  0  0  0  0  0  0
    9.1690    2.4170   23.6100 C   0  0  0  0  0  0  0  0  0  0  0  0
    4.1050    1.2570   21.3810 C   0  0  0  0  0  0  0  0  0  0  0  0
    6.5710    0.3060   18.0010 N   0  0  0  0  0  0  0  0  0  0  0  0
    4.5300    1.3270   19.0060 C   0  0  0  0  0  0  0  0  0  0  0  0
   11.1810   -1.9000   23.4750 C   0  0  0  0  0  0  0  0  0  0  0  0
    5.9840   -5.6840   21.6700 C   0  0  0  0  0  0  0  0  0  0  0  0
    5.4930   -5.2580   24.1020 N   0  0  0  0  0  0  0  0  0  0  0  0
   10.6720    2.1100   23.4750 C   0  0  0  0  0  0  0  0  0  0  0  0
   12.6000   -1.9160   24.0370 C   0  0  0  0  0  0  0  0  0  0  0  0
    4.7500    2.1820   22.1990 C   0  0  0  0  0  0  0  0  0  0  0  0
    4.6920   -5.5480   25.5670 S   0  0  0  0  0  0  0  0  0  0  0  0
    5.2990    1.0430   17.8850 C   0  0  0  0  0  0  0  0  0  0  0  0
    5.0040   -5.6240   22.7340 C   0  0  0  0  0  0  0  0  0  0  0  0
   11.1520    3.5710   23.2740 C   0  0  0  0  0  0  0  0  0  0  0  0
   13.4400   -2.0980   22.9650 C   0  0  0  0  0  0  0  0  0  0  0  0
   12.8530   -2.9650   25.0830 C   0  0  0  0  0  0  0  0  0  0  0  0
   12.7260   -0.5980   24.7730 C   0  0  0  0  0  0  0  0  0  0  0  0
    4.0140    2.9370   23.0740 N   0  0  0  0  0  0  0  0  0  0  0  0
    5.7180   -5.5650   26.5830 O   0  0  0  0  0  0  0  0  0  0  0  0
    3.8010   -6.6680   25.4060 O   0  0  0  0  0  0  0  0  0  0  0  0
    3.6990   -4.0850   25.9350 C   0  0  0  0  0  0  0  0  0  0  0  0
   12.2970    3.5150   22.4360 O   0  0  0  0  0  0  0  0  0  0  0  0
    2.7730    2.5250   23.7130 C   0  0  0  0  0  0  0  0  0  0  0  0
    4.3360   -2.7100   26.3020 C   0  0  0  0  0  0  0  0  0  0  0  0
    2.1630   -4.2260   25.8890 C   0  0  0  0  0  0  0  0  0  0  0  0
   12.9830    4.7400   22.7270 C   0  0  0  0  0  0  0  0  0  0  0  0
    2.6890    1.5140   24.6420 O   0  0  0  0  0  0  0  0  0  0  0  0
    1.7800    3.2480   23.2630 N   0  0  0  0  0  0  0  0  0  0  0  0
    5.6670   -2.5390   26.3520 F   0  0  0  0  0  0  0  0  0  0  0  0
    1.3550   -2.9710   26.2250 C   0  0  0  0  0  0  0  0  0  0  0  0
    3.5330   -1.6210   26.5920 C   0  0  0  0  0  0  0  0  0  0  0  0
    0.6100    3.3680   24.0210 C   0  0  0  0  0  0  0  0  0  0  0  0
    2.0260   -1.7920   26.5460 C   0  0  0  0  0  0  0  0  0  0  0  0
    0.5350    4.6340   24.6510 C   0  0  0  0  0  0  0  0  0  0  0  0
   -0.5420    2.8690   23.3630 C   0  0  0  0  0  0  0  0  0  0  0  0
   -0.7720    4.9340   25.0890 C   0  0  0  0  0  0  0  0  0  0  0  0
   -1.7990    3.3120   23.8190 C   0  0  0  0  0  0  0  0  0  0  0  0
   -1.7860    4.6610   24.1760 C   0  0  0  0  0  0  0  0  0  0  0  0
  1  2  1  0
  2  3  2  0
  1  4  1  0
  1  5  1  0
  1  6  1  6
  2  7  1  0
  4  8  1  6
  4  9  1  0
  6 10  2  0
  6 11  1  0
 12  5  1  1
  7 13  1  0
  8 14  1  0
  8 15  2  0
  9 16  1  0
  9 17  2  0
 10 18  1  0
 11 19  2  0
 12 20  1  0
 13 20  1  0
 12 21  1  0
 14 22  1  0
 16 23  1  0
 17 24  1  0
 16 25  2  0
 18 26  2  0
 19 26  1  0
 20 27  1  0
 21 28  1  0
 22 29  1  0
 26 30  1  0
 23 31  1  0
 28 32  1  0
 24 33  2  0
 25 33  1  0
 27 34  1  0
 28 34  1  0
 29 35  1  0
 30 36  1  0
 30 37  1  0
 30 38  1  0
 31 39  1  0
 32 40  2  0
 32 41  2  0
 32 42  1  0
 35 43  1  0
 39 44  1  0
 42 45  2  0
 42 46  1  0
 43 47  1  0
 44 48  2  0
 44 49  1  0
 45 50  1  0
 46 51  2  0
 45 52  1  0
 49 53  1  0
 51 54  1  0
 52 54  2  0
 53 55  1  0
 53 56  1  0
 55 57  1  0
 56 58  1  0
 57 59  1  0
 58 59  1  0
M  END
