x3115-x1382
     RDKit          3D

 36 39  0  0  0  0  0  0  0  0999 V2000
    6.9110   -1.7600   21.6770 N   0  0  0  0  0  0  0  0  0  0  0  0
    5.9970   -2.8950   21.4780 C   0  0  0  0  0  0  0  0  0  0  0  0
    4.7750   -2.9440   21.1440 O   0  0  0  0  0  0  0  0  0  0  0  0
    6.5190   -0.3970   21.6500 C   0  0  1  0  0  0  0  0  0  0  0  0
    8.2370   -2.0660   22.2330 C   0  0  1  0  0  0  0  0  0  0  0  0
    6.5510   -4.2840   21.6830 C   0  0  0  0  0  0  0  0  0  0  0  0
    7.5210    0.7260   21.9860 C   0  0  0  0  0  0  0  0  0  0  0  0
    6.0710    0.1190   20.3050 C   0  0  0  0  0  0  0  0  0  0  0  0
    9.3720   -1.4620   21.6980 C   0  0  0  0  0  0  0  0  0  0  0  0
    8.3180   -1.9660   23.6380 C   0  0  1  0  0  0  0  0  0  0  0  0
    6.5800   -4.9660   20.3380 C   0  0  0  0  0  0  0  0  0  0  0  0
    7.5190    1.4640   23.2880 N   0  0  0  0  0  0  0  0  0  0  0  0
    8.2960    1.0740   21.1030 O   0  0  0  0  0  0  0  0  0  0  0  0
    7.4120   -3.0230   24.2380 C   0  0  0  0  0  0  0  0  0  0  0  0
    4.8670    0.9990   20.1630 C   0  0  0  0  0  0  0  0  0  0  0  0
    6.7980   -0.1580   18.9400 C   0  0  0  0  0  0  0  0  0  0  0  0
    9.9950   -0.9490   22.7660 C   0  0  1  0  0  0  0  0  0  0  0  0
    9.7660   -2.2250   24.2370 C   0  0  0  0  0  0  0  0  0  0  0  0
    8.3430    2.4920   23.3470 C   0  0  0  0  0  0  0  0  0  0  0  0
    6.3320    0.3900   17.7950 N   0  0  0  0  0  0  0  0  0  0  0  0
    4.4500    1.5160   18.9640 C   0  0  0  0  0  0  0  0  0  0  0  0
   10.7590   -1.9030   23.3580 C   0  0  2  0  0  0  0  0  0  0  0  0
   10.4630    0.3350   22.5840 C   0  0  0  0  0  0  0  0  0  0  0  0
    7.8910    3.6320   22.6360 C   0  0  0  0  0  0  0  0  0  0  0  0
   12.0990   -1.6320   24.0230 C   0  0  2  0  0  0  0  0  0  0  0  0
    5.2200    1.1890   17.7950 C   0  0  0  0  0  0  0  0  0  0  0  0
   11.3960    0.8770   23.4400 C   0  0  0  0  0  0  0  0  0  0  0  0
    8.4730    4.8890   23.0590 O   0  0  0  0  0  0  0  0  0  0  0  0
   13.3540   -1.9590   23.1490 C   0  0  2  0  0  0  0  0  0  0  0  0
   12.2860   -2.5810   25.1600 C   0  0  0  0  0  0  0  0  0  0  0  0
   11.9370   -0.0520   24.4720 C   0  0  2  0  0  0  0  0  0  0  0  0
    8.1350    6.0120   22.2430 C   0  0  0  0  0  0  0  0  0  0  0  0
   13.5460   -0.5740   22.7230 C   0  0  0  0  0  0  0  0  0  0  0  0
   12.7190   -0.6350   23.7300 C   0  0  0  0  0  0  0  0  0  0  0  0
   13.0720   -2.8370   21.9650 C   0  0  0  0  0  0  0  0  0  0  0  0
   13.4440   -1.7020   20.7640 Cl  0  0  0  0  0  0  0  0  0  0  0  0
  1  2  1  0
  2  3  2  0
  1  4  1  0
  5  1  1  6
  2  6  1  0
  4  7  1  6
  4  8  1  0
  5  9  1  0
  5 10  1  0
  6 11  1  0
  7 12  1  0
  7 13  2  0
 10 14  1  1
  8 15  2  0
  8 16  1  0
 17  9  1  6
 10 18  1  0
 12 19  1  0
 16 20  2  0
 15 21  1  0
 17 22  1  0
 22 18  1  1
 17 23  1  0
 19 24  1  0
 22 25  1  0
 20 26  1  0
 21 26  2  0
 23 27  2  0
 24 28  1  0
 25 29  1  0
 25 30  1  1
 25 31  1  0
 31 27  1  6
 28 32  1  0
 29 33  1  0
 31 34  1  0
 33 34  2  0
 29 35  1  6
 35 36  1  0
M  END
