x3113-x3115-x0769-x0540-x3110-x0691-x0734-x0731-x0978-x1308-x0946
     RDKit          3D

 80 86  0  0  0  0  0  0  0  0999 V2000
    7.4050    1.2620   23.0840 N   0  0  0  0  0  0  0  0  0  0  0  0
    8.3550    1.4430   24.0940 C   0  0  2  0  0  0  0  0  0  0  0  0
    7.7440    1.7390   25.4440 C   0  0  0  0  0  0  0  0  0  0  0  0
    7.5150    0.4130   21.9470 C   0  0  0  0  0  0  0  0  0  0  0  0
    8.4180    0.7100   21.1310 O   0  0  0  0  0  0  0  0  0  0  0  0
    6.5950   -0.7070   21.7820 C   0  0  2  0  0  0  0  0  0  0  0  0
    9.7970    2.2690   23.6630 C   0  0  0  0  0  0  0  0  0  0  0  0
    7.0750   -1.8850   21.8370 N   0  0  0  0  0  0  0  0  0  0  0  0
    6.5170    2.4070   25.3930 O   0  0  0  0  0  0  0  0  0  0  0  0
    5.8940   -0.3150   20.4080 C   0  0  0  0  0  0  0  0  0  0  0  0
   10.1520    3.8480   23.3110 C   0  0  0  0  0  0  0  0  0  0  0  0
   10.7870    1.2060   23.6390 C   0  0  0  0  0  0  0  0  0  0  0  0
    8.7540    4.0150   23.5130 C   0  0  0  0  0  0  0  0  0  0  0  0
    6.1450   -3.1010   21.6600 C   0  0  0  0  0  0  0  0  0  0  0  0
    6.0140    2.8580   26.5850 C   0  0  0  0  0  0  0  0  0  0  0  0
    4.6190    0.3840   20.2900 C   0  0  0  0  0  0  0  0  0  0  0  0
    6.6800   -0.7020   19.0820 C   0  0  0  0  0  0  0  0  0  0  0  0
    8.4280   -2.1100   22.5140 C   0  0  0  0  0  0  0  0  0  0  0  0
   12.1130    1.3580   23.3670 C   0  0  0  0  0  0  0  0  0  0  0  0
   11.6610    3.6680   23.0930 C   0  0  0  0  0  0  0  0  0  0  0  0
   12.4380    4.9580   22.7610 C   0  0  0  0  0  0  0  0  0  0  0  0
    4.8790   -3.1070   21.2390 O   0  0  0  0  0  0  0  0  0  0  0  0
    6.6010   -4.5380   21.9770 C   0  0  1  0  0  0  0  0  0  0  0  0
    3.7110    0.8530   21.3070 C   0  0  0  0  0  0  0  0  0  0  0  0
    8.2280    4.4410   24.5250 O   0  0  0  0  0  0  0  0  0  0  0  0
    8.0120    3.8450   22.3900 O   0  0  0  0  0  0  0  0  0  0  0  0
    6.0850   -0.3220   17.7730 N   0  0  0  0  0  0  0  0  0  0  0  0
    4.1650    0.6700   18.9690 C   0  0  0  0  0  0  0  0  0  0  0  0
    9.6620   -2.1970   21.7720 C   0  0  0  0  0  0  0  0  0  0  0  0
    8.5920   -2.2220   23.9370 C   0  0  0  0  0  0  0  0  0  0  0  0
   12.5400    2.5890   23.1260 C   0  0  0  0  0  0  0  0  0  0  0  0
   12.9660    5.0830   21.2810 C   0  0  0  0  0  0  0  0  0  0  0  0
    7.9950   -5.0930   21.3590 C   0  0  0  0  0  0  0  0  0  0  0  0
    3.7990    2.2110   21.7550 C   0  0  0  0  0  0  0  0  0  0  0  0
    4.7870    0.3890   17.7560 C   0  0  0  0  0  0  0  0  0  0  0  0
   10.9390   -2.3640   22.3830 C   0  0  0  0  0  0  0  0  0  0  0  0
    9.8460   -2.3930   24.5720 C   0  0  0  0  0  0  0  0  0  0  0  0
    6.3350   -5.0950   23.5500 C   0  0  2  0  0  0  0  0  0  0  0  0
    2.7720    2.9500   21.2760 N   0  0  0  0  0  0  0  0  0  0  0  0
   11.0750   -2.4730   23.8300 C   0  0  0  0  0  0  0  0  0  0  0  0
    6.3390   -6.5500   23.5000 N   0  0  0  0  0  0  0  0  0  0  0  0
    5.3920   -4.7030   24.6410 C   0  0  2  0  0  0  0  0  0  0  0  0
   12.4170   -2.6660   24.5600 C   0  0  0  0  0  0  0  0  0  0  0  0
    2.4180    4.2380   21.9190 C   0  0  0  0  0  0  0  0  0  0  0  0
    3.7640   -5.3940   25.3260 S   0  0  1  0  0  0  0  0  0  0  0  0
    5.4730   -7.3390   22.6770 C   0  0  0  0  0  0  0  0  0  0  0  0
    5.5270   -3.2890   25.1990 C   0  0  0  0  0  0  0  0  0  0  0  0
   12.8030   -1.5200   25.3780 C   0  0  0  0  0  0  0  0  0  0  0  0
   13.6740   -2.8650   23.6270 C   0  0  0  0  0  0  0  0  0  0  0  0
   12.2730   -3.8990   25.5490 C   0  0  0  0  0  0  0  0  0  0  0  0
    3.2420   -7.1380   24.8990 C   0  0  2  0  0  0  0  0  0  0  0  0
    3.2200    5.0250   22.4050 O   0  0  0  0  0  0  0  0  0  0  0  0
    0.9570    4.4500   21.8860 N   0  0  0  0  0  0  0  0  0  0  0  0
    4.0050   -5.5730   26.7990 O   0  0  0  0  0  0  0  0  0  0  0  0
    2.3340   -4.2330   25.4100 C   0  0  0  0  0  0  0  0  0  0  0  0
    4.0940   -7.0270   22.3860 C   0  0  1  0  0  0  0  0  0  0  0  0
    5.6750   -2.8140   26.5000 C   0  0  0  0  0  0  0  0  0  0  0  0
    2.2080   -7.6700   25.7270 C   0  0  0  0  0  0  0  0  0  0  0  0
    4.2840   -7.9450   25.4680 O   0  0  0  0  0  0  0  0  0  0  0  0
    3.0040   -7.4630   23.3970 C   0  0  2  0  0  0  0  0  0  0  0  0
    3.8020   -5.6220   22.1080 O   0  0  0  0  0  0  0  0  0  0  0  0
    0.0470    3.9040   22.9380 C   0  0  0  0  0  0  0  0  0  0  0  0
    2.0890   -3.1090   26.3890 C   0  0  0  0  0  0  0  0  0  0  0  0
    1.1760   -4.3530   24.3710 C   0  0  0  0  0  0  0  0  0  0  0  0
    5.7000   -3.7560   27.7370 C   0  0  0  0  0  0  0  0  0  0  0  0
    4.8800   -5.0500   27.7850 C   0  0  0  0  0  0  0  0  0  0  0  0
    1.8210   -7.2620   22.7180 N   0  0  0  0  0  0  0  0  0  0  0  0
    2.8400   -2.7250   27.4120 F   0  0  0  0  0  0  0  0  0  0  0  0
   -0.2990    4.9450   23.8420 C   0  0  0  0  0  0  0  0  0  0  0  0
   -1.1200    3.2190   22.3610 C   0  0  0  0  0  0  0  0  0  0  0  0
   -0.2090   -3.6220   24.0760 C   0  0  0  0  0  0  0  0  0  0  0  0
    0.9480   -2.3720   26.2800 C   0  0  0  0  0  0  0  0  0  0  0  0
    0.5970   -8.0750   22.5500 C   0  0  0  0  0  0  0  0  0  0  0  0
   -1.5540   -2.9110   23.7900 C   0  0  0  0  0  0  0  0  0  0  0  0
   -1.5050    4.6810   24.7770 C   0  0  0  0  0  0  0  0  0  0  0  0
   -2.1270    2.8730   23.3140 C   0  0  0  0  0  0  0  0  0  0  0  0
   -0.0530   -2.5980   25.2530 C   0  0  0  0  0  0  0  0  0  0  0  0
    0.3630   -9.0970   23.1930 O   0  0  0  0  0  0  0  0  0  0  0  0
   -0.2790   -7.5350   21.5840 C   0  0  0  0  0  0  0  0  0  0  0  0
   -2.5400    3.8450   24.2840 C   0  0  0  0  0  0  0  0  0  0  0  0
  1  2  1  0
  2  3  1  1
  1  4  1  0
  4  5  2  0
  6  4  1  6
  2  7  1  0
  6  8  1  0
  3  9  1  0
  6 10  1  0
  7 11  2  0
  7 12  1  0
 11 13  1  0
  8 14  1  0
  9 15  1  0
 10 16  1  0
 10 17  2  0
  8 18  1  0
 12 19  2  0
 11 20  1  0
 20 21  1  0
 14 22  2  0
 14 23  1  0
 16 24  1  0
 13 25  2  0
 13 26  1  0
 17 27  1  0
 16 28  2  0
 18 29  2  0
 18 30  1  0
 19 31  1  0
 20 31  2  0
 21 32  1  0
 23 33  1  1
 24 34  1  0
 27 35  2  0
 28 35  1  0
 29 36  1  0
 30 37  2  0
 23 38  1  0
 34 39  1  0
 36 40  2  0
 37 40  1  0
 38 41  1  6
 38 42  1  0
 40 43  1  0
 39 44  1  0
 42 45  1  0
 41 46  1  0
 42 47  1  6
 43 48  1  0
 43 49  1  0
 43 50  1  0
 45 51  1  0
 44 52  2  0
 44 53  1  0
 45 54  1  0
 45 55  1  1
 46 56  1  0
 47 57  2  0
 51 58  1  1
 51 59  1  0
 51 60  1  0
 56 60  1  0
 56 61  1  1
 53 62  1  0
 55 63  2  0
 55 64  1  0
 57 65  1  0
 54 66  1  0
 65 66  2  0
 60 67  1  6
 63 68  1  0
 62 69  1  0
 62 70  1  0
 64 71  2  0
 63 72  1  0
 67 73  1  0
 71 74  1  0
 69 75  1  0
 70 76  1  0
 71 77  1  0
 72 77  2  0
 73 78  2  0
 73 79  1  0
 75 80  1  0
 76 80  1  0
M  END
