x3113-x3115-x0769-x1119-x0540-x0107-x3110-x0691-x0771-x0731-x0978-x1308-x0946
     RDKit          3D

101110  0  0  0  0  0  0  0  0999 V2000
    8.2590    1.2930   23.0270 N   0  0  0  0  0  0  0  0  0  0  0  0
    8.8750    2.7140   23.0830 C   0  0  1  0  0  0  0  0  0  0  0  0
    8.1070    3.8510   23.8500 C   0  0  0  0  0  0  0  0  0  0  0  0
    7.9390    0.6590   21.7550 C   0  0  2  0  0  0  0  0  0  0  0  0
    7.9270    1.4800   20.8160 O   0  0  0  0  0  0  0  0  0  0  0  0
    6.7740   -0.2020   21.7210 C   0  0  2  0  0  0  0  0  0  0  0  0
    9.0260   -0.2860   21.3000 C   0  0  0  0  0  0  0  0  0  0  0  0
   10.4380    2.6460   23.0460 C   0  0  0  0  0  0  0  0  0  0  0  0
    6.9500   -1.7460   21.9790 N   0  0  0  0  0  0  0  0  0  0  0  0
    8.4320    5.0220   23.5950 O   0  0  0  0  0  0  0  0  0  0  0  0
    6.1850    0.2100   20.3650 C   0  0  0  0  0  0  0  0  0  0  0  0
    9.3230   -1.2550   22.2720 C   0  0  0  0  0  0  0  0  0  0  0  0
   11.3380    3.7710   23.1440 C   0  0  0  0  0  0  0  0  0  0  0  0
   10.9880    1.2780   22.8560 C   0  0  0  0  0  0  0  0  0  0  0  0
   10.7970    5.1130   23.4140 C   0  0  0  0  0  0  0  0  0  0  0  0
    6.1100   -2.8370   21.3510 C   0  0  0  0  0  0  0  0  0  0  0  0
    7.9780    5.5680   22.3910 C   0  0  0  0  0  0  0  0  0  0  0  0
    4.9900    0.8670   20.3070 C   0  0  0  0  0  0  0  0  0  0  0  0
    6.9000   -0.0610   18.9970 C   0  0  0  0  0  0  0  0  0  0  0  0
   10.7370   -1.2840   22.7400 C   0  0  0  0  0  0  0  0  0  0  0  0
    8.2790   -2.0150   22.6730 C   0  0  0  0  0  0  0  0  0  0  0  0
   12.3330    1.0620   22.7170 C   0  0  0  0  0  0  0  0  0  0  0  0
   12.7300    3.5540   22.9800 C   0  0  0  0  0  0  0  0  0  0  0  0
   13.8580    4.6380   23.0170 C   0  0  2  0  0  0  0  0  0  0  0  0
    4.8090   -3.0020   21.2570 O   0  0  0  0  0  0  0  0  0  0  0  0
    6.8070   -4.0180   20.7280 C   0  0  1  0  0  0  0  0  0  0  0  0
    4.2000    1.1680   21.5370 C   0  0  0  0  0  0  0  0  0  0  0  0
   10.1610    5.4830   24.5450 O   0  0  0  0  0  0  0  0  0  0  0  0
   11.0070    5.9030   22.4790 O   0  0  0  0  0  0  0  0  0  0  0  0
    6.3960    0.3420   17.8140 N   0  0  0  0  0  0  0  0  0  0  0  0
    4.4660    1.2970   18.9710 C   0  0  0  0  0  0  0  0  0  0  0  0
   11.1930   -2.1930   23.8050 C   0  0  0  0  0  0  0  0  0  0  0  0
    8.6880   -3.0040   23.7730 C   0  0  0  0  0  0  0  0  0  0  0  0
   13.1760    2.1050   22.7490 C   0  0  0  0  0  0  0  0  0  0  0  0
   13.2900    5.9430   22.5910 C   0  0  0  0  0  0  0  0  0  0  0  0
    8.2860   -3.7360   20.4300 C   0  0  0  0  0  0  0  0  0  0  0  0
   12.6280   -2.1010   24.2530 C   0  0  0  0  0  0  0  0  0  0  0  0
    4.8950    2.0970   22.4920 C   0  0  0  0  0  0  0  0  0  0  0  0
   15.1380    4.4810   21.9580 C   0  0  0  0  0  0  0  0  0  0  0  0
    5.2290    0.9960   17.8470 C   0  0  0  0  0  0  0  0  0  0  0  0
   10.1110   -3.0770   24.2960 C   0  0  0  0  0  0  0  0  0  0  0  0
    6.7550   -5.2110   21.6190 N   0  0  0  0  0  0  0  0  0  0  0  0
   12.7820   -0.8480   24.8660 C   0  0  0  0  0  0  0  0  0  0  0  0
   13.4700   -2.1950   23.0050 C   0  0  0  0  0  0  0  0  0  0  0  0
   13.0980   -3.1660   25.2180 C   0  0  0  0  0  0  0  0  0  0  0  0
    3.9690    3.1590   22.8850 N   0  0  0  0  0  0  0  0  0  0  0  0
   16.5140    4.3090   22.4500 C   0  0  0  0  0  0  0  0  0  0  0  0
    5.5010   -5.9710   21.8000 C   0  0  0  0  0  0  0  0  0  0  0  0
    7.3800   -4.9330   22.8650 C   0  0  0  0  0  0  0  0  0  0  0  0
    2.8830    2.6850   23.5100 C   0  0  0  0  0  0  0  0  0  0  0  0
   17.2160    5.0290   23.4580 C   0  0  0  0  0  0  0  0  0  0  0  0
    4.7080   -5.5580   22.9190 C   0  0  2  0  0  0  0  0  0  0  0  0
    6.9130   -5.7290   23.8490 C   0  0  0  0  0  0  0  0  0  0  0  0
    3.4140   -6.4840   23.1860 C   0  0  2  0  0  0  0  0  0  0  0  0
    4.2000   -4.2710   22.5420 O   0  0  0  0  0  0  0  0  0  0  0  0
    2.9040    1.8090   24.3700 O   0  0  0  0  0  0  0  0  0  0  0  0
    1.7790    3.2990   23.0720 N   0  0  0  0  0  0  0  0  0  0  0  0
   18.6630    5.8650   23.5790 C   0  0  0  0  0  0  0  0  0  0  0  0
    5.5340   -5.3680   24.1210 N   0  0  0  0  0  0  0  0  0  0  0  0
    2.2990   -5.7000   23.2850 N   0  0  0  0  0  0  0  0  0  0  0  0
    3.6920   -7.3950   24.2460 C   0  0  2  0  0  0  0  0  0  0  0  0
    4.7870   -5.5530   25.6130 S   0  0  1  0  0  0  0  0  0  0  0  0
   19.5120    6.6350   22.4960 C   0  0  0  0  0  0  0  0  0  0  0  0
    0.5690    3.3740   23.8740 C   0  0  0  0  0  0  0  0  0  0  0  0
    2.5670   -8.2090   24.5220 C   0  0  0  0  0  0  0  0  0  0  0  0
    3.9880   -7.0150   25.3060 N   0  0  0  0  0  0  0  0  0  0  0  0
    1.0330   -6.2080   22.6730 C   0  0  0  0  0  0  0  0  0  0  0  0
    5.8200   -5.3660   26.5990 O   0  0  0  0  0  0  0  0  0  0  0  0
   20.7830    7.0700   22.7270 N   0  0  0  0  0  0  0  0  0  0  0  0
    0.5510    4.7020   24.6530 C   0  0  0  0  0  0  0  0  0  0  0  0
   -0.5570    3.2620   23.0550 C   0  0  0  0  0  0  0  0  0  0  0  0
    3.6310   -4.2730   25.8220 C   0  0  0  0  0  0  0  0  0  0  0  0
    0.9560   -7.3640   21.9370 O   0  0  0  0  0  0  0  0  0  0  0  0
   -0.1820   -5.5150   22.8150 C   0  0  0  0  0  0  0  0  0  0  0  0
   -0.8140    4.9330   25.3040 C   0  0  0  0  0  0  0  0  0  0  0  0
   -1.7930    3.4870   23.6430 C   0  0  0  0  0  0  0  0  0  0  0  0
    2.3190   -4.6800   25.6640 C   0  0  0  0  0  0  0  0  0  0  0  0
    3.9770   -3.0050   26.1020 C   0  0  0  0  0  0  0  0  0  0  0  0
   21.5220    6.1460   23.3920 C   0  0  0  0  0  0  0  0  0  0  0  0
    5.2640   -2.6430   26.2550 F   0  0  0  0  0  0  0  0  0  0  0  0
   -1.8770    4.6390   24.4420 C   0  0  0  0  0  0  0  0  0  0  0  0
    1.2700   -3.7850   25.7800 C   0  0  0  0  0  0  0  0  0  0  0  0
    3.0120   -2.0260   26.2390 C   0  0  0  0  0  0  0  0  0  0  0  0
   22.6060    5.4190   22.8480 C   0  0  0  0  0  0  0  0  0  0  0  0
   21.1230    5.9100   24.6990 C   0  0  0  0  0  0  0  0  0  0  0  0
    3.3750   -0.7620   26.5130 F   0  0  0  0  0  0  0  0  0  0  0  0
    1.6600   -2.3400   26.0910 C   0  0  0  0  0  0  0  0  0  0  0  0
   23.2180    4.4900   23.5530 C   0  0  0  0  0  0  0  0  0  0  0  0
   21.8190    4.8550   25.4790 C   0  0  0  0  0  0  0  0  0  0  0  0
    0.6070   -1.2830   26.2310 C   0  0  0  0  0  0  0  0  0  0  0  0
   22.8750    4.1630   24.7920 C   0  0  0  0  0  0  0  0  0  0  0  0
   23.6820    2.8390   25.6290 S   0  0  0  0  0  0  0  0  0  0  0  0
   22.6600    1.8190   25.7670 O   0  0  0  0  0  0  0  0  0  0  0  0
   24.0270    3.3860   27.1600 N   0  0  0  0  0  0  0  0  0  0  0  0
   24.9130    2.5660   24.9180 O   0  0  0  0  0  0  0  0  0  0  0  0
   24.9350    4.4270   27.3370 C   0  0  0  0  0  0  0  0  0  0  0  0
   25.0470    4.7450   28.6610 N   0  0  0  0  0  0  0  0  0  0  0  0
   25.6750    5.0970   26.2500 C   0  0  0  0  0  0  0  0  0  0  0  0
   25.8990    5.7460   28.9920 C   0  0  0  0  0  0  0  0  0  0  0  0
   26.6270    6.2190   26.6410 C   0  0  0  0  0  0  0  0  0  0  0  0
   26.7370    6.5380   27.9910 C   0  0  0  0  0  0  0  0  0  0  0  0
  1  2  1  0
  2  3  1  1
  1  4  1  0
  4  5  1  6
  4  6  1  0
  4  7  1  0
  2  8  1  0
  6  9  1  0
  3 10  1  0
  6 11  1  6
  7 12  1  0
  8 13  2  0
  8 14  1  0
 13 15  1  0
  9 16  1  0
 10 17  1  0
 11 18  1  0
 11 19  2  0
 12 20  2  0
  9 21  1  0
 12 21  1  0
 14 22  2  0
 13 23  1  0
 23 24  1  0
 16 25  2  0
 16 26  1  0
 18 27  1  0
 15 28  2  0
 15 29  1  0
 19 30  1  0
 18 31  2  0
 20 32  1  0
 21 33  2  0
 22 34  1  0
 23 34  2  0
 24 35  1  6
 26 36  1  1
 32 37  1  0
 27 38  1  0
 24 39  1  0
 30 40  2  0
 31 40  1  0
 32 41  2  0
 33 41  1  0
 26 42  1  0
 37 43  1  0
 37 44  1  0
 37 45  1  0
 38 46  1  0
 39 47  1  0
 42 48  1  0
 42 49  1  0
 46 50  1  0
 47 51  1  0
 48 52  1  0
 49 53  1  0
 52 54  1  0
 52 55  1  6
 50 56  2  0
 50 57  1  0
 51 58  1  0
 52 59  1  0
 53 59  1  0
 54 60  1  1
 54 61  1  0
 59 62  1  0
 58 63  1  0
 57 64  1  0
 61 65  1  1
 61 66  1  0
 62 66  2  0
 60 67  1  0
 62 68  2  0
 63 69  1  0
 64 70  1  0
 64 71  1  0
 62 72  1  1
 67 73  2  0
 67 74  1  0
 70 75  1  0
 71 76  1  0
 72 77  2  0
 72 78  1  0
 69 79  1  0
 78 80  1  0
 75 81  1  0
 76 81  1  0
 77 82  1  0
 78 83  2  0
 79 84  2  0
 79 85  1  0
 83 86  1  0
 82 87  2  0
 83 87  1  0
 84 88  1  0
 85 89  2  0
 87 90  1  0
 88 91  2  0
 89 91  1  0
 91 92  1  0
 92 93  2  0
 92 94  1  0
 92 95  2  0
 94 96  1  0
 96 97  2  0
 96 98  1  0
 97 99  1  0
 98100  2  0
 99101  2  0
100101  1  0
M  END
