x3113-x3115-x1311-x0540-x3110-x2754-x0426-x2929-x0946
     RDKit          3D

109119  0  0  0  0  0  0  0  0999 V2000
    8.0070    1.3110   23.3000 N   0  0  0  0  0  0  0  0  0  0  0  0
    8.7040    2.6450   23.5060 C   0  0  2  0  0  0  0  0  0  0  0  0
    8.0470    3.7810   22.6310 C   0  0  0  0  0  0  0  0  0  0  0  0
    7.7030    0.8380   21.8960 C   0  0  0  0  0  0  0  0  0  0  0  0
    8.4730    1.4080   20.8160 O   0  0  0  0  0  0  0  0  0  0  0  0
    6.6290   -0.1140   21.5540 C   0  0  2  0  0  0  0  0  0  0  0  0
   10.2350    2.4800   23.2630 C   0  0  0  0  0  0  0  0  0  0  0  0
    7.0030   -1.5500   21.5830 N   0  0  0  0  0  0  0  0  0  0  0  0
    8.2900    5.0970   23.1510 O   0  0  0  0  0  0  0  0  0  0  0  0
    6.1210    0.3410   20.2360 C   0  0  0  0  0  0  0  0  0  0  0  0
   11.1590    3.5710   23.2040 C   0  0  0  0  0  0  0  0  0  0  0  0
   10.7810    1.1250   23.0560 C   0  0  0  0  0  0  0  0  0  0  0  0
   10.6950    4.9490   23.4670 C   0  0  0  0  0  0  0  0  0  0  0  0
    6.1910   -2.8790   21.3920 C   0  0  0  0  0  0  0  0  0  0  0  0
    8.0750    6.1210   22.1730 C   0  0  0  0  0  0  0  0  0  0  0  0
    4.9140    0.9600   20.1290 C   0  0  0  0  0  0  0  0  0  0  0  0
    6.8790    0.1640   18.9400 C   0  0  0  0  0  0  0  0  0  0  0  0
    8.3070   -1.5880   22.3110 C   0  0  0  0  0  0  0  0  0  0  0  0
   12.1110    0.9020   22.8090 C   0  0  0  0  0  0  0  0  0  0  0  0
   12.7290    3.3490   22.8550 C   0  0  0  0  0  0  0  0  0  0  0  0
   13.7420    4.5150   22.6850 C   0  0  2  0  0  0  0  0  0  0  0  0
    4.9420   -3.0600   20.9590 O   0  0  0  0  0  0  0  0  0  0  0  0
    4.0340    1.1690   21.3180 C   0  0  0  0  0  0  0  0  0  0  0  0
    9.9820    5.2700   24.4210 O   0  0  0  0  0  0  0  0  0  0  0  0
   11.1660    5.8200   22.5580 O   0  0  0  0  0  0  0  0  0  0  0  0
    6.4300    0.6050   17.7580 N   0  0  0  0  0  0  0  0  0  0  0  0
    4.4660    1.4130   18.9010 C   0  0  0  0  0  0  0  0  0  0  0  0
    9.4030   -1.9920   21.6130 C   0  0  0  0  0  0  0  0  0  0  0  0
    8.5600   -1.2250   23.7950 C   0  0  0  0  0  0  0  0  0  0  0  0
   13.1070    2.0300   22.7040 C   0  0  0  0  0  0  0  0  0  0  0  0
    7.0080   -4.1040   21.8350 C   0  0  1  0  0  0  0  0  0  0  0  0
   13.2240    5.4310   21.5340 C   0  0  0  0  0  0  0  0  0  0  0  0
    7.0550   -3.8520   20.2650 C   0  0  0  0  0  0  0  0  0  0  0  0
    4.7380    1.7900   22.3500 C   0  0  0  0  0  0  0  0  0  0  0  0
   15.2790    4.2400   22.3000 C   0  0  0  0  0  0  0  0  0  0  0  0
    5.2440    1.2250   17.7730 C   0  0  0  0  0  0  0  0  0  0  0  0
   10.8090   -2.1100   22.1990 C   0  0  0  0  0  0  0  0  0  0  0  0
    9.7920   -1.2990   24.4470 C   0  0  0  0  0  0  0  0  0  0  0  0
    7.5580   -3.3000   23.0060 C   0  0  0  0  0  0  0  0  0  0  0  0
    6.4270   -5.3190   22.6630 C   0  0  1  0  0  0  0  0  0  0  0  0
    3.9580    2.7650   22.8290 N   0  0  0  0  0  0  0  0  0  0  0  0
   16.1360    4.9160   23.3190 C   0  0  0  0  0  0  0  0  0  0  0  0
   11.0400   -1.7590   23.6920 C   0  0  0  0  0  0  0  0  0  0  0  0
    7.4720   -5.5290   23.6410 C   0  0  0  0  0  0  0  0  0  0  0  0
    5.2320   -4.9150   23.5850 C   0  0  1  0  0  0  0  0  0  0  0  0
    6.5180   -2.7590   23.8390 C   0  0  0  0  0  0  0  0  0  0  0  0
   12.4120   -1.8470   24.3650 C   0  0  0  0  0  0  0  0  0  0  0  0
    2.6120    2.2500   23.2010 C   0  0  1  0  0  0  0  0  0  0  0  0
   17.6780    4.9370   23.3920 C   0  0  0  0  0  0  0  0  0  0  0  0
    8.7430   -5.9280   23.3060 C   0  0  0  0  0  0  0  0  0  0  0  0
    7.2000   -5.2890   24.9600 C   0  0  0  0  0  0  0  0  0  0  0  0
    4.4090   -5.1780   22.6070 C   0  0  0  0  0  0  0  0  0  0  0  0
    4.1360   -6.0170   24.6370 S   0  0  0  0  0  0  0  0  0  0  0  0
    5.2830   -3.4090   24.0650 C   0  0  2  0  0  0  0  0  0  0  0  0
   12.5950   -0.7120   25.1250 C   0  0  0  0  0  0  0  0  0  0  0  0
   13.4570   -1.9100   23.2580 C   0  0  0  0  0  0  0  0  0  0  0  0
   12.6590   -2.9530   25.1690 C   0  0  0  0  0  0  0  0  0  0  0  0
    2.6560    1.4000   24.2580 N   0  0  0  0  0  0  0  0  0  0  0  0
    1.8340    3.4550   23.3630 N   0  0  0  0  0  0  0  0  0  0  0  0
    4.8450   -6.6440   25.7200 O   0  0  0  0  0  0  0  0  0  0  0  0
    2.7810   -5.5400   24.8400 O   0  0  0  0  0  0  0  0  0  0  0  0
   18.5490    6.0780   23.6700 C   0  0  0  0  0  0  0  0  0  0  0  0
    4.8260   -3.1460   25.5450 C   0  0  0  0  0  0  0  0  0  0  0  0
    9.7160   -6.0720   24.2860 C   0  0  0  0  0  0  0  0  0  0  0  0
    8.2760   -5.4970   25.6830 C   0  0  0  0  0  0  0  0  0  0  0  0
    4.3610   -6.5250   22.4290 C   0  0  0  0  0  0  0  0  0  0  0  0
    4.1360   -7.1960   23.5400 C   0  0  0  0  0  0  0  0  0  0  0  0
    2.1500    0.3060   23.9630 O   0  0  0  0  0  0  0  0  0  0  0  0
   19.7410    5.8490   24.6240 C   0  0  0  0  0  0  0  0  0  0  0  0
    3.6460   -3.3650   25.8040 O   0  0  0  0  0  0  0  0  0  0  0  0
    5.6650   -2.6760   26.5680 N   0  0  0  0  0  0  0  0  0  0  0  0
    0.6260    3.3630   24.0510 C   0  0  1  0  0  0  0  0  0  0  0  0
    9.5140   -5.8520   25.5790 C   0  0  0  0  0  0  0  0  0  0  0  0
   21.1380    5.9920   23.9700 C   0  0  0  0  0  0  0  0  0  0  0  0
    5.1040   -1.8110   27.6050 C   0  0  0  0  0  0  0  0  0  0  0  0
    0.4000    4.7220   24.7780 C   0  0  1  0  0  0  0  0  0  0  0  0
   -0.4710    2.8860   23.3340 C   0  0  0  0  0  0  0  0  0  0  0  0
    6.8640   -3.3740   26.9940 C   0  0  0  0  0  0  0  0  0  0  0  0
   21.8590    4.9320   24.7230 N   0  0  0  0  0  0  0  0  0  0  0  0
   -0.9050    4.8750   25.2510 C   0  0  0  0  0  0  0  0  0  0  0  0
   -1.7500    3.2700   23.7300 C   0  0  0  0  0  0  0  0  0  0  0  0
    6.8650   -4.4390   27.8940 C   0  0  0  0  0  0  0  0  0  0  0  0
    8.0840   -2.9770   26.4970 C   0  0  0  0  0  0  0  0  0  0  0  0
    1.3660    4.8220   25.9680 C   0  0  0  0  0  0  0  0  0  0  0  0
   23.0880    4.5880   24.5890 C   0  0  0  0  0  0  0  0  0  0  0  0
   -1.8170    4.5530   24.2610 C   0  0  0  0  0  0  0  0  0  0  0  0
    8.0440   -5.0710   28.2860 C   0  0  0  0  0  0  0  0  0  0  0  0
    9.2650   -3.6040   26.8810 C   0  0  0  0  0  0  0  0  0  0  0  0
    2.6370    4.5500   25.5610 F   0  0  0  0  0  0  0  0  0  0  0  0
   23.9490    5.1560   23.7580 N   0  0  0  0  0  0  0  0  0  0  0  0
   23.5170    3.3690   25.4490 C   0  0  1  0  0  0  0  0  0  0  0  0
    9.2550   -4.6520   27.7870 C   0  0  0  0  0  0  0  0  0  0  0  0
   23.7900    2.2040   24.7190 C   0  0  0  0  0  0  0  0  0  0  0  0
   24.4280    3.3240   26.6650 C   0  0  1  0  0  0  0  0  0  0  0  0
   24.7610    1.3970   25.4690 N   0  0  0  0  0  0  0  0  0  0  0  0
   25.2630    2.2150   26.5770 C   0  0  0  0  0  0  0  0  0  0  0  0
   25.1790    4.5360   27.2200 C   0  0  0  0  0  0  0  0  0  0  0  0
   24.3970    0.0140   25.8390 C   0  0  0  0  0  0  0  0  0  0  0  0
   25.1930    4.6730   28.6240 C   0  0  0  0  0  0  0  0  0  0  0  0
   25.8480    5.4950   26.4460 C   0  0  0  0  0  0  0  0  0  0  0  0
   23.1740   -0.5820   25.1770 C   0  0  0  0  0  0  0  0  0  0  0  0
   25.8530    5.7320   29.2460 C   0  0  0  0  0  0  0  0  0  0  0  0
   26.5140    6.5600   27.0700 C   0  0  0  0  0  0  0  0  0  0  0  0
   22.0950   -0.9660   25.9710 C   0  0  0  0  0  0  0  0  0  0  0  0
   23.0820   -0.7680   23.8040 C   0  0  0  0  0  0  0  0  0  0  0  0
   26.5120    6.6710   28.4630 C   0  0  0  0  0  0  0  0  0  0  0  0
   20.9510   -1.5100   25.4980 N   0  0  0  0  0  0  0  0  0  0  0  0
   21.8990   -1.3350   23.2990 C   0  0  0  0  0  0  0  0  0  0  0  0
   20.8790   -1.6820   24.1650 C   0  0  0  0  0  0  0  0  0  0  0  0
  1  2  1  0
  2  3  1  6
  1  4  1  0
  4  5  2  0
  6  4  1  6
  2  7  1  0
  6  8  1  0
  3  9  1  0
  6 10  1  0
  7 11  2  0
  7 12  1  0
 11 13  1  0
  8 14  1  0
  9 15  1  0
 10 16  1  0
 10 17  2  0
  8 18  1  0
 12 19  2  0
 11 20  1  0
 20 21  1  0
 14 22  2  0
 16 23  1  0
 13 24  2  0
 13 25  1  0
 17 26  1  0
 16 27  2  0
 18 28  2  0
 18 29  1  0
 19 30  1  0
 20 30  2  0
 31 14  1  0
 21 32  1  6
 31 33  1  6
 23 34  1  0
 21 35  1  0
 26 36  2  0
 27 36  1  0
 28 37  1  0
 29 38  2  0
 31 39  1  0
 31 40  1  0
 34 41  1  0
 35 42  1  0
 37 43  2  0
 38 43  1  0
 40 44  1  1
 40 45  1  0
 39 46  1  0
 43 47  1  0
 48 41  1  1
 42 49  1  0
 44 50  2  0
 44 51  1  0
 45 52  1  6
 45 53  1  0
 45 54  1  0
 46 54  1  0
 47 55  1  0
 47 56  1  0
 47 57  1  0
 48 58  1  0
 48 59  1  0
 53 60  1  0
 53 61  1  0
 49 62  1  0
 54 63  1  1
 50 64  1  0
 51 65  2  0
 52 66  1  0
 53 67  1  0
 66 67  2  0
 58 68  2  0
 62 69  1  0
 63 70  2  0
 63 71  1  0
 72 59  1  6
 64 73  2  0
 65 73  1  0
 69 74  1  0
 71 75  1  0
 72 76  1  0
 72 77  1  0
 71 78  1  0
 74 79  1  0
 76 80  1  0
 77 81  1  0
 78 82  2  0
 78 83  1  0
 76 84  1  1
 79 85  2  3
 80 86  1  0
 81 86  1  0
 82 87  1  0
 83 88  2  0
 84 89  1  0
 85 90  1  0
 91 85  1  6
 87 92  2  0
 88 92  1  0
 91 93  1  0
 91 94  1  0
 93 95  1  0
 94 96  1  0
 95 96  1  0
 94 97  1  6
 95 98  1  0
 97 99  2  0
 97100  1  0
 98101  1  0
 99102  1  0
100103  2  0
101104  2  0
101105  1  0
102106  2  0
103106  1  0
104107  1  0
105108  2  0
107109  2  0
108109  1  0
M  END
