x3110-x0540-x0072
     RDKit          3D

 55 59  0  0  0  0  0  0  0  0999 V2000
    7.7150    1.4210   23.0610 N   0  0  0  0  0  0  0  0  0  0  0  0
    8.4360    2.6560   23.4250 C   0  0  0  0  0  0  0  0  0  0  0  0
    9.9530    2.4700   23.4470 C   0  0  0  0  0  0  0  0  0  0  0  0
    7.7980    0.6200   21.8200 C   0  0  0  0  0  0  0  0  0  0  0  0
    8.7250    0.8080   21.0610 O   0  0  0  0  0  0  0  0  0  0  0  0
    6.7110   -0.3150   21.5480 C   0  0  2  0  0  0  0  0  0  0  0  0
    6.9850   -1.7800   21.4940 N   0  0  0  0  0  0  0  0  0  0  0  0
   10.9560    3.5930   23.4020 C   0  0  0  0  0  0  0  0  0  0  0  0
    6.1750    0.2330   20.2170 C   0  0  0  0  0  0  0  0  0  0  0  0
   11.7870    3.3960   22.5160 O   0  0  0  0  0  0  0  0  0  0  0  0
   10.9320    4.5590   24.1510 O   0  0  0  0  0  0  0  0  0  0  0  0
    6.0130   -2.9040   21.3280 C   0  0  0  0  0  0  0  0  0  0  0  0
    5.0010    0.9140   20.2080 C   0  0  0  0  0  0  0  0  0  0  0  0
    6.8290    0.0990   19.0110 C   0  0  0  0  0  0  0  0  0  0  0  0
    8.1560   -2.1180   22.2850 C   0  0  1  0  0  0  0  0  0  0  0  0
   12.2590    4.5440   21.9740 C   0  0  0  0  0  0  0  0  0  0  0  0
    4.8020   -2.9240   20.9500 O   0  0  0  0  0  0  0  0  0  0  0  0
    6.4560   -4.3210   21.6580 C   0  0  0  0  0  0  0  0  0  0  0  0
    4.2310    1.0700   21.4940 C   0  0  0  0  0  0  0  0  0  0  0  0
    6.3960    0.6420   17.7090 N   0  0  0  0  0  0  0  0  0  0  0  0
    4.4930    1.5140   18.8760 C   0  0  0  0  0  0  0  0  0  0  0  0
    9.4100   -1.9750   21.6530 C   0  0  0  0  0  0  0  0  0  0  0  0
    7.9760   -1.4780   23.6780 C   0  0  0  0  0  0  0  0  0  0  0  0
   13.3910    5.0730   22.8350 C   0  0  0  0  0  0  0  0  0  0  0  0
    7.7670   -4.7150   21.0090 C   0  0  0  0  0  0  0  0  0  0  0  0
    4.9890    1.9980   22.4430 C   0  0  0  0  0  0  0  0  0  0  0  0
    5.1460    1.4070   17.6790 C   0  0  0  0  0  0  0  0  0  0  0  0
   10.5360   -2.3940   22.5770 C   0  0  2  0  0  0  0  0  0  0  0  0
    9.0580   -2.0260   24.5340 C   0  0  1  0  0  0  0  0  0  0  0  0
    4.0500    2.9480   23.1190 N   0  0  0  0  0  0  0  0  0  0  0  0
    8.9580   -3.5040   24.7330 C   0  0  0  0  0  0  0  0  0  0  0  0
   10.3500   -1.7240   23.9080 C   0  0  2  0  0  0  0  0  0  0  0  0
   11.9260   -2.1450   22.0530 C   0  0  0  0  0  0  0  0  0  0  0  0
    2.9030    2.3520   23.6900 C   0  0  0  0  0  0  0  0  0  0  0  0
    7.7510   -3.9660   25.3840 N   0  0  0  0  0  0  0  0  0  0  0  0
   12.6070   -1.4250   22.9520 C   0  0  2  0  0  0  0  0  0  0  0  0
   10.5920   -0.2740   23.6610 C   0  0  0  0  0  0  0  0  0  0  0  0
   12.7490   -2.0840   24.3870 C   0  0  0  0  0  0  0  0  0  0  0  0
    3.0080    1.4970   24.6800 O   0  0  0  0  0  0  0  0  0  0  0  0
    1.5910    2.6630   23.1360 N   0  0  0  0  0  0  0  0  0  0  0  0
    8.0490   -4.9450   26.7210 S   0  0  0  0  0  0  0  0  0  0  0  0
   11.9200   -0.0990   23.3090 C   0  0  1  0  0  0  0  0  0  0  0  0
   12.5080    0.5890   24.5170 C   0  0  0  0  0  0  0  0  0  0  0  0
   13.9670   -2.8010   24.5580 C   0  0  0  0  0  0  0  0  0  0  0  0
   11.8700   -2.9350   25.0530 C   0  0  0  0  0  0  0  0  0  0  0  0
    6.5030   -5.5890   27.0310 C   0  0  0  0  0  0  0  0  0  0  0  0
    8.9510   -5.9850   26.3010 O   0  0  0  0  0  0  0  0  0  0  0  0
    8.3910   -4.0350   27.7750 O   0  0  0  0  0  0  0  0  0  0  0  0
    0.4770    3.1300   23.9530 C   0  0  0  0  0  0  0  0  0  0  0  0
   12.7900   -0.6760   24.7860 C   0  0  0  0  0  0  0  0  0  0  0  0
    0.6290    4.6050   24.3380 C   0  0  0  0  0  0  0  0  0  0  0  0
   -0.8430    2.8880   23.2100 C   0  0  0  0  0  0  0  0  0  0  0  0
   -0.6110    5.0890   25.0940 C   0  0  0  0  0  0  0  0  0  0  0  0
   -2.0740    3.3510   23.9820 C   0  0  0  0  0  0  0  0  0  0  0  0
   -1.9200    4.8260   24.3310 C   0  0  0  0  0  0  0  0  0  0  0  0
  1  2  1  0
  2  3  1  0
  1  4  1  0
  4  5  2  0
  6  4  1  6
  6  7  1  0
  3  8  1  0
  6  9  1  0
  8 10  1  0
  8 11  2  0
  7 12  1  0
  9 13  1  0
  9 14  2  0
 15  7  1  6
 10 16  1  0
 12 17  2  0
 12 18  1  0
 13 19  1  0
 14 20  1  0
 13 21  2  0
 15 22  1  0
 15 23  1  0
 16 24  1  0
 18 25  1  0
 19 26  1  0
 20 27  2  0
 21 27  1  0
 28 22  1  6
 23 29  1  0
 26 30  1  0
 29 31  1  6
 28 32  1  0
 29 32  1  0
 28 33  1  0
 30 34  1  0
 31 35  1  0
 36 33  1  6
 32 37  1  6
 36 38  1  0
 34 39  2  0
 34 40  1  0
 41 35  1  0
 36 42  1  0
 42 37  1  1
 42 43  1  0
 38 44  1  0
 38 45  1  0
 41 46  1  0
 41 47  2  0
 41 48  2  0
 40 49  1  0
 38 50  1  0
 43 50  2  0
 49 51  1  0
 49 52  1  0
 51 53  1  0
 52 54  1  0
 53 55  1  0
 54 55  1  0
M  END
