x3117-x2694
     RDKit          3D

 34 36  0  0  0  0  0  0  0  0999 V2000
    6.9520   -1.2390   21.8270 N   0  0  0  0  0  0  0  0  0  0  0  0
    5.7860   -2.1780   21.5690 C   0  0  0  0  0  0  0  0  0  0  0  0
    4.9670   -3.2320   21.3020 O   0  0  0  0  0  0  0  0  0  0  0  0
    6.7040    0.1410   21.5830 C   0  0  1  0  0  0  0  0  0  0  0  0
    8.1960   -1.4530   22.5700 C   0  0  0  0  0  0  0  0  0  0  0  0
    6.8240   -3.3100   21.3710 C   0  0  0  0  0  0  0  0  0  0  0  0
    7.8920    1.1720   21.7430 C   0  0  0  0  0  0  0  0  0  0  0  0
    6.3390    0.4680   20.1590 C   0  0  0  0  0  0  0  0  0  0  0  0
    8.3830   -1.8060   23.8830 N   0  0  0  0  0  0  0  0  0  0  0  0
    9.5650   -1.2910   22.0310 C   0  0  0  0  0  0  0  0  0  0  0  0
    6.6510   -3.9660   19.9910 C   0  0  0  0  0  0  0  0  0  0  0  0
    7.6390    2.2010   22.8040 N   0  0  0  0  0  0  0  0  0  0  0  0
    8.9260    1.2150   21.0740 O   0  0  0  0  0  0  0  0  0  0  0  0
    5.1760    1.3990   20.1730 C   0  0  0  0  0  0  0  0  0  0  0  0
    6.8750    0.0770   18.9600 C   0  0  0  0  0  0  0  0  0  0  0  0
    9.8070   -1.8590   24.1610 O   0  0  0  0  0  0  0  0  0  0  0  0
   10.6040   -1.5490   23.0640 C   0  0  0  0  0  0  0  0  0  0  0  0
   12.1100   -1.5520   23.1910 C   0  0  0  0  0  0  0  0  0  0  0  0
    6.3590    0.5480   17.6860 N   0  0  0  0  0  0  0  0  0  0  0  0
    4.6590    1.8600   18.9860 C   0  0  0  0  0  0  0  0  0  0  0  0
    8.4470    3.3590   23.0580 C   0  0  0  0  0  0  0  0  0  0  0  0
   12.5750   -0.2030   23.7850 C   0  0  0  0  0  0  0  0  0  0  0  0
   12.7460   -1.8520   21.8480 C   0  0  0  0  0  0  0  0  0  0  0  0
   12.5280   -2.6950   24.1460 C   0  0  0  0  0  0  0  0  0  0  0  0
    5.2210    1.4640   17.7650 C   0  0  0  0  0  0  0  0  0  0  0  0
    9.7030    3.1950   23.6620 C   0  0  0  0  0  0  0  0  0  0  0  0
    8.0750    4.6780   22.7390 C   0  0  0  0  0  0  0  0  0  0  0  0
   10.2400    1.8450   24.0630 C   0  0  0  0  0  0  0  0  0  0  0  0
   13.3730   -2.3150   25.2270 C   0  0  0  0  0  0  0  0  0  0  0  0
   10.5180    4.3080   23.9180 C   0  0  0  0  0  0  0  0  0  0  0  0
    8.9000    5.9150   22.9950 C   0  0  0  0  0  0  0  0  0  0  0  0
   10.0790    5.6940   23.5720 C   0  0  0  0  0  0  0  0  0  0  0  0
   10.9360    6.7180   23.8720 O   0  0  0  0  0  0  0  0  0  0  0  0
   11.8510    6.5540   24.9580 C   0  0  0  0  0  0  0  0  0  0  0  0
  1  2  1  0
  2  3  2  0
  1  4  1  0
  1  5  1  0
  2  6  1  0
  4  7  1  6
  4  8  1  0
  5  9  2  0
  5 10  1  0
  6 11  1  0
  7 12  1  0
  7 13  2  0
  8 14  2  0
  8 15  1  0
  9 16  1  0
 10 17  2  0
 16 17  1  0
 17 18  1  0
 15 19  2  0
 14 20  1  0
 12 21  1  0
 18 22  1  0
 18 23  1  0
 18 24  1  0
 19 25  1  0
 20 25  2  0
 21 26  2  0
 21 27  1  0
 26 28  1  0
 24 29  1  0
 26 30  1  0
 27 31  2  0
 30 32  2  0
 31 32  1  0
 32 33  1  0
 33 34  1  0
M  END
