x3113-x0540-x1119-x2562
     RDKit          3D

 75 81  0  0  0  0  0  0  0  0999 V2000
    6.9380   -1.8660   21.8790 N   0  0  0  0  0  0  0  0  0  0  0  0
    5.9820   -2.9520   21.5670 C   0  0  0  0  0  0  0  0  0  0  0  0
    4.7860   -2.9400   21.1150 O   0  0  0  0  0  0  0  0  0  0  0  0
    6.7970   -0.4240   21.8010 C   0  0  1  0  0  0  0  0  0  0  0  0
    8.1130   -2.2670   22.6200 C   0  0  0  0  0  0  0  0  0  0  0  0
    6.3840   -4.4130   21.7950 C   0  0  0  0  0  0  0  0  0  0  0  0
    8.0880    0.5050   21.8210 C   0  0  2  0  0  0  0  0  0  0  0  0
    6.1780    0.0890   20.5160 C   0  0  0  0  0  0  0  0  0  0  0  0
    9.3000   -2.5290   21.9300 C   0  0  0  0  0  0  0  0  0  0  0  0
    8.1140   -2.3860   23.9290 C   0  0  0  0  0  0  0  0  0  0  0  0
    7.6610   -4.8530   21.0820 C   0  0  0  0  0  0  0  0  0  0  0  0
    7.9800    1.5140   22.9590 N   0  0  0  0  0  0  0  0  0  0  0  0
    8.2940    1.1460   20.7790 O   0  0  0  0  0  0  0  0  0  0  0  0
    8.9960   -0.4540   22.0760 N   0  0  0  0  0  0  0  0  0  0  0  0
    5.0040    0.7480   20.3170 C   0  0  0  0  0  0  0  0  0  0  0  0
    6.7190    0.0220   19.0790 C   0  0  0  0  0  0  0  0  0  0  0  0
   10.5520   -2.9200   22.6010 C   0  0  0  0  0  0  0  0  0  0  0  0
    9.2660   -2.7690   24.5920 C   0  0  0  0  0  0  0  0  0  0  0  0
    9.1500    2.5010   22.8360 C   0  0  0  0  0  0  0  0  0  0  0  0
    4.2140    0.9790   21.4450 C   0  0  0  0  0  0  0  0  0  0  0  0
    6.3060    0.4460   17.8720 N   0  0  0  0  0  0  0  0  0  0  0  0
    4.4900    1.2500   18.9990 C   0  0  0  0  0  0  0  0  0  0  0  0
   10.4590   -3.0380   23.9720 C   0  0  0  0  0  0  0  0  0  0  0  0
   10.3390   -0.3180   21.6810 C   0  0  0  0  0  0  0  0  0  0  0  0
   10.4220    2.2560   23.7240 C   0  0  2  0  0  0  0  0  0  0  0  0
    4.8660    1.8430   22.3190 C   0  0  0  0  0  0  0  0  0  0  0  0
    5.1820    1.0720   17.8520 C   0  0  0  0  0  0  0  0  0  0  0  0
   10.1860    0.1840   22.8940 C   0  0  0  0  0  0  0  0  0  0  0  0
   11.3220    3.4640   23.4650 C   0  0  0  0  0  0  0  0  0  0  0  0
    4.0020    2.7800   22.6310 N   0  0  0  0  0  0  0  0  0  0  0  0
   11.0990    0.8150   23.5130 C   0  0  1  0  0  0  0  0  0  0  0  0
   11.1950    4.0590   22.3820 O   0  0  0  0  0  0  0  0  0  0  0  0
    2.8650    2.4290   23.4720 C   0  0  0  0  0  0  0  0  0  0  0  0
   12.4760    0.4630   22.9810 C   0  0  0  0  0  0  0  0  0  0  0  0
    2.8900    1.4510   24.5100 O   0  0  0  0  0  0  0  0  0  0  0  0
    1.8020    3.1740   23.1170 N   0  0  0  0  0  0  0  0  0  0  0  0
   13.1500   -0.7470   22.7100 C   0  0  1  0  0  0  0  0  0  0  0  0
   12.5380    4.2800   21.8050 N   0  0  0  0  0  0  0  0  0  0  0  0
   13.1710   -1.9440   23.6620 C   0  0  0  0  0  0  0  0  0  0  0  0
   12.8980   -1.5320   21.4630 C   0  0  0  0  0  0  0  0  0  0  0  0
   13.2840    5.4910   22.4980 C   0  0  2  0  0  0  0  0  0  0  0  0
   13.2640    3.5010   22.7640 C   0  0  0  0  0  0  0  0  0  0  0  0
    0.6530    3.3100   24.0020 C   0  0  0  0  0  0  0  0  0  0  0  0
   12.4430   -1.7090   24.8890 C   0  0  0  0  0  0  0  0  0  0  0  0
   14.4180    5.7750   22.1660 O   0  0  0  0  0  0  0  0  0  0  0  0
   13.5030    4.6410   23.4520 C   0  0  0  0  0  0  0  0  0  0  0  0
    0.6060    4.7840   24.5580 C   0  0  0  0  0  0  0  0  0  0  0  0
   -0.4720    2.7920   23.3520 C   0  0  0  0  0  0  0  0  0  0  0  0
   13.3540   -2.8960   25.0840 C   0  0  0  0  0  0  0  0  0  0  0  0
   12.5700   -0.4860   25.5480 C   0  0  0  0  0  0  0  0  0  0  0  0
   15.2570    4.7970   21.6230 C   0  0  0  0  0  0  0  0  0  0  0  0
   -0.7670    5.0060   25.2390 C   0  0  0  0  0  0  0  0  0  0  0  0
   -1.7530    3.2730   23.6630 C   0  0  0  0  0  0  0  0  0  0  0  0
   16.3900    4.3210   22.4360 C   0  0  0  0  0  0  0  0  0  0  0  0
   -1.9290    4.6570   24.2880 C   0  0  0  0  0  0  0  0  0  0  0  0
   17.0770    4.9640   23.5100 C   0  0  0  0  0  0  0  0  0  0  0  0
   18.6260    5.1470   23.2950 C   0  0  0  0  0  0  0  0  0  0  0  0
   19.1860    6.6300   23.5880 C   0  0  0  0  0  0  0  0  0  0  0  0
   20.4050    7.0860   23.1830 N   0  0  0  0  0  0  0  0  0  0  0  0
   21.3350    6.1460   23.5610 C   0  0  0  0  0  0  0  0  0  0  0  0
   22.5320    5.7560   22.6560 C   0  0  0  0  0  0  0  0  0  0  0  0
   21.1020    5.5730   24.8080 C   0  0  0  0  0  0  0  0  0  0  0  0
   23.4790    4.6520   23.1960 C   0  0  0  0  0  0  0  0  0  0  0  0
   21.8960    4.6100   25.3110 C   0  0  0  0  0  0  0  0  0  0  0  0
   23.0810    4.0970   24.5630 C   0  0  0  0  0  0  0  0  0  0  0  0
   23.9950    2.8030   25.3110 S   0  0  0  0  0  0  0  0  0  0  0  0
   23.0690    1.7190   25.3080 O   0  0  0  0  0  0  0  0  0  0  0  0
   24.1560    3.3290   26.9230 N   0  0  0  0  0  0  0  0  0  0  0  0
   25.2830    2.6960   24.6770 O   0  0  0  0  0  0  0  0  0  0  0  0
   24.9960    4.3990   27.2190 C   0  0  0  0  0  0  0  0  0  0  0  0
   25.0140    4.6270   28.5490 N   0  0  0  0  0  0  0  0  0  0  0  0
   25.7050    5.1140   26.2680 C   0  0  0  0  0  0  0  0  0  0  0  0
   25.8460    5.7200   29.0740 C   0  0  0  0  0  0  0  0  0  0  0  0
   26.6000    6.2720   26.7310 C   0  0  0  0  0  0  0  0  0  0  0  0
   26.6750    6.5730   28.0830 C   0  0  0  0  0  0  0  0  0  0  0  0
  1  2  1  0
  2  3  2  0
  4  1  1  6
  1  5  1  0
  2  6  1  0
  4  7  1  0
  4  8  1  0
  5  9  2  0
  5 10  1  0
  6 11  1  0
  7 12  1  0
  7 13  1  6
  7 14  1  0
  8 15  1  0
  8 16  2  0
  9 17  1  0
 10 18  2  0
 12 19  1  0
 15 20  1  0
 16 21  1  0
 15 22  2  0
 17 23  2  0
 18 23  1  0
 14 24  1  0
 19 25  1  0
 20 26  1  0
 21 27  2  0
 22 27  1  0
 24 28  2  0
 25 29  1  6
 26 30  1  0
 25 31  1  0
 28 31  1  0
 29 32  1  0
 30 33  1  0
 31 34  1  6
 33 35  2  0
 33 36  1  0
 34 37  1  0
 32 38  1  0
 37 39  1  0
 37 40  1  6
 38 41  1  0
 38 42  1  0
 36 43  1  0
 39 44  1  0
 41 45  1  6
 41 46  1  0
 42 46  1  0
 43 47  1  0
 43 48  1  0
 44 49  1  0
 44 50  1  0
 45 51  1  0
 47 52  1  0
 48 53  1  0
 51 54  1  0
 52 55  1  0
 53 55  1  0
 54 56  1  0
 56 57  1  0
 57 58  1  0
 58 59  1  0
 59 60  1  0
 60 61  2  0
 60 62  1  0
 61 63  1  0
 62 64  2  0
 63 65  2  0
 64 65  1  0
 65 66  1  0
 66 67  2  0
 66 68  1  0
 66 69  2  0
 68 70  1  0
 70 71  2  0
 70 72  1  0
 71 73  1  0
 72 74  2  0
 73 75  2  0
 74 75  1  0
M  END
