x3110-x1077-x1119-x1311
     RDKit          3D

 68 73  0  0  0  0  0  0  0  0999 V2000
    7.9620    1.0600   23.2790 N   0  0  0  0  0  0  0  0  0  0  0  0
    8.6920    2.2060   23.8360 C   0  0  0  0  0  0  0  0  0  0  0  0
   10.1750    2.1650   23.4670 C   0  0  0  0  0  0  0  0  0  0  0  0
    7.7300    0.7300   21.8710 C   0  0  0  0  0  0  0  0  0  0  0  0
    8.4150    1.2530   20.9700 O   0  0  0  0  0  0  0  0  0  0  0  0
    6.6360   -0.1940   21.6270 C   0  0  2  0  0  0  0  0  0  0  0  0
    6.9740   -1.6440   21.7480 N   0  0  0  0  0  0  0  0  0  0  0  0
   11.0050    3.4170   23.2670 C   0  0  0  0  0  0  0  0  0  0  0  0
    6.1570    0.3020   20.2560 C   0  0  0  0  0  0  0  0  0  0  0  0
   11.5270    3.4240   22.1490 O   0  0  0  0  0  0  0  0  0  0  0  0
   11.1200    4.2960   24.1110 O   0  0  0  0  0  0  0  0  0  0  0  0
    6.2400   -2.9040   21.4150 C   0  0  0  0  0  0  0  0  0  0  0  0
    5.0780    1.1310   20.1930 C   0  0  0  0  0  0  0  0  0  0  0  0
    6.7650   -0.0100   19.0450 C   0  0  0  0  0  0  0  0  0  0  0  0
    8.2760   -1.7580   22.3960 C   0  0  0  0  0  0  0  0  0  0  0  0
   12.3240    4.4990   21.9030 C   0  0  0  0  0  0  0  0  0  0  0  0
    4.9570   -3.1320   21.0920 O   0  0  0  0  0  0  0  0  0  0  0  0
    7.1060   -4.1900   21.5120 C   0  0  1  0  0  0  0  0  0  0  0  0
    6.2820    0.5400   17.7610 N   0  0  0  0  0  0  0  0  0  0  0  0
    4.5870    1.6890   18.8630 C   0  0  0  0  0  0  0  0  0  0  0  0
    9.4210   -1.5850   21.6560 C   0  0  0  0  0  0  0  0  0  0  0  0
    8.3860   -2.0540   23.9080 C   0  0  0  0  0  0  0  0  0  0  0  0
   13.4800    4.3430   22.8600 C   0  0  0  0  0  0  0  0  0  0  0  0
    8.5140   -4.3290   20.9210 C   0  0  0  0  0  0  0  0  0  0  0  0
    5.2100    1.3780   17.7010 C   0  0  0  0  0  0  0  0  0  0  0  0
   10.8160   -1.6870   22.2820 C   0  0  0  0  0  0  0  0  0  0  0  0
    9.7560   -2.1540   24.5670 C   0  0  0  0  0  0  0  0  0  0  0  0
    7.6120   -4.4570   22.9950 C   0  0  0  0  0  0  0  0  0  0  0  0
   14.6760    4.9210   22.2440 C   0  0  0  0  0  0  0  0  0  0  0  0
   11.0170   -1.9710   23.7760 C   0  0  0  0  0  0  0  0  0  0  0  0
    9.1010   -4.7460   23.2270 C   0  0  0  0  0  0  0  0  0  0  0  0
    6.7520   -4.4810   24.2690 C   0  0  0  0  0  0  0  0  0  0  0  0
   12.4100   -2.0170   24.3280 C   0  0  0  0  0  0  0  0  0  0  0  0
   15.9330    4.2930   22.2990 C   0  0  0  0  0  0  0  0  0  0  0  0
    9.7160   -5.0470   24.5740 C   0  0  0  0  0  0  0  0  0  0  0  0
    7.4120   -4.7790   25.6100 C   0  0  0  0  0  0  0  0  0  0  0  0
    5.2780   -4.2990   24.3930 C   0  0  0  0  0  0  0  0  0  0  0  0
   13.2960   -1.1300   23.4410 C   0  0  0  0  0  0  0  0  0  0  0  0
   12.7630   -0.6740   24.8430 C   0  0  0  0  0  0  0  0  0  0  0  0
   12.9530   -2.9990   25.1130 C   0  0  0  0  0  0  0  0  0  0  0  0
   17.0010    4.8170   23.4290 C   0  0  0  0  0  0  0  0  0  0  0  0
    8.8630   -5.0670   25.7910 C   0  0  0  0  0  0  0  0  0  0  0  0
    5.0380   -5.7830   24.4330 C   0  0  2  0  0  0  0  0  0  0  0  0
   18.3640    4.9470   23.0930 C   0  0  0  0  0  0  0  0  0  0  0  0
    5.5660   -6.3060   23.1290 C   0  0  0  0  0  0  0  0  0  0  0  0
    3.4700   -6.5740   24.4040 S   0  0  0  0  0  0  0  0  0  0  0  0
   18.9200    6.2170   23.4990 C   0  0  0  0  0  0  0  0  0  0  0  0
    3.6060   -7.9580   25.1920 O   0  0  0  0  0  0  0  0  0  0  0  0
    2.4240   -5.6950   24.8750 O   0  0  0  0  0  0  0  0  0  0  0  0
    4.5970   -6.5910   22.2600 C   0  0  0  0  0  0  0  0  0  0  0  0
    3.3650   -6.7910   22.7680 C   0  0  0  0  0  0  0  0  0  0  0  0
   20.0890    6.6370   22.7030 N   0  0  0  0  0  0  0  0  0  0  0  0
   21.2610    5.8690   23.0970 C   0  0  0  0  0  0  0  0  0  0  0  0
   22.6030    5.8470   22.6910 C   0  0  0  0  0  0  0  0  0  0  0  0
   20.9410    4.8470   24.2060 C   0  0  0  0  0  0  0  0  0  0  0  0
   23.6610    4.8940   23.2830 C   0  0  0  0  0  0  0  0  0  0  0  0
   21.9400    3.9070   24.7910 C   0  0  0  0  0  0  0  0  0  0  0  0
   23.1890    3.9230   24.3730 C   0  0  0  0  0  0  0  0  0  0  0  0
   24.1200    2.5980   25.3220 S   0  0  0  0  0  0  0  0  0  0  0  0
   23.1430    1.5360   25.4460 O   0  0  0  0  0  0  0  0  0  0  0  0
   24.2850    3.2440   26.8530 N   0  0  0  0  0  0  0  0  0  0  0  0
   25.4130    2.4160   24.7310 O   0  0  0  0  0  0  0  0  0  0  0  0
   25.0950    4.3840   27.1650 C   0  0  0  0  0  0  0  0  0  0  0  0
   25.1390    4.6130   28.5050 N   0  0  0  0  0  0  0  0  0  0  0  0
   25.7250    5.1170   26.2230 C   0  0  0  0  0  0  0  0  0  0  0  0
   25.9420    5.7580   28.9460 C   0  0  0  0  0  0  0  0  0  0  0  0
   26.5020    6.2140   26.5720 C   0  0  0  0  0  0  0  0  0  0  0  0
   26.6250    6.5680   28.0460 C   0  0  0  0  0  0  0  0  0  0  0  0
  1  2  1  0
  2  3  1  0
  1  4  1  0
  4  5  2  0
  6  4  1  6
  6  7  1  0
  3  8  1  0
  6  9  1  0
  8 10  1  0
  8 11  2  0
  7 12  1  0
  9 13  2  0
  9 14  1  0
  7 15  1  0
 10 16  1  0
 12 17  2  0
 12 18  1  0
 14 19  2  0
 13 20  1  0
 15 21  2  0
 15 22  1  0
 16 23  1  0
 18 24  1  6
 19 25  1  0
 20 25  2  0
 21 26  1  0
 22 27  2  0
 18 28  1  0
 23 29  1  0
 26 30  2  0
 27 30  1  0
 28 31  2  0
 28 32  1  0
 30 33  1  0
 29 34  1  0
 31 35  1  0
 32 36  2  0
 32 37  1  0
 33 38  1  0
 33 39  1  0
 33 40  1  0
 34 41  1  0
 35 42  2  0
 36 42  1  0
 43 37  1  6
 41 44  1  0
 43 45  1  0
 43 46  1  0
 44 47  1  0
 46 48  1  0
 46 49  1  0
 45 50  1  0
 46 51  1  0
 50 51  2  0
 47 52  1  0
 52 53  1  0
 53 54  2  0
 53 55  1  0
 54 56  1  0
 55 57  2  0
 56 58  2  0
 57 58  1  0
 58 59  1  0
 59 60  2  0
 59 61  1  0
 59 62  2  0
 61 63  1  0
 63 64  2  0
 63 65  1  0
 64 66  1  0
 65 67  2  0
 66 68  2  0
 67 68  1  0
M  END
