x3110-x2929
     RDKit          3D

 59 63  0  0  0  0  0  0  0  0999 V2000
    8.0100    1.2180   23.3110 N   0  0  0  0  0  0  0  0  0  0  0  0
    8.8700    2.3540   23.5980 C   0  0  0  0  0  0  0  0  0  0  0  0
   10.4140    2.1480   23.4640 C   0  0  0  0  0  0  0  0  0  0  0  0
    7.7420    0.7690   21.9580 C   0  0  0  0  0  0  0  0  0  0  0  0
    8.3860    1.3080   21.0220 O   0  0  0  0  0  0  0  0  0  0  0  0
    6.6610   -0.3250   21.6310 C   0  0  2  0  0  0  0  0  0  0  0  0
    6.9710   -1.6970   21.6830 N   0  0  0  0  0  0  0  0  0  0  0  0
   11.2330    3.4380   23.3940 C   0  0  0  0  0  0  0  0  0  0  0  0
    6.1660    0.1820   20.2950 C   0  0  0  0  0  0  0  0  0  0  0  0
   12.1360    3.3710   22.5650 O   0  0  0  0  0  0  0  0  0  0  0  0
   11.0030    4.4210   24.0860 O   0  0  0  0  0  0  0  0  0  0  0  0
    6.0870   -2.8280   21.2580 C   0  0  0  0  0  0  0  0  0  0  0  0
    5.0490    1.0060   20.2370 C   0  0  0  0  0  0  0  0  0  0  0  0
    6.7900   -0.1160   19.1480 C   0  0  0  0  0  0  0  0  0  0  0  0
    8.2990   -1.8150   22.3260 C   0  0  0  0  0  0  0  0  0  0  0  0
   12.2760    4.5210   21.7100 C   0  0  0  0  0  0  0  0  0  0  0  0
    4.7880   -3.0170   21.3370 O   0  0  0  0  0  0  0  0  0  0  0  0
    6.7440   -4.0050   20.6090 C   0  0  0  0  0  0  0  0  0  0  0  0
    6.3810    0.3770   17.8370 N   0  0  0  0  0  0  0  0  0  0  0  0
    4.5640    1.5550   18.9330 C   0  0  0  0  0  0  0  0  0  0  0  0
    9.4070   -1.1780   21.7570 C   0  0  0  0  0  0  0  0  0  0  0  0
    8.5530   -2.5920   23.6160 C   0  0  0  0  0  0  0  0  0  0  0  0
   13.6890    5.1050   21.7860 C   0  0  0  0  0  0  0  0  0  0  0  0
    8.2150   -3.7040   20.3460 C   0  0  0  0  0  0  0  0  0  0  0  0
    5.2080    1.2600   17.7610 C   0  0  0  0  0  0  0  0  0  0  0  0
   10.7090   -1.1880   22.2920 C   0  0  0  0  0  0  0  0  0  0  0  0
    9.8740   -2.5620   24.0860 C   0  0  0  0  0  0  0  0  0  0  0  0
   14.5930    4.3350   22.7130 C   0  0  0  0  0  0  0  0  0  0  0  0
   10.9080   -1.8850   23.4710 C   0  0  0  0  0  0  0  0  0  0  0  0
   12.3460   -1.8340   24.0290 C   0  0  0  0  0  0  0  0  0  0  0  0
   15.8090    5.0000   22.7480 C   0  0  0  0  0  0  0  0  0  0  0  0
   12.4620   -0.6850   24.8160 C   0  0  0  0  0  0  0  0  0  0  0  0
   13.3790   -1.8420   22.8810 C   0  0  0  0  0  0  0  0  0  0  0  0
   12.7160   -2.9910   24.9650 C   0  0  0  0  0  0  0  0  0  0  0  0
   17.1460    4.6260   23.2520 C   0  0  0  0  0  0  0  0  0  0  0  0
   18.2430    5.6350   23.5450 C   0  0  0  0  0  0  0  0  0  0  0  0
   19.4060    5.5580   24.3860 C   0  0  0  0  0  0  0  0  0  0  0  0
   20.8670    5.7990   24.0060 C   0  0  0  0  0  0  0  0  0  0  0  0
   21.7570    4.8800   24.7970 N   0  0  0  0  0  0  0  0  0  0  0  0
   23.1790    4.6610   24.3730 C   0  0  0  0  0  0  0  0  0  0  0  0
   23.7520    5.3540   23.2320 N   0  0  0  0  0  0  0  0  0  0  0  0
   24.1290    3.6330   25.0730 C   0  0  2  0  0  0  0  0  0  0  0  0
   23.6030    2.3600   24.8310 C   0  0  0  0  0  0  0  0  0  0  0  0
   24.3000    3.6370   26.6100 C   0  0  1  0  0  0  0  0  0  0  0  0
   23.8720    1.5370   26.0090 N   0  0  0  0  0  0  0  0  0  0  0  0
   24.7690    2.3360   26.8370 C   0  0  0  0  0  0  0  0  0  0  0  0
   25.1660    4.7200   27.2290 C   0  0  0  0  0  0  0  0  0  0  0  0
   24.3070    0.1870   25.6520 C   0  0  0  0  0  0  0  0  0  0  0  0
   25.2020    4.7780   28.6350 C   0  0  0  0  0  0  0  0  0  0  0  0
   25.9240    5.6520   26.5090 C   0  0  0  0  0  0  0  0  0  0  0  0
   23.1300   -0.5380   25.0710 C   0  0  0  0  0  0  0  0  0  0  0  0
   25.9660    5.7300   29.3040 C   0  0  0  0  0  0  0  0  0  0  0  0
   26.6910    6.6080   27.1790 C   0  0  0  0  0  0  0  0  0  0  0  0
   22.1060   -0.9760   25.9030 C   0  0  0  0  0  0  0  0  0  0  0  0
   23.0040   -0.7900   23.7040 C   0  0  0  0  0  0  0  0  0  0  0  0
   26.7130    6.6500   28.5710 C   0  0  0  0  0  0  0  0  0  0  0  0
   21.0020   -1.6210   25.4780 N   0  0  0  0  0  0  0  0  0  0  0  0
   21.8760   -1.4540   23.2370 C   0  0  0  0  0  0  0  0  0  0  0  0
   20.9140   -1.8430   24.1550 C   0  0  0  0  0  0  0  0  0  0  0  0
  1  2  1  0
  2  3  1  0
  1  4  1  0
  4  5  2  0
  6  4  1  6
  6  7  1  0
  3  8  1  0
  6  9  1  0
  8 10  1  0
  8 11  2  0
  7 12  1  0
  9 13  2  0
  9 14  1  0
  7 15  1  0
 10 16  1  0
 12 17  2  0
 12 18  1  0
 14 19  2  0
 13 20  1  0
 15 21  2  0
 15 22  1  0
 16 23  1  0
 18 24  1  0
 19 25  1  0
 20 25  2  0
 21 26  1  0
 22 27  2  0
 23 28  1  0
 26 29  2  0
 27 29  1  0
 29 30  1  0
 28 31  1  0
 30 32  1  0
 30 33  1  0
 30 34  1  0
 31 35  1  0
 35 36  1  0
 36 37  1  0
 37 38  1  0
 38 39  1  0
 39 40  2  3
 40 41  1  0
 42 40  1  1
 42 43  1  0
 42 44  1  0
 43 45  1  0
 44 46  1  0
 45 46  1  0
 44 47  1  6
 45 48  1  0
 47 49  2  0
 47 50  1  0
 48 51  1  0
 49 52  1  0
 50 53  2  0
 51 54  2  0
 51 55  1  0
 52 56  2  0
 53 56  1  0
 54 57  1  0
 55 58  2  0
 57 59  2  0
 58 59  1  0
M  END
