x3115-x1119-x1311-x3110-x0786-x2776-x0426-x0731-x0946
     RDKit          3D

107118  0  0  0  0  0  0  0  0999 V2000
    7.8650    1.6670   22.9890 N   0  0  0  0  0  0  0  0  0  0  0  0
    7.7270    0.8750   21.7520 C   0  0  0  0  0  0  0  0  0  0  0  0
    8.4150    1.1270   20.7670 O   0  0  0  0  0  0  0  0  0  0  0  0
    8.2820    3.0570   23.2680 C   0  0  0  0  0  0  0  0  0  0  0  0
    6.6010   -0.2920   21.6150 C   0  0  2  0  0  0  0  0  0  0  0  0
    9.6120    3.4120   23.4670 C   0  0  0  0  0  0  0  0  0  0  0  0
    7.3100    4.1890   23.3540 C   0  0  0  0  0  0  0  0  0  0  0  0
    7.0240   -1.4710   21.6480 N   0  0  0  0  0  0  0  0  0  0  0  0
    6.0680    0.2370   20.3070 C   0  0  0  0  0  0  0  0  0  0  0  0
   10.0900    4.8490   23.8620 C   0  0  0  0  0  0  0  0  0  0  0  0
    7.8170    5.6240   23.6840 C   0  0  0  0  0  0  0  0  0  0  0  0
   10.7570    2.5980   23.3100 C   0  0  0  0  0  0  0  0  0  0  0  0
    6.1840   -2.7820   21.5620 C   0  0  0  0  0  0  0  0  0  0  0  0
    6.7970    6.7000   23.7110 C   0  0  0  0  0  0  0  0  0  0  0  0
   11.3770    5.2360   24.1410 O   0  0  0  0  0  0  0  0  0  0  0  0
    4.8680    0.9850   20.1500 C   0  0  0  0  0  0  0  0  0  0  0  0
    6.8320   -0.0050   19.1660 C   0  0  0  0  0  0  0  0  0  0  0  0
    8.3010   -1.5250   22.3560 C   0  0  0  0  0  0  0  0  0  0  0  0
    9.1310    5.9770   23.9580 C   0  0  0  0  0  0  0  0  0  0  0  0
   11.7390    3.4850   22.9520 C   0  0  0  0  0  0  0  0  0  0  0  0
   10.9390    1.3060   23.4140 C   0  0  0  0  0  0  0  0  0  0  0  0
    4.9100   -3.0290   21.0680 O   0  0  0  0  0  0  0  0  0  0  0  0
    6.7470   -4.0910   22.1830 C   0  0  1  0  0  0  0  0  0  0  0  0
    9.5480    7.2570   24.2840 O   0  0  0  0  0  0  0  0  0  0  0  0
    3.7690    1.4360   21.1230 C   0  0  0  0  0  0  0  0  0  0  0  0
    6.4980    0.4500   17.9430 N   0  0  0  0  0  0  0  0  0  0  0  0
    4.5540    1.4410   18.8840 C   0  0  0  0  0  0  0  0  0  0  0  0
    9.4500   -2.0180   21.7270 C   0  0  0  0  0  0  0  0  0  0  0  0
    8.4550   -1.1140   23.6800 C   0  0  0  0  0  0  0  0  0  0  0  0
   12.2050    0.7860   23.1400 C   0  0  0  0  0  0  0  0  0  0  0  0
   12.9890    3.1850   22.6860 C   0  0  0  0  0  0  0  0  0  0  0  0
   13.8480    4.4130   22.3390 C   0  0  2  0  0  0  0  0  0  0  0  0
    6.7410   -4.2990   20.5700 C   0  0  0  0  0  0  0  0  0  0  0  0
   10.7360    7.2910   24.9800 C   0  0  0  0  0  0  0  0  0  0  0  0
    4.1640    1.8550   22.3970 C   0  0  0  0  0  0  0  0  0  0  0  0
    5.4090    1.1800   17.6930 C   0  0  0  0  0  0  0  0  0  0  0  0
   10.7010   -2.1240   22.3450 C   0  0  0  0  0  0  0  0  0  0  0  0
    9.8150   -1.2340   24.3700 C   0  0  0  0  0  0  0  0  0  0  0  0
   13.2500    1.6270   22.7920 C   0  0  0  0  0  0  0  0  0  0  0  0
    7.9190   -4.4390   23.1450 C   0  0  0  0  0  0  0  0  0  0  0  0
    5.6690   -4.4890   23.0780 C   0  0  1  0  0  0  0  0  0  0  0  0
   13.1600    5.1220   21.1380 C   0  0  0  0  0  0  0  0  0  0  0  0
    3.2870    2.7040   23.0390 N   0  0  0  0  0  0  0  0  0  0  0  0
   15.3610    4.2290   22.1440 C   0  0  0  0  0  0  0  0  0  0  0  0
   10.9060   -1.7460   23.6710 C   0  0  0  0  0  0  0  0  0  0  0  0
    8.4970   -5.6750   23.0930 C   0  0  0  0  0  0  0  0  0  0  0  0
    8.3620   -3.5680   24.1300 C   0  0  0  0  0  0  0  0  0  0  0  0
    5.4660   -5.8590   23.6880 C   0  0  2  0  0  0  0  0  0  0  0  0
    4.7610   -3.5500   23.6890 C   0  0  0  0  0  0  0  0  0  0  0  0
   12.2920   -1.9020   24.3620 C   0  0  0  0  0  0  0  0  0  0  0  0
    2.4810    2.1500   24.0370 C   0  0  0  0  0  0  0  0  0  0  0  0
   16.0330    4.9320   23.1660 C   0  0  0  0  0  0  0  0  0  0  0  0
    9.4600   -6.0330   23.9700 C   0  0  0  0  0  0  0  0  0  0  0  0
    9.3340   -3.9090   25.0070 C   0  0  0  0  0  0  0  0  0  0  0  0
    4.6290   -6.3340   23.0290 C   0  0  0  0  0  0  0  0  0  0  0  0
    3.8280   -6.4090   24.2430 S   0  0  0  0  0  0  0  0  0  0  0  0
    4.9440   -3.5790   25.0940 C   0  0  2  0  0  0  0  0  0  0  0  0
   12.5760   -0.8240   25.1860 C   0  0  0  0  0  0  0  0  0  0  0  0
   13.3010   -1.9980   23.4310 C   0  0  0  0  0  0  0  0  0  0  0  0
   12.3250   -3.0760   25.0480 C   0  0  0  0  0  0  0  0  0  0  0  0
    2.7090    0.8570   24.5790 O   0  0  0  0  0  0  0  0  0  0  0  0
    3.7920   -6.1480   25.5220 O   0  0  0  0  0  0  0  0  0  0  0  0
    4.9090   -5.0230   26.1590 S   0  0  0  0  0  0  0  0  0  0  0  0
   17.4100    4.7650   23.2800 C   0  0  0  0  0  0  0  0  0  0  0  0
    1.3420    2.9250   24.6300 C   0  0  0  0  0  0  0  0  0  0  0  0
    9.9020   -5.1640   24.9420 C   0  0  0  0  0  0  0  0  0  0  0  0
    3.1780   -7.0040   22.4290 C   0  0  0  0  0  0  0  0  0  0  0  0
    3.9600   -2.9160   25.5870 C   0  0  0  0  0  0  0  0  0  0  0  0
    2.4360   -6.5520   24.7870 N   0  0  0  0  0  0  0  0  0  0  0  0
    4.4500   -6.6510   22.0560 C   0  0  0  0  0  0  0  0  0  0  0  0
    6.2840   -5.3070   26.4980 O   0  0  0  0  0  0  0  0  0  0  0  0
   18.7080    5.6580   23.4190 C   0  0  0  0  0  0  0  0  0  0  0  0
    1.5820    4.1200   25.4620 C   0  0  0  0  0  0  0  0  0  0  0  0
    0.0110    2.5530   24.4370 C   0  0  0  0  0  0  0  0  0  0  0  0
    1.5120   -5.7530   23.8740 C   0  0  0  0  0  0  0  0  0  0  0  0
    1.7170   -7.8860   24.7280 C   0  0  0  0  0  0  0  0  0  0  0  0
    2.6800   -3.4370   25.3440 C   0  0  0  0  0  0  0  0  0  0  0  0
    4.0330   -1.7750   26.2910 C   0  0  0  0  0  0  0  0  0  0  0  0
    2.8280    4.5520   25.6980 F   0  0  0  0  0  0  0  0  0  0  0  0
   19.1000    7.1200   23.6730 C   0  0  0  0  0  0  0  0  0  0  0  0
   -1.0290    3.2830   25.0190 C   0  0  0  0  0  0  0  0  0  0  0  0
    0.5130    4.8080   26.0140 C   0  0  0  0  0  0  0  0  0  0  0  0
    0.4770   -5.2180   24.5010 C   0  0  0  0  0  0  0  0  0  0  0  0
    0.4670   -7.8250   25.3900 C   0  0  0  0  0  0  0  0  0  0  0  0
    1.5360   -2.8200   25.7740 C   0  0  0  0  0  0  0  0  0  0  0  0
    2.8890   -1.1350   26.7370 C   0  0  0  0  0  0  0  0  0  0  0  0
   20.5110    7.3040   23.2930 N   0  0  0  0  0  0  0  0  0  0  0  0
   -0.7880    4.3710   25.7810 C   0  0  0  0  0  0  0  0  0  0  0  0
   -0.6480   -6.6020   24.6700 S   0  0  0  0  0  0  0  0  0  0  0  0
    1.6570   -1.6510   26.4730 C   0  0  0  0  0  0  0  0  0  0  0  0
    0.4650   -0.9180   26.9520 C   0  0  0  0  0  0  0  0  0  0  0  0
   21.4480    6.3460   23.5240 C   0  0  0  0  0  0  0  0  0  0  0  0
   22.4240    5.8490   22.7290 C   0  0  0  0  0  0  0  0  0  0  0  0
   21.2860    5.8310   24.8220 C   0  0  0  0  0  0  0  0  0  0  0  0
   23.2460    4.8200   23.1960 C   0  0  0  0  0  0  0  0  0  0  0  0
   22.0650    4.8470   25.2770 C   0  0  0  0  0  0  0  0  0  0  0  0
   23.0490    4.3150   24.4840 C   0  0  0  0  0  0  0  0  0  0  0  0
   23.9100    3.0520   25.2190 S   0  0  0  0  0  0  0  0  0  0  0  0
   22.9910    1.8810   25.0600 O   0  0  0  0  0  0  0  0  0  0  0  0
   24.2830    3.2930   26.8410 N   0  0  0  0  0  0  0  0  0  0  0  0
   25.0570    2.6900   24.4220 O   0  0  0  0  0  0  0  0  0  0  0  0
   25.0480    4.3580   27.3020 C   0  0  0  0  0  0  0  0  0  0  0  0
   25.0970    4.6690   28.6010 N   0  0  0  0  0  0  0  0  0  0  0  0
   25.7810    5.1270   26.4090 C   0  0  0  0  0  0  0  0  0  0  0  0
   25.8360    5.6970   29.0280 C   0  0  0  0  0  0  0  0  0  0  0  0
   26.5600    6.2020   26.8180 C   0  0  0  0  0  0  0  0  0  0  0  0
   26.5820    6.4870   28.1680 C   0  0  0  0  0  0  0  0  0  0  0  0
  1  2  1  0
  2  3  2  0
  1  4  1  0
  5  2  1  6
  4  6  1  0
  4  7  2  0
  5  8  1  0
  5  9  1  0
  6 10  2  0
  7 11  1  0
  6 12  1  0
  8 13  1  0
 11 14  1  0
 10 15  1  0
  9 16  1  0
  9 17  2  0
  8 18  1  0
 10 19  1  0
 11 19  2  0
 12 20  2  0
 12 21  1  0
 13 22  2  0
 23 13  1  0
 19 24  1  0
 16 25  1  0
 17 26  1  0
 16 27  2  0
 18 28  2  0
 18 29  1  0
 21 30  2  0
 20 31  1  0
 31 32  1  0
 23 33  1  6
 24 34  1  0
 25 35  1  0
 26 36  2  0
 27 36  1  0
 28 37  1  0
 29 38  2  0
 30 39  1  0
 31 39  2  0
 23 40  1  0
 23 41  1  0
 32 42  1  6
 35 43  1  0
 32 44  1  0
 37 45  2  0
 38 45  1  0
 40 46  2  0
 40 47  1  0
 41 48  1  0
 41 49  1  1
 45 50  1  0
 43 51  1  0
 44 52  1  0
 46 53  1  0
 47 54  2  0
 48 55  1  6
 48 56  1  0
 49 57  1  0
 50 58  1  0
 50 59  1  0
 50 60  1  0
 51 61  2  0
 56 62  1  0
 57 63  1  0
 63 62  1  6
 52 64  1  0
 51 65  1  0
 53 66  2  0
 54 66  1  0
 56 67  2  0
 57 68  1  1
 56 69  1  0
 55 70  2  0
 67 70  1  0
 63 71  2  0
 64 72  1  0
 65 73  2  0
 65 74  1  0
 69 75  1  0
 69 76  1  0
 68 77  2  0
 68 78  1  0
 73 79  1  0
 72 80  1  0
 74 81  2  0
 73 82  1  0
 75 83  1  0
 76 84  1  0
 77 85  1  0
 78 86  2  0
 80 87  1  0
 81 88  1  0
 82 88  2  0
 83 89  1  0
 84 89  1  0
 85 90  2  0
 86 90  1  0
 90 91  1  0
 87 92  1  0
 92 93  2  0
 92 94  1  0
 93 95  1  0
 94 96  2  0
 95 97  2  0
 96 97  1  0
 97 98  1  0
 98 99  2  0
 98100  1  0
 98101  2  0
100102  1  0
102103  2  0
102104  1  0
103105  1  0
104106  2  0
105107  2  0
106107  1  0
M  END
