x3113-x1375
     RDKit          3D

 46 50  0  0  0  0  0  0  0  0999 V2000
    7.1580   -1.5040   21.7590 N   0  0  0  0  0  0  0  0  0  0  0  0
    6.2960   -2.7610   21.5200 C   0  0  0  0  0  0  0  0  0  0  0  0
    4.9460   -3.1130   21.2140 O   0  0  0  0  0  0  0  0  0  0  0  0
    6.6800   -0.0780   21.6440 C   0  0  1  0  0  0  0  0  0  0  0  0
    8.5740   -1.5680   22.2930 C   0  0  0  0  0  0  0  0  0  0  0  0
    7.2980   -3.8750   21.6460 C   0  0  2  0  0  0  0  0  0  0  0  0
    7.6960    0.9440   21.8260 C   0  0  0  0  0  0  0  0  0  0  0  0
    6.1180    0.3460   20.3200 C   0  0  0  0  0  0  0  0  0  0  0  0
    9.5860   -0.6410   21.9130 C   0  0  0  0  0  0  0  0  0  0  0  0
    9.0150   -2.5220   23.1940 C   0  0  0  0  0  0  0  0  0  0  0  0
    7.1000   -4.7820   20.4500 C   0  0  0  0  0  0  0  0  0  0  0  0
    8.0840    1.3000   23.0850 N   0  0  0  0  0  0  0  0  0  0  0  0
    8.2050    1.5190   20.8510 O   0  0  0  0  0  0  0  0  0  0  0  0
    4.9670    1.1510   20.1510 C   0  0  0  0  0  0  0  0  0  0  0  0
    6.8100   -0.0710   19.1710 C   0  0  0  0  0  0  0  0  0  0  0  0
   10.8620   -0.7030   22.4500 C   0  0  0  0  0  0  0  0  0  0  0  0
   10.3150   -2.4640   23.6430 C   0  0  0  0  0  0  0  0  0  0  0  0
    8.4480   -3.6140   23.7950 C   0  0  0  0  0  0  0  0  0  0  0  0
    7.5860   -4.3900   23.1000 C   0  0  0  0  0  0  0  0  0  0  0  0
    9.0690    2.2540   23.1620 C   0  0  0  0  0  0  0  0  0  0  0  0
    6.3480    0.3400   17.8370 N   0  0  0  0  0  0  0  0  0  0  0  0
    4.4910    1.5620   18.9260 C   0  0  0  0  0  0  0  0  0  0  0  0
   11.2560   -1.6230   23.3510 C   0  0  0  0  0  0  0  0  0  0  0  0
    8.8940   -3.7880   25.0550 C   0  0  0  0  0  0  0  0  0  0  0  0
    7.1310   -5.4780   23.7720 C   0  0  0  0  0  0  0  0  0  0  0  0
   10.2310    1.9840   23.8630 C   0  0  0  0  0  0  0  0  0  0  0  0
   12.6260   -1.7020   23.9700 C   0  0  0  0  0  0  0  0  0  0  0  0
    5.1570    1.1800   17.8030 C   0  0  0  0  0  0  0  0  0  0  0  0
    8.4850   -4.8240   25.7540 C   0  0  0  0  0  0  0  0  0  0  0  0
    7.5990   -5.6600   25.1220 C   0  0  0  0  0  0  0  0  0  0  0  0
    6.1790   -6.4410   23.1070 C   0  0  0  0  0  0  0  0  0  0  0  0
   11.3860    2.5410   23.2660 C   0  0  0  0  0  0  0  0  0  0  0  0
   13.5100   -2.0130   22.9980 C   0  0  0  0  0  0  0  0  0  0  0  0
   12.8180   -2.7730   25.0710 C   0  0  0  0  0  0  0  0  0  0  0  0
   12.8040   -0.4490   24.5820 C   0  0  0  0  0  0  0  0  0  0  0  0
    8.9530   -4.9800   26.9920 F   0  0  0  0  0  0  0  0  0  0  0  0
    5.3600   -5.7630   22.2560 C   0  0  0  0  0  0  0  0  0  0  0  0
   11.5110    3.9060   23.4110 O   0  0  0  0  0  0  0  0  0  0  0  0
    4.1980   -5.1210   22.9720 C   0  0  2  0  0  0  0  0  0  0  0  0
   12.7320    4.4290   22.8750 C   0  0  0  0  0  0  0  0  0  0  0  0
    4.4700   -4.8050   24.3070 C   0  0  0  0  0  0  0  0  0  0  0  0
    3.1570   -6.2220   22.9990 C   0  0  0  0  0  0  0  0  0  0  0  0
    3.3220   -6.9490   24.6450 S   0  0  0  0  0  0  0  0  0  0  0  0
    4.1010   -5.6210   25.3190 C   0  0  0  0  0  0  0  0  0  0  0  0
    2.0130   -7.1060   25.2100 O   0  0  0  0  0  0  0  0  0  0  0  0
    4.2790   -8.0240   24.5640 O   0  0  0  0  0  0  0  0  0  0  0  0
  1  2  1  0
  2  3  2  0
  1  4  1  0
  1  5  1  0
  2  6  1  0
  4  7  1  6
  4  8  1  0
  5  9  2  0
  5 10  1  0
  6 11  1  6
  7 12  1  0
  7 13  2  0
  8 14  2  0
  8 15  1  0
  9 16  1  0
 10 17  2  0
 10 18  1  0
  6 19  1  0
 18 19  2  0
 12 20  1  0
 15 21  2  0
 14 22  1  0
 16 23  2  0
 17 23  1  0
 18 24  1  0
 19 25  1  0
 20 26  1  0
 23 27  1  0
 21 28  1  0
 22 28  2  0
 24 29  2  0
 25 30  2  0
 29 30  1  0
 25 31  1  0
 26 32  1  0
 27 33  1  0
 27 34  1  0
 27 35  1  0
 29 36  1  0
 31 37  1  0
 32 38  1  0
 39 37  1  1
 38 40  1  0
 39 41  1  0
 39 42  1  0
 42 43  1  0
 41 44  2  0
 43 44  1  0
 43 45  1  0
 43 46  1  0
M  END
