x3110-x0540
     RDKit          3D

 44 46  0  0  0  0  0  0  0  0999 V2000
    7.9470    1.0750   23.3580 N   0  0  0  0  0  0  0  0  0  0  0  0
    8.7670    2.2350   23.6690 C   0  0  0  0  0  0  0  0  0  0  0  0
   10.3160    2.0640   23.5540 C   0  0  0  0  0  0  0  0  0  0  0  0
    7.7210    0.6360   21.9940 C   0  0  0  0  0  0  0  0  0  0  0  0
    8.4120    1.1510   21.0990 O   0  0  0  0  0  0  0  0  0  0  0  0
    6.6340   -0.4170   21.5910 C   0  0  2  0  0  0  0  0  0  0  0  0
    6.9700   -1.7570   21.6720 N   0  0  0  0  0  0  0  0  0  0  0  0
   11.1400    3.3410   23.3880 C   0  0  0  0  0  0  0  0  0  0  0  0
    6.1670    0.0710   20.2320 C   0  0  0  0  0  0  0  0  0  0  0  0
   11.9480    3.2560   22.4740 O   0  0  0  0  0  0  0  0  0  0  0  0
   10.9990    4.3330   24.0900 O   0  0  0  0  0  0  0  0  0  0  0  0
    6.1050   -2.8910   21.2620 C   0  0  0  0  0  0  0  0  0  0  0  0
    4.9900    0.7970   20.2280 C   0  0  0  0  0  0  0  0  0  0  0  0
    6.8730   -0.1410   18.9170 C   0  0  0  0  0  0  0  0  0  0  0  0
    8.3210   -1.8730   22.3040 C   0  0  0  0  0  0  0  0  0  0  0  0
   12.3960    4.5170   21.9480 C   0  0  0  0  0  0  0  0  0  0  0  0
    4.8110   -3.0640   21.3670 O   0  0  0  0  0  0  0  0  0  0  0  0
    6.7590   -4.0550   20.5920 C   0  0  0  0  0  0  0  0  0  0  0  0
    4.2270    1.0440   21.4820 C   0  0  0  0  0  0  0  0  0  0  0  0
    6.3920    0.3720   17.7670 N   0  0  0  0  0  0  0  0  0  0  0  0
    4.5630    1.2850   19.0160 C   0  0  0  0  0  0  0  0  0  0  0  0
    9.4290   -1.2090   21.7310 C   0  0  0  0  0  0  0  0  0  0  0  0
    8.6150   -2.5610   23.4290 C   0  0  0  0  0  0  0  0  0  0  0  0
   13.3950    5.2000   22.8680 C   0  0  0  0  0  0  0  0  0  0  0  0
    8.2260   -3.7120   20.3420 C   0  0  0  0  0  0  0  0  0  0  0  0
    4.9490    1.7740   22.4200 C   0  0  0  0  0  0  0  0  0  0  0  0
    5.2430    1.0830   17.8360 C   0  0  0  0  0  0  0  0  0  0  0  0
   10.6330   -1.2660   22.3120 C   0  0  0  0  0  0  0  0  0  0  0  0
    9.8910   -2.6110   24.0080 C   0  0  0  0  0  0  0  0  0  0  0  0
    4.1330    2.8390   22.9470 N   0  0  0  0  0  0  0  0  0  0  0  0
   10.9610   -1.9360   23.4700 C   0  0  0  0  0  0  0  0  0  0  0  0
   12.3910   -1.8650   24.0220 C   0  0  0  0  0  0  0  0  0  0  0  0
    2.9180    2.4050   23.6360 C   0  0  0  0  0  0  0  0  0  0  0  0
   12.4980   -0.7140   24.8020 C   0  0  0  0  0  0  0  0  0  0  0  0
   13.4080   -1.8910   22.8680 C   0  0  0  0  0  0  0  0  0  0  0  0
   12.7610   -3.0090   24.9700 C   0  0  0  0  0  0  0  0  0  0  0  0
    2.8770    1.5190   24.4870 O   0  0  0  0  0  0  0  0  0  0  0  0
    1.7570    3.1910   23.1560 N   0  0  0  0  0  0  0  0  0  0  0  0
    0.5710    3.3230   23.9770 C   0  0  0  0  0  0  0  0  0  0  0  0
    0.4990    4.7210   24.6040 C   0  0  0  0  0  0  0  0  0  0  0  0
   -0.5750    3.0150   23.2100 C   0  0  0  0  0  0  0  0  0  0  0  0
   -0.7490    5.0280   25.1450 C   0  0  0  0  0  0  0  0  0  0  0  0
   -1.9550    3.3420   23.7930 C   0  0  0  0  0  0  0  0  0  0  0  0
   -1.9970    4.6200   24.3500 C   0  0  0  0  0  0  0  0  0  0  0  0
  1  2  1  0
  2  3  1  0
  1  4  1  0
  4  5  2  0
  6  4  1  6
  6  7  1  0
  3  8  1  0
  6  9  1  0
  8 10  1  0
  8 11  2  0
  7 12  1  0
  9 13  1  0
  9 14  2  0
  7 15  1  0
 10 16  1  0
 12 17  2  0
 12 18  1  0
 13 19  1  0
 14 20  1  0
 13 21  2  0
 15 22  2  0
 15 23  1  0
 16 24  1  0
 18 25  1  0
 19 26  1  0
 20 27  2  0
 21 27  1  0
 22 28  1  0
 23 29  2  0
 26 30  1  0
 28 31  2  0
 29 31  1  0
 31 32  1  0
 30 33  1  0
 32 34  1  0
 32 35  1  0
 32 36  1  0
 33 37  2  0
 33 38  1  0
 38 39  1  0
 39 40  1  0
 39 41  1  0
 40 42  1  0
 41 43  1  0
 42 44  1  0
 43 44  1  0
M  END
