x3115-x0734
     RDKit          3D

 44 48  0  0  0  0  0  0  0  0999 V2000
    7.3140   -1.5670   22.3680 C   0  0  2  0  0  0  0  0  0  0  0  0
    6.9820   -0.2130   21.7060 C   0  0  1  0  0  0  0  0  0  0  0  0
    7.8730    0.9750   21.8900 C   0  0  0  0  0  0  0  0  0  0  0  0
    8.6080   -1.6080   23.0260 C   0  0  0  0  0  0  0  0  0  0  0  0
    7.7320   -2.9620   21.7660 C   0  0  2  0  0  0  0  0  0  0  0  0
    6.0950   -2.1230   23.0930 C   0  0  0  0  0  0  0  0  0  0  0  0
    5.5340   -2.9420   21.9560 C   0  0  0  0  0  0  0  0  0  0  0  0
    6.4040    0.0740   20.3400 C   0  0  0  0  0  0  0  0  0  0  0  0
    9.7110   -1.4890   22.1810 C   0  0  0  0  0  0  0  0  0  0  0  0
    8.8420   -1.7910   24.3420 C   0  0  0  0  0  0  0  0  0  0  0  0
    6.5690   -3.7460   21.1680 C   0  0  1  0  0  0  0  0  0  0  0  0
    8.3160   -4.0050   22.7310 C   0  0  0  0  0  0  0  0  0  0  0  0
    6.6020   -3.7040   19.6590 C   0  0  0  0  0  0  0  0  0  0  0  0
    4.3800   -2.9390   21.7560 O   0  0  0  0  0  0  0  0  0  0  0  0
    7.5970    1.7850   22.8320 N   0  0  0  0  0  0  0  0  0  0  0  0
    8.8060    1.1980   21.1220 O   0  0  0  0  0  0  0  0  0  0  0  0
    5.1710    0.9420   20.2500 C   0  0  0  0  0  0  0  0  0  0  0  0
    6.9300   -0.3790   18.9400 C   0  0  0  0  0  0  0  0  0  0  0  0
   10.9870   -1.5660   22.6120 C   0  0  0  0  0  0  0  0  0  0  0  0
   10.2700   -1.8860   24.8700 C   0  0  0  0  0  0  0  0  0  0  0  0
    6.4330   -5.2150   21.6330 C   0  0  0  0  0  0  0  0  0  0  0  0
    7.3070   -4.4730   23.7060 N   0  0  0  0  0  0  0  0  0  0  0  0
    8.3410    2.9740   23.1770 C   0  0  0  0  0  0  0  0  0  0  0  0
    6.2920    0.0290   17.8180 N   0  0  0  0  0  0  0  0  0  0  0  0
    4.5790    1.3080   19.0700 C   0  0  0  0  0  0  0  0  0  0  0  0
   11.2950   -1.7710   23.9470 C   0  0  0  0  0  0  0  0  0  0  0  0
    7.7010   -4.7340   25.0830 C   0  0  0  0  0  0  0  0  0  0  0  0
    6.2150   -5.2490   23.1330 C   0  0  0  0  0  0  0  0  0  0  0  0
    7.8340    4.1050   22.5290 C   0  0  0  0  0  0  0  0  0  0  0  0
   12.6640   -1.8570   24.4470 C   0  0  0  0  0  0  0  0  0  0  0  0
    5.1820    0.8290   17.8660 C   0  0  0  0  0  0  0  0  0  0  0  0
    6.7050   -4.8950   26.2440 C   0  0  0  0  0  0  0  0  0  0  0  0
    9.2170   -4.8390   25.2920 C   0  0  0  0  0  0  0  0  0  0  0  0
    8.4630    5.3020   23.0370 O   0  0  0  0  0  0  0  0  0  0  0  0
   13.4610   -2.0330   23.3350 C   0  0  0  0  0  0  0  0  0  0  0  0
   12.9390   -3.0240   25.4040 C   0  0  0  0  0  0  0  0  0  0  0  0
   12.8080   -0.6730   25.0700 C   0  0  0  0  0  0  0  0  0  0  0  0
    5.2630   -4.7990   26.1030 N   0  0  0  0  0  0  0  0  0  0  0  0
    9.7100   -5.1100   26.7020 C   0  0  0  0  0  0  0  0  0  0  0  0
    7.2830   -5.1520   27.5150 C   0  0  0  0  0  0  0  0  0  0  0  0
    8.3100    6.4380   22.1890 C   0  0  0  0  0  0  0  0  0  0  0  0
    4.5800   -5.8420   25.3590 O   0  0  0  0  0  0  0  0  0  0  0  0
    4.6920   -3.9020   26.7430 O   0  0  0  0  0  0  0  0  0  0  0  0
    8.8090   -5.2600   27.7410 C   0  0  0  0  0  0  0  0  0  0  0  0
  1  2  1  0
  2  3  1  6
  1  4  1  1
  1  5  1  0
  1  6  1  0
  6  7  1  0
  2  8  1  0
  4  9  2  0
  4 10  1  0
  5 11  1  0
  7 11  1  0
  5 12  1  1
 11 13  1  6
  7 14  2  0
  3 15  1  0
  3 16  2  0
  8 17  2  0
  8 18  1  0
  9 19  1  0
 10 20  2  0
 11 21  1  0
 12 22  1  0
 15 23  1  0
 18 24  2  0
 17 25  1  0
 19 26  2  0
 20 26  1  0
 22 27  1  0
 21 28  1  0
 22 28  1  0
 23 29  1  0
 26 30  1  0
 24 31  1  0
 25 31  2  0
 27 32  2  0
 27 33  1  0
 29 34  1  0
 30 35  1  0
 30 36  1  0
 30 37  1  0
 32 38  1  0
 33 39  2  0
 32 40  1  0
 34 41  1  0
 38 42  2  0
 38 43  1  0
 39 44  1  0
 40 44  2  0
M  CHG  2  38   1  43  -1
M  END
