x3110-x1311-x3115
     RDKit          3D

 49 52  0  0  0  0  0  0  0  0999 V2000
    8.0210    1.2980   23.0040 N   0  0  0  0  0  0  0  0  0  0  0  0
    8.7950    2.5010   22.9310 C   0  0  2  0  0  0  0  0  0  0  0  0
   10.0630    2.3270   23.6310 C   0  0  0  0  0  0  0  0  0  0  0  0
    7.6900    0.7620   21.6840 C   0  0  0  0  0  0  0  0  0  0  0  0
    8.2170    1.2280   20.6660 O   0  0  0  0  0  0  0  0  0  0  0  0
    6.6990   -0.3070   21.6330 C   0  0  2  0  0  0  0  0  0  0  0  0
    8.0890    3.8470   23.2220 C   0  0  0  0  0  0  0  0  0  0  0  0
    7.0460   -1.7020   21.7890 N   0  0  0  0  0  0  0  0  0  0  0  0
   10.9400    3.4060   23.4770 C   0  0  0  0  0  0  0  0  0  0  0  0
    8.9250    4.9850   22.9700 O   0  0  0  0  0  0  0  0  0  0  0  0
    6.2060    0.1890   20.3020 C   0  0  0  0  0  0  0  0  0  0  0  0
   11.7170    3.2480   22.5420 O   0  0  0  0  0  0  0  0  0  0  0  0
   10.9430    4.4060   24.1920 O   0  0  0  0  0  0  0  0  0  0  0  0
    6.2900   -2.9520   21.4600 C   0  0  0  0  0  0  0  0  0  0  0  0
    8.2330    6.0450   22.3040 C   0  0  0  0  0  0  0  0  0  0  0  0
    5.0870    1.0170   20.3290 C   0  0  0  0  0  0  0  0  0  0  0  0
    6.8580   -0.1370   18.9290 C   0  0  0  0  0  0  0  0  0  0  0  0
    8.3070   -1.7570   22.4870 C   0  0  0  0  0  0  0  0  0  0  0  0
   12.2330    4.4490   21.9310 C   0  0  0  0  0  0  0  0  0  0  0  0
    4.9920   -3.1790   21.1050 O   0  0  0  0  0  0  0  0  0  0  0  0
    7.1550   -4.2230   21.6110 C   0  0  1  0  0  0  0  0  0  0  0  0
    6.3510    0.3900   17.7870 N   0  0  0  0  0  0  0  0  0  0  0  0
    4.5880    1.5530   19.0160 C   0  0  0  0  0  0  0  0  0  0  0  0
    9.4350   -1.4580   21.7320 C   0  0  0  0  0  0  0  0  0  0  0  0
    8.5030   -2.0650   23.8390 C   0  0  0  0  0  0  0  0  0  0  0  0
   13.3670    4.9910   22.7680 C   0  0  0  0  0  0  0  0  0  0  0  0
    8.5620   -4.3240   20.9610 C   0  0  0  0  0  0  0  0  0  0  0  0
    5.2210    1.2340   17.8290 C   0  0  0  0  0  0  0  0  0  0  0  0
   10.7150   -1.4710   22.2900 C   0  0  0  0  0  0  0  0  0  0  0  0
    9.7880   -2.0770   24.4100 C   0  0  0  0  0  0  0  0  0  0  0  0
    7.5940   -4.5230   23.0990 C   0  0  0  0  0  0  0  0  0  0  0  0
   10.9060   -1.7780   23.6360 C   0  0  0  0  0  0  0  0  0  0  0  0
    8.9470   -4.8280   23.2630 C   0  0  0  0  0  0  0  0  0  0  0  0
    6.7810   -4.5510   24.3940 C   0  0  0  0  0  0  0  0  0  0  0  0
   12.3200   -1.7730   24.2390 C   0  0  0  0  0  0  0  0  0  0  0  0
    9.6990   -5.1860   24.5870 C   0  0  0  0  0  0  0  0  0  0  0  0
    7.4480   -4.8600   25.5790 C   0  0  0  0  0  0  0  0  0  0  0  0
    5.3170   -4.3380   24.5130 C   0  0  0  0  0  0  0  0  0  0  0  0
   12.4650   -0.5960   24.9810 C   0  0  0  0  0  0  0  0  0  0  0  0
   13.3920   -1.8150   23.1730 C   0  0  0  0  0  0  0  0  0  0  0  0
   12.6070   -2.8800   25.1050 C   0  0  0  0  0  0  0  0  0  0  0  0
    8.8990   -5.2020   25.8320 C   0  0  0  0  0  0  0  0  0  0  0  0
    4.9580   -5.7910   24.3480 C   0  0  2  0  0  0  0  0  0  0  0  0
    5.3640   -5.9750   23.1070 C   0  0  0  0  0  0  0  0  0  0  0  0
    3.3280   -6.5460   24.4800 S   0  0  0  0  0  0  0  0  0  0  0  0
    3.5520   -7.7510   25.2570 O   0  0  0  0  0  0  0  0  0  0  0  0
    2.3030   -5.5860   24.7980 O   0  0  0  0  0  0  0  0  0  0  0  0
    4.5100   -6.5710   22.2790 C   0  0  0  0  0  0  0  0  0  0  0  0
    3.3190   -6.9610   22.7790 C   0  0  0  0  0  0  0  0  0  0  0  0
  1  2  1  0
  2  3  1  1
  1  4  1  0
  4  5  2  0
  6  4  1  6
  2  7  1  0
  6  8  1  0
  3  9  1  0
  7 10  1  0
  6 11  1  0
  9 12  1  0
  9 13  2  0
  8 14  1  0
 10 15  1  0
 11 16  2  0
 11 17  1  0
  8 18  1  0
 12 19  1  0
 14 20  2  0
 14 21  1  0
 17 22  2  0
 16 23  1  0
 18 24  2  0
 18 25  1  0
 19 26  1  0
 21 27  1  6
 22 28  1  0
 23 28  2  0
 24 29  1  0
 25 30  2  0
 21 31  1  0
 29 32  2  0
 30 32  1  0
 31 33  2  0
 31 34  1  0
 32 35  1  0
 33 36  1  0
 34 37  2  0
 34 38  1  0
 35 39  1  0
 35 40  1  0
 35 41  1  0
 36 42  2  0
 37 42  1  0
 43 38  1  6
 43 44  1  0
 43 45  1  0
 45 46  1  0
 45 47  1  0
 44 48  1  0
 45 49  1  0
 48 49  2  0
M  END
