x3110-x0981-x0755
     RDKit          3D

 57 60  0  0  0  0  0  0  0  0999 V2000
    8.0150    1.2940   23.3540 N   0  0  0  0  0  0  0  0  0  0  0  0
    8.8720    2.3980   23.7440 C   0  0  0  0  0  0  0  0  0  0  0  0
   10.3520    2.0810   23.5910 C   0  0  0  0  0  0  0  0  0  0  0  0
    7.8360    0.9560   22.0220 C   0  0  0  0  0  0  0  0  0  0  0  0
    8.5970    1.4470   21.1540 O   0  0  0  0  0  0  0  0  0  0  0  0
    6.6150   -0.0180   21.7480 C   0  0  2  0  0  0  0  0  0  0  0  0
    6.8350   -1.4900   22.0700 N   0  0  0  0  0  0  0  0  0  0  0  0
   11.1110    3.3650   23.4220 C   0  0  0  0  0  0  0  0  0  0  0  0
    6.0180    0.4050   20.4040 C   0  0  0  0  0  0  0  0  0  0  0  0
   12.0240    3.2600   22.4320 O   0  0  0  0  0  0  0  0  0  0  0  0
   10.9240    4.3720   24.0870 O   0  0  0  0  0  0  0  0  0  0  0  0
    6.0750   -2.6740   21.5390 C   0  0  0  0  0  0  0  0  0  0  0  0
    4.8590    1.1070   20.2120 C   0  0  0  0  0  0  0  0  0  0  0  0
    6.7290    0.0910   19.2460 C   0  0  0  0  0  0  0  0  0  0  0  0
    8.1720   -1.5750   22.6370 C   0  0  0  0  0  0  0  0  0  0  0  0
   12.4740    4.5190   21.9130 C   0  0  0  0  0  0  0  0  0  0  0  0
    4.7860   -2.9870   21.3170 O   0  0  0  0  0  0  0  0  0  0  0  0
    7.0230   -3.7330   21.2050 C   0  0  2  0  0  0  0  0  0  0  0  0
    6.4010    0.4180   17.9670 N   0  0  0  0  0  0  0  0  0  0  0  0
    4.3930    1.5310   18.8220 C   0  0  0  0  0  0  0  0  0  0  0  0
    9.2710   -1.7770   21.7680 C   0  0  0  0  0  0  0  0  0  0  0  0
    8.5030   -1.4470   23.9980 C   0  0  0  0  0  0  0  0  0  0  0  0
   13.4070    5.1900   22.8950 C   0  0  0  0  0  0  0  0  0  0  0  0
    6.8950   -3.8890   19.7450 C   0  0  0  0  0  0  0  0  0  0  0  0
    5.1630    1.1970   17.7260 C   0  0  0  0  0  0  0  0  0  0  0  0
   10.5960   -1.8350   22.2160 C   0  0  0  0  0  0  0  0  0  0  0  0
    9.8420   -1.5040   24.4160 C   0  0  0  0  0  0  0  0  0  0  0  0
    6.6770   -4.9270   21.9970 N   0  0  0  0  0  0  0  0  0  0  0  0
   10.9230   -1.6920   23.5750 C   0  0  0  0  0  0  0  0  0  0  0  0
    7.2990   -4.8240   23.2800 C   0  0  0  0  0  0  0  0  0  0  0  0
    5.2940   -5.5220   22.0740 C   0  0  0  0  0  0  0  0  0  0  0  0
   12.3500   -1.7160   24.1000 C   0  0  0  0  0  0  0  0  0  0  0  0
    6.6440   -5.8270   24.1200 C   0  0  0  0  0  0  0  0  0  0  0  0
    4.4800   -5.2630   23.4140 C   0  0  1  0  0  0  0  0  0  0  0  0
   12.5640   -0.5440   24.8020 C   0  0  0  0  0  0  0  0  0  0  0  0
   13.2360   -1.9100   22.8890 C   0  0  0  0  0  0  0  0  0  0  0  0
   12.6540   -2.9470   24.9170 C   0  0  0  0  0  0  0  0  0  0  0  0
    3.0410   -5.9870   23.5450 C   0  0  1  0  0  0  0  0  0  0  0  0
    5.2430   -5.5650   24.5000 N   0  0  0  0  0  0  0  0  0  0  0  0
    2.8360   -7.0940   22.5840 N   0  0  0  0  0  0  0  0  0  0  0  0
    2.7170   -6.3970   24.8530 C   0  0  0  0  0  0  0  0  0  0  0  0
    5.0810   -4.7430   25.9550 S   0  0  0  0  0  0  0  0  0  0  0  0
    1.4670   -7.3670   22.1840 C   0  0  0  0  0  0  0  0  0  0  0  0
    3.0820   -7.6950   25.1340 C   0  0  0  0  0  0  0  0  0  0  0  0
    6.2440   -4.0130   26.1960 O   0  0  0  0  0  0  0  0  0  0  0  0
    4.5980   -5.5490   26.9910 O   0  0  0  0  0  0  0  0  0  0  0  0
    3.7270   -3.5610   25.9610 C   0  0  0  0  0  0  0  0  0  0  0  0
    1.2550   -8.6070   21.5400 C   0  0  0  0  0  0  0  0  0  0  0  0
    0.5590   -6.5600   22.3690 O   0  0  0  0  0  0  0  0  0  0  0  0
    2.3040   -8.4060   26.2090 N   0  0  0  0  0  0  0  0  0  0  0  0
    4.1400   -8.2640   24.4440 O   0  0  0  0  0  0  0  0  0  0  0  0
    2.3510   -3.8840   26.0130 C   0  0  0  0  0  0  0  0  0  0  0  0
    4.1270   -2.2170   25.9180 C   0  0  0  0  0  0  0  0  0  0  0  0
    5.4220   -1.8650   25.8780 F   0  0  0  0  0  0  0  0  0  0  0  0
    3.1690   -1.2280   25.9190 C   0  0  0  0  0  0  0  0  0  0  0  0
    1.3490   -2.9430   26.0160 C   0  0  0  0  0  0  0  0  0  0  0  0
    1.8280   -1.5140   25.9650 C   0  0  0  0  0  0  0  0  0  0  0  0
  1  2  1  0
  2  3  1  0
  1  4  1  0
  4  5  2  0
  6  4  1  6
  6  7  1  0
  3  8  1  0
  6  9  1  0
  8 10  1  0
  8 11  2  0
  7 12  1  0
  9 13  2  0
  9 14  1  0
  7 15  1  0
 10 16  1  0
 12 17  2  0
 12 18  1  0
 14 19  2  0
 13 20  1  0
 15 21  2  0
 15 22  1  0
 16 23  1  0
 18 24  1  6
 19 25  1  0
 20 25  2  0
 21 26  1  0
 22 27  2  0
 18 28  1  0
 26 29  2  0
 27 29  1  0
 28 30  1  0
 28 31  1  0
 29 32  1  0
 30 33  1  0
 34 31  1  6
 32 35  1  0
 32 36  1  0
 32 37  1  0
 34 38  1  0
 33 39  1  0
 34 39  1  0
 38 40  1  0
 38 41  1  1
 39 42  1  0
 40 43  1  0
 41 44  1  0
 42 45  2  0
 42 46  2  0
 42 47  1  0
 43 48  1  0
 43 49  2  0
 44 50  1  0
 44 51  2  0
 47 52  2  0
 47 53  1  0
 53 54  1  0
 53 55  2  0
 52 56  1  0
 55 57  1  0
 56 57  2  0
M  END
