x3110-x0991
     RDKit          3D

 38 40  0  0  0  0  0  0  0  0999 V2000
    7.6850    1.2950   23.3880 N   0  0  0  0  0  0  0  0  0  0  0  0
    8.5140    2.4860   23.5310 C   0  0  0  0  0  0  0  0  0  0  0  0
    9.9610    2.2720   23.0120 C   0  0  0  0  0  0  0  0  0  0  0  0
    7.6500    0.7270   22.0260 C   0  0  0  0  0  0  0  0  0  0  0  0
    8.4780    1.0640   21.1680 O   0  0  0  0  0  0  0  0  0  0  0  0
    6.4910   -0.2770   21.7290 C   0  0  2  0  0  0  0  0  0  0  0  0
    6.9780   -1.7220   21.9200 C   0  0  2  0  0  0  0  0  0  0  0  0
   11.0420    3.3110   23.4350 C   0  0  0  0  0  0  0  0  0  0  0  0
    6.0940    0.1810   20.3270 C   0  0  0  0  0  0  0  0  0  0  0  0
   12.0660    3.3280   22.7490 O   0  0  0  0  0  0  0  0  0  0  0  0
   10.8190    4.0410   24.4130 O   0  0  0  0  0  0  0  0  0  0  0  0
    6.0840   -2.8790   21.2110 C   0  0  0  0  0  0  0  0  0  0  0  0
    6.8530   -2.2060   23.3000 C   0  0  0  0  0  0  0  0  0  0  0  0
    4.9790    1.0100   20.1620 C   0  0  0  0  0  0  0  0  0  0  0  0
    6.7160   -0.1010   19.1500 C   0  0  0  0  0  0  0  0  0  0  0  0
    8.4540   -1.7330   22.3830 C   0  0  0  0  0  0  0  0  0  0  0  0
   12.2580    4.5530   22.0380 C   0  0  0  0  0  0  0  0  0  0  0  0
    4.8130   -3.0840   21.3730 O   0  0  0  0  0  0  0  0  0  0  0  0
    6.7040   -3.8840   20.2930 C   0  0  0  0  0  0  0  0  0  0  0  0
    7.9270   -3.3060   23.2590 C   0  0  1  0  0  0  0  0  0  0  0  0
    6.3770    0.3280   17.8910 N   0  0  0  0  0  0  0  0  0  0  0  0
    4.5820    1.4780   18.9310 C   0  0  0  0  0  0  0  0  0  0  0  0
    8.8620   -2.8790   23.2430 C   0  0  0  0  0  0  0  0  0  0  0  0
    9.2800   -2.3770   23.0760 C   0  0  0  0  0  0  0  0  0  0  0  0
   13.4530    5.3230   22.5700 C   0  0  0  0  0  0  0  0  0  0  0  0
    8.1880   -3.6130   20.1490 C   0  0  0  0  0  0  0  0  0  0  0  0
    7.5540   -4.0510   24.4750 C   0  0  0  0  0  0  0  0  0  0  0  0
    5.3050    1.1200   17.8300 C   0  0  0  0  0  0  0  0  0  0  0  0
   10.2950   -3.1530   23.8840 C   0  0  0  0  0  0  0  0  0  0  0  0
   10.1930   -1.4750   22.7760 C   0  0  0  0  0  0  0  0  0  0  0  0
    8.2360   -5.2120   24.9980 C   0  0  0  0  0  0  0  0  0  0  0  0
   10.9830   -2.0640   23.4360 C   0  0  0  0  0  0  0  0  0  0  0  0
   12.5140   -1.7720   23.7970 C   0  0  0  0  0  0  0  0  0  0  0  0
    9.2750   -5.8680   24.2560 N   0  0  0  0  0  0  0  0  0  0  0  0
    7.8250   -5.7130   26.3410 N   0  0  0  0  0  0  0  0  0  0  0  0
   12.7310   -0.4120   23.8510 C   0  0  0  0  0  0  0  0  0  0  0  0
   13.3190   -2.1770   22.5720 C   0  0  0  0  0  0  0  0  0  0  0  0
   13.0230   -2.5560   24.8680 C   0  0  0  0  0  0  0  0  0  0  0  0
  1  2  1  0
  2  3  1  0
  1  4  1  0
  4  5  2  0
  6  4  1  6
  6  7  1  0
  3  8  1  0
  6  9  1  0
  8 10  1  0
  8 11  2  0
  7 12  1  6
  7 13  1  0
  9 14  2  0
  9 15  1  0
  7 16  1  0
 10 17  1  0
 12 18  2  0
 12 19  1  0
 13 20  1  0
 15 21  2  0
 14 22  1  0
 16 23  2  0
 16 24  1  0
 20 24  1  0
 17 25  1  0
 19 26  1  0
 20 27  1  1
 21 28  1  0
 22 28  2  0
 23 29  1  0
 24 30  2  0
 27 31  1  0
 29 32  2  0
 30 32  1  0
 32 33  1  0
 31 34  2  3
 31 35  1  0
 33 36  1  0
 33 37  1  0
 33 38  1  0
M  END
