x3110-x0978-x0426
     RDKit          3D

 55 57  0  0  0  0  0  0  0  0999 V2000
    7.9840    0.9890   23.3370 N   0  0  0  0  0  0  0  0  0  0  0  0
    8.7530    2.1590   23.6110 C   0  0  0  0  0  0  0  0  0  0  0  0
   10.2640    2.0500   23.5160 C   0  0  0  0  0  0  0  0  0  0  0  0
    7.7720    0.5100   21.9460 C   0  0  0  0  0  0  0  0  0  0  0  0
    8.5350    0.9290   21.0800 O   0  0  0  0  0  0  0  0  0  0  0  0
    6.6580   -0.3920   21.5600 C   0  0  2  0  0  0  0  0  0  0  0  0
    7.0180   -1.8610   21.7500 N   0  0  0  0  0  0  0  0  0  0  0  0
   11.0390    3.2320   23.3920 C   0  0  0  0  0  0  0  0  0  0  0  0
    6.0820    0.1680   20.2630 C   0  0  0  0  0  0  0  0  0  0  0  0
   11.8850    3.1740   22.5060 O   0  0  0  0  0  0  0  0  0  0  0  0
   10.8790    4.2210   24.1020 O   0  0  0  0  0  0  0  0  0  0  0  0
    6.1320   -3.0460   21.5210 C   0  0  0  0  0  0  0  0  0  0  0  0
    4.8750    0.8770   20.1780 C   0  0  0  0  0  0  0  0  0  0  0  0
    6.8040   -0.0160   19.1010 C   0  0  0  0  0  0  0  0  0  0  0  0
    8.3120   -1.9230   22.4680 C   0  0  0  0  0  0  0  0  0  0  0  0
   12.2490    4.4600   21.9700 C   0  0  0  0  0  0  0  0  0  0  0  0
    4.9140   -3.0800   21.0570 O   0  0  0  0  0  0  0  0  0  0  0  0
    6.6670   -4.4340   21.8960 C   0  0  2  0  0  0  0  0  0  0  0  0
    3.8520    1.2310   21.2490 C   0  0  0  0  0  0  0  0  0  0  0  0
    6.3790    0.5060   17.7970 N   0  0  0  0  0  0  0  0  0  0  0  0
    4.4530    1.3830   18.9590 C   0  0  0  0  0  0  0  0  0  0  0  0
    9.4480   -1.5580   21.7580 C   0  0  0  0  0  0  0  0  0  0  0  0
    8.4910   -2.2970   23.8030 C   0  0  0  0  0  0  0  0  0  0  0  0
   13.3770    5.0740   22.8320 C   0  0  0  0  0  0  0  0  0  0  0  0
    8.0350   -4.7680   21.1850 C   0  0  0  0  0  0  0  0  0  0  0  0
    5.4970   -5.4310   21.9520 N   0  0  0  0  0  0  0  0  0  0  0  0
    4.2250    2.0040   22.3550 C   0  0  0  0  0  0  0  0  0  0  0  0
    5.2250    1.1850   17.8050 C   0  0  0  0  0  0  0  0  0  0  0  0
   10.8990   -1.5080   22.2500 C   0  0  0  0  0  0  0  0  0  0  0  0
    9.7750   -2.2820   24.3570 C   0  0  0  0  0  0  0  0  0  0  0  0
    4.4730   -5.2620   23.0420 C   0  0  0  0  0  0  0  0  0  0  0  0
    3.1110    2.6180   22.8780 N   0  0  0  0  0  0  0  0  0  0  0  0
   11.0220   -1.8780   23.5880 C   0  0  0  0  0  0  0  0  0  0  0  0
   12.4170   -1.8450   24.2420 C   0  0  0  0  0  0  0  0  0  0  0  0
    3.2920   -6.2400   23.2360 C   0  0  2  0  0  0  0  0  0  0  0  0
    4.5640   -4.3030   23.8030 O   0  0  0  0  0  0  0  0  0  0  0  0
    2.5280    2.0840   23.9950 C   0  0  0  0  0  0  0  0  0  0  0  0
   12.4910   -0.5620   25.0520 C   0  0  0  0  0  0  0  0  0  0  0  0
   13.3800   -2.0170   23.1220 C   0  0  0  0  0  0  0  0  0  0  0  0
   12.7020   -3.0210   25.1810 C   0  0  0  0  0  0  0  0  0  0  0  0
    2.1050   -5.5790   23.0720 N   0  0  0  0  0  0  0  0  0  0  0  0
    3.3330   -7.1010   24.4880 C   0  0  1  0  0  0  0  0  0  0  0  0
    2.9360    1.0590   24.5240 O   0  0  0  0  0  0  0  0  0  0  0  0
    1.3680    2.7880   24.6250 C   0  0  0  0  0  0  0  0  0  0  0  0
    2.3150   -8.0420   24.4500 C   0  0  0  0  0  0  0  0  0  0  0  0
    4.5040   -7.7590   24.5190 O   0  0  0  0  0  0  0  0  0  0  0  0
    1.0190   -6.2710   22.5730 C   0  0  0  0  0  0  0  0  0  0  0  0
    1.5480    4.0090   25.2680 C   0  0  0  0  0  0  0  0  0  0  0  0
    0.0700    2.1920   24.5670 C   0  0  0  0  0  0  0  0  0  0  0  0
    1.0680   -7.3510   22.0020 O   0  0  0  0  0  0  0  0  0  0  0  0
   -0.1450   -5.5520   22.8040 C   0  0  0  0  0  0  0  0  0  0  0  0
    2.7660    4.5720   25.3270 F   0  0  0  0  0  0  0  0  0  0  0  0
   -1.0340    2.8310   25.1570 C   0  0  0  0  0  0  0  0  0  0  0  0
    0.4890    4.6800   25.8660 C   0  0  0  0  0  0  0  0  0  0  0  0
   -0.9130    4.0320   25.8020 C   0  0  0  0  0  0  0  0  0  0  0  0
  1  2  1  0
  2  3  1  0
  1  4  1  0
  4  5  2  0
  6  4  1  6
  6  7  1  0
  3  8  1  0
  6  9  1  0
  8 10  1  0
  8 11  2  0
  7 12  1  0
  9 13  1  0
  9 14  2  0
  7 15  1  0
 10 16  1  0
 12 17  2  0
 12 18  1  0
 13 19  1  0
 14 20  1  0
 13 21  2  0
 15 22  2  0
 15 23  1  0
 16 24  1  0
 18 25  1  6
 18 26  1  0
 19 27  1  0
 20 28  2  0
 21 28  1  0
 22 29  1  0
 23 30  2  0
 26 31  1  0
 27 32  1  0
 29 33  2  0
 30 33  1  0
 33 34  1  0
 31 35  1  0
 31 36  2  0
 32 37  1  0
 34 38  1  0
 34 39  1  0
 34 40  1  0
 35 41  1  1
 35 42  1  0
 37 43  2  0
 37 44  1  0
 42 45  1  6
 42 46  1  0
 41 47  1  0
 44 48  2  0
 44 49  1  0
 47 50  2  0
 47 51  1  0
 48 52  1  0
 49 53  2  0
 48 54  1  0
 53 55  1  0
 54 55  2  0
M  END
