x3110-x2754-x0540
     RDKit          3D

 59 63  0  0  0  0  0  0  0  0999 V2000
    8.0370    1.1670   23.1620 N   0  0  0  0  0  0  0  0  0  0  0  0
    8.8490    2.3320   23.6030 C   0  0  0  0  0  0  0  0  0  0  0  0
   10.1830    2.1250   23.5260 C   0  0  0  0  0  0  0  0  0  0  0  0
    7.7930    0.7370   21.7690 C   0  0  0  0  0  0  0  0  0  0  0  0
    8.4580    1.3350   20.9010 O   0  0  0  0  0  0  0  0  0  0  0  0
    6.7350   -0.3780   21.4920 C   0  0  2  0  0  0  0  0  0  0  0  0
    7.1650   -1.7860   21.5460 N   0  0  0  0  0  0  0  0  0  0  0  0
   11.0670    3.3610   23.3850 C   0  0  0  0  0  0  0  0  0  0  0  0
    6.1700    0.1990   20.1990 C   0  0  0  0  0  0  0  0  0  0  0  0
   11.8940    3.2450   22.4880 O   0  0  0  0  0  0  0  0  0  0  0  0
   10.9420    4.3520   24.0960 O   0  0  0  0  0  0  0  0  0  0  0  0
    6.2610   -3.0000   21.4020 C   0  0  0  0  0  0  0  0  0  0  0  0
    4.9100    0.9600   20.2390 C   0  0  0  0  0  0  0  0  0  0  0  0
    6.8420    0.0190   19.0630 C   0  0  0  0  0  0  0  0  0  0  0  0
    8.3930   -1.7720   22.3120 C   0  0  0  0  0  0  0  0  0  0  0  0
   12.2800    4.4350   21.9460 C   0  0  0  0  0  0  0  0  0  0  0  0
    4.9860   -3.1380   21.0020 O   0  0  0  0  0  0  0  0  0  0  0  0
    4.2100    1.1270   21.4330 C   0  0  0  0  0  0  0  0  0  0  0  0
    6.4150    0.5630   17.7820 N   0  0  0  0  0  0  0  0  0  0  0  0
    4.4270    1.5390   18.9750 C   0  0  0  0  0  0  0  0  0  0  0  0
    9.5620   -2.1990   21.7330 C   0  0  0  0  0  0  0  0  0  0  0  0
    8.6010   -1.3120   23.7250 C   0  0  0  0  0  0  0  0  0  0  0  0
    6.9040   -4.3160   21.8070 C   0  0  1  0  0  0  0  0  0  0  0  0
   13.3930    5.0890   22.8340 C   0  0  0  0  0  0  0  0  0  0  0  0
    8.1630   -4.7790   21.0340 C   0  0  0  0  0  0  0  0  0  0  0  0
    4.9770    1.8950   22.5240 C   0  0  0  0  0  0  0  0  0  0  0  0
    5.1750    1.3630   17.7080 C   0  0  0  0  0  0  0  0  0  0  0  0
   10.8270   -2.2180   22.3000 C   0  0  0  0  0  0  0  0  0  0  0  0
    9.8790   -1.3390   24.2760 C   0  0  0  0  0  0  0  0  0  0  0  0
    7.4590   -3.9810   23.2020 C   0  0  0  0  0  0  0  0  0  0  0  0
    5.8730   -5.4200   22.1260 C   0  0  0  0  0  0  0  0  0  0  0  0
    4.1000    2.7910   22.9240 N   0  0  0  0  0  0  0  0  0  0  0  0
   11.0120   -1.7730   23.5970 C   0  0  0  0  0  0  0  0  0  0  0  0
    6.5010   -3.0570   23.9500 C   0  0  0  0  0  0  0  0  0  0  0  0
    5.0840   -5.0350   23.3930 C   0  0  0  0  0  0  0  0  0  0  0  0
   12.4100   -1.7510   24.2240 C   0  0  0  0  0  0  0  0  0  0  0  0
    2.8530    2.3620   23.5450 C   0  0  0  0  0  0  0  0  0  0  0  0
    5.0880   -3.6350   23.7990 C   0  0  1  0  0  0  0  0  0  0  0  0
   12.5330   -0.6330   25.0320 C   0  0  0  0  0  0  0  0  0  0  0  0
   13.4130   -1.5900   23.1490 C   0  0  0  0  0  0  0  0  0  0  0  0
   12.7240   -2.9390   24.9230 C   0  0  0  0  0  0  0  0  0  0  0  0
    2.7890    1.6310   24.5350 O   0  0  0  0  0  0  0  0  0  0  0  0
    1.6380    2.6440   23.1320 N   0  0  0  0  0  0  0  0  0  0  0  0
    4.2390   -3.2290   24.9950 C   0  0  0  0  0  0  0  0  0  0  0  0
    3.0350   -3.4730   24.9210 O   0  0  0  0  0  0  0  0  0  0  0  0
    4.7830   -2.6200   26.0120 N   0  0  0  0  0  0  0  0  0  0  0  0
    0.6090    3.0840   24.0730 C   0  0  0  0  0  0  0  0  0  0  0  0
    4.0360   -1.7430   26.6550 C   0  0  0  0  0  0  0  0  0  0  0  0
    0.6320    4.6130   24.3040 C   0  0  0  0  0  0  0  0  0  0  0  0
   -0.5620    2.6360   23.6040 C   0  0  0  0  0  0  0  0  0  0  0  0
    5.6460   -3.3130   26.8820 C   0  0  0  0  0  0  0  0  0  0  0  0
   -0.4360    4.9280   25.0770 C   0  0  0  0  0  0  0  0  0  0  0  0
   -1.8270    3.3940   23.7570 C   0  0  0  0  0  0  0  0  0  0  0  0
    5.7920   -4.7100   26.9030 C   0  0  0  0  0  0  0  0  0  0  0  0
    6.3820   -2.5830   27.7740 C   0  0  0  0  0  0  0  0  0  0  0  0
   -1.7160    4.6970   24.2430 C   0  0  0  0  0  0  0  0  0  0  0  0
    6.6540   -5.2580   27.8200 C   0  0  0  0  0  0  0  0  0  0  0  0
    7.2240   -3.1130   28.6760 C   0  0  0  0  0  0  0  0  0  0  0  0
    7.3710   -4.5040   28.7060 C   0  0  0  0  0  0  0  0  0  0  0  0
  1  2  1  0
  2  3  1  0
  1  4  1  0
  4  5  2  0
  6  4  1  6
  6  7  1  0
  3  8  1  0
  6  9  1  0
  8 10  1  0
  8 11  2  0
  7 12  1  0
  9 13  1  0
  9 14  2  0
  7 15  1  0
 10 16  1  0
 12 17  2  0
 13 18  1  0
 14 19  1  0
 13 20  2  0
 15 21  2  0
 15 22  1  0
 23 12  1  0
 16 24  1  0
 23 25  1  6
 18 26  1  0
 19 27  2  0
 20 27  1  0
 21 28  1  0
 22 29  2  0
 23 30  1  0
 23 31  1  0
 26 32  1  0
 28 33  2  0
 29 33  1  0
 30 34  1  0
 31 35  1  0
 33 36  1  0
 32 37  1  0
 34 38  1  0
 35 38  1  0
 36 39  1  0
 36 40  1  0
 36 41  1  0
 37 42  2  0
 37 43  1  0
 38 44  1  1
 44 45  2  0
 44 46  1  0
 43 47  1  0
 46 48  1  0
 47 49  1  0
 47 50  1  0
 46 51  1  0
 49 52  1  0
 50 53  1  0
 51 54  2  0
 51 55  1  0
 52 56  1  0
 53 56  1  0
 54 57  1  0
 55 58  2  0
 57 59  2  0
 58 59  1  0
M  END
