x3110-x0820-x0426
     RDKit          3D

 55 60  0  0  0  0  0  0  0  0999 V2000
    7.7920    1.0330   23.4310 N   0  0  0  0  0  0  0  0  0  0  0  0
    8.6420    2.1350   23.6480 C   0  0  0  0  0  0  0  0  0  0  0  0
   10.2200    1.9450   23.5880 C   0  0  0  0  0  0  0  0  0  0  0  0
    7.5850    0.4720   22.0740 C   0  0  0  0  0  0  0  0  0  0  0  0
    8.4350    0.8820   21.0900 O   0  0  0  0  0  0  0  0  0  0  0  0
    6.3910   -0.5210   21.7730 C   0  0  2  0  0  0  0  0  0  0  0  0
    6.9350   -2.0100   21.8670 C   0  0  2  0  0  0  0  0  0  0  0  0
   11.0250    3.2380   23.3920 C   0  0  0  0  0  0  0  0  0  0  0  0
    5.9850    0.0030   20.3810 C   0  0  0  0  0  0  0  0  0  0  0  0
   11.8880    3.2270   22.5180 O   0  0  0  0  0  0  0  0  0  0  0  0
   10.7710    4.2070   24.1050 O   0  0  0  0  0  0  0  0  0  0  0  0
    6.1190   -3.1170   21.0560 C   0  0  0  0  0  0  0  0  0  0  0  0
    6.3230   -3.2570   22.6520 C   0  0  1  0  0  0  0  0  0  0  0  0
    4.8100    0.7670   20.1970 C   0  0  0  0  0  0  0  0  0  0  0  0
    6.7930   -0.2430   19.2610 C   0  0  0  0  0  0  0  0  0  0  0  0
    8.4560   -1.9770   22.5180 C   0  0  0  0  0  0  0  0  0  0  0  0
   12.2270    4.4360   22.0000 C   0  0  0  0  0  0  0  0  0  0  0  0
    5.0060   -3.1800   20.3770 O   0  0  0  0  0  0  0  0  0  0  0  0
    6.6670   -4.3110   21.4600 C   0  0  2  0  0  0  0  0  0  0  0  0
    3.8060    1.1230   21.3310 C   0  0  0  0  0  0  0  0  0  0  0  0
    6.5040    0.2240   18.0120 N   0  0  0  0  0  0  0  0  0  0  0  0
    4.4790    1.2600   18.9640 C   0  0  0  0  0  0  0  0  0  0  0  0
    9.6240   -2.1740   21.8080 C   0  0  0  0  0  0  0  0  0  0  0  0
    8.6450   -1.7160   23.8870 C   0  0  0  0  0  0  0  0  0  0  0  0
    6.0600   -3.8340   24.1460 C   0  0  0  0  0  0  0  0  0  0  0  0
   13.3830    4.9900   22.7970 C   0  0  0  0  0  0  0  0  0  0  0  0
    8.1500   -4.5900   21.0590 C   0  0  0  0  0  0  0  0  0  0  0  0
    4.3350    1.9600   22.3120 C   0  0  0  0  0  0  0  0  0  0  0  0
    5.2880    1.0150   17.8800 C   0  0  0  0  0  0  0  0  0  0  0  0
   10.8570   -2.1360   22.3170 C   0  0  0  0  0  0  0  0  0  0  0  0
    9.8800   -1.6640   24.4770 C   0  0  0  0  0  0  0  0  0  0  0  0
    6.9680   -4.1150   25.4090 C   0  0  0  0  0  0  0  0  0  0  0  0
    4.7290   -4.1300   24.2610 C   0  0  0  0  0  0  0  0  0  0  0  0
    3.2610    2.5730   23.1380 N   0  0  0  0  0  0  0  0  0  0  0  0
   11.0370   -1.8630   23.7610 C   0  0  0  0  0  0  0  0  0  0  0  0
    6.2930   -4.6130   26.5700 C   0  0  0  0  0  0  0  0  0  0  0  0
    4.1630   -4.6250   25.4230 C   0  0  0  0  0  0  0  0  0  0  0  0
    8.3530   -3.9280   25.5040 C   0  0  0  0  0  0  0  0  0  0  0  0
   12.4230   -1.8040   24.3730 C   0  0  0  0  0  0  0  0  0  0  0  0
    2.2110    1.8730   23.8190 C   0  0  0  0  0  0  0  0  0  0  0  0
    4.9130   -4.8520   26.5460 C   0  0  0  0  0  0  0  0  0  0  0  0
    6.9280   -4.9030   27.8000 C   0  0  0  0  0  0  0  0  0  0  0  0
    9.1020   -4.2360   26.8140 C   0  0  0  0  0  0  0  0  0  0  0  0
   12.5210   -0.5770   25.0030 C   0  0  0  0  0  0  0  0  0  0  0  0
   13.4630   -1.8370   23.2560 C   0  0  0  0  0  0  0  0  0  0  0  0
   12.6780   -2.9600   25.1390 C   0  0  0  0  0  0  0  0  0  0  0  0
    2.1300    0.4560   23.8200 O   0  0  0  0  0  0  0  0  0  0  0  0
    1.1830    2.6610   24.5530 C   0  0  0  0  0  0  0  0  0  0  0  0
    8.3010   -4.7330   27.9730 C   0  0  0  0  0  0  0  0  0  0  0  0
    1.4600    3.8600   25.2370 C   0  0  0  0  0  0  0  0  0  0  0  0
   -0.1660    2.1640   24.5640 C   0  0  0  0  0  0  0  0  0  0  0  0
    2.7050    4.3540   25.2520 F   0  0  0  0  0  0  0  0  0  0  0  0
   -1.0750    2.8970   25.2380 C   0  0  0  0  0  0  0  0  0  0  0  0
    0.4700    4.5770   25.9220 C   0  0  0  0  0  0  0  0  0  0  0  0
   -0.7540    4.0330   25.8730 C   0  0  0  0  0  0  0  0  0  0  0  0
  1  2  1  0
  2  3  1  0
  1  4  1  0
  4  5  2  0
  6  4  1  6
  6  7  1  0
  3  8  1  0
  6  9  1  0
  8 10  1  0
  8 11  2  0
  7 12  1  0
  7 13  1  0
  9 14  1  0
  9 15  2  0
  7 16  1  6
 10 17  1  0
 12 18  2  0
 12 19  1  0
 13 19  1  0
 14 20  1  0
 15 21  1  0
 14 22  2  0
 16 23  2  0
 16 24  1  0
 13 25  1  1
 17 26  1  0
 19 27  1  6
 20 28  1  0
 21 29  2  0
 22 29  1  0
 23 30  1  0
 24 31  2  0
 25 32  1  0
 25 33  2  0
 28 34  1  0
 30 35  2  0
 31 35  1  0
 32 36  2  0
 33 37  1  0
 32 38  1  0
 35 39  1  0
 34 40  1  0
 36 41  1  0
 37 41  2  0
 36 42  1  0
 38 43  2  0
 39 44  1  0
 39 45  1  0
 39 46  1  0
 40 47  2  0
 40 48  1  0
 42 49  2  0
 43 49  1  0
 48 50  2  0
 48 51  1  0
 50 52  1  0
 51 53  2  0
 50 54  1  0
 53 55  1  0
 54 55  2  0
M  END
