x3110-x1402-x0978
     RDKit          3D

 55 59  0  0  0  0  0  0  0  0999 V2000
    7.9250    1.1450   23.3320 N   0  0  0  0  0  0  0  0  0  0  0  0
    8.7950    2.1740   23.9210 C   0  0  0  0  0  0  0  0  0  0  0  0
   10.3130    1.9660   23.5980 C   0  0  0  0  0  0  0  0  0  0  0  0
    7.7650    0.8110   21.9230 C   0  0  0  0  0  0  0  0  0  0  0  0
    8.5800    1.4620   20.9510 O   0  0  0  0  0  0  0  0  0  0  0  0
    6.6470   -0.2470   21.5760 C   0  0  2  0  0  0  0  0  0  0  0  0
    7.0160   -1.7060   21.6310 N   0  0  0  0  0  0  0  0  0  0  0  0
   11.0130    3.2890   23.4210 C   0  0  0  0  0  0  0  0  0  0  0  0
    6.1160    0.2820   20.2300 C   0  0  0  0  0  0  0  0  0  0  0  0
   12.0370    3.2000   22.4580 O   0  0  0  0  0  0  0  0  0  0  0  0
   10.6790    4.4710   24.1290 O   0  0  0  0  0  0  0  0  0  0  0  0
    6.2500   -2.9510   21.3470 C   0  0  0  0  0  0  0  0  0  0  0  0
    4.9920    1.1170   20.2130 C   0  0  0  0  0  0  0  0  0  0  0  0
    6.8150   -0.0960   19.1290 C   0  0  0  0  0  0  0  0  0  0  0  0
    8.3240   -1.7560   22.2420 C   0  0  0  0  0  0  0  0  0  0  0  0
   12.4050    4.4790   21.9240 C   0  0  0  0  0  0  0  0  0  0  0  0
    4.9860   -3.1430   20.9630 O   0  0  0  0  0  0  0  0  0  0  0  0
    7.0990   -4.2020   21.6010 C   0  0  2  0  0  0  0  0  0  0  0  0
    6.3650    0.4230   17.8200 N   0  0  0  0  0  0  0  0  0  0  0  0
    4.5090    1.6410   19.0340 C   0  0  0  0  0  0  0  0  0  0  0  0
    9.4530   -1.3590   21.5550 C   0  0  0  0  0  0  0  0  0  0  0  0
    8.5740   -2.2310   23.6970 C   0  0  0  0  0  0  0  0  0  0  0  0
   13.4060    5.1700   22.8830 C   0  0  0  0  0  0  0  0  0  0  0  0
    8.4610   -4.3040   20.8950 C   0  0  0  0  0  0  0  0  0  0  0  0
    5.2060    1.3090   17.7360 C   0  0  0  0  0  0  0  0  0  0  0  0
   10.7250   -1.3900   22.1270 C   0  0  0  0  0  0  0  0  0  0  0  0
    9.8980   -2.2180   24.1890 C   0  0  0  0  0  0  0  0  0  0  0  0
    6.7570   -5.5730   21.7150 N   0  0  0  0  0  0  0  0  0  0  0  0
   10.9500   -1.7990   23.4060 C   0  0  0  0  0  0  0  0  0  0  0  0
    7.3710   -5.9920   22.9820 C   0  0  0  0  0  0  0  0  0  0  0  0
    5.3380   -5.8730   21.7320 C   0  0  0  0  0  0  0  0  0  0  0  0
   12.3480   -1.8170   24.0720 C   0  0  0  0  0  0  0  0  0  0  0  0
    6.7510   -5.2880   24.2150 C   0  0  0  0  0  0  0  0  0  0  0  0
    4.8090   -6.0320   23.0010 C   0  0  2  0  0  0  0  0  0  0  0  0
   12.4830   -0.6660   24.8540 C   0  0  0  0  0  0  0  0  0  0  0  0
   13.3380   -1.7750   23.1330 C   0  0  0  0  0  0  0  0  0  0  0  0
   12.6960   -3.0120   24.9790 C   0  0  0  0  0  0  0  0  0  0  0  0
    3.4680   -6.6130   23.3010 C   0  0  2  0  0  0  0  0  0  0  0  0
    5.2650   -5.1030   23.8880 C   0  0  2  0  0  0  0  0  0  0  0  0
    2.3770   -5.6590   23.0370 N   0  0  0  0  0  0  0  0  0  0  0  0
    3.5690   -7.0300   24.7500 C   0  0  1  0  0  0  0  0  0  0  0  0
    5.1410   -3.8040   23.4200 O   0  0  0  0  0  0  0  0  0  0  0  0
    4.3110   -5.4860   25.2740 S   0  0  0  0  0  0  0  0  0  0  0  0
    2.4170   -7.5530   25.3460 C   0  0  0  0  0  0  0  0  0  0  0  0
    4.3440   -7.9850   24.7390 O   0  0  0  0  0  0  0  0  0  0  0  0
    1.0310   -6.1670   22.6080 C   0  0  0  0  0  0  0  0  0  0  0  0
    5.7180   -5.9610   26.7900 O   0  0  0  0  0  0  0  0  0  0  0  0
    3.6370   -4.0730   25.7740 C   0  0  0  0  0  0  0  0  0  0  0  0
    0.8870   -7.2270   22.0070 O   0  0  0  0  0  0  0  0  0  0  0  0
   -0.1720   -5.4180   22.8890 C   0  0  0  0  0  0  0  0  0  0  0  0
    1.9930   -3.6930   25.7450 S   0  0  0  0  0  0  0  0  0  0  0  0
    4.2290   -2.7700   26.3270 C   0  0  0  0  0  0  0  0  0  0  0  0
    3.3140   -1.7830   26.5970 C   0  0  0  0  0  0  0  0  0  0  0  0
    1.9580   -2.0590   26.3480 C   0  0  0  0  0  0  0  0  0  0  0  0
    0.5820   -1.0240   26.5830 Cl  0  0  0  0  0  0  0  0  0  0  0  0
  1  2  1  0
  2  3  1  0
  1  4  1  0
  4  5  2  0
  6  4  1  6
  6  7  1  0
  3  8  1  0
  6  9  1  0
  8 10  1  0
  8 11  2  0
  7 12  1  0
  9 13  2  0
  9 14  1  0
  7 15  1  0
 10 16  1  0
 12 17  2  0
 12 18  1  0
 14 19  2  0
 13 20  1  0
 15 21  2  0
 15 22  1  0
 16 23  1  0
 18 24  1  6
 19 25  1  0
 20 25  2  0
 21 26  1  0
 22 27  2  0
 18 28  1  0
 26 29  2  0
 27 29  1  0
 28 30  1  0
 28 31  1  0
 29 32  1  0
 30 33  1  0
 34 31  1  6
 32 35  1  0
 32 36  1  0
 32 37  1  0
 34 38  1  0
 33 39  1  0
 34 39  1  0
 38 40  1  1
 38 41  1  0
 39 42  1  6
 39 43  1  0
 41 43  1  0
 41 44  1  1
 41 45  1  0
 40 46  1  0
 43 47  2  0
 43 48  1  0
 46 49  2  0
 46 50  1  0
 48 51  1  0
 48 52  2  0
 52 53  1  0
 51 54  1  0
 53 54  2  0
 54 55  1  0
M  END
