x3113-x3110-x1119-x0731
     RDKit          3D

 71 77  0  0  0  0  0  0  0  0999 V2000
    7.8710    1.3030   23.4600 N   0  0  0  0  0  0  0  0  0  0  0  0
    8.8210    2.4200   23.6700 C   0  0  0  0  0  0  0  0  0  0  0  0
   10.3280    2.2470   23.5610 C   0  0  0  0  0  0  0  0  0  0  0  0
    7.5940    0.8460   22.0910 C   0  0  0  0  0  0  0  0  0  0  0  0
    8.3710    1.3660   20.9910 O   0  0  0  0  0  0  0  0  0  0  0  0
    6.5440   -0.0620   21.9920 C   0  0  2  0  0  0  0  0  0  0  0  0
    6.8110   -1.5820   22.1950 C   0  0  2  0  0  0  0  0  0  0  0  0
   11.0410    3.3700   23.3180 C   0  0  0  0  0  0  0  0  0  0  0  0
    6.1000    0.3210   20.5860 C   0  0  0  0  0  0  0  0  0  0  0  0
   11.6240    3.3240   22.2410 O   0  0  0  0  0  0  0  0  0  0  0  0
   11.0620    4.2950   24.1140 O   0  0  0  0  0  0  0  0  0  0  0  0
    6.1030   -2.6800   21.3120 C   0  0  0  0  0  0  0  0  0  0  0  0
    6.3580   -2.4880   23.3730 C   0  0  0  0  0  0  0  0  0  0  0  0
    4.8510    1.2330   20.3700 C   0  0  0  0  0  0  0  0  0  0  0  0
    6.8550   -0.1400   19.3310 C   0  0  0  0  0  0  0  0  0  0  0  0
    8.3510   -1.6190   22.5850 C   0  0  0  0  0  0  0  0  0  0  0  0
   12.4240    4.3900   21.9530 C   0  0  0  0  0  0  0  0  0  0  0  0
    4.8470   -2.9680   20.9980 O   0  0  0  0  0  0  0  0  0  0  0  0
    7.1480   -3.5710   20.9600 C   0  0  2  0  0  0  0  0  0  0  0  0
    6.3740    0.3080   18.0190 N   0  0  0  0  0  0  0  0  0  0  0  0
    4.4750    1.6090   18.9830 C   0  0  0  0  0  0  0  0  0  0  0  0
    9.3840   -1.7620   21.6940 C   0  0  0  0  0  0  0  0  0  0  0  0
    8.7130   -1.4970   23.9270 C   0  0  0  0  0  0  0  0  0  0  0  0
    7.2190   -3.8490   23.2660 C   0  0  2  0  0  0  0  0  0  0  0  0
   13.8080    4.1350   22.6290 C   0  0  0  0  0  0  0  0  0  0  0  0
    7.0570   -3.7590   19.5140 C   0  0  0  0  0  0  0  0  0  0  0  0
    5.2910    1.1120   17.8300 C   0  0  0  0  0  0  0  0  0  0  0  0
   10.8470   -1.8010   22.1370 C   0  0  0  0  0  0  0  0  0  0  0  0
   10.0390   -1.5280   24.3450 C   0  0  0  0  0  0  0  0  0  0  0  0
    7.0840   -4.6160   21.9740 N   0  0  0  0  0  0  0  0  0  0  0  0
    6.9620   -4.6210   24.3290 C   0  0  0  0  0  0  0  0  0  0  0  0
   15.0340    4.9510   22.1490 C   0  0  0  0  0  0  0  0  0  0  0  0
   11.0700   -1.6750   23.5130 C   0  0  0  0  0  0  0  0  0  0  0  0
    5.6990   -5.3050   24.2700 N   0  0  0  0  0  0  0  0  0  0  0  0
    5.8970   -5.5200   21.8970 C   0  0  0  0  0  0  0  0  0  0  0  0
   12.4850   -1.6880   24.1040 C   0  0  0  0  0  0  0  0  0  0  0  0
   16.3950    4.3030   22.4380 C   0  0  0  0  0  0  0  0  0  0  0  0
    4.9640   -5.5810   25.7520 S   0  0  0  0  0  0  0  0  0  0  0  0
    5.5410   -6.1750   23.0810 C   0  0  0  0  0  0  0  0  0  0  0  0
   12.6290   -0.5330   24.7380 C   0  0  0  0  0  0  0  0  0  0  0  0
   13.4020   -1.9440   22.9530 C   0  0  0  0  0  0  0  0  0  0  0  0
   12.6710   -2.8300   24.8880 C   0  0  0  0  0  0  0  0  0  0  0  0
   17.2570    4.9160   23.5550 C   0  0  0  0  0  0  0  0  0  0  0  0
    5.9350   -5.3520   26.7960 O   0  0  0  0  0  0  0  0  0  0  0  0
    4.2030   -6.8050   25.6880 O   0  0  0  0  0  0  0  0  0  0  0  0
    3.8470   -4.2150   25.8360 C   0  0  0  0  0  0  0  0  0  0  0  0
   18.7930    5.1720   23.2520 C   0  0  0  0  0  0  0  0  0  0  0  0
    2.5270   -4.3140   25.3770 C   0  0  0  0  0  0  0  0  0  0  0  0
    4.2970   -2.8640   26.4210 C   0  0  0  0  0  0  0  0  0  0  0  0
   19.2310    6.6400   23.5950 C   0  0  0  0  0  0  0  0  0  0  0  0
    1.6200   -3.2430   25.4420 C   0  0  0  0  0  0  0  0  0  0  0  0
    3.3020   -1.7190   26.4810 C   0  0  0  0  0  0  0  0  0  0  0  0
   20.5520    7.0300   23.0450 N   0  0  0  0  0  0  0  0  0  0  0  0
    1.9020   -1.9790   25.9530 C   0  0  0  0  0  0  0  0  0  0  0  0
    0.8610   -0.8990   25.9880 C   0  0  0  0  0  0  0  0  0  0  0  0
   21.4640    6.1130   23.4280 C   0  0  0  0  0  0  0  0  0  0  0  0
   22.6120    5.5960   22.7870 C   0  0  0  0  0  0  0  0  0  0  0  0
   21.1730    5.4760   24.8880 C   0  0  0  0  0  0  0  0  0  0  0  0
   23.3590    4.6120   23.4030 C   0  0  0  0  0  0  0  0  0  0  0  0
   21.9660    4.5130   25.4040 C   0  0  0  0  0  0  0  0  0  0  0  0
   23.0400    4.0830   24.6520 C   0  0  0  0  0  0  0  0  0  0  0  0
   23.9880    2.7920   25.3590 S   0  0  0  0  0  0  0  0  0  0  0  0
   23.1110    1.6610   25.3300 O   0  0  0  0  0  0  0  0  0  0  0  0
   24.2020    3.2710   26.9810 N   0  0  0  0  0  0  0  0  0  0  0  0
   25.2580    2.7550   24.6930 O   0  0  0  0  0  0  0  0  0  0  0  0
   25.0180    4.3670   27.2540 C   0  0  0  0  0  0  0  0  0  0  0  0
   25.0930    4.6730   28.5960 N   0  0  0  0  0  0  0  0  0  0  0  0
   25.7400    5.1520   26.3170 C   0  0  0  0  0  0  0  0  0  0  0  0
   25.8570    5.7180   28.9890 C   0  0  0  0  0  0  0  0  0  0  0  0
   26.5310    6.2240   26.6630 C   0  0  0  0  0  0  0  0  0  0  0  0
   26.5810    6.5150   28.1310 C   0  0  0  0  0  0  0  0  0  0  0  0
  1  2  1  0
  2  3  1  0
  1  4  1  0
  4  5  2  0
  6  4  1  6
  6  7  1  0
  3  8  1  0
  6  9  1  0
  8 10  1  0
  8 11  2  0
  7 12  1  0
  7 13  1  0
  9 14  2  0
  9 15  1  0
  7 16  1  6
 10 17  1  0
 12 18  2  0
 12 19  1  0
 15 20  2  0
 14 21  1  0
 16 22  2  0
 16 23  1  0
 24 13  1  6
 17 25  1  0
 19 26  1  6
 20 27  1  0
 21 27  2  0
 22 28  1  0
 23 29  2  0
 19 30  1  0
 24 30  1  0
 24 31  1  0
 25 32  1  0
 28 33  2  0
 29 33  1  0
 31 34  1  0
 30 35  1  0
 33 36  1  0
 32 37  1  0
 34 38  1  0
 34 39  1  0
 35 39  1  0
 36 40  1  0
 36 41  1  0
 36 42  1  0
 37 43  1  0
 38 44  2  0
 38 45  2  0
 38 46  1  0
 43 47  1  0
 46 48  2  0
 46 49  1  0
 47 50  1  0
 48 51  1  0
 49 52  2  0
 50 53  1  0
 51 54  2  0
 52 54  1  0
 54 55  1  0
 53 56  1  0
 56 57  2  0
 56 58  1  0
 57 59  1  0
 58 60  2  0
 59 61  2  0
 60 61  1  0
 61 62  1  0
 62 63  2  0
 62 64  1  0
 62 65  2  0
 64 66  1  0
 66 67  2  0
 66 68  1  0
 67 69  1  0
 68 70  2  0
 69 71  2  0
 70 71  1  0
M  END
