x3115-x3124
     RDKit          3D

 29 30  0  0  0  0  0  0  0  0999 V2000
    6.8660   -1.7040   21.9000 N   0  0  0  0  0  0  0  0  0  0  0  0
    6.0460   -2.8910   21.6260 C   0  0  0  0  0  0  0  0  0  0  0  0
    4.8070   -3.0320   21.2950 O   0  0  0  0  0  0  0  0  0  0  0  0
    6.4570   -0.3790   21.6970 C   0  0  1  0  0  0  0  0  0  0  0  0
    8.2070   -1.7750   22.5320 C   0  0  0  0  0  0  0  0  0  0  0  0
    6.7710   -4.2000   21.7460 C   0  0  0  0  0  0  0  0  0  0  0  0
    7.4730    0.7100   22.0300 C   0  0  0  0  0  0  0  0  0  0  0  0
    6.0520    0.0870   20.3180 C   0  0  0  0  0  0  0  0  0  0  0  0
    9.3570   -1.6490   21.7560 C   0  0  0  0  0  0  0  0  0  0  0  0
    8.4300   -1.9440   23.8960 C   0  0  0  0  0  0  0  0  0  0  0  0
    6.7190   -4.8600   20.3930 C   0  0  0  0  0  0  0  0  0  0  0  0
    7.0450    1.8350   22.8980 N   0  0  0  0  0  0  0  0  0  0  0  0
    8.5970    0.6840   21.5330 O   0  0  0  0  0  0  0  0  0  0  0  0
    4.8410    0.9750   20.1960 C   0  0  0  0  0  0  0  0  0  0  0  0
    6.8280   -0.2610   18.9780 C   0  0  0  0  0  0  0  0  0  0  0  0
   10.6460   -1.6710   22.2690 C   0  0  0  0  0  0  0  0  0  0  0  0
    9.8980   -1.9640   24.4650 C   0  0  0  0  0  0  0  0  0  0  0  0
    7.9700    2.7120   23.1210 C   0  0  0  0  0  0  0  0  0  0  0  0
    6.3360    0.2910   17.8300 N   0  0  0  0  0  0  0  0  0  0  0  0
    4.4850    1.4380   18.9670 C   0  0  0  0  0  0  0  0  0  0  0  0
   10.9800   -1.8150   23.6050 C   0  0  0  0  0  0  0  0  0  0  0  0
    7.8370    3.8870   22.3560 C   0  0  0  0  0  0  0  0  0  0  0  0
   12.3860   -1.7990   24.1860 C   0  0  0  0  0  0  0  0  0  0  0  0
    5.2330    1.0960   17.8160 C   0  0  0  0  0  0  0  0  0  0  0  0
    8.4870    5.0550   22.9100 O   0  0  0  0  0  0  0  0  0  0  0  0
   13.2890   -1.8560   23.1330 C   0  0  0  0  0  0  0  0  0  0  0  0
   12.7210   -2.9870   25.0860 C   0  0  0  0  0  0  0  0  0  0  0  0
   12.5320   -0.6520   24.9210 C   0  0  0  0  0  0  0  0  0  0  0  0
    8.2140    6.2580   22.1970 C   0  0  0  0  0  0  0  0  0  0  0  0
  1  2  1  0
  2  3  2  0
  1  4  1  0
  1  5  1  0
  2  6  1  0
  4  7  1  6
  4  8  1  0
  5  9  2  0
  5 10  1  0
  6 11  1  0
  7 12  1  0
  7 13  2  0
  8 14  2  0
  8 15  1  0
  9 16  1  0
 10 17  2  0
 12 18  1  0
 15 19  2  0
 14 20  1  0
 16 21  2  0
 17 21  1  0
 18 22  1  0
 21 23  1  0
 19 24  1  0
 20 24  2  0
 22 25  1  0
 23 26  1  0
 23 27  1  0
 23 28  1  0
 25 29  1  0
M  END
