x3110-x0107-x0946-x0731
     RDKit          3D

 56 62  0  0  0  0  0  0  0  0999 V2000
    8.1620    1.0510   23.3570 N   0  0  0  0  0  0  0  0  0  0  0  0
    8.6950    2.3780   23.8220 C   0  0  0  0  0  0  0  0  0  0  0  0
   10.1910    2.5440   23.5240 C   0  0  0  0  0  0  0  0  0  0  0  0
    7.9440    0.6070   21.9480 C   0  0  2  0  0  0  0  0  0  0  0  0
    7.9560    1.6560   21.2690 O   0  0  0  0  0  0  0  0  0  0  0  0
    6.7650   -0.2200   21.7310 C   0  0  2  0  0  0  0  0  0  0  0  0
    9.1610   -0.1560   21.4750 C   0  0  0  0  0  0  0  0  0  0  0  0
    7.0140   -1.8110   22.0500 C   0  0  2  0  0  0  0  0  0  0  0  0
    6.2090    0.2360   20.4030 C   0  0  0  0  0  0  0  0  0  0  0  0
    9.4320   -1.2200   22.3460 C   0  0  0  0  0  0  0  0  0  0  0  0
   10.9380    3.7340   23.4200 C   0  0  0  0  0  0  0  0  0  0  0  0
   10.8720    1.3530   23.3290 C   0  0  0  0  0  0  0  0  0  0  0  0
   10.3300    5.1280   23.6170 C   0  0  0  0  0  0  0  0  0  0  0  0
    6.1540   -2.9390   21.2520 C   0  0  0  0  0  0  0  0  0  0  0  0
    6.3240   -2.2310   23.2810 C   0  0  0  0  0  0  0  0  0  0  0  0
    5.0930    1.0600   20.2690 C   0  0  0  0  0  0  0  0  0  0  0  0
    6.8340   -0.1340   19.1450 C   0  0  0  0  0  0  0  0  0  0  0  0
   10.7700   -1.1920   22.7770 C   0  0  0  0  0  0  0  0  0  0  0  0
    8.4630   -2.0530   22.6680 C   0  0  0  0  0  0  0  0  0  0  0  0
   12.1940    1.2770   23.0220 C   0  0  0  0  0  0  0  0  0  0  0  0
   12.2940    3.6520   23.1170 C   0  0  0  0  0  0  0  0  0  0  0  0
   13.2100    4.8340   22.9980 C   0  0  0  0  0  0  0  0  0  0  0  0
    4.8900   -3.0160   20.9380 O   0  0  0  0  0  0  0  0  0  0  0  0
    6.9450   -4.1480   20.9760 C   0  0  1  0  0  0  0  0  0  0  0  0
    9.0540    5.1750   23.0970 N   0  0  0  0  0  0  0  0  0  0  0  0
   11.0290    5.9990   22.7770 O   0  0  0  0  0  0  0  0  0  0  0  0
   10.6000    5.6340   24.6990 O   0  0  0  0  0  0  0  0  0  0  0  0
    6.3620    0.3200   17.8230 N   0  0  0  0  0  0  0  0  0  0  0  0
    4.6130    1.5180   18.9370 C   0  0  0  0  0  0  0  0  0  0  0  0
   11.1620   -2.1250   23.6830 C   0  0  0  0  0  0  0  0  0  0  0  0
    8.9040   -3.0190   23.5550 C   0  0  0  0  0  0  0  0  0  0  0  0
   12.8880    2.4270   22.9140 C   0  0  0  0  0  0  0  0  0  0  0  0
    6.2840   -3.7930   23.3880 C   0  0  2  0  0  0  0  0  0  0  0  0
   13.2040    5.3370   21.6040 C   0  0  0  0  0  0  0  0  0  0  0  0
    8.3330   -3.7250   20.4680 C   0  0  0  0  0  0  0  0  0  0  0  0
   12.5820   -2.0680   24.2190 C   0  0  0  0  0  0  0  0  0  0  0  0
    5.2010    1.1850   17.7720 C   0  0  0  0  0  0  0  0  0  0  0  0
   10.1880   -3.0090   24.0070 C   0  0  0  0  0  0  0  0  0  0  0  0
    6.9220   -4.6970   22.3500 N   0  0  0  0  0  0  0  0  0  0  0  0
    4.9860   -4.1030   23.4990 C   0  0  0  0  0  0  0  0  0  0  0  0
   12.7350   -0.8410   24.8670 C   0  0  0  0  0  0  0  0  0  0  0  0
   13.5210   -2.1340   23.0360 C   0  0  0  0  0  0  0  0  0  0  0  0
   12.9180   -3.1160   25.0960 C   0  0  0  0  0  0  0  0  0  0  0  0
    5.0320   -5.4230   24.0930 N   0  0  0  0  0  0  0  0  0  0  0  0
    6.6310   -6.1610   22.4920 C   0  0  0  0  0  0  0  0  0  0  0  0
    4.9970   -5.5180   25.7790 S   0  0  0  0  0  0  0  0  0  0  0  0
    5.4110   -6.4860   23.1420 C   0  0  0  0  0  0  0  0  0  0  0  0
    6.0820   -5.1510   26.6450 O   0  0  0  0  0  0  0  0  0  0  0  0
    4.2530   -6.7240   26.0290 O   0  0  0  0  0  0  0  0  0  0  0  0
    3.9180   -4.2080   25.9320 C   0  0  0  0  0  0  0  0  0  0  0  0
    2.5230   -4.4280   25.3560 C   0  0  0  0  0  0  0  0  0  0  0  0
    4.2470   -2.9920   26.5220 C   0  0  0  0  0  0  0  0  0  0  0  0
    1.5330   -3.2350   25.4780 C   0  0  0  0  0  0  0  0  0  0  0  0
    3.3210   -1.9610   26.6040 C   0  0  0  0  0  0  0  0  0  0  0  0
    2.0160   -2.0800   26.1020 C   0  0  0  0  0  0  0  0  0  0  0  0
    1.1070   -0.9000   26.2530 C   0  0  0  0  0  0  0  0  0  0  0  0
  1  2  1  0
  2  3  1  0
  1  4  1  0
  4  5  1  6
  4  6  1  0
  4  7  1  0
  6  8  1  0
  6  9  1  6
  7 10  1  0
  3 11  2  0
  3 12  1  0
 11 13  1  0
  8 14  1  0
  8 15  1  1
  9 16  2  0
  9 17  1  0
 10 18  2  0
  8 19  1  0
 10 19  1  0
 12 20  2  0
 11 21  1  0
 21 22  1  0
 14 23  2  0
 14 24  1  0
 13 25  1  0
 13 26  1  0
 13 27  1  0
 17 28  2  0
 16 29  1  0
 18 30  1  0
 19 31  2  0
 20 32  1  0
 21 32  2  0
 33 15  1  6
 22 34  1  0
 24 35  1  1
 30 36  1  0
 28 37  1  0
 29 37  2  0
 30 38  2  0
 31 38  1  0
 24 39  1  0
 33 39  1  0
 33 40  1  0
 36 41  1  0
 36 42  1  0
 36 43  1  0
 40 44  1  0
 39 45  1  0
 44 46  1  0
 44 47  1  0
 45 47  1  0
 46 48  2  0
 46 49  2  0
 46 50  1  0
 50 51  2  0
 50 52  1  0
 51 53  1  0
 52 54  2  0
 53 55  2  0
 54 55  1  0
 55 56  1  0
M  END
