x3110-x1311-x1380
     RDKit          3D

 59 65  0  0  0  0  0  0  0  0999 V2000
    8.0050    1.3500   23.3110 N   0  0  0  0  0  0  0  0  0  0  0  0
    8.9810    2.2200   23.7670 C   0  0  0  0  0  0  0  0  0  0  0  0
   10.3470    1.9710   23.5870 C   0  0  0  0  0  0  0  0  0  0  0  0
    7.7320    0.8310   21.9730 C   0  0  0  0  0  0  0  0  0  0  0  0
    8.4780    1.3790   20.9580 O   0  0  0  0  0  0  0  0  0  0  0  0
    6.8580   -0.0170   21.7680 C   0  0  2  0  0  0  0  0  0  0  0  0
    7.5080   -1.4410   21.5670 C   0  0  1  0  0  0  0  0  0  0  0  0
   11.1080    3.2870   23.4300 C   0  0  0  0  0  0  0  0  0  0  0  0
    6.2470    0.5230   20.3940 C   0  0  0  0  0  0  0  0  0  0  0  0
   11.9500    3.2330   22.5420 O   0  0  0  0  0  0  0  0  0  0  0  0
   10.8950    4.2770   24.1190 O   0  0  0  0  0  0  0  0  0  0  0  0
    5.0290    1.2060   20.3620 C   0  0  0  0  0  0  0  0  0  0  0  0
    6.8900    0.3400   19.1680 C   0  0  0  0  0  0  0  0  0  0  0  0
    8.8640   -1.4760   22.1410 C   0  0  0  0  0  0  0  0  0  0  0  0
    7.3850   -2.9430   22.2160 C   0  0  2  0  0  0  0  0  0  0  0  0
    6.9600   -1.8370   20.1230 C   0  0  0  0  0  0  0  0  0  0  0  0
   12.2910    4.5070   21.9810 C   0  0  0  0  0  0  0  0  0  0  0  0
    5.9590   -2.9290   20.4390 C   0  0  0  0  0  0  0  0  0  0  0  0
    6.4520    0.7680   17.8610 N   0  0  0  0  0  0  0  0  0  0  0  0
    4.5110    1.6720   19.1340 C   0  0  0  0  0  0  0  0  0  0  0  0
   10.0430   -1.0560   21.6490 C   0  0  0  0  0  0  0  0  0  0  0  0
    8.9430   -2.0430   23.3920 C   0  0  0  0  0  0  0  0  0  0  0  0
    6.5090   -3.8310   21.4030 C   0  0  1  0  0  0  0  0  0  0  0  0
    7.3040   -3.1400   23.5850 C   0  0  0  0  0  0  0  0  0  0  0  0
   13.3570    5.1340   22.8470 C   0  0  0  0  0  0  0  0  0  0  0  0
    4.7960   -3.0830   20.0250 O   0  0  0  0  0  0  0  0  0  0  0  0
    7.3740   -4.9940   20.7920 C   0  0  0  0  0  0  0  0  0  0  0  0
    5.1760    1.4740   17.9280 C   0  0  0  0  0  0  0  0  0  0  0  0
   11.2100   -1.1980   22.3570 C   0  0  0  0  0  0  0  0  0  0  0  0
   10.1780   -2.2390   24.1900 C   0  0  0  0  0  0  0  0  0  0  0  0
    6.8590   -4.5930   24.0560 C   0  0  2  0  0  0  0  0  0  0  0  0
    5.3180   -4.1110   22.3500 C   0  0  0  0  0  0  0  0  0  0  0  0
   11.3010   -1.7810   23.6180 C   0  0  0  0  0  0  0  0  0  0  0  0
    7.4900   -4.4810   25.3050 C   0  0  0  0  0  0  0  0  0  0  0  0
    7.3730   -5.6440   23.2430 C   0  0  0  0  0  0  0  0  0  0  0  0
    5.4950   -4.4200   23.7280 C   0  0  1  0  0  0  0  0  0  0  0  0
   12.5880   -1.8330   24.2200 C   0  0  0  0  0  0  0  0  0  0  0  0
    8.6450   -6.1840   23.4080 C   0  0  0  0  0  0  0  0  0  0  0  0
    8.8420   -4.8110   25.3850 C   0  0  0  0  0  0  0  0  0  0  0  0
    4.4070   -5.5330   23.7110 C   0  0  1  0  0  0  0  0  0  0  0  0
    4.8490   -3.2070   24.5670 C   0  0  0  0  0  0  0  0  0  0  0  0
   12.8240   -0.6410   24.8920 C   0  0  0  0  0  0  0  0  0  0  0  0
   13.5650   -1.9820   23.0880 C   0  0  0  0  0  0  0  0  0  0  0  0
   12.8360   -2.9770   25.2150 C   0  0  0  0  0  0  0  0  0  0  0  0
    9.4540   -5.7090   24.3810 C   0  0  0  0  0  0  0  0  0  0  0  0
    4.5000   -6.6150   22.6990 C   0  0  0  0  0  0  0  0  0  0  0  0
    3.6090   -6.5050   24.9690 S   0  0  0  0  0  0  0  0  0  0  0  0
    5.3860   -2.7220   25.9310 C   0  0  0  0  0  0  0  0  0  0  0  0
    4.4610   -7.5580   25.4390 O   0  0  0  0  0  0  0  0  0  0  0  0
    2.7800   -5.7240   25.8390 O   0  0  0  0  0  0  0  0  0  0  0  0
    3.1300   -7.2670   22.7500 C   0  0  0  0  0  0  0  0  0  0  0  0
    2.5110   -7.3100   23.8810 C   0  0  0  0  0  0  0  0  0  0  0  0
    5.4160   -1.5220   26.1080 O   0  0  0  0  0  0  0  0  0  0  0  0
    5.8130   -3.5830   26.9760 N   0  0  0  0  0  0  0  0  0  0  0  0
    7.0980   -3.5630   27.5650 C   0  0  0  0  0  0  0  0  0  0  0  0
    4.7930   -3.9690   27.9430 C   0  0  0  0  0  0  0  0  0  0  0  0
    7.6340   -4.7480   28.0750 C   0  0  0  0  0  0  0  0  0  0  0  0
    5.3780   -4.6870   29.1700 C   0  0  0  0  0  0  0  0  0  0  0  0
    6.5670   -5.5650   28.7900 C   0  0  0  0  0  0  0  0  0  0  0  0
  1  2  1  0
  2  3  1  0
  1  4  1  0
  4  5  2  0
  6  4  1  6
  6  7  1  0
  3  8  1  0
  6  9  1  0
  8 10  1  0
  8 11  2  0
  9 12  2  0
  9 13  1  0
  7 14  1  6
  7 15  1  0
  7 16  1  0
 10 17  1  0
 16 18  1  0
 13 19  2  0
 12 20  1  0
 14 21  2  0
 14 22  1  0
 15 23  1  0
 18 23  1  0
 15 24  1  1
 17 25  1  0
 18 26  2  0
 23 27  1  6
 19 28  1  0
 20 28  2  0
 21 29  1  0
 22 30  2  0
 31 24  1  6
 23 32  1  0
 29 33  2  0
 30 33  1  0
 31 34  1  0
 31 35  1  0
 31 36  1  0
 32 36  1  0
 33 37  1  0
 35 38  2  0
 34 39  1  0
 36 40  1  0
 36 41  1  1
 37 42  1  0
 37 43  1  0
 37 44  1  0
 38 45  1  0
 39 45  2  0
 40 46  1  6
 40 47  1  0
 41 48  1  0
 47 49  1  0
 47 50  1  0
 46 51  1  0
 47 52  1  0
 51 52  2  0
 48 53  2  0
 48 54  1  0
 54 55  1  0
 54 56  1  0
 55 57  1  0
 56 58  1  0
 57 59  1  0
 58 59  1  0
M  END
