x3110-x0731-x0978
     RDKit          3D

 56 60  0  0  0  0  0  0  0  0999 V2000
    7.9540    1.1910   23.2560 N   0  0  0  0  0  0  0  0  0  0  0  0
    8.8040    2.3360   23.6080 C   0  0  0  0  0  0  0  0  0  0  0  0
   10.2980    2.0100   23.5570 C   0  0  0  0  0  0  0  0  0  0  0  0
    7.7180    0.8060   21.9470 C   0  0  0  0  0  0  0  0  0  0  0  0
    8.4630    1.2890   21.0600 O   0  0  0  0  0  0  0  0  0  0  0  0
    6.5440   -0.1210   21.6980 C   0  0  2  0  0  0  0  0  0  0  0  0
    6.8330   -1.5930   22.0520 N   0  0  0  0  0  0  0  0  0  0  0  0
   11.0530    3.3040   23.4220 C   0  0  0  0  0  0  0  0  0  0  0  0
    6.1140    0.2790   20.3200 C   0  0  0  0  0  0  0  0  0  0  0  0
   12.0020    3.2280   22.4630 O   0  0  0  0  0  0  0  0  0  0  0  0
   10.8240    4.2930   24.0980 O   0  0  0  0  0  0  0  0  0  0  0  0
    6.0800   -2.7770   21.5550 C   0  0  0  0  0  0  0  0  0  0  0  0
    4.8990    1.1890   20.1840 C   0  0  0  0  0  0  0  0  0  0  0  0
    6.8260   -0.1480   19.2140 C   0  0  0  0  0  0  0  0  0  0  0  0
    8.2140   -1.6640   22.6070 C   0  0  0  0  0  0  0  0  0  0  0  0
   12.3800    4.5050   21.9340 C   0  0  0  0  0  0  0  0  0  0  0  0
    4.7970   -3.0440   21.3720 O   0  0  0  0  0  0  0  0  0  0  0  0
    7.0380   -3.8400   21.1780 C   0  0  2  0  0  0  0  0  0  0  0  0
    6.3820    0.3140   17.9130 N   0  0  0  0  0  0  0  0  0  0  0  0
    4.5080    1.6070   18.9340 C   0  0  0  0  0  0  0  0  0  0  0  0
    9.2930   -1.9270   21.7790 C   0  0  0  0  0  0  0  0  0  0  0  0
    8.4810   -1.4520   23.9560 C   0  0  0  0  0  0  0  0  0  0  0  0
   13.3660    5.1390   22.8840 C   0  0  0  0  0  0  0  0  0  0  0  0
    6.9800   -3.7070   19.6920 C   0  0  0  0  0  0  0  0  0  0  0  0
    5.2060    1.2100   17.7920 C   0  0  0  0  0  0  0  0  0  0  0  0
   10.5900   -1.9690   22.2740 C   0  0  0  0  0  0  0  0  0  0  0  0
    9.8200   -1.5000   24.4220 C   0  0  0  0  0  0  0  0  0  0  0  0
    6.8440   -5.2330   21.7800 N   0  0  0  0  0  0  0  0  0  0  0  0
   10.9240   -1.7560   23.5990 C   0  0  0  0  0  0  0  0  0  0  0  0
    7.6450   -5.3850   22.9150 C   0  0  0  0  0  0  0  0  0  0  0  0
    5.5750   -5.8400   21.8810 C   0  0  0  0  0  0  0  0  0  0  0  0
   12.3630   -1.7820   24.1310 C   0  0  0  0  0  0  0  0  0  0  0  0
    6.9270   -4.9830   24.1640 C   0  0  0  0  0  0  0  0  0  0  0  0
    4.7260   -5.4040   22.9170 C   0  0  1  0  0  0  0  0  0  0  0  0
   12.5610   -0.6390   24.9230 C   0  0  0  0  0  0  0  0  0  0  0  0
   13.3470   -1.7180   22.9620 C   0  0  0  0  0  0  0  0  0  0  0  0
   12.7670   -2.9840   24.9830 C   0  0  0  0  0  0  0  0  0  0  0  0
    3.4960   -6.4240   23.1930 C   0  0  2  0  0  0  0  0  0  0  0  0
    5.5420   -4.9690   24.1470 C   0  0  2  0  0  0  0  0  0  0  0  0
    2.3570   -5.7080   22.9310 N   0  0  0  0  0  0  0  0  0  0  0  0
    3.3160   -6.9890   24.4690 C   0  0  1  0  0  0  0  0  0  0  0  0
    5.2600   -3.5990   24.1030 O   0  0  0  0  0  0  0  0  0  0  0  0
    4.8740   -5.4960   25.7180 S   0  0  1  0  0  0  0  0  0  0  0  0
    2.6190   -8.1790   24.4790 C   0  0  0  0  0  0  0  0  0  0  0  0
    4.2620   -7.0270   25.3570 N   0  0  0  0  0  0  0  0  0  0  0  0
    1.0410   -6.2780   22.5570 C   0  0  0  0  0  0  0  0  0  0  0  0
    5.9080   -5.4100   26.7290 O   0  0  0  0  0  0  0  0  0  0  0  0
    3.7040   -4.1850   25.8720 C   0  0  0  0  0  0  0  0  0  0  0  0
    0.9350   -7.3810   22.0010 O   0  0  0  0  0  0  0  0  0  0  0  0
   -0.1110   -5.5270   22.8310 C   0  0  0  0  0  0  0  0  0  0  0  0
    2.2470   -4.2680   25.4570 C   0  0  0  0  0  0  0  0  0  0  0  0
    4.1300   -2.8300   26.4280 C   0  0  0  0  0  0  0  0  0  0  0  0
    1.2960   -3.0920   25.5820 C   0  0  0  0  0  0  0  0  0  0  0  0
    3.1660   -1.6570   26.5500 C   0  0  0  0  0  0  0  0  0  0  0  0
    1.8330   -1.7900   26.1470 C   0  0  0  0  0  0  0  0  0  0  0  0
    0.8970   -0.6350   26.2660 C   0  0  0  0  0  0  0  0  0  0  0  0
  1  2  1  0
  2  3  1  0
  1  4  1  0
  4  5  2  0
  6  4  1  6
  6  7  1  0
  3  8  1  0
  6  9  1  0
  8 10  1  0
  8 11  2  0
  7 12  1  0
  9 13  2  0
  9 14  1  0
  7 15  1  0
 10 16  1  0
 12 17  2  0
 12 18  1  0
 14 19  2  0
 13 20  1  0
 15 21  2  0
 15 22  1  0
 16 23  1  0
 18 24  1  6
 19 25  1  0
 20 25  2  0
 21 26  1  0
 22 27  2  0
 18 28  1  0
 26 29  2  0
 27 29  1  0
 28 30  1  0
 28 31  1  0
 29 32  1  0
 30 33  1  0
 34 31  1  6
 32 35  1  0
 32 36  1  0
 32 37  1  0
 34 38  1  0
 33 39  1  0
 34 39  1  0
 38 40  1  1
 38 41  1  0
 39 42  1  1
 39 43  1  0
 41 44  1  6
 41 45  1  0
 43 45  2  0
 40 46  1  0
 43 47  2  0
 43 48  1  1
 46 49  2  0
 46 50  1  0
 48 51  2  0
 48 52  1  0
 51 53  1  0
 52 54  2  0
 53 55  2  0
 54 55  1  0
 55 56  1  0
M  END
