x3115-x1308-x3124-x3110-x3113
     RDKit          3D

 53 57  0  0  0  0  0  0  0  0999 V2000
    7.9600    1.5110   23.1560 N   0  0  0  0  0  0  0  0  0  0  0  0
    8.8600    2.6800   23.0290 C   0  0  2  0  0  0  0  0  0  0  0  0
   10.1600    2.4210   23.8160 C   0  0  0  0  0  0  0  0  0  0  0  0
    7.6610    0.8470   21.8910 C   0  0  0  0  0  0  0  0  0  0  0  0
    8.4960    1.1920   20.7870 O   0  0  0  0  0  0  0  0  0  0  0  0
    6.4370   -0.1100   21.7550 C   0  0  2  0  0  0  0  0  0  0  0  0
    8.1080    3.9510   23.3800 C   0  0  0  0  0  0  0  0  0  0  0  0
    6.7280   -1.5990   22.0040 C   0  0  2  0  0  0  0  0  0  0  0  0
   11.0850    3.4760   23.5310 C   0  0  0  0  0  0  0  0  0  0  0  0
    8.8460    5.0800   23.1190 O   0  0  0  0  0  0  0  0  0  0  0  0
    5.9940    0.3160   20.3550 C   0  0  0  0  0  0  0  0  0  0  0  0
   11.9420    3.3160   22.4750 O   0  0  0  0  0  0  0  0  0  0  0  0
   11.0930    4.4940   24.2200 O   0  0  0  0  0  0  0  0  0  0  0  0
    6.0200   -2.7710   21.1050 C   0  0  0  0  0  0  0  0  0  0  0  0
    8.1580    6.0230   22.2930 C   0  0  0  0  0  0  0  0  0  0  0  0
    5.8560   -2.0510   23.1230 C   0  0  0  0  0  0  0  0  0  0  0  0
    4.8820    1.1290   20.1380 C   0  0  0  0  0  0  0  0  0  0  0  0
    6.7350   -0.0800   19.1670 C   0  0  0  0  0  0  0  0  0  0  0  0
    8.2640   -1.6380   22.5220 C   0  0  0  0  0  0  0  0  0  0  0  0
   12.3490    4.4770   21.9170 C   0  0  0  0  0  0  0  0  0  0  0  0
    4.7980   -2.8870   20.6950 O   0  0  0  0  0  0  0  0  0  0  0  0
    6.7220   -4.0430   20.8980 C   0  0  1  0  0  0  0  0  0  0  0  0
    5.3430   -3.5330   22.9700 C   0  0  0  0  0  0  0  0  0  0  0  0
    6.3680    0.3400   17.8130 N   0  0  0  0  0  0  0  0  0  0  0  0
    4.5220    1.5350   18.8740 C   0  0  0  0  0  0  0  0  0  0  0  0
    9.3430   -1.5120   21.6340 C   0  0  0  0  0  0  0  0  0  0  0  0
    8.6160   -1.7730   23.8890 C   0  0  0  0  0  0  0  0  0  0  0  0
   13.3990    5.1530   22.7940 C   0  0  0  0  0  0  0  0  0  0  0  0
    8.2330   -3.9740   20.6170 C   0  0  0  0  0  0  0  0  0  0  0  0
    5.2420    1.1550   17.7840 C   0  0  0  0  0  0  0  0  0  0  0  0
   10.6490   -1.5360   22.0840 C   0  0  0  0  0  0  0  0  0  0  0  0
    9.9340   -1.7770   24.2790 C   0  0  0  0  0  0  0  0  0  0  0  0
    6.3190   -4.6170   22.2440 C   0  0  0  0  0  0  0  0  0  0  0  0
   10.9540   -1.6670   23.4160 C   0  0  0  0  0  0  0  0  0  0  0  0
    7.4250   -4.8000   23.0320 C   0  0  0  0  0  0  0  0  0  0  0  0
    5.6220   -6.0020   22.1560 C   0  0  0  0  0  0  0  0  0  0  0  0
   12.3540   -1.6770   23.9570 C   0  0  0  0  0  0  0  0  0  0  0  0
    7.0470   -5.0850   24.3120 C   0  0  0  0  0  0  0  0  0  0  0  0
    5.0180   -6.3620   23.3600 C   0  0  0  0  0  0  0  0  0  0  0  0
   12.4310   -0.4940   24.6950 C   0  0  0  0  0  0  0  0  0  0  0  0
   13.3400   -1.8140   22.8640 C   0  0  0  0  0  0  0  0  0  0  0  0
   12.5630   -2.8320   24.7450 C   0  0  0  0  0  0  0  0  0  0  0  0
    5.6730   -5.6350   24.4740 N   0  0  0  0  0  0  0  0  0  0  0  0
    5.0560   -5.7500   26.0290 S   0  0  0  0  0  0  0  0  0  0  0  0
    6.0800   -5.3590   26.9520 O   0  0  0  0  0  0  0  0  0  0  0  0
    4.3850   -7.0180   26.1180 O   0  0  0  0  0  0  0  0  0  0  0  0
    3.8550   -4.4580   26.1090 C   0  0  0  0  0  0  0  0  0  0  0  0
    4.2350   -3.1620   26.4570 C   0  0  0  0  0  0  0  0  0  0  0  0
    2.5200   -4.7600   25.8280 C   0  0  0  0  0  0  0  0  0  0  0  0
    3.3020   -2.1250   26.5470 C   0  0  0  0  0  0  0  0  0  0  0  0
    1.5450   -3.7680   25.9010 C   0  0  0  0  0  0  0  0  0  0  0  0
    1.9520   -2.3500   26.2940 C   0  0  0  0  0  0  0  0  0  0  0  0
    0.7270   -1.1610   26.3960 Cl  0  0  0  0  0  0  0  0  0  0  0  0
  1  2  1  0
  2  3  1  1
  1  4  1  0
  4  5  2  0
  6  4  1  6
  2  7  1  0
  6  8  1  0
  3  9  1  0
  7 10  1  0
  6 11  1  0
  9 12  1  0
  9 13  2  0
  8 14  1  0
 10 15  1  0
  8 16  1  0
 11 17  2  0
 11 18  1  0
  8 19  1  1
 12 20  1  0
 14 21  2  0
 14 22  1  0
 16 23  1  0
 18 24  2  0
 17 25  1  0
 19 26  2  0
 19 27  1  0
 20 28  1  0
 22 29  1  1
 24 30  1  0
 25 30  2  0
 26 31  1  0
 27 32  2  0
 22 33  1  0
 33 23  1  0
 31 34  2  0
 32 34  1  0
 33 35  1  0
 33 36  1  0
 34 37  1  0
 35 38  1  0
 36 39  1  0
 37 40  1  0
 37 41  1  0
 37 42  1  0
 38 43  1  0
 39 43  1  0
 43 44  1  0
 44 45  2  0
 44 46  2  0
 44 47  1  0
 47 48  2  0
 47 49  1  0
 48 50  1  0
 49 51  2  0
 50 52  2  0
 51 52  1  0
 52 53  1  0
M  END
