x3117-x3113
     RDKit          3D

 35 38  0  0  0  0  0  0  0  0999 V2000
    6.9050   -1.6820   21.9200 N   0  0  0  0  0  0  0  0  0  0  0  0
    6.1290   -2.9160   21.5740 C   0  0  0  0  0  0  0  0  0  0  0  0
    4.8860   -3.0650   21.1560 O   0  0  0  0  0  0  0  0  0  0  0  0
    6.5800   -0.2940   21.7460 C   0  0  1  0  0  0  0  0  0  0  0  0
    8.2400   -1.7390   22.4820 C   0  0  0  0  0  0  0  0  0  0  0  0
    6.7860   -4.3200   21.7510 C   0  0  0  0  0  0  0  0  0  0  0  0
    7.8250    0.6930   21.8970 C   0  0  0  0  0  0  0  0  0  0  0  0
    6.2460    0.1160   20.3180 C   0  0  0  0  0  0  0  0  0  0  0  0
    9.3430   -2.0760   21.7910 C   0  0  0  0  0  0  0  0  0  0  0  0
    8.5130   -1.4080   23.8630 C   0  0  0  0  0  0  0  0  0  0  0  0
    8.1380   -4.6480   21.0460 C   0  0  0  0  0  0  0  0  0  0  0  0
    8.0230    1.5260   23.1630 N   0  0  0  0  0  0  0  0  0  0  0  0
    8.6330    0.8450   20.9930 O   0  0  0  0  0  0  0  0  0  0  0  0
    5.0710    1.0460   20.3240 C   0  0  0  0  0  0  0  0  0  0  0  0
    6.8460   -0.2210   19.1150 C   0  0  0  0  0  0  0  0  0  0  0  0
   10.7200   -2.1000   22.3980 C   0  0  0  0  0  0  0  0  0  0  0  0
    9.7670   -1.4160   24.4450 C   0  0  0  0  0  0  0  0  0  0  0  0
    6.3940    0.2790   17.9620 N   0  0  0  0  0  0  0  0  0  0  0  0
    4.5810    1.5760   19.1460 C   0  0  0  0  0  0  0  0  0  0  0  0
   11.1560   -1.7620   23.8550 C   0  0  0  0  0  0  0  0  0  0  0  0
    9.2580    2.3150   23.1800 C   0  0  2  0  0  0  0  0  0  0  0  0
   10.3990    1.4170   22.9970 C   0  0  0  0  0  0  0  0  0  0  0  0
   12.5020   -1.7460   24.5080 C   0  0  0  0  0  0  0  0  0  0  0  0
    5.2500    1.1870   17.9810 C   0  0  0  0  0  0  0  0  0  0  0  0
    9.6670    3.6330   23.9010 C   0  0  1  0  0  0  0  0  0  0  0  0
    9.0830    3.3820   22.1510 C   0  0  0  0  0  0  0  0  0  0  0  0
   11.1810    3.5470   23.7300 N   0  0  0  0  0  0  0  0  0  0  0  0
   11.6050    2.3080   23.2460 C   0  0  0  0  0  0  0  0  0  0  0  0
   13.5220   -2.3650   23.5870 C   0  0  0  0  0  0  0  0  0  0  0  0
   13.0090   -3.0440   25.0000 C   0  0  0  0  0  0  0  0  0  0  0  0
   12.6130   -0.4630   25.1270 C   0  0  0  0  0  0  0  0  0  0  0  0
    9.4100    4.9830   23.6820 O   0  0  0  0  0  0  0  0  0  0  0  0
    7.8590    4.2320   22.2720 C   0  0  0  0  0  0  0  0  0  0  0  0
   11.8930    4.6340   23.2720 C   0  0  0  0  0  0  0  0  0  0  0  0
    8.2560    5.2440   23.0680 C   0  0  0  0  0  0  0  0  0  0  0  0
  1  2  1  0
  2  3  2  0
  1  4  1  0
  1  5  1  0
  2  6  1  0
  4  7  1  6
  4  8  1  0
  5  9  2  0
  5 10  1  0
  6 11  1  0
  7 12  1  0
  7 13  2  0
  8 14  2  0
  8 15  1  0
  9 16  1  0
 10 17  2  0
 15 18  2  0
 14 19  1  0
 16 20  2  0
 17 20  1  0
 21 12  1  1
 21 22  1  0
 20 23  1  0
 18 24  1  0
 19 24  2  0
 21 25  1  0
 21 26  1  0
 25 27  1  0
 22 28  1  0
 27 28  1  0
 23 29  1  0
 23 30  1  0
 23 31  1  0
 25 32  1  6
 26 33  1  0
 27 34  1  0
 32 35  1  0
 33 35  1  0
M  END
