x3117-x2705-x0995-x1425
     RDKit          3D

 49 54  0  0  0  0  0  0  0  0999 V2000
    7.0570   -1.5820   21.8000 C   0  0  1  0  0  0  0  0  0  0  0  0
    6.1500   -2.9140   21.3320 C   0  0  0  0  0  0  0  0  0  0  0  0
    4.9540   -3.0710   20.7850 O   0  0  0  0  0  0  0  0  0  0  0  0
    6.6760   -0.1210   21.6430 C   0  0  1  0  0  0  0  0  0  0  0  0
    6.4820   -2.1640   23.0570 C   0  0  0  0  0  0  0  0  0  0  0  0
    8.4820   -1.5840   22.4900 C   0  0  0  0  0  0  0  0  0  0  0  0
    7.7440    1.0350   21.8340 C   0  0  0  0  0  0  0  0  0  0  0  0
    6.1530    0.3080   20.3370 C   0  0  0  0  0  0  0  0  0  0  0  0
    8.7120   -1.6720   23.9730 N   0  0  0  0  0  0  0  0  0  0  0  0
    9.8900   -1.4710   21.9220 C   0  0  0  0  0  0  0  0  0  0  0  0
    6.7910   -4.1510   21.7630 C   0  0  2  0  0  0  0  0  0  0  0  0
    7.1640   -3.6070   23.1260 C   0  0  2  0  0  0  0  0  0  0  0  0
    8.0720   -4.5530   21.0330 C   0  0  0  0  0  0  0  0  0  0  0  0
    7.4650    2.0270   22.8780 N   0  0  0  0  0  0  0  0  0  0  0  0
    8.9340    1.2780   21.0650 O   0  0  0  0  0  0  0  0  0  0  0  0
    4.9300    1.1720   20.2110 C   0  0  0  0  0  0  0  0  0  0  0  0
    6.7870   -0.0500   19.2050 C   0  0  0  0  0  0  0  0  0  0  0  0
   10.0770   -1.6180   24.1560 N   0  0  0  0  0  0  0  0  0  0  0  0
   10.7900   -1.4970   22.9000 C   0  0  0  0  0  0  0  0  0  0  0  0
    6.6050   -4.2430   24.1640 C   0  0  0  0  0  0  0  0  0  0  0  0
    5.7120   -5.2640   21.8790 C   0  0  0  0  0  0  0  0  0  0  0  0
   12.2990   -1.4220   23.0340 C   0  0  0  0  0  0  0  0  0  0  0  0
    6.3020    0.4050   17.8850 N   0  0  0  0  0  0  0  0  0  0  0  0
    4.4010    1.6530   18.9340 C   0  0  0  0  0  0  0  0  0  0  0  0
    8.1490    3.3000   22.9860 C   0  0  0  0  0  0  0  0  0  0  0  0
    5.3520   -4.0840   23.9600 N   0  0  0  0  0  0  0  0  0  0  0  0
    4.7920   -5.1430   23.0980 C   0  0  0  0  0  0  0  0  0  0  0  0
   12.7630   -0.2100   23.8120 C   0  0  0  0  0  0  0  0  0  0  0  0
   12.8010   -2.6540   23.8220 C   0  0  0  0  0  0  0  0  0  0  0  0
   12.8690   -1.6750   21.6820 C   0  0  0  0  0  0  0  0  0  0  0  0
    3.2930    2.4440   18.8110 N   0  0  0  0  0  0  0  0  0  0  0  0
    5.2490    1.1570   17.8110 C   0  0  0  0  0  0  0  0  0  0  0  0
    9.4480    3.3510   23.5240 C   0  0  0  0  0  0  0  0  0  0  0  0
    7.5500    4.4930   22.5620 C   0  0  0  0  0  0  0  0  0  0  0  0
    4.7200   -3.5870   25.0240 C   0  0  0  0  0  0  0  0  0  0  0  0
   10.1390    2.0910   23.9720 C   0  0  0  0  0  0  0  0  0  0  0  0
    6.1390    4.5280   21.9460 C   0  0  0  0  0  0  0  0  0  0  0  0
   12.9360   -2.4680   25.1500 C   0  0  0  0  0  0  0  0  0  0  0  0
   10.1310    4.5830   23.6480 C   0  0  0  0  0  0  0  0  0  0  0  0
    8.2500    5.6880   22.6970 C   0  0  0  0  0  0  0  0  0  0  0  0
    5.2620   -2.6130   25.8960 C   0  0  0  0  0  0  0  0  0  0  0  0
    3.4260   -4.0470   25.3190 C   0  0  0  0  0  0  0  0  0  0  0  0
    9.2270    1.2770   24.9140 C   0  0  0  0  0  0  0  0  0  0  0  0
    9.5280    5.7790   23.2310 C   0  0  0  0  0  0  0  0  0  0  0  0
    4.5430   -2.1460   26.9840 C   0  0  0  0  0  0  0  0  0  0  0  0
    2.6980   -3.5790   26.4150 C   0  0  0  0  0  0  0  0  0  0  0  0
    3.2840   -2.6210   27.2420 C   0  0  0  0  0  0  0  0  0  0  0  0
    2.6030   -2.1440   28.3260 O   0  0  0  0  0  0  0  0  0  0  0  0
    1.1930   -2.3190   28.3340 C   0  0  0  0  0  0  0  0  0  0  0  0
  1  2  1  0
  2  3  2  0
  1  4  1  0
  1  5  1  0
  1  6  1  1
  4  7  1  6
  4  8  1  0
  6  9  2  0
  6 10  1  0
  2 11  1  0
 12  5  1  6
 11 12  1  0
 11 13  1  6
  7 14  1  0
  7 15  2  0
  8 16  2  0
  8 17  1  0
  9 18  1  0
 10 19  2  0
 18 19  1  0
 12 20  1  0
 11 21  1  0
 19 22  1  0
 17 23  2  0
 16 24  1  0
 14 25  1  0
 20 26  1  0
 21 27  1  0
 26 27  1  0
 22 28  1  0
 22 29  1  0
 22 30  1  0
 24 31  1  0
 23 32  1  0
 24 32  2  0
 25 33  2  0
 25 34  1  0
 26 35  1  0
 33 36  1  0
 34 37  1  0
 29 38  1  0
 33 39  1  0
 34 40  2  0
 35 41  2  0
 35 42  1  0
 36 43  1  0
 39 44  2  0
 40 44  1  0
 41 45  1  0
 42 46  2  0
 45 47  2  0
 46 47  1  0
 47 48  1  0
 48 49  1  0
M  END
