x3115-x1402-x1493-x3110-x0946
     RDKit          3D

 60 65  0  0  0  0  0  0  0  0999 V2000
    7.8800    1.4430   23.3870 N   0  0  0  0  0  0  0  0  0  0  0  0
    8.5870    2.7090   23.6200 C   0  0  2  0  0  0  0  0  0  0  0  0
    8.0010    3.8480   22.7360 C   0  0  0  0  0  0  0  0  0  0  0  0
    7.6800    0.8330   22.0720 C   0  0  0  0  0  0  0  0  0  0  0  0
    8.5090    1.1200   21.1880 O   0  0  0  0  0  0  0  0  0  0  0  0
    6.4680   -0.1050   21.7450 C   0  0  2  0  0  0  0  0  0  0  0  0
   10.1030    2.5450   23.3600 C   0  0  0  0  0  0  0  0  0  0  0  0
    6.6720   -1.5740   22.1750 C   0  0  2  0  0  0  0  0  0  0  0  0
    8.1780    4.9830   23.1860 O   0  0  0  0  0  0  0  0  0  0  0  0
    6.0850    0.2750   20.3340 C   0  0  0  0  0  0  0  0  0  0  0  0
   11.0070    3.6360   23.3770 C   0  0  0  0  0  0  0  0  0  0  0  0
   10.6480    1.3090   23.0810 C   0  0  0  0  0  0  0  0  0  0  0  0
   10.6000    5.0200   23.6870 C   0  0  0  0  0  0  0  0  0  0  0  0
    6.0440   -2.7790   21.3450 C   0  0  0  0  0  0  0  0  0  0  0  0
    7.9940    6.0060   22.1880 C   0  0  0  0  0  0  0  0  0  0  0  0
    5.8820   -2.0370   23.4770 C   0  0  0  0  0  0  0  0  0  0  0  0
    4.9920    1.0830   20.1750 C   0  0  0  0  0  0  0  0  0  0  0  0
    6.7670   -0.1090   19.1640 C   0  0  0  0  0  0  0  0  0  0  0  0
    8.2020   -1.6500   22.5990 C   0  0  0  0  0  0  0  0  0  0  0  0
   12.0870    1.1240   22.8020 C   0  0  0  0  0  0  0  0  0  0  0  0
   12.3620    3.4980   23.1000 C   0  0  0  0  0  0  0  0  0  0  0  0
   13.2680    4.7020   23.0980 C   0  0  0  0  0  0  0  0  0  0  0  0
    4.8690   -2.9630   20.7770 O   0  0  0  0  0  0  0  0  0  0  0  0
    6.8920   -3.9590   21.4630 C   0  0  2  0  0  0  0  0  0  0  0  0
    9.9420    5.3640   24.6760 O   0  0  0  0  0  0  0  0  0  0  0  0
   11.0800    5.9100   22.6960 O   0  0  0  0  0  0  0  0  0  0  0  0
    5.3120   -3.3470   23.3080 C   0  0  0  0  0  0  0  0  0  0  0  0
    6.4230    0.2710   17.9000 N   0  0  0  0  0  0  0  0  0  0  0  0
    4.5750    1.5140   18.9350 C   0  0  0  0  0  0  0  0  0  0  0  0
    9.2810   -2.0270   21.7610 C   0  0  0  0  0  0  0  0  0  0  0  0
    8.5980   -1.3210   23.8880 C   0  0  0  0  0  0  0  0  0  0  0  0
   12.8760    2.2330   22.8230 C   0  0  0  0  0  0  0  0  0  0  0  0
   13.2330    5.3450   21.7480 C   0  0  0  0  0  0  0  0  0  0  0  0
    6.8150   -4.7510   20.2080 C   0  0  0  0  0  0  0  0  0  0  0  0
    5.2670    1.1300   17.8110 C   0  0  0  0  0  0  0  0  0  0  0  0
   10.5850   -2.0600   22.2130 C   0  0  0  0  0  0  0  0  0  0  0  0
    9.9060   -1.3550   24.3190 C   0  0  0  0  0  0  0  0  0  0  0  0
    6.2900   -4.5030   22.7450 C   0  0  2  0  0  0  0  0  0  0  0  0
   10.9590   -1.7250   23.5240 C   0  0  0  0  0  0  0  0  0  0  0  0
    7.1920   -4.8700   23.7090 C   0  0  0  0  0  0  0  0  0  0  0  0
    5.5070   -5.7850   22.3820 C   0  0  0  0  0  0  0  0  0  0  0  0
   12.4170   -1.7540   24.0240 C   0  0  0  0  0  0  0  0  0  0  0  0
    6.5890   -4.9230   24.9450 C   0  0  2  0  0  0  0  0  0  0  0  0
    4.8460   -6.3470   23.6160 C   0  0  0  0  0  0  0  0  0  0  0  0
   12.6300   -0.6400   24.8190 C   0  0  0  0  0  0  0  0  0  0  0  0
   13.4330   -1.8690   22.8700 C   0  0  0  0  0  0  0  0  0  0  0  0
   12.7530   -2.9400   24.9360 C   0  0  0  0  0  0  0  0  0  0  0  0
    7.5090   -5.6160   25.8960 C   0  0  0  0  0  0  0  0  0  0  0  0
    5.3140   -5.6680   24.8460 N   0  0  0  0  0  0  0  0  0  0  0  0
    4.2270   -5.4610   26.0810 S   0  0  0  0  0  0  0  0  0  0  0  0
    7.0360   -5.9860   27.1300 C   0  0  0  0  0  0  0  0  0  0  0  0
    8.6540   -5.8610   25.6130 O   0  0  0  0  0  0  0  0  0  0  0  0
    3.1250   -6.3750   25.9110 O   0  0  0  0  0  0  0  0  0  0  0  0
    4.8530   -5.5670   27.3710 O   0  0  0  0  0  0  0  0  0  0  0  0
    3.5550   -3.8560   26.1250 C   0  0  0  0  0  0  0  0  0  0  0  0
    1.7630   -3.5960   26.1210 S   0  0  0  0  0  0  0  0  0  0  0  0
    4.2500   -2.6570   26.1750 C   0  0  0  0  0  0  0  0  0  0  0  0
    3.3970   -1.5720   26.2180 C   0  0  0  0  0  0  0  0  0  0  0  0
    2.0370   -1.9280   26.2050 C   0  0  0  0  0  0  0  0  0  0  0  0
    0.6840   -0.8920   26.2730 Cl  0  0  0  0  0  0  0  0  0  0  0  0
  1  2  1  0
  2  3  1  6
  1  4  1  0
  4  5  2  0
  6  4  1  6
  2  7  1  0
  6  8  1  0
  3  9  1  0
  6 10  1  0
  7 11  2  0
  7 12  1  0
 11 13  1  0
  8 14  1  0
  9 15  1  0
  8 16  1  0
 10 17  2  0
 10 18  1  0
  8 19  1  1
 12 20  2  0
 11 21  1  0
 21 22  1  0
 14 23  2  0
 14 24  1  0
 13 25  2  0
 13 26  1  0
 16 27  1  0
 18 28  2  0
 17 29  1  0
 19 30  2  0
 19 31  1  0
 20 32  1  0
 21 32  2  0
 22 33  1  0
 24 34  1  6
 28 35  1  0
 29 35  2  0
 30 36  1  0
 31 37  2  0
 24 38  1  0
 38 27  1  1
 36 39  2  0
 37 39  1  0
 38 40  1  0
 38 41  1  0
 39 42  1  0
 40 43  1  0
 41 44  1  0
 42 45  1  0
 42 46  1  0
 42 47  1  0
 43 48  1  1
 43 49  1  0
 44 49  1  0
 49 50  1  0
 48 51  1  0
 48 52  2  0
 50 53  2  0
 50 54  2  0
 50 55  1  0
 55 56  1  0
 55 57  2  0
 57 58  1  0
 56 59  1  0
 58 59  2  0
 59 60  1  0
M  END
