x3110-x3115
     RDKit          3D

 35 36  0  0  0  0  0  0  0  0999 V2000
    7.8940    1.5070   23.0560 N   0  0  0  0  0  0  0  0  0  0  0  0
    8.7920    2.6450   22.9860 C   0  0  2  0  0  0  0  0  0  0  0  0
   10.1320    2.4810   23.7600 C   0  0  0  0  0  0  0  0  0  0  0  0
    7.6700    0.7940   21.8250 C   0  0  0  0  0  0  0  0  0  0  0  0
    8.3850    1.1360   20.8650 O   0  0  0  0  0  0  0  0  0  0  0  0
    6.5760   -0.3010   21.5980 C   0  0  2  0  0  0  0  0  0  0  0  0
    8.0670    3.9830   23.2980 C   0  0  0  0  0  0  0  0  0  0  0  0
    6.8920   -1.6480   21.7540 N   0  0  0  0  0  0  0  0  0  0  0  0
   11.1790    3.5650   23.5360 C   0  0  0  0  0  0  0  0  0  0  0  0
    8.8110    4.9450   23.0990 O   0  0  0  0  0  0  0  0  0  0  0  0
    6.1180    0.1930   20.2400 C   0  0  0  0  0  0  0  0  0  0  0  0
   11.8760    3.3420   22.5610 O   0  0  0  0  0  0  0  0  0  0  0  0
   11.2930    4.5550   24.2450 O   0  0  0  0  0  0  0  0  0  0  0  0
    6.0700   -2.8240   21.3080 C   0  0  0  0  0  0  0  0  0  0  0  0
    8.2010    5.9900   22.3350 C   0  0  0  0  0  0  0  0  0  0  0  0
    5.0140    1.0280   20.1680 C   0  0  0  0  0  0  0  0  0  0  0  0
    6.7850   -0.1390   19.0580 C   0  0  0  0  0  0  0  0  0  0  0  0
    8.1940   -1.6920   22.3730 C   0  0  0  0  0  0  0  0  0  0  0  0
   12.3600    4.5270   21.9210 C   0  0  0  0  0  0  0  0  0  0  0  0
    4.7780   -3.0180   21.3560 O   0  0  0  0  0  0  0  0  0  0  0  0
    6.7490   -4.0220   20.6850 C   0  0  0  0  0  0  0  0  0  0  0  0
    6.3590    0.3820   17.7420 N   0  0  0  0  0  0  0  0  0  0  0  0
    4.5470    1.5570   18.9890 C   0  0  0  0  0  0  0  0  0  0  0  0
    9.3470   -1.4610   21.5990 C   0  0  0  0  0  0  0  0  0  0  0  0
    8.4180   -1.9290   23.7120 C   0  0  0  0  0  0  0  0  0  0  0  0
   13.4350    5.2200   22.7440 C   0  0  0  0  0  0  0  0  0  0  0  0
    8.2060   -3.6950   20.3750 C   0  0  0  0  0  0  0  0  0  0  0  0
    5.1620    1.2810   17.8030 C   0  0  0  0  0  0  0  0  0  0  0  0
   10.7310   -1.4690   22.0730 C   0  0  0  0  0  0  0  0  0  0  0  0
    9.7070   -1.9300   24.2160 C   0  0  0  0  0  0  0  0  0  0  0  0
   10.8970   -1.7000   23.3750 C   0  0  0  0  0  0  0  0  0  0  0  0
   12.3330   -1.7130   23.9930 C   0  0  0  0  0  0  0  0  0  0  0  0
   12.4630   -0.5810   24.7870 C   0  0  0  0  0  0  0  0  0  0  0  0
   13.3520   -1.7700   22.8280 C   0  0  0  0  0  0  0  0  0  0  0  0
   12.6560   -2.9040   24.9140 C   0  0  0  0  0  0  0  0  0  0  0  0
  1  2  1  0
  2  3  1  1
  1  4  1  0
  4  5  2  0
  6  4  1  6
  2  7  1  0
  6  8  1  0
  3  9  1  0
  7 10  1  0
  6 11  1  0
  9 12  1  0
  9 13  2  0
  8 14  1  0
 10 15  1  0
 11 16  2  0
 11 17  1  0
  8 18  1  0
 12 19  1  0
 14 20  2  0
 14 21  1  0
 17 22  2  0
 16 23  1  0
 18 24  2  0
 18 25  1  0
 19 26  1  0
 21 27  1  0
 22 28  1  0
 23 28  2  0
 24 29  1  0
 25 30  2  0
 29 31  2  0
 30 31  1  0
 31 32  1  0
 32 33  1  0
 32 34  1  0
 32 35  1  0
M  END
