x3113-x0978
     RDKit          3D

 41 42  0  0  0  0  0  0  0  0999 V2000
    6.9670   -1.9020   21.9880 N   0  0  0  0  0  0  0  0  0  0  0  0
    6.0280   -3.0570   21.6100 C   0  0  0  0  0  0  0  0  0  0  0  0
    4.7730   -2.9930   21.3110 O   0  0  0  0  0  0  0  0  0  0  0  0
    6.7210   -0.4060   21.7420 C   0  0  1  0  0  0  0  0  0  0  0  0
    8.3400   -1.9400   22.5680 C   0  0  0  0  0  0  0  0  0  0  0  0
    6.4340   -4.5440   21.4860 C   0  0  1  0  0  0  0  0  0  0  0  0
    7.8730    0.4550   21.9890 C   0  0  0  0  0  0  0  0  0  0  0  0
    6.2370    0.0520   20.3910 C   0  0  0  0  0  0  0  0  0  0  0  0
    9.5330   -2.2520   21.7520 C   0  0  0  0  0  0  0  0  0  0  0  0
    8.5950   -1.6360   23.9110 C   0  0  0  0  0  0  0  0  0  0  0  0
    7.9120   -4.7200   21.0390 C   0  0  0  0  0  0  0  0  0  0  0  0
    7.9820    1.1550   23.1670 N   0  0  0  0  0  0  0  0  0  0  0  0
    8.7420    0.6070   21.1520 O   0  0  0  0  0  0  0  0  0  0  0  0
    5.7980   -5.4660   22.4270 N   0  0  0  0  0  0  0  0  0  0  0  0
    5.0860    0.8600   20.3000 C   0  0  0  0  0  0  0  0  0  0  0  0
    6.9050   -0.2660   19.1570 C   0  0  0  0  0  0  0  0  0  0  0  0
   10.7840   -2.2280   22.2770 C   0  0  0  0  0  0  0  0  0  0  0  0
    9.9200   -1.6180   24.4150 C   0  0  0  0  0  0  0  0  0  0  0  0
    9.0130    2.0710   23.2630 C   0  0  0  0  0  0  0  0  0  0  0  0
    4.5990   -5.1570   23.0450 C   0  0  0  0  0  0  0  0  0  0  0  0
    6.3780    0.2640   17.8770 N   0  0  0  0  0  0  0  0  0  0  0  0
    4.6060    1.3430   19.0830 C   0  0  0  0  0  0  0  0  0  0  0  0
   11.0360   -1.9110   23.6010 C   0  0  0  0  0  0  0  0  0  0  0  0
   10.3380    1.6430   23.1520 C   0  0  0  0  0  0  0  0  0  0  0  0
   12.4700   -1.8580   24.1600 C   0  0  0  0  0  0  0  0  0  0  0  0
    3.4950   -6.2530   23.1750 C   0  0  2  0  0  0  0  0  0  0  0  0
    4.4020   -4.0350   23.4930 O   0  0  0  0  0  0  0  0  0  0  0  0
    5.2660    1.0350   17.9200 C   0  0  0  0  0  0  0  0  0  0  0  0
   11.3030    2.6250   23.4670 C   0  0  0  0  0  0  0  0  0  0  0  0
   13.4070   -1.9100   23.1600 C   0  0  0  0  0  0  0  0  0  0  0  0
   12.8110   -3.0400   25.0640 C   0  0  0  0  0  0  0  0  0  0  0  0
   12.5940   -0.6700   24.9300 C   0  0  0  0  0  0  0  0  0  0  0  0
    2.1830   -5.5680   23.0970 N   0  0  0  0  0  0  0  0  0  0  0  0
    3.5640   -7.0610   24.3220 C   0  0  1  0  0  0  0  0  0  0  0  0
   11.4870    3.5990   22.5130 O   0  0  0  0  0  0  0  0  0  0  0  0
    2.3910   -7.7240   24.6870 C   0  0  0  0  0  0  0  0  0  0  0  0
    4.6450   -7.8450   24.1740 O   0  0  0  0  0  0  0  0  0  0  0  0
    0.9600   -6.2410   22.5700 C   0  0  0  0  0  0  0  0  0  0  0  0
   12.7220    4.3150   22.6380 C   0  0  0  0  0  0  0  0  0  0  0  0
    0.9460   -7.3210   21.9930 O   0  0  0  0  0  0  0  0  0  0  0  0
   -0.1940   -5.4900   22.8060 C   0  0  0  0  0  0  0  0  0  0  0  0
  1  2  1  0
  2  3  2  0
  1  4  1  0
  1  5  1  0
  2  6  1  0
  4  7  1  6
  4  8  1  0
  5  9  2  0
  5 10  1  0
  6 11  1  1
  7 12  1  0
  7 13  2  0
  6 14  1  0
  8 15  2  0
  8 16  1  0
  9 17  1  0
 10 18  2  0
 12 19  1  0
 14 20  1  0
 16 21  2  0
 15 22  1  0
 17 23  2  0
 18 23  1  0
 19 24  1  0
 23 25  1  0
 20 26  1  0
 20 27  2  0
 21 28  1  0
 22 28  2  0
 24 29  1  0
 25 30  1  0
 25 31  1  0
 25 32  1  0
 26 33  1  1
 26 34  1  0
 29 35  1  0
 34 36  1  6
 34 37  1  0
 33 38  1  0
 35 39  1  0
 38 40  2  0
 38 41  1  0
M  END
