x3117-x0769-x0426-x3110-x2776
     RDKit          3D

 68 74  0  0  0  0  0  0  0  0999 V2000
    8.0570    1.6040   23.1380 N   0  0  0  0  0  0  0  0  0  0  0  0
    7.7540    0.9720   21.8170 C   0  0  0  0  0  0  0  0  0  0  0  0
    8.4560    1.2850   20.8500 O   0  0  0  0  0  0  0  0  0  0  0  0
    8.5910    2.9510   23.3180 C   0  0  0  0  0  0  0  0  0  0  0  0
    6.6180    0.0690   21.7140 C   0  0  2  0  0  0  0  0  0  0  0  0
    9.9860    3.2640   23.5230 C   0  0  0  0  0  0  0  0  0  0  0  0
    7.6910    4.2050   23.3240 C   0  0  0  0  0  0  0  0  0  0  0  0
    6.7960   -1.4490   22.0930 C   0  0  2  0  0  0  0  0  0  0  0  0
   11.1040    2.2790   23.5240 C   0  0  2  0  0  0  0  0  0  0  0  0
    5.9810    0.4310   20.4110 C   0  0  0  0  0  0  0  0  0  0  0  0
   10.5530    4.6830   23.7750 C   0  0  0  0  0  0  0  0  0  0  0  0
    8.1640    5.6390   23.5450 C   0  0  0  0  0  0  0  0  0  0  0  0
   12.2770    2.8770   23.0810 O   0  0  0  0  0  0  0  0  0  0  0  0
   10.6550    1.1370   22.9170 C   0  0  0  0  0  0  0  0  0  0  0  0
    6.0850   -2.6860   21.3340 C   0  0  0  0  0  0  0  0  0  0  0  0
    6.0010   -1.8560   23.3360 C   0  0  0  0  0  0  0  0  0  0  0  0
    4.7080    0.9950   20.2690 C   0  0  0  0  0  0  0  0  0  0  0  0
    6.8900    0.1360   19.2080 C   0  0  0  0  0  0  0  0  0  0  0  0
    8.3290   -1.5510   22.5500 C   0  0  0  0  0  0  0  0  0  0  0  0
    9.6090    5.8590   23.7830 C   0  0  0  0  0  0  0  0  0  0  0  0
   12.3220    3.9760   22.1290 C   0  0  0  0  0  0  0  0  0  0  0  0
    4.8560   -2.9430   20.8520 O   0  0  0  0  0  0  0  0  0  0  0  0
    7.0080   -3.7830   21.3510 C   0  0  2  0  0  0  0  0  0  0  0  0
   10.2510    7.0490   24.0250 O   0  0  0  0  0  0  0  0  0  0  0  0
    3.8730    1.2170   21.3770 C   0  0  0  0  0  0  0  0  0  0  0  0
    5.5150   -3.2160   23.2620 C   0  0  0  0  0  0  0  0  0  0  0  0
    6.4180    0.4960   17.8510 N   0  0  0  0  0  0  0  0  0  0  0  0
    4.3390    1.3100   18.9470 C   0  0  0  0  0  0  0  0  0  0  0  0
    9.4030   -1.8950   21.7380 C   0  0  0  0  0  0  0  0  0  0  0  0
    8.7540   -1.2470   23.9990 C   0  0  0  0  0  0  0  0  0  0  0  0
   13.3300    5.1400   22.3280 C   0  0  0  0  0  0  0  0  0  0  0  0
    6.8920   -4.4460   20.0290 C   0  0  0  0  0  0  0  0  0  0  0  0
   11.4410    6.9440   24.8200 C   0  0  0  0  0  0  0  0  0  0  0  0
    4.2880    2.2720   22.2170 C   0  0  0  0  0  0  0  0  0  0  0  0
    5.1130    1.0980   17.8230 C   0  0  0  0  0  0  0  0  0  0  0  0
   10.7490   -1.9580   22.1760 C   0  0  0  0  0  0  0  0  0  0  0  0
   10.0920   -1.3210   24.3810 C   0  0  0  0  0  0  0  0  0  0  0  0
    6.4500   -4.3700   22.6460 C   0  0  0  0  0  0  0  0  0  0  0  0
    3.2160    2.7840   23.0270 N   0  0  0  0  0  0  0  0  0  0  0  0
   11.1120   -1.6700   23.5040 C   0  0  0  0  0  0  0  0  0  0  0  0
    5.6910   -5.5220   22.3750 C   0  0  0  0  0  0  0  0  0  0  0  0
    7.5640   -4.7700   23.6050 C   0  0  0  0  0  0  0  0  0  0  0  0
   12.4190   -1.7170   23.9200 C   0  0  0  0  0  0  0  0  0  0  0  0
    2.2850    1.9670   23.6920 C   0  0  0  0  0  0  0  0  0  0  0  0
    5.0800   -6.0290   23.5080 C   0  0  0  0  0  0  0  0  0  0  0  0
    7.0480   -5.0170   24.8500 C   0  0  0  0  0  0  0  0  0  0  0  0
   12.5760   -0.5600   24.6900 C   0  0  0  0  0  0  0  0  0  0  0  0
   13.3170   -1.9490   22.8760 C   0  0  0  0  0  0  0  0  0  0  0  0
   12.6900   -2.9060   24.8520 C   0  0  0  0  0  0  0  0  0  0  0  0
    2.2930    0.5390   23.6420 O   0  0  0  0  0  0  0  0  0  0  0  0
    1.2350    2.6640   24.4880 C   0  0  0  0  0  0  0  0  0  0  0  0
    5.5950   -5.3350   24.7290 N   0  0  0  0  0  0  0  0  0  0  0  0
    4.7620   -5.4370   26.1940 S   0  0  0  0  0  0  0  0  0  0  0  0
    1.4930    3.8370   25.2240 C   0  0  0  0  0  0  0  0  0  0  0  0
   -0.0640    2.1390   24.5100 C   0  0  0  0  0  0  0  0  0  0  0  0
    2.7270    4.3720   25.2310 F   0  0  0  0  0  0  0  0  0  0  0  0
    5.6920   -5.4640   27.2900 O   0  0  0  0  0  0  0  0  0  0  0  0
    3.9530   -6.6400   26.1820 O   0  0  0  0  0  0  0  0  0  0  0  0
   -1.0660    2.7500   25.2270 C   0  0  0  0  0  0  0  0  0  0  0  0
    0.4960    4.5110   25.9830 C   0  0  0  0  0  0  0  0  0  0  0  0
    3.6470   -4.0400   26.3620 C   0  0  0  0  0  0  0  0  0  0  0  0
   -0.8040    3.8880   25.9350 C   0  0  0  0  0  0  0  0  0  0  0  0
    4.2310   -2.7620   26.4290 C   0  0  0  0  0  0  0  0  0  0  0  0
    2.2430   -4.0780   26.4440 C   0  0  0  0  0  0  0  0  0  0  0  0
    5.5540   -2.6020   26.3610 F   0  0  0  0  0  0  0  0  0  0  0  0
    1.4870   -2.9220   26.5840 C   0  0  0  0  0  0  0  0  0  0  0  0
    3.4580   -1.5910   26.5720 C   0  0  0  0  0  0  0  0  0  0  0  0
    2.0640   -1.6650   26.6520 C   0  0  0  0  0  0  0  0  0  0  0  0
  1  2  1  0
  2  3  2  0
  1  4  1  0
  5  2  1  6
  4  6  2  0
  4  7  1  0
  5  8  1  0
  6  9  1  0
  5 10  1  0
  6 11  1  0
  7 12  2  0
  9 13  1  0
  9 14  1  6
  8 15  1  0
  8 16  1  0
 10 17  1  0
 10 18  2  0
  8 19  1  1
 11 20  2  0
 12 20  1  0
 13 21  1  0
 15 22  2  0
 15 23  1  0
 20 24  1  0
 17 25  1  0
 16 26  1  0
 18 27  1  0
 17 28  2  0
 19 29  2  0
 19 30  1  0
 21 31  1  0
 23 32  1  6
 24 33  1  0
 25 34  1  0
 27 35  2  0
 28 35  1  0
 29 36  1  0
 30 37  2  0
 23 38  1  0
 38 26  1  0
 34 39  1  0
 36 40  2  0
 37 40  1  0
 38 41  1  0
 38 42  1  0
 40 43  1  0
 39 44  1  0
 41 45  1  0
 42 46  1  0
 43 47  1  0
 43 48  1  0
 43 49  1  0
 44 50  2  0
 44 51  1  0
 45 52  1  0
 46 52  1  0
 52 53  1  0
 51 54  2  0
 51 55  1  0
 54 56  1  0
 53 57  2  0
 53 58  2  0
 55 59  2  0
 54 60  1  0
 53 61  1  0
 59 62  1  0
 60 62  2  0
 61 63  2  0
 61 64  1  0
 63 65  1  0
 64 66  2  0
 63 67  1  0
 66 68  1  0
 67 68  2  0
M  END
