x3110-x3113-x2754
     RDKit          3D

 47 50  0  0  0  0  0  0  0  0999 V2000
    7.8140    1.2300   23.1280 N   0  0  0  0  0  0  0  0  0  0  0  0
    8.6740    2.3980   23.4640 C   0  0  0  0  0  0  0  0  0  0  0  0
   10.1760    2.0730   23.4910 C   0  0  0  0  0  0  0  0  0  0  0  0
    7.6990    0.7800   21.8550 C   0  0  0  0  0  0  0  0  0  0  0  0
    8.4780    1.2390   20.9940 O   0  0  0  0  0  0  0  0  0  0  0  0
    6.6300   -0.1690   21.5760 C   0  0  2  0  0  0  0  0  0  0  0  0
    6.9830   -1.6210   21.6490 N   0  0  0  0  0  0  0  0  0  0  0  0
   11.0490    3.3350   23.3730 C   0  0  0  0  0  0  0  0  0  0  0  0
    6.0950    0.3060   20.2610 C   0  0  0  0  0  0  0  0  0  0  0  0
   11.9130    3.2150   22.5110 O   0  0  0  0  0  0  0  0  0  0  0  0
   10.8710    4.5060   24.1560 O   0  0  0  0  0  0  0  0  0  0  0  0
    6.1850   -2.9070   21.2710 C   0  0  0  0  0  0  0  0  0  0  0  0
    4.8530    1.1510   20.1780 C   0  0  0  0  0  0  0  0  0  0  0  0
    6.7920   -0.0280   19.1250 C   0  0  0  0  0  0  0  0  0  0  0  0
    8.2610   -1.6310   22.3520 C   0  0  0  0  0  0  0  0  0  0  0  0
   12.3470    4.4680   21.9520 C   0  0  0  0  0  0  0  0  0  0  0  0
    4.9230   -3.0290   20.8890 O   0  0  0  0  0  0  0  0  0  0  0  0
    6.3230    0.4620   17.8240 N   0  0  0  0  0  0  0  0  0  0  0  0
    4.3790    1.6490   18.8100 C   0  0  0  0  0  0  0  0  0  0  0  0
    9.3920   -2.0230   21.6870 C   0  0  0  0  0  0  0  0  0  0  0  0
    8.4790   -1.2510   23.6920 C   0  0  0  0  0  0  0  0  0  0  0  0
    6.8400   -4.2780   21.4330 C   0  0  1  0  0  0  0  0  0  0  0  0
   13.3810    5.1470   22.8550 C   0  0  0  0  0  0  0  0  0  0  0  0
    7.1600   -3.5800   20.0380 C   0  0  0  0  0  0  0  0  0  0  0  0
    5.2100    1.2300   17.7710 C   0  0  0  0  0  0  0  0  0  0  0  0
   10.7940   -2.0570   22.2630 C   0  0  0  0  0  0  0  0  0  0  0  0
    9.7570   -1.2600   24.2710 C   0  0  0  0  0  0  0  0  0  0  0  0
    7.6070   -4.0780   22.7920 C   0  0  0  0  0  0  0  0  0  0  0  0
    5.7580   -5.3100   21.6740 C   0  0  0  0  0  0  0  0  0  0  0  0
   11.0250   -1.6690   23.5640 C   0  0  0  0  0  0  0  0  0  0  0  0
    6.7350   -3.5520   23.7930 C   0  0  0  0  0  0  0  0  0  0  0  0
    4.9760   -4.9760   22.9450 C   0  0  0  0  0  0  0  0  0  0  0  0
   12.4210   -1.6400   24.1820 C   0  0  0  0  0  0  0  0  0  0  0  0
    5.3640   -3.7600   23.5320 C   0  0  1  0  0  0  0  0  0  0  0  0
   12.4670   -0.6010   25.0730 C   0  0  0  0  0  0  0  0  0  0  0  0
   13.3620   -1.3510   23.0720 C   0  0  0  0  0  0  0  0  0  0  0  0
   12.8360   -2.9330   24.8720 C   0  0  0  0  0  0  0  0  0  0  0  0
    4.4900   -3.3430   24.7370 C   0  0  0  0  0  0  0  0  0  0  0  0
    3.1550   -3.6280   24.7360 O   0  0  0  0  0  0  0  0  0  0  0  0
    5.0390   -2.6990   25.7800 N   0  0  0  0  0  0  0  0  0  0  0  0
    4.1330   -1.7260   26.4460 C   0  0  0  0  0  0  0  0  0  0  0  0
    5.8700   -3.3990   26.7080 C   0  0  0  0  0  0  0  0  0  0  0  0
    6.0210   -4.7900   26.6610 C   0  0  0  0  0  0  0  0  0  0  0  0
    6.5290   -2.5090   27.7060 C   0  0  0  0  0  0  0  0  0  0  0  0
    6.8990   -5.5010   27.6700 C   0  0  0  0  0  0  0  0  0  0  0  0
    7.3110   -3.0700   28.6270 C   0  0  0  0  0  0  0  0  0  0  0  0
    7.5690   -4.5840   28.6930 C   0  0  0  0  0  0  0  0  0  0  0  0
  1  2  1  0
  2  3  1  0
  1  4  1  0
  4  5  2  0
  6  4  1  6
  6  7  1  0
  3  8  1  0
  6  9  1  0
  8 10  1  0
  8 11  2  0
  7 12  1  0
  9 13  2  0
  9 14  1  0
  7 15  1  0
 10 16  1  0
 12 17  2  0
 14 18  2  0
 13 19  1  0
 15 20  2  0
 15 21  1  0
 22 12  1  0
 16 23  1  0
 22 24  1  6
 18 25  1  0
 19 25  2  0
 20 26  1  0
 21 27  2  0
 22 28  1  0
 22 29  1  0
 26 30  2  0
 27 30  1  0
 28 31  1  0
 29 32  1  0
 30 33  1  0
 31 34  1  0
 32 34  1  0
 33 35  1  0
 33 36  1  0
 33 37  1  0
 34 38  1  1
 38 39  2  0
 38 40  1  0
 40 41  1  0
 40 42  1  0
 42 43  2  0
 42 44  1  0
 43 45  1  0
 44 46  2  0
 45 47  2  0
 46 47  1  0
M  END
