x3113-x0967
     RDKit          3D

 33 34  0  0  0  0  0  0  0  0999 V2000
    7.0790   -1.8050   21.8010 N   0  0  0  0  0  0  0  0  0  0  0  0
    6.2010   -2.9940   21.5220 C   0  0  0  0  0  0  0  0  0  0  0  0
    4.9190   -3.1050   21.1680 O   0  0  0  0  0  0  0  0  0  0  0  0
    6.7420   -0.3220   21.6760 C   0  0  1  0  0  0  0  0  0  0  0  0
    8.4050   -1.9110   22.5120 C   0  0  0  0  0  0  0  0  0  0  0  0
    6.8890   -4.3420   21.6900 C   0  0  0  0  0  0  0  0  0  0  0  0
    7.8500    0.5740   21.9400 C   0  0  0  0  0  0  0  0  0  0  0  0
    6.2150    0.1580   20.3710 C   0  0  0  0  0  0  0  0  0  0  0  0
    9.6900   -1.4260   21.7970 C   0  0  0  0  0  0  0  0  0  0  0  0
    8.6110   -2.3990   23.7930 C   0  0  0  0  0  0  0  0  0  0  0  0
    8.2620   -4.4810   20.9820 C   0  0  0  0  0  0  0  0  0  0  0  0
    8.0350    1.0430   23.2210 N   0  0  0  0  0  0  0  0  0  0  0  0
    8.5910    0.9420   21.0420 O   0  0  0  0  0  0  0  0  0  0  0  0
    5.1330    0.9220   20.3190 C   0  0  0  0  0  0  0  0  0  0  0  0
    6.9130   -0.2070   19.2120 C   0  0  0  0  0  0  0  0  0  0  0  0
   10.8230   -1.5100   22.4390 C   0  0  0  0  0  0  0  0  0  0  0  0
    9.8810   -2.4380   24.3800 C   0  0  0  0  0  0  0  0  0  0  0  0
    8.8360    2.1440   23.4250 C   0  0  1  0  0  0  0  0  0  0  0  0
    6.4150    0.2970   17.9190 N   0  0  0  0  0  0  0  0  0  0  0  0
    4.6520    1.4040   19.1010 C   0  0  0  0  0  0  0  0  0  0  0  0
   11.0090   -1.9860   23.7030 C   0  0  0  0  0  0  0  0  0  0  0  0
    9.9910    2.3360   22.6460 C   0  0  0  0  0  0  0  0  0  0  0  0
   12.4510   -1.9690   24.2860 C   0  0  0  0  0  0  0  0  0  0  0  0
    7.7840    3.2730   23.1990 C   0  0  0  0  0  0  0  0  0  0  0  0
    5.2190    1.1540   17.8650 C   0  0  0  0  0  0  0  0  0  0  0  0
   11.1260    2.7490   23.3740 C   0  0  0  0  0  0  0  0  0  0  0  0
   13.3420   -2.1130   23.2450 C   0  0  0  0  0  0  0  0  0  0  0  0
   12.8460   -3.0560   25.3100 C   0  0  0  0  0  0  0  0  0  0  0  0
   12.6000   -0.7050   24.9200 C   0  0  0  0  0  0  0  0  0  0  0  0
    8.1240    4.3820   22.4250 C   0  0  0  0  0  0  0  0  0  0  0  0
    6.5380    3.1800   23.7560 O   0  0  0  0  0  0  0  0  0  0  0  0
   11.4560    4.0740   23.1520 O   0  0  0  0  0  0  0  0  0  0  0  0
   12.8220    4.3300   22.8060 C   0  0  0  0  0  0  0  0  0  0  0  0
  1  2  1  0
  2  3  2  0
  1  4  1  0
  1  5  1  0
  2  6  1  0
  4  7  1  6
  4  8  1  0
  5  9  2  0
  5 10  1  0
  6 11  1  0
  7 12  1  0
  7 13  2  0
  8 14  2  0
  8 15  1  0
  9 16  1  0
 10 17  2  0
 12 18  1  0
 15 19  2  0
 14 20  1  0
 16 21  2  0
 17 21  1  0
 18 22  1  6
 21 23  1  0
 18 24  1  0
 19 25  1  0
 20 25  2  0
 22 26  1  0
 23 27  1  0
 23 28  1  0
 23 29  1  0
 24 30  1  0
 24 31  2  0
 26 32  1  0
 32 33  1  0
M  END
