x3117-x0995
     RDKit          3D

 32 34  0  0  0  0  0  0  0  0999 V2000
    6.8590   -1.5710   22.0150 N   0  0  0  0  0  0  0  0  0  0  0  0
    6.0690   -2.8000   21.6800 C   0  0  0  0  0  0  0  0  0  0  0  0
    4.8000   -3.0250   21.3340 O   0  0  0  0  0  0  0  0  0  0  0  0
    6.5970   -0.1890   21.7720 C   0  0  1  0  0  0  0  0  0  0  0  0
    8.2320   -1.6720   22.6630 C   0  0  0  0  0  0  0  0  0  0  0  0
    6.8280   -4.1160   21.7290 C   0  0  0  0  0  0  0  0  0  0  0  0
    7.8880    0.6970   21.9520 C   0  0  0  0  0  0  0  0  0  0  0  0
    6.0740    0.2370   20.4300 C   0  0  0  0  0  0  0  0  0  0  0  0
    9.4070   -1.9210   21.7670 C   0  0  0  0  0  0  0  0  0  0  0  0
    8.3850   -1.5060   24.0990 C   0  0  0  0  0  0  0  0  0  0  0  0
    6.6950   -4.8160   20.3740 C   0  0  0  0  0  0  0  0  0  0  0  0
    7.6500    1.8800   22.8470 N   0  0  0  0  0  0  0  0  0  0  0  0
    8.9840    0.5120   21.4150 O   0  0  0  0  0  0  0  0  0  0  0  0
    4.9590    0.9420   20.3400 C   0  0  0  0  0  0  0  0  0  0  0  0
    6.7010   -0.0360   19.2240 C   0  0  0  0  0  0  0  0  0  0  0  0
   10.9060   -2.0410   22.0830 C   0  0  0  0  0  0  0  0  0  0  0  0
    9.6500   -1.5930   24.4650 C   0  0  0  0  0  0  0  0  0  0  0  0
    6.3450    0.3190   18.0080 N   0  0  0  0  0  0  0  0  0  0  0  0
    4.5310    1.3440   19.1150 C   0  0  0  0  0  0  0  0  0  0  0  0
    8.5280    3.0970   22.7430 C   0  0  0  0  0  0  0  0  0  0  0  0
   10.8180   -1.8400   23.5100 C   0  0  0  0  0  0  0  0  0  0  0  0
   12.1680   -1.8770   24.2650 C   0  0  0  0  0  0  0  0  0  0  0  0
    3.3710    2.0770   19.0570 N   0  0  0  0  0  0  0  0  0  0  0  0
    5.2210    1.0610   17.7890 C   0  0  0  0  0  0  0  0  0  0  0  0
    9.6670    2.8440   23.5020 C   0  0  0  0  0  0  0  0  0  0  0  0
    7.7750    4.2310   23.1010 C   0  0  0  0  0  0  0  0  0  0  0  0
   12.3430   -0.6090   25.0780 C   0  0  0  0  0  0  0  0  0  0  0  0
   13.2730   -2.2280   23.3200 C   0  0  0  0  0  0  0  0  0  0  0  0
   12.0170   -3.1170   25.2060 C   0  0  0  0  0  0  0  0  0  0  0  0
   10.5520    4.0540   23.6400 C   0  0  0  0  0  0  0  0  0  0  0  0
    8.7220    5.4450   23.2580 C   0  0  0  0  0  0  0  0  0  0  0  0
    9.7750    5.1100   24.1780 O   0  0  0  0  0  0  0  0  0  0  0  0
  1  2  1  0
  2  3  2  0
  1  4  1  0
  1  5  1  0
  2  6  1  0
  4  7  1  6
  4  8  1  0
  5  9  2  0
  5 10  1  0
  6 11  1  0
  7 12  1  0
  7 13  2  0
  8 14  2  0
  8 15  1  0
  9 16  1  0
 10 17  2  0
 15 18  2  0
 14 19  1  0
 12 20  1  0
 16 21  2  0
 17 21  1  0
 21 22  1  0
 19 23  1  0
 18 24  1  0
 19 24  2  0
 20 25  1  0
 20 26  1  0
 22 27  1  0
 22 28  1  0
 22 29  1  0
 25 30  1  0
 26 31  1  0
 30 32  1  0
 31 32  1  0
M  END
