x3115-x0769-x1119-x0540-x3110-x0691-x0734-x0978-x1308-x0946
     RDKit          3D

102110  0  0  0  0  0  0  0  0999 V2000
    8.0960    1.2790   23.3880 N   0  0  0  0  0  0  0  0  0  0  0  0
    8.8240    2.5860   23.5890 C   0  0  2  0  0  0  0  0  0  0  0  0
    8.1640    3.6270   22.6800 C   0  0  0  0  0  0  0  0  0  0  0  0
    7.8470    0.8800   21.9640 C   0  0  0  0  0  0  0  0  0  0  0  0
    8.5210    1.4080   20.8880 O   0  0  0  0  0  0  0  0  0  0  0  0
    6.7010   -0.1740   21.5670 C   0  0  2  0  0  0  0  0  0  0  0  0
   10.3540    2.5200   23.3310 C   0  0  0  0  0  0  0  0  0  0  0  0
    7.0490   -1.6240   21.7000 N   0  0  0  0  0  0  0  0  0  0  0  0
    8.3470    4.9010   23.1970 O   0  0  0  0  0  0  0  0  0  0  0  0
    6.1870    0.2650   20.1940 C   0  0  0  0  0  0  0  0  0  0  0  0
   11.2600    3.6310   23.2760 C   0  0  0  0  0  0  0  0  0  0  0  0
   10.8370    1.2460   23.1230 C   0  0  0  0  0  0  0  0  0  0  0  0
   10.7660    4.9890   23.5580 C   0  0  0  0  0  0  0  0  0  0  0  0
    6.1930   -2.8210   21.4120 C   0  0  0  0  0  0  0  0  0  0  0  0
    8.1140    5.9960   22.2850 C   0  0  0  0  0  0  0  0  0  0  0  0
    5.0090    0.8750   20.1300 C   0  0  0  0  0  0  0  0  0  0  0  0
    6.8980    0.0520   19.0950 C   0  0  0  0  0  0  0  0  0  0  0  0
    8.3240   -1.7090   22.4080 C   0  0  0  0  0  0  0  0  0  0  0  0
   12.1610    0.9790   22.8470 C   0  0  0  0  0  0  0  0  0  0  0  0
   12.8100    3.4580   22.9190 C   0  0  0  0  0  0  0  0  0  0  0  0
   13.8510    4.6040   22.7720 C   0  0  2  0  0  0  0  0  0  0  0  0
    4.8920   -3.0120   21.0550 O   0  0  0  0  0  0  0  0  0  0  0  0
    6.8680   -4.1450   21.5590 C   0  0  1  0  0  0  0  0  0  0  0  0
    4.1570    1.0900   21.4120 C   0  0  0  0  0  0  0  0  0  0  0  0
   10.0340    5.3750   24.5360 O   0  0  0  0  0  0  0  0  0  0  0  0
   11.1780    5.9370   22.6610 O   0  0  0  0  0  0  0  0  0  0  0  0
    6.4770    0.4590   17.8890 N   0  0  0  0  0  0  0  0  0  0  0  0
    4.5270    1.3130   18.9470 C   0  0  0  0  0  0  0  0  0  0  0  0
    9.5070   -1.4630   21.7200 C   0  0  0  0  0  0  0  0  0  0  0  0
    8.4620   -2.0480   23.8950 C   0  0  0  0  0  0  0  0  0  0  0  0
   13.0930    1.9440   22.7430 C   0  0  0  0  0  0  0  0  0  0  0  0
   13.2730    5.5290   21.6660 C   0  0  0  0  0  0  0  0  0  0  0  0
    8.3550   -4.3090   21.1350 C   0  0  0  0  0  0  0  0  0  0  0  0
    4.8390    2.0500   22.3630 C   0  0  0  0  0  0  0  0  0  0  0  0
   15.4080    4.3450   22.3910 C   0  0  0  0  0  0  0  0  0  0  0  0
    5.2950    1.0880   17.8700 C   0  0  0  0  0  0  0  0  0  0  0  0
   10.7380   -1.5230   22.2920 C   0  0  0  0  0  0  0  0  0  0  0  0
    9.8620   -2.1080   24.5390 C   0  0  0  0  0  0  0  0  0  0  0  0
    6.3900   -4.8390   22.8580 C   0  0  1  0  0  0  0  0  0  0  0  0
    4.1570    3.0600   22.9410 N   0  0  0  0  0  0  0  0  0  0  0  0
   16.4970    4.8300   23.2980 C   0  0  0  0  0  0  0  0  0  0  0  0
   11.0040   -1.8580   23.7920 C   0  0  0  0  0  0  0  0  0  0  0  0
    6.3670   -6.0800   22.2640 N   0  0  0  0  0  0  0  0  0  0  0  0
    6.5870   -4.9380   24.2560 C   0  0  2  0  0  0  0  0  0  0  0  0
   12.4330   -1.8920   24.3790 C   0  0  0  0  0  0  0  0  0  0  0  0
    2.9460    2.7420   23.4180 C   0  0  0  0  0  0  0  0  0  0  0  0
    5.0990   -5.2150   25.4080 S   0  0  1  0  0  0  0  0  0  0  0  0
   17.7650    4.4890   22.9140 C   0  0  0  0  0  0  0  0  0  0  0  0
    5.0960   -6.6000   22.2170 C   0  0  0  0  0  0  0  0  0  0  0  0
    8.0010   -4.7480   24.7960 C   0  0  0  0  0  0  0  0  0  0  0  0
   12.6150   -0.6700   25.0010 C   0  0  0  0  0  0  0  0  0  0  0  0
   13.4020   -2.0060   23.2000 C   0  0  0  0  0  0  0  0  0  0  0  0
   12.6780   -2.9570   25.1600 C   0  0  0  0  0  0  0  0  0  0  0  0
    3.9090   -6.5580   25.0700 C   0  0  2  0  0  0  0  0  0  0  0  0
    2.8560    1.8700   24.3620 O   0  0  0  0  0  0  0  0  0  0  0  0
    1.7870    3.2900   22.9680 N   0  0  0  0  0  0  0  0  0  0  0  0
    5.6660   -5.3600   26.7560 O   0  0  0  0  0  0  0  0  0  0  0  0
   18.7740    5.5820   23.3170 C   0  0  0  0  0  0  0  0  0  0  0  0
    4.0840   -3.7680   25.6890 C   0  0  0  0  0  0  0  0  0  0  0  0
    3.9580   -5.9410   22.6980 C   0  0  1  0  0  0  0  0  0  0  0  0
    8.7060   -5.1280   25.9320 C   0  0  0  0  0  0  0  0  0  0  0  0
    3.0470   -7.0590   26.0580 C   0  0  0  0  0  0  0  0  0  0  0  0
    4.6040   -7.7710   24.8350 O   0  0  0  0  0  0  0  0  0  0  0  0
    3.2220   -6.4940   23.8700 C   0  0  2  0  0  0  0  0  0  0  0  0
    3.9840   -4.4830   22.6300 O   0  0  0  0  0  0  0  0  0  0  0  0
   19.7010    6.1970   22.2260 C   0  0  0  0  0  0  0  0  0  0  0  0
    0.5790    3.3620   23.7880 C   0  0  0  0  0  0  0  0  0  0  0  0
    4.6930   -2.4990   25.8620 C   0  0  0  0  0  0  0  0  0  0  0  0
    2.6530   -3.8820   25.7610 C   0  0  0  0  0  0  0  0  0  0  0  0
    8.1310   -5.8570   26.9430 C   0  0  0  0  0  0  0  0  0  0  0  0
    6.7920   -5.9520   27.2860 C   0  0  0  0  0  0  0  0  0  0  0  0
    1.9780   -5.6750   23.8670 N   0  0  0  0  0  0  0  0  0  0  0  0
    6.0130   -2.3730   25.8140 F   0  0  0  0  0  0  0  0  0  0  0  0
   20.8340    6.9700   22.7540 N   0  0  0  0  0  0  0  0  0  0  0  0
    0.5740    4.6730   24.5950 C   0  0  0  0  0  0  0  0  0  0  0  0
   -0.5680    3.2420   22.9870 C   0  0  0  0  0  0  0  0  0  0  0  0
    1.7800   -2.6420   26.0110 C   0  0  0  0  0  0  0  0  0  0  0  0
    4.0030   -1.3120   26.0950 C   0  0  0  0  0  0  0  0  0  0  0  0
    0.9300   -6.0810   22.9140 C   0  0  0  0  0  0  0  0  0  0  0  0
    0.0680   -2.6480   26.1110 Cl  0  0  0  0  0  0  0  0  0  0  0  0
   -0.6470    4.8620   25.2900 C   0  0  0  0  0  0  0  0  0  0  0  0
   -1.8460    3.4160   23.8040 C   0  0  0  0  0  0  0  0  0  0  0  0
    2.5020   -1.3130   26.1810 C   0  0  0  0  0  0  0  0  0  0  0  0
   21.5940    6.0800   23.4280 C   0  0  0  0  0  0  0  0  0  0  0  0
    1.1670   -7.2180   22.1040 O   0  0  0  0  0  0  0  0  0  0  0  0
   -0.3170   -5.4280   22.7470 C   0  0  0  0  0  0  0  0  0  0  0  0
   -1.8680    4.6010   24.4030 C   0  0  0  0  0  0  0  0  0  0  0  0
   22.6660    5.4970   22.7620 C   0  0  0  0  0  0  0  0  0  0  0  0
   21.2930    5.7310   24.7360 C   0  0  0  0  0  0  0  0  0  0  0  0
   23.4140    4.5370   23.3990 C   0  0  0  0  0  0  0  0  0  0  0  0
   22.0290    4.7690   25.3820 C   0  0  0  0  0  0  0  0  0  0  0  0
   23.0770    4.1700   24.6910 C   0  0  0  0  0  0  0  0  0  0  0  0
   23.9760    2.8860   25.4690 S   0  0  0  0  0  0  0  0  0  0  0  0
   23.1400    1.7420   25.2970 O   0  0  0  0  0  0  0  0  0  0  0  0
   24.0570    3.4030   27.0780 N   0  0  0  0  0  0  0  0  0  0  0  0
   25.3210    2.8760   24.9480 O   0  0  0  0  0  0  0  0  0  0  0  0
   24.9450    4.4600   27.3390 C   0  0  0  0  0  0  0  0  0  0  0  0
   25.0900    4.7330   28.6550 N   0  0  0  0  0  0  0  0  0  0  0  0
   25.5970    5.1380   26.3020 C   0  0  0  0  0  0  0  0  0  0  0  0
   25.9370    5.7390   28.9390 C   0  0  0  0  0  0  0  0  0  0  0  0
   26.4690    6.1770   26.6510 C   0  0  0  0  0  0  0  0  0  0  0  0
   26.6350    6.4770   28.0060 C   0  0  0  0  0  0  0  0  0  0  0  0
  1  2  1  0
  2  3  1  6
  1  4  1  0
  4  5  2  0
  6  4  1  6
  2  7  1  0
  6  8  1  0
  3  9  1  0
  6 10  1  0
  7 11  2  0
  7 12  1  0
 11 13  1  0
  8 14  1  0
  9 15  1  0
 10 16  1  0
 10 17  2  0
  8 18  1  0
 12 19  2  0
 11 20  1  0
 20 21  1  0
 14 22  2  0
 14 23  1  0
 16 24  1  0
 13 25  2  0
 13 26  1  0
 17 27  1  0
 16 28  2  0
 18 29  2  0
 18 30  1  0
 19 31  1  0
 20 31  2  0
 21 32  1  6
 23 33  1  1
 24 34  1  0
 21 35  1  0
 27 36  2  0
 28 36  1  0
 29 37  1  0
 30 38  2  0
 23 39  1  0
 34 40  1  0
 35 41  1  0
 37 42  2  0
 38 42  1  0
 39 43  1  6
 39 44  1  0
 42 45  1  0
 40 46  1  0
 44 47  1  0
 41 48  1  0
 43 49  1  0
 44 50  1  1
 45 51  1  0
 45 52  1  0
 45 53  1  0
 47 54  1  0
 46 55  2  0
 46 56  1  0
 47 57  1  0
 48 58  1  0
 47 59  1  1
 49 60  1  0
 50 61  2  0
 54 62  1  1
 54 63  1  0
 54 64  1  0
 60 64  1  0
 60 65  1  1
 58 66  1  0
 56 67  1  0
 59 68  2  0
 59 69  1  0
 61 70  1  0
 57 71  1  0
 70 71  2  0
 64 72  1  1
 68 73  1  0
 66 74  1  0
 67 75  1  0
 67 76  1  0
 69 77  2  0
 68 78  1  0
 72 79  1  0
 77 80  1  0
 75 81  1  0
 76 82  1  0
 77 83  1  0
 78 83  2  0
 74 84  1  0
 79 85  2  0
 79 86  1  0
 81 87  1  0
 82 87  1  0
 84 88  2  0
 84 89  1  0
 88 90  1  0
 89 91  2  0
 90 92  2  0
 91 92  1  0
 92 93  1  0
 93 94  2  0
 93 95  1  0
 93 96  2  0
 95 97  1  0
 97 98  2  0
 97 99  1  0
 98100  1  0
 99101  2  0
100102  2  0
101102  1  0
M  END
