x3115-x0769-x0540-x3110-x0946
     RDKit          3D

 70 76  0  0  0  0  0  0  0  0999 V2000
    8.0390    1.2770   23.3140 N   0  0  0  0  0  0  0  0  0  0  0  0
    8.6630    2.6130   23.6970 C   0  0  2  0  0  0  0  0  0  0  0  0
    7.9750    3.7130   22.8990 C   0  0  0  0  0  0  0  0  0  0  0  0
    7.7960    0.8180   21.9160 C   0  0  0  0  0  0  0  0  0  0  0  0
    8.5020    1.3330   20.8510 O   0  0  0  0  0  0  0  0  0  0  0  0
    6.6520   -0.2330   21.6170 C   0  0  2  0  0  0  0  0  0  0  0  0
   10.1740    2.5520   23.4140 C   0  0  0  0  0  0  0  0  0  0  0  0
    6.7400   -1.7020   21.9980 C   0  0  2  0  0  0  0  0  0  0  0  0
    8.2240    4.8500   23.3060 O   0  0  0  0  0  0  0  0  0  0  0  0
    6.2230    0.2400   20.2280 C   0  0  0  0  0  0  0  0  0  0  0  0
   11.0100    3.6750   23.4840 C   0  0  0  0  0  0  0  0  0  0  0  0
   10.7100    1.3080   23.0600 C   0  0  0  0  0  0  0  0  0  0  0  0
   10.4320    4.9580   23.9350 C   0  0  0  0  0  0  0  0  0  0  0  0
    6.0480   -2.8580   21.1060 C   0  0  0  0  0  0  0  0  0  0  0  0
    8.0360    5.8940   22.3050 C   0  0  0  0  0  0  0  0  0  0  0  0
    5.9170   -2.1360   23.1930 C   0  0  0  0  0  0  0  0  0  0  0  0
    5.0020    1.1030   20.0870 C   0  0  0  0  0  0  0  0  0  0  0  0
    6.9510   -0.1050   19.1200 C   0  0  0  0  0  0  0  0  0  0  0  0
    8.2400   -1.7470   22.6010 C   0  0  0  0  0  0  0  0  0  0  0  0
   12.0540    1.1400   22.7580 C   0  0  0  0  0  0  0  0  0  0  0  0
   12.3550    3.5940   23.1620 C   0  0  0  0  0  0  0  0  0  0  0  0
   13.2760    4.7870   23.1770 C   0  0  0  0  0  0  0  0  0  0  0  0
    4.8190   -2.9050   20.6820 O   0  0  0  0  0  0  0  0  0  0  0  0
    6.6290   -4.1720   20.9520 C   0  0  1  0  0  0  0  0  0  0  0  0
    4.3870    1.3320   21.3050 C   0  0  0  0  0  0  0  0  0  0  0  0
   10.0470    6.3050   24.1120 O   0  0  0  0  0  0  0  0  0  0  0  0
   11.1230    5.3800   22.8530 O   0  0  0  0  0  0  0  0  0  0  0  0
    5.3350   -3.4370   23.0520 C   0  0  0  0  0  0  0  0  0  0  0  0
    6.4590    0.4410   17.8440 N   0  0  0  0  0  0  0  0  0  0  0  0
    4.5660    1.5910   18.9190 C   0  0  0  0  0  0  0  0  0  0  0  0
    9.3460   -1.8520   21.7750 C   0  0  0  0  0  0  0  0  0  0  0  0
    8.5560   -1.6570   23.9670 C   0  0  0  0  0  0  0  0  0  0  0  0
   12.9090    2.2210   22.7840 C   0  0  0  0  0  0  0  0  0  0  0  0
   13.2480    5.3850   21.8090 C   0  0  0  0  0  0  0  0  0  0  0  0
    8.1450   -4.2870   20.7880 C   0  0  0  0  0  0  0  0  0  0  0  0
    5.0750    2.2720   22.1080 C   0  0  0  0  0  0  0  0  0  0  0  0
    5.2750    1.2850   17.7720 C   0  0  0  0  0  0  0  0  0  0  0  0
   10.6780   -1.8820   22.2170 C   0  0  0  0  0  0  0  0  0  0  0  0
    9.8640   -1.6790   24.4080 C   0  0  0  0  0  0  0  0  0  0  0  0
    6.2220   -4.6000   22.3780 C   0  0  0  0  0  0  0  0  0  0  0  0
    4.1000    3.1300   22.7650 N   0  0  0  0  0  0  0  0  0  0  0  0
   10.9580   -1.7920   23.5960 C   0  0  0  0  0  0  0  0  0  0  0  0
    5.4160   -5.9210   22.2810 C   0  0  0  0  0  0  0  0  0  0  0  0
    7.3930   -4.9160   23.3140 C   0  0  0  0  0  0  0  0  0  0  0  0
   12.3910   -1.8070   24.1610 C   0  0  0  0  0  0  0  0  0  0  0  0
    3.0050    2.6420   23.4940 C   0  0  0  0  0  0  0  0  0  0  0  0
    4.9170   -6.3200   23.5020 C   0  0  0  0  0  0  0  0  0  0  0  0
    6.9170   -5.0820   24.6130 C   0  0  0  0  0  0  0  0  0  0  0  0
   12.6050   -0.6170   24.8330 C   0  0  0  0  0  0  0  0  0  0  0  0
   13.4340   -1.8760   23.0380 C   0  0  0  0  0  0  0  0  0  0  0  0
   12.6110   -2.9680   24.8970 C   0  0  0  0  0  0  0  0  0  0  0  0
    3.0670    1.6390   24.5020 O   0  0  0  0  0  0  0  0  0  0  0  0
    1.7910    3.3250   23.0660 N   0  0  0  0  0  0  0  0  0  0  0  0
    5.5000   -5.5430   24.6250 N   0  0  0  0  0  0  0  0  0  0  0  0
    4.6640   -5.4500   26.0700 S   0  0  0  0  0  0  0  0  0  0  0  0
    0.6330    3.3470   23.9480 C   0  0  0  0  0  0  0  0  0  0  0  0
    5.6380   -5.2460   27.1080 O   0  0  0  0  0  0  0  0  0  0  0  0
    3.6470   -6.7200   26.1300 O   0  0  0  0  0  0  0  0  0  0  0  0
    0.5240    4.5890   24.5980 C   0  0  0  0  0  0  0  0  0  0  0  0
   -0.6040    2.9040   23.1630 C   0  0  0  0  0  0  0  0  0  0  0  0
    3.6960   -3.9680   26.0230 C   0  0  0  0  0  0  0  0  0  0  0  0
   -0.7370    4.9460   25.1170 C   0  0  0  0  0  0  0  0  0  0  0  0
   -1.9440    3.4760   23.6260 C   0  0  0  0  0  0  0  0  0  0  0  0
    4.3000   -2.7170   26.1910 C   0  0  0  0  0  0  0  0  0  0  0  0
    2.3060   -4.0850   25.8210 C   0  0  0  0  0  0  0  0  0  0  0  0
    5.6160   -2.5960   26.3810 F   0  0  0  0  0  0  0  0  0  0  0  0
   -1.9090    4.6550   24.3890 C   0  0  0  0  0  0  0  0  0  0  0  0
    1.5120   -2.9450   25.7930 C   0  0  0  0  0  0  0  0  0  0  0  0
    3.5520   -1.5340   26.1700 C   0  0  0  0  0  0  0  0  0  0  0  0
    2.1790   -1.5890   25.9810 C   0  0  0  0  0  0  0  0  0  0  0  0
  1  2  1  0
  2  3  1  6
  1  4  1  0
  4  5  2  0
  6  4  1  6
  2  7  1  0
  6  8  1  0
  3  9  1  0
  6 10  1  0
  7 11  2  0
  7 12  1  0
 11 13  1  0
  8 14  1  0
  9 15  1  0
  8 16  1  0
 10 17  1  0
 10 18  2  0
  8 19  1  1
 12 20  2  0
 11 21  1  0
 21 22  1  0
 14 23  2  0
 14 24  1  0
 17 25  1  0
 13 26  2  0
 13 27  1  0
 16 28  1  0
 18 29  1  0
 17 30  2  0
 19 31  2  0
 19 32  1  0
 20 33  1  0
 21 33  2  0
 22 34  1  0
 24 35  1  1
 25 36  1  0
 29 37  2  0
 30 37  1  0
 31 38  1  0
 32 39  2  0
 24 40  1  0
 40 28  1  0
 36 41  1  0
 38 42  2  0
 39 42  1  0
 40 43  1  0
 40 44  1  0
 42 45  1  0
 41 46  1  0
 43 47  1  0
 44 48  1  0
 45 49  1  0
 45 50  1  0
 45 51  1  0
 46 52  2  0
 46 53  1  0
 47 54  1  0
 48 54  1  0
 54 55  1  0
 53 56  1  0
 55 57  2  0
 55 58  2  0
 56 59  1  0
 56 60  1  0
 55 61  1  0
 59 62  1  0
 60 63  1  0
 61 64  2  0
 61 65  1  0
 64 66  1  0
 62 67  1  0
 63 67  1  0
 65 68  2  0
 64 69  1  0
 68 70  1  0
 69 70  2  0
M  END
