x3110-x0731-x2193
     RDKit          3D

 54 58  0  0  0  0  0  0  0  0999 V2000
    8.1010    1.0050   23.3470 N   0  0  0  0  0  0  0  0  0  0  0  0
    8.8110    2.1750   23.7150 C   0  0  0  0  0  0  0  0  0  0  0  0
   10.3530    2.0380   23.5500 C   0  0  0  0  0  0  0  0  0  0  0  0
    7.8400    0.6700   21.9300 C   0  0  0  0  0  0  0  0  0  0  0  0
    8.5290    1.2500   21.0570 O   0  0  0  0  0  0  0  0  0  0  0  0
    6.6730   -0.3280   21.5210 C   0  0  2  0  0  0  0  0  0  0  0  0
    6.9600   -1.5230   21.6140 N   0  0  0  0  0  0  0  0  0  0  0  0
   11.0140    3.2730   23.3390 C   0  0  0  0  0  0  0  0  0  0  0  0
    6.2290    0.1480   20.1980 C   0  0  0  0  0  0  0  0  0  0  0  0
   11.6080    3.3980   22.2690 O   0  0  0  0  0  0  0  0  0  0  0  0
   10.9840    4.1690   24.1660 O   0  0  0  0  0  0  0  0  0  0  0  0
    6.0650   -2.7240   21.1800 C   0  0  0  0  0  0  0  0  0  0  0  0
    5.1090    0.9670   20.1610 C   0  0  0  0  0  0  0  0  0  0  0  0
    6.7760   -0.0620   18.9560 C   0  0  0  0  0  0  0  0  0  0  0  0
    8.2250   -1.6630   22.2620 C   0  0  0  0  0  0  0  0  0  0  0  0
   12.7300    3.9210   22.2310 C   0  0  0  0  0  0  0  0  0  0  0  0
    4.7710   -2.9560   21.2550 O   0  0  0  0  0  0  0  0  0  0  0  0
    6.7410   -3.9230   20.5500 C   0  0  1  0  0  0  0  0  0  0  0  0
    6.3370    0.4490   17.8100 N   0  0  0  0  0  0  0  0  0  0  0  0
    4.6250    1.5150   18.9760 C   0  0  0  0  0  0  0  0  0  0  0  0
    9.3570   -1.3050   21.5550 C   0  0  0  0  0  0  0  0  0  0  0  0
    8.4680   -2.1150   23.5690 C   0  0  0  0  0  0  0  0  0  0  0  0
   13.1740    5.1440   23.0220 C   0  0  0  0  0  0  0  0  0  0  0  0
    8.0820   -3.4120   20.0540 C   0  0  0  0  0  0  0  0  0  0  0  0
    5.1720    1.3310   17.7020 C   0  0  0  0  0  0  0  0  0  0  0  0
   10.6560   -1.3790   22.1170 C   0  0  0  0  0  0  0  0  0  0  0  0
    9.7700   -2.1880   24.1060 C   0  0  0  0  0  0  0  0  0  0  0  0
    6.9040   -5.0060   21.5720 N   0  0  0  0  0  0  0  0  0  0  0  0
   10.8940   -1.8070   23.3990 C   0  0  0  0  0  0  0  0  0  0  0  0
    7.3830   -4.3740   22.8120 C   0  0  0  0  0  0  0  0  0  0  0  0
    5.8870   -6.0530   21.8350 C   0  0  0  0  0  0  0  0  0  0  0  0
   12.3060   -1.8440   23.9770 C   0  0  0  0  0  0  0  0  0  0  0  0
    7.3340   -5.1990   23.8760 C   0  0  0  0  0  0  0  0  0  0  0  0
    5.1070   -5.7540   22.9660 C   0  0  0  0  0  0  0  0  0  0  0  0
   12.5930   -0.6820   24.6930 C   0  0  0  0  0  0  0  0  0  0  0  0
   13.1980   -2.1920   22.9520 C   0  0  0  0  0  0  0  0  0  0  0  0
   12.3210   -2.9860   24.9800 C   0  0  0  0  0  0  0  0  0  0  0  0
    5.9360   -5.4620   24.1590 N   0  0  0  0  0  0  0  0  0  0  0  0
    5.3040   -5.3090   25.7330 S   0  0  2  0  0  0  0  0  0  0  0  0
    6.4990   -4.6120   26.6870 N   0  0  0  0  0  0  0  0  0  0  0  0
    4.8460   -6.5830   26.2340 O   0  0  0  0  0  0  0  0  0  0  0  0
    4.0120   -4.1250   25.8060 C   0  0  0  0  0  0  0  0  0  0  0  0
    7.6680   -5.3150   27.2410 C   0  0  1  0  0  0  0  0  0  0  0  0
    2.7150   -4.3750   25.3020 C   0  0  0  0  0  0  0  0  0  0  0  0
    4.2920   -2.7690   26.4510 C   0  0  0  0  0  0  0  0  0  0  0  0
    8.0790   -6.1590   26.3080 N   0  0  0  0  0  0  0  0  0  0  0  0
    8.7260   -4.5350   27.6240 C   0  0  0  0  0  0  0  0  0  0  0  0
    1.7650   -3.3510   25.4480 C   0  0  0  0  0  0  0  0  0  0  0  0
    3.2910   -1.8310   26.5440 C   0  0  0  0  0  0  0  0  0  0  0  0
    9.1820   -3.9020   26.4760 N   0  0  0  0  0  0  0  0  0  0  0  0
    9.5010   -6.0700   26.0740 C   0  0  0  0  0  0  0  0  0  0  0  0
    2.0240   -2.1160   26.0520 C   0  0  0  0  0  0  0  0  0  0  0  0
    0.8590   -1.1280   26.1440 C   0  0  0  0  0  0  0  0  0  0  0  0
    9.8460   -4.7730   25.7060 C   0  0  0  0  0  0  0  0  0  0  0  0
  1  2  1  0
  2  3  1  0
  1  4  1  0
  4  5  2  0
  6  4  1  6
  6  7  1  0
  3  8  1  0
  6  9  1  0
  8 10  1  0
  8 11  2  0
  7 12  1  0
  9 13  2  0
  9 14  1  0
  7 15  1  0
 10 16  1  0
 12 17  2  0
 12 18  1  0
 14 19  2  0
 13 20  1  0
 15 21  2  0
 15 22  1  0
 16 23  1  0
 18 24  1  1
 19 25  1  0
 20 25  2  0
 21 26  1  0
 22 27  2  0
 18 28  1  0
 26 29  2  0
 27 29  1  0
 28 30  1  0
 28 31  1  0
 29 32  1  0
 30 33  1  0
 31 34  1  0
 32 35  1  0
 32 36  1  0
 32 37  1  0
 33 38  1  0
 34 38  1  0
 38 39  1  0
 39 40  2  0
 39 41  2  0
 39 42  1  6
 43 40  1  6
 42 44  2  0
 42 45  1  0
 43 46  1  0
 43 47  1  0
 44 48  1  0
 45 49  2  0
 47 50  1  0
 46 51  1  0
 48 52  2  0
 49 52  1  0
 52 53  1  0
 50 54  1  0
 51 54  1  0
M  END
