x3110-x1077-x1119-x0786
     RDKit          3D

 76 82  0  0  0  0  0  0  0  0999 V2000
    8.0800    1.1220   23.1570 N   0  0  0  0  0  0  0  0  0  0  0  0
    8.8670    2.2820   23.4450 C   0  0  0  0  0  0  0  0  0  0  0  0
   10.3840    2.1520   23.4240 C   0  0  0  0  0  0  0  0  0  0  0  0
    7.7260    0.7350   21.7580 C   0  0  0  0  0  0  0  0  0  0  0  0
    8.3650    1.2910   20.8490 O   0  0  0  0  0  0  0  0  0  0  0  0
    6.6230   -0.2300   21.4500 C   0  0  2  0  0  0  0  0  0  0  0  0
    7.0520   -1.6730   21.4090 N   0  0  0  0  0  0  0  0  0  0  0  0
   11.1860    3.3330   23.4210 C   0  0  0  0  0  0  0  0  0  0  0  0
    6.0930    0.3240   20.1710 C   0  0  0  0  0  0  0  0  0  0  0  0
   12.2330    3.2340   22.7630 O   0  0  0  0  0  0  0  0  0  0  0  0
   10.8660    4.3520   24.0290 O   0  0  0  0  0  0  0  0  0  0  0  0
    6.1110   -2.8310   21.1590 C   0  0  0  0  0  0  0  0  0  0  0  0
    4.8580    1.2100   20.1450 C   0  0  0  0  0  0  0  0  0  0  0  0
    6.7380    0.0530   18.9610 C   0  0  0  0  0  0  0  0  0  0  0  0
    8.3040   -1.7730   22.1480 C   0  0  0  0  0  0  0  0  0  0  0  0
   12.7300    4.4590   22.1540 C   0  0  0  0  0  0  0  0  0  0  0  0
    4.8530   -2.9350   20.7670 O   0  0  0  0  0  0  0  0  0  0  0  0
    6.5440   -4.1980   21.4730 C   0  0  1  0  0  0  0  0  0  0  0  0
    6.3580    0.5290   17.7560 N   0  0  0  0  0  0  0  0  0  0  0  0
    4.4520    1.7050   18.9360 C   0  0  0  0  0  0  0  0  0  0  0  0
    9.4670   -1.3440   21.5620 C   0  0  0  0  0  0  0  0  0  0  0  0
    8.5240   -2.2890   23.5800 C   0  0  0  0  0  0  0  0  0  0  0  0
   14.1110    4.9310   22.7540 C   0  0  0  0  0  0  0  0  0  0  0  0
    8.0440   -4.5560   21.1490 C   0  0  0  0  0  0  0  0  0  0  0  0
    5.2730    1.3210   17.7340 C   0  0  0  0  0  0  0  0  0  0  0  0
   10.7800   -1.4030   22.2980 C   0  0  0  0  0  0  0  0  0  0  0  0
    9.7580   -2.3190   24.2250 C   0  0  0  0  0  0  0  0  0  0  0  0
    5.7020   -4.4590   22.7200 C   0  0  0  0  0  0  0  0  0  0  0  0
   15.3710    4.4630   22.0180 C   0  0  0  0  0  0  0  0  0  0  0  0
   10.9220   -1.8720   23.5970 C   0  0  0  0  0  0  0  0  0  0  0  0
    4.9400   -5.6200   22.8820 C   0  0  0  0  0  0  0  0  0  0  0  0
    5.6680   -3.4630   23.7340 C   0  0  0  0  0  0  0  0  0  0  0  0
    9.6680   -2.8460   25.6190 C   0  0  0  0  0  0  0  0  0  0  0  0
   12.3720   -1.8140   24.1970 C   0  0  0  0  0  0  0  0  0  0  0  0
   16.6640    4.2610   22.6060 C   0  0  0  0  0  0  0  0  0  0  0  0
    4.1600   -5.7800   24.0330 C   0  0  0  0  0  0  0  0  0  0  0  0
    4.8930   -3.6550   24.8730 C   0  0  0  0  0  0  0  0  0  0  0  0
    9.7210   -4.2820   25.8640 N   0  0  0  0  0  0  0  0  0  0  0  0
   12.4410   -0.5590   25.0510 C   0  0  0  0  0  0  0  0  0  0  0  0
   13.3320   -1.8850   23.0630 C   0  0  0  0  0  0  0  0  0  0  0  0
   12.7200   -3.0010   25.1160 C   0  0  0  0  0  0  0  0  0  0  0  0
    3.3250   -6.9830   24.2140 C   0  0  0  0  0  0  0  0  0  0  0  0
   17.1270    5.1170   23.5640 C   0  0  0  0  0  0  0  0  0  0  0  0
    4.1380   -4.8090   25.0260 C   0  0  0  0  0  0  0  0  0  0  0  0
   10.0460   -5.1300   24.7320 C   0  0  0  0  0  0  0  0  0  0  0  0
    8.8230   -4.7740   26.9100 C   0  0  0  0  0  0  0  0  0  0  0  0
    3.8980   -8.1150   24.8570 O   0  0  0  0  0  0  0  0  0  0  0  0
   18.4930    5.5670   23.4360 C   0  0  0  0  0  0  0  0  0  0  0  0
    2.0110   -6.9250   23.7570 N   0  0  0  0  0  0  0  0  0  0  0  0
    9.0350   -5.6990   23.9560 C   0  0  0  0  0  0  0  0  0  0  0  0
    7.4820   -4.8580   26.5930 C   0  0  0  0  0  0  0  0  0  0  0  0
   19.2230    6.9700   23.5440 C   0  0  0  0  0  0  0  0  0  0  0  0
    1.3830   -5.6910   23.2920 C   0  0  0  0  0  0  0  0  0  0  0  0
    1.1240   -8.0580   24.0430 C   0  0  0  0  0  0  0  0  0  0  0  0
    7.1860   -5.8280   25.5990 O   0  0  0  0  0  0  0  0  0  0  0  0
    7.5790   -5.4880   24.2820 C   0  0  0  0  0  0  0  0  0  0  0  0
   20.5650    7.2440   22.9360 N   0  0  0  0  0  0  0  0  0  0  0  0
    0.4650   -5.1900   24.1820 C   0  0  0  0  0  0  0  0  0  0  0  0
    0.0980   -7.7700   24.9750 C   0  0  0  0  0  0  0  0  0  0  0  0
   -0.9130   -6.3480   24.4480 S   0  0  0  0  0  0  0  0  0  0  0  0
   21.5140    6.2820   23.2420 C   0  0  0  0  0  0  0  0  0  0  0  0
   22.7720    5.8950   22.4170 C   0  0  0  0  0  0  0  0  0  0  0  0
   21.3060    5.5950   24.3870 C   0  0  0  0  0  0  0  0  0  0  0  0
   23.6260    4.8540   22.8820 C   0  0  0  0  0  0  0  0  0  0  0  0
   22.1830    4.6180   24.7240 C   0  0  0  0  0  0  0  0  0  0  0  0
   23.2300    4.2620   24.0690 C   0  0  0  0  0  0  0  0  0  0  0  0
   24.0770    2.9180   24.8540 S   0  0  0  0  0  0  0  0  0  0  0  0
   23.1470    1.8020   24.8790 O   0  0  0  0  0  0  0  0  0  0  0  0
   24.2630    3.3620   26.4790 N   0  0  0  0  0  0  0  0  0  0  0  0
   25.4720    2.6000   24.1850 O   0  0  0  0  0  0  0  0  0  0  0  0
   25.0720    4.4220   26.9080 C   0  0  0  0  0  0  0  0  0  0  0  0
   24.9950    4.5500   28.2650 N   0  0  0  0  0  0  0  0  0  0  0  0
   25.8360    5.2230   26.0490 C   0  0  0  0  0  0  0  0  0  0  0  0
   25.7210    5.5330   28.8360 C   0  0  0  0  0  0  0  0  0  0  0  0
   26.6340    6.2880   26.5770 C   0  0  0  0  0  0  0  0  0  0  0  0
   26.6050    6.4820   28.0040 C   0  0  0  0  0  0  0  0  0  0  0  0
  1  2  1  0
  2  3  1  0
  1  4  1  0
  4  5  2  0
  6  4  1  6
  6  7  1  0
  3  8  1  0
  6  9  1  0
  8 10  1  0
  8 11  2  0
  7 12  1  0
  9 13  2  0
  9 14  1  0
  7 15  1  0
 10 16  1  0
 12 17  2  0
 12 18  1  0
 14 19  2  0
 13 20  1  0
 15 21  2  0
 15 22  1  0
 16 23  1  0
 18 24  1  1
 19 25  1  0
 20 25  2  0
 21 26  1  0
 22 27  2  0
 18 28  1  0
 23 29  1  0
 26 30  2  0
 27 30  1  0
 28 31  2  0
 28 32  1  0
 27 33  1  0
 30 34  1  0
 29 35  1  0
 31 36  1  0
 32 37  2  0
 33 38  1  0
 34 39  1  0
 34 40  1  0
 34 41  1  0
 36 42  1  0
 35 43  1  0
 36 44  2  0
 37 44  1  0
 38 45  1  0
 38 46  1  0
 42 47  2  0
 43 48  1  0
 42 49  1  0
 45 50  1  0
 46 51  1  0
 48 52  1  0
 49 53  1  0
 49 54  1  0
 51 55  1  0
 50 56  1  0
 55 56  1  0
 52 57  1  0
 53 58  1  0
 54 59  1  0
 58 60  1  0
 59 60  1  0
 57 61  1  0
 61 62  2  0
 61 63  1  0
 62 64  1  0
 63 65  2  0
 64 66  2  0
 65 66  1  0
 66 67  1  0
 67 68  2  0
 67 69  1  0
 67 70  2  0
 69 71  1  0
 71 72  2  0
 71 73  1  0
 72 74  1  0
 73 75  2  0
 74 76  2  0
 75 76  1  0
M  END
