x3115-x0769-x0540-x3110-x0691-x0820-x0426-x0978-x1308-x0946
     RDKit          3D

 86 94  0  0  0  0  0  0  0  0999 V2000
    7.9310    1.1260   23.4710 N   0  0  0  0  0  0  0  0  0  0  0  0
    8.6120    2.4670   23.6650 C   0  0  2  0  0  0  0  0  0  0  0  0
    7.9730    3.5720   22.8010 C   0  0  0  0  0  0  0  0  0  0  0  0
    7.6950    0.5120   22.2080 C   0  0  0  0  0  0  0  0  0  0  0  0
    8.5040    0.8850   21.1540 O   0  0  0  0  0  0  0  0  0  0  0  0
    6.4920   -0.5570   21.9520 C   0  0  2  0  0  0  0  0  0  0  0  0
   10.1540    2.4100   23.4090 C   0  0  0  0  0  0  0  0  0  0  0  0
    7.0050   -2.0250   22.1410 C   0  0  2  0  0  0  0  0  0  0  0  0
    8.1860    4.9100   23.2190 O   0  0  0  0  0  0  0  0  0  0  0  0
    6.1080   -0.0710   20.5220 C   0  0  0  0  0  0  0  0  0  0  0  0
   10.9840    3.5740   23.4570 C   0  0  0  0  0  0  0  0  0  0  0  0
   10.7470    1.1680   23.1070 C   0  0  0  0  0  0  0  0  0  0  0  0
   10.4970    4.9250   23.8200 C   0  0  0  0  0  0  0  0  0  0  0  0
    6.3050   -3.0350   21.2390 C   0  0  0  0  0  0  0  0  0  0  0  0
    7.9940    5.9090   22.2040 C   0  0  0  0  0  0  0  0  0  0  0  0
    6.4910   -3.6300   22.5150 C   0  0  2  0  0  0  0  0  0  0  0  0
    4.9850    0.6400   20.3300 C   0  0  0  0  0  0  0  0  0  0  0  0
    6.9520   -0.3570   19.4430 C   0  0  0  0  0  0  0  0  0  0  0  0
    8.5730   -1.9870   22.6020 C   0  0  0  0  0  0  0  0  0  0  0  0
   12.1000    1.0110   22.8320 C   0  0  0  0  0  0  0  0  0  0  0  0
   12.3300    3.4900   23.1630 C   0  0  0  0  0  0  0  0  0  0  0  0
   13.2440    4.6900   23.1590 C   0  0  0  0  0  0  0  0  0  0  0  0
    5.0210   -3.1460   20.7170 O   0  0  0  0  0  0  0  0  0  0  0  0
    7.3060   -4.0140   21.1720 C   0  0  1  0  0  0  0  0  0  0  0  0
    4.0570    0.9870   21.3530 C   0  0  0  0  0  0  0  0  0  0  0  0
    9.5540    5.1390   24.5620 O   0  0  0  0  0  0  0  0  0  0  0  0
   11.2380    5.9090   23.2580 O   0  0  0  0  0  0  0  0  0  0  0  0
    6.5370    0.1740   18.0970 N   0  0  0  0  0  0  0  0  0  0  0  0
    4.5690    1.1450   19.1040 C   0  0  0  0  0  0  0  0  0  0  0  0
    9.7720   -1.5210   21.8090 C   0  0  0  0  0  0  0  0  0  0  0  0
    8.8860   -2.4010   23.8320 C   0  0  0  0  0  0  0  0  0  0  0  0
    5.4320   -4.0890   21.8140 N   0  0  0  0  0  0  0  0  0  0  0  0
    6.2200   -4.4960   23.8440 C   0  0  1  0  0  0  0  0  0  0  0  0
   12.9140    2.1170   22.8380 C   0  0  0  0  0  0  0  0  0  0  0  0
   13.1670    5.4130   21.8170 C   0  0  0  0  0  0  0  0  0  0  0  0
    7.1250   -3.7950   19.7140 C   0  0  0  0  0  0  0  0  0  0  0  0
    4.7110    1.8800   22.2050 C   0  0  0  0  0  0  0  0  0  0  0  0
    5.3020    0.9510   17.9440 C   0  0  0  0  0  0  0  0  0  0  0  0
   11.0440   -1.5570   22.3830 C   0  0  0  0  0  0  0  0  0  0  0  0
   10.1120   -2.4240   24.3660 C   0  0  0  0  0  0  0  0  0  0  0  0
    5.4490   -5.5950   21.6570 C   0  0  0  0  0  0  0  0  0  0  0  0
    6.0240   -5.9350   23.7500 N   0  0  0  0  0  0  0  0  0  0  0  0
    6.8490   -4.1860   25.3020 C   0  0  1  0  0  0  0  0  0  0  0  0
    4.7790   -4.1740   23.7270 C   0  0  0  0  0  0  0  0  0  0  0  0
    3.9130    2.8820   22.6270 N   0  0  0  0  0  0  0  0  0  0  0  0
   11.2570   -2.0100   23.7170 C   0  0  0  0  0  0  0  0  0  0  0  0
    5.0540   -6.3090   22.7580 C   0  0  1  0  0  0  0  0  0  0  0  0
    5.8270   -3.7530   26.3440 C   0  0  0  0  0  0  0  0  0  0  0  0
    4.0960   -3.7320   24.6230 C   0  0  0  0  0  0  0  0  0  0  0  0
    7.9370   -5.0640   25.8760 C   0  0  0  0  0  0  0  0  0  0  0  0
   12.6120   -1.9970   24.2820 C   0  0  0  0  0  0  0  0  0  0  0  0
    3.5190   -6.5870   23.2430 C   0  0  2  0  0  0  0  0  0  0  0  0
    2.8080    2.4980   23.2810 C   0  0  1  0  0  0  0  0  0  0  0  0
    4.5740   -3.4900   25.8930 C   0  0  0  0  0  0  0  0  0  0  0  0
    6.3610   -3.5940   27.6870 C   0  0  0  0  0  0  0  0  0  0  0  0
    8.2300   -5.0680   27.1680 C   0  0  0  0  0  0  0  0  0  0  0  0
   12.7250   -0.7200   24.8290 C   0  0  0  0  0  0  0  0  0  0  0  0
   13.5100   -2.2820   23.1520 C   0  0  0  0  0  0  0  0  0  0  0  0
   12.8550   -3.0370   25.2050 C   0  0  0  0  0  0  0  0  0  0  0  0
    2.4480   -5.6230   22.9260 N   0  0  0  0  0  0  0  0  0  0  0  0
    3.3100   -7.1770   24.4940 C   0  0  1  0  0  0  0  0  0  0  0  0
    3.0740    2.1880   24.5610 N   0  0  0  0  0  0  0  0  0  0  0  0
    1.8920    3.4850   23.1240 N   0  0  0  0  0  0  0  0  0  0  0  0
    3.4720   -2.8810   26.4660 C   0  0  0  0  0  0  0  0  0  0  0  0
    7.4890   -4.2270   28.0560 C   0  0  0  0  0  0  0  0  0  0  0  0
    2.1640   -7.9590   24.6050 C   0  0  0  0  0  0  0  0  0  0  0  0
    4.4960   -7.8970   24.8020 O   0  0  0  0  0  0  0  0  0  0  0  0
    1.1390   -6.1400   22.6300 C   0  0  0  0  0  0  0  0  0  0  0  0
    2.5460    1.1410   24.9350 O   0  0  0  0  0  0  0  0  0  0  0  0
    0.6750    3.4790   23.9220 C   0  0  1  0  0  0  0  0  0  0  0  0
    3.8220   -1.7210   27.0070 C   0  0  0  0  0  0  0  0  0  0  0  0
    2.1870   -3.4340   26.3690 C   0  0  0  0  0  0  0  0  0  0  0  0
    0.9780   -7.3780   21.9370 O   0  0  0  0  0  0  0  0  0  0  0  0
    0.0250   -5.4410   23.0210 C   0  0  0  0  0  0  0  0  0  0  0  0
    5.0970   -1.2970   27.0290 F   0  0  0  0  0  0  0  0  0  0  0  0
    0.5610    4.8330   24.6810 C   0  0  1  0  0  0  0  0  0  0  0  0
   -0.4290    3.1050   23.1320 C   0  0  0  0  0  0  0  0  0  0  0  0
    0.8890   -2.9860   26.7560 C   0  0  0  0  0  0  0  0  0  0  0  0
    2.8070   -1.0440   27.4810 C   0  0  0  0  0  0  0  0  0  0  0  0
   -0.4360   -2.0910   27.3620 Cl  0  0  0  0  0  0  0  0  0  0  0  0
   -0.9010    5.1140   25.2000 C   0  0  0  0  0  0  0  0  0  0  0  0
   -1.7090    3.3190   23.6190 C   0  0  0  0  0  0  0  0  0  0  0  0
    1.4280   -1.6400   27.3560 C   0  0  0  0  0  0  0  0  0  0  0  0
    1.5360    4.8720   25.8620 C   0  0  0  0  0  0  0  0  0  0  0  0
   -1.9650    4.5790   24.4640 C   0  0  0  0  0  0  0  0  0  0  0  0
    2.7920    4.6000   25.4100 F   0  0  0  0  0  0  0  0  0  0  0  0
  1  2  1  0
  2  3  1  6
  1  4  1  0
  4  5  2  0
  6  4  1  6
  2  7  1  0
  6  8  1  0
  3  9  1  0
  6 10  1  0
  7 11  2  0
  7 12  1  0
 11 13  1  0
  8 14  1  0
  9 15  1  0
  8 16  1  0
 10 17  1  0
 10 18  2  0
  8 19  1  6
 12 20  2  0
 11 21  1  0
 21 22  1  0
 14 23  2  0
 14 24  1  0
 16 24  1  0
 17 25  1  0
 13 26  2  0
 13 27  1  0
 18 28  1  0
 17 29  2  0
 19 30  2  0
 19 31  1  0
 16 32  1  6
 16 33  1  0
 20 34  1  0
 21 34  2  0
 22 35  1  0
 24 36  1  6
 25 37  1  0
 28 38  2  0
 29 38  1  0
 30 39  1  0
 31 40  2  0
 32 41  1  0
 33 42  1  0
 33 43  1  0
 33 44  1  1
 37 45  1  0
 39 46  2  0
 40 46  1  0
 47 41  1  6
 42 47  1  0
 43 48  1  0
 44 49  2  0
 43 50  1  1
 46 51  1  0
 47 52  1  0
 53 45  1  1
 48 54  2  0
 49 54  1  0
 48 55  1  0
 50 56  2  0
 51 57  1  0
 51 58  1  0
 51 59  1  0
 52 60  1  1
 52 61  1  0
 53 62  1  0
 53 63  1  0
 54 64  1  0
 55 65  2  0
 56 65  1  0
 61 66  1  6
 61 67  1  0
 60 68  1  0
 62 69  2  0
 70 63  1  6
 64 71  2  0
 64 72  1  0
 68 73  2  0
 68 74  1  0
 71 75  1  0
 70 76  1  0
 70 77  1  0
 72 78  2  0
 71 79  1  0
 78 80  1  0
 76 81  1  0
 77 82  1  0
 78 83  1  0
 79 83  2  0
 76 84  1  1
 81 85  1  0
 82 85  1  0
 84 86  1  0
M  END
