x3113-x0540-x0771
     RDKit          3D

 60 65  0  0  0  0  0  0  0  0999 V2000
    6.8590   -1.7280   22.0200 C   0  0  1  0  0  0  0  0  0  0  0  0
    5.9480   -2.6460   21.0510 C   0  0  0  0  0  0  0  0  0  0  0  0
    4.7570   -2.9950   21.3200 O   0  0  0  0  0  0  0  0  0  0  0  0
    6.5130   -0.2410   21.9100 C   0  0  1  0  0  0  0  0  0  0  0  0
    6.4910   -2.6570   23.1400 C   0  0  0  0  0  0  0  0  0  0  0  0
    8.3960   -1.8030   22.4610 C   0  0  0  0  0  0  0  0  0  0  0  0
    6.4160   -3.2480   19.8490 C   0  0  0  0  0  0  0  0  0  0  0  0
    7.7820    0.6740   22.1850 C   0  0  0  0  0  0  0  0  0  0  0  0
    6.2290    0.1720   20.4450 C   0  0  0  0  0  0  0  0  0  0  0  0
    9.4840   -2.1700   21.6940 C   0  0  0  0  0  0  0  0  0  0  0  0
    8.6940   -1.4660   23.7810 C   0  0  0  0  0  0  0  0  0  0  0  0
    7.3220   -4.0020   22.9760 C   0  0  2  0  0  0  0  0  0  0  0  0
    7.5900   -3.9600   20.3550 C   0  0  0  0  0  0  0  0  0  0  0  0
    8.0940    1.3260   23.4110 N   0  0  0  0  0  0  0  0  0  0  0  0
    8.6250    0.8760   21.0690 O   0  0  0  0  0  0  0  0  0  0  0  0
    4.9850    0.9840   20.2610 C   0  0  0  0  0  0  0  0  0  0  0  0
    6.9790   -0.1170   19.3240 C   0  0  0  0  0  0  0  0  0  0  0  0
   10.7640   -2.2010   22.2250 C   0  0  0  0  0  0  0  0  0  0  0  0
   10.0460   -1.4550   24.4940 C   0  0  0  0  0  0  0  0  0  0  0  0
    7.2040   -4.7210   21.6270 N   0  0  0  0  0  0  0  0  0  0  0  0
    7.0040   -4.8300   24.1930 C   0  0  0  0  0  0  0  0  0  0  0  0
    9.1680    2.3140   23.5660 C   0  0  0  0  0  0  0  0  0  0  0  0
    4.1250    1.3160   21.4590 C   0  0  0  0  0  0  0  0  0  0  0  0
    6.5600    0.3800   18.0100 N   0  0  0  0  0  0  0  0  0  0  0  0
    4.6450    1.4240   18.9880 C   0  0  0  0  0  0  0  0  0  0  0  0
   11.0750   -1.8390   23.6740 C   0  0  0  0  0  0  0  0  0  0  0  0
    6.0940   -5.7230   21.6170 C   0  0  0  0  0  0  0  0  0  0  0  0
    5.7110   -5.4790   24.1150 N   0  0  0  0  0  0  0  0  0  0  0  0
   10.3800    1.8270   23.0510 C   0  0  0  0  0  0  0  0  0  0  0  0
   12.5210   -1.9120   24.1220 C   0  0  0  0  0  0  0  0  0  0  0  0
    4.9510    2.0950   22.4490 C   0  0  0  0  0  0  0  0  0  0  0  0
    4.9380   -5.8020   25.5930 S   0  0  0  0  0  0  0  0  0  0  0  0
    5.4130    1.1430   17.8420 C   0  0  0  0  0  0  0  0  0  0  0  0
    5.0660   -5.5520   22.7830 C   0  0  0  0  0  0  0  0  0  0  0  0
   11.4770    2.8350   23.4140 C   0  0  0  0  0  0  0  0  0  0  0  0
   13.4460   -2.0210   23.0980 C   0  0  0  0  0  0  0  0  0  0  0  0
   12.7830   -2.9370   24.9820 C   0  0  0  0  0  0  0  0  0  0  0  0
   12.7670   -0.6150   24.8980 C   0  0  0  0  0  0  0  0  0  0  0  0
    4.1270    3.0970   23.0760 N   0  0  0  0  0  0  0  0  0  0  0  0
    4.2960   -7.0860   25.4190 O   0  0  0  0  0  0  0  0  0  0  0  0
    5.8470   -5.5870   26.6930 O   0  0  0  0  0  0  0  0  0  0  0  0
    3.6320   -4.5830   25.7210 C   0  0  0  0  0  0  0  0  0  0  0  0
   11.6970    3.7360   22.3510 O   0  0  0  0  0  0  0  0  0  0  0  0
    2.8410    2.6630   23.6330 C   0  0  0  0  0  0  0  0  0  0  0  0
    2.3090   -4.8510   25.3550 C   0  0  0  0  0  0  0  0  0  0  0  0
    4.0220   -3.3290   26.2220 C   0  0  0  0  0  0  0  0  0  0  0  0
   12.8970    4.4990   22.5210 C   0  0  0  0  0  0  0  0  0  0  0  0
    2.8810    1.6740   24.5850 O   0  0  0  0  0  0  0  0  0  0  0  0
    1.7630    3.3080   23.1160 N   0  0  0  0  0  0  0  0  0  0  0  0
    1.7990   -6.1520   24.8120 C   0  0  0  0  0  0  0  0  0  0  0  0
    1.3490   -3.6880   25.5470 C   0  0  0  0  0  0  0  0  0  0  0  0
    3.0030   -2.1930   26.3940 C   0  0  0  0  0  0  0  0  0  0  0  0
    0.5290    3.3980   23.8830 C   0  0  0  0  0  0  0  0  0  0  0  0
    1.6620   -2.4240   26.0390 C   0  0  0  0  0  0  0  0  0  0  0  0
    0.6200   -1.3560   26.1820 C   0  0  0  0  0  0  0  0  0  0  0  0
    0.4510    4.7900   24.5400 C   0  0  0  0  0  0  0  0  0  0  0  0
   -0.5830    3.1240   23.0860 C   0  0  0  0  0  0  0  0  0  0  0  0
   -0.8730    4.9020   25.3160 C   0  0  0  0  0  0  0  0  0  0  0  0
   -1.7960    3.4130   23.7040 C   0  0  0  0  0  0  0  0  0  0  0  0
   -1.9220    4.6180   24.4240 C   0  0  0  0  0  0  0  0  0  0  0  0
  1  2  1  0
  2  3  2  0
  1  4  1  0
  1  5  1  0
  1  6  1  6
  2  7  1  0
  4  8  1  6
  4  9  1  0
  6 10  2  0
  6 11  1  0
 12  5  1  6
  7 13  1  0
  8 14  1  0
  8 15  2  0
  9 16  1  0
  9 17  2  0
 10 18  1  0
 11 19  2  0
 12 20  1  0
 13 20  1  0
 12 21  1  0
 14 22  1  0
 16 23  1  0
 17 24  1  0
 16 25  2  0
 18 26  2  0
 19 26  1  0
 20 27  1  0
 21 28  1  0
 22 29  1  0
 26 30  1  0
 23 31  1  0
 28 32  1  0
 24 33  2  0
 25 33  1  0
 27 34  1  0
 28 34  1  0
 29 35  1  0
 30 36  1  0
 30 37  1  0
 30 38  1  0
 31 39  1  0
 32 40  2  0
 32 41  2  0
 32 42  1  0
 35 43  1  0
 39 44  1  0
 42 45  2  0
 42 46  1  0
 43 47  1  0
 44 48  2  0
 44 49  1  0
 45 50  1  0
 45 51  1  0
 46 52  2  0
 49 53  1  0
 51 54  2  0
 52 54  1  0
 54 55  1  0
 53 56  1  0
 53 57  1  0
 56 58  1  0
 57 59  1  0
 58 60  1  0
 59 60  1  0
M  END
