x3113-x3115-x0769-x1119-x0540-x0107-x3110-x2754-x0771-x0426-x0731-x0978-x0946
     RDKit          3D

112124  0  0  0  0  0  0  0  0999 V2000
    7.8220    1.9970   22.8260 N   0  0  0  0  0  0  0  0  0  0  0  0
    8.6690    3.3110   23.1400 C   0  0  2  0  0  0  0  0  0  0  0  0
    7.6550    4.5440   23.1230 C   0  0  0  0  0  0  0  0  0  0  0  0
    7.9240    0.8300   21.9350 C   0  0  2  0  0  0  0  0  0  0  0  0
    8.2380    1.0800   20.7760 O   0  0  0  0  0  0  0  0  0  0  0  0
    6.5550    0.0020   21.8280 C   0  0  2  0  0  0  0  0  0  0  0  0
    9.1820   -0.2380   22.4580 C   0  0  0  0  0  0  0  0  0  0  0  0
   10.0980    3.6940   22.4460 C   0  0  0  0  0  0  0  0  0  0  0  0
    6.6700   -1.5700   22.1580 N   0  0  0  0  0  0  0  0  0  0  0  0
    8.1130    5.7090   23.0440 O   0  0  0  0  0  0  0  0  0  0  0  0
    5.7660    0.1980   20.4560 C   0  0  0  0  0  0  0  0  0  0  0  0
    9.1800   -1.7930   21.7260 C   0  0  0  0  0  0  0  0  0  0  0  0
   11.2930    4.4080   23.0500 C   0  0  0  0  0  0  0  0  0  0  0  0
   10.2550    3.3410   21.0650 C   0  0  0  0  0  0  0  0  0  0  0  0
   11.1800    4.8860   24.4590 C   0  0  0  0  0  0  0  0  0  0  0  0
    5.8780   -2.7410   21.6110 C   0  0  0  0  0  0  0  0  0  0  0  0
    7.8640    6.5200   21.9030 C   0  0  0  0  0  0  0  0  0  0  0  0
    4.3510    0.8570   20.2530 C   0  0  0  0  0  0  0  0  0  0  0  0
    6.3970   -0.2700   19.0960 C   0  0  0  0  0  0  0  0  0  0  0  0
   10.6250   -1.9090   22.4570 C   0  0  0  0  0  0  0  0  0  0  0  0
    7.9860   -1.5420   22.6250 C   0  0  0  0  0  0  0  0  0  0  0  0
   11.3760    3.5980   20.3060 C   0  0  0  0  0  0  0  0  0  0  0  0
   12.5060    4.6410   22.3040 C   0  0  0  0  0  0  0  0  0  0  0  0
   13.8760    5.3000   22.7560 C   0  0  2  0  0  0  0  0  0  0  0  0
    4.5950   -2.8840   21.4690 O   0  0  0  0  0  0  0  0  0  0  0  0
    6.6530   -3.9960   21.1460 C   0  0  2  0  0  0  0  0  0  0  0  0
    3.4540    1.4270   21.3670 C   0  0  0  0  0  0  0  0  0  0  0  0
   10.1760    5.3690   24.9480 O   0  0  0  0  0  0  0  0  0  0  0  0
   12.2630    4.8180   25.2090 O   0  0  0  0  0  0  0  0  0  0  0  0
    5.8130   -0.1280   17.8930 N   0  0  0  0  0  0  0  0  0  0  0  0
    3.8700    0.9560   18.9690 C   0  0  0  0  0  0  0  0  0  0  0  0
   10.9070   -1.6620   23.9430 C   0  0  0  0  0  0  0  0  0  0  0  0
    8.2970   -1.3160   24.2450 C   0  0  0  0  0  0  0  0  0  0  0  0
   12.5810    4.2180   20.8150 C   0  0  0  0  0  0  0  0  0  0  0  0
   13.7420    6.7770   22.5300 C   0  0  0  0  0  0  0  0  0  0  0  0
    6.8420   -3.9730   19.6420 C   0  0  0  0  0  0  0  0  0  0  0  0
   12.3620   -1.8110   24.5630 C   0  0  0  0  0  0  0  0  0  0  0  0
    3.5640    2.9080   21.7410 C   0  0  0  0  0  0  0  0  0  0  0  0
   15.2000    4.6600   22.0330 C   0  0  0  0  0  0  0  0  0  0  0  0
    4.5960    0.4760   17.8470 C   0  0  0  0  0  0  0  0  0  0  0  0
    9.7050   -1.3870   24.8510 C   0  0  0  0  0  0  0  0  0  0  0  0
    6.2180   -5.3430   21.7440 N   0  0  0  0  0  0  0  0  0  0  0  0
   12.7840   -0.7190   25.4130 C   0  0  0  0  0  0  0  0  0  0  0  0
   13.4720   -1.8790   23.4610 C   0  0  0  0  0  0  0  0  0  0  0  0
   12.4560   -3.1440   25.3580 C   0  0  0  0  0  0  0  0  0  0  0  0
    2.3910    3.4270   22.4350 N   0  0  0  0  0  0  0  0  0  0  0  0
   16.5690    4.3430   22.6580 C   0  0  0  0  0  0  0  0  0  0  0  0
    4.8130   -5.9480   21.7890 C   0  0  0  0  0  0  0  0  0  0  0  0
    7.0120   -5.8520   22.8800 C   0  0  0  0  0  0  0  0  0  0  0  0
    2.4800    3.8930   23.7210 C   0  0  2  0  0  0  0  0  0  0  0  0
   17.0580    5.2710   23.6840 C   0  0  0  0  0  0  0  0  0  0  0  0
    4.0230   -5.8170   23.0210 C   0  0  2  0  0  0  0  0  0  0  0  0
    6.1700   -6.3140   24.0510 C   0  0  0  0  0  0  0  0  0  0  0  0
    2.8250   -6.9410   23.1780 C   0  0  2  0  0  0  0  0  0  0  0  0
    3.3400   -4.5710   22.8340 O   0  0  0  0  0  0  0  0  0  0  0  0
    2.5030    2.9150   24.6680 N   0  0  0  0  0  0  0  0  0  0  0  0
    1.5070    4.8740   23.7510 N   0  0  0  0  0  0  0  0  0  0  0  0
   18.4590    5.5390   23.7090 C   0  0  0  0  0  0  0  0  0  0  0  0
    4.8560   -5.6870   24.2780 N   0  0  0  0  0  0  0  0  0  0  0  0
    1.8310   -6.2820   22.5020 N   0  0  0  0  0  0  0  0  0  0  0  0
    2.4910   -7.4070   24.5800 C   0  0  1  0  0  0  0  0  0  0  0  0
    1.7710    1.9290   24.4520 O   0  0  0  0  0  0  0  0  0  0  0  0
    4.0230   -5.7790   25.8210 S   0  0  1  0  0  0  0  0  0  0  0  0
   18.9990    6.8500   24.0010 C   0  0  0  0  0  0  0  0  0  0  0  0
    0.1400    4.7220   24.3700 C   0  0  1  0  0  0  0  0  0  0  0  0
    2.2590   -8.8280   24.6280 C   0  0  0  0  0  0  0  0  0  0  0  0
    3.2260   -7.2430   25.4980 N   0  0  0  0  0  0  0  0  0  0  0  0
    0.5800   -6.9930   22.0840 C   0  0  0  0  0  0  0  0  0  0  0  0
    5.0970   -6.0850   26.9640 N   0  0  0  0  0  0  0  0  0  0  0  0
   20.4780    6.9380   23.9250 N   0  0  0  0  0  0  0  0  0  0  0  0
   -0.2800    6.0660   25.1160 C   0  0  1  0  0  0  0  0  0  0  0  0
   -0.8150    4.3820   23.3780 C   0  0  0  0  0  0  0  0  0  0  0  0
    3.0830   -4.3150   26.0990 C   0  0  0  0  0  0  0  0  0  0  0  0
    0.5150   -8.2880   21.6280 O   0  0  0  0  0  0  0  0  0  0  0  0
   -0.6370   -6.2850   22.1510 C   0  0  0  0  0  0  0  0  0  0  0  0
   -1.7840    6.0840   25.5010 C   0  0  0  0  0  0  0  0  0  0  0  0
   -2.2970    4.3770   23.8690 C   0  0  0  0  0  0  0  0  0  0  0  0
    1.8440   -3.9730   25.4070 C   0  0  0  0  0  0  0  0  0  0  0  0
    3.6590   -3.1120   27.2590 C   0  0  0  0  0  0  0  0  0  0  0  0
    6.1420   -5.3200   27.4530 C   0  0  0  0  0  0  0  0  0  0  0  0
   21.4110    5.9450   24.2840 C   0  0  0  0  0  0  0  0  0  0  0  0
    0.6050    6.3670   26.3510 C   0  0  0  0  0  0  0  0  0  0  0  0
    4.7850   -3.1560   28.1610 C   0  0  1  0  0  0  0  0  0  0  0  0
   -2.6250    5.6270   24.4550 C   0  0  0  0  0  0  0  0  0  0  0  0
    1.1310   -2.6900   25.6160 C   0  0  0  0  0  0  0  0  0  0  0  0
    2.7110   -1.5720   27.3410 C   0  0  0  0  0  0  0  0  0  0  0  0
    7.4100   -6.0090   27.4210 C   0  0  0  0  0  0  0  0  0  0  0  0
    6.1180   -3.9640   27.9850 C   0  0  0  0  0  0  0  0  0  0  0  0
   22.3850    5.5580   23.3140 C   0  0  0  0  0  0  0  0  0  0  0  0
   21.4290    5.2990   25.5360 C   0  0  0  0  0  0  0  0  0  0  0  0
    0.5590    7.7040   26.6320 F   0  0  0  0  0  0  0  0  0  0  0  0
    4.4010   -1.7720   27.8400 C   0  0  0  0  0  0  0  0  0  0  0  0
    3.2960   -2.5220   27.2910 N   0  0  0  0  0  0  0  0  0  0  0  0
    4.4340   -3.2830   29.6790 C   0  0  0  0  0  0  0  0  0  0  0  0
    1.5400   -1.5310   26.5060 C   0  0  0  0  0  0  0  0  0  0  0  0
    8.7550   -5.4210   27.8890 C   0  0  0  0  0  0  0  0  0  0  0  0
    7.3720   -3.3790   28.4330 C   0  0  0  0  0  0  0  0  0  0  0  0
   23.3450    4.5380   23.6040 C   0  0  0  0  0  0  0  0  0  0  0  0
   22.3790    4.2820   25.8370 C   0  0  0  0  0  0  0  0  0  0  0  0
    0.6750   -0.3040   26.5450 C   0  0  0  0  0  0  0  0  0  0  0  0
    8.7540   -4.1480   28.3790 C   0  0  0  0  0  0  0  0  0  0  0  0
   23.3460    3.8930   24.8640 C   0  0  0  0  0  0  0  0  0  0  0  0
   24.5310    2.6150   25.2510 S   0  0  0  0  0  0  0  0  0  0  0  0
   23.7730    1.3940   25.4630 O   0  0  0  0  0  0  0  0  0  0  0  0
   25.2000    3.0300   26.7400 N   0  0  0  0  0  0  0  0  0  0  0  0
   25.5720    2.6140   24.2280 O   0  0  0  0  0  0  0  0  0  0  0  0
   25.7120    4.3170   27.0500 C   0  0  0  0  0  0  0  0  0  0  0  0
   25.5760    4.5760   28.3930 N   0  0  0  0  0  0  0  0  0  0  0  0
   26.2840    5.2640   26.1530 C   0  0  0  0  0  0  0  0  0  0  0  0
   26.0350    5.7880   28.8710 C   0  0  0  0  0  0  0  0  0  0  0  0
   26.7150    6.4800   26.6480 C   0  0  0  0  0  0  0  0  0  0  0  0
   26.6020    6.7750   28.0310 C   0  0  0  0  0  0  0  0  0  0  0  0
  1  2  1  0
  2  3  1  6
  1  4  1  0
  4  5  1  6
  4  6  1  0
  4  7  1  0
  2  8  1  0
  6  9  1  0
  3 10  1  0
  6 11  1  6
  7 12  1  0
  8 13  2  0
  8 14  1  0
 13 15  1  0
  9 16  1  0
 10 17  1  0
 11 18  1  0
 11 19  2  0
 12 20  2  0
  9 21  1  0
 12 21  1  0
 14 22  2  0
 13 23  1  0
 23 24  1  0
 16 25  2  0
 16 26  1  0
 18 27  1  0
 15 28  2  0
 15 29  1  0
 19 30  1  0
 18 31  2  0
 20 32  1  0
 21 33  2  0
 22 34  1  0
 23 34  2  0
 24 35  1  6
 26 36  1  6
 32 37  1  0
 27 38  1  0
 24 39  1  0
 30 40  2  0
 31 40  1  0
 32 41  2  0
 33 41  1  0
 26 42  1  0
 37 43  1  0
 37 44  1  0
 37 45  1  0
 38 46  1  0
 39 47  1  0
 42 48  1  0
 42 49  1  0
 50 46  1  6
 47 51  1  0
 48 52  1  0
 49 53  1  0
 52 54  1  0
 52 55  1  6
 50 56  1  0
 50 57  1  0
 51 58  1  0
 52 59  1  0
 53 59  1  0
 54 60  1  1
 54 61  1  0
 56 62  2  0
 59 63  1  0
 58 64  1  0
 65 57  1  6
 61 66  1  6
 61 67  1  0
 63 67  2  0
 60 68  1  0
 63 69  2  0
 64 70  1  0
 65 71  1  0
 65 72  1  0
 63 73  1  1
 68 74  2  0
 68 75  1  0
 71 76  1  0
 72 77  1  0
 73 78  2  0
 73 79  1  0
 69 80  1  0
 70 81  1  0
 71 82  1  1
 79 83  1  0
 76 84  1  0
 77 84  1  0
 78 85  1  0
 79 86  2  0
 80 87  1  0
 80 88  2  0
 83 88  1  0
 81 89  2  0
 81 90  1  0
 82 91  1  0
 83 92  1  0
 86 93  1  0
 92 93  2  0
 83 94  1  1
 85 95  2  0
 86 95  1  0
 87 96  2  0
 88 97  1  0
 89 98  1  0
 90 99  2  0
 95100  1  0
 96101  1  0
 97101  2  0
 98102  2  0
 99102  1  0
102103  1  0
103104  2  0
103105  1  0
103106  2  0
105107  1  0
107108  2  0
107109  1  0
108110  1  0
109111  2  0
110112  2  0
111112  1  0
M  END
