x3113-x1119-x0540-x1425-x1348-x0426-x3117
     RDKit          3D

 93102  0  0  0  0  0  0  0  0999 V2000
    6.9900   -1.5780   22.2790 N   0  0  0  0  0  0  0  0  0  0  0  0
    6.1490   -2.7540   21.8120 C   0  0  0  0  0  0  0  0  0  0  0  0
    4.8350   -3.0650   21.4090 O   0  0  0  0  0  0  0  0  0  0  0  0
    6.8690   -0.1040   21.9410 C   0  0  1  0  0  0  0  0  0  0  0  0
    8.3550   -1.7290   22.8130 C   0  0  0  0  0  0  0  0  0  0  0  0
    7.0880   -3.8910   21.7550 C   0  0  2  0  0  0  0  0  0  0  0  0
    8.0910    0.7380   22.1340 C   0  0  0  0  0  0  0  0  0  0  0  0
    6.3180    0.1470   20.5130 C   0  0  0  0  0  0  0  0  0  0  0  0
    9.4430   -1.6670   21.9050 C   0  0  0  0  0  0  0  0  0  0  0  0
    8.6140   -1.9020   24.1810 C   0  0  0  0  0  0  0  0  0  0  0  0
    6.8140   -4.2270   20.2550 C   0  0  0  0  0  0  0  0  0  0  0  0
    8.4310    1.5750   23.2690 N   0  0  0  0  0  0  0  0  0  0  0  0
    8.8680    0.7890   21.2010 O   0  0  0  0  0  0  0  0  0  0  0  0
    5.0580    0.6830   20.4000 C   0  0  0  0  0  0  0  0  0  0  0  0
    7.0000   -0.1130   19.3220 C   0  0  0  0  0  0  0  0  0  0  0  0
   10.7880   -1.7530   22.3160 C   0  0  0  0  0  0  0  0  0  0  0  0
    9.9350   -1.9920   24.6420 C   0  0  0  0  0  0  0  0  0  0  0  0
    7.1330   -5.0840   22.6710 N   0  0  0  0  0  0  0  0  0  0  0  0
    4.1810    0.9920   21.5670 C   0  0  0  0  0  0  0  0  0  0  0  0
    6.5370    0.1430   18.0730 N   0  0  0  0  0  0  0  0  0  0  0  0
    4.5430    0.9640   19.1380 C   0  0  0  0  0  0  0  0  0  0  0  0
   11.0970   -1.9030   23.6680 C   0  0  0  0  0  0  0  0  0  0  0  0
    9.2970    2.8570   22.9700 C   0  0  2  0  0  0  0  0  0  0  0  0
    6.5180   -5.3830   23.9890 C   0  0  1  0  0  0  0  0  0  0  0  0
    6.5390   -5.9960   21.9340 C   0  0  0  0  0  0  0  0  0  0  0  0
   10.5800    2.4000   22.3510 C   0  0  0  0  0  0  0  0  0  0  0  0
   12.4620   -1.9460   24.1410 C   0  0  0  0  0  0  0  0  0  0  0  0
    4.7610    2.0530   22.2450 C   0  0  0  0  0  0  0  0  0  0  0  0
    5.3250    0.6780   18.0480 C   0  0  0  0  0  0  0  0  0  0  0  0
   10.0440    4.0160   23.6540 C   0  0  2  0  0  0  0  0  0  0  0  0
    8.3570    3.4830   22.1950 C   0  0  0  0  0  0  0  0  0  0  0  0
    6.9300   -4.9910   25.2840 C   0  0  2  0  0  0  0  0  0  0  0  0
    5.1790   -5.4720   23.7430 C   0  0  1  0  0  0  0  0  0  0  0  0
    4.8380   -6.5250   22.2810 S   0  0  0  0  0  0  0  0  0  0  0  0
   11.5300    3.7720   23.7670 N   0  0  0  0  0  0  0  0  0  0  0  0
   11.5450    2.4370   23.3120 C   0  0  0  0  0  0  0  0  0  0  0  0
   13.3240   -2.1090   23.0680 C   0  0  0  0  0  0  0  0  0  0  0  0
   12.7810   -3.0290   25.1680 C   0  0  0  0  0  0  0  0  0  0  0  0
   12.7530   -0.6810   24.7310 C   0  0  0  0  0  0  0  0  0  0  0  0
    3.9180    2.9600   22.7420 N   0  0  0  0  0  0  0  0  0  0  0  0
    8.3490   -5.0930   25.4910 O   0  0  0  0  0  0  0  0  0  0  0  0
    9.3050    4.7030   24.6210 O   0  0  0  0  0  0  0  0  0  0  0  0
    7.8960    4.8930   22.6540 C   0  0  0  0  0  0  0  0  0  0  0  0
    4.4540   -6.1050   24.7840 C   0  0  1  0  0  0  0  0  0  0  0  0
    6.2790   -5.7990   26.2510 C   0  0  0  0  0  0  0  0  0  0  0  0
   12.4630    4.6790   23.1990 C   0  0  0  0  0  0  0  0  0  0  0  0
    2.6190    2.4170   23.1570 C   0  0  1  0  0  0  0  0  0  0  0  0
    8.7760   -5.6610   26.7480 C   0  0  0  0  0  0  0  0  0  0  0  0
    8.3260    5.4450   23.8780 C   0  0  0  0  0  0  0  0  0  0  0  0
    5.0450   -6.3730   25.9820 C   0  0  0  0  0  0  0  0  0  0  0  0
    3.2840   -5.2830   25.2410 C   0  0  0  0  0  0  0  0  0  0  0  0
    2.6860    1.6460   24.2430 N   0  0  0  0  0  0  0  0  0  0  0  0
    1.8270    3.5240   23.2510 N   0  0  0  0  0  0  0  0  0  0  0  0
   13.7150    4.0950   22.3870 C   0  0  0  0  0  0  0  0  0  0  0  0
    3.7000   -3.9320   25.7760 C   0  0  0  0  0  0  0  0  0  0  0  0
    1.9730    0.4770   24.0590 O   0  0  0  0  0  0  0  0  0  0  0  0
   14.9420    4.8820   22.2870 C   0  0  0  0  0  0  0  0  0  0  0  0
    0.6120    3.4110   24.1050 C   0  0  1  0  0  0  0  0  0  0  0  0
    4.6720   -3.1120   25.1730 C   0  0  0  0  0  0  0  0  0  0  0  0
    3.1000   -3.4970   26.9250 C   0  0  0  0  0  0  0  0  0  0  0  0
   16.3400    4.4320   22.4700 C   0  0  0  0  0  0  0  0  0  0  0  0
    0.4200    4.6390   24.7130 C   0  0  1  0  0  0  0  0  0  0  0  0
   -0.4350    2.9750   23.2960 C   0  0  0  0  0  0  0  0  0  0  0  0
    3.4450   -2.2800   27.4930 C   0  0  0  0  0  0  0  0  0  0  0  0
    5.0030   -1.9060   25.7570 C   0  0  0  0  0  0  0  0  0  0  0  0
   17.3000    5.0020   23.4280 C   0  0  0  0  0  0  0  0  0  0  0  0
   -0.8670    4.9650   25.1520 C   0  0  0  0  0  0  0  0  0  0  0  0
   -1.7840    3.2960   23.6900 C   0  0  0  0  0  0  0  0  0  0  0  0
    1.3810    4.7940   25.9030 C   0  0  0  0  0  0  0  0  0  0  0  0
    2.7530   -1.9970   28.6320 O   0  0  0  0  0  0  0  0  0  0  0  0
    4.3720   -1.5040   26.9310 C   0  0  0  0  0  0  0  0  0  0  0  0
   18.5940    5.8020   23.4360 C   0  0  0  0  0  0  0  0  0  0  0  0
   -1.9490    4.5430   24.3850 C   0  0  0  0  0  0  0  0  0  0  0  0
    2.6540    4.5120   25.5130 F   0  0  0  0  0  0  0  0  0  0  0  0
    1.3400   -2.1960   28.5200 C   0  0  0  0  0  0  0  0  0  0  0  0
   19.3620    6.4520   22.5080 C   0  0  0  0  0  0  0  0  0  0  0  0
   20.5740    6.9060   22.9210 N   0  0  0  0  0  0  0  0  0  0  0  0
   21.3930    6.0410   23.5570 C   0  0  0  0  0  0  0  0  0  0  0  0
   22.4430    5.4900   22.8080 C   0  0  0  0  0  0  0  0  0  0  0  0
   21.1830    5.7020   24.8980 C   0  0  0  0  0  0  0  0  0  0  0  0
   23.3870    4.4730   23.4330 C   0  0  0  0  0  0  0  0  0  0  0  0
   21.9790    4.7870   25.5530 C   0  0  0  0  0  0  0  0  0  0  0  0
   23.1410    4.1340   24.7480 C   0  0  0  0  0  0  0  0  0  0  0  0
   24.1230    2.9080   25.6320 S   0  0  0  0  0  0  0  0  0  0  0  0
   23.2860    1.7840   25.8110 O   0  0  0  0  0  0  0  0  0  0  0  0
   24.2310    3.5350   27.1820 N   0  0  0  0  0  0  0  0  0  0  0  0
   25.3950    2.7980   24.9790 O   0  0  0  0  0  0  0  0  0  0  0  0
   25.1030    4.5950   27.3990 C   0  0  0  0  0  0  0  0  0  0  0  0
   25.1920    4.8820   28.7140 N   0  0  0  0  0  0  0  0  0  0  0  0
   25.7800    5.2510   26.3900 C   0  0  0  0  0  0  0  0  0  0  0  0
   26.0190    5.9030   29.0530 C   0  0  0  0  0  0  0  0  0  0  0  0
   26.6320    6.3080   26.7800 C   0  0  0  0  0  0  0  0  0  0  0  0
   26.7580    6.6450   28.1460 C   0  0  0  0  0  0  0  0  0  0  0  0
  1  2  1  0
  2  3  2  0
  1  4  1  0
  1  5  1  0
  2  6  1  0
  4  7  1  6
  4  8  1  0
  5  9  2  0
  5 10  1  0
  6 11  1  6
  7 12  1  0
  7 13  2  0
  8 14  1  0
  8 15  2  0
  9 16  1  0
 10 17  2  0
  6 18  1  0
 14 19  1  0
 15 20  1  0
 14 21  2  0
 16 22  2  0
 17 22  1  0
 23 12  1  1
 24 18  1  6
 18 25  1  0
 23 26  1  0
 22 27  1  0
 19 28  1  0
 20 29  2  0
 21 29  1  0
 23 30  1  0
 23 31  1  0
 24 32  1  0
 24 33  1  0
 25 34  2  0
 33 34  1  6
 30 35  1  0
 26 36  1  0
 35 36  1  0
 27 37  1  0
 27 38  1  0
 27 39  1  0
 28 40  1  0
 32 41  1  6
 30 42  1  1
 31 43  1  0
 33 44  1  0
 32 45  1  0
 35 46  1  0
 47 40  1  1
 41 48  1  0
 42 49  1  0
 43 49  1  0
 44 50  1  0
 45 50  2  0
 44 51  1  1
 47 52  1  0
 47 53  1  0
 46 54  1  0
 51 55  1  0
 52 56  2  0
 54 57  1  0
 58 53  1  6
 55 59  2  0
 55 60  1  0
 57 61  1  0
 58 62  1  0
 58 63  1  0
 60 64  2  0
 59 65  1  0
 61 66  1  0
 62 67  1  0
 63 68  1  0
 62 69  1  1
 64 70  1  0
 64 71  1  0
 65 71  2  0
 66 72  1  0
 67 73  1  0
 68 73  1  0
 69 74  1  0
 70 75  1  0
 72 76  1  0
 76 77  1  0
 77 78  1  0
 78 79  2  0
 78 80  1  0
 79 81  1  0
 80 82  2  0
 81 83  2  0
 82 83  1  0
 83 84  1  0
 84 85  2  0
 84 86  1  0
 84 87  2  0
 86 88  1  0
 88 89  2  0
 88 90  1  0
 89 91  1  0
 90 92  2  0
 91 93  2  0
 92 93  1  0
M  END
