x3117-x0689
     RDKit          3D

 47 52  0  0  0  0  0  0  0  0999 V2000
    6.7380   -1.3120   22.0090 C   0  0  1  0  0  0  0  0  0  0  0  0
    5.5520   -2.2170   21.3880 C   0  0  0  0  0  0  0  0  0  0  0  0
    4.8270   -2.9470   20.6090 O   0  0  0  0  0  0  0  0  0  0  0  0
    6.5560    0.2200   21.7440 C   0  0  1  0  0  0  0  0  0  0  0  0
    5.9960   -1.9990   23.1430 C   0  0  0  0  0  0  0  0  0  0  0  0
    8.2580   -1.5440   22.4650 C   0  0  0  0  0  0  0  0  0  0  0  0
    6.2600   -2.4180   20.1390 C   0  0  0  0  0  0  0  0  0  0  0  0
    7.7860    1.0250   21.7810 C   0  0  0  0  0  0  0  0  0  0  0  0
    5.3600   -3.2830   22.6710 C   0  0  0  0  0  0  0  0  0  0  0  0
    6.0650    0.5660   20.3910 C   0  0  0  0  0  0  0  0  0  0  0  0
    9.3180   -1.9230   21.7200 C   0  0  0  0  0  0  0  0  0  0  0  0
    8.6890   -1.3050   23.8200 C   0  0  0  0  0  0  0  0  0  0  0  0
    6.5480   -3.8570   20.1710 C   0  0  0  0  0  0  0  0  0  0  0  0
    7.7150    2.3470   22.2080 N   0  0  0  0  0  0  0  0  0  0  0  0
    8.8660    0.5750   21.4030 O   0  0  0  0  0  0  0  0  0  0  0  0
    4.8130    1.3400   20.1390 C   0  0  0  0  0  0  0  0  0  0  0  0
    6.7860    0.1800   19.2500 C   0  0  0  0  0  0  0  0  0  0  0  0
   10.8200   -2.1240   22.0220 C   0  0  0  0  0  0  0  0  0  0  0  0
    9.9730   -1.4340   24.2240 C   0  0  0  0  0  0  0  0  0  0  0  0
    6.2820   -4.2580   21.7730 C   0  0  0  0  0  0  0  0  0  0  0  0
    6.3380    0.5280   17.8970 N   0  0  0  0  0  0  0  0  0  0  0  0
    4.3810    1.6740   18.8970 C   0  0  0  0  0  0  0  0  0  0  0  0
    8.1900    2.8010   23.4760 C   0  0  0  0  0  0  0  0  0  0  0  0
   11.1660   -1.7970   23.5550 C   0  0  0  0  0  0  0  0  0  0  0  0
    5.6380   -5.5940   21.7370 C   0  0  0  0  0  0  0  0  0  0  0  0
    7.4760   -4.6090   22.6930 C   0  0  0  0  0  0  0  0  0  0  0  0
   12.3720   -1.8300   24.1240 C   0  0  0  0  0  0  0  0  0  0  0  0
    5.1230    1.2860   17.7930 C   0  0  0  0  0  0  0  0  0  0  0  0
    9.6600    2.9180   23.9790 C   0  0  0  0  0  0  0  0  0  0  0  0
    8.1760    4.1800   24.1760 C   0  0  0  0  0  0  0  0  0  0  0  0
    4.9260   -5.9300   23.0350 C   0  0  0  0  0  0  0  0  0  0  0  0
    7.0370   -4.9290   24.1080 C   0  0  0  0  0  0  0  0  0  0  0  0
   12.5100   -0.5890   24.9910 C   0  0  0  0  0  0  0  0  0  0  0  0
   13.3850   -1.7400   23.2160 C   0  0  0  0  0  0  0  0  0  0  0  0
   12.6750   -3.0460   24.9940 C   0  0  0  0  0  0  0  0  0  0  0  0
   10.6290    4.0900   23.7050 C   0  0  0  0  0  0  0  0  0  0  0  0
    8.6000    4.5800   22.8970 C   0  0  0  0  0  0  0  0  0  0  0  0
    5.6660   -5.5640   24.2660 N   0  0  0  0  0  0  0  0  0  0  0  0
    4.8290   -5.3040   25.7140 S   0  0  0  0  0  0  0  0  0  0  0  0
    9.8260    5.1490   23.2730 O   0  0  0  0  0  0  0  0  0  0  0  0
    4.0540   -6.5110   25.9370 O   0  0  0  0  0  0  0  0  0  0  0  0
    5.7890   -4.8640   26.6970 O   0  0  0  0  0  0  0  0  0  0  0  0
    3.5720   -4.0320   25.6120 C   0  0  0  0  0  0  0  0  0  0  0  0
    4.0310   -2.3990   25.9510 S   0  0  0  0  0  0  0  0  0  0  0  0
    2.2130   -4.1300   25.3070 C   0  0  0  0  0  0  0  0  0  0  0  0
    1.4830   -2.8190   25.3520 C   0  0  0  0  0  0  0  0  0  0  0  0
    2.4650   -1.7290   25.7220 C   0  0  0  0  0  0  0  0  0  0  0  0
  1  2  1  0
  2  3  2  0
  1  4  1  0
  1  5  1  0
  1  6  1  6
  2  7  1  0
  4  8  1  6
  5  9  1  0
  4 10  1  0
  6 11  2  0
  6 12  1  0
  7 13  1  0
  8 14  1  0
  8 15  2  0
 10 16  2  0
 10 17  1  0
 11 18  1  0
 12 19  2  0
 20  9  1  0
 13 20  1  0
 17 21  2  0
 16 22  1  0
 14 23  1  0
 18 24  2  0
 19 24  1  0
 20 25  1  0
 20 26  1  0
 24 27  1  0
 21 28  1  0
 22 28  2  0
 23 29  1  0
 23 30  1  0
 25 31  1  0
 26 32  1  0
 27 33  1  0
 27 34  1  0
 27 35  1  0
 29 36  1  0
 30 37  1  0
 31 38  1  0
 32 38  1  0
 38 39  1  0
 36 40  1  0
 37 40  1  0
 39 41  2  0
 39 42  2  0
 39 43  1  0
 43 44  1  0
 43 45  2  0
 45 46  1  0
 44 47  1  0
 46 47  2  0
M  END
