x3110-x2776-x0426-x2754
     RDKit          3D

 65 70  0  0  0  0  0  0  0  0999 V2000
    8.0010    1.6140   23.0070 N   0  0  0  0  0  0  0  0  0  0  0  0
    7.7400    0.9130   21.7190 C   0  0  0  0  0  0  0  0  0  0  0  0
    8.4290    1.2510   20.7680 O   0  0  0  0  0  0  0  0  0  0  0  0
    8.5680    2.9710   23.2470 C   0  0  0  0  0  0  0  0  0  0  0  0
    6.6570   -0.1010   21.5420 C   0  0  2  0  0  0  0  0  0  0  0  0
    9.9530    3.3010   23.3520 C   0  0  0  0  0  0  0  0  0  0  0  0
    7.5820    4.1500   23.4130 C   0  0  0  0  0  0  0  0  0  0  0  0
    7.0550   -1.4740   21.5660 N   0  0  0  0  0  0  0  0  0  0  0  0
   11.1750    2.4320   23.2160 C   0  0  2  0  0  0  0  0  0  0  0  0
    6.1150    0.3370   20.1940 C   0  0  0  0  0  0  0  0  0  0  0  0
   10.4030    4.7100   23.6420 C   0  0  0  0  0  0  0  0  0  0  0  0
    8.1230    5.5730   23.6980 C   0  0  0  0  0  0  0  0  0  0  0  0
   11.7970    3.0100   22.2910 O   0  0  0  0  0  0  0  0  0  0  0  0
   10.7500    0.9890   23.0400 C   0  0  0  0  0  0  0  0  0  0  0  0
    6.2240   -2.7850   21.3830 C   0  0  0  0  0  0  0  0  0  0  0  0
    4.7350    1.0530   20.1140 C   0  0  0  0  0  0  0  0  0  0  0  0
    6.9200    0.1060   18.9270 C   0  0  0  0  0  0  0  0  0  0  0  0
    8.3140   -1.5710   22.2820 C   0  0  0  0  0  0  0  0  0  0  0  0
    9.4860    5.8630   23.8230 C   0  0  0  0  0  0  0  0  0  0  0  0
   12.9270    3.7000   22.6350 C   0  0  0  0  0  0  0  0  0  0  0  0
    4.9550   -3.0720   20.9520 O   0  0  0  0  0  0  0  0  0  0  0  0
   10.1230    7.0660   24.0870 O   0  0  0  0  0  0  0  0  0  0  0  0
    3.9460    1.2390   21.2640 C   0  0  0  0  0  0  0  0  0  0  0  0
    6.3860    0.6070   17.6860 N   0  0  0  0  0  0  0  0  0  0  0  0
    4.3090    1.4950   18.8900 C   0  0  0  0  0  0  0  0  0  0  0  0
    9.4800   -2.0370   21.6950 C   0  0  0  0  0  0  0  0  0  0  0  0
    8.4350   -1.1430   23.7700 C   0  0  0  0  0  0  0  0  0  0  0  0
    6.9630   -4.0480   21.8640 C   0  0  1  0  0  0  0  0  0  0  0  0
   13.1450    4.9490   21.8020 C   0  0  0  0  0  0  0  0  0  0  0  0
    8.2200   -4.6670   21.1670 C   0  0  0  0  0  0  0  0  0  0  0  0
   11.4350    6.9810   24.6760 C   0  0  0  0  0  0  0  0  0  0  0  0
    4.4530    2.0930   22.4230 C   0  0  0  0  0  0  0  0  0  0  0  0
    5.0970    1.2910   17.7540 C   0  0  0  0  0  0  0  0  0  0  0  0
   10.7210   -2.1470   22.2890 C   0  0  0  0  0  0  0  0  0  0  0  0
    9.7890   -1.2570   24.4620 C   0  0  0  0  0  0  0  0  0  0  0  0
    7.4830   -3.7520   23.2570 C   0  0  0  0  0  0  0  0  0  0  0  0
    5.8690   -5.1440   22.1990 C   0  0  0  0  0  0  0  0  0  0  0  0
    3.3050    2.6980   23.1110 N   0  0  0  0  0  0  0  0  0  0  0  0
   10.9990   -1.7600   23.7420 C   0  0  0  0  0  0  0  0  0  0  0  0
    6.5310   -2.9850   23.8910 C   0  0  0  0  0  0  0  0  0  0  0  0
    5.3620   -5.0200   23.4920 C   0  0  0  0  0  0  0  0  0  0  0  0
   12.3360   -1.8790   24.3220 C   0  0  0  0  0  0  0  0  0  0  0  0
    2.2460    1.8650   23.7390 C   0  0  0  0  0  0  0  0  0  0  0  0
    5.2380   -3.7070   24.0290 C   0  0  1  0  0  0  0  0  0  0  0  0
   12.7120   -0.8580   25.1440 C   0  0  0  0  0  0  0  0  0  0  0  0
   13.3770   -1.9010   23.1950 C   0  0  0  0  0  0  0  0  0  0  0  0
   12.4040   -3.0990   24.9340 C   0  0  0  0  0  0  0  0  0  0  0  0
    2.2050    0.6430   23.6550 O   0  0  0  0  0  0  0  0  0  0  0  0
    4.7130   -3.6030   25.4910 C   0  0  0  0  0  0  0  0  0  0  0  0
    1.1960    2.5970   24.4990 C   0  0  0  0  0  0  0  0  0  0  0  0
    3.5120   -3.6720   25.6750 O   0  0  0  0  0  0  0  0  0  0  0  0
    5.6080   -3.3650   26.6350 N   0  0  0  0  0  0  0  0  0  0  0  0
    1.4910    3.8920   25.2720 C   0  0  0  0  0  0  0  0  0  0  0  0
   -0.0940    2.0930   24.5120 C   0  0  0  0  0  0  0  0  0  0  0  0
    2.7230    4.4170   25.2920 F   0  0  0  0  0  0  0  0  0  0  0  0
    5.2070   -2.0770   27.2590 C   0  0  0  0  0  0  0  0  0  0  0  0
   -1.2230    2.7670   25.2530 C   0  0  0  0  0  0  0  0  0  0  0  0
    0.4560    4.5540   25.9810 C   0  0  0  0  0  0  0  0  0  0  0  0
    6.9530   -3.8590   26.7890 C   0  0  0  0  0  0  0  0  0  0  0  0
   -0.8470    4.0440   25.9930 C   0  0  0  0  0  0  0  0  0  0  0  0
    7.2090   -4.9960   27.5520 C   0  0  0  0  0  0  0  0  0  0  0  0
    8.0460   -3.2400   26.1950 C   0  0  0  0  0  0  0  0  0  0  0  0
    8.5290   -5.4360   27.6710 C   0  0  0  0  0  0  0  0  0  0  0  0
    9.3600   -3.6520   26.2860 C   0  0  0  0  0  0  0  0  0  0  0  0
    9.6030   -4.7920   27.0570 C   0  0  0  0  0  0  0  0  0  0  0  0
  1  2  1  0
  2  3  2  0
  1  4  1  0
  5  2  1  6
  4  6  2  0
  4  7  1  0
  5  8  1  0
  6  9  1  0
  5 10  1  0
  6 11  1  0
  7 12  2  0
  9 13  1  0
  9 14  1  6
  8 15  1  0
 10 16  1  0
 10 17  2  0
  8 18  1  0
 11 19  2  0
 12 19  1  0
 13 20  1  0
 15 21  2  0
 19 22  1  0
 16 23  1  0
 17 24  1  0
 16 25  2  0
 18 26  2  0
 18 27  1  0
 28 15  1  0
 20 29  1  0
 28 30  1  6
 22 31  1  0
 23 32  1  0
 24 33  2  0
 25 33  1  0
 26 34  1  0
 27 35  2  0
 28 36  1  0
 28 37  1  0
 32 38  1  0
 34 39  2  0
 35 39  1  0
 36 40  1  0
 37 41  1  0
 39 42  1  0
 38 43  1  0
 40 44  1  0
 41 44  1  0
 42 45  1  0
 42 46  1  0
 42 47  1  0
 43 48  2  0
 44 49  1  1
 43 50  1  0
 49 51  2  0
 49 52  1  0
 50 53  2  0
 50 54  1  0
 53 55  1  0
 52 56  1  0
 54 57  2  0
 53 58  1  0
 52 59  1  0
 57 60  1  0
 58 60  2  0
 59 61  2  0
 59 62  1  0
 61 63  1  0
 62 64  2  0
 63 65  2  0
 64 65  1  0
M  END
