x3113-x3115-x0769-x1119-x0540-x3110-x0734-x0731-x0978-x0946
     RDKit          3D

102110  0  0  0  0  0  0  0  0999 V2000
    8.0920    1.3910   23.0890 N   0  0  0  0  0  0  0  0  0  0  0  0
    8.8520    2.7180   23.0480 C   0  0  1  0  0  0  0  0  0  0  0  0
    8.2130    3.9560   23.7850 C   0  0  0  0  0  0  0  0  0  0  0  0
    7.7480    0.7770   21.8350 C   0  0  0  0  0  0  0  0  0  0  0  0
    8.3590    1.1130   20.8080 O   0  0  0  0  0  0  0  0  0  0  0  0
    6.6580   -0.1830   21.6790 C   0  0  2  0  0  0  0  0  0  0  0  0
   10.4130    2.6120   23.0140 C   0  0  0  0  0  0  0  0  0  0  0  0
    7.0980   -1.6470   21.7080 N   0  0  0  0  0  0  0  0  0  0  0  0
    8.5390    5.0910   23.3990 O   0  0  0  0  0  0  0  0  0  0  0  0
    6.1230    0.2910   20.3690 C   0  0  0  0  0  0  0  0  0  0  0  0
   11.3380    3.6830   23.1430 C   0  0  0  0  0  0  0  0  0  0  0  0
   10.9030    1.3140   22.8010 C   0  0  0  0  0  0  0  0  0  0  0  0
   10.8320    5.0400   23.4490 C   0  0  0  0  0  0  0  0  0  0  0  0
    6.3060   -2.9230   21.5110 C   0  0  0  0  0  0  0  0  0  0  0  0
    7.8900    5.6140   22.2790 C   0  0  0  0  0  0  0  0  0  0  0  0
    4.9190    1.1730   20.2640 C   0  0  0  0  0  0  0  0  0  0  0  0
    6.8640   -0.1390   19.0960 C   0  0  0  0  0  0  0  0  0  0  0  0
    8.3590   -1.7180   22.4190 C   0  0  0  0  0  0  0  0  0  0  0  0
   12.2580    1.0540   22.6760 C   0  0  0  0  0  0  0  0  0  0  0  0
   12.8970    3.4600   22.9710 C   0  0  0  0  0  0  0  0  0  0  0  0
   13.9720    4.6450   23.0630 C   0  0  2  0  0  0  0  0  0  0  0  0
    5.0270   -3.2170   21.0870 O   0  0  0  0  0  0  0  0  0  0  0  0
    7.2600   -4.0660   21.9340 C   0  0  2  0  0  0  0  0  0  0  0  0
    4.0940    1.6730   21.3890 C   0  0  0  0  0  0  0  0  0  0  0  0
   10.2810    5.4230   24.5040 O   0  0  0  0  0  0  0  0  0  0  0  0
   11.0370    5.9550   22.4260 O   0  0  0  0  0  0  0  0  0  0  0  0
    6.4970    0.2470   17.8500 N   0  0  0  0  0  0  0  0  0  0  0  0
    4.6290    1.5080   18.9620 C   0  0  0  0  0  0  0  0  0  0  0  0
    9.5050   -1.5220   21.6890 C   0  0  0  0  0  0  0  0  0  0  0  0
    8.5350   -1.9820   23.8930 C   0  0  0  0  0  0  0  0  0  0  0  0
   13.2240    2.0130   22.7350 C   0  0  0  0  0  0  0  0  0  0  0  0
   13.3550    5.8900   22.5340 C   0  0  0  0  0  0  0  0  0  0  0  0
    8.5050   -4.5380   21.1460 C   0  0  0  0  0  0  0  0  0  0  0  0
    4.8190    1.8490   22.6940 C   0  0  0  0  0  0  0  0  0  0  0  0
   15.5200    4.4310   22.5470 C   0  0  0  0  0  0  0  0  0  0  0  0
    5.4260    1.0430   17.7710 C   0  0  0  0  0  0  0  0  0  0  0  0
   10.8130   -1.5660   22.2160 C   0  0  0  0  0  0  0  0  0  0  0  0
    9.9010   -2.0410   24.5320 C   0  0  0  0  0  0  0  0  0  0  0  0
    6.9540   -5.2240   22.9690 C   0  0  2  0  0  0  0  0  0  0  0  0
    4.1470    2.8680   23.2260 N   0  0  0  0  0  0  0  0  0  0  0  0
   16.8160    4.5690   23.5770 C   0  0  0  0  0  0  0  0  0  0  0  0
   11.0090   -1.8410   23.7220 C   0  0  0  0  0  0  0  0  0  0  0  0
    6.3390   -6.2610   22.3300 N   0  0  0  0  0  0  0  0  0  0  0  0
    6.5450   -4.7740   24.4110 C   0  0  1  0  0  0  0  0  0  0  0  0
   12.4160   -1.8820   24.3370 C   0  0  0  0  0  0  0  0  0  0  0  0
    2.8800    2.6200   23.6350 C   0  0  0  0  0  0  0  0  0  0  0  0
    4.9820   -5.2970   25.3930 S   0  0  1  0  0  0  0  0  0  0  0  0
   17.9490    5.4640   23.4440 C   0  0  0  0  0  0  0  0  0  0  0  0
    5.0590   -5.9130   21.9010 C   0  0  0  0  0  0  0  0  0  0  0  0
    7.9550   -4.7680   25.0930 C   0  0  0  0  0  0  0  0  0  0  0  0
   12.6200   -0.7190   25.0700 C   0  0  0  0  0  0  0  0  0  0  0  0
   13.4250   -1.9370   23.1920 C   0  0  0  0  0  0  0  0  0  0  0  0
   12.7470   -3.0740   25.2480 C   0  0  0  0  0  0  0  0  0  0  0  0
    3.9320   -6.6380   24.7680 C   0  0  2  0  0  0  0  0  0  0  0  0
    2.6580    1.7520   24.5040 O   0  0  0  0  0  0  0  0  0  0  0  0
    1.8040    3.2740   23.1430 N   0  0  0  0  0  0  0  0  0  0  0  0
    5.6380   -5.2130   26.9160 O   0  0  0  0  0  0  0  0  0  0  0  0
   19.2770    5.7760   23.9020 C   0  0  0  0  0  0  0  0  0  0  0  0
    3.9650   -3.8540   25.6710 C   0  0  0  0  0  0  0  0  0  0  0  0
    4.2810   -5.2940   22.8180 C   0  0  2  0  0  0  0  0  0  0  0  0
    8.5500   -5.2930   26.2350 C   0  0  0  0  0  0  0  0  0  0  0  0
    2.9780   -7.1550   25.6780 C   0  0  0  0  0  0  0  0  0  0  0  0
    4.7170   -7.6290   24.2660 O   0  0  0  0  0  0  0  0  0  0  0  0
    3.3110   -6.2430   23.5510 C   0  0  2  0  0  0  0  0  0  0  0  0
    3.6260   -4.1880   22.2360 O   0  0  0  0  0  0  0  0  0  0  0  0
   19.7450    7.3090   23.7600 C   0  0  0  0  0  0  0  0  0  0  0  0
    0.5780    3.4080   23.9190 C   0  0  0  0  0  0  0  0  0  0  0  0
    4.6080   -2.6320   25.9390 C   0  0  0  0  0  0  0  0  0  0  0  0
    2.5370   -3.8650   25.6410 C   0  0  0  0  0  0  0  0  0  0  0  0
    7.8640   -6.0690   27.1850 C   0  0  0  0  0  0  0  0  0  0  0  0
    6.5900   -6.0250   27.4660 C   0  0  0  0  0  0  0  0  0  0  0  0
    2.1060   -5.5980   23.5530 N   0  0  0  0  0  0  0  0  0  0  0  0
    5.9300   -2.5150   25.9990 F   0  0  0  0  0  0  0  0  0  0  0  0
   21.0380    7.4530   23.0480 N   0  0  0  0  0  0  0  0  0  0  0  0
    0.5090    4.6400   24.5480 C   0  0  0  0  0  0  0  0  0  0  0  0
   -0.5260    3.1360   23.1120 C   0  0  0  0  0  0  0  0  0  0  0  0
    1.7510   -2.6950   25.8580 C   0  0  0  0  0  0  0  0  0  0  0  0
    3.8530   -1.4750   26.1580 C   0  0  0  0  0  0  0  0  0  0  0  0
    0.9780   -6.1560   22.7410 C   0  0  0  0  0  0  0  0  0  0  0  0
    0.2610   -2.6520   25.8280 C   0  0  0  0  0  0  0  0  0  0  0  0
   -0.7050    4.9110   25.1630 C   0  0  0  0  0  0  0  0  0  0  0  0
   -1.7860    3.3280   23.6980 C   0  0  0  0  0  0  0  0  0  0  0  0
    2.4690   -1.5000   26.1180 C   0  0  0  0  0  0  0  0  0  0  0  0
   21.9160    6.3950   23.2050 C   0  0  0  0  0  0  0  0  0  0  0  0
    1.1530   -7.2240   22.1070 O   0  0  0  0  0  0  0  0  0  0  0  0
   -0.2870   -5.5460   22.6500 C   0  0  0  0  0  0  0  0  0  0  0  0
   -1.9550    4.5360   24.3720 C   0  0  0  0  0  0  0  0  0  0  0  0
   22.8960    5.7760   22.2030 C   0  0  0  0  0  0  0  0  0  0  0  0
   21.8260    5.8730   24.4610 C   0  0  0  0  0  0  0  0  0  0  0  0
   23.6190    4.6530   22.7250 C   0  0  0  0  0  0  0  0  0  0  0  0
   22.5690    4.8090   24.8140 C   0  0  0  0  0  0  0  0  0  0  0  0
   23.4220    4.1930   24.0190 C   0  0  0  0  0  0  0  0  0  0  0  0
   24.1260    2.8090   24.9000 S   0  0  0  0  0  0  0  0  0  0  0  0
   23.0740    1.8030   24.8730 O   0  0  0  0  0  0  0  0  0  0  0  0
   24.2260    3.3110   26.5290 N   0  0  0  0  0  0  0  0  0  0  0  0
   25.4510    2.5430   24.4200 O   0  0  0  0  0  0  0  0  0  0  0  0
   25.0570    4.3900   26.9100 C   0  0  0  0  0  0  0  0  0  0  0  0
   25.0540    4.5630   28.2550 N   0  0  0  0  0  0  0  0  0  0  0  0
   25.7840    5.1720   26.0120 C   0  0  0  0  0  0  0  0  0  0  0  0
   25.8360    5.5990   28.7610 C   0  0  0  0  0  0  0  0  0  0  0  0
   26.5530    6.1920   26.5310 C   0  0  0  0  0  0  0  0  0  0  0  0
   26.5770    6.4000   27.8800 C   0  0  0  0  0  0  0  0  0  0  0  0
  1  2  1  0
  2  3  1  1
  1  4  1  0
  4  5  2  0
  6  4  1  6
  2  7  1  0
  6  8  1  0
  3  9  1  0
  6 10  1  0
  7 11  2  0
  7 12  1  0
 11 13  1  0
  8 14  1  0
  9 15  1  0
 10 16  1  0
 10 17  2  0
  8 18  1  0
 12 19  2  0
 11 20  1  0
 20 21  1  0
 14 22  2  0
 14 23  1  0
 16 24  1  0
 13 25  2  0
 13 26  1  0
 17 27  1  0
 16 28  2  0
 18 29  2  0
 18 30  1  0
 19 31  1  0
 20 31  2  0
 21 32  1  6
 23 33  1  6
 24 34  1  0
 21 35  1  0
 27 36  2  0
 28 36  1  0
 29 37  1  0
 30 38  2  0
 23 39  1  0
 34 40  1  0
 35 41  1  0
 37 42  2  0
 38 42  1  0
 39 43  1  6
 39 44  1  0
 42 45  1  0
 40 46  1  0
 44 47  1  0
 41 48  1  0
 43 49  1  0
 44 50  1  1
 45 51  1  0
 45 52  1  0
 45 53  1  0
 47 54  1  0
 46 55  2  0
 46 56  1  0
 47 57  1  0
 48 58  1  0
 47 59  1  1
 49 60  1  0
 50 61  2  0
 54 62  1  1
 54 63  1  0
 54 64  1  0
 60 64  1  0
 60 65  1  6
 58 66  1  0
 56 67  1  0
 59 68  2  0
 59 69  1  0
 61 70  1  0
 57 71  1  0
 70 71  2  0
 64 72  1  1
 68 73  1  0
 66 74  1  0
 67 75  1  0
 67 76  1  0
 69 77  2  0
 68 78  1  0
 72 79  1  0
 77 80  1  0
 75 81  1  0
 76 82  1  0
 77 83  1  0
 78 83  2  0
 74 84  1  0
 79 85  2  0
 79 86  1  0
 81 87  1  0
 82 87  1  0
 84 88  2  0
 84 89  1  0
 88 90  1  0
 89 91  2  0
 90 92  2  0
 91 92  1  0
 92 93  1  0
 93 94  2  0
 93 95  1  0
 93 96  2  0
 95 97  1  0
 97 98  2  0
 97 99  1  0
 98100  1  0
 99101  2  0
100102  2  0
101102  1  0
M  END
