x3113-x3115-x0769-x0540-x3110-x0731-x0978-x0946
     RDKit          3D

 77 83  0  0  0  0  0  0  0  0999 V2000
    7.9380    1.3580   23.3110 N   0  0  0  0  0  0  0  0  0  0  0  0
    8.6370    2.6570   23.1080 C   0  0  1  0  0  0  0  0  0  0  0  0
    8.1550    3.7490   24.0130 C   0  0  0  0  0  0  0  0  0  0  0  0
    7.6870    0.7280   21.9850 C   0  0  0  0  0  0  0  0  0  0  0  0
    8.5190    1.1640   20.8870 O   0  0  0  0  0  0  0  0  0  0  0  0
    6.6120   -0.1920   21.6850 C   0  0  2  0  0  0  0  0  0  0  0  0
   10.1240    2.5270   23.0770 C   0  0  0  0  0  0  0  0  0  0  0  0
    6.9420   -1.6450   21.8920 N   0  0  0  0  0  0  0  0  0  0  0  0
    8.4060    5.0570   23.5850 O   0  0  0  0  0  0  0  0  0  0  0  0
    6.1750    0.2250   20.3030 C   0  0  0  0  0  0  0  0  0  0  0  0
   11.0020    3.6010   23.1930 C   0  0  0  0  0  0  0  0  0  0  0  0
   10.6520    1.2800   22.8920 C   0  0  0  0  0  0  0  0  0  0  0  0
   10.6940    5.0140   23.4350 C   0  0  0  0  0  0  0  0  0  0  0  0
    6.2280   -2.9230   21.4770 C   0  0  0  0  0  0  0  0  0  0  0  0
    7.8850    5.4940   22.3220 C   0  0  0  0  0  0  0  0  0  0  0  0
    5.0520    1.0190   20.1600 C   0  0  0  0  0  0  0  0  0  0  0  0
    6.8610   -0.1300   19.1570 C   0  0  0  0  0  0  0  0  0  0  0  0
    8.2870   -1.7160   22.4750 C   0  0  0  0  0  0  0  0  0  0  0  0
   12.0130    1.1150   22.7940 C   0  0  0  0  0  0  0  0  0  0  0  0
   12.3730    3.4400   23.0700 C   0  0  0  0  0  0  0  0  0  0  0  0
   13.2440    4.6260   23.1490 C   0  0  0  0  0  0  0  0  0  0  0  0
    4.9460   -3.1300   21.1540 O   0  0  0  0  0  0  0  0  0  0  0  0
    7.1720   -4.1120   21.5030 C   0  0  2  0  0  0  0  0  0  0  0  0
    4.3790    1.3460   21.3270 C   0  0  0  0  0  0  0  0  0  0  0  0
   10.1630    5.2850   24.5680 O   0  0  0  0  0  0  0  0  0  0  0  0
   10.9630    6.0140   22.5430 O   0  0  0  0  0  0  0  0  0  0  0  0
    6.3910    0.3550   17.8470 N   0  0  0  0  0  0  0  0  0  0  0  0
    4.5930    1.4850   18.9350 C   0  0  0  0  0  0  0  0  0  0  0  0
    9.3600   -1.8780   21.6490 C   0  0  0  0  0  0  0  0  0  0  0  0
    8.4930   -1.5930   23.8580 C   0  0  0  0  0  0  0  0  0  0  0  0
   12.8500    2.1740   22.8700 C   0  0  0  0  0  0  0  0  0  0  0  0
   13.1930    5.3290   21.7680 C   0  0  0  0  0  0  0  0  0  0  0  0
    6.8870   -3.7640   20.0480 C   0  0  0  0  0  0  0  0  0  0  0  0
    5.0420    2.2810   22.1060 C   0  0  0  0  0  0  0  0  0  0  0  0
    5.2590    1.1670   17.7640 C   0  0  0  0  0  0  0  0  0  0  0  0
   10.8210   -1.9350   22.1280 C   0  0  0  0  0  0  0  0  0  0  0  0
    9.9270   -1.6320   24.4340 C   0  0  0  0  0  0  0  0  0  0  0  0
    6.7700   -5.3720   21.9920 N   0  0  0  0  0  0  0  0  0  0  0  0
    4.1740    3.1590   22.8790 N   0  0  0  0  0  0  0  0  0  0  0  0
   11.0460   -1.7940   23.6290 C   0  0  0  0  0  0  0  0  0  0  0  0
    5.4590   -5.7960   21.9360 C   0  0  0  0  0  0  0  0  0  0  0  0
    7.4760   -5.6120   23.1470 C   0  0  0  0  0  0  0  0  0  0  0  0
   12.4510   -1.8260   24.1190 C   0  0  0  0  0  0  0  0  0  0  0  0
    2.9170    2.6700   23.4540 C   0  0  0  0  0  0  0  0  0  0  0  0
    4.6330   -5.4960   23.1280 C   0  0  2  0  0  0  0  0  0  0  0  0
    6.7010   -5.2470   24.3860 C   0  0  0  0  0  0  0  0  0  0  0  0
   12.6350   -0.6400   24.8180 C   0  0  0  0  0  0  0  0  0  0  0  0
   13.4300   -1.9380   23.0060 C   0  0  0  0  0  0  0  0  0  0  0  0
   12.7810   -2.9840   25.0400 C   0  0  0  0  0  0  0  0  0  0  0  0
    3.3470   -6.2960   23.3180 C   0  0  2  0  0  0  0  0  0  0  0  0
    4.2310   -4.1650   22.9170 O   0  0  0  0  0  0  0  0  0  0  0  0
    2.9170    1.7840   24.3420 O   0  0  0  0  0  0  0  0  0  0  0  0
    1.7370    3.1750   23.0350 N   0  0  0  0  0  0  0  0  0  0  0  0
    5.4140   -5.6220   24.3650 N   0  0  0  0  0  0  0  0  0  0  0  0
    2.1390   -5.5190   23.0360 N   0  0  0  0  0  0  0  0  0  0  0  0
    3.5240   -6.7800   24.7530 C   0  0  1  0  0  0  0  0  0  0  0  0
    4.4630   -5.5590   25.6000 S   0  0  0  0  0  0  0  0  0  0  0  0
    0.5850    3.3110   23.9000 C   0  0  0  0  0  0  0  0  0  0  0  0
    2.2540   -7.2390   25.1360 C   0  0  0  0  0  0  0  0  0  0  0  0
    4.1040   -7.8780   24.6800 O   0  0  0  0  0  0  0  0  0  0  0  0
    0.8680   -6.1120   22.5710 C   0  0  0  0  0  0  0  0  0  0  0  0
    5.4450   -4.8430   26.3750 O   0  0  0  0  0  0  0  0  0  0  0  0
    0.5890    4.6050   24.6440 C   0  0  0  0  0  0  0  0  0  0  0  0
   -0.6330    3.0710   23.0670 C   0  0  0  0  0  0  0  0  0  0  0  0
    3.4450   -4.1470   25.7640 C   0  0  0  0  0  0  0  0  0  0  0  0
    0.8190   -7.3800   21.9180 O   0  0  0  0  0  0  0  0  0  0  0  0
   -0.3700   -5.4890   22.7150 C   0  0  0  0  0  0  0  0  0  0  0  0
   -0.8170    5.0400   25.1490 C   0  0  0  0  0  0  0  0  0  0  0  0
   -1.8480    3.2910   23.7330 C   0  0  0  0  0  0  0  0  0  0  0  0
    4.1700   -2.9190   26.0030 C   0  0  0  0  0  0  0  0  0  0  0  0
    2.0890   -4.1080   25.6840 C   0  0  0  0  0  0  0  0  0  0  0  0
    5.5200   -2.8040   26.1070 F   0  0  0  0  0  0  0  0  0  0  0  0
   -1.9420    4.6040   24.4410 C   0  0  0  0  0  0  0  0  0  0  0  0
    1.4360   -2.8630   25.8360 C   0  0  0  0  0  0  0  0  0  0  0  0
    3.5370   -1.7060   26.1530 C   0  0  0  0  0  0  0  0  0  0  0  0
   -0.0280   -2.7190   25.7600 C   0  0  0  0  0  0  0  0  0  0  0  0
    2.1780   -1.5720   26.0870 C   0  0  0  0  0  0  0  0  0  0  0  0
  1  2  1  0
  2  3  1  1
  1  4  1  0
  4  5  2  0
  6  4  1  6
  2  7  1  0
  6  8  1  0
  3  9  1  0
  6 10  1  0
  7 11  2  0
  7 12  1  0
 11 13  1  0
  8 14  1  0
  9 15  1  0
 10 16  1  0
 10 17  2  0
  8 18  1  0
 12 19  2  0
 11 20  1  0
 20 21  1  0
 14 22  2  0
 14 23  1  0
 16 24  1  0
 13 25  2  0
 13 26  1  0
 17 27  1  0
 16 28  2  0
 18 29  2  0
 18 30  1  0
 19 31  1  0
 20 31  2  0
 21 32  1  0
 23 33  1  6
 24 34  1  0
 27 35  2  0
 28 35  1  0
 29 36  1  0
 30 37  2  0
 23 38  1  0
 34 39  1  0
 36 40  2  0
 37 40  1  0
 38 41  1  0
 38 42  1  0
 40 43  1  0
 39 44  1  0
 41 45  1  0
 42 46  1  0
 43 47  1  0
 43 48  1  0
 43 49  1  0
 45 50  1  0
 45 51  1  6
 44 52  2  0
 44 53  1  0
 45 54  1  0
 46 54  1  0
 50 55  1  1
 50 56  1  0
 54 57  1  0
 56 57  1  0
 53 58  1  0
 56 59  1  1
 56 60  1  0
 55 61  1  0
 57 62  2  0
 58 63  1  0
 58 64  1  0
 57 65  1  0
 61 66  2  0
 61 67  1  0
 63 68  1  0
 64 69  1  0
 65 70  2  0
 65 71  1  0
 70 72  1  0
 68 73  1  0
 69 73  1  0
 71 74  2  0
 70 75  1  0
 74 76  1  0
 74 77  1  0
 75 77  2  0
M  END
