x3113-x0769-x1311
     RDKit          3D

 53 57  0  0  0  0  0  0  0  0999 V2000
    6.9020   -1.4370   22.0890 N   0  0  0  0  0  0  0  0  0  0  0  0
    6.1590   -2.6530   21.5850 C   0  0  0  0  0  0  0  0  0  0  0  0
    4.8670   -3.0420   21.2450 O   0  0  0  0  0  0  0  0  0  0  0  0
    6.6580    0.0080   21.7470 C   0  0  1  0  0  0  0  0  0  0  0  0
    8.2440   -1.5820   22.6990 C   0  0  0  0  0  0  0  0  0  0  0  0
    7.2640   -3.6340   21.4920 C   0  0  2  0  0  0  0  0  0  0  0  0
    7.8140    0.8760   21.9150 C   0  0  0  0  0  0  0  0  0  0  0  0
    6.1360    0.3750   20.3830 C   0  0  0  0  0  0  0  0  0  0  0  0
    9.3820   -1.4840   21.8620 C   0  0  0  0  0  0  0  0  0  0  0  0
    8.4640   -1.7970   24.0760 C   0  0  0  0  0  0  0  0  0  0  0  0
    7.1090   -4.6010   20.3820 C   0  0  0  0  0  0  0  0  0  0  0  0
    8.0820    1.3430   23.1690 N   0  0  0  0  0  0  0  0  0  0  0  0
    8.5380    1.2310   20.9740 O   0  0  0  0  0  0  0  0  0  0  0  0
    4.9930    1.1790   20.1670 C   0  0  0  0  0  0  0  0  0  0  0  0
    6.8410   -0.0890   19.2580 C   0  0  0  0  0  0  0  0  0  0  0  0
   10.6650   -1.5870   22.3670 C   0  0  0  0  0  0  0  0  0  0  0  0
    9.8230   -1.8860   24.4990 C   0  0  0  0  0  0  0  0  0  0  0  0
    7.6750   -4.1830   22.8510 C   0  0  0  0  0  0  0  0  0  0  0  0
    9.1070    2.2400   23.2670 C   0  0  0  0  0  0  0  0  0  0  0  0
    6.3910    0.2760   17.9010 N   0  0  0  0  0  0  0  0  0  0  0  0
    4.5300    1.5480   18.9230 C   0  0  0  0  0  0  0  0  0  0  0  0
   10.9560   -1.7850   23.7020 C   0  0  0  0  0  0  0  0  0  0  0  0
    9.1130   -4.4060   23.0310 C   0  0  0  0  0  0  0  0  0  0  0  0
    6.8470   -4.4680   23.9030 C   0  0  0  0  0  0  0  0  0  0  0  0
   10.4180    1.7900   23.1930 C   0  0  0  0  0  0  0  0  0  0  0  0
   12.4100   -1.8580   24.2180 C   0  0  0  0  0  0  0  0  0  0  0  0
    5.2030    1.1210   17.8250 C   0  0  0  0  0  0  0  0  0  0  0  0
    9.6280   -4.8820   24.1830 C   0  0  0  0  0  0  0  0  0  0  0  0
    7.4300   -4.9660   25.1060 C   0  0  0  0  0  0  0  0  0  0  0  0
    5.2890   -4.3090   23.9180 C   0  0  0  0  0  0  0  0  0  0  0  0
   11.3560    2.8050   23.4540 C   0  0  0  0  0  0  0  0  0  0  0  0
   13.3370   -1.9570   23.2070 C   0  0  0  0  0  0  0  0  0  0  0  0
   12.7060   -3.0310   25.1730 C   0  0  0  0  0  0  0  0  0  0  0  0
   12.5920   -0.6640   24.9590 C   0  0  0  0  0  0  0  0  0  0  0  0
    8.8280   -5.1780   25.2470 C   0  0  0  0  0  0  0  0  0  0  0  0
    4.6080   -5.5650   24.5240 C   0  0  2  0  0  0  0  0  0  0  0  0
   11.6240    3.6420   22.3990 O   0  0  0  0  0  0  0  0  0  0  0  0
    4.6280   -5.4100   26.3300 S   0  0  0  0  0  0  0  0  0  0  0  0
    5.1230   -6.6160   23.8280 C   0  0  0  0  0  0  0  0  0  0  0  0
    2.9050   -6.1280   24.2510 S   0  0  1  0  0  0  0  0  0  0  0  0
   12.8270    4.3960   22.5690 C   0  0  0  0  0  0  0  0  0  0  0  0
    5.9100   -5.2790   26.8880 O   0  0  0  0  0  0  0  0  0  0  0  0
    2.0010   -5.0340   24.1200 O   0  0  0  0  0  0  0  0  0  0  0  0
    3.8270   -6.4230   26.9070 O   0  0  0  0  0  0  0  0  0  0  0  0
    4.4860   -6.6790   22.6010 C   0  0  0  0  0  0  0  0  0  0  0  0
    3.1670   -6.4950   22.7230 C   0  0  0  0  0  0  0  0  0  0  0  0
    3.6880   -3.8870   26.3330 C   0  0  0  0  0  0  0  0  0  0  0  0
    4.3320   -2.5120   26.3710 C   0  0  0  0  0  0  0  0  0  0  0  0
    2.1620   -3.9670   26.2730 C   0  0  0  0  0  0  0  0  0  0  0  0
    5.6910   -2.3060   26.4250 F   0  0  0  0  0  0  0  0  0  0  0  0
    1.4180   -2.8040   26.2470 C   0  0  0  0  0  0  0  0  0  0  0  0
    3.5300   -1.3670   26.3440 C   0  0  0  0  0  0  0  0  0  0  0  0
    2.1320   -1.4460   26.2830 C   0  0  0  0  0  0  0  0  0  0  0  0
  1  2  1  0
  2  3  2  0
  1  4  1  0
  1  5  1  0
  2  6  1  0
  4  7  1  6
  4  8  1  0
  5  9  2  0
  5 10  1  0
  6 11  1  6
  7 12  1  0
  7 13  2  0
  8 14  2  0
  8 15  1  0
  9 16  1  0
 10 17  2  0
  6 18  1  0
 12 19  1  0
 15 20  2  0
 14 21  1  0
 16 22  2  0
 17 22  1  0
 18 23  2  0
 18 24  1  0
 19 25  1  0
 22 26  1  0
 20 27  1  0
 21 27  2  0
 23 28  1  0
 24 29  2  0
 24 30  1  0
 25 31  1  0
 26 32  1  0
 26 33  1  0
 26 34  1  0
 28 35  2  0
 29 35  1  0
 36 30  1  6
 31 37  1  0
 36 38  1  0
 36 39  1  0
 36 40  1  0
 37 41  1  0
 38 42  2  0
 40 43  1  6
 38 44  2  0
 39 45  1  0
 40 46  1  0
 45 46  2  0
 38 47  1  0
 47 48  2  0
 47 49  1  0
 48 50  1  0
 49 51  2  0
 48 52  1  0
 51 53  1  0
 52 53  2  0
M  END
