x3115-x0771
     RDKit          3D

 47 51  0  0  0  0  0  0  0  0999 V2000
    6.7850   -1.3980   21.9840 C   0  0  1  0  0  0  0  0  0  0  0  0
    5.6220   -2.3360   21.4500 C   0  0  0  0  0  0  0  0  0  0  0  0
    4.9360   -3.1040   20.7660 O   0  0  0  0  0  0  0  0  0  0  0  0
    6.4940   -0.0250   21.9260 C   0  0  1  0  0  0  0  0  0  0  0  0
    6.3230   -2.3450   23.0690 C   0  0  0  0  0  0  0  0  0  0  0  0
    8.2540   -1.5760   22.4350 C   0  0  0  0  0  0  0  0  0  0  0  0
    6.4490   -2.5660   20.2640 C   0  0  0  0  0  0  0  0  0  0  0  0
    7.5850    0.8830   22.0660 C   0  0  0  0  0  0  0  0  0  0  0  0
    6.0250    0.4110   20.5140 C   0  0  0  0  0  0  0  0  0  0  0  0
    9.2770   -1.9080   21.6050 C   0  0  0  0  0  0  0  0  0  0  0  0
    8.6410   -1.3730   23.8580 C   0  0  0  0  0  0  0  0  0  0  0  0
    6.9830   -3.7920   22.9010 C   0  0  2  0  0  0  0  0  0  0  0  0
    6.7550   -4.0120   20.1960 C   0  0  0  0  0  0  0  0  0  0  0  0
    7.5630    1.6740   23.2030 N   0  0  0  0  0  0  0  0  0  0  0  0
    8.4850    0.9880   21.2250 O   0  0  0  0  0  0  0  0  0  0  0  0
    4.8580    1.1380   20.3640 C   0  0  0  0  0  0  0  0  0  0  0  0
    6.7330    0.1180   19.3490 C   0  0  0  0  0  0  0  0  0  0  0  0
   10.7370   -2.0530   22.1060 C   0  0  0  0  0  0  0  0  0  0  0  0
   10.0110   -1.5010   24.3840 C   0  0  0  0  0  0  0  0  0  0  0  0
    6.8340   -4.5930   21.5990 N   0  0  0  0  0  0  0  0  0  0  0  0
    6.9310   -4.6240   24.1520 C   0  0  0  0  0  0  0  0  0  0  0  0
    8.4340    2.8590   23.3150 C   0  0  0  0  0  0  0  0  0  0  0  0
    6.3890    0.4850   18.0780 N   0  0  0  0  0  0  0  0  0  0  0  0
    4.4680    1.5540   18.9550 C   0  0  0  0  0  0  0  0  0  0  0  0
   11.1260   -1.8620   23.4380 C   0  0  0  0  0  0  0  0  0  0  0  0
    5.9300   -5.7870   21.7960 C   0  0  0  0  0  0  0  0  0  0  0  0
    5.7710   -5.5490   24.1790 N   0  0  0  0  0  0  0  0  0  0  0  0
    7.9500    4.0400   22.4550 C   0  0  0  0  0  0  0  0  0  0  0  0
   12.5600   -1.9920   23.8800 C   0  0  0  0  0  0  0  0  0  0  0  0
    5.0040   -5.8110   25.6320 S   0  0  0  0  0  0  0  0  0  0  0  0
    5.2670    1.2080   17.8320 C   0  0  0  0  0  0  0  0  0  0  0  0
    5.0430   -5.7260   22.8790 C   0  0  0  0  0  0  0  0  0  0  0  0
    8.5590    5.1480   22.9730 O   0  0  0  0  0  0  0  0  0  0  0  0
   13.3750   -2.4920   22.6960 C   0  0  0  0  0  0  0  0  0  0  0  0
   12.7660   -2.8940   25.0130 C   0  0  0  0  0  0  0  0  0  0  0  0
   13.0020   -0.7940   24.2860 C   0  0  0  0  0  0  0  0  0  0  0  0
    4.4120   -7.1280   25.5770 O   0  0  0  0  0  0  0  0  0  0  0  0
    5.9170   -5.4710   26.6940 O   0  0  0  0  0  0  0  0  0  0  0  0
    3.7190   -4.5850   25.7470 C   0  0  0  0  0  0  0  0  0  0  0  0
    8.2590    6.3190   22.2120 C   0  0  0  0  0  0  0  0  0  0  0  0
    2.2590   -4.8500   25.3590 C   0  0  0  0  0  0  0  0  0  0  0  0
    4.1230   -3.1980   26.2810 C   0  0  0  0  0  0  0  0  0  0  0  0
    1.7480   -6.1540   24.8260 C   0  0  0  0  0  0  0  0  0  0  0  0
    1.2810   -3.6800   25.5510 C   0  0  0  0  0  0  0  0  0  0  0  0
    3.0470   -2.1010   26.4280 C   0  0  0  0  0  0  0  0  0  0  0  0
    1.7110   -2.3200   26.0930 C   0  0  0  0  0  0  0  0  0  0  0  0
    0.7050   -1.2220   26.2720 C   0  0  0  0  0  0  0  0  0  0  0  0
  1  2  1  0
  2  3  2  0
  1  4  1  0
  1  5  1  0
  1  6  1  6
  2  7  1  0
  4  8  1  6
  4  9  1  0
  6 10  2  0
  6 11  1  0
 12  5  1  1
  7 13  1  0
  8 14  1  0
  8 15  2  0
  9 16  2  0
  9 17  1  0
 10 18  1  0
 11 19  2  0
 12 20  1  0
 13 20  1  0
 12 21  1  0
 14 22  1  0
 17 23  2  0
 16 24  1  0
 18 25  2  0
 19 25  1  0
 20 26  1  0
 21 27  1  0
 22 28  1  0
 25 29  1  0
 27 30  1  0
 23 31  1  0
 24 31  2  0
 26 32  1  0
 27 32  1  0
 28 33  1  0
 29 34  1  0
 29 35  1  0
 29 36  1  0
 30 37  2  0
 30 38  2  0
 30 39  1  0
 33 40  1  0
 39 41  2  0
 39 42  1  0
 41 43  1  0
 41 44  1  0
 42 45  2  0
 44 46  2  0
 45 46  1  0
 46 47  1  0
M  END
