x3113-x0771-x3117
     RDKit          3D

 53 59  0  0  0  0  0  0  0  0999 V2000
    6.8590   -1.6070   22.1000 C   0  0  1  0  0  0  0  0  0  0  0  0
    5.8750   -2.5450   21.1430 C   0  0  0  0  0  0  0  0  0  0  0  0
    4.7050   -2.9870   21.4380 O   0  0  0  0  0  0  0  0  0  0  0  0
    6.5970   -0.1020   22.0580 C   0  0  1  0  0  0  0  0  0  0  0  0
    6.3850   -2.5770   23.1920 C   0  0  0  0  0  0  0  0  0  0  0  0
    8.3690   -1.6940   22.5170 C   0  0  0  0  0  0  0  0  0  0  0  0
    6.3030   -3.0710   19.8780 C   0  0  0  0  0  0  0  0  0  0  0  0
    7.8940    0.7380   22.2900 C   0  0  0  0  0  0  0  0  0  0  0  0
    6.0710    0.3540   20.6370 C   0  0  0  0  0  0  0  0  0  0  0  0
    9.4890   -2.0360   21.7550 C   0  0  0  0  0  0  0  0  0  0  0  0
    8.6070   -1.3800   23.8570 C   0  0  0  0  0  0  0  0  0  0  0  0
    7.1320   -3.9640   22.9050 C   0  0  2  0  0  0  0  0  0  0  0  0
    7.4550   -3.8720   20.3330 C   0  0  0  0  0  0  0  0  0  0  0  0
    8.2500    1.6520   23.3540 N   0  0  0  0  0  0  0  0  0  0  0  0
    8.8330    0.5810   21.2270 O   0  0  0  0  0  0  0  0  0  0  0  0
    4.8430    1.1540   20.4020 C   0  0  0  0  0  0  0  0  0  0  0  0
    6.8260   -0.0170   19.5730 C   0  0  0  0  0  0  0  0  0  0  0  0
   10.7610   -2.0830   22.2330 C   0  0  0  0  0  0  0  0  0  0  0  0
   10.0420   -1.4160   24.4620 C   0  0  0  0  0  0  0  0  0  0  0  0
    7.0450   -4.7040   21.5760 N   0  0  0  0  0  0  0  0  0  0  0  0
    6.8080   -4.8300   24.0760 C   0  0  0  0  0  0  0  0  0  0  0  0
    6.5520    0.2920   18.2690 N   0  0  0  0  0  0  0  0  0  0  0  0
    4.5570    1.4860   18.9680 C   0  0  0  0  0  0  0  0  0  0  0  0
   11.0950   -1.8030   23.5100 C   0  0  0  0  0  0  0  0  0  0  0  0
    9.3620    2.5570   23.1390 C   0  0  2  0  0  0  0  0  0  0  0  0
    5.8230   -5.5490   21.5590 C   0  0  0  0  0  0  0  0  0  0  0  0
    5.4550   -5.3860   23.9730 N   0  0  0  0  0  0  0  0  0  0  0  0
   10.5840    1.5750   22.9180 C   0  0  0  0  0  0  0  0  0  0  0  0
   12.5360   -1.8560   24.0170 C   0  0  0  0  0  0  0  0  0  0  0  0
    4.8620   -5.7800   25.5060 S   0  0  0  0  0  0  0  0  0  0  0  0
    5.3470    1.0920   17.9630 C   0  0  0  0  0  0  0  0  0  0  0  0
    9.9940    3.5880   24.0060 C   0  0  1  0  0  0  0  0  0  0  0  0
    8.9840    3.2680   22.0230 C   0  0  0  0  0  0  0  0  0  0  0  0
    5.3090   -6.1960   22.8900 C   0  0  0  0  0  0  0  0  0  0  0  0
   11.1970    3.7850   23.1730 N   0  0  0  0  0  0  0  0  0  0  0  0
   11.6570    2.4100   23.0090 C   0  0  0  0  0  0  0  0  0  0  0  0
   13.3880   -2.1620   22.9750 C   0  0  0  0  0  0  0  0  0  0  0  0
   12.7860   -2.9170   25.0210 C   0  0  0  0  0  0  0  0  0  0  0  0
   12.8080   -0.6110   24.6210 C   0  0  0  0  0  0  0  0  0  0  0  0
    4.2610   -7.0920   25.4570 O   0  0  0  0  0  0  0  0  0  0  0  0
    5.8930   -5.4940   26.4800 O   0  0  0  0  0  0  0  0  0  0  0  0
    9.2070    4.7210   24.3330 O   0  0  0  0  0  0  0  0  0  0  0  0
    8.1120    4.2830   22.2450 C   0  0  0  0  0  0  0  0  0  0  0  0
    3.6190   -4.5300   25.7400 C   0  0  0  0  0  0  0  0  0  0  0  0
   12.3420    4.6730   23.4610 C   0  0  0  0  0  0  0  0  0  0  0  0
    8.8210    5.3300   23.1170 C   0  0  0  0  0  0  0  0  0  0  0  0
    2.2530   -4.7660   25.4470 C   0  0  0  0  0  0  0  0  0  0  0  0
    4.0250   -3.2910   26.2250 C   0  0  0  0  0  0  0  0  0  0  0  0
    1.7190   -6.0940   24.9050 C   0  0  0  0  0  0  0  0  0  0  0  0
    1.3710   -3.7600   25.6580 C   0  0  0  0  0  0  0  0  0  0  0  0
    2.9930   -2.1680   26.4530 C   0  0  0  0  0  0  0  0  0  0  0  0
    1.6690   -2.4050   26.1740 C   0  0  0  0  0  0  0  0  0  0  0  0
    0.7260   -1.4790   26.3590 C   0  0  0  0  0  0  0  0  0  0  0  0
  1  2  1  0
  2  3  2  0
  1  4  1  0
  1  5  1  0
  1  6  1  6
  2  7  1  0
  4  8  1  6
  4  9  1  0
  6 10  2  0
  6 11  1  0
 12  5  1  6
  7 13  1  0
  8 14  1  0
  8 15  2  0
  9 16  2  0
  9 17  1  0
 10 18  1  0
 11 19  2  0
 12 20  1  0
 13 20  1  0
 12 21  1  0
 17 22  2  0
 16 23  1  0
 18 24  2  0
 19 24  1  0
 25 14  1  1
 20 26  1  0
 21 27  1  0
 25 28  1  0
 24 29  1  0
 27 30  1  0
 22 31  1  0
 23 31  2  0
 25 32  1  0
 25 33  1  0
 26 34  1  0
 27 34  1  0
 32 35  1  0
 28 36  1  0
 35 36  1  0
 29 37  1  0
 29 38  1  0
 29 39  1  0
 30 40  2  0
 30 41  2  0
 32 42  1  6
 33 43  1  0
 30 44  1  0
 35 45  1  0
 42 46  1  0
 43 46  1  0
 44 47  2  0
 44 48  1  0
 47 49  1  0
 47 50  1  0
 48 51  2  0
 50 52  2  0
 51 52  1  0
 52 53  1  0
M  END
