x3110-x1348-x1380
     RDKit          3D

 50 54  0  0  0  0  0  0  0  0999 V2000
    7.9590    0.9840   23.2170 N   0  0  0  0  0  0  0  0  0  0  0  0
    8.7450    2.1810   23.6130 C   0  0  0  0  0  0  0  0  0  0  0  0
   10.2610    1.9560   23.5300 C   0  0  0  0  0  0  0  0  0  0  0  0
    7.7370    0.7020   21.9130 C   0  0  0  0  0  0  0  0  0  0  0  0
    8.4530    1.2740   21.0540 O   0  0  0  0  0  0  0  0  0  0  0  0
    6.6520   -0.2130   21.6160 C   0  0  2  0  0  0  0  0  0  0  0  0
    6.9350   -1.6910   21.7020 N   0  0  0  0  0  0  0  0  0  0  0  0
   11.0660    3.2610   23.4000 C   0  0  0  0  0  0  0  0  0  0  0  0
    6.1370    0.2730   20.2860 C   0  0  0  0  0  0  0  0  0  0  0  0
   11.9200    3.1800   22.5250 O   0  0  0  0  0  0  0  0  0  0  0  0
   10.8430    4.4220   24.1880 O   0  0  0  0  0  0  0  0  0  0  0  0
    6.0830   -2.9100   21.3910 C   0  0  0  0  0  0  0  0  0  0  0  0
    4.9290    1.1660   20.1680 C   0  0  0  0  0  0  0  0  0  0  0  0
    6.8250   -0.1010   19.1430 C   0  0  0  0  0  0  0  0  0  0  0  0
    8.1890   -1.8590   22.3820 C   0  0  0  0  0  0  0  0  0  0  0  0
   12.3150    4.4430   21.9650 C   0  0  0  0  0  0  0  0  0  0  0  0
    4.8270   -2.9660   21.1010 O   0  0  0  0  0  0  0  0  0  0  0  0
    6.6750   -4.2980   21.4310 C   0  0  1  0  0  0  0  0  0  0  0  0
    6.3640    0.4010   17.8290 N   0  0  0  0  0  0  0  0  0  0  0  0
    4.4060    1.7100   18.8470 C   0  0  0  0  0  0  0  0  0  0  0  0
    9.3440   -1.4090   21.7450 C   0  0  0  0  0  0  0  0  0  0  0  0
    8.3670   -2.4290   23.6530 C   0  0  0  0  0  0  0  0  0  0  0  0
   13.3690    5.1300   22.8400 C   0  0  0  0  0  0  0  0  0  0  0  0
    7.2840   -3.4970   20.1840 C   0  0  0  0  0  0  0  0  0  0  0  0
    5.1880    1.2730   17.7920 C   0  0  0  0  0  0  0  0  0  0  0  0
   10.7050   -1.5000   22.3800 C   0  0  0  0  0  0  0  0  0  0  0  0
    9.6330   -2.5300   24.2660 C   0  0  0  0  0  0  0  0  0  0  0  0
    7.2240   -4.7000   22.6950 N   0  0  0  0  0  0  0  0  0  0  0  0
   10.9070   -2.0370   23.6340 C   0  0  0  0  0  0  0  0  0  0  0  0
    6.2740   -5.3780   23.7050 C   0  0  1  0  0  0  0  0  0  0  0  0
    7.7380   -5.9330   22.3130 C   0  0  0  0  0  0  0  0  0  0  0  0
   12.2870   -2.0810   24.2700 C   0  0  0  0  0  0  0  0  0  0  0  0
    6.1730   -4.8380   25.0130 C   0  0  2  0  0  0  0  0  0  0  0  0
    5.1370   -5.9740   23.1110 C   0  0  1  0  0  0  0  0  0  0  0  0
    6.3860   -7.0630   22.4200 S   0  0  0  0  0  0  0  0  0  0  0  0
   13.3590   -1.5980   23.3100 C   0  0  0  0  0  0  0  0  0  0  0  0
   12.8790   -0.7690   24.6060 C   0  0  0  0  0  0  0  0  0  0  0  0
   12.7500   -3.1650   25.2510 C   0  0  0  0  0  0  0  0  0  0  0  0
    7.4660   -4.7840   25.5160 O   0  0  0  0  0  0  0  0  0  0  0  0
    4.3000   -6.6660   23.9670 C   0  0  0  0  0  0  0  0  0  0  0  0
    5.5050   -5.6250   26.0080 C   0  0  0  0  0  0  0  0  0  0  0  0
    4.4360   -6.5300   25.4640 C   0  0  0  0  0  0  0  0  0  0  0  0
    7.7200   -3.9670   26.6730 C   0  0  2  0  0  0  0  0  0  0  0  0
    8.1620   -4.8620   27.8940 C   0  0  0  0  0  0  0  0  0  0  0  0
    6.4390   -3.2560   26.9910 N   0  0  0  0  0  0  0  0  0  0  0  0
    5.9170   -2.3640   26.1200 C   0  0  0  0  0  0  0  0  0  0  0  0
    6.9790   -5.5880   28.6150 C   0  0  0  0  0  0  0  0  0  0  0  0
    5.9520   -3.2310   28.3540 C   0  0  0  0  0  0  0  0  0  0  0  0
    4.7220   -2.3110   25.8080 O   0  0  0  0  0  0  0  0  0  0  0  0
    5.7840   -4.6300   28.9080 C   0  0  0  0  0  0  0  0  0  0  0  0
  1  2  1  0
  2  3  1  0
  1  4  1  0
  4  5  2  0
  6  4  1  6
  6  7  1  0
  3  8  1  0
  6  9  1  0
  8 10  1  0
  8 11  2  0
  7 12  1  0
  9 13  2  0
  9 14  1  0
  7 15  1  0
 10 16  1  0
 12 17  2  0
 12 18  1  0
 14 19  2  0
 13 20  1  0
 15 21  2  0
 15 22  1  0
 16 23  1  0
 18 24  1  6
 19 25  1  0
 20 25  2  0
 21 26  1  0
 22 27  2  0
 18 28  1  0
 26 29  2  0
 27 29  1  0
 30 28  1  6
 28 31  1  0
 29 32  1  0
 30 33  1  0
 30 34  1  0
 31 35  2  0
 34 35  1  0
 32 36  1  0
 32 37  1  0
 32 38  1  0
 33 39  1  1
 34 40  1  1
 33 41  1  0
 40 42  2  0
 41 42  1  0
 43 39  1  6
 43 44  1  0
 43 45  1  0
 45 46  1  0
 44 47  1  0
 45 48  1  0
 46 49  2  0
 47 50  1  0
 48 50  1  0
M  END
