x3117-x1374-x1493-x2694
     RDKit          3D

 53 57  0  0  0  0  0  0  0  0999 V2000
    6.8290   -1.1050   21.9930 N   0  0  0  0  0  0  0  0  0  0  0  0
    6.1950   -2.3910   21.4370 C   0  0  0  0  0  0  0  0  0  0  0  0
    4.8710   -3.0100   21.2490 O   0  0  0  0  0  0  0  0  0  0  0  0
    6.5320    0.2510   21.6920 C   0  0  1  0  0  0  0  0  0  0  0  0
    8.1640   -1.1600   22.6830 C   0  0  0  0  0  0  0  0  0  0  0  0
    7.4180   -3.1260   21.0070 C   0  0  2  0  0  0  0  0  0  0  0  0
    7.6240    1.2090   21.7730 C   0  0  0  0  0  0  0  0  0  0  0  0
    6.0960    0.5370   20.2930 C   0  0  0  0  0  0  0  0  0  0  0  0
    8.3300   -1.3340   24.0470 N   0  0  0  0  0  0  0  0  0  0  0  0
    9.5280   -1.0630   22.2160 C   0  0  0  0  0  0  0  0  0  0  0  0
    7.0380   -3.6650   19.6470 C   0  0  0  0  0  0  0  0  0  0  0  0
    7.4500    2.2990   22.8000 N   0  0  0  0  0  0  0  0  0  0  0  0
    8.5310    1.0740   20.9580 O   0  0  0  0  0  0  0  0  0  0  0  0
    4.9830    1.3530   20.0990 C   0  0  0  0  0  0  0  0  0  0  0  0
    6.7820    0.0380   19.1550 C   0  0  0  0  0  0  0  0  0  0  0  0
    9.7160   -1.3470   24.3690 O   0  0  0  0  0  0  0  0  0  0  0  0
   10.4730   -1.1820   23.2540 C   0  0  0  0  0  0  0  0  0  0  0  0
    7.9940   -4.0120   22.1800 C   0  0  0  0  0  0  0  0  0  0  0  0
   12.0680   -1.1500   23.1980 C   0  0  0  0  0  0  0  0  0  0  0  0
    6.3130    0.4020   17.8020 N   0  0  0  0  0  0  0  0  0  0  0  0
    4.5160    1.7100   18.8700 C   0  0  0  0  0  0  0  0  0  0  0  0
    8.2950    3.4250   23.0830 C   0  0  0  0  0  0  0  0  0  0  0  0
    9.0360   -3.6110   23.0430 C   0  0  0  0  0  0  0  0  0  0  0  0
    7.4340   -5.2270   22.3410 C   0  0  0  0  0  0  0  0  0  0  0  0
   12.5880    0.1180   23.0200 C   0  0  0  0  0  0  0  0  0  0  0  0
   12.6620   -1.9500   22.0270 C   0  0  0  0  0  0  0  0  0  0  0  0
   12.6320   -1.5960   24.5890 C   0  0  0  0  0  0  0  0  0  0  0  0
    5.1770    1.2440   17.7870 C   0  0  0  0  0  0  0  0  0  0  0  0
    9.6790    3.2240   23.2540 C   0  0  0  0  0  0  0  0  0  0  0  0
    7.8050    4.7480   23.2070 C   0  0  0  0  0  0  0  0  0  0  0  0
    9.4940   -4.4300   24.0850 C   0  0  0  0  0  0  0  0  0  0  0  0
    7.8250   -6.0810   23.3320 C   0  0  0  0  0  0  0  0  0  0  0  0
    6.4100   -5.5650   21.4120 N   0  0  0  0  0  0  0  0  0  0  0  0
   10.1790    1.8410   23.0840 C   0  0  0  0  0  0  0  0  0  0  0  0
   13.2680   -2.8140   24.6690 C   0  0  0  0  0  0  0  0  0  0  0  0
   10.5890   -3.9960   24.9610 C   0  0  0  0  0  0  0  0  0  0  0  0
   10.4740    4.3250   23.5620 C   0  0  0  0  0  0  0  0  0  0  0  0
    8.6570    5.8270   23.5090 C   0  0  0  0  0  0  0  0  0  0  0  0
    8.9140   -5.6580   24.2700 C   0  0  0  0  0  0  0  0  0  0  0  0
    5.4040   -6.4050   21.9590 C   0  0  0  0  0  0  0  0  0  0  0  0
   10.0190    5.6230   23.7020 C   0  0  0  0  0  0  0  0  0  0  0  0
    4.3730   -5.5950   22.7290 C   0  0  2  0  0  0  0  0  0  0  0  0
   11.0090    6.6090   24.0280 O   0  0  0  0  0  0  0  0  0  0  0  0
    4.8640   -5.1730   23.9520 C   0  0  0  0  0  0  0  0  0  0  0  0
    3.2270   -6.3610   22.7770 C   0  0  0  0  0  0  0  0  0  0  0  0
   11.8780    6.3280   25.1150 C   0  0  0  0  0  0  0  0  0  0  0  0
    3.3070   -6.9710   24.4490 S   0  0  0  0  0  0  0  0  0  0  0  0
    4.3830   -5.8350   25.0080 C   0  0  0  0  0  0  0  0  0  0  0  0
    1.9750   -6.8030   24.9530 O   0  0  0  0  0  0  0  0  0  0  0  0
    3.9170   -8.2550   24.3980 O   0  0  0  0  0  0  0  0  0  0  0  0
    4.6670   -5.7230   26.4280 C   0  0  0  0  0  0  0  0  0  0  0  0
    5.9730   -6.0500   26.6470 C   0  0  0  0  0  0  0  0  0  0  0  0
    6.9260   -5.7370   25.9390 O   0  0  0  0  0  0  0  0  0  0  0  0
  1  2  1  0
  2  3  2  0
  1  4  1  0
  1  5  1  0
  2  6  1  0
  4  7  1  6
  4  8  1  0
  5  9  2  0
  5 10  1  0
  6 11  1  6
  7 12  1  0
  7 13  2  0
  8 14  2  0
  8 15  1  0
  9 16  1  0
 10 17  2  0
 16 17  1  0
  6 18  1  0
 17 19  1  0
 15 20  2  0
 14 21  1  0
 12 22  1  0
 18 23  2  0
 18 24  1  0
 19 25  1  0
 19 26  1  0
 19 27  1  0
 20 28  1  0
 21 28  2  0
 22 29  2  0
 22 30  1  0
 23 31  1  0
 24 32  2  0
 24 33  1  0
 29 34  1  0
 27 35  1  0
 31 36  1  0
 29 37  1  0
 30 38  2  0
 31 39  2  0
 32 39  1  0
 33 40  1  0
 37 41  2  0
 38 41  1  0
 42 40  1  1
 41 43  1  0
 42 44  1  0
 42 45  1  0
 43 46  1  0
 45 47  1  0
 44 48  2  0
 47 48  1  0
 47 49  1  0
 47 50  1  0
 48 51  1  0
 51 52  1  0
 52 53  2  0
M  END
