x3115-x3110
     RDKit          3D

 35 36  0  0  0  0  0  0  0  0999 V2000
    7.7880    1.3870   23.2030 N   0  0  0  0  0  0  0  0  0  0  0  0
    8.5540    2.6070   23.5340 C   0  0  1  0  0  0  0  0  0  0  0  0
   10.0570    2.3240   23.4680 C   0  0  0  0  0  0  0  0  0  0  0  0
    7.7620    0.6450   21.9330 C   0  0  0  0  0  0  0  0  0  0  0  0
    8.6540    0.7760   21.1090 O   0  0  0  0  0  0  0  0  0  0  0  0
    6.6090   -0.1970   21.7130 C   0  0  2  0  0  0  0  0  0  0  0  0
    8.1340    3.7860   22.6110 C   0  0  0  0  0  0  0  0  0  0  0  0
    6.8830   -1.6720   21.7750 N   0  0  0  0  0  0  0  0  0  0  0  0
   11.0890    3.4340   23.4000 C   0  0  0  0  0  0  0  0  0  0  0  0
    8.4740    4.9500   23.1390 O   0  0  0  0  0  0  0  0  0  0  0  0
    6.1090    0.3080   20.3190 C   0  0  0  0  0  0  0  0  0  0  0  0
   11.8850    3.2670   22.4830 O   0  0  0  0  0  0  0  0  0  0  0  0
   11.1120    4.3860   24.1640 O   0  0  0  0  0  0  0  0  0  0  0  0
    6.0320   -2.8490   21.3740 C   0  0  0  0  0  0  0  0  0  0  0  0
    8.1580    6.0540   22.2850 C   0  0  0  0  0  0  0  0  0  0  0  0
    5.0060    1.1620   20.2170 C   0  0  0  0  0  0  0  0  0  0  0  0
    6.7600   -0.0560   19.1510 C   0  0  0  0  0  0  0  0  0  0  0  0
    8.1510   -1.7390   22.3900 C   0  0  0  0  0  0  0  0  0  0  0  0
   12.2700    4.4540   21.9430 C   0  0  0  0  0  0  0  0  0  0  0  0
    4.7520   -2.9670   21.3050 O   0  0  0  0  0  0  0  0  0  0  0  0
    6.6210   -4.1930   20.9770 C   0  0  0  0  0  0  0  0  0  0  0  0
    6.3670    0.4110   17.7990 N   0  0  0  0  0  0  0  0  0  0  0  0
    4.4970    1.7140   18.8910 C   0  0  0  0  0  0  0  0  0  0  0  0
    9.3060   -1.9640   21.6830 C   0  0  0  0  0  0  0  0  0  0  0  0
    8.3220   -1.5430   23.8400 C   0  0  0  0  0  0  0  0  0  0  0  0
   13.3820    5.0690   22.7790 C   0  0  0  0  0  0  0  0  0  0  0  0
    8.1180   -4.3390   20.8170 C   0  0  0  0  0  0  0  0  0  0  0  0
    5.2180    1.3060   17.7540 C   0  0  0  0  0  0  0  0  0  0  0  0
   10.7320   -2.0330   22.2940 C   0  0  0  0  0  0  0  0  0  0  0  0
    9.6560   -1.5870   24.4650 C   0  0  0  0  0  0  0  0  0  0  0  0
   10.9120   -1.8480   23.6660 C   0  0  0  0  0  0  0  0  0  0  0  0
   12.2670   -1.8870   24.2350 C   0  0  0  0  0  0  0  0  0  0  0  0
   12.6780   -0.4760   24.7060 C   0  0  0  0  0  0  0  0  0  0  0  0
   13.3170   -1.3320   23.3340 C   0  0  0  0  0  0  0  0  0  0  0  0
   12.7320   -2.9600   24.9340 C   0  0  0  0  0  0  0  0  0  0  0  0
  1  2  1  0
  2  3  1  6
  1  4  1  0
  4  5  2  0
  6  4  1  6
  2  7  1  0
  6  8  1  0
  3  9  1  0
  7 10  1  0
  6 11  1  0
  9 12  1  0
  9 13  2  0
  8 14  1  0
 10 15  1  0
 11 16  2  0
 11 17  1  0
  8 18  1  0
 12 19  1  0
 14 20  2  0
 14 21  1  0
 17 22  2  0
 16 23  1  0
 18 24  2  0
 18 25  1  0
 19 26  1  0
 21 27  1  0
 22 28  1  0
 23 28  2  0
 24 29  1  0
 25 30  2  0
 29 31  2  0
 30 31  1  0
 31 32  1  0
 32 33  1  0
 32 34  1  0
 32 35  1  0
M  END
