x3110-x2776-x1311-x2754
     RDKit          3D

 65 71  0  0  0  0  0  0  0  0999 V2000
    8.0270    1.7790   23.0210 N   0  0  0  0  0  0  0  0  0  0  0  0
    7.8060    1.1000   21.7320 C   0  0  0  0  0  0  0  0  0  0  0  0
    8.4790    1.4250   20.7660 O   0  0  0  0  0  0  0  0  0  0  0  0
    8.5630    3.1240   23.2790 C   0  0  0  0  0  0  0  0  0  0  0  0
    6.6830   -0.0050   21.5020 C   0  0  2  0  0  0  0  0  0  0  0  0
    9.9370    3.3640   23.5180 C   0  0  0  0  0  0  0  0  0  0  0  0
    7.7890    4.2840   23.3210 C   0  0  0  0  0  0  0  0  0  0  0  0
    6.9710   -1.4910   21.5990 N   0  0  0  0  0  0  0  0  0  0  0  0
   11.0490    2.3900   23.5190 C   0  0  2  0  0  0  0  0  0  0  0  0
    6.1890    0.3800   20.1420 C   0  0  0  0  0  0  0  0  0  0  0  0
   10.4050    4.6530   23.7960 C   0  0  0  0  0  0  0  0  0  0  0  0
    8.2610    5.5860   23.5860 C   0  0  0  0  0  0  0  0  0  0  0  0
   12.2070    2.8420   22.9040 O   0  0  0  0  0  0  0  0  0  0  0  0
   10.6300    1.0920   22.9110 C   0  0  0  0  0  0  0  0  0  0  0  0
    6.1180   -2.7990   21.3200 C   0  0  0  0  0  0  0  0  0  0  0  0
    5.1020    1.2080   20.1890 C   0  0  0  0  0  0  0  0  0  0  0  0
    6.8230   -0.0650   19.0380 C   0  0  0  0  0  0  0  0  0  0  0  0
    8.2140   -1.5240   22.3740 C   0  0  0  0  0  0  0  0  0  0  0  0
    9.6230    5.7720   23.8420 C   0  0  0  0  0  0  0  0  0  0  0  0
   12.2340    4.0340   22.0620 C   0  0  0  0  0  0  0  0  0  0  0  0
    4.8930   -2.9860   20.8230 O   0  0  0  0  0  0  0  0  0  0  0  0
   10.2530    6.9790   24.1330 O   0  0  0  0  0  0  0  0  0  0  0  0
    6.3270    0.3840   17.7400 N   0  0  0  0  0  0  0  0  0  0  0  0
    4.5860    1.6630   18.9830 C   0  0  0  0  0  0  0  0  0  0  0  0
    9.4750   -1.9440   21.7020 C   0  0  0  0  0  0  0  0  0  0  0  0
    8.4310   -1.1650   23.8700 C   0  0  0  0  0  0  0  0  0  0  0  0
    6.8230   -4.1100   21.7740 C   0  0  2  0  0  0  0  0  0  0  0  0
   13.3190    5.0010   22.5100 C   0  0  0  0  0  0  0  0  0  0  0  0
    8.2070   -4.6300   21.1670 C   0  0  0  0  0  0  0  0  0  0  0  0
   11.4120    6.8890   24.9800 C   0  0  0  0  0  0  0  0  0  0  0  0
    5.1640    1.2850   17.7620 C   0  0  0  0  0  0  0  0  0  0  0  0
   10.8300   -2.0150   22.3420 C   0  0  0  0  0  0  0  0  0  0  0  0
    9.7980   -1.2390   24.5510 C   0  0  0  0  0  0  0  0  0  0  0  0
    7.1560   -3.0290   22.7290 C   0  0  0  0  0  0  0  0  0  0  0  0
    6.4080   -5.0370   22.9740 C   0  0  1  0  0  0  0  0  0  0  0  0
   11.0460   -1.6590   23.7930 C   0  0  0  0  0  0  0  0  0  0  0  0
    7.6230   -4.9320   23.8240 C   0  0  0  0  0  0  0  0  0  0  0  0
    5.0320   -4.7510   23.6920 C   0  0  1  0  0  0  0  0  0  0  0  0
    5.9500   -2.5270   23.6030 C   0  0  0  0  0  0  0  0  0  0  0  0
   12.4580   -1.7240   24.3480 C   0  0  0  0  0  0  0  0  0  0  0  0
    8.5260   -5.9030   23.5980 C   0  0  0  0  0  0  0  0  0  0  0  0
    7.9350   -3.8520   24.8750 C   0  0  0  0  0  0  0  0  0  0  0  0
    4.3420   -5.0060   22.4620 C   0  0  0  0  0  0  0  0  0  0  0  0
    4.0830   -5.9860   24.6810 S   0  0  0  0  0  0  0  0  0  0  0  0
    4.9650   -3.4160   24.0630 C   0  0  2  0  0  0  0  0  0  0  0  0
   12.5550   -0.6040   25.1330 C   0  0  0  0  0  0  0  0  0  0  0  0
   13.4540   -1.8300   23.1700 C   0  0  0  0  0  0  0  0  0  0  0  0
   12.7220   -2.9090   25.2210 C   0  0  0  0  0  0  0  0  0  0  0  0
    4.6110   -6.4240   25.9430 O   0  0  0  0  0  0  0  0  0  0  0  0
    2.6720   -5.6730   24.5890 O   0  0  0  0  0  0  0  0  0  0  0  0
    4.4220   -3.1010   25.4870 C   0  0  0  0  0  0  0  0  0  0  0  0
    9.6780   -5.9410   24.2680 C   0  0  0  0  0  0  0  0  0  0  0  0
    9.2480   -3.8970   25.6250 C   0  0  0  0  0  0  0  0  0  0  0  0
    4.4280   -6.4990   22.4020 C   0  0  0  0  0  0  0  0  0  0  0  0
    4.2680   -7.1480   23.5540 C   0  0  0  0  0  0  0  0  0  0  0  0
    3.2700   -2.6590   25.4350 O   0  0  0  0  0  0  0  0  0  0  0  0
    5.1180   -3.2730   26.7950 N   0  0  0  0  0  0  0  0  0  0  0  0
   10.1040   -5.0510   25.2310 C   0  0  0  0  0  0  0  0  0  0  0  0
    4.9710   -2.1890   27.6160 C   0  0  0  0  0  0  0  0  0  0  0  0
    6.3480   -4.0480   27.0450 C   0  0  0  0  0  0  0  0  0  0  0  0
    6.7920   -5.2050   26.4310 C   0  0  0  0  0  0  0  0  0  0  0  0
    7.3100   -3.5970   28.0940 C   0  0  0  0  0  0  0  0  0  0  0  0
    7.9850   -5.8120   26.7710 C   0  0  0  0  0  0  0  0  0  0  0  0
    8.5190   -4.2640   28.3860 C   0  0  0  0  0  0  0  0  0  0  0  0
    8.8640   -5.3860   27.7160 C   0  0  0  0  0  0  0  0  0  0  0  0
  1  2  1  0
  2  3  2  0
  1  4  1  0
  5  2  1  6
  4  6  2  0
  4  7  1  0
  5  8  1  0
  6  9  1  0
  5 10  1  0
  6 11  1  0
  7 12  2  0
  9 13  1  0
  9 14  1  6
  8 15  1  0
 10 16  2  0
 10 17  1  0
  8 18  1  0
 11 19  2  0
 12 19  1  0
 13 20  1  0
 15 21  2  0
 19 22  1  0
 17 23  2  0
 16 24  1  0
 18 25  2  0
 18 26  1  0
 27 15  1  0
 20 28  1  0
 27 29  1  6
 22 30  1  0
 23 31  1  0
 24 31  2  0
 25 32  1  0
 26 33  2  0
 27 34  1  0
 27 35  1  0
 32 36  2  0
 33 36  1  0
 35 37  1  1
 35 38  1  0
 34 39  1  0
 36 40  1  0
 37 41  2  0
 37 42  1  0
 38 43  1  6
 38 44  1  0
 38 45  1  0
 39 45  1  0
 40 46  1  0
 40 47  1  0
 40 48  1  0
 44 49  1  0
 44 50  1  0
 45 51  1  1
 41 52  1  0
 42 53  2  0
 43 54  1  0
 44 55  1  0
 54 55  2  0
 51 56  2  0
 51 57  1  0
 52 58  2  0
 53 58  1  0
 57 59  1  0
 57 60  1  0
 60 61  2  0
 60 62  1  0
 61 63  1  0
 62 64  2  0
 63 65  2  0
 64 65  1  0
M  END
