x3110-x0981-x0689
     RDKit          3D

 55 58  0  0  0  0  0  0  0  0999 V2000
    7.9750    1.1370   23.3450 N   0  0  0  0  0  0  0  0  0  0  0  0
    8.7280    2.2820   23.7450 C   0  0  0  0  0  0  0  0  0  0  0  0
   10.2270    2.0250   23.6250 C   0  0  0  0  0  0  0  0  0  0  0  0
    7.7840    0.8220   21.9260 C   0  0  0  0  0  0  0  0  0  0  0  0
    8.5040    1.3300   21.0370 O   0  0  0  0  0  0  0  0  0  0  0  0
    6.5620   -0.1510   21.6130 C   0  0  2  0  0  0  0  0  0  0  0  0
    6.9050   -1.6240   21.7500 N   0  0  0  0  0  0  0  0  0  0  0  0
   11.0670    3.2910   23.4130 C   0  0  0  0  0  0  0  0  0  0  0  0
    5.9000    0.3770   20.3650 C   0  0  0  0  0  0  0  0  0  0  0  0
   12.0060    3.1970   22.3440 O   0  0  0  0  0  0  0  0  0  0  0  0
   10.9260    4.2970   24.1030 O   0  0  0  0  0  0  0  0  0  0  0  0
    6.0990   -2.8080   21.2750 C   0  0  0  0  0  0  0  0  0  0  0  0
    4.7140    1.0910   20.2510 C   0  0  0  0  0  0  0  0  0  0  0  0
    6.7770    0.0330   19.1460 C   0  0  0  0  0  0  0  0  0  0  0  0
    8.2000   -1.6870   22.4030 C   0  0  0  0  0  0  0  0  0  0  0  0
   12.5120    4.4670   21.9510 C   0  0  0  0  0  0  0  0  0  0  0  0
    4.8010   -2.9980   21.2540 O   0  0  0  0  0  0  0  0  0  0  0  0
    6.7890   -4.0410   20.7140 C   0  0  1  0  0  0  0  0  0  0  0  0
    6.4440    0.4210   17.8990 N   0  0  0  0  0  0  0  0  0  0  0  0
    4.3710    1.5150   18.8300 C   0  0  0  0  0  0  0  0  0  0  0  0
    9.3400   -1.5610   21.6140 C   0  0  0  0  0  0  0  0  0  0  0  0
    8.4470   -1.8360   23.7690 C   0  0  0  0  0  0  0  0  0  0  0  0
   13.3980    5.2530   22.8940 C   0  0  0  0  0  0  0  0  0  0  0  0
    8.1980   -3.6070   20.3000 C   0  0  0  0  0  0  0  0  0  0  0  0
    5.2480    1.1580   17.8020 C   0  0  0  0  0  0  0  0  0  0  0  0
   10.6780   -1.5860   22.0270 C   0  0  0  0  0  0  0  0  0  0  0  0
    9.8630   -1.8560   24.2910 C   0  0  0  0  0  0  0  0  0  0  0  0
    6.6220   -5.1460   21.7330 N   0  0  0  0  0  0  0  0  0  0  0  0
   10.9680   -1.7470   23.4960 C   0  0  0  0  0  0  0  0  0  0  0  0
    5.2340   -5.6770   22.0500 C   0  0  0  0  0  0  0  0  0  0  0  0
    7.3930   -4.7310   22.9310 C   0  0  0  0  0  0  0  0  0  0  0  0
   12.3970   -1.7730   24.0660 C   0  0  0  0  0  0  0  0  0  0  0  0
    4.7510   -5.5120   23.3350 C   0  0  2  0  0  0  0  0  0  0  0  0
    6.9880   -5.3660   24.2140 C   0  0  0  0  0  0  0  0  0  0  0  0
   12.4520   -0.5350   24.9270 C   0  0  0  0  0  0  0  0  0  0  0  0
   13.3370   -1.9060   22.9210 C   0  0  0  0  0  0  0  0  0  0  0  0
   12.6530   -2.9140   24.8770 C   0  0  0  0  0  0  0  0  0  0  0  0
    3.2330   -6.0610   23.6130 C   0  0  1  0  0  0  0  0  0  0  0  0
    4.6890   -4.0870   23.6660 N   0  0  0  0  0  0  0  0  0  0  0  0
    5.7330   -6.1310   24.1850 N   0  0  0  0  0  0  0  0  0  0  0  0
    2.8100   -7.2350   22.7910 N   0  0  0  0  0  0  0  0  0  0  0  0
    3.0870   -6.2700   24.9880 C   0  0  2  0  0  0  0  0  0  0  0  0
    5.1320   -3.8740   24.8200 O   0  0  0  0  0  0  0  0  0  0  0  0
    1.5940   -7.3910   22.2410 C   0  0  0  0  0  0  0  0  0  0  0  0
    2.8860   -7.5860   25.3450 C   0  0  0  0  0  0  0  0  0  0  0  0
    1.8230   -5.4670   25.4220 C   0  0  0  0  0  0  0  0  0  0  0  0
    1.2790   -8.5810   21.5540 C   0  0  0  0  0  0  0  0  0  0  0  0
    0.5970   -6.3650   22.2960 O   0  0  0  0  0  0  0  0  0  0  0  0
    2.3570   -8.0150   26.5840 N   0  0  0  0  0  0  0  0  0  0  0  0
    3.2460   -8.6270   24.4490 O   0  0  0  0  0  0  0  0  0  0  0  0
    2.1530   -4.0190   25.7110 C   0  0  0  0  0  0  0  0  0  0  0  0
    3.3770   -3.6520   26.2900 C   0  0  0  0  0  0  0  0  0  0  0  0
    1.3010   -2.9640   25.4380 C   0  0  0  0  0  0  0  0  0  0  0  0
    3.5440   -1.8550   26.5290 S   0  0  0  0  0  0  0  0  0  0  0  0
    1.9290   -1.6400   25.8430 C   0  0  0  0  0  0  0  0  0  0  0  0
  1  2  1  0
  2  3  1  0
  1  4  1  0
  4  5  2  0
  6  4  1  6
  6  7  1  0
  3  8  1  0
  6  9  1  0
  8 10  1  0
  8 11  2  0
  7 12  1  0
  9 13  2  0
  9 14  1  0
  7 15  1  0
 10 16  1  0
 12 17  2  0
 12 18  1  0
 14 19  2  0
 13 20  1  0
 15 21  2  0
 15 22  1  0
 16 23  1  0
 18 24  1  1
 19 25  1  0
 20 25  2  0
 21 26  1  0
 22 27  2  0
 18 28  1  0
 26 29  2  0
 27 29  1  0
 28 30  1  0
 28 31  1  0
 29 32  1  0
 30 33  1  0
 31 34  1  0
 32 35  1  0
 32 36  1  0
 32 37  1  0
 33 38  1  0
 33 39  1  1
 33 40  1  0
 34 40  1  0
 38 41  1  6
 38 42  1  0
 39 43  2  0
 41 44  1  0
 42 45  1  0
 42 46  1  6
 44 47  1  0
 44 48  2  0
 45 49  1  0
 45 50  2  0
 46 51  1  0
 51 52  2  0
 51 53  1  0
 52 54  1  0
 53 55  2  0
 54 55  1  0
M  END
