x3113-x3110
     RDKit          3D

 32 33  0  0  0  0  0  0  0  0999 V2000
    7.9200    1.1380   23.2830 N   0  0  0  0  0  0  0  0  0  0  0  0
    8.8240    2.1970   23.5410 C   0  0  0  0  0  0  0  0  0  0  0  0
   10.2000    2.0250   23.5140 C   0  0  0  0  0  0  0  0  0  0  0  0
    7.6920    0.6280   21.9120 C   0  0  0  0  0  0  0  0  0  0  0  0
    8.4260    1.0430   21.0150 O   0  0  0  0  0  0  0  0  0  0  0  0
    6.6190   -0.2790   21.6690 C   0  0  2  0  0  0  0  0  0  0  0  0
    6.9890   -1.7410   21.8230 N   0  0  0  0  0  0  0  0  0  0  0  0
   10.9280    3.2190   23.4340 C   0  0  0  0  0  0  0  0  0  0  0  0
    6.1230    0.2250   20.3210 C   0  0  0  0  0  0  0  0  0  0  0  0
   11.7990    3.1250   22.5730 O   0  0  0  0  0  0  0  0  0  0  0  0
   10.7360    4.2380   24.1190 O   0  0  0  0  0  0  0  0  0  0  0  0
    6.1200   -2.8730   21.3360 C   0  0  0  0  0  0  0  0  0  0  0  0
    4.9910    1.0570   20.2330 C   0  0  0  0  0  0  0  0  0  0  0  0
    6.7710   -0.0910   19.1320 C   0  0  0  0  0  0  0  0  0  0  0  0
    8.3320   -1.7890   22.3490 C   0  0  0  0  0  0  0  0  0  0  0  0
   12.2770    4.3700   22.0460 C   0  0  0  0  0  0  0  0  0  0  0  0
    4.8130   -3.0500   21.3470 O   0  0  0  0  0  0  0  0  0  0  0  0
    6.8060   -4.0560   20.7110 C   0  0  0  0  0  0  0  0  0  0  0  0
    6.4080    0.3400   17.9010 N   0  0  0  0  0  0  0  0  0  0  0  0
    4.5560    1.5430   18.9900 C   0  0  0  0  0  0  0  0  0  0  0  0
    9.4490   -1.2880   21.6990 C   0  0  0  0  0  0  0  0  0  0  0  0
    8.5880   -2.3340   23.5830 C   0  0  0  0  0  0  0  0  0  0  0  0
   13.3960    5.1780   22.7480 C   0  0  0  0  0  0  0  0  0  0  0  0
    8.2540   -3.6990   20.3640 C   0  0  0  0  0  0  0  0  0  0  0  0
    5.2280    1.2180   17.8230 C   0  0  0  0  0  0  0  0  0  0  0  0
   10.7350   -1.3090   22.2460 C   0  0  0  0  0  0  0  0  0  0  0  0
    9.8690   -2.3670   24.1450 C   0  0  0  0  0  0  0  0  0  0  0  0
   10.9340   -1.8120   23.4140 C   0  0  0  0  0  0  0  0  0  0  0  0
   12.3580   -1.7860   24.0270 C   0  0  0  0  0  0  0  0  0  0  0  0
   12.4900   -0.6640   24.8490 C   0  0  0  0  0  0  0  0  0  0  0  0
   13.2600   -1.9140   22.9630 C   0  0  0  0  0  0  0  0  0  0  0  0
   12.6920   -2.9870   24.9240 C   0  0  0  0  0  0  0  0  0  0  0  0
  1  2  1  0
  2  3  1  0
  1  4  1  0
  4  5  2  0
  6  4  1  6
  6  7  1  0
  3  8  1  0
  6  9  1  0
  8 10  1  0
  8 11  2  0
  7 12  1  0
  9 13  2  0
  9 14  1  0
  7 15  1  0
 10 16  1  0
 12 17  2  0
 12 18  1  0
 14 19  2  0
 13 20  1  0
 15 21  2  0
 15 22  1  0
 16 23  1  0
 18 24  1  0
 19 25  1  0
 20 25  2  0
 21 26  1  0
 22 27  2  0
 26 28  2  0
 27 28  1  0
 28 29  1  0
 29 30  1  0
 29 31  1  0
 29 32  1  0
M  END
