x3117-x2705-x2643-x0731
     RDKit          3D

 52 57  0  0  0  0  0  0  0  0999 V2000
    6.8170   -1.2680   21.5280 N   0  0  0  0  0  0  0  0  0  0  0  0
    5.8200   -2.3650   21.0270 C   0  0  0  0  0  0  0  0  0  0  0  0
    4.7220   -2.9920   21.4850 O   0  0  0  0  0  0  0  0  0  0  0  0
    6.5220    0.1710   21.4610 C   0  0  1  0  0  0  0  0  0  0  0  0
    8.1940   -1.4320   21.9950 C   0  0  0  0  0  0  0  0  0  0  0  0
    5.9640   -2.9400   19.8180 C   0  0  0  0  0  0  0  0  0  0  0  0
    7.6740    1.1860   21.7380 C   0  0  0  0  0  0  0  0  0  0  0  0
    6.0850    0.5760   20.1210 C   0  0  0  0  0  0  0  0  0  0  0  0
    8.3220   -2.1450   23.0410 N   0  0  0  0  0  0  0  0  0  0  0  0
    9.5600   -1.1220   21.8120 C   0  0  0  0  0  0  0  0  0  0  0  0
    6.6620   -4.2110   20.1320 C   0  0  0  0  0  0  0  0  0  0  0  0
    7.5110    2.0840   22.8940 N   0  0  0  0  0  0  0  0  0  0  0  0
    8.6480    1.2670   20.9920 O   0  0  0  0  0  0  0  0  0  0  0  0
    7.1410   -2.7190   23.6080 C   0  0  2  0  0  0  0  0  0  0  0  0
    4.9700    1.3970   20.0270 C   0  0  0  0  0  0  0  0  0  0  0  0
    6.7340    0.1990   18.9920 C   0  0  0  0  0  0  0  0  0  0  0  0
    9.5790   -2.3260   23.5710 N   0  0  0  0  0  0  0  0  0  0  0  0
   10.4460   -1.6430   22.7550 C   0  0  0  0  0  0  0  0  0  0  0  0
   12.0090   -1.5470   22.9470 C   0  0  0  0  0  0  0  0  0  0  0  0
    7.3680   -2.7610   24.9150 C   0  0  0  0  0  0  0  0  0  0  0  0
    6.3440    0.6170   17.6520 N   0  0  0  0  0  0  0  0  0  0  0  0
    4.5490    1.8310   18.7880 C   0  0  0  0  0  0  0  0  0  0  0  0
    8.1910    3.3260   22.9730 C   0  0  0  0  0  0  0  0  0  0  0  0
    6.8530   -4.7090   21.5800 N   0  0  0  0  0  0  0  0  0  0  0  0
    6.6060   -4.0480   22.9370 C   0  0  1  0  0  0  0  0  0  0  0  0
   12.3320   -0.2450   23.3950 C   0  0  0  0  0  0  0  0  0  0  0  0
   12.4960   -2.6750   23.8130 C   0  0  0  0  0  0  0  0  0  0  0  0
   12.5920   -1.8840   21.7020 C   0  0  0  0  0  0  0  0  0  0  0  0
    5.1750    1.4960   17.6130 C   0  0  0  0  0  0  0  0  0  0  0  0
    9.5170    3.3230   23.4490 C   0  0  0  0  0  0  0  0  0  0  0  0
    7.5810    4.5540   22.5860 C   0  0  0  0  0  0  0  0  0  0  0  0
    6.9810   -5.1730   23.9390 C   0  0  0  0  0  0  0  0  0  0  0  0
    6.2040   -6.0670   21.7060 C   0  0  0  0  0  0  0  0  0  0  0  0
   10.2020    2.0310   23.8410 C   0  0  0  0  0  0  0  0  0  0  0  0
    6.1630    4.5910   22.0500 C   0  0  0  0  0  0  0  0  0  0  0  0
   12.8480   -2.1450   25.1300 C   0  0  0  0  0  0  0  0  0  0  0  0
   10.1550    4.5020   23.5340 C   0  0  0  0  0  0  0  0  0  0  0  0
    8.2310    5.7840   22.6670 C   0  0  0  0  0  0  0  0  0  0  0  0
    5.7110   -5.8590   24.1080 N   0  0  0  0  0  0  0  0  0  0  0  0
    5.0790   -6.0680   22.8040 C   0  0  0  0  0  0  0  0  0  0  0  0
    9.3160    1.2010   24.8100 C   0  0  0  0  0  0  0  0  0  0  0  0
    4.9830   -5.7210   25.6520 S   0  0  0  0  0  0  0  0  0  0  0  0
    9.5340    5.7950   23.1460 C   0  0  0  0  0  0  0  0  0  0  0  0
    6.0020   -5.4550   26.6220 O   0  0  0  0  0  0  0  0  0  0  0  0
    4.0880   -6.8350   25.7870 O   0  0  0  0  0  0  0  0  0  0  0  0
    3.9740   -4.2600   25.7980 C   0  0  0  0  0  0  0  0  0  0  0  0
    2.6860   -4.3930   25.2690 C   0  0  0  0  0  0  0  0  0  0  0  0
    4.3530   -3.0860   26.3840 C   0  0  0  0  0  0  0  0  0  0  0  0
    1.6850   -3.2720   25.3380 C   0  0  0  0  0  0  0  0  0  0  0  0
    3.5030   -2.0030   26.4900 C   0  0  0  0  0  0  0  0  0  0  0  0
    2.0750   -2.0880   25.9450 C   0  0  0  0  0  0  0  0  0  0  0  0
    1.1480   -0.9210   26.0800 C   0  0  0  0  0  0  0  0  0  0  0  0
  1  2  1  0
  2  3  2  0
  1  4  1  0
  1  5  1  0
  2  6  1  0
  4  7  1  6
  4  8  1  0
  5  9  1  0
  5 10  2  0
  6 11  1  0
  7 12  1  0
  7 13  2  0
  9 14  1  0
  8 15  2  0
  8 16  1  0
  9 17  1  0
 10 18  1  0
 17 18  2  0
 18 19  1  0
 14 20  1  1
 16 21  2  0
 15 22  1  0
 12 23  1  0
 11 24  1  0
 14 25  1  0
 24 25  1  0
 19 26  1  0
 19 27  1  0
 19 28  1  0
 21 29  1  0
 22 29  2  0
 23 30  2  0
 23 31  1  0
 25 32  1  1
 24 33  1  0
 30 34  1  0
 31 35  1  0
 27 36  1  0
 30 37  1  0
 31 38  2  0
 32 39  1  0
 33 40  1  0
 39 40  1  0
 34 41  1  0
 39 42  1  0
 37 43  2  0
 38 43  1  0
 42 44  2  0
 42 45  2  0
 42 46  1  0
 46 47  2  0
 46 48  1  0
 47 49  1  0
 48 50  2  0
 49 51  2  0
 50 51  1  0
 51 52  1  0
M  END
