x3110-x0691-x0978
     RDKit          3D

 56 60  0  0  0  0  0  0  0  0999 V2000
    7.9670    1.0470   23.2060 N   0  0  0  0  0  0  0  0  0  0  0  0
    8.8190    2.1520   23.4700 C   0  0  0  0  0  0  0  0  0  0  0  0
   10.2030    1.9450   23.5020 C   0  0  0  0  0  0  0  0  0  0  0  0
    7.7480    0.5560   21.8790 C   0  0  0  0  0  0  0  0  0  0  0  0
    8.4970    1.0080   21.0170 O   0  0  0  0  0  0  0  0  0  0  0  0
    6.6820   -0.3700   21.5490 C   0  0  2  0  0  0  0  0  0  0  0  0
    6.9880   -1.8350   21.7580 N   0  0  0  0  0  0  0  0  0  0  0  0
   10.9710    3.2450   23.4330 C   0  0  0  0  0  0  0  0  0  0  0  0
    6.1760    0.1600   20.2310 C   0  0  0  0  0  0  0  0  0  0  0  0
   11.9480    3.1730   22.4960 O   0  0  0  0  0  0  0  0  0  0  0  0
   10.7510    4.2320   24.1160 O   0  0  0  0  0  0  0  0  0  0  0  0
    6.0700   -2.9860   21.2750 C   0  0  0  0  0  0  0  0  0  0  0  0
    5.0370    0.9900   20.2130 C   0  0  0  0  0  0  0  0  0  0  0  0
    6.8310   -0.1430   19.0260 C   0  0  0  0  0  0  0  0  0  0  0  0
    8.2610   -1.8830   22.4710 C   0  0  0  0  0  0  0  0  0  0  0  0
   12.3540    4.4380   21.9480 C   0  0  0  0  0  0  0  0  0  0  0  0
    4.7920   -3.0050   21.2950 O   0  0  0  0  0  0  0  0  0  0  0  0
    6.4480   -4.3730   20.6510 C   0  0  1  0  0  0  0  0  0  0  0  0
    6.4030    0.3470   17.8260 N   0  0  0  0  0  0  0  0  0  0  0  0
    4.5410    1.5260   19.0350 C   0  0  0  0  0  0  0  0  0  0  0  0
    9.4240   -1.5600   21.7650 C   0  0  0  0  0  0  0  0  0  0  0  0
    8.5310   -2.2370   23.9380 C   0  0  0  0  0  0  0  0  0  0  0  0
   13.3460    5.1270   22.8800 C   0  0  0  0  0  0  0  0  0  0  0  0
    7.6660   -3.5380   20.2770 C   0  0  0  0  0  0  0  0  0  0  0  0
    5.2320    1.1950   17.8980 C   0  0  0  0  0  0  0  0  0  0  0  0
   10.7160   -1.5600   22.3090 C   0  0  0  0  0  0  0  0  0  0  0  0
    9.8040   -2.2450   24.5120 C   0  0  0  0  0  0  0  0  0  0  0  0
    6.6420   -5.3560   21.8250 N   0  0  0  0  0  0  0  0  0  0  0  0
   11.0120   -1.8780   23.6350 C   0  0  0  0  0  0  0  0  0  0  0  0
    5.5690   -6.2320   21.9740 C   0  0  0  0  0  0  0  0  0  0  0  0
    7.2500   -4.8230   22.9460 C   0  0  0  0  0  0  0  0  0  0  0  0
   12.3630   -1.8490   24.1720 C   0  0  0  0  0  0  0  0  0  0  0  0
    4.6560   -5.5650   23.0010 C   0  0  2  0  0  0  0  0  0  0  0  0
    6.4160   -4.3830   24.0050 C   0  0  0  0  0  0  0  0  0  0  0  0
   12.5880   -0.5170   24.8290 C   0  0  0  0  0  0  0  0  0  0  0  0
   13.2940   -1.9270   23.0000 C   0  0  0  0  0  0  0  0  0  0  0  0
   12.8390   -2.9370   25.1500 C   0  0  0  0  0  0  0  0  0  0  0  0
    3.4060   -6.4570   23.3850 C   0  0  2  0  0  0  0  0  0  0  0  0
    4.1850   -4.3940   22.4760 O   0  0  0  0  0  0  0  0  0  0  0  0
    5.3880   -5.3950   24.1890 N   0  0  0  0  0  0  0  0  0  0  0  0
    2.2130   -5.6020   23.2470 N   0  0  0  0  0  0  0  0  0  0  0  0
    3.5730   -6.7080   24.7620 C   0  0  1  0  0  0  0  0  0  0  0  0
    4.4780   -5.4710   25.5500 S   0  0  0  0  0  0  0  0  0  0  0  0
    2.5220   -7.3710   25.4100 C   0  0  0  0  0  0  0  0  0  0  0  0
    4.3140   -7.9210   24.7010 O   0  0  0  0  0  0  0  0  0  0  0  0
    0.9940   -6.2420   22.6420 C   0  0  0  0  0  0  0  0  0  0  0  0
    4.7790   -6.1760   27.0300 O   0  0  0  0  0  0  0  0  0  0  0  0
    3.2920   -4.3450   25.6930 C   0  0  0  0  0  0  0  0  0  0  0  0
    1.0690   -7.3120   22.0330 O   0  0  0  0  0  0  0  0  0  0  0  0
   -0.1460   -5.4720   22.8700 C   0  0  0  0  0  0  0  0  0  0  0  0
    3.6560   -2.9770   25.7710 C   0  0  0  0  0  0  0  0  0  0  0  0
    1.7910   -4.6360   25.7510 C   0  0  0  0  0  0  0  0  0  0  0  0
    2.7410   -1.9050   25.8950 C   0  0  0  0  0  0  0  0  0  0  0  0
    0.8240   -3.4930   25.8800 C   0  0  0  0  0  0  0  0  0  0  0  0
    3.2990   -0.6880   25.9530 F   0  0  0  0  0  0  0  0  0  0  0  0
    1.3970   -2.1000   25.9500 C   0  0  0  0  0  0  0  0  0  0  0  0
  1  2  1  0
  2  3  1  0
  1  4  1  0
  4  5  2  0
  6  4  1  6
  6  7  1  0
  3  8  1  0
  6  9  1  0
  8 10  1  0
  8 11  2  0
  7 12  1  0
  9 13  2  0
  9 14  1  0
  7 15  1  0
 10 16  1  0
 12 17  2  0
 12 18  1  0
 14 19  2  0
 13 20  1  0
 15 21  2  0
 15 22  1  0
 16 23  1  0
 18 24  1  1
 19 25  1  0
 20 25  2  0
 21 26  1  0
 22 27  2  0
 18 28  1  0
 26 29  2  0
 27 29  1  0
 28 30  1  0
 28 31  1  0
 29 32  1  0
 30 33  1  0
 31 34  1  0
 32 35  1  0
 32 36  1  0
 32 37  1  0
 33 38  1  0
 33 39  1  6
 33 40  1  0
 34 40  1  0
 38 41  1  1
 38 42  1  0
 40 43  1  0
 42 43  1  0
 42 44  1  1
 42 45  1  0
 41 46  1  0
 43 47  2  0
 43 48  1  0
 46 49  2  0
 46 50  1  0
 48 51  2  0
 48 52  1  0
 51 53  1  0
 52 54  2  0
 53 55  1  0
 53 56  2  0
 54 56  1  0
M  END
