x3115-x1348
     RDKit          3D

 40 43  0  0  0  0  0  0  0  0999 V2000
    6.9950   -1.6770   21.7380 N   0  0  0  0  0  0  0  0  0  0  0  0
    6.1570   -2.8750   21.5920 C   0  0  0  0  0  0  0  0  0  0  0  0
    4.9210   -3.0870   21.1140 O   0  0  0  0  0  0  0  0  0  0  0  0
    6.5860   -0.3520   21.5600 C   0  0  1  0  0  0  0  0  0  0  0  0
    8.3190   -1.7520   22.4530 C   0  0  0  0  0  0  0  0  0  0  0  0
    6.8860   -4.1080   22.1260 C   0  0  2  0  0  0  0  0  0  0  0  0
    7.5790    0.7280   21.9730 C   0  0  0  0  0  0  0  0  0  0  0  0
    6.0900    0.1650   20.2980 C   0  0  0  0  0  0  0  0  0  0  0  0
    9.5160   -1.5130   21.7580 C   0  0  0  0  0  0  0  0  0  0  0  0
    8.3760   -2.0680   23.8680 C   0  0  0  0  0  0  0  0  0  0  0  0
    7.2560   -5.1160   21.0110 C   0  0  0  0  0  0  0  0  0  0  0  0
    7.1090    1.8050   22.8860 N   0  0  0  0  0  0  0  0  0  0  0  0
    8.7120    0.7330   21.5070 O   0  0  0  0  0  0  0  0  0  0  0  0
    4.8730    1.0480   20.2270 C   0  0  0  0  0  0  0  0  0  0  0  0
    6.7290   -0.1070   19.1080 C   0  0  0  0  0  0  0  0  0  0  0  0
   10.7810   -1.5610   22.3510 C   0  0  0  0  0  0  0  0  0  0  0  0
    9.6150   -2.1300   24.5130 C   0  0  0  0  0  0  0  0  0  0  0  0
    5.9110   -4.6420   23.1140 N   0  0  0  0  0  0  0  0  0  0  0  0
    7.9840    2.7260   23.1250 C   0  0  0  0  0  0  0  0  0  0  0  0
    6.3390    0.3800   17.8960 N   0  0  0  0  0  0  0  0  0  0  0  0
    4.4520    1.5820   18.8960 C   0  0  0  0  0  0  0  0  0  0  0  0
   10.9050   -1.8530   23.6890 C   0  0  0  0  0  0  0  0  0  0  0  0
    6.0150   -5.6070   24.1920 C   0  0  1  0  0  0  0  0  0  0  0  0
    4.9810   -5.2920   22.2640 C   0  0  0  0  0  0  0  0  0  0  0  0
    7.8590    3.8740   22.3200 C   0  0  0  0  0  0  0  0  0  0  0  0
   12.3690   -1.8490   24.2040 C   0  0  0  0  0  0  0  0  0  0  0  0
    5.1520    1.2770   17.7550 C   0  0  0  0  0  0  0  0  0  0  0  0
    6.5510   -5.0570   25.5440 C   0  0  2  0  0  0  0  0  0  0  0  0
    4.5190   -6.0530   24.3150 C   0  0  1  0  0  0  0  0  0  0  0  0
    3.7330   -6.5180   22.7460 S   0  0  0  0  0  0  0  0  0  0  0  0
    8.4790    5.0430   22.9090 O   0  0  0  0  0  0  0  0  0  0  0  0
   13.2490   -2.0160   23.1430 C   0  0  0  0  0  0  0  0  0  0  0  0
   12.7670   -2.9510   25.1990 C   0  0  0  0  0  0  0  0  0  0  0  0
   12.5390   -0.6430   24.8420 C   0  0  0  0  0  0  0  0  0  0  0  0
    7.9030   -4.9230   25.5540 O   0  0  0  0  0  0  0  0  0  0  0  0
    4.2300   -6.8020   25.4230 C   0  0  0  0  0  0  0  0  0  0  0  0
    6.0880   -5.7280   26.7260 C   0  0  0  0  0  0  0  0  0  0  0  0
    8.2200    6.2530   22.1990 C   0  0  0  0  0  0  0  0  0  0  0  0
    8.4550   -4.7340   26.8720 C   0  0  0  0  0  0  0  0  0  0  0  0
    4.9160   -6.6940   26.5700 C   0  0  0  0  0  0  0  0  0  0  0  0
  1  2  1  0
  2  3  2  0
  1  4  1  0
  1  5  1  0
  2  6  1  0
  4  7  1  6
  4  8  1  0
  5  9  2  0
  5 10  1  0
  6 11  1  6
  7 12  1  0
  7 13  2  0
  8 14  2  0
  8 15  1  0
  9 16  1  0
 10 17  2  0
  6 18  1  0
 12 19  1  0
 15 20  2  0
 14 21  1  0
 16 22  2  0
 17 22  1  0
 23 18  1  6
 18 24  1  0
 19 25  1  0
 22 26  1  0
 20 27  1  0
 21 27  2  0
 23 28  1  0
 23 29  1  0
 24 30  2  0
 29 30  1  0
 25 31  1  0
 26 32  1  0
 26 33  1  0
 26 34  1  0
 28 35  1  6
 29 36  1  1
 28 37  1  0
 31 38  1  0
 35 39  1  0
 36 40  2  0
 37 40  1  0
M  END
