x3117-x0771
     RDKit          3D

 49 54  0  0  0  0  0  0  0  0999 V2000
    6.7490   -1.4940   22.0310 C   0  0  1  0  0  0  0  0  0  0  0  0
    5.7830   -2.4110   21.1200 C   0  0  0  0  0  0  0  0  0  0  0  0
    4.6810   -2.9900   21.4920 O   0  0  0  0  0  0  0  0  0  0  0  0
    6.4200    0.0180   21.8900 C   0  0  1  0  0  0  0  0  0  0  0  0
    6.2810   -2.4590   23.1330 C   0  0  0  0  0  0  0  0  0  0  0  0
    8.2640   -1.6040   22.4700 C   0  0  0  0  0  0  0  0  0  0  0  0
    5.9870   -2.8650   19.7880 C   0  0  0  0  0  0  0  0  0  0  0  0
    7.5870    0.8780   22.0120 C   0  0  0  0  0  0  0  0  0  0  0  0
    5.9960    0.3850   20.4570 C   0  0  0  0  0  0  0  0  0  0  0  0
    9.3450   -2.0240   21.6640 C   0  0  0  0  0  0  0  0  0  0  0  0
    8.5480   -1.2540   23.7600 C   0  0  0  0  0  0  0  0  0  0  0  0
    6.9240   -3.8710   22.7830 C   0  0  2  0  0  0  0  0  0  0  0  0
    6.6180   -4.1730   20.0130 C   0  0  0  0  0  0  0  0  0  0  0  0
    7.5020    1.9680   22.8370 N   0  0  0  0  0  0  0  0  0  0  0  0
    8.6190    0.6520   21.3660 O   0  0  0  0  0  0  0  0  0  0  0  0
    4.8340    1.1120   20.2950 C   0  0  0  0  0  0  0  0  0  0  0  0
    6.7750    0.0080   19.3290 C   0  0  0  0  0  0  0  0  0  0  0  0
   10.8750   -2.1880   21.8990 C   0  0  0  0  0  0  0  0  0  0  0  0
    9.9400   -1.3200   24.2460 C   0  0  0  0  0  0  0  0  0  0  0  0
    6.6800   -4.6550   21.4800 N   0  0  0  0  0  0  0  0  0  0  0  0
    6.8770   -4.6740   24.0710 C   0  0  0  0  0  0  0  0  0  0  0  0
    6.3760    0.3720   18.0790 N   0  0  0  0  0  0  0  0  0  0  0  0
    4.4040    1.5070   18.9350 C   0  0  0  0  0  0  0  0  0  0  0  0
    8.3300    3.0750   22.7620 C   0  0  0  0  0  0  0  0  0  0  0  0
   10.9430   -1.7410   23.3720 C   0  0  0  0  0  0  0  0  0  0  0  0
    5.9530   -5.9170   21.7970 C   0  0  0  0  0  0  0  0  0  0  0  0
    5.6430   -5.4540   24.1410 N   0  0  0  0  0  0  0  0  0  0  0  0
   12.3180   -1.7100   24.0710 C   0  0  0  0  0  0  0  0  0  0  0  0
    5.0000   -5.6910   25.6530 S   0  0  0  0  0  0  0  0  0  0  0  0
    5.1810    1.1310   17.8860 C   0  0  0  0  0  0  0  0  0  0  0  0
    9.4880    3.1950   23.7670 C   0  0  0  0  0  0  0  0  0  0  0  0
    8.1310    4.2160   23.5870 C   0  0  0  0  0  0  0  0  0  0  0  0
    4.8960   -5.7790   22.8950 C   0  0  0  0  0  0  0  0  0  0  0  0
   12.4290   -0.5210   25.0000 C   0  0  0  0  0  0  0  0  0  0  0  0
   13.3550   -1.5400   23.1990 C   0  0  0  0  0  0  0  0  0  0  0  0
   12.6480   -2.9640   24.8870 C   0  0  0  0  0  0  0  0  0  0  0  0
    4.3670   -6.9960   25.6680 O   0  0  0  0  0  0  0  0  0  0  0  0
    5.9870   -5.3670   26.6590 O   0  0  0  0  0  0  0  0  0  0  0  0
   10.6220    4.1760   23.4870 C   0  0  0  0  0  0  0  0  0  0  0  0
    8.8280    5.5220   23.2920 C   0  0  0  0  0  0  0  0  0  0  0  0
    3.6880   -4.4830   25.7630 C   0  0  0  0  0  0  0  0  0  0  0  0
   10.1440    5.4810   23.7970 O   0  0  0  0  0  0  0  0  0  0  0  0
    2.2700   -4.7730   25.4020 C   0  0  0  0  0  0  0  0  0  0  0  0
    4.0040   -3.2090   26.2130 C   0  0  0  0  0  0  0  0  0  0  0  0
    1.7370   -6.0890   24.8950 C   0  0  0  0  0  0  0  0  0  0  0  0
    1.3710   -3.6470   25.5800 C   0  0  0  0  0  0  0  0  0  0  0  0
    3.0480   -2.1970   26.3430 C   0  0  0  0  0  0  0  0  0  0  0  0
    1.7070   -2.4410   26.0180 C   0  0  0  0  0  0  0  0  0  0  0  0
    0.6730   -1.3630   26.1640 C   0  0  0  0  0  0  0  0  0  0  0  0
  1  2  1  0
  2  3  2  0
  1  4  1  0
  1  5  1  0
  1  6  1  6
  2  7  1  0
  4  8  1  6
  4  9  1  0
  6 10  2  0
  6 11  1  0
 12  5  1  1
  7 13  1  0
  8 14  1  0
  8 15  2  0
  9 16  2  0
  9 17  1  0
 10 18  1  0
 11 19  2  0
 12 20  1  0
 13 20  1  0
 12 21  1  0
 17 22  2  0
 16 23  1  0
 14 24  1  0
 18 25  2  0
 19 25  1  0
 20 26  1  0
 21 27  1  0
 25 28  1  0
 27 29  1  0
 22 30  1  0
 23 30  2  0
 24 31  1  0
 24 32  1  0
 26 33  1  0
 27 33  1  0
 28 34  1  0
 28 35  1  0
 28 36  1  0
 29 37  2  0
 29 38  2  0
 31 39  1  0
 32 40  1  0
 29 41  1  0
 39 42  1  0
 40 42  1  0
 41 43  2  0
 41 44  1  0
 43 45  1  0
 43 46  1  0
 44 47  2  0
 46 48  2  0
 47 48  1  0
 48 49  1  0
M  END
