x3110-x0540-x0786-x0354
     RDKit          3D

 69 74  0  0  0  0  0  0  0  0999 V2000
    7.9700    1.1870   23.0790 N   0  0  0  0  0  0  0  0  0  0  0  0
    8.7750    2.3790   23.5460 C   0  0  0  0  0  0  0  0  0  0  0  0
   10.2630    2.0280   23.4680 C   0  0  0  0  0  0  0  0  0  0  0  0
    7.7690    0.7640   21.6720 C   0  0  0  0  0  0  0  0  0  0  0  0
    8.4390    1.3930   20.8420 O   0  0  0  0  0  0  0  0  0  0  0  0
    6.7430   -0.4030   21.3620 C   0  0  2  0  0  0  0  0  0  0  0  0
    7.0960   -1.7160   21.3560 N   0  0  0  0  0  0  0  0  0  0  0  0
   11.1190    3.2870   23.4350 C   0  0  0  0  0  0  0  0  0  0  0  0
    6.1860    0.1660   20.0830 C   0  0  0  0  0  0  0  0  0  0  0  0
   11.9260    3.2550   22.5140 O   0  0  0  0  0  0  0  0  0  0  0  0
   10.9780    4.3510   24.3650 O   0  0  0  0  0  0  0  0  0  0  0  0
    6.2050   -2.8750   21.3160 C   0  0  0  0  0  0  0  0  0  0  0  0
    4.8800    0.8840   20.0960 C   0  0  0  0  0  0  0  0  0  0  0  0
    6.8680    0.0480   18.9190 C   0  0  0  0  0  0  0  0  0  0  0  0
    8.3160   -1.7620   22.1610 C   0  0  0  0  0  0  0  0  0  0  0  0
   12.2600    4.3540   22.0620 C   0  0  0  0  0  0  0  0  0  0  0  0
    4.9320   -3.0640   20.9620 O   0  0  0  0  0  0  0  0  0  0  0  0
    6.8980   -4.1070   21.7890 C   0  0  2  0  0  0  0  0  0  0  0  0
    4.0650    1.0130   21.4110 C   0  0  0  0  0  0  0  0  0  0  0  0
    6.3790    0.6220   17.6750 N   0  0  0  0  0  0  0  0  0  0  0  0
    4.4740    1.3980   18.9190 C   0  0  0  0  0  0  0  0  0  0  0  0
    9.5410   -2.0850   21.7000 C   0  0  0  0  0  0  0  0  0  0  0  0
    8.2320   -1.4400   23.4720 C   0  0  0  0  0  0  0  0  0  0  0  0
   13.3800    5.1600   22.7190 C   0  0  0  0  0  0  0  0  0  0  0  0
    7.0860   -4.9890   20.5270 C   0  0  0  0  0  0  0  0  0  0  0  0
    4.8070    1.8340   22.2630 C   0  0  0  0  0  0  0  0  0  0  0  0
    5.2130    1.2730   17.7450 C   0  0  0  0  0  0  0  0  0  0  0  0
   10.6380   -2.0420   22.4870 C   0  0  0  0  0  0  0  0  0  0  0  0
    9.3140   -1.4050   24.3150 C   0  0  0  0  0  0  0  0  0  0  0  0
    6.0040   -4.5630   22.9540 C   0  0  0  0  0  0  0  0  0  0  0  0
    4.0610    2.7340   22.9220 N   0  0  0  0  0  0  0  0  0  0  0  0
    8.5380   -1.0260   25.5940 C   0  0  0  0  0  0  0  0  0  0  0  0
   10.6450   -1.6980   23.8150 C   0  0  0  0  0  0  0  0  0  0  0  0
    5.1230   -5.6590   22.9690 C   0  0  0  0  0  0  0  0  0  0  0  0
    6.1230   -3.7330   24.0830 C   0  0  0  0  0  0  0  0  0  0  0  0
   12.0520   -1.7080   24.4510 C   0  0  0  0  0  0  0  0  0  0  0  0
    2.9080    2.4730   23.5670 C   0  0  0  0  0  0  0  0  0  0  0  0
    7.5700   -1.7740   25.7340 O   0  0  0  0  0  0  0  0  0  0  0  0
    8.7520   -0.0500   26.5490 C   0  0  0  0  0  0  0  0  0  0  0  0
    4.3420   -5.9370   24.1170 C   0  0  0  0  0  0  0  0  0  0  0  0
    5.4010   -3.9260   25.2560 C   0  0  0  0  0  0  0  0  0  0  0  0
   12.1460   -0.5910   25.2230 C   0  0  0  0  0  0  0  0  0  0  0  0
   13.1600   -1.4950   23.3960 C   0  0  0  0  0  0  0  0  0  0  0  0
   12.4600   -2.9530   24.9180 C   0  0  0  0  0  0  0  0  0  0  0  0
    2.8200    1.5780   24.4090 O   0  0  0  0  0  0  0  0  0  0  0  0
    1.9050    3.2580   23.2190 N   0  0  0  0  0  0  0  0  0  0  0  0
    7.9310   -0.3470   27.4760 O   0  0  0  0  0  0  0  0  0  0  0  0
    3.3910   -7.0620   24.2090 C   0  0  0  0  0  0  0  0  0  0  0  0
    4.4620   -5.1130   25.2270 C   0  0  0  0  0  0  0  0  0  0  0  0
    3.8140   -8.0800   24.7420 O   0  0  0  0  0  0  0  0  0  0  0  0
    0.7030    3.3560   24.0660 C   0  0  0  0  0  0  0  0  0  0  0  0
    7.2050    0.5170   28.2520 C   0  0  0  0  0  0  0  0  0  0  0  0
    2.0200   -6.9270   23.7130 N   0  0  0  0  0  0  0  0  0  0  0  0
    0.5480    4.6680   24.5430 C   0  0  0  0  0  0  0  0  0  0  0  0
   -0.4950    2.7380   23.3320 C   0  0  0  0  0  0  0  0  0  0  0  0
    7.0250    1.7950   27.7430 C   0  0  0  0  0  0  0  0  0  0  0  0
    6.5960    0.1700   29.6190 C   0  0  0  0  0  0  0  0  0  0  0  0
    1.5390   -5.6090   23.3060 C   0  0  0  0  0  0  0  0  0  0  0  0
    0.9600   -7.9420   23.8630 C   0  0  0  0  0  0  0  0  0  0  0  0
   -0.7150    4.9400   25.1030 C   0  0  0  0  0  0  0  0  0  0  0  0
   -1.8610    3.3540   23.6610 C   0  0  0  0  0  0  0  0  0  0  0  0
    6.3190    2.7530   28.4620 C   0  0  0  0  0  0  0  0  0  0  0  0
    5.8950    1.1710   30.3070 C   0  0  0  0  0  0  0  0  0  0  0  0
    0.3860   -5.1000   24.2410 C   0  0  0  0  0  0  0  0  0  0  0  0
    0.0580   -7.6540   24.9070 C   0  0  0  0  0  0  0  0  0  0  0  0
   -1.8210    4.6040   24.3020 C   0  0  0  0  0  0  0  0  0  0  0  0
    5.7150    2.4660   29.8230 C   0  0  0  0  0  0  0  0  0  0  0  0
   -0.9740   -6.1960   24.5050 S   0  0  0  0  0  0  0  0  0  0  0  0
    4.9690    3.5070   30.6010 C   0  0  0  0  0  0  0  0  0  0  0  0
  1  2  1  0
  2  3  1  0
  1  4  1  0
  4  5  2  0
  6  4  1  6
  6  7  1  0
  3  8  1  0
  6  9  1  0
  8 10  1  0
  8 11  2  0
  7 12  1  0
  9 13  1  0
  9 14  2  0
  7 15  1  0
 10 16  1  0
 12 17  2  0
 12 18  1  0
 13 19  1  0
 14 20  1  0
 13 21  2  0
 15 22  2  0
 15 23  1  0
 16 24  1  0
 18 25  1  6
 19 26  1  0
 20 27  2  0
 21 27  1  0
 22 28  1  0
 23 29  2  0
 18 30  1  0
 26 31  1  0
 29 32  1  0
 28 33  2  0
 29 33  1  0
 30 34  2  0
 30 35  1  0
 33 36  1  0
 31 37  1  0
 32 38  2  0
 32 39  1  0
 34 40  1  0
 35 41  2  0
 36 42  1  0
 36 43  1  0
 36 44  1  0
 37 45  2  0
 37 46  1  0
 39 47  1  0
 40 48  1  0
 40 49  2  0
 41 49  1  0
 48 50  2  0
 46 51  1  0
 47 52  1  0
 48 53  1  0
 51 54  1  0
 51 55  1  0
 52 56  2  0
 52 57  1  0
 53 58  1  0
 53 59  1  0
 54 60  1  0
 55 61  1  0
 56 62  1  0
 57 63  2  0
 58 64  1  0
 59 65  1  0
 60 66  1  0
 61 66  1  0
 62 67  2  0
 63 67  1  0
 64 68  1  0
 65 68  1  0
 67 69  1  0
M  END
