x3110-x2703
     RDKit          3D

 39 41  0  0  0  0  0  0  0  0999 V2000
    7.7070    1.8330   22.9620 N   0  0  0  0  0  0  0  0  0  0  0  0
    7.6070    0.9960   21.7810 C   0  0  0  0  0  0  0  0  0  0  0  0
    8.4920    1.2930   20.7080 O   0  0  0  0  0  0  0  0  0  0  0  0
    8.1700    3.2140   22.8640 C   0  0  0  0  0  0  0  0  0  0  0  0
    6.5330   -0.1580   21.5620 C   0  0  2  0  0  0  0  0  0  0  0  0
    9.5110    3.6700   23.0770 C   0  0  0  0  0  0  0  0  0  0  0  0
    7.2050    4.2000   22.5330 C   0  0  0  0  0  0  0  0  0  0  0  0
    6.8550   -1.5510   21.6850 N   0  0  0  0  0  0  0  0  0  0  0  0
   10.7860    2.8960   23.4150 C   0  0  1  0  0  0  0  0  0  0  0  0
    5.7610    3.8940   22.2500 C   0  0  0  0  0  0  0  0  0  0  0  0
    6.1670    0.2500   20.1780 C   0  0  0  0  0  0  0  0  0  0  0  0
    9.7830    5.0260   22.9800 C   0  0  0  0  0  0  0  0  0  0  0  0
    7.5890    5.5380   22.4560 C   0  0  0  0  0  0  0  0  0  0  0  0
   11.5730    3.1570   22.4830 O   0  0  0  0  0  0  0  0  0  0  0  0
   11.0800    3.4080   24.4430 O   0  0  0  0  0  0  0  0  0  0  0  0
   10.3660    1.4340   23.6040 C   0  0  0  0  0  0  0  0  0  0  0  0
    6.0520   -2.7570   21.2750 C   0  0  0  0  0  0  0  0  0  0  0  0
    5.0580    1.0880   20.1490 C   0  0  0  0  0  0  0  0  0  0  0  0
    6.8020   -0.0890   18.9630 C   0  0  0  0  0  0  0  0  0  0  0  0
    8.1420   -1.6680   22.3070 C   0  0  0  0  0  0  0  0  0  0  0  0
    8.8710    6.0140   22.6780 C   0  0  0  0  0  0  0  0  0  0  0  0
   12.7370    3.9690   22.7920 C   0  0  0  0  0  0  0  0  0  0  0  0
    4.7660   -2.9890   21.3340 O   0  0  0  0  0  0  0  0  0  0  0  0
    6.7500   -3.9650   20.6830 C   0  0  0  0  0  0  0  0  0  0  0  0
    9.4370    1.1570   24.8190 C   0  0  0  0  0  0  0  0  0  0  0  0
    6.3370    0.4130   17.7910 N   0  0  0  0  0  0  0  0  0  0  0  0
    4.6220    1.5680   18.9470 C   0  0  0  0  0  0  0  0  0  0  0  0
    9.2710   -1.3310   21.6040 C   0  0  0  0  0  0  0  0  0  0  0  0
    8.3640   -2.0810   23.5850 C   0  0  0  0  0  0  0  0  0  0  0  0
   13.0610    5.0760   21.8020 C   0  0  0  0  0  0  0  0  0  0  0  0
    8.2130   -3.6720   20.3670 C   0  0  0  0  0  0  0  0  0  0  0  0
    5.2680    1.2270   17.8000 C   0  0  0  0  0  0  0  0  0  0  0  0
   10.6850   -1.4010   22.1810 C   0  0  0  0  0  0  0  0  0  0  0  0
    9.7180   -2.1550   24.1850 C   0  0  0  0  0  0  0  0  0  0  0  0
   10.8650   -1.8320   23.5440 C   0  0  0  0  0  0  0  0  0  0  0  0
   12.1990   -1.9240   24.2760 C   0  0  0  0  0  0  0  0  0  0  0  0
   12.5790   -0.6970   24.8550 C   0  0  0  0  0  0  0  0  0  0  0  0
   13.2950   -1.3690   23.4510 C   0  0  0  0  0  0  0  0  0  0  0  0
   12.6100   -3.0460   24.8380 C   0  0  0  0  0  0  0  0  0  0  0  0
  1  2  1  0
  2  3  2  0
  1  4  1  0
  5  2  1  6
  4  6  2  0
  4  7  1  0
  5  8  1  0
  6  9  1  0
  7 10  1  0
  5 11  1  0
  6 12  1  0
  7 13  2  0
  9 14  1  0
  9 15  1  1
  9 16  1  0
  8 17  1  0
 11 18  2  0
 11 19  1  0
  8 20  1  0
 12 21  2  0
 13 21  1  0
 14 22  1  0
 17 23  2  0
 17 24  1  0
 16 25  1  0
 19 26  2  0
 18 27  1  0
 20 28  2  0
 20 29  1  0
 22 30  1  0
 24 31  1  0
 26 32  1  0
 27 32  2  0
 28 33  1  0
 29 34  2  0
 33 35  2  0
 34 35  1  0
 35 36  1  0
 36 37  1  0
 36 38  1  0
 36 39  1  0
M  END
