x3113-x1348-x3124
     RDKit          3D

 41 44  0  0  0  0  0  0  0  0999 V2000
    7.1700   -1.6590   21.5760 N   0  0  0  0  0  0  0  0  0  0  0  0
    6.2960   -2.9160   21.4710 C   0  0  0  0  0  0  0  0  0  0  0  0
    5.0040   -3.1450   21.0080 O   0  0  0  0  0  0  0  0  0  0  0  0
    6.7680   -0.2150   21.5350 C   0  0  1  0  0  0  0  0  0  0  0  0
    8.4150   -1.7810   22.2920 C   0  0  0  0  0  0  0  0  0  0  0  0
    6.9460   -4.1080   21.9500 C   0  0  2  0  0  0  0  0  0  0  0  0
    7.9080    0.8330   21.8300 C   0  0  0  0  0  0  0  0  0  0  0  0
    6.1620    0.2670   20.2950 C   0  0  0  0  0  0  0  0  0  0  0  0
    9.6100   -1.2960   21.7930 C   0  0  0  0  0  0  0  0  0  0  0  0
    8.5320   -2.3700   23.5510 C   0  0  0  0  0  0  0  0  0  0  0  0
    6.8770   -4.9980   20.6990 C   0  0  0  0  0  0  0  0  0  0  0  0
    8.1540    1.3260   23.2070 N   0  0  0  0  0  0  0  0  0  0  0  0
    8.5740    1.2760   20.8950 O   0  0  0  0  0  0  0  0  0  0  0  0
    5.0070    1.0350   20.3130 C   0  0  0  0  0  0  0  0  0  0  0  0
    6.8010   -0.0520   19.1010 C   0  0  0  0  0  0  0  0  0  0  0  0
   10.8210   -1.3400   22.4460 C   0  0  0  0  0  0  0  0  0  0  0  0
    9.7560   -2.4310   24.2340 C   0  0  0  0  0  0  0  0  0  0  0  0
    6.2900   -4.2730   23.2000 N   0  0  0  0  0  0  0  0  0  0  0  0
    9.0380    2.4400   23.5630 C   0  0  0  0  0  0  0  0  0  0  0  0
    6.3910    0.3400   17.9020 N   0  0  0  0  0  0  0  0  0  0  0  0
    4.4640    1.5130   19.1400 C   0  0  0  0  0  0  0  0  0  0  0  0
   10.9320   -1.8950   23.7020 C   0  0  0  0  0  0  0  0  0  0  0  0
    6.1890   -5.6160   23.9030 C   0  0  1  0  0  0  0  0  0  0  0  0
    5.1300   -3.6500   23.1930 C   0  0  0  0  0  0  0  0  0  0  0  0
   10.5050    1.9230   23.6520 C   0  0  0  0  0  0  0  0  0  0  0  0
   12.2980   -1.8570   24.4200 C   0  0  0  0  0  0  0  0  0  0  0  0
    5.1860    1.1640   17.8370 C   0  0  0  0  0  0  0  0  0  0  0  0
    6.5440   -5.5700   25.2960 C   0  0  1  0  0  0  0  0  0  0  0  0
    4.9300   -6.2440   23.5520 C   0  0  2  0  0  0  0  0  0  0  0  0
    3.9790   -4.7700   23.3070 S   0  0  0  0  0  0  0  0  0  0  0  0
   11.3310    2.8790   22.7760 C   0  0  0  0  0  0  0  0  0  0  0  0
   12.9020   -2.9620   24.9550 C   0  0  0  0  0  0  0  0  0  0  0  0
   13.3470   -2.4600   23.5690 C   0  0  0  0  0  0  0  0  0  0  0  0
   12.6590   -0.5670   24.8200 C   0  0  0  0  0  0  0  0  0  0  0  0
    7.0300   -4.3580   25.6850 O   0  0  0  0  0  0  0  0  0  0  0  0
    4.3850   -7.1430   24.4540 C   0  0  0  0  0  0  0  0  0  0  0  0
    5.4530   -5.8290   26.1390 C   0  0  0  0  0  0  0  0  0  0  0  0
   11.6540    3.9720   23.5090 O   0  0  0  0  0  0  0  0  0  0  0  0
    7.7880   -4.4180   26.9240 C   0  0  0  0  0  0  0  0  0  0  0  0
    4.6410   -6.9210   25.8040 C   0  0  0  0  0  0  0  0  0  0  0  0
   12.8280    4.6280   22.9600 C   0  0  0  0  0  0  0  0  0  0  0  0
  1  2  1  0
  2  3  2  0
  1  4  1  0
  1  5  1  0
  2  6  1  0
  4  7  1  6
  4  8  1  0
  5  9  2  0
  5 10  1  0
  6 11  1  6
  7 12  1  0
  7 13  2  0
  8 14  2  0
  8 15  1  0
  9 16  1  0
 10 17  2  0
  6 18  1  0
 12 19  1  0
 15 20  2  0
 14 21  1  0
 16 22  2  0
 17 22  1  0
 23 18  1  1
 18 24  1  0
 19 25  1  0
 22 26  1  0
 20 27  1  0
 21 27  2  0
 23 28  1  0
 23 29  1  0
 24 30  2  0
 29 30  1  0
 25 31  1  0
 26 32  1  0
 26 33  1  0
 26 34  1  0
 28 35  1  1
 29 36  1  1
 28 37  1  0
 31 38  1  0
 35 39  1  0
 36 40  2  0
 37 40  1  0
 38 41  1  0
M  END
