x3110-x0786
     RDKit          3D

 46 49  0  0  0  0  0  0  0  0999 V2000
    7.8490    1.2640   23.1760 N   0  0  0  0  0  0  0  0  0  0  0  0
    8.7180    2.3800   23.5130 C   0  0  0  0  0  0  0  0  0  0  0  0
   10.2580    2.1180   23.5220 C   0  0  0  0  0  0  0  0  0  0  0  0
    7.6390    0.8110   21.8090 C   0  0  0  0  0  0  0  0  0  0  0  0
    8.3350    1.3270   20.9060 O   0  0  0  0  0  0  0  0  0  0  0  0
    6.5510   -0.2760   21.4570 C   0  0  2  0  0  0  0  0  0  0  0  0
    6.9170   -1.6190   21.5830 N   0  0  0  0  0  0  0  0  0  0  0  0
   11.1480    3.3500   23.3880 C   0  0  0  0  0  0  0  0  0  0  0  0
    6.2250    0.1180   20.2120 C   0  0  0  0  0  0  0  0  0  0  0  0
   11.9540    3.2440   22.4770 O   0  0  0  0  0  0  0  0  0  0  0  0
   11.0550    4.3340   24.1080 O   0  0  0  0  0  0  0  0  0  0  0  0
    6.0850   -2.8260   21.2720 C   0  0  0  0  0  0  0  0  0  0  0  0
    5.1220    0.9740   20.2230 C   0  0  0  0  0  0  0  0  0  0  0  0
    6.9030   -0.2600   19.0380 C   0  0  0  0  0  0  0  0  0  0  0  0
    8.1710   -1.6420   22.3180 C   0  0  0  0  0  0  0  0  0  0  0  0
   12.4090    4.4900   21.9300 C   0  0  0  0  0  0  0  0  0  0  0  0
    4.8290   -2.9330   20.9140 O   0  0  0  0  0  0  0  0  0  0  0  0
    6.6050   -4.2310   21.4230 C   0  0  1  0  0  0  0  0  0  0  0  0
    6.4110    0.2790   17.8860 N   0  0  0  0  0  0  0  0  0  0  0  0
    4.6740    1.4810   19.0280 C   0  0  0  0  0  0  0  0  0  0  0  0
    9.2600   -1.7430   21.5660 C   0  0  0  0  0  0  0  0  0  0  0  0
    8.3610   -1.5510   23.6870 C   0  0  0  0  0  0  0  0  0  0  0  0
   13.3920    5.1960   22.8530 C   0  0  0  0  0  0  0  0  0  0  0  0
    8.1130   -4.4950   21.1130 C   0  0  0  0  0  0  0  0  0  0  0  0
    5.3460    1.1110   17.8940 C   0  0  0  0  0  0  0  0  0  0  0  0
   10.6960   -1.7730   22.0720 C   0  0  0  0  0  0  0  0  0  0  0  0
    9.7500   -1.5650   24.2760 C   0  0  0  0  0  0  0  0  0  0  0  0
    5.9510   -4.6110   22.7710 C   0  0  0  0  0  0  0  0  0  0  0  0
   10.9010   -1.6720   23.5070 C   0  0  0  0  0  0  0  0  0  0  0  0
    5.0300   -5.6650   22.9300 C   0  0  0  0  0  0  0  0  0  0  0  0
    6.2540   -3.8480   23.9060 C   0  0  0  0  0  0  0  0  0  0  0  0
   12.3080   -1.6700   24.1030 C   0  0  0  0  0  0  0  0  0  0  0  0
    4.3980   -5.9730   24.1780 C   0  0  0  0  0  0  0  0  0  0  0  0
    5.6630   -4.1250   25.1120 C   0  0  0  0  0  0  0  0  0  0  0  0
   12.4880   -0.6030   24.9660 C   0  0  0  0  0  0  0  0  0  0  0  0
   13.3540   -1.6590   22.9580 C   0  0  0  0  0  0  0  0  0  0  0  0
   12.6260   -2.9240   24.9290 C   0  0  0  0  0  0  0  0  0  0  0  0
    3.4270   -7.0780   24.3070 C   0  0  0  0  0  0  0  0  0  0  0  0
    4.7650   -5.1480   25.2500 C   0  0  0  0  0  0  0  0  0  0  0  0
    3.8050   -8.1000   24.8460 O   0  0  0  0  0  0  0  0  0  0  0  0
    2.0490   -6.8680   23.7870 N   0  0  0  0  0  0  0  0  0  0  0  0
    1.5210   -5.5590   23.3920 C   0  0  0  0  0  0  0  0  0  0  0  0
    1.0900   -7.9680   23.9610 C   0  0  0  0  0  0  0  0  0  0  0  0
    0.6070   -5.0670   24.3270 C   0  0  0  0  0  0  0  0  0  0  0  0
   -0.0100   -7.6790   24.7800 C   0  0  0  0  0  0  0  0  0  0  0  0
   -0.8600   -6.1310   24.3210 S   0  0  0  0  0  0  0  0  0  0  0  0
  1  2  1  0
  2  3  1  0
  1  4  1  0
  4  5  2  0
  6  4  1  6
  6  7  1  0
  3  8  1  0
  6  9  1  0
  8 10  1  0
  8 11  2  0
  7 12  1  0
  9 13  2  0
  9 14  1  0
  7 15  1  0
 10 16  1  0
 12 17  2  0
 12 18  1  0
 14 19  2  0
 13 20  1  0
 15 21  2  0
 15 22  1  0
 16 23  1  0
 18 24  1  1
 19 25  1  0
 20 25  2  0
 21 26  1  0
 22 27  2  0
 18 28  1  0
 26 29  2  0
 27 29  1  0
 28 30  2  0
 28 31  1  0
 29 32  1  0
 30 33  1  0
 31 34  2  0
 32 35  1  0
 32 36  1  0
 32 37  1  0
 33 38  1  0
 33 39  2  0
 34 39  1  0
 38 40  2  0
 38 41  1  0
 41 42  1  0
 41 43  1  0
 42 44  1  0
 43 45  1  0
 44 46  1  0
 45 46  1  0
M  END
