x3117-x0395
     RDKit          3D

 42 46  0  0  0  0  0  0  0  0999 V2000
    7.0660   -1.7100   21.8860 N   0  0  0  0  0  0  0  0  0  0  0  0
    6.0910   -2.8640   21.6100 C   0  0  0  0  0  0  0  0  0  0  0  0
    4.7930   -2.9830   21.2850 O   0  0  0  0  0  0  0  0  0  0  0  0
    6.7540   -0.2870   21.7290 C   0  0  1  0  0  0  0  0  0  0  0  0
    8.4270   -2.0680   22.4280 C   0  0  1  0  0  0  0  0  0  0  0  0
    6.6080   -4.2910   21.6700 C   0  0  0  0  0  0  0  0  0  0  0  0
    7.8970    0.7790   21.9810 C   0  0  0  0  0  0  0  0  0  0  0  0
    6.1880    0.1250   20.3850 C   0  0  0  0  0  0  0  0  0  0  0  0
    9.6550   -1.6550   21.7710 C   0  0  0  0  0  0  0  0  0  0  0  0
    8.5390   -2.2760   23.8720 C   0  0  1  0  0  0  0  0  0  0  0  0
    6.5530   -4.8480   20.2650 C   0  0  0  0  0  0  0  0  0  0  0  0
    7.4970    1.7630   23.0580 N   0  0  0  0  0  0  0  0  0  0  0  0
    8.9670    0.8720   21.3720 O   0  0  0  0  0  0  0  0  0  0  0  0
    5.0380    0.8870   20.3150 C   0  0  0  0  0  0  0  0  0  0  0  0
    6.7650   -0.1930   19.1730 C   0  0  0  0  0  0  0  0  0  0  0  0
   10.6670   -1.2140   22.6550 C   0  0  1  0  0  0  0  0  0  0  0  0
    9.7820   -1.9180   24.6570 C   0  0  0  0  0  0  0  0  0  0  0  0
    7.5400   -2.0820   24.7980 N   0  0  0  0  0  0  0  0  0  0  0  0
    8.6600   -4.0320   23.8690 S   0  0  0  0  0  0  0  0  0  0  0  0
    6.3460    0.1550   17.9340 N   0  0  0  0  0  0  0  0  0  0  0  0
    4.5710    1.2650   19.1240 C   0  0  0  0  0  0  0  0  0  0  0  0
    8.0390    3.0290   23.2800 C   0  0  0  0  0  0  0  0  0  0  0  0
   10.8260   -2.0410   23.8540 C   0  0  2  0  0  0  0  0  0  0  0  0
    8.1120   -4.2600   25.5370 C   0  0  2  0  0  0  0  0  0  0  0  0
    7.8030   -2.8700   25.9230 N   0  0  0  0  0  0  0  0  0  0  0  0
   12.1240   -0.9040   22.1340 C   0  0  0  0  0  0  0  0  0  0  0  0
   10.0870    0.0340   23.1600 N   0  0  0  0  0  0  0  0  0  0  0  0
   12.2850   -2.1200   24.4960 C   0  0  0  0  0  0  0  0  0  0  0  0
    9.1900   -5.0190   26.3990 C   0  0  0  0  0  0  0  0  0  0  0  0
   12.7950   -1.7770   21.3390 F   0  0  0  0  0  0  0  0  0  0  0  0
    5.1880    0.9280   17.9310 C   0  0  0  0  0  0  0  0  0  0  0  0
    9.4910    3.1500   23.7300 C   0  0  0  0  0  0  0  0  0  0  0  0
    7.8480    4.0990   22.2080 C   0  0  0  0  0  0  0  0  0  0  0  0
   10.9530    0.7440   23.8520 C   0  0  0  0  0  0  0  0  0  0  0  0
   12.7790    0.2110   22.4490 C   0  0  0  0  0  0  0  0  0  0  0  0
   12.7150   -0.8940   25.2720 C   0  0  0  0  0  0  0  0  0  0  0  0
   13.3230   -2.5870   23.5420 C   0  0  0  0  0  0  0  0  0  0  0  0
   12.0910   -3.3740   25.4120 C   0  0  0  0  0  0  0  0  0  0  0  0
    9.8640    4.4380   24.1160 C   0  0  0  0  0  0  0  0  0  0  0  0
    8.3230    5.4920   22.7140 C   0  0  0  0  0  0  0  0  0  0  0  0
   12.2070    1.2080   23.2290 C   0  0  0  0  0  0  0  0  0  0  0  0
    9.6700    5.4620   23.1700 O   0  0  0  0  0  0  0  0  0  0  0  0
  1  2  1  0
  2  3  2  0
  1  4  1  0
  5  1  1  1
  2  6  1  0
  4  7  1  6
  4  8  1  0
  5  9  1  0
  5 10  1  0
  6 11  1  0
  7 12  1  0
  7 13  2  0
  8 14  2  0
  8 15  1  0
 16  9  1  6
 10 17  1  1
 10 18  1  0
 10 19  1  0
 15 20  2  0
 14 21  1  0
 12 22  1  0
 16 23  1  0
 17 23  1  0
 19 24  1  0
 18 25  1  0
 24 25  1  0
 16 26  1  0
 16 27  1  0
 23 28  1  1
 24 29  1  1
 26 30  1  0
 20 31  1  0
 21 31  2  0
 22 32  1  0
 22 33  1  0
 27 34  1  0
 26 35  2  0
 28 36  1  0
 28 37  1  0
 28 38  1  0
 32 39  1  0
 33 40  1  0
 34 41  1  0
 35 41  1  0
 39 42  1  0
 40 42  1  0
M  END
