x3110-x3115-x0946-x0769
     RDKit          3D

 58 63  0  0  0  0  0  0  0  0999 V2000
    7.9810    1.5080   23.3490 N   0  0  0  0  0  0  0  0  0  0  0  0
    8.6170    2.5970   23.6790 C   0  0  2  0  0  0  0  0  0  0  0  0
    7.8710    3.7190   22.8520 C   0  0  0  0  0  0  0  0  0  0  0  0
    7.8590    1.1010   21.9380 C   0  0  0  0  0  0  0  0  0  0  0  0
    8.6410    1.5300   21.0760 O   0  0  0  0  0  0  0  0  0  0  0  0
    6.7190    0.1690   21.7000 C   0  0  2  0  0  0  0  0  0  0  0  0
   10.1380    2.5230   23.4000 C   0  0  0  0  0  0  0  0  0  0  0  0
    6.7710   -1.3580   22.0920 C   0  0  2  0  0  0  0  0  0  0  0  0
    8.1460    4.8440   23.2820 O   0  0  0  0  0  0  0  0  0  0  0  0
    6.2380    0.4890   20.3170 C   0  0  0  0  0  0  0  0  0  0  0  0
   10.9920    3.6380   23.4980 C   0  0  0  0  0  0  0  0  0  0  0  0
   10.6920    1.3160   23.0200 C   0  0  0  0  0  0  0  0  0  0  0  0
   10.4280    4.9300   23.9860 C   0  0  0  0  0  0  0  0  0  0  0  0
    5.6930   -2.2600   21.2790 C   0  0  0  0  0  0  0  0  0  0  0  0
    8.0370    5.8700   22.3010 C   0  0  0  0  0  0  0  0  0  0  0  0
    5.9540   -1.5910   23.3370 C   0  0  0  0  0  0  0  0  0  0  0  0
    5.1440    1.3380   20.2010 C   0  0  0  0  0  0  0  0  0  0  0  0
    6.8660   -0.0260   19.1840 C   0  0  0  0  0  0  0  0  0  0  0  0
    8.3130   -1.5680   22.4640 C   0  0  0  0  0  0  0  0  0  0  0  0
   12.1390    1.1700   22.6990 C   0  0  0  0  0  0  0  0  0  0  0  0
   12.3430    3.5410   23.1670 C   0  0  0  0  0  0  0  0  0  0  0  0
   13.2250    4.7920   23.2330 C   0  0  0  0  0  0  0  0  0  0  0  0
    5.0250   -3.1860   20.6560 O   0  0  0  0  0  0  0  0  0  0  0  0
    6.7090   -3.3640   21.2610 C   0  0  2  0  0  0  0  0  0  0  0  0
   10.1300    6.0980   24.1760 O   0  0  0  0  0  0  0  0  0  0  0  0
   11.1210    5.3350   23.0720 O   0  0  0  0  0  0  0  0  0  0  0  0
    5.5220   -3.0900   23.4360 C   0  0  0  0  0  0  0  0  0  0  0  0
    6.3620    0.3460   17.8580 N   0  0  0  0  0  0  0  0  0  0  0  0
    4.6420    1.7090   18.9600 C   0  0  0  0  0  0  0  0  0  0  0  0
    9.3920   -1.9510   21.6630 C   0  0  0  0  0  0  0  0  0  0  0  0
    8.6780   -1.3040   23.7780 C   0  0  0  0  0  0  0  0  0  0  0  0
   12.9030    2.3210   22.7810 C   0  0  0  0  0  0  0  0  0  0  0  0
   13.2110    5.5670   21.9510 C   0  0  0  0  0  0  0  0  0  0  0  0
    6.6770   -4.0020   19.8590 C   0  0  0  0  0  0  0  0  0  0  0  0
    5.2470    1.2220   17.8210 C   0  0  0  0  0  0  0  0  0  0  0  0
   10.7150   -2.0540   22.1410 C   0  0  0  0  0  0  0  0  0  0  0  0
    9.9730   -1.3940   24.2590 C   0  0  0  0  0  0  0  0  0  0  0  0
    6.2930   -4.1290   22.5160 C   0  0  0  0  0  0  0  0  0  0  0  0
   11.0430   -1.7670   23.4790 C   0  0  0  0  0  0  0  0  0  0  0  0
    5.5620   -5.2940   22.2550 C   0  0  0  0  0  0  0  0  0  0  0  0
    7.5390   -4.6810   23.2810 C   0  0  0  0  0  0  0  0  0  0  0  0
   12.4280   -1.8210   24.0710 C   0  0  0  0  0  0  0  0  0  0  0  0
    5.1130   -6.0950   23.4650 C   0  0  0  0  0  0  0  0  0  0  0  0
    7.1030   -5.0890   24.6740 C   0  0  0  0  0  0  0  0  0  0  0  0
   12.6480   -0.6590   24.7980 C   0  0  0  0  0  0  0  0  0  0  0  0
   13.4290   -1.9190   22.9280 C   0  0  0  0  0  0  0  0  0  0  0  0
   12.8020   -2.9850   24.9900 C   0  0  0  0  0  0  0  0  0  0  0  0
    5.6680   -5.4650   24.6740 N   0  0  0  0  0  0  0  0  0  0  0  0
    4.7830   -5.3500   26.0930 S   0  0  0  0  0  0  0  0  0  0  0  0
    5.7230   -5.1520   27.1710 O   0  0  0  0  0  0  0  0  0  0  0  0
    3.9100   -6.5100   26.1270 O   0  0  0  0  0  0  0  0  0  0  0  0
    3.7770   -4.0030   26.0210 C   0  0  0  0  0  0  0  0  0  0  0  0
    4.3100   -2.7460   26.1550 C   0  0  0  0  0  0  0  0  0  0  0  0
    2.2470   -4.1300   25.8180 C   0  0  0  0  0  0  0  0  0  0  0  0
    5.6130   -2.5340   26.3330 F   0  0  0  0  0  0  0  0  0  0  0  0
    1.3720   -2.8830   25.7770 C   0  0  0  0  0  0  0  0  0  0  0  0
    3.4950   -1.5990   26.1140 C   0  0  0  0  0  0  0  0  0  0  0  0
    1.9730   -1.6460   25.9240 C   0  0  0  0  0  0  0  0  0  0  0  0
  1  2  1  0
  2  3  1  6
  1  4  1  0
  4  5  2  0
  6  4  1  6
  2  7  1  0
  6  8  1  0
  3  9  1  0
  6 10  1  0
  7 11  2  0
  7 12  1  0
 11 13  1  0
  8 14  1  0
  9 15  1  0
  8 16  1  0
 10 17  2  0
 10 18  1  0
  8 19  1  1
 12 20  2  0
 11 21  1  0
 21 22  1  0
 14 23  2  0
 14 24  1  0
 13 25  2  0
 13 26  1  0
 16 27  1  0
 18 28  2  0
 17 29  1  0
 19 30  2  0
 19 31  1  0
 20 32  1  0
 21 32  2  0
 22 33  1  0
 24 34  1  6
 28 35  1  0
 29 35  2  0
 30 36  1  0
 31 37  2  0
 24 38  1  0
 38 27  1  0
 36 39  2  0
 37 39  1  0
 38 40  1  0
 38 41  1  0
 39 42  1  0
 40 43  1  0
 41 44  1  0
 42 45  1  0
 42 46  1  0
 42 47  1  0
 43 48  1  0
 44 48  1  0
 48 49  1  0
 49 50  2  0
 49 51  2  0
 49 52  1  0
 52 53  2  0
 52 54  1  0
 53 55  1  0
 54 56  2  0
 53 57  1  0
 56 58  1  0
 57 58  2  0
M  END
