x3115-x1311-x0786-x2776-x0426-x0731
     RDKit          3D

 77 85  0  0  0  0  0  0  0  0999 V2000
    7.0080   -1.6440   21.7400 N   0  0  0  0  0  0  0  0  0  0  0  0
    6.1580   -2.8700   21.5570 C   0  0  0  0  0  0  0  0  0  0  0  0
    4.9110   -3.0570   21.0790 O   0  0  0  0  0  0  0  0  0  0  0  0
    6.5720   -0.2270   21.6310 C   0  0  1  0  0  0  0  0  0  0  0  0
    8.3070   -1.6810   22.3640 C   0  0  0  0  0  0  0  0  0  0  0  0
    6.7020   -4.2330   21.9680 C   0  0  1  0  0  0  0  0  0  0  0  0
    7.7850    0.7450   21.8860 C   0  0  0  0  0  0  0  0  0  0  0  0
    6.0540    0.2720   20.2990 C   0  0  0  0  0  0  0  0  0  0  0  0
    9.4190   -2.1600   21.6560 C   0  0  0  0  0  0  0  0  0  0  0  0
    8.4860   -1.2160   23.7010 C   0  0  0  0  0  0  0  0  0  0  0  0
    6.9480   -5.1690   20.7340 C   0  0  0  0  0  0  0  0  0  0  0  0
    7.6190    1.8510   22.8510 N   0  0  0  0  0  0  0  0  0  0  0  0
    8.8280    0.6020   21.2760 O   0  0  0  0  0  0  0  0  0  0  0  0
    4.8130    0.9340   20.2180 C   0  0  0  0  0  0  0  0  0  0  0  0
    6.8250    0.0900   19.1650 C   0  0  0  0  0  0  0  0  0  0  0  0
   10.6720   -2.1820   22.2560 C   0  0  0  0  0  0  0  0  0  0  0  0
    9.7140   -1.2170   24.3610 C   0  0  0  0  0  0  0  0  0  0  0  0
    7.7770   -4.4870   23.0980 C   0  0  0  0  0  0  0  0  0  0  0  0
    5.9100   -4.7310   23.0780 C   0  0  2  0  0  0  0  0  0  0  0  0
    3.9740    1.1100   21.3290 C   0  0  0  0  0  0  0  0  0  0  0  0
    6.4090    0.5770   17.9110 N   0  0  0  0  0  0  0  0  0  0  0  0
    4.3310    1.4490   19.0180 C   0  0  0  0  0  0  0  0  0  0  0  0
   10.9680   -1.7190   23.6730 C   0  0  0  0  0  0  0  0  0  0  0  0
    8.4540    3.0020   23.0560 C   0  0  0  0  0  0  0  0  0  0  0  0
    8.4320   -5.6300   23.1380 C   0  0  0  0  0  0  0  0  0  0  0  0
    8.0340   -3.5670   24.1180 C   0  0  0  0  0  0  0  0  0  0  0  0
    4.7910   -5.5630   22.8300 C   0  0  1  0  0  0  0  0  0  0  0  0
    5.3820   -3.6940   23.7400 C   0  0  0  0  0  0  0  0  0  0  0  0
   12.3410   -1.7550   24.2710 C   0  0  0  0  0  0  0  0  0  0  0  0
    4.3200    2.0720   22.2750 C   0  0  0  0  0  0  0  0  0  0  0  0
    5.1570    1.2930   17.7520 C   0  0  0  0  0  0  0  0  0  0  0  0
    9.7260    2.9680   23.6280 C   0  0  0  0  0  0  0  0  0  0  0  0
    8.0080    4.2790   22.6670 C   0  0  0  0  0  0  0  0  0  0  0  0
    9.4030   -5.8670   24.2590 C   0  0  0  0  0  0  0  0  0  0  0  0
    8.9470   -3.7860   25.1590 C   0  0  0  0  0  0  0  0  0  0  0  0
    4.7040   -6.4980   21.9700 C   0  0  0  0  0  0  0  0  0  0  0  0
    3.5920   -6.2400   23.9720 S   0  0  0  0  0  0  0  0  0  0  0  0
    5.2290   -3.9520   25.2000 C   0  0  2  0  0  0  0  0  0  0  0  0
   13.2910   -1.5800   23.0540 C   0  0  0  0  0  0  0  0  0  0  0  0
   12.7860   -3.0000   25.0560 C   0  0  0  0  0  0  0  0  0  0  0  0
   12.4780   -0.5240   25.1390 C   0  0  0  0  0  0  0  0  0  0  0  0
   10.2990    1.6790   24.0570 C   0  0  0  0  0  0  0  0  0  0  0  0
    3.0850    2.6840   22.8490 N   0  0  0  0  0  0  0  0  0  0  0  0
    3.3400   -6.1490   25.4010 O   0  0  0  0  0  0  0  0  0  0  0  0
    4.9740   -5.6550   25.7920 S   0  0  0  0  0  0  0  0  0  0  0  0
   10.5390    4.2490   23.8180 C   0  0  0  0  0  0  0  0  0  0  0  0
    8.7780    5.4310   22.8530 C   0  0  0  0  0  0  0  0  0  0  0  0
    9.6490   -4.9630   25.2330 C   0  0  0  0  0  0  0  0  0  0  0  0
    2.5450   -7.1750   22.7970 C   0  0  0  0  0  0  0  0  0  0  0  0
    3.9350   -3.1880   25.5510 C   0  0  0  0  0  0  0  0  0  0  0  0
    2.0780   -6.9150   24.3230 N   0  0  0  0  0  0  0  0  0  0  0  0
    3.6980   -6.4540   22.6770 C   0  0  0  0  0  0  0  0  0  0  0  0
    8.3340    6.7970   22.4430 C   0  0  0  0  0  0  0  0  0  0  0  0
    2.4540    2.1580   24.0890 C   0  0  0  0  0  0  0  0  0  0  0  0
    5.5840   -5.7850   27.0940 O   0  0  0  0  0  0  0  0  0  0  0  0
   10.0710    5.4780   23.4440 C   0  0  0  0  0  0  0  0  0  0  0  0
    1.1220   -6.0660   23.5030 C   0  0  0  0  0  0  0  0  0  0  0  0
    1.4460   -8.2360   24.2940 C   0  0  0  0  0  0  0  0  0  0  0  0
    2.6910   -3.5990   25.1100 C   0  0  0  0  0  0  0  0  0  0  0  0
    4.0740   -2.0720   26.3100 C   0  0  0  0  0  0  0  0  0  0  0  0
   10.8250    6.6190   23.6410 O   0  0  0  0  0  0  0  0  0  0  0  0
    2.9270    1.1640   24.6030 O   0  0  0  0  0  0  0  0  0  0  0  0
    1.3040    2.7800   24.7530 C   0  0  0  0  0  0  0  0  0  0  0  0
    0.1680   -5.4110   24.4380 C   0  0  0  0  0  0  0  0  0  0  0  0
    0.2750   -8.1690   25.2960 C   0  0  0  0  0  0  0  0  0  0  0  0
    1.6180   -2.8400   25.4580 C   0  0  0  0  0  0  0  0  0  0  0  0
    2.9920   -1.3080   26.6580 C   0  0  0  0  0  0  0  0  0  0  0  0
   11.7630    6.6330   24.6370 C   0  0  0  0  0  0  0  0  0  0  0  0
    1.4960    4.0990   25.1870 C   0  0  0  0  0  0  0  0  0  0  0  0
    0.1070    2.1730   24.9690 C   0  0  0  0  0  0  0  0  0  0  0  0
   -0.8490   -6.7850   24.9260 S   0  0  0  0  0  0  0  0  0  0  0  0
    1.7460   -1.7070   26.2130 C   0  0  0  0  0  0  0  0  0  0  0  0
    2.7170    4.6230   24.9430 F   0  0  0  0  0  0  0  0  0  0  0  0
    0.5800   -0.8900   26.5640 C   0  0  0  0  0  0  0  0  0  0  0  0
   -0.9320    2.8290   25.5990 C   0  0  0  0  0  0  0  0  0  0  0  0
    0.5550    4.8690   25.8260 C   0  0  0  0  0  0  0  0  0  0  0  0
   -0.6890    4.2650   26.0510 C   0  0  0  0  0  0  0  0  0  0  0  0
  1  2  1  0
  2  3  2  0
  1  4  1  0
  1  5  1  0
  6  2  1  0
  4  7  1  6
  4  8  1  0
  5  9  2  0
  5 10  1  0
  6 11  1  6
  7 12  1  0
  7 13  2  0
  8 14  1  0
  8 15  2  0
  9 16  1  0
 10 17  2  0
  6 18  1  0
  6 19  1  0
 14 20  1  0
 15 21  1  0
 14 22  2  0
 16 23  2  0
 17 23  1  0
 12 24  1  0
 18 25  2  0
 18 26  1  0
 19 27  1  0
 19 28  1  6
 23 29  1  0
 20 30  1  0
 21 31  2  0
 22 31  1  0
 24 32  2  0
 24 33  1  0
 25 34  1  0
 26 35  2  0
 27 36  1  1
 27 37  1  0
 28 38  1  0
 29 39  1  0
 29 40  1  0
 29 41  1  0
 32 42  1  0
 30 43  1  0
 37 44  1  0
 38 45  1  0
 45 44  1  1
 32 46  1  0
 33 47  2  0
 34 48  2  0
 35 48  1  0
 37 49  2  0
 38 50  1  6
 37 51  1  0
 36 52  2  0
 49 52  1  0
 47 53  1  0
 43 54  1  0
 45 55  2  0
 46 56  2  0
 47 56  1  0
 51 57  1  0
 51 58  1  0
 50 59  2  0
 50 60  1  0
 56 61  1  0
 54 62  2  0
 54 63  1  0
 57 64  1  0
 58 65  1  0
 59 66  1  0
 60 67  2  0
 61 68  1  0
 63 69  2  0
 63 70  1  0
 64 71  1  0
 65 71  1  0
 66 72  2  0
 67 72  1  0
 69 73  1  0
 72 74  1  0
 70 75  2  0
 69 76  1  0
 75 77  1  0
 76 77  2  0
M  END
