x3110-x0691-x2193
     RDKit          3D

 55 59  0  0  0  0  0  0  0  0999 V2000
    8.0470    1.3500   23.0040 N   0  0  0  0  0  0  0  0  0  0  0  0
    8.9040    2.5800   23.0610 C   0  0  0  0  0  0  0  0  0  0  0  0
   10.3740    2.1550   23.2070 C   0  0  0  0  0  0  0  0  0  0  0  0
    7.7360    0.7750   21.6990 C   0  0  0  0  0  0  0  0  0  0  0  0
    8.3770    1.2820   20.7750 O   0  0  0  0  0  0  0  0  0  0  0  0
    6.6450   -0.3290   21.5390 C   0  0  2  0  0  0  0  0  0  0  0  0
    6.8860   -1.6700   21.8140 N   0  0  0  0  0  0  0  0  0  0  0  0
   11.2850    3.3710   23.0730 C   0  0  0  0  0  0  0  0  0  0  0  0
    6.1300    0.1380   20.2020 C   0  0  0  0  0  0  0  0  0  0  0  0
   12.0960    3.2700   22.1850 O   0  0  0  0  0  0  0  0  0  0  0  0
   11.2040    4.5310   23.8660 O   0  0  0  0  0  0  0  0  0  0  0  0
    6.0440   -2.8280   21.3340 C   0  0  0  0  0  0  0  0  0  0  0  0
    4.9460    0.9250   20.1940 C   0  0  0  0  0  0  0  0  0  0  0  0
    6.7710   -0.1390   19.0340 C   0  0  0  0  0  0  0  0  0  0  0  0
    8.1580   -1.7120   22.5040 C   0  0  0  0  0  0  0  0  0  0  0  0
   12.5210    4.3820   21.8560 C   0  0  0  0  0  0  0  0  0  0  0  0
    4.7630   -2.9950   21.3390 O   0  0  0  0  0  0  0  0  0  0  0  0
    6.7220   -4.0440   20.7340 C   0  0  1  0  0  0  0  0  0  0  0  0
    6.3280    0.3210   17.8590 N   0  0  0  0  0  0  0  0  0  0  0  0
    4.4950    1.3940   18.9750 C   0  0  0  0  0  0  0  0  0  0  0  0
    9.3430   -1.6200   21.7850 C   0  0  0  0  0  0  0  0  0  0  0  0
    8.4560   -1.8130   23.9620 C   0  0  0  0  0  0  0  0  0  0  0  0
   13.4540    5.1580   22.7800 C   0  0  0  0  0  0  0  0  0  0  0  0
    8.0800   -3.5170   20.2890 C   0  0  0  0  0  0  0  0  0  0  0  0
    5.2110    1.0810   17.8150 C   0  0  0  0  0  0  0  0  0  0  0  0
   10.6410   -1.6320   22.3300 C   0  0  0  0  0  0  0  0  0  0  0  0
    9.8700   -1.8120   24.5130 C   0  0  0  0  0  0  0  0  0  0  0  0
    6.7790   -5.1380   21.7670 N   0  0  0  0  0  0  0  0  0  0  0  0
   10.9230   -1.7260   23.6880 C   0  0  0  0  0  0  0  0  0  0  0  0
    5.7120   -6.1920   21.8260 C   0  0  0  0  0  0  0  0  0  0  0  0
    7.1770   -4.6990   23.0930 C   0  0  0  0  0  0  0  0  0  0  0  0
   12.3530   -1.7220   24.2610 C   0  0  0  0  0  0  0  0  0  0  0  0
    4.6760   -5.9310   22.9330 C   0  0  0  0  0  0  0  0  0  0  0  0
    5.9420   -4.3510   23.8900 C   0  0  0  0  0  0  0  0  0  0  0  0
   12.5210   -0.4820   24.8380 C   0  0  0  0  0  0  0  0  0  0  0  0
   13.3260   -1.8060   23.0660 C   0  0  0  0  0  0  0  0  0  0  0  0
   12.7240   -2.8380   25.0180 C   0  0  0  0  0  0  0  0  0  0  0  0
    5.3450   -5.5160   24.1800 N   0  0  0  0  0  0  0  0  0  0  0  0
    4.4850   -5.6550   25.6390 S   0  0  1  0  0  0  0  0  0  0  0  0
    3.7420   -6.8960   25.5360 O   0  0  0  0  0  0  0  0  0  0  0  0
    5.5290   -5.8240   26.9840 N   0  0  0  0  0  0  0  0  0  0  0  0
    3.4140   -4.3380   25.7550 C   0  0  0  0  0  0  0  0  0  0  0  0
    6.4520   -4.9060   27.3420 C   0  0  0  0  0  0  0  0  0  0  0  0
    3.8120   -2.8560   25.8760 C   0  0  0  0  0  0  0  0  0  0  0  0
    2.0490   -4.6260   25.7300 C   0  0  0  0  0  0  0  0  0  0  0  0
    7.5690   -4.8780   26.2810 C   0  0  2  0  0  0  0  0  0  0  0  0
    2.8850   -1.8000   25.9620 C   0  0  0  0  0  0  0  0  0  0  0  0
    1.0940   -3.6200   25.8120 C   0  0  0  0  0  0  0  0  0  0  0  0
    3.2650   -0.5140   26.0670 F   0  0  0  0  0  0  0  0  0  0  0  0
    8.1990   -6.1630   26.1500 N   0  0  0  0  0  0  0  0  0  0  0  0
    8.4040   -3.8390   26.5040 C   0  0  0  0  0  0  0  0  0  0  0  0
    1.5260   -2.1200   25.9370 C   0  0  0  0  0  0  0  0  0  0  0  0
    9.3830   -3.9750   25.6030 N   0  0  0  0  0  0  0  0  0  0  0  0
    9.5830   -6.0370   26.5690 C   0  0  0  0  0  0  0  0  0  0  0  0
   10.2640   -4.9500   26.0250 C   0  0  0  0  0  0  0  0  0  0  0  0
  1  2  1  0
  2  3  1  0
  1  4  1  0
  4  5  2  0
  6  4  1  6
  6  7  1  0
  3  8  1  0
  6  9  1  0
  8 10  1  0
  8 11  2  0
  7 12  1  0
  9 13  2  0
  9 14  1  0
  7 15  1  0
 10 16  1  0
 12 17  2  0
 12 18  1  0
 14 19  2  0
 13 20  1  0
 15 21  2  0
 15 22  1  0
 16 23  1  0
 18 24  1  1
 19 25  1  0
 20 25  2  0
 21 26  1  0
 22 27  2  0
 18 28  1  0
 26 29  2  0
 27 29  1  0
 28 30  1  0
 28 31  1  0
 29 32  1  0
 30 33  1  0
 31 34  1  0
 32 35  1  0
 32 36  1  0
 32 37  1  0
 33 38  1  0
 34 38  1  0
 38 39  1  0
 39 40  2  0
 39 41  2  0
 39 42  1  1
 41 43  1  0
 42 44  2  0
 42 45  1  0
 46 43  1  1
 44 47  1  0
 45 48  2  0
 47 49  1  0
 46 50  1  0
 46 51  1  0
 47 52  2  0
 48 52  1  0
 51 53  1  0
 50 54  1  0
 53 55  1  0
 54 55  1  0
M  END
