x3110-x0981-x1478
     RDKit          3D

 49 51  0  0  0  0  0  0  0  0999 V2000
    7.9470    1.1230   23.2390 N   0  0  0  0  0  0  0  0  0  0  0  0
    8.7700    2.2600   23.6490 C   0  0  0  0  0  0  0  0  0  0  0  0
   10.2750    1.9970   23.5640 C   0  0  0  0  0  0  0  0  0  0  0  0
    7.8360    0.7750   21.8950 C   0  0  0  0  0  0  0  0  0  0  0  0
    8.6110    1.3290   21.0840 O   0  0  0  0  0  0  0  0  0  0  0  0
    6.6870   -0.2620   21.4790 C   0  0  2  0  0  0  0  0  0  0  0  0
    7.0070   -1.7570   21.6880 N   0  0  0  0  0  0  0  0  0  0  0  0
   11.0160    3.3040   23.4290 C   0  0  0  0  0  0  0  0  0  0  0  0
    6.1350    0.2390   20.1630 C   0  0  0  0  0  0  0  0  0  0  0  0
   11.9720    3.2320   22.4730 O   0  0  0  0  0  0  0  0  0  0  0  0
   10.7850    4.3020   24.0910 O   0  0  0  0  0  0  0  0  0  0  0  0
    6.0240   -2.9380   21.3620 C   0  0  0  0  0  0  0  0  0  0  0  0
    4.9980    1.0320   20.1200 C   0  0  0  0  0  0  0  0  0  0  0  0
    6.8330   -0.0970   19.0200 C   0  0  0  0  0  0  0  0  0  0  0  0
    8.3190   -1.7570   22.3900 C   0  0  0  0  0  0  0  0  0  0  0  0
   12.3920    4.5070   21.9590 C   0  0  0  0  0  0  0  0  0  0  0  0
    4.7590   -2.8990   21.1280 O   0  0  0  0  0  0  0  0  0  0  0  0
    6.3220   -4.4330   21.2560 C   0  0  1  0  0  0  0  0  0  0  0  0
    6.3610    0.4240   17.7170 N   0  0  0  0  0  0  0  0  0  0  0  0
    4.5000    1.5500   18.9370 C   0  0  0  0  0  0  0  0  0  0  0  0
    9.4480   -2.1590   21.7170 C   0  0  0  0  0  0  0  0  0  0  0  0
    8.5150   -1.2870   23.8360 C   0  0  0  0  0  0  0  0  0  0  0  0
   13.3910    5.1510   22.8930 C   0  0  0  0  0  0  0  0  0  0  0  0
    7.8290   -4.6520   21.0500 C   0  0  0  0  0  0  0  0  0  0  0  0
    5.5910   -5.0870   22.3380 N   0  0  0  0  0  0  0  0  0  0  0  0
    5.1670    1.2650   17.7440 C   0  0  0  0  0  0  0  0  0  0  0  0
   10.7170   -2.1620   22.2630 C   0  0  0  0  0  0  0  0  0  0  0  0
    9.9230   -1.3050   24.4120 C   0  0  0  0  0  0  0  0  0  0  0  0
   11.0240   -1.7180   23.6780 C   0  0  0  0  0  0  0  0  0  0  0  0
    5.3880   -4.3690   23.5820 N   0  0  0  0  0  0  0  0  0  0  0  0
    4.8520   -6.3650   22.3830 C   0  0  0  0  0  0  0  0  0  0  0  0
   12.4670   -1.7240   24.2110 C   0  0  0  0  0  0  0  0  0  0  0  0
    6.5220   -4.1170   24.2400 C   0  0  0  0  0  0  0  0  0  0  0  0
    4.2960   -3.5350   23.7250 C   0  0  0  0  0  0  0  0  0  0  0  0
    3.3640   -6.2930   23.0120 C   0  0  1  0  0  0  0  0  0  0  0  0
   12.5630   -0.5740   24.9720 C   0  0  0  0  0  0  0  0  0  0  0  0
   13.4220   -1.7700   23.0460 C   0  0  0  0  0  0  0  0  0  0  0  0
   12.7800   -2.9810   24.9820 C   0  0  0  0  0  0  0  0  0  0  0  0
    6.7240   -2.8180   24.6340 C   0  0  0  0  0  0  0  0  0  0  0  0
    4.5560   -2.1910   23.9060 C   0  0  0  0  0  0  0  0  0  0  0  0
    2.7410   -7.4090   22.7170 N   0  0  0  0  0  0  0  0  0  0  0  0
    3.3550   -6.2170   24.4240 C   0  0  0  0  0  0  0  0  0  0  0  0
    5.7910   -1.7960   24.3630 C   0  0  0  0  0  0  0  0  0  0  0  0
    1.3970   -7.4740   22.1420 C   0  0  0  0  0  0  0  0  0  0  0  0
    3.2410   -7.4200   25.0990 C   0  0  0  0  0  0  0  0  0  0  0  0
    1.1460   -8.6420   21.4250 C   0  0  0  0  0  0  0  0  0  0  0  0
    0.4440   -6.4940   22.2500 O   0  0  0  0  0  0  0  0  0  0  0  0
    2.2770   -7.7240   26.1720 N   0  0  0  0  0  0  0  0  0  0  0  0
    4.2350   -8.2550   24.5420 O   0  0  0  0  0  0  0  0  0  0  0  0
  1  2  1  0
  2  3  1  0
  1  4  1  0
  4  5  2  0
  6  4  1  6
  6  7  1  0
  3  8  1  0
  6  9  1  0
  8 10  1  0
  8 11  2  0
  7 12  1  0
  9 13  2  0
  9 14  1  0
  7 15  1  0
 10 16  1  0
 12 17  2  0
 12 18  1  0
 14 19  2  0
 13 20  1  0
 15 21  2  0
 15 22  1  0
 16 23  1  0
 18 24  1  1
 18 25  1  0
 19 26  1  0
 20 26  2  0
 21 27  1  0
 22 28  2  0
 27 29  2  0
 28 29  1  0
 25 30  1  0
 25 31  1  0
 29 32  1  0
 30 33  1  0
 30 34  1  0
 35 31  1  1
 32 36  1  0
 32 37  1  0
 32 38  1  0
 33 39  2  0
 34 40  1  0
 35 41  1  0
 35 42  1  0
 39 43  1  0
 40 43  2  0
 41 44  1  0
 42 45  1  0
 44 46  1  0
 44 47  2  0
 45 48  1  0
 45 49  2  0
M  END
