x3115-x1308-x0771-x1493-x2776
     RDKit          3D

 60 65  0  0  0  0  0  0  0  0999 V2000
    6.6980   -1.4560   22.0940 C   0  0  1  0  0  0  0  0  0  0  0  0
    5.7340   -2.4070   21.2550 C   0  0  0  0  0  0  0  0  0  0  0  0
    4.6310   -2.9870   21.5580 O   0  0  0  0  0  0  0  0  0  0  0  0
    6.3400    0.0400   21.8590 C   0  0  1  0  0  0  0  0  0  0  0  0
    6.1330   -2.2690   23.2060 C   0  0  0  0  0  0  0  0  0  0  0  0
    8.2480   -1.5840   22.4980 C   0  0  0  0  0  0  0  0  0  0  0  0
    6.1520   -2.8030   19.9640 C   0  0  0  0  0  0  0  0  0  0  0  0
    7.6450    0.8980   22.0370 C   0  0  0  0  0  0  0  0  0  0  0  0
    6.0020    0.4360   20.4420 C   0  0  0  0  0  0  0  0  0  0  0  0
    9.3140   -2.0110   21.7110 C   0  0  0  0  0  0  0  0  0  0  0  0
    8.5770   -1.2260   23.7960 C   0  0  0  0  0  0  0  0  0  0  0  0
    6.7980   -3.7190   23.0860 C   0  0  2  0  0  0  0  0  0  0  0  0
    6.6080   -4.1870   20.2640 C   0  0  0  0  0  0  0  0  0  0  0  0
    7.7550    1.8130   23.0990 N   0  0  0  0  0  0  0  0  0  0  0  0
    8.5380    0.7630   21.1970 O   0  0  0  0  0  0  0  0  0  0  0  0
    4.8900    1.2130   20.1450 C   0  0  0  0  0  0  0  0  0  0  0  0
    6.7340    0.1100   19.2770 C   0  0  0  0  0  0  0  0  0  0  0  0
   10.6570   -2.1000   22.1280 C   0  0  0  0  0  0  0  0  0  0  0  0
    9.8900   -1.3080   24.2100 C   0  0  0  0  0  0  0  0  0  0  0  0
    6.4330   -4.5660   21.8210 N   0  0  0  0  0  0  0  0  0  0  0  0
    6.5520   -4.4000   24.4470 C   0  0  2  0  0  0  0  0  0  0  0  0
    7.7350   -5.1690   24.9440 C   0  0  0  0  0  0  0  0  0  0  0  0
    6.4180    0.5190   17.8970 N   0  0  0  0  0  0  0  0  0  0  0  0
    4.4470    1.6820   18.9390 C   0  0  0  0  0  0  0  0  0  0  0  0
   10.8830   -1.7250   23.4160 C   0  0  0  0  0  0  0  0  0  0  0  0
    8.5310    3.0230   23.1850 C   0  0  0  0  0  0  0  0  0  0  0  0
    6.0820   -5.9890   22.0830 C   0  0  0  0  0  0  0  0  0  0  0  0
    5.4720   -5.4110   24.5000 C   0  0  2  0  0  0  0  0  0  0  0  0
   12.2930   -1.7640   23.9640 C   0  0  0  0  0  0  0  0  0  0  0  0
    4.1180   -5.3250   25.6840 S   0  0  0  0  0  0  0  0  0  0  0  0
    5.9940   -6.2470   26.0690 S   0  0  0  0  0  0  0  0  0  0  0  0
    8.3940   -5.8950   24.0300 C   0  0  0  0  0  0  0  0  0  0  0  0
    8.0950   -5.1960   26.0980 O   0  0  0  0  0  0  0  0  0  0  0  0
    5.2280    1.3450   17.7320 C   0  0  0  0  0  0  0  0  0  0  0  0
    9.8170    2.9560   23.6800 C   0  0  0  0  0  0  0  0  0  0  0  0
    8.0630    4.2860   22.8020 C   0  0  0  0  0  0  0  0  0  0  0  0
    5.2510   -6.2980   23.3880 C   0  0  0  0  0  0  0  0  0  0  0  0
   13.3330   -1.6210   22.8670 C   0  0  0  0  0  0  0  0  0  0  0  0
   12.6910   -2.9760   24.7930 C   0  0  0  0  0  0  0  0  0  0  0  0
   12.4330   -0.5700   24.8960 C   0  0  0  0  0  0  0  0  0  0  0  0
   10.3810    1.5990   24.0930 C   0  0  0  0  0  0  0  0  0  0  0  0
    3.3560   -6.5120   25.3880 O   0  0  0  0  0  0  0  0  0  0  0  0
    4.5900   -5.1100   27.0300 O   0  0  0  0  0  0  0  0  0  0  0  0
    6.4930   -5.3050   27.0650 O   0  0  0  0  0  0  0  0  0  0  0  0
    4.9970   -7.2250   26.4300 O   0  0  0  0  0  0  0  0  0  0  0  0
   10.5580    4.1580   23.7850 C   0  0  0  0  0  0  0  0  0  0  0  0
    8.7930    5.4800   22.8970 C   0  0  0  0  0  0  0  0  0  0  0  0
    3.0530   -4.0190   25.7550 C   0  0  0  0  0  0  0  0  0  0  0  0
    8.1820    6.7710   22.4430 C   0  0  0  0  0  0  0  0  0  0  0  0
   10.0850    5.4220   23.4190 C   0  0  0  0  0  0  0  0  0  0  0  0
    1.6440   -4.3690   25.3200 C   0  0  0  0  0  0  0  0  0  0  0  0
    3.4740   -2.7910   26.2040 C   0  0  0  0  0  0  0  0  0  0  0  0
   10.8050    6.5930   23.5380 O   0  0  0  0  0  0  0  0  0  0  0  0
    1.2220   -5.7280   24.8240 C   0  0  0  0  0  0  0  0  0  0  0  0
    0.6810   -3.2160   25.4440 C   0  0  0  0  0  0  0  0  0  0  0  0
    2.6030   -1.7460   26.3160 C   0  0  0  0  0  0  0  0  0  0  0  0
   11.7970    6.6460   24.5930 C   0  0  0  0  0  0  0  0  0  0  0  0
    1.2760   -1.8910   25.9810 C   0  0  0  0  0  0  0  0  0  0  0  0
    0.3820   -0.7280   26.1570 C   0  0  0  0  0  0  0  0  0  0  0  0
    0.0970   -0.5250   27.8250 Cl  0  0  0  0  0  0  0  0  0  0  0  0
  1  2  1  0
  2  3  2  0
  1  4  1  0
  1  5  1  0
  1  6  1  6
  2  7  1  0
  4  8  1  6
  4  9  1  0
  6 10  2  0
  6 11  1  0
 12  5  1  1
  7 13  1  0
  8 14  1  0
  8 15  2  0
  9 16  2  0
  9 17  1  0
 10 18  1  0
 11 19  2  0
 12 20  1  0
 13 20  1  0
 12 21  1  0
 21 22  1  6
 17 23  2  0
 16 24  1  0
 18 25  2  0
 19 25  1  0
 14 26  1  0
 20 27  1  0
 21 28  1  0
 25 29  1  0
 28 30  1  0
 28 31  1  1
 22 32  1  0
 22 33  2  0
 23 34  1  0
 24 34  2  0
 26 35  2  0
 26 36  1  0
 27 37  1  0
 28 37  1  0
 29 38  1  0
 29 39  1  0
 29 40  1  0
 35 41  1  0
 30 42  2  0
 30 43  2  0
 31 44  2  0
 31 45  2  0
 35 46  1  0
 36 47  2  0
 30 48  1  0
 47 49  1  0
 46 50  2  0
 47 50  1  0
 48 51  2  0
 48 52  1  0
 50 53  1  0
 51 54  1  0
 51 55  1  0
 52 56  2  0
 53 57  1  0
 55 58  2  0
 56 58  1  0
 58 59  1  0
 59 60  1  0
M  END
