x3110-x0981
     RDKit          3D

 44 45  0  0  0  0  0  0  0  0999 V2000
    7.8680    1.0440   23.2770 N   0  0  0  0  0  0  0  0  0  0  0  0
    8.6130    2.2240   23.7530 C   0  0  0  0  0  0  0  0  0  0  0  0
   10.1210    2.1200   23.4910 C   0  0  0  0  0  0  0  0  0  0  0  0
    7.7260    0.5320   21.9050 C   0  0  0  0  0  0  0  0  0  0  0  0
    8.5060    0.8760   21.0240 O   0  0  0  0  0  0  0  0  0  0  0  0
    6.6040   -0.3540   21.6530 C   0  0  2  0  0  0  0  0  0  0  0  0
    6.8880   -1.8300   21.7850 N   0  0  0  0  0  0  0  0  0  0  0  0
   11.0160    3.3400   23.3900 C   0  0  0  0  0  0  0  0  0  0  0  0
    6.1480    0.1720   20.3040 C   0  0  0  0  0  0  0  0  0  0  0  0
   11.8560    3.2200   22.5030 O   0  0  0  0  0  0  0  0  0  0  0  0
   10.9050    4.3240   24.1060 O   0  0  0  0  0  0  0  0  0  0  0  0
    5.9490   -2.9870   21.4850 C   0  0  0  0  0  0  0  0  0  0  0  0
    5.0060    1.0360   20.2400 C   0  0  0  0  0  0  0  0  0  0  0  0
    6.8240   -0.1370   19.1060 C   0  0  0  0  0  0  0  0  0  0  0  0
    8.1650   -1.8670   22.4040 C   0  0  0  0  0  0  0  0  0  0  0  0
   12.2240    4.4210   21.9820 C   0  0  0  0  0  0  0  0  0  0  0  0
    4.6940   -2.9610   21.4040 O   0  0  0  0  0  0  0  0  0  0  0  0
    6.3760   -4.4270   21.1650 C   0  0  1  0  0  0  0  0  0  0  0  0
    6.3700    0.4310   17.8260 N   0  0  0  0  0  0  0  0  0  0  0  0
    4.5360    1.5880   19.0870 C   0  0  0  0  0  0  0  0  0  0  0  0
    9.3660   -2.1550   21.7470 C   0  0  0  0  0  0  0  0  0  0  0  0
    8.2720   -1.5370   23.8950 C   0  0  0  0  0  0  0  0  0  0  0  0
   13.3430    5.0230   22.8140 C   0  0  0  0  0  0  0  0  0  0  0  0
    7.8880   -4.6540   20.9910 C   0  0  0  0  0  0  0  0  0  0  0  0
    5.5580   -5.4730   21.9940 N   0  0  0  0  0  0  0  0  0  0  0  0
    5.2180    1.3180   17.7430 C   0  0  0  0  0  0  0  0  0  0  0  0
   10.7360   -2.1560   22.4470 C   0  0  0  0  0  0  0  0  0  0  0  0
    9.6430   -1.5300   24.5690 C   0  0  0  0  0  0  0  0  0  0  0  0
    4.8150   -5.2170   23.1480 C   0  0  0  0  0  0  0  0  0  0  0  0
   10.8840   -1.8630   23.7740 C   0  0  0  0  0  0  0  0  0  0  0  0
   12.2780   -1.8780   24.3090 C   0  0  0  0  0  0  0  0  0  0  0  0
    3.3320   -5.8070   23.4060 C   0  0  1  0  0  0  0  0  0  0  0  0
    5.3050   -4.4980   24.0180 O   0  0  0  0  0  0  0  0  0  0  0  0
   12.7660   -0.4830   24.7130 C   0  0  0  0  0  0  0  0  0  0  0  0
   13.2500   -1.3350   23.3030 C   0  0  0  0  0  0  0  0  0  0  0  0
   12.7920   -2.9660   24.9480 C   0  0  0  0  0  0  0  0  0  0  0  0
    3.0650   -6.9010   22.6320 N   0  0  0  0  0  0  0  0  0  0  0  0
    3.2310   -6.0410   24.7830 C   0  0  0  0  0  0  0  0  0  0  0  0
    1.6700   -7.3050   22.2680 C   0  0  0  0  0  0  0  0  0  0  0  0
    3.3410   -7.3950   25.0630 C   0  0  0  0  0  0  0  0  0  0  0  0
    1.3020   -8.6190   21.5600 C   0  0  0  0  0  0  0  0  0  0  0  0
    0.7750   -6.4920   22.5220 O   0  0  0  0  0  0  0  0  0  0  0  0
    2.4330   -7.9130   26.1210 N   0  0  0  0  0  0  0  0  0  0  0  0
    4.1290   -8.1140   24.5020 O   0  0  0  0  0  0  0  0  0  0  0  0
  1  2  1  0
  2  3  1  0
  1  4  1  0
  4  5  2  0
  6  4  1  6
  6  7  1  0
  3  8  1  0
  6  9  1  0
  8 10  1  0
  8 11  2  0
  7 12  1  0
  9 13  2  0
  9 14  1  0
  7 15  1  0
 10 16  1  0
 12 17  2  0
 12 18  1  0
 14 19  2  0
 13 20  1  0
 15 21  2  0
 15 22  1  0
 16 23  1  0
 18 24  1  1
 18 25  1  0
 19 26  1  0
 20 26  2  0
 21 27  1  0
 22 28  2  0
 25 29  1  0
 27 30  2  0
 28 30  1  0
 30 31  1  0
 29 32  1  0
 29 33  2  0
 31 34  1  0
 31 35  1  0
 31 36  1  0
 32 37  1  0
 32 38  1  1
 37 39  1  0
 38 40  1  0
 39 41  1  0
 39 42  2  0
 40 43  1  0
 40 44  2  0
M  END
