x3110-x0755-x3115
     RDKit          3D

 54 58  0  0  0  0  0  0  0  0999 V2000
    7.7070    1.5790   23.2550 N   0  0  0  0  0  0  0  0  0  0  0  0
    8.7790    2.5910   23.5100 C   0  0  1  0  0  0  0  0  0  0  0  0
   10.1010    2.1160   23.4730 C   0  0  0  0  0  0  0  0  0  0  0  0
    7.5630    0.9570   21.9780 C   0  0  0  0  0  0  0  0  0  0  0  0
    8.5170    1.3590   20.9800 O   0  0  0  0  0  0  0  0  0  0  0  0
    6.5090    0.0240   21.6470 C   0  0  2  0  0  0  0  0  0  0  0  0
    8.5750    3.5640   22.5790 C   0  0  0  0  0  0  0  0  0  0  0  0
    6.7220   -1.4140   22.0580 C   0  0  2  0  0  0  0  0  0  0  0  0
   11.0560    3.3050   23.3260 C   0  0  0  0  0  0  0  0  0  0  0  0
    8.6090    4.7910   23.2090 O   0  0  0  0  0  0  0  0  0  0  0  0
    6.1040    0.3630   20.2110 C   0  0  0  0  0  0  0  0  0  0  0  0
   11.9500    3.2800   22.4810 O   0  0  0  0  0  0  0  0  0  0  0  0
   10.8930    4.2520   24.0800 O   0  0  0  0  0  0  0  0  0  0  0  0
    6.0660   -2.6590   21.3130 C   0  0  0  0  0  0  0  0  0  0  0  0
    8.2500    5.8840   22.3560 C   0  0  0  0  0  0  0  0  0  0  0  0
    5.8440   -1.7660   23.2270 C   0  0  0  0  0  0  0  0  0  0  0  0
    5.0260    1.2280   20.0930 C   0  0  0  0  0  0  0  0  0  0  0  0
    6.7100   -0.0780   19.0470 C   0  0  0  0  0  0  0  0  0  0  0  0
    8.2270   -1.5360   22.5310 C   0  0  0  0  0  0  0  0  0  0  0  0
   12.2980    4.3830   22.0560 C   0  0  0  0  0  0  0  0  0  0  0  0
    4.8420   -2.9280   20.8380 O   0  0  0  0  0  0  0  0  0  0  0  0
    6.9610   -3.7660   21.3980 C   0  0  2  0  0  0  0  0  0  0  0  0
    5.9720   -3.1430   23.6800 C   0  0  0  0  0  0  0  0  0  0  0  0
    6.3330    0.2810   17.8040 N   0  0  0  0  0  0  0  0  0  0  0  0
    4.5440    1.6690   18.8730 C   0  0  0  0  0  0  0  0  0  0  0  0
    9.2840   -1.9440   21.7300 C   0  0  0  0  0  0  0  0  0  0  0  0
    8.5390   -1.2020   23.8500 C   0  0  0  0  0  0  0  0  0  0  0  0
   13.3810    5.1870   22.7740 C   0  0  0  0  0  0  0  0  0  0  0  0
    6.9330   -4.5290   20.1120 C   0  0  0  0  0  0  0  0  0  0  0  0
    5.2390    1.1650   17.7910 C   0  0  0  0  0  0  0  0  0  0  0  0
   10.6150   -2.0500   22.1140 C   0  0  0  0  0  0  0  0  0  0  0  0
    9.8520   -1.2800   24.2960 C   0  0  0  0  0  0  0  0  0  0  0  0
    6.5480   -4.3520   22.7160 C   0  0  0  0  0  0  0  0  0  0  0  0
   10.9440   -1.6790   23.5480 C   0  0  0  0  0  0  0  0  0  0  0  0
    7.6510   -5.0660   23.4540 C   0  0  0  0  0  0  0  0  0  0  0  0
    5.4670   -5.4200   22.4250 C   0  0  0  0  0  0  0  0  0  0  0  0
   12.3320   -1.7180   24.1330 C   0  0  0  0  0  0  0  0  0  0  0  0
    7.2000   -5.1850   24.7690 C   0  0  0  0  0  0  0  0  0  0  0  0
    4.9500   -6.0030   23.7390 C   0  0  0  0  0  0  0  0  0  0  0  0
   12.5430   -0.6590   24.9940 C   0  0  0  0  0  0  0  0  0  0  0  0
   13.3430   -1.5640   22.9840 C   0  0  0  0  0  0  0  0  0  0  0  0
   12.6360   -2.8610   24.7360 C   0  0  0  0  0  0  0  0  0  0  0  0
    5.7030   -5.3470   24.8320 N   0  0  0  0  0  0  0  0  0  0  0  0
    5.0390   -5.1600   26.1970 S   0  0  0  0  0  0  0  0  0  0  0  0
    4.3410   -6.3990   26.4480 O   0  0  0  0  0  0  0  0  0  0  0  0
    6.0530   -4.6980   27.1080 O   0  0  0  0  0  0  0  0  0  0  0  0
    3.8630   -3.9140   26.0280 C   0  0  0  0  0  0  0  0  0  0  0  0
    2.5120   -4.2570   25.8080 C   0  0  0  0  0  0  0  0  0  0  0  0
    4.2830   -2.5790   26.1230 C   0  0  0  0  0  0  0  0  0  0  0  0
    2.1060   -5.5340   25.7140 F   0  0  0  0  0  0  0  0  0  0  0  0
    5.5490   -2.2080   26.3300 F   0  0  0  0  0  0  0  0  0  0  0  0
    3.3200   -1.5640   25.9990 C   0  0  0  0  0  0  0  0  0  0  0  0
    1.5690   -3.2400   25.6880 C   0  0  0  0  0  0  0  0  0  0  0  0
    1.9850   -1.9100   25.7880 C   0  0  0  0  0  0  0  0  0  0  0  0
  1  2  1  0
  2  3  1  6
  1  4  1  0
  4  5  2  0
  6  4  1  6
  2  7  1  0
  6  8  1  0
  3  9  1  0
  7 10  1  0
  6 11  1  0
  9 12  1  0
  9 13  2  0
  8 14  1  0
 10 15  1  0
  8 16  1  0
 11 17  2  0
 11 18  1  0
  8 19  1  1
 12 20  1  0
 14 21  2  0
 14 22  1  0
 16 23  1  0
 18 24  2  0
 17 25  1  0
 19 26  2  0
 19 27  1  0
 20 28  1  0
 22 29  1  6
 24 30  1  0
 25 30  2  0
 26 31  1  0
 27 32  2  0
 22 33  1  0
 33 23  1  0
 31 34  2  0
 32 34  1  0
 33 35  1  0
 33 36  1  0
 34 37  1  0
 35 38  1  0
 36 39  1  0
 37 40  1  0
 37 41  1  0
 37 42  1  0
 38 43  1  0
 39 43  1  0
 43 44  1  0
 44 45  2  0
 44 46  2  0
 44 47  1  0
 47 48  2  0
 47 49  1  0
 48 50  1  0
 49 51  1  0
 49 52  2  0
 48 53  1  0
 52 54  1  0
 53 54  2  0
M  END
