x3115-x0731-x0107-x1493-x3110
     RDKit          3D

 56 61  0  0  0  0  0  0  0  0999 V2000
    8.1690    1.3720   23.0780 N   0  0  0  0  0  0  0  0  0  0  0  0
    8.9850    2.5790   22.8370 C   0  0  2  0  0  0  0  0  0  0  0  0
   10.1810    2.5290   23.8100 C   0  0  0  0  0  0  0  0  0  0  0  0
    8.3520    0.1600   22.2240 C   0  0  2  0  0  0  0  0  0  0  0  0
    9.2830    0.4510   21.2000 O   0  0  0  0  0  0  0  0  0  0  0  0
    6.8780   -0.2660   21.7290 C   0  0  2  0  0  0  0  0  0  0  0  0
    8.1080    3.8240   22.9020 C   0  0  0  0  0  0  0  0  0  0  0  0
    9.1270   -1.1180   22.9870 C   0  0  0  0  0  0  0  0  0  0  0  0
    6.7590   -1.6610   22.0460 C   0  0  2  0  0  0  0  0  0  0  0  0
   11.1140    3.5620   23.5100 C   0  0  0  0  0  0  0  0  0  0  0  0
    8.8320    4.9800   23.0660 O   0  0  0  0  0  0  0  0  0  0  0  0
    6.4070    0.2540   20.3480 C   0  0  0  0  0  0  0  0  0  0  0  0
    9.3050   -2.1810   21.9690 C   0  0  0  0  0  0  0  0  0  0  0  0
   11.9360    3.3770   22.4320 O   0  0  0  0  0  0  0  0  0  0  0  0
   11.1580    4.5730   24.2120 O   0  0  0  0  0  0  0  0  0  0  0  0
    6.1040   -2.8540   21.2660 C   0  0  0  0  0  0  0  0  0  0  0  0
    8.2960    6.0850   22.3250 C   0  0  0  0  0  0  0  0  0  0  0  0
    6.2900   -2.1520   23.3670 C   0  0  0  0  0  0  0  0  0  0  0  0
    5.3320    1.1490   20.3860 C   0  0  0  0  0  0  0  0  0  0  0  0
    6.9730   -0.1230   19.1400 C   0  0  0  0  0  0  0  0  0  0  0  0
   10.5910   -2.1860   22.3300 C   0  0  0  0  0  0  0  0  0  0  0  0
    8.2200   -1.6360   22.4150 C   0  0  0  0  0  0  0  0  0  0  0  0
   12.3930    4.5210   21.8830 C   0  0  0  0  0  0  0  0  0  0  0  0
    4.9220   -3.0470   20.7690 O   0  0  0  0  0  0  0  0  0  0  0  0
    7.0950   -3.9380   21.3350 C   0  0  2  0  0  0  0  0  0  0  0  0
    6.5540    0.3300   17.9340 N   0  0  0  0  0  0  0  0  0  0  0  0
    4.8360    1.6620   19.1980 C   0  0  0  0  0  0  0  0  0  0  0  0
   10.8930   -1.4560   23.4850 C   0  0  0  0  0  0  0  0  0  0  0  0
    8.6300   -0.8850   23.6110 C   0  0  0  0  0  0  0  0  0  0  0  0
    6.7470   -3.5840   23.6970 C   0  0  2  0  0  0  0  0  0  0  0  0
   13.4330    5.1630   22.7960 C   0  0  0  0  0  0  0  0  0  0  0  0
    7.0090   -4.6920   20.0720 C   0  0  0  0  0  0  0  0  0  0  0  0
   12.3620   -1.4780   23.9790 C   0  0  0  0  0  0  0  0  0  0  0  0
    5.4400    1.2670   17.8860 C   0  0  0  0  0  0  0  0  0  0  0  0
    9.9490   -0.6750   24.3130 C   0  0  0  0  0  0  0  0  0  0  0  0
    6.8970   -4.5710   22.5480 N   0  0  0  0  0  0  0  0  0  0  0  0
    5.8990   -4.0300   24.6180 C   0  0  0  0  0  0  0  0  0  0  0  0
   12.4880   -0.5060   24.9560 C   0  0  0  0  0  0  0  0  0  0  0  0
   13.2140   -1.3130   22.7760 C   0  0  0  0  0  0  0  0  0  0  0  0
   12.6420   -2.7730   24.4970 C   0  0  0  0  0  0  0  0  0  0  0  0
    5.8310   -5.3380   24.8180 C   0  0  2  0  0  0  0  0  0  0  0  0
    6.1530   -5.7850   22.5010 C   0  0  0  0  0  0  0  0  0  0  0  0
    4.6550   -5.4960   26.2360 S   0  0  0  0  0  0  0  0  0  0  0  0
    7.1400   -5.7240   25.4850 C   0  0  0  0  0  0  0  0  0  0  0  0
    5.3840   -6.1730   23.6160 C   0  0  0  0  0  0  0  0  0  0  0  0
    5.3050   -5.1440   27.4690 O   0  0  0  0  0  0  0  0  0  0  0  0
    3.8990   -6.7010   26.0510 O   0  0  0  0  0  0  0  0  0  0  0  0
    7.1550   -6.0810   26.8090 C   0  0  0  0  0  0  0  0  0  0  0  0
    8.1960   -5.7190   24.8910 O   0  0  0  0  0  0  0  0  0  0  0  0
    3.5720   -4.1350   26.1150 C   0  0  0  0  0  0  0  0  0  0  0  0
    2.2020   -4.2710   25.4080 C   0  0  0  0  0  0  0  0  0  0  0  0
    3.9880   -2.9320   26.6910 C   0  0  0  0  0  0  0  0  0  0  0  0
    1.4810   -3.0860   25.4520 C   0  0  0  0  0  0  0  0  0  0  0  0
    3.1670   -1.8230   26.6580 C   0  0  0  0  0  0  0  0  0  0  0  0
    1.9150   -1.8970   26.0500 C   0  0  0  0  0  0  0  0  0  0  0  0
    1.0590   -0.6740   26.0690 C   0  0  0  0  0  0  0  0  0  0  0  0
  1  2  1  0
  2  3  1  1
  1  4  1  0
  4  5  1  6
  4  6  1  0
  2  7  1  0
  4  8  1  0
  6  9  1  0
  3 10  1  0
  7 11  1  0
  6 12  1  6
  8 13  1  0
 10 14  1  0
 10 15  2  0
  9 16  1  0
 11 17  1  0
  9 18  1  1
 12 19  2  0
 12 20  1  0
 13 21  2  0
  9 22  1  0
 13 22  1  0
 14 23  1  0
 16 24  2  0
 16 25  1  0
 20 26  2  0
 19 27  1  0
 21 28  1  0
 22 29  2  0
 30 18  1  6
 23 31  1  0
 25 32  1  6
 28 33  1  0
 26 34  1  0
 27 34  2  0
 28 35  2  0
 29 35  1  0
 25 36  1  0
 30 36  1  0
 30 37  1  0
 33 38  1  0
 33 39  1  0
 33 40  1  0
 37 41  1  0
 36 42  1  0
 41 43  1  0
 41 44  1  1
 41 45  1  0
 42 45  1  0
 43 46  2  0
 43 47  2  0
 44 48  1  0
 44 49  2  0
 43 50  1  0
 50 51  2  0
 50 52  1  0
 51 53  1  0
 52 54  2  0
 53 55  2  0
 54 55  1  0
 55 56  1  0
M  END
