x3117-x0072
     RDKit          3D

 42 46  0  0  0  0  0  0  0  0999 V2000
    6.9140   -1.5610   21.6720 N   0  0  0  0  0  0  0  0  0  0  0  0
    6.0370   -2.7650   21.4800 C   0  0  0  0  0  0  0  0  0  0  0  0
    4.7730   -2.9410   21.1870 O   0  0  0  0  0  0  0  0  0  0  0  0
    6.5550   -0.1660   21.6510 C   0  0  1  0  0  0  0  0  0  0  0  0
    8.1070   -1.8800   22.5410 C   0  0  1  0  0  0  0  0  0  0  0  0
    6.6610   -4.1570   21.6320 C   0  0  0  0  0  0  0  0  0  0  0  0
    7.7070    0.8780   21.9370 C   0  0  0  0  0  0  0  0  0  0  0  0
    6.0350    0.2840   20.3480 C   0  0  0  0  0  0  0  0  0  0  0  0
    9.5500   -1.7530   22.0890 C   0  0  0  0  0  0  0  0  0  0  0  0
    8.0330   -1.4250   23.8300 C   0  0  0  0  0  0  0  0  0  0  0  0
    6.6190   -4.8490   20.2790 C   0  0  0  0  0  0  0  0  0  0  0  0
    7.2210    1.9430   22.8970 N   0  0  0  0  0  0  0  0  0  0  0  0
    8.8300    0.8950   21.4230 O   0  0  0  0  0  0  0  0  0  0  0  0
    4.9070    1.0720   20.2100 C   0  0  0  0  0  0  0  0  0  0  0  0
    6.8070   -0.1220   19.1080 C   0  0  0  0  0  0  0  0  0  0  0  0
   10.5420   -1.8020   23.2520 C   0  0  2  0  0  0  0  0  0  0  0  0
    8.9960   -1.9890   24.6570 C   0  0  1  0  0  0  0  0  0  0  0  0
    9.1620   -3.4930   24.3530 C   0  0  0  0  0  0  0  0  0  0  0  0
    6.3300    0.3560   17.8150 N   0  0  0  0  0  0  0  0  0  0  0  0
    4.5130    1.4890   18.9410 C   0  0  0  0  0  0  0  0  0  0  0  0
    7.9690    3.1440   23.3730 C   0  0  0  0  0  0  0  0  0  0  0  0
   10.3510   -1.3690   24.7150 C   0  0  2  0  0  0  0  0  0  0  0  0
   11.6450   -1.1350   22.8060 C   0  0  2  0  0  0  0  0  0  0  0  0
   13.0030   -1.6350   23.4400 C   0  0  0  0  0  0  0  0  0  0  0  0
    8.0540   -4.1340   24.8420 N   0  0  0  0  0  0  0  0  0  0  0  0
    5.1370    1.1920   17.8000 C   0  0  0  0  0  0  0  0  0  0  0  0
    9.4540    2.9010   23.4810 C   0  0  0  0  0  0  0  0  0  0  0  0
    7.7540    4.3960   22.4730 C   0  0  0  0  0  0  0  0  0  0  0  0
   11.6320    0.4150   22.9330 C   0  0  2  0  0  0  0  0  0  0  0  0
   10.4180    0.0890   24.9620 C   0  0  0  0  0  0  0  0  0  0  0  0
   13.0600    0.8170   22.9080 C   0  0  0  0  0  0  0  0  0  0  0  0
   13.3800   -2.6360   22.5080 C   0  0  0  0  0  0  0  0  0  0  0  0
   13.1820   -2.1300   24.9330 C   0  0  0  0  0  0  0  0  0  0  0  0
    8.1550   -4.8580   26.3350 S   0  0  0  0  0  0  0  0  0  0  0  0
   10.3480    4.1340   23.4220 C   0  0  0  0  0  0  0  0  0  0  0  0
    8.1470    4.9490   23.8450 C   0  0  0  0  0  0  0  0  0  0  0  0
   11.0210    0.9190   24.1580 C   0  0  0  0  0  0  0  0  0  0  0  0
   13.4990   -0.3210   23.1790 C   0  0  0  0  0  0  0  0  0  0  0  0
    6.6360   -5.4950   26.7300 C   0  0  0  0  0  0  0  0  0  0  0  0
    9.0290   -5.9930   26.1370 O   0  0  0  0  0  0  0  0  0  0  0  0
    8.5240   -3.8270   27.2660 O   0  0  0  0  0  0  0  0  0  0  0  0
    9.5530    5.2180   23.8840 O   0  0  0  0  0  0  0  0  0  0  0  0
  1  2  1  0
  2  3  2  0
  1  4  1  0
  5  1  1  6
  2  6  1  0
  4  7  1  6
  4  8  1  0
  5  9  1  0
  5 10  1  0
  6 11  1  0
  7 12  1  0
  7 13  2  0
  8 14  2  0
  8 15  1  0
 16  9  1  6
 10 17  1  0
 17 18  1  6
 15 19  2  0
 14 20  1  0
 12 21  1  0
 16 22  1  0
 17 22  1  0
 16 23  1  0
 23 24  1  1
 18 25  1  0
 19 26  1  0
 20 26  2  0
 21 27  1  0
 21 28  1  0
 23 29  1  0
 22 30  1  6
 29 31  1  1
 24 32  1  0
 24 33  1  0
 34 25  1  0
 27 35  1  0
 28 36  1  0
 29 37  1  0
 30 37  2  0
 24 38  1  0
 31 38  2  0
 34 39  1  0
 34 40  2  0
 34 41  2  0
 35 42  1  0
 36 42  1  0
M  END
