x3113-x0981
     RDKit          3D

 42 43  0  0  0  0  0  0  0  0999 V2000
    6.9770   -1.8410   22.0460 N   0  0  0  0  0  0  0  0  0  0  0  0
    6.0960   -3.0280   21.6800 C   0  0  0  0  0  0  0  0  0  0  0  0
    4.8970   -3.0720   21.1390 O   0  0  0  0  0  0  0  0  0  0  0  0
    6.7360   -0.3540   21.7860 C   0  0  1  0  0  0  0  0  0  0  0  0
    8.3560   -1.9200   22.5870 C   0  0  0  0  0  0  0  0  0  0  0  0
    6.6210   -4.4330   22.0110 C   0  0  2  0  0  0  0  0  0  0  0  0
    7.8930    0.4960   22.0720 C   0  0  0  0  0  0  0  0  0  0  0  0
    6.2660    0.0830   20.4160 C   0  0  0  0  0  0  0  0  0  0  0  0
    9.4720   -2.1890   21.6770 C   0  0  0  0  0  0  0  0  0  0  0  0
    8.7060   -1.7170   23.9230 C   0  0  0  0  0  0  0  0  0  0  0  0
    7.8800   -4.9470   21.2000 C   0  0  0  0  0  0  0  0  0  0  0  0
    8.0100    1.1520   23.2860 N   0  0  0  0  0  0  0  0  0  0  0  0
    8.7630    0.6720   21.2290 O   0  0  0  0  0  0  0  0  0  0  0  0
    5.4110   -5.3610   22.1860 N   0  0  0  0  0  0  0  0  0  0  0  0
    5.1370    0.9170   20.3170 C   0  0  0  0  0  0  0  0  0  0  0  0
    6.9270   -0.2910   19.1850 C   0  0  0  0  0  0  0  0  0  0  0  0
   10.7700   -2.2260   22.0820 C   0  0  0  0  0  0  0  0  0  0  0  0
   10.0660   -1.7580   24.3240 C   0  0  0  0  0  0  0  0  0  0  0  0
    8.7100    2.3260   23.2480 C   0  0  0  0  0  0  0  0  0  0  0  0
    4.7090   -5.3940   23.3680 C   0  0  0  0  0  0  0  0  0  0  0  0
    6.4150    0.2040   17.9560 N   0  0  0  0  0  0  0  0  0  0  0  0
    4.6420    1.3930   19.1090 C   0  0  0  0  0  0  0  0  0  0  0  0
   11.1080   -2.0070   23.4070 C   0  0  0  0  0  0  0  0  0  0  0  0
   10.0540    2.2940   22.9140 C   0  0  0  0  0  0  0  0  0  0  0  0
   12.5780   -2.0170   23.8580 C   0  0  0  0  0  0  0  0  0  0  0  0
    3.2450   -5.9210   23.4840 C   0  0  1  0  0  0  0  0  0  0  0  0
    5.2620   -4.9450   24.3680 O   0  0  0  0  0  0  0  0  0  0  0  0
    5.2560    1.0610   17.9270 C   0  0  0  0  0  0  0  0  0  0  0  0
   10.7630    3.4510   23.3050 C   0  0  0  0  0  0  0  0  0  0  0  0
   13.4260   -2.3760   22.8710 C   0  0  0  0  0  0  0  0  0  0  0  0
   12.8350   -2.9640   25.0350 C   0  0  0  0  0  0  0  0  0  0  0  0
   12.9160   -0.7130   24.2130 C   0  0  0  0  0  0  0  0  0  0  0  0
    2.9310   -7.1350   22.7010 N   0  0  0  0  0  0  0  0  0  0  0  0
    2.9290   -6.1840   24.9220 C   0  0  0  0  0  0  0  0  0  0  0  0
   12.0510    3.4280   22.8180 O   0  0  0  0  0  0  0  0  0  0  0  0
    1.5560   -7.4150   22.1970 C   0  0  0  0  0  0  0  0  0  0  0  0
    3.1650   -7.5340   25.2040 C   0  0  0  0  0  0  0  0  0  0  0  0
   12.7800    4.6500   22.9240 C   0  0  0  0  0  0  0  0  0  0  0  0
    1.2850   -8.6160   21.5300 C   0  0  0  0  0  0  0  0  0  0  0  0
    0.5520   -6.5020   22.3430 O   0  0  0  0  0  0  0  0  0  0  0  0
    2.4950   -8.2300   26.1650 N   0  0  0  0  0  0  0  0  0  0  0  0
    4.0200   -8.1190   24.5650 O   0  0  0  0  0  0  0  0  0  0  0  0
  1  2  1  0
  2  3  2  0
  1  4  1  0
  1  5  1  0
  2  6  1  0
  4  7  1  6
  4  8  1  0
  5  9  2  0
  5 10  1  0
  6 11  1  6
  7 12  1  0
  7 13  2  0
  6 14  1  0
  8 15  2  0
  8 16  1  0
  9 17  1  0
 10 18  2  0
 12 19  1  0
 14 20  1  0
 16 21  2  0
 15 22  1  0
 17 23  2  0
 18 23  1  0
 19 24  1  0
 23 25  1  0
 20 26  1  0
 20 27  2  0
 21 28  1  0
 22 28  2  0
 24 29  1  0
 25 30  1  0
 25 31  1  0
 25 32  1  0
 26 33  1  0
 26 34  1  1
 29 35  1  0
 33 36  1  0
 34 37  1  0
 35 38  1  0
 36 39  1  0
 36 40  2  0
 37 41  1  0
 37 42  2  0
M  END
