x3113-x3110-x0946-x2754
     RDKit          3D

 53 57  0  0  0  0  0  0  0  0999 V2000
    8.0550    1.2040   23.2950 N   0  0  0  0  0  0  0  0  0  0  0  0
    8.7270    2.4240   23.6080 C   0  0  0  0  0  0  0  0  0  0  0  0
   10.0740    2.4200   23.3690 C   0  0  0  0  0  0  0  0  0  0  0  0
    7.8860    0.8960   21.8350 C   0  0  0  0  0  0  0  0  0  0  0  0
    8.6040    1.4300   20.9710 O   0  0  0  0  0  0  0  0  0  0  0  0
    6.7520   -0.0580   21.6430 C   0  0  2  0  0  0  0  0  0  0  0  0
    7.1430   -1.5180   21.5970 N   0  0  0  0  0  0  0  0  0  0  0  0
    6.0510    0.4470   20.4320 C   0  0  0  0  0  0  0  0  0  0  0  0
   10.9210    3.5830   23.3920 C   0  0  0  0  0  0  0  0  0  0  0  0
   10.6970    1.0760   23.0520 C   0  0  0  0  0  0  0  0  0  0  0  0
   10.3870    4.9610   23.7190 C   0  0  0  0  0  0  0  0  0  0  0  0
    6.2630   -2.7880   21.3550 C   0  0  0  0  0  0  0  0  0  0  0  0
    4.7900    1.2670   20.3140 C   0  0  0  0  0  0  0  0  0  0  0  0
    6.8400    0.0220   19.2070 C   0  0  0  0  0  0  0  0  0  0  0  0
    8.3630   -1.5980   22.4430 C   0  0  0  0  0  0  0  0  0  0  0  0
   12.0430    0.9450   22.7840 C   0  0  0  0  0  0  0  0  0  0  0  0
   12.2860    3.4970   23.1140 C   0  0  0  0  0  0  0  0  0  0  0  0
   13.1610    4.7350   23.1210 C   0  0  0  0  0  0  0  0  0  0  0  0
    4.9700   -3.0720   20.9050 O   0  0  0  0  0  0  0  0  0  0  0  0
   10.5420    5.8890   22.6950 N   0  0  0  0  0  0  0  0  0  0  0  0
   10.9110    5.5470   24.8960 O   0  0  0  0  0  0  0  0  0  0  0  0
    9.2200    4.9660   23.9650 O   0  0  0  0  0  0  0  0  0  0  0  0
    6.3690    0.4350   17.8820 N   0  0  0  0  0  0  0  0  0  0  0  0
    4.4390    1.6010   19.0280 C   0  0  0  0  0  0  0  0  0  0  0  0
    9.6200   -1.9890   21.7280 C   0  0  0  0  0  0  0  0  0  0  0  0
    8.1650   -1.2630   23.9170 C   0  0  0  0  0  0  0  0  0  0  0  0
   12.8800    2.1420   22.8070 C   0  0  0  0  0  0  0  0  0  0  0  0
    6.9140   -4.1220   21.7990 C   0  0  1  0  0  0  0  0  0  0  0  0
   13.1550    5.3610   21.7350 C   0  0  0  0  0  0  0  0  0  0  0  0
    8.2100   -4.7110   21.1270 C   0  0  0  0  0  0  0  0  0  0  0  0
    5.2080    1.2060   17.8060 C   0  0  0  0  0  0  0  0  0  0  0  0
   11.0300   -2.1910   22.1750 C   0  0  0  0  0  0  0  0  0  0  0  0
    9.4800   -1.4980   24.2270 C   0  0  0  0  0  0  0  0  0  0  0  0
    7.3750   -3.8540   23.1660 C   0  0  0  0  0  0  0  0  0  0  0  0
    5.8080   -5.2180   22.0610 C   0  0  0  0  0  0  0  0  0  0  0  0
   10.7330   -1.9060   23.4920 C   0  0  0  0  0  0  0  0  0  0  0  0
    6.3350   -3.2400   23.7800 C   0  0  0  0  0  0  0  0  0  0  0  0
    4.8790   -4.8150   23.0920 C   0  0  0  0  0  0  0  0  0  0  0  0
   11.9740   -2.0660   24.3680 C   0  0  0  0  0  0  0  0  0  0  0  0
    5.5320   -4.2310   24.1760 C   0  0  2  0  0  0  0  0  0  0  0  0
   13.3400   -1.5760   23.9310 C   0  0  0  0  0  0  0  0  0  0  0  0
   12.4950   -0.7610   24.8620 C   0  0  0  0  0  0  0  0  0  0  0  0
   11.8730   -3.3250   25.1120 C   0  0  0  0  0  0  0  0  0  0  0  0
    4.6770   -3.6570   25.3200 C   0  0  0  0  0  0  0  0  0  0  0  0
    3.3440   -3.2280   25.0870 O   0  0  0  0  0  0  0  0  0  0  0  0
    5.3310   -3.5990   26.5010 N   0  0  0  0  0  0  0  0  0  0  0  0
    4.8740   -2.4860   27.4200 C   0  0  0  0  0  0  0  0  0  0  0  0
    6.6660   -4.0520   26.6380 C   0  0  0  0  0  0  0  0  0  0  0  0
    6.9730   -5.1540   27.4140 C   0  0  0  0  0  0  0  0  0  0  0  0
    7.7340   -3.4220   25.9960 C   0  0  0  0  0  0  0  0  0  0  0  0
    8.2820   -5.5900   27.5260 C   0  0  0  0  0  0  0  0  0  0  0  0
    9.0530   -3.8720   26.1100 C   0  0  0  0  0  0  0  0  0  0  0  0
    9.3430   -4.9800   26.8910 C   0  0  0  0  0  0  0  0  0  0  0  0
  1  2  1  0
  2  3  1  0
  1  4  1  0
  4  5  2  0
  6  4  1  6
  6  7  1  0
  6  8  1  0
  3  9  2  0
  3 10  1  0
  9 11  1  0
  7 12  1  0
  8 13  2  0
  8 14  1  0
  7 15  1  0
 10 16  2  0
  9 17  1  0
 17 18  1  0
 12 19  2  0
 11 20  1  0
 11 21  1  0
 11 22  1  0
 14 23  2  0
 13 24  1  0
 15 25  2  0
 15 26  1  0
 16 27  1  0
 17 27  2  0
 28 12  1  0
 18 29  1  0
 28 30  1  6
 23 31  1  0
 24 31  2  0
 25 32  1  0
 26 33  2  0
 28 34  1  0
 28 35  1  0
 32 36  2  0
 33 36  1  0
 34 37  1  0
 35 38  1  0
 36 39  1  0
 37 40  1  0
 38 40  1  0
 39 41  1  0
 39 42  1  0
 39 43  1  0
 40 44  1  1
 44 45  2  0
 44 46  1  0
 46 47  1  0
 46 48  1  0
 48 49  2  0
 48 50  1  0
 49 51  1  0
 50 52  2  0
 51 53  2  0
 52 53  1  0
M  END
