x3113-x3115-x0769-x1311-x0540-x3110-x0731-x0978-x0946
     RDKit          3D

 82 89  0  0  0  0  0  0  0  0999 V2000
    7.8730    1.2900   23.2380 N   0  0  0  0  0  0  0  0  0  0  0  0
    8.6630    2.5680   23.2490 C   0  0  1  0  0  0  0  0  0  0  0  0
    7.8450    3.8640   23.6510 C   0  0  0  0  0  0  0  0  0  0  0  0
    7.7580    0.6070   21.9930 C   0  0  0  0  0  0  0  0  0  0  0  0
    8.5870    0.7640   21.0980 O   0  0  0  0  0  0  0  0  0  0  0  0
    6.6510   -0.2440   21.7070 C   0  0  2  0  0  0  0  0  0  0  0  0
   10.1150    2.5430   23.1660 C   0  0  0  0  0  0  0  0  0  0  0  0
    7.0140   -1.7080   21.8300 N   0  0  0  0  0  0  0  0  0  0  0  0
    8.3560    4.9620   23.3910 O   0  0  0  0  0  0  0  0  0  0  0  0
    6.2460    0.1940   20.3030 C   0  0  0  0  0  0  0  0  0  0  0  0
   11.0710    3.7040   23.3110 C   0  0  0  0  0  0  0  0  0  0  0  0
   10.7450    1.2600   22.8830 C   0  0  0  0  0  0  0  0  0  0  0  0
   10.6520    5.0390   23.6530 C   0  0  0  0  0  0  0  0  0  0  0  0
    6.1460   -2.8540   21.3470 C   0  0  0  0  0  0  0  0  0  0  0  0
    7.8770    5.6480   22.2730 C   0  0  0  0  0  0  0  0  0  0  0  0
    5.0590    1.0930   20.1790 C   0  0  0  0  0  0  0  0  0  0  0  0
    7.0060   -0.2270   19.0060 C   0  0  0  0  0  0  0  0  0  0  0  0
    8.3100   -1.7250   22.4690 C   0  0  0  0  0  0  0  0  0  0  0  0
   12.0990    1.1850   22.7370 C   0  0  0  0  0  0  0  0  0  0  0  0
   12.4000    3.5310   23.1160 C   0  0  0  0  0  0  0  0  0  0  0  0
   13.2770    4.6980   23.2050 C   0  0  0  0  0  0  0  0  0  0  0  0
    4.8380   -2.9870   21.1470 O   0  0  0  0  0  0  0  0  0  0  0  0
    6.7870   -4.1830   21.0530 C   0  0  1  0  0  0  0  0  0  0  0  0
    4.2870    1.5090   21.4200 C   0  0  0  0  0  0  0  0  0  0  0  0
    9.9520    5.3320   24.6410 O   0  0  0  0  0  0  0  0  0  0  0  0
   11.0660    6.0770   22.8410 O   0  0  0  0  0  0  0  0  0  0  0  0
    6.4330    0.3600   17.7940 N   0  0  0  0  0  0  0  0  0  0  0  0
    4.6470    1.5550   18.9440 C   0  0  0  0  0  0  0  0  0  0  0  0
    9.5550   -2.0930   21.7060 C   0  0  0  0  0  0  0  0  0  0  0  0
    8.5290   -1.3990   23.8050 C   0  0  0  0  0  0  0  0  0  0  0  0
   12.9010    2.2990   22.8380 C   0  0  0  0  0  0  0  0  0  0  0  0
   13.2100    5.3960   21.8850 C   0  0  0  0  0  0  0  0  0  0  0  0
    8.2910   -4.2910   20.7810 C   0  0  0  0  0  0  0  0  0  0  0  0
    5.0660    2.4820   22.2500 C   0  0  0  0  0  0  0  0  0  0  0  0
    5.3470    1.1770   17.8030 C   0  0  0  0  0  0  0  0  0  0  0  0
   10.8500   -2.1060   22.3250 C   0  0  0  0  0  0  0  0  0  0  0  0
    9.7690   -1.3940   24.4620 C   0  0  0  0  0  0  0  0  0  0  0  0
    6.6290   -5.1740   21.9980 N   0  0  0  0  0  0  0  0  0  0  0  0
    4.1840    3.2420   22.9210 N   0  0  0  0  0  0  0  0  0  0  0  0
   10.9920   -1.7720   23.6670 C   0  0  0  0  0  0  0  0  0  0  0  0
    5.4000   -5.9430   21.9100 C   0  0  0  0  0  0  0  0  0  0  0  0
    7.2390   -5.2950   23.2110 C   0  0  0  0  0  0  0  0  0  0  0  0
   12.3880   -1.7830   24.2990 C   0  0  0  0  0  0  0  0  0  0  0  0
    3.0480    2.6940   23.4470 C   0  0  0  0  0  0  0  0  0  0  0  0
    4.4930   -5.5280   22.9290 C   0  0  2  0  0  0  0  0  0  0  0  0
    6.3680   -5.7040   24.1250 C   0  0  0  0  0  0  0  0  0  0  0  0
    8.4830   -6.0600   23.2910 C   0  0  0  0  0  0  0  0  0  0  0  0
    7.4990   -3.9410   23.8630 C   0  0  0  0  0  0  0  0  0  0  0  0
   12.5120   -0.6250   25.0470 C   0  0  0  0  0  0  0  0  0  0  0  0
   13.4660   -1.8180   23.2280 C   0  0  0  0  0  0  0  0  0  0  0  0
   12.7020   -2.9710   25.2200 C   0  0  0  0  0  0  0  0  0  0  0  0
    3.2930   -6.3870   23.2150 C   0  0  2  0  0  0  0  0  0  0  0  0
    4.0370   -4.2720   22.4010 O   0  0  0  0  0  0  0  0  0  0  0  0
    3.1010    1.8050   24.3270 O   0  0  0  0  0  0  0  0  0  0  0  0
    1.8130    3.0830   23.0550 N   0  0  0  0  0  0  0  0  0  0  0  0
    5.2430   -4.9750   24.0110 N   0  0  0  0  0  0  0  0  0  0  0  0
    9.4070   -5.8490   24.2790 C   0  0  0  0  0  0  0  0  0  0  0  0
    8.4810   -3.8420   24.8670 C   0  0  0  0  0  0  0  0  0  0  0  0
    2.1930   -5.6160   22.9930 N   0  0  0  0  0  0  0  0  0  0  0  0
    3.3790   -6.8650   24.5590 C   0  0  1  0  0  0  0  0  0  0  0  0
    3.9190   -5.2740   25.0700 S   0  0  0  0  0  0  0  0  0  0  0  0
    0.6700    3.3420   23.8250 C   0  0  0  0  0  0  0  0  0  0  0  0
    9.2060   -4.9200   25.2430 C   0  0  0  0  0  0  0  0  0  0  0  0
    2.2250   -7.4040   25.1700 C   0  0  0  0  0  0  0  0  0  0  0  0
    4.4250   -7.7370   24.5160 O   0  0  0  0  0  0  0  0  0  0  0  0
    0.9140   -6.2200   22.5350 C   0  0  0  0  0  0  0  0  0  0  0  0
    5.1230   -5.1430   26.2180 O   0  0  0  0  0  0  0  0  0  0  0  0
    0.6880    4.7400   24.4810 C   0  0  0  0  0  0  0  0  0  0  0  0
   -0.5860    2.9930   23.0160 C   0  0  0  0  0  0  0  0  0  0  0  0
    3.3700   -3.7860   25.7570 C   0  0  0  0  0  0  0  0  0  0  0  0
    0.9320   -7.3650   22.0260 O   0  0  0  0  0  0  0  0  0  0  0  0
   -0.3210   -5.5530   22.6280 C   0  0  0  0  0  0  0  0  0  0  0  0
   -0.6420    4.8420   25.2420 C   0  0  0  0  0  0  0  0  0  0  0  0
   -1.9230    3.3350   23.6340 C   0  0  0  0  0  0  0  0  0  0  0  0
    4.1920   -2.7540   26.2800 C   0  0  0  0  0  0  0  0  0  0  0  0
    1.9930   -3.6030   25.7370 C   0  0  0  0  0  0  0  0  0  0  0  0
    5.5010   -2.9520   26.2790 F   0  0  0  0  0  0  0  0  0  0  0  0
   -1.9690    4.5830   24.4930 C   0  0  0  0  0  0  0  0  0  0  0  0
    1.4380   -2.4360   26.2100 C   0  0  0  0  0  0  0  0  0  0  0  0
    3.6550   -1.5510   26.7740 C   0  0  0  0  0  0  0  0  0  0  0  0
   -0.0300   -2.1970   26.1940 C   0  0  0  0  0  0  0  0  0  0  0  0
    2.2800   -1.3330   26.7630 C   0  0  0  0  0  0  0  0  0  0  0  0
  1  2  1  0
  2  3  1  1
  1  4  1  0
  4  5  2  0
  6  4  1  6
  2  7  1  0
  6  8  1  0
  3  9  1  0
  6 10  1  0
  7 11  2  0
  7 12  1  0
 11 13  1  0
  8 14  1  0
  9 15  1  0
 10 16  1  0
 10 17  2  0
  8 18  1  0
 12 19  2  0
 11 20  1  0
 20 21  1  0
 14 22  2  0
 14 23  1  0
 16 24  1  0
 13 25  2  0
 13 26  1  0
 17 27  1  0
 16 28  2  0
 18 29  2  0
 18 30  1  0
 19 31  1  0
 20 31  2  0
 21 32  1  0
 23 33  1  1
 24 34  1  0
 27 35  2  0
 28 35  1  0
 29 36  1  0
 30 37  2  0
 23 38  1  0
 34 39  1  0
 36 40  2  0
 37 40  1  0
 38 41  1  0
 38 42  1  0
 40 43  1  0
 39 44  1  0
 41 45  1  0
 42 46  1  0
 42 47  1  0
 42 48  1  0
 43 49  1  0
 43 50  1  0
 43 51  1  0
 45 52  1  0
 45 53  1  6
 44 54  2  0
 44 55  1  0
 45 56  1  0
 46 56  1  0
 47 57  2  0
 48 58  2  0
 52 59  1  1
 52 60  1  0
 56 61  1  0
 60 61  1  0
 55 62  1  0
 57 63  1  0
 58 63  1  0
 60 64  1  1
 60 65  1  0
 59 66  1  0
 61 67  2  0
 62 68  1  0
 62 69  1  0
 61 70  1  0
 66 71  2  0
 66 72  1  0
 68 73  1  0
 69 74  1  0
 70 75  2  0
 70 76  1  0
 75 77  1  0
 73 78  1  0
 74 78  1  0
 76 79  2  0
 75 80  1  0
 79 81  1  0
 79 82  1  0
 80 82  2  0
M  END
