x3110-x0981-x1402
     RDKit          3D

 56 60  0  0  0  0  0  0  0  0999 V2000
    8.0380    1.0940   23.2860 N   0  0  0  0  0  0  0  0  0  0  0  0
    8.8390    2.2430   23.6930 C   0  0  0  0  0  0  0  0  0  0  0  0
   10.3410    2.0030   23.5720 C   0  0  0  0  0  0  0  0  0  0  0  0
    7.8710    0.7860   21.9390 C   0  0  0  0  0  0  0  0  0  0  0  0
    8.5960    1.3750   21.1040 O   0  0  0  0  0  0  0  0  0  0  0  0
    6.7280   -0.2690   21.5800 C   0  0  2  0  0  0  0  0  0  0  0  0
    7.0860   -1.7640   21.6070 N   0  0  0  0  0  0  0  0  0  0  0  0
   11.0600    3.3170   23.4230 C   0  0  0  0  0  0  0  0  0  0  0  0
    6.0810    0.2880   20.3030 C   0  0  0  0  0  0  0  0  0  0  0  0
   11.9980    3.2530   22.4490 O   0  0  0  0  0  0  0  0  0  0  0  0
   10.8290    4.3140   24.0880 O   0  0  0  0  0  0  0  0  0  0  0  0
    6.1250   -2.9190   21.2700 C   0  0  0  0  0  0  0  0  0  0  0  0
    4.9320    1.0260   20.1940 C   0  0  0  0  0  0  0  0  0  0  0  0
    6.7410    0.0600   19.1080 C   0  0  0  0  0  0  0  0  0  0  0  0
    8.3550   -1.8550   22.3240 C   0  0  0  0  0  0  0  0  0  0  0  0
   12.4190    4.5310   21.9460 C   0  0  0  0  0  0  0  0  0  0  0  0
    4.8130   -2.9590   21.1430 O   0  0  0  0  0  0  0  0  0  0  0  0
    6.6440   -4.3090   20.9950 C   0  0  1  0  0  0  0  0  0  0  0  0
    6.3760    0.5000   17.8800 N   0  0  0  0  0  0  0  0  0  0  0  0
    4.4060    1.5860   18.8630 C   0  0  0  0  0  0  0  0  0  0  0  0
    9.4870   -1.2860   21.6780 C   0  0  0  0  0  0  0  0  0  0  0  0
    8.6010   -2.4160   23.5870 C   0  0  0  0  0  0  0  0  0  0  0  0
   13.3940    5.1810   22.9000 C   0  0  0  0  0  0  0  0  0  0  0  0
    8.1600   -4.3500   20.8430 C   0  0  0  0  0  0  0  0  0  0  0  0
    5.1490    1.3200   17.7190 C   0  0  0  0  0  0  0  0  0  0  0  0
   10.7660   -1.2570   22.2360 C   0  0  0  0  0  0  0  0  0  0  0  0
    9.9070   -2.3650   24.1040 C   0  0  0  0  0  0  0  0  0  0  0  0
    6.2670   -5.2230   22.1330 N   0  0  0  0  0  0  0  0  0  0  0  0
   10.9950   -1.8020   23.4890 C   0  0  0  0  0  0  0  0  0  0  0  0
    6.8280   -5.0030   23.4660 C   0  0  0  0  0  0  0  0  0  0  0  0
    5.0050   -5.5350   22.2110 C   0  0  0  0  0  0  0  0  0  0  0  0
   12.3800   -1.7390   24.1120 C   0  0  0  0  0  0  0  0  0  0  0  0
    5.9420   -4.3050   24.3110 C   0  0  1  0  0  0  0  0  0  0  0  0
    4.5640   -5.9510   23.4800 C   0  0  2  0  0  0  0  0  0  0  0  0
   12.4840   -0.5700   24.8540 C   0  0  0  0  0  0  0  0  0  0  0  0
   13.3160   -1.8340   22.9300 C   0  0  0  0  0  0  0  0  0  0  0  0
   12.7180   -2.9670   24.9280 C   0  0  0  0  0  0  0  0  0  0  0  0
    3.1450   -6.5160   23.6160 C   0  0  1  0  0  0  0  0  0  0  0  0
    5.7590   -3.0360   23.7520 O   0  0  0  0  0  0  0  0  0  0  0  0
    4.5070   -4.8780   24.5300 N   0  0  0  0  0  0  0  0  0  0  0  0
    2.7350   -7.5600   22.6810 N   0  0  0  0  0  0  0  0  0  0  0  0
    3.4230   -6.8640   24.9340 C   0  0  0  0  0  0  0  0  0  0  0  0
    4.0590   -5.6620   25.9920 S   0  0  1  0  0  0  0  0  0  0  0  0
    1.4100   -7.5570   22.1230 C   0  0  0  0  0  0  0  0  0  0  0  0
    3.1260   -8.0860   25.4730 C   0  0  0  0  0  0  0  0  0  0  0  0
    4.4310   -5.9130   27.3280 O   0  0  0  0  0  0  0  0  0  0  0  0
    4.3550   -3.8990   26.0300 C   0  0  0  0  0  0  0  0  0  0  0  0
    1.1320   -8.7110   21.3650 C   0  0  0  0  0  0  0  0  0  0  0  0
    0.6110   -6.6360   22.2790 O   0  0  0  0  0  0  0  0  0  0  0  0
    2.8990   -8.0810   26.9470 N   0  0  0  0  0  0  0  0  0  0  0  0
    2.9810   -9.2220   24.6880 O   0  0  0  0  0  0  0  0  0  0  0  0
    2.6110   -3.2850   25.9450 S   0  0  0  0  0  0  0  0  0  0  0  0
    5.3750   -2.7740   26.1330 C   0  0  0  0  0  0  0  0  0  0  0  0
    4.5380   -1.4530   26.1380 C   0  0  0  0  0  0  0  0  0  0  0  0
    3.0160   -1.6590   26.0500 C   0  0  0  0  0  0  0  0  0  0  0  0
    1.7420   -0.5170   26.0550 Cl  0  0  0  0  0  0  0  0  0  0  0  0
  1  2  1  0
  2  3  1  0
  1  4  1  0
  4  5  2  0
  6  4  1  6
  6  7  1  0
  3  8  1  0
  6  9  1  0
  8 10  1  0
  8 11  2  0
  7 12  1  0
  9 13  2  0
  9 14  1  0
  7 15  1  0
 10 16  1  0
 12 17  2  0
 12 18  1  0
 14 19  2  0
 13 20  1  0
 15 21  2  0
 15 22  1  0
 16 23  1  0
 18 24  1  1
 19 25  1  0
 20 25  2  0
 21 26  1  0
 22 27  2  0
 18 28  1  0
 26 29  2  0
 27 29  1  0
 28 30  1  0
 28 31  1  0
 29 32  1  0
 30 33  1  0
 34 31  1  6
 32 35  1  0
 32 36  1  0
 32 37  1  0
 34 38  1  0
 33 39  1  6
 33 40  1  0
 34 40  1  0
 38 41  1  6
 38 42  1  0
 40 43  1  0
 42 43  2  0
 41 44  1  0
 42 45  1  0
 43 46  2  0
 43 47  1  1
 44 48  1  0
 44 49  2  0
 45 50  1  0
 45 51  2  0
 47 52  1  0
 47 53  2  0
 53 54  1  0
 52 55  1  0
 54 55  2  0
 55 56  1  0
M  END
