x3110-x0786-x0946-x0769
     RDKit          3D

 60 66  0  0  0  0  0  0  0  0999 V2000
    7.9630    1.6300   23.2510 N   0  0  0  0  0  0  0  0  0  0  0  0
    8.7210    2.8540   23.6410 C   0  0  0  0  0  0  0  0  0  0  0  0
   10.2440    2.9970   23.2900 C   0  0  0  0  0  0  0  0  0  0  0  0
    7.7170    1.1530   21.8670 C   0  0  0  0  0  0  0  0  0  0  0  0
    8.3170    1.6090   20.8760 O   0  0  0  0  0  0  0  0  0  0  0  0
    6.6430   -0.0090   21.5770 C   0  0  2  0  0  0  0  0  0  0  0  0
    6.9200   -1.3550   21.7100 N   0  0  0  0  0  0  0  0  0  0  0  0
    5.9510    0.3650   20.2430 C   0  0  0  0  0  0  0  0  0  0  0  0
   10.9840    4.3060   23.3040 C   0  0  0  0  0  0  0  0  0  0  0  0
   10.9420    1.8250   22.9490 C   0  0  0  0  0  0  0  0  0  0  0  0
   10.3220    5.6970   23.6880 C   0  0  0  0  0  0  0  0  0  0  0  0
    5.6880   -2.2290   21.5060 C   0  0  0  0  0  0  0  0  0  0  0  0
    4.6740    1.0100   20.2170 C   0  0  0  0  0  0  0  0  0  0  0  0
    6.5960    0.0680   18.9980 C   0  0  0  0  0  0  0  0  0  0  0  0
    8.2540   -1.6220   22.3030 C   0  0  0  0  0  0  0  0  0  0  0  0
   12.2770    1.7780   22.6020 C   0  0  0  0  0  0  0  0  0  0  0  0
   12.3900    4.3060   22.9440 C   0  0  0  0  0  0  0  0  0  0  0  0
   13.3770    5.4990   22.8490 C   0  0  0  0  0  0  0  0  0  0  0  0
    4.6790   -2.9440   21.3380 O   0  0  0  0  0  0  0  0  0  0  0  0
    6.2310   -3.7270   21.3900 C   0  0  2  0  0  0  0  0  0  0  0  0
   10.2340    6.6200   22.6370 N   0  0  0  0  0  0  0  0  0  0  0  0
   10.9790    6.3040   24.7580 O   0  0  0  0  0  0  0  0  0  0  0  0
    9.1790    5.7060   24.1310 O   0  0  0  0  0  0  0  0  0  0  0  0
    6.0770    0.3650   17.7580 N   0  0  0  0  0  0  0  0  0  0  0  0
    4.0670    1.3530   18.9960 C   0  0  0  0  0  0  0  0  0  0  0  0
    9.4070   -1.9230   21.5560 C   0  0  0  0  0  0  0  0  0  0  0  0
    8.3990   -1.5660   23.7070 C   0  0  0  0  0  0  0  0  0  0  0  0
   12.9750    3.0730   22.6120 C   0  0  0  0  0  0  0  0  0  0  0  0
   13.4630    6.1270   21.4370 C   0  0  0  0  0  0  0  0  0  0  0  0
    6.4620   -4.1070   19.8820 C   0  0  0  0  0  0  0  0  0  0  0  0
    4.8630    0.9920   17.7100 C   0  0  0  0  0  0  0  0  0  0  0  0
   10.6570   -2.1600   22.1400 C   0  0  0  0  0  0  0  0  0  0  0  0
    9.6610   -1.8030   24.3190 C   0  0  0  0  0  0  0  0  0  0  0  0
    5.8370   -4.9230   22.4680 C   0  0  2  0  0  0  0  0  0  0  0  0
   10.8370   -2.1080   23.5530 C   0  0  0  0  0  0  0  0  0  0  0  0
    4.5600   -5.6120   22.4800 C   0  0  0  0  0  0  0  0  0  0  0  0
    5.8240   -4.4250   23.9470 C   0  0  0  0  0  0  0  0  0  0  0  0
   12.2130   -2.3720   24.2720 C   0  0  0  0  0  0  0  0  0  0  0  0
    3.7630   -5.0400   23.4810 C   0  0  2  0  0  0  0  0  0  0  0  0
    4.5240   -4.0930   24.1830 C   0  0  1  0  0  0  0  0  0  0  0  0
   12.8470   -1.2270   24.8890 C   0  0  0  0  0  0  0  0  0  0  0  0
   13.4780   -2.3870   23.3340 C   0  0  0  0  0  0  0  0  0  0  0  0
   12.1050   -3.5770   25.0190 C   0  0  0  0  0  0  0  0  0  0  0  0
    2.9450   -6.1840   24.3390 C   0  0  1  0  0  0  0  0  0  0  0  0
    4.4250   -4.1000   25.6240 O   0  0  0  0  0  0  0  0  0  0  0  0
    3.7730   -6.8540   24.9520 O   0  0  0  0  0  0  0  0  0  0  0  0
    2.0150   -5.6360   25.7880 S   0  0  0  0  0  0  0  0  0  0  0  0
    2.0250   -7.0890   23.5130 N   0  0  0  0  0  0  0  0  0  0  0  0
    3.4330   -3.2540   26.2450 C   0  0  1  0  0  0  0  0  0  0  0  0
    0.6510   -6.1260   25.7090 O   0  0  0  0  0  0  0  0  0  0  0  0
    0.9600   -6.5570   22.5840 C   0  0  0  0  0  0  0  0  0  0  0  0
    2.1970   -8.5940   23.4420 C   0  0  0  0  0  0  0  0  0  0  0  0
    1.9750   -3.8160   25.9720 C   0  0  2  0  0  0  0  0  0  0  0  0
    3.8270   -3.0780   27.6100 C   0  0  0  0  0  0  0  0  0  0  0  0
   -0.4060   -7.3740   22.4570 C   0  0  0  0  0  0  0  0  0  0  0  0
    0.9160   -9.3800   23.8040 C   0  0  0  0  0  0  0  0  0  0  0  0
    0.9030   -3.5470   27.0890 C   0  0  0  0  0  0  0  0  0  0  0  0
    2.7410   -3.0240   28.7610 C   0  0  0  0  0  0  0  0  0  0  0  0
   -0.2410   -9.2020   22.4150 S   0  0  0  0  0  0  0  0  0  0  0  0
    1.2830   -3.1780   28.3820 C   0  0  0  0  0  0  0  0  0  0  0  0
  1  2  1  0
  2  3  1  0
  1  4  1  0
  4  5  2  0
  6  4  1  6
  6  7  1  0
  6  8  1  0
  3  9  2  0
  3 10  1  0
  9 11  1  0
  7 12  1  0
  8 13  2  0
  8 14  1  0
  7 15  1  0
 10 16  2  0
  9 17  1  0
 17 18  1  0
 12 19  2  0
 12 20  1  0
 11 21  1  0
 11 22  1  0
 11 23  1  0
 14 24  2  0
 13 25  1  0
 15 26  2  0
 15 27  1  0
 16 28  1  0
 17 28  2  0
 18 29  1  0
 20 30  1  6
 24 31  1  0
 25 31  2  0
 26 32  1  0
 27 33  2  0
 20 34  1  0
 32 35  2  0
 33 35  1  0
 34 36  1  6
 34 37  1  0
 35 38  1  0
 39 36  1  6
 40 37  1  1
 39 40  1  0
 38 41  1  0
 38 42  1  0
 38 43  1  0
 39 44  1  0
 40 45  1  0
 44 46  1  1
 47 44  1  6
 44 48  1  0
 45 49  1  0
 47 50  2  0
 48 51  1  0
 48 52  1  0
 47 53  1  0
 49 53  1  0
 49 54  1  1
 51 55  1  0
 52 56  1  0
 53 57  1  1
 54 58  2  0
 55 59  1  0
 56 59  1  0
 57 60  2  0
 58 60  1  0
M  END
