x3115-x0769-x1311-x0540-x3110-x0946
     RDKit          3D

 75 81  0  0  0  0  0  0  0  0999 V2000
    7.9360    1.3450   23.1230 N   0  0  0  0  0  0  0  0  0  0  0  0
    8.5080    2.6400   23.0440 C   0  0  1  0  0  0  0  0  0  0  0  0
    7.8060    3.7320   23.7790 C   0  0  0  0  0  0  0  0  0  0  0  0
    7.7400    0.5420   21.9510 C   0  0  0  0  0  0  0  0  0  0  0  0
    8.5720    0.7330   21.0670 O   0  0  0  0  0  0  0  0  0  0  0  0
    6.6320   -0.3790   21.7500 C   0  0  2  0  0  0  0  0  0  0  0  0
   10.0580    2.5670   23.0490 C   0  0  0  0  0  0  0  0  0  0  0  0
    6.9310   -1.5460   21.8860 N   0  0  0  0  0  0  0  0  0  0  0  0
    8.2070    5.0270   23.4430 O   0  0  0  0  0  0  0  0  0  0  0  0
    6.1330    0.1030   20.3780 C   0  0  0  0  0  0  0  0  0  0  0  0
   10.9370    3.7000   23.2130 C   0  0  0  0  0  0  0  0  0  0  0  0
   10.6020    1.2870   22.8400 C   0  0  0  0  0  0  0  0  0  0  0  0
   10.4700    5.0980   23.5100 C   0  0  0  0  0  0  0  0  0  0  0  0
    6.0850   -2.7410   21.4280 C   0  0  0  0  0  0  0  0  0  0  0  0
    7.7880    5.5160   22.2370 C   0  0  0  0  0  0  0  0  0  0  0  0
    4.9210    0.7620   20.3250 C   0  0  0  0  0  0  0  0  0  0  0  0
    6.8720   -0.0830   19.2050 C   0  0  0  0  0  0  0  0  0  0  0  0
    8.2240   -1.6610   22.5400 C   0  0  0  0  0  0  0  0  0  0  0  0
   11.9600    1.0790   22.7480 C   0  0  0  0  0  0  0  0  0  0  0  0
   12.3250    3.5350   23.0900 C   0  0  0  0  0  0  0  0  0  0  0  0
   13.2700    4.7160   23.1890 C   0  0  0  0  0  0  0  0  0  0  0  0
    4.7890   -2.9720   21.2540 O   0  0  0  0  0  0  0  0  0  0  0  0
    6.9360   -3.9140   21.0910 C   0  0  1  0  0  0  0  0  0  0  0  0
    4.1500    0.9400   21.5910 C   0  0  0  0  0  0  0  0  0  0  0  0
    9.9180    4.5740   24.4450 O   0  0  0  0  0  0  0  0  0  0  0  0
   11.1870    5.3540   22.4150 O   0  0  0  0  0  0  0  0  0  0  0  0
    6.5180    0.3480   17.9450 N   0  0  0  0  0  0  0  0  0  0  0  0
    4.4620    1.2440   19.1100 C   0  0  0  0  0  0  0  0  0  0  0  0
    9.3900   -1.5820   21.7820 C   0  0  0  0  0  0  0  0  0  0  0  0
    8.4850   -1.8330   23.9180 C   0  0  0  0  0  0  0  0  0  0  0  0
   12.8560    2.2750   22.8630 C   0  0  0  0  0  0  0  0  0  0  0  0
   13.3650    5.3450   21.7830 C   0  0  0  0  0  0  0  0  0  0  0  0
    7.5920   -3.3550   19.7870 C   0  0  0  0  0  0  0  0  0  0  0  0
    4.8980    1.8060   22.4070 C   0  0  0  0  0  0  0  0  0  0  0  0
    5.3090    1.0380   17.8250 C   0  0  0  0  0  0  0  0  0  0  0  0
   10.6590   -1.6640   22.3260 C   0  0  0  0  0  0  0  0  0  0  0  0
    9.7750   -1.9140   24.4990 C   0  0  0  0  0  0  0  0  0  0  0  0
    7.6420   -4.2680   22.4370 C   0  0  0  0  0  0  0  0  0  0  0  0
    4.0280    2.8440   22.9110 N   0  0  0  0  0  0  0  0  0  0  0  0
   10.9170   -1.8250   23.6870 C   0  0  0  0  0  0  0  0  0  0  0  0
    9.0370   -4.3340   22.5370 C   0  0  0  0  0  0  0  0  0  0  0  0
    6.8980   -4.5260   23.6300 C   0  0  0  0  0  0  0  0  0  0  0  0
   12.3440   -1.8850   24.2720 C   0  0  0  0  0  0  0  0  0  0  0  0
    2.8440    2.4260   23.5710 C   0  0  0  0  0  0  0  0  0  0  0  0
    9.7550   -4.6300   23.6890 C   0  0  0  0  0  0  0  0  0  0  0  0
    7.6950   -4.8580   24.9110 C   0  0  0  0  0  0  0  0  0  0  0  0
    5.3360   -4.5190   23.7460 C   0  0  0  0  0  0  0  0  0  0  0  0
   12.5330   -0.7160   24.9920 C   0  0  0  0  0  0  0  0  0  0  0  0
   13.3780   -1.8820   23.1470 C   0  0  0  0  0  0  0  0  0  0  0  0
   12.6910   -3.0580   25.2210 C   0  0  0  0  0  0  0  0  0  0  0  0
    2.7890    1.4850   24.3540 O   0  0  0  0  0  0  0  0  0  0  0  0
    1.7200    3.2650   23.1810 N   0  0  0  0  0  0  0  0  0  0  0  0
    9.0570   -4.9180   24.9740 C   0  0  0  0  0  0  0  0  0  0  0  0
    4.7230   -5.7950   24.4540 C   0  0  2  0  0  0  0  0  0  0  0  0
    0.5280    3.3400   23.9990 C   0  0  0  0  0  0  0  0  0  0  0  0
    4.7510   -5.4320   26.1950 S   0  0  0  0  0  0  0  0  0  0  0  0
    5.3050   -6.7610   23.6950 C   0  0  0  0  0  0  0  0  0  0  0  0
    3.1680   -6.6880   24.3030 S   0  0  1  0  0  0  0  0  0  0  0  0
    0.4360    4.6130   24.5710 C   0  0  0  0  0  0  0  0  0  0  0  0
   -0.5840    2.8860   23.2710 C   0  0  0  0  0  0  0  0  0  0  0  0
    6.0670   -5.1190   26.5420 O   0  0  0  0  0  0  0  0  0  0  0  0
    1.9590   -5.7600   24.7180 O   0  0  0  0  0  0  0  0  0  0  0  0
    4.0390   -6.4460   26.9010 O   0  0  0  0  0  0  0  0  0  0  0  0
    4.5560   -6.5990   22.4070 C   0  0  0  0  0  0  0  0  0  0  0  0
    3.2370   -6.5810   22.6580 C   0  0  0  0  0  0  0  0  0  0  0  0
    3.7420   -3.9660   26.2860 C   0  0  0  0  0  0  0  0  0  0  0  0
   -0.7950    5.0260   25.0650 C   0  0  0  0  0  0  0  0  0  0  0  0
   -1.8480    3.3430   23.6970 C   0  0  0  0  0  0  0  0  0  0  0  0
    4.3710   -2.7130   26.2450 C   0  0  0  0  0  0  0  0  0  0  0  0
    2.3830   -3.9980   26.3720 C   0  0  0  0  0  0  0  0  0  0  0  0
   -1.9190    4.5760   24.3600 C   0  0  0  0  0  0  0  0  0  0  0  0
    5.6970   -2.5970   26.1660 F   0  0  0  0  0  0  0  0  0  0  0  0
    1.6270   -2.8120   26.4070 C   0  0  0  0  0  0  0  0  0  0  0  0
    3.6370   -1.5200   26.2790 C   0  0  0  0  0  0  0  0  0  0  0  0
    2.2540   -1.5740   26.3580 C   0  0  0  0  0  0  0  0  0  0  0  0
  1  2  1  0
  2  3  1  1
  1  4  1  0
  4  5  2  0
  6  4  1  6
  2  7  1  0
  6  8  1  0
  3  9  1  0
  6 10  1  0
  7 11  2  0
  7 12  1  0
 11 13  1  0
  8 14  1  0
  9 15  1  0
 10 16  1  0
 10 17  2  0
  8 18  1  0
 12 19  2  0
 11 20  1  0
 20 21  1  0
 14 22  2  0
 14 23  1  0
 16 24  1  0
 13 25  2  0
 13 26  1  0
 17 27  1  0
 16 28  2  0
 18 29  2  0
 18 30  1  0
 19 31  1  0
 20 31  2  0
 21 32  1  0
 23 33  1  6
 24 34  1  0
 27 35  2  0
 28 35  1  0
 29 36  1  0
 30 37  2  0
 23 38  1  0
 34 39  1  0
 36 40  2  0
 37 40  1  0
 38 41  2  0
 38 42  1  0
 40 43  1  0
 39 44  1  0
 41 45  1  0
 42 46  2  0
 42 47  1  0
 43 48  1  0
 43 49  1  0
 43 50  1  0
 44 51  2  0
 44 52  1  0
 45 53  2  0
 46 53  1  0
 54 47  1  6
 52 55  1  0
 54 56  1  0
 54 57  1  0
 54 58  1  0
 55 59  1  0
 55 60  1  0
 56 61  2  0
 58 62  1  1
 56 63  2  0
 57 64  1  0
 58 65  1  0
 64 65  2  0
 56 66  1  0
 59 67  1  0
 60 68  1  0
 66 69  2  0
 66 70  1  0
 67 71  1  0
 68 71  1  0
 69 72  1  0
 70 73  2  0
 69 74  1  0
 73 75  1  0
 74 75  2  0
M  END
