x3113-x3115-x0769-x1311-x0540-x3110-x0691-x0731-x0978-x2929-x1308-x0946
     RDKit          3D

109119  0  0  0  0  0  0  0  0999 V2000
    7.8800    1.5740   22.6320 N   0  0  0  0  0  0  0  0  0  0  0  0
    8.6790    2.8890   22.6350 C   0  0  1  0  0  0  0  0  0  0  0  0
    7.7510    3.9480   23.4260 C   0  0  0  0  0  0  0  0  0  0  0  0
    7.6660    0.7860   21.4610 C   0  0  0  0  0  0  0  0  0  0  0  0
    8.3710    0.9690   20.4570 O   0  0  0  0  0  0  0  0  0  0  0  0
    6.5960   -0.2070   21.3910 C   0  0  2  0  0  0  0  0  0  0  0  0
   10.1740    2.9620   22.7000 C   0  0  0  0  0  0  0  0  0  0  0  0
    7.0410   -1.7400   21.6220 N   0  0  0  0  0  0  0  0  0  0  0  0
    7.5560    5.0980   22.9480 O   0  0  0  0  0  0  0  0  0  0  0  0
    5.7250   -0.1320   20.2530 C   0  0  0  0  0  0  0  0  0  0  0  0
   11.1380    4.0630   22.8250 C   0  0  0  0  0  0  0  0  0  0  0  0
   10.8680    1.6950   22.6150 C   0  0  0  0  0  0  0  0  0  0  0  0
   10.5730    5.4370   22.9160 C   0  0  0  0  0  0  0  0  0  0  0  0
    6.1170   -2.9590   21.3590 C   0  0  0  0  0  0  0  0  0  0  0  0
    6.7050    5.2850   21.8280 C   0  0  0  0  0  0  0  0  0  0  0  0
    4.4010    0.3360   20.0860 C   0  0  0  0  0  0  0  0  0  0  0  0
    6.3710   -0.6330   18.9040 C   0  0  0  0  0  0  0  0  0  0  0  0
    8.3190   -1.8120   22.3210 C   0  0  0  0  0  0  0  0  0  0  0  0
   12.2080    1.5110   22.6480 C   0  0  0  0  0  0  0  0  0  0  0  0
   12.6160    3.9180   22.8610 C   0  0  0  0  0  0  0  0  0  0  0  0
   13.7920    4.9500   23.0070 C   0  0  2  0  0  0  0  0  0  0  0  0
    4.8170   -2.9800   21.1450 O   0  0  0  0  0  0  0  0  0  0  0  0
    6.6200   -4.4450   21.3210 C   0  0  1  0  0  0  0  0  0  0  0  0
    3.4710    0.8920   21.1570 C   0  0  0  0  0  0  0  0  0  0  0  0
   10.1340    6.5050   23.3760 O   0  0  0  0  0  0  0  0  0  0  0  0
   10.6740    5.1860   24.2830 O   0  0  0  0  0  0  0  0  0  0  0  0
    5.7510   -0.6120   17.7370 N   0  0  0  0  0  0  0  0  0  0  0  0
    3.8500    0.3000   18.7890 C   0  0  0  0  0  0  0  0  0  0  0  0
    9.5220   -1.9680   21.6230 C   0  0  0  0  0  0  0  0  0  0  0  0
    8.3930   -1.7140   23.7540 C   0  0  0  0  0  0  0  0  0  0  0  0
   13.0690    2.5320   22.7640 C   0  0  0  0  0  0  0  0  0  0  0  0
   13.5070    6.4050   22.6210 C   0  0  0  0  0  0  0  0  0  0  0  0
    8.1280   -4.8130   20.9920 C   0  0  0  0  0  0  0  0  0  0  0  0
    3.5450    2.4290   21.0090 C   0  0  0  0  0  0  0  0  0  0  0  0
   15.2600    4.5740   22.3850 C   0  0  0  0  0  0  0  0  0  0  0  0
    4.4940   -0.1630   17.6290 C   0  0  0  0  0  0  0  0  0  0  0  0
   10.9020   -2.0620   22.2740 C   0  0  0  0  0  0  0  0  0  0  0  0
    9.5900   -1.7770   24.5040 C   0  0  0  0  0  0  0  0  0  0  0  0
    6.0280   -5.4340   22.2420 N   0  0  0  0  0  0  0  0  0  0  0  0
    3.7020    2.9790   22.2600 N   0  0  0  0  0  0  0  0  0  0  0  0
   16.3720    4.7460   23.2900 C   0  0  0  0  0  0  0  0  0  0  0  0
   10.9800   -1.9670   23.8250 C   0  0  0  0  0  0  0  0  0  0  0  0
    4.7410   -6.0790   21.8410 C   0  0  0  0  0  0  0  0  0  0  0  0
    6.5180   -5.9450   23.4970 C   0  0  0  0  0  0  0  0  0  0  0  0
   12.2920   -2.0620   24.6270 C   0  0  0  0  0  0  0  0  0  0  0  0
    2.6600    3.1440   23.1560 C   0  0  0  0  0  0  0  0  0  0  0  0
   17.8110    4.1600   22.8970 C   0  0  0  0  0  0  0  0  0  0  0  0
    3.6510   -5.8790   22.8750 C   0  0  2  0  0  0  0  0  0  0  0  0
    5.4170   -6.6030   24.4020 C   0  0  0  0  0  0  0  0  0  0  0  0
    7.4280   -7.1380   23.1010 C   0  0  0  0  0  0  0  0  0  0  0  0
    7.2520   -4.9760   24.3980 C   0  0  0  0  0  0  0  0  0  0  0  0
   12.5850   -0.8980   25.4220 C   0  0  0  0  0  0  0  0  0  0  0  0
   13.5700   -2.3890   23.7750 C   0  0  0  0  0  0  0  0  0  0  0  0
   12.1300   -3.2940   25.5870 C   0  0  0  0  0  0  0  0  0  0  0  0
    2.3320   -6.7660   22.7120 C   0  0  2  0  0  0  0  0  0  0  0  0
    3.3650   -4.5420   22.6990 O   0  0  0  0  0  0  0  0  0  0  0  0
    2.8110    2.6980   24.3190 O   0  0  0  0  0  0  0  0  0  0  0  0
    1.4790    3.7870   22.8760 N   0  0  0  0  0  0  0  0  0  0  0  0
   18.9620    4.7350   23.7620 C   0  0  0  0  0  0  0  0  0  0  0  0
    4.0850   -6.0550   24.3060 N   0  0  0  0  0  0  0  0  0  0  0  0
    8.7190   -7.2300   23.4220 C   0  0  0  0  0  0  0  0  0  0  0  0
    8.5460   -5.0880   24.7440 C   0  0  0  0  0  0  0  0  0  0  0  0
    1.3400   -5.9320   22.2430 N   0  0  0  0  0  0  0  0  0  0  0  0
    2.1700   -7.4150   24.0140 C   0  0  1  0  0  0  0  0  0  0  0  0
    2.8340   -6.3420   25.2500 S   0  0  0  0  0  0  0  0  0  0  0  0
   20.0310    5.2750   22.9110 C   0  0  0  0  0  0  0  0  0  0  0  0
    0.2340    3.6270   23.6500 C   0  0  0  0  0  0  0  0  0  0  0  0
    9.4730   -6.1930   24.2540 C   0  0  0  0  0  0  0  0  0  0  0  0
    0.8800   -7.8940   24.4010 C   0  0  0  0  0  0  0  0  0  0  0  0
    3.0110   -8.4970   23.9720 O   0  0  0  0  0  0  0  0  0  0  0  0
    0.1580   -6.4360   21.4480 C   0  0  0  0  0  0  0  0  0  0  0  0
    3.7200   -6.9980   26.4940 O   0  0  0  0  0  0  0  0  0  0  0  0
   21.1740    5.8700   23.5270 C   0  0  0  0  0  0  0  0  0  0  0  0
    0.0990    4.8370   24.5860 C   0  0  0  0  0  0  0  0  0  0  0  0
   -0.9250    3.5680   22.6000 C   0  0  0  0  0  0  0  0  0  0  0  0
    2.3370   -4.6720   25.5970 C   0  0  0  0  0  0  0  0  0  0  0  0
    0.0930   -7.6550   21.1230 O   0  0  0  0  0  0  0  0  0  0  0  0
   -0.8870   -5.5980   21.0300 C   0  0  0  0  0  0  0  0  0  0  0  0
   22.0270    4.7260   24.0200 N   0  0  0  0  0  0  0  0  0  0  0  0
   -1.1900    4.8140   25.1750 C   0  0  0  0  0  0  0  0  0  0  0  0
   -2.1800    3.6100   23.2790 C   0  0  0  0  0  0  0  0  0  0  0  0
    3.2090   -3.8730   26.3200 C   0  0  0  0  0  0  0  0  0  0  0  0
    1.1260   -4.1540   25.1820 C   0  0  0  0  0  0  0  0  0  0  0  0
    4.4240   -4.2250   26.8170 F   0  0  0  0  0  0  0  0  0  0  0  0
   23.3900    4.5610   23.8470 C   0  0  0  0  0  0  0  0  0  0  0  0
   -2.4110    4.6140   24.2610 C   0  0  0  0  0  0  0  0  0  0  0  0
    0.4070   -2.8930   25.2730 C   0  0  0  0  0  0  0  0  0  0  0  0
    2.7830   -2.6150   26.5550 C   0  0  0  0  0  0  0  0  0  0  0  0
   -0.3590   -1.5480   25.3700 C   0  0  0  0  0  0  0  0  0  0  0  0
   24.1140    5.4850   23.1710 N   0  0  0  0  0  0  0  0  0  0  0  0
    1.5260   -2.1640   26.0900 C   0  0  0  0  0  0  0  0  0  0  0  0
   24.0980    3.3780   24.3670 C   0  0  2  0  0  0  0  0  0  0  0  0
   23.3320    2.3340   25.1040 C   0  0  0  0  0  0  0  0  0  0  0  0
   25.3650    3.5900   25.2810 C   0  0  2  0  0  0  0  0  0  0  0  0
   24.3040    1.4460   25.7130 N   0  0  0  0  0  0  0  0  0  0  0  0
   25.5230    2.2500   25.9690 C   0  0  0  0  0  0  0  0  0  0  0  0
   25.4280    4.7790   26.1900 C   0  0  0  0  0  0  0  0  0  0  0  0
   24.5480    0.1520   25.0390 C   0  0  0  0  0  0  0  0  0  0  0  0
   24.5310    4.9940   27.2760 C   0  0  0  0  0  0  0  0  0  0  0  0
   26.4280    5.7620   25.9870 C   0  0  0  0  0  0  0  0  0  0  0  0
   23.4020   -0.7900   24.8690 C   0  0  0  0  0  0  0  0  0  0  0  0
   24.6160    6.1140   28.1090 C   0  0  0  0  0  0  0  0  0  0  0  0
   26.5050    6.8790   26.8240 C   0  0  0  0  0  0  0  0  0  0  0  0
   22.6640   -1.1840   25.9510 C   0  0  0  0  0  0  0  0  0  0  0  0
   22.9870   -1.3320   23.6110 C   0  0  0  0  0  0  0  0  0  0  0  0
   25.6210    7.0870   27.8910 C   0  0  0  0  0  0  0  0  0  0  0  0
   21.6410   -2.0190   25.7810 N   0  0  0  0  0  0  0  0  0  0  0  0
   21.8790   -2.2690   23.2640 C   0  0  0  0  0  0  0  0  0  0  0  0
   21.2850   -2.5120   24.5540 C   0  0  0  0  0  0  0  0  0  0  0  0
  1  2  1  0
  2  3  1  1
  1  4  1  0
  4  5  2  0
  6  4  1  6
  2  7  1  0
  6  8  1  0
  3  9  1  0
  6 10  1  0
  7 11  2  0
  7 12  1  0
 11 13  1  0
  8 14  1  0
  9 15  1  0
 10 16  1  0
 10 17  2  0
  8 18  1  0
 12 19  2  0
 11 20  1  0
 20 21  1  0
 14 22  2  0
 14 23  1  0
 16 24  1  0
 13 25  2  0
 13 26  1  0
 17 27  1  0
 16 28  2  0
 18 29  2  0
 18 30  1  0
 19 31  1  0
 20 31  2  0
 21 32  1  6
 23 33  1  1
 24 34  1  0
 21 35  1  0
 27 36  2  0
 28 36  1  0
 29 37  1  0
 30 38  2  0
 23 39  1  0
 34 40  1  0
 35 41  1  0
 37 42  2  0
 38 42  1  0
 39 43  1  0
 39 44  1  0
 42 45  1  0
 40 46  1  0
 41 47  1  0
 43 48  1  0
 44 49  1  0
 44 50  1  0
 44 51  1  0
 45 52  1  0
 45 53  1  0
 45 54  1  0
 48 55  1  0
 48 56  1  1
 46 57  2  0
 46 58  1  0
 47 59  1  0
 48 60  1  0
 49 60  1  0
 50 61  2  0
 51 62  2  0
 55 63  1  1
 55 64  1  0
 60 65  1  0
 64 65  1  0
 59 66  1  0
 58 67  1  0
 61 68  1  0
 62 68  1  0
 64 69  1  1
 64 70  1  0
 63 71  1  0
 65 72  2  0
 66 73  1  0
 67 74  1  0
 67 75  1  0
 65 76  1  0
 71 77  2  0
 71 78  1  0
 73 79  1  0
 74 80  1  0
 75 81  1  0
 76 82  2  0
 76 83  1  0
 82 84  1  0
 79 85  2  3
 80 86  1  0
 81 86  1  0
 83 87  2  0
 82 88  1  0
 87 89  1  0
 85 90  1  0
 87 91  1  0
 88 91  2  0
 92 85  1  1
 92 93  1  0
 92 94  1  0
 93 95  1  0
 94 96  1  0
 95 96  1  0
 94 97  1  1
 95 98  1  0
 97 99  2  0
 97100  1  0
 98101  1  0
 99102  1  0
100103  2  0
101104  2  0
101105  1  0
102106  2  0
103106  1  0
104107  1  0
105108  2  0
107109  2  0
108109  1  0
M  END
