x3110-x3113-x0689-x1311
     RDKit          3D

 53 57  0  0  0  0  0  0  0  0999 V2000
    7.9030    1.2850   23.3440 N   0  0  0  0  0  0  0  0  0  0  0  0
    8.8160    2.4380   23.5840 C   0  0  0  0  0  0  0  0  0  0  0  0
   10.2030    2.0790   23.5080 C   0  0  0  0  0  0  0  0  0  0  0  0
    7.6310    0.7430   22.0000 C   0  0  0  0  0  0  0  0  0  0  0  0
    8.4350    0.9750   21.0850 O   0  0  0  0  0  0  0  0  0  0  0  0
    6.4090   -0.0110   21.7910 C   0  0  2  0  0  0  0  0  0  0  0  0
    6.8130   -1.4180   22.0430 N   0  0  0  0  0  0  0  0  0  0  0  0
   11.0930    3.3350   23.3980 C   0  0  0  0  0  0  0  0  0  0  0  0
    5.9960    0.4170   20.4490 C   0  0  0  0  0  0  0  0  0  0  0  0
   11.9420    3.2260   22.5220 O   0  0  0  0  0  0  0  0  0  0  0  0
   10.9420    4.4860   24.2080 O   0  0  0  0  0  0  0  0  0  0  0  0
    6.1520   -2.6500   21.5370 C   0  0  0  0  0  0  0  0  0  0  0  0
    4.9180    1.2560   20.2220 C   0  0  0  0  0  0  0  0  0  0  0  0
    6.7290    0.0060   19.1460 C   0  0  0  0  0  0  0  0  0  0  0  0
    8.1390   -1.5200   22.6350 C   0  0  0  0  0  0  0  0  0  0  0  0
   12.2870    4.4140   21.9700 C   0  0  0  0  0  0  0  0  0  0  0  0
    4.8900   -3.0660   21.1970 O   0  0  0  0  0  0  0  0  0  0  0  0
    7.3130   -3.5820   21.4520 C   0  0  2  0  0  0  0  0  0  0  0  0
    6.3900    0.4270   17.7730 N   0  0  0  0  0  0  0  0  0  0  0  0
    4.5790    1.6860   18.8080 C   0  0  0  0  0  0  0  0  0  0  0  0
    9.2750   -1.4500   21.8160 C   0  0  0  0  0  0  0  0  0  0  0  0
    8.4080   -1.6830   23.9710 C   0  0  0  0  0  0  0  0  0  0  0  0
   13.3690    5.1050   22.8000 C   0  0  0  0  0  0  0  0  0  0  0  0
    7.1380   -4.5830   20.3890 C   0  0  0  0  0  0  0  0  0  0  0  0
    5.2290    1.3270   17.7230 C   0  0  0  0  0  0  0  0  0  0  0  0
   10.7180   -1.5390   22.2870 C   0  0  0  0  0  0  0  0  0  0  0  0
    9.8070   -1.7770   24.5270 C   0  0  0  0  0  0  0  0  0  0  0  0
    7.7530   -4.0920   22.8440 C   0  0  0  0  0  0  0  0  0  0  0  0
   10.9420   -1.7060   23.7140 C   0  0  0  0  0  0  0  0  0  0  0  0
    9.0700   -4.4200   22.9130 C   0  0  0  0  0  0  0  0  0  0  0  0
    6.9740   -4.2280   23.9720 C   0  0  0  0  0  0  0  0  0  0  0  0
   12.3500   -1.7840   24.3170 C   0  0  0  0  0  0  0  0  0  0  0  0
    9.6040   -4.8760   24.0810 C   0  0  0  0  0  0  0  0  0  0  0  0
    7.5700   -4.7010   25.1890 C   0  0  0  0  0  0  0  0  0  0  0  0
    5.4540   -3.9320   24.0470 C   0  0  0  0  0  0  0  0  0  0  0  0
   12.5290   -0.6110   25.0250 C   0  0  0  0  0  0  0  0  0  0  0  0
   13.3560   -1.8050   23.1630 C   0  0  0  0  0  0  0  0  0  0  0  0
   12.6580   -2.9260   25.1030 C   0  0  0  0  0  0  0  0  0  0  0  0
    8.9080   -5.0650   25.3580 C   0  0  0  0  0  0  0  0  0  0  0  0
    4.6650   -5.1990   24.4580 C   0  0  2  0  0  0  0  0  0  0  0  0
    4.3940   -5.0630   26.2270 S   0  0  0  0  0  0  0  0  0  0  0  0
    5.4390   -6.2480   24.1630 C   0  0  0  0  0  0  0  0  0  0  0  0
    3.1620   -5.8280   24.0340 S   0  0  1  0  0  0  0  0  0  0  0  0
    3.7230   -6.2830   26.6280 O   0  0  0  0  0  0  0  0  0  0  0  0
    2.4140   -4.9050   23.2880 O   0  0  0  0  0  0  0  0  0  0  0  0
    5.4750   -4.4750   26.9660 O   0  0  0  0  0  0  0  0  0  0  0  0
    5.0960   -6.8800   23.0220 C   0  0  0  0  0  0  0  0  0  0  0  0
    3.7350   -6.7950   22.8100 C   0  0  0  0  0  0  0  0  0  0  0  0
    3.2320   -3.7360   26.1170 C   0  0  0  0  0  0  0  0  0  0  0  0
    3.6620   -2.1010   26.3930 S   0  0  0  0  0  0  0  0  0  0  0  0
    1.8880   -3.8580   25.7890 C   0  0  0  0  0  0  0  0  0  0  0  0
    1.2330   -2.6530   25.7660 C   0  0  0  0  0  0  0  0  0  0  0  0
    2.0540   -1.5790   26.0730 C   0  0  0  0  0  0  0  0  0  0  0  0
  1  2  1  0
  2  3  1  0
  1  4  1  0
  4  5  2  0
  6  4  1  6
  6  7  1  0
  3  8  1  0
  6  9  1  0
  8 10  1  0
  8 11  2  0
  7 12  1  0
  9 13  2  0
  9 14  1  0
  7 15  1  0
 10 16  1  0
 12 17  2  0
 12 18  1  0
 14 19  2  0
 13 20  1  0
 15 21  2  0
 15 22  1  0
 16 23  1  0
 18 24  1  6
 19 25  1  0
 20 25  2  0
 21 26  1  0
 22 27  2  0
 18 28  1  0
 26 29  2  0
 27 29  1  0
 28 30  2  0
 28 31  1  0
 29 32  1  0
 30 33  1  0
 31 34  2  0
 31 35  1  0
 32 36  1  0
 32 37  1  0
 32 38  1  0
 33 39  2  0
 34 39  1  0
 40 35  1  6
 40 41  1  0
 40 42  1  0
 40 43  1  0
 41 44  2  0
 43 45  1  6
 41 46  2  0
 42 47  1  0
 43 48  1  0
 47 48  2  0
 41 49  1  0
 49 50  1  0
 49 51  2  0
 51 52  1  0
 50 53  1  0
 52 53  2  0
M  END
