x3110-x1077-x0978
     RDKit          3D

 51 53  0  0  0  0  0  0  0  0999 V2000
    7.9490    1.0310   23.3580 N   0  0  0  0  0  0  0  0  0  0  0  0
    8.7820    2.1900   23.7290 C   0  0  0  0  0  0  0  0  0  0  0  0
   10.3090    1.9670   23.5700 C   0  0  0  0  0  0  0  0  0  0  0  0
    7.7270    0.6650   21.9540 C   0  0  0  0  0  0  0  0  0  0  0  0
    8.4930    1.3530   20.9340 O   0  0  0  0  0  0  0  0  0  0  0  0
    6.6060   -0.4480   21.6860 C   0  0  2  0  0  0  0  0  0  0  0  0
    6.9740   -1.9600   21.9130 N   0  0  0  0  0  0  0  0  0  0  0  0
   11.0790    3.2810   23.4050 C   0  0  0  0  0  0  0  0  0  0  0  0
    6.1610    0.0980   20.3420 C   0  0  0  0  0  0  0  0  0  0  0  0
   11.8910    3.2080   22.4930 O   0  0  0  0  0  0  0  0  0  0  0  0
   10.9060    4.2800   24.0940 O   0  0  0  0  0  0  0  0  0  0  0  0
    6.0350   -3.0700   21.4970 C   0  0  0  0  0  0  0  0  0  0  0  0
    4.9670    1.0120   20.2010 C   0  0  0  0  0  0  0  0  0  0  0  0
    6.7490   -0.1060   19.0390 C   0  0  0  0  0  0  0  0  0  0  0  0
    8.3220   -2.0100   22.4380 C   0  0  0  0  0  0  0  0  0  0  0  0
   12.3020    4.4770   21.9570 C   0  0  0  0  0  0  0  0  0  0  0  0
    4.7810   -2.9790   21.2540 O   0  0  0  0  0  0  0  0  0  0  0  0
    6.4320   -4.5340   21.2900 C   0  0  1  0  0  0  0  0  0  0  0  0
    6.3490    0.4160   17.8480 N   0  0  0  0  0  0  0  0  0  0  0  0
    4.5150    1.5900   18.9020 C   0  0  0  0  0  0  0  0  0  0  0  0
    9.3590   -1.5520   21.6240 C   0  0  0  0  0  0  0  0  0  0  0  0
    8.6380   -2.4650   23.7030 C   0  0  0  0  0  0  0  0  0  0  0  0
   13.3590    5.1130   22.8560 C   0  0  0  0  0  0  0  0  0  0  0  0
    7.9860   -4.6880   21.1040 C   0  0  0  0  0  0  0  0  0  0  0  0
    5.6750   -5.5650   22.0300 N   0  0  0  0  0  0  0  0  0  0  0  0
    5.2730    1.2310   17.8110 C   0  0  0  0  0  0  0  0  0  0  0  0
   10.7990   -1.5110   22.0340 C   0  0  0  0  0  0  0  0  0  0  0  0
    9.9100   -2.4320   24.1160 C   0  0  0  0  0  0  0  0  0  0  0  0
    7.7980   -3.0320   24.8060 C   0  0  0  0  0  0  0  0  0  0  0  0
    4.5530   -5.3110   22.8310 C   0  0  0  0  0  0  0  0  0  0  0  0
   11.0850   -1.9780   23.3980 C   0  0  0  0  0  0  0  0  0  0  0  0
    8.6760   -3.8380   25.7190 N   0  0  0  0  0  0  0  0  0  0  0  0
   12.4150   -1.9960   24.0410 C   0  0  0  0  0  0  0  0  0  0  0  0
    3.5100   -6.2810   23.1100 C   0  0  2  0  0  0  0  0  0  0  0  0
    4.4420   -4.1900   23.3170 O   0  0  0  0  0  0  0  0  0  0  0  0
    9.5010   -4.9140   25.0960 C   0  0  0  0  0  0  0  0  0  0  0  0
    7.9530   -4.3030   26.8670 C   0  0  0  0  0  0  0  0  0  0  0  0
   13.3070   -1.2460   23.4740 C   0  0  0  0  0  0  0  0  0  0  0  0
   12.7390   -0.6800   24.6560 C   0  0  0  0  0  0  0  0  0  0  0  0
   12.6970   -2.9940   24.9850 C   0  0  0  0  0  0  0  0  0  0  0  0
    2.3490   -5.5400   23.1240 N   0  0  0  0  0  0  0  0  0  0  0  0
    3.6550   -7.0070   24.3170 C   0  0  1  0  0  0  0  0  0  0  0  0
    8.9690   -5.5910   24.0720 C   0  0  0  0  0  0  0  0  0  0  0  0
    7.4360   -5.6960   26.5270 C   0  0  0  0  0  0  0  0  0  0  0  0
    2.5780   -7.8500   24.6140 C   0  0  0  0  0  0  0  0  0  0  0  0
    4.5690   -7.7940   24.1680 O   0  0  0  0  0  0  0  0  0  0  0  0
    1.1600   -6.1340   22.6570 C   0  0  0  0  0  0  0  0  0  0  0  0
    6.8400   -5.6600   25.2120 O   0  0  0  0  0  0  0  0  0  0  0  0
    7.6310   -5.7200   23.9950 C   0  0  0  0  0  0  0  0  0  0  0  0
    1.1940   -7.2480   22.1340 O   0  0  0  0  0  0  0  0  0  0  0  0
   -0.1250   -5.5730   22.7040 C   0  0  0  0  0  0  0  0  0  0  0  0
  1  2  1  0
  2  3  1  0
  1  4  1  0
  4  5  2  0
  6  4  1  6
  6  7  1  0
  3  8  1  0
  6  9  1  0
  8 10  1  0
  8 11  2  0
  7 12  1  0
  9 13  2  0
  9 14  1  0
  7 15  1  0
 10 16  1  0
 12 17  2  0
 12 18  1  0
 14 19  2  0
 13 20  1  0
 15 21  2  0
 15 22  1  0
 16 23  1  0
 18 24  1  1
 18 25  1  0
 19 26  1  0
 20 26  2  0
 21 27  1  0
 22 28  2  0
 22 29  1  0
 25 30  1  0
 27 31  2  0
 28 31  1  0
 29 32  1  0
 31 33  1  0
 30 34  1  0
 30 35  2  0
 32 36  1  0
 32 37  1  0
 33 38  1  0
 33 39  1  0
 33 40  1  0
 34 41  1  1
 34 42  1  0
 36 43  1  0
 37 44  1  0
 42 45  1  6
 42 46  1  0
 41 47  1  0
 44 48  1  0
 43 49  1  0
 48 49  1  0
 47 50  2  0
 47 51  1  0
M  END
