x3113-x1493-x0978
     RDKit          3D

 48 50  0  0  0  0  0  0  0  0999 V2000
    6.8860   -1.4690   22.0060 N   0  0  0  0  0  0  0  0  0  0  0  0
    6.0710   -2.6690   21.6490 C   0  0  0  0  0  0  0  0  0  0  0  0
    4.8070   -2.9720   21.2250 O   0  0  0  0  0  0  0  0  0  0  0  0
    6.6490   -0.0900   21.8500 C   0  0  1  0  0  0  0  0  0  0  0  0
    8.2550   -1.5940   22.5560 C   0  0  0  0  0  0  0  0  0  0  0  0
    6.8740   -3.9000   21.8180 C   0  0  2  0  0  0  0  0  0  0  0  0
    7.9000    0.8710   21.9770 C   0  0  0  0  0  0  0  0  0  0  0  0
    6.1680    0.3590   20.5030 C   0  0  0  0  0  0  0  0  0  0  0  0
    9.3140   -1.8590   21.6800 C   0  0  0  0  0  0  0  0  0  0  0  0
    8.5210   -1.4410   23.8520 C   0  0  0  0  0  0  0  0  0  0  0  0
    6.8110   -4.6900   20.4800 C   0  0  0  0  0  0  0  0  0  0  0  0
    8.1550    1.2450   23.4000 N   0  0  0  0  0  0  0  0  0  0  0  0
    8.6050    1.3190   21.0430 O   0  0  0  0  0  0  0  0  0  0  0  0
    5.1140    1.1520   20.1770 C   0  0  0  0  0  0  0  0  0  0  0  0
    6.7600    0.0620   19.1040 C   0  0  0  0  0  0  0  0  0  0  0  0
   10.7580   -1.9690   22.0960 C   0  0  0  0  0  0  0  0  0  0  0  0
    9.8510   -1.5270   24.2800 C   0  0  0  0  0  0  0  0  0  0  0  0
    6.8090   -4.3940   23.2580 C   0  0  1  0  0  0  0  0  0  0  0  0
    9.0190    2.4610   23.4180 C   0  0  0  0  0  0  0  0  0  0  0  0
    6.3350    0.5110   17.7700 N   0  0  0  0  0  0  0  0  0  0  0  0
    4.6460    1.6280   18.8680 C   0  0  0  0  0  0  0  0  0  0  0  0
   10.9330   -1.7700   23.4550 C   0  0  0  0  0  0  0  0  0  0  0  0
    5.4590   -4.8550   23.7650 C   0  0  2  0  0  0  0  0  0  0  0  0
    7.7670   -5.3160   23.3330 C   0  0  0  0  0  0  0  0  0  0  0  0
   10.5320    2.1910   23.4440 C   0  0  0  0  0  0  0  0  0  0  0  0
   12.2640   -1.7540   24.2150 C   0  0  0  0  0  0  0  0  0  0  0  0
    4.5900   -3.7270   23.8960 O   0  0  0  0  0  0  0  0  0  0  0  0
    5.5780   -5.4240   25.2350 C   0  0  0  0  0  0  0  0  0  0  0  0
    5.2230    1.3370   17.7040 C   0  0  0  0  0  0  0  0  0  0  0  0
    7.2220   -6.4150   22.4910 N   0  0  0  0  0  0  0  0  0  0  0  0
    4.8810   -5.7900   22.9790 C   0  0  2  0  0  0  0  0  0  0  0  0
   11.1560    3.5870   23.2620 C   0  0  0  0  0  0  0  0  0  0  0  0
   13.3520   -2.2090   23.5800 C   0  0  0  0  0  0  0  0  0  0  0  0
   12.6960   -3.0280   24.8550 C   0  0  0  0  0  0  0  0  0  0  0  0
   12.5380   -0.5530   25.0760 C   0  0  0  0  0  0  0  0  0  0  0  0
    3.4240   -6.4270   23.2970 C   0  0  2  0  0  0  0  0  0  0  0  0
    4.4560   -5.3350   26.2430 C   0  0  0  0  0  0  0  0  0  0  0  0
    6.6020   -5.9210   25.6210 O   0  0  0  0  0  0  0  0  0  0  0  0
    5.8030   -6.7610   22.5580 C   0  0  0  0  0  0  0  0  0  0  0  0
   12.2350    3.4530   22.6980 O   0  0  0  0  0  0  0  0  0  0  0  0
    2.3400   -5.4880   23.0410 N   0  0  0  0  0  0  0  0  0  0  0  0
    3.2270   -7.2890   24.5250 C   0  0  1  0  0  0  0  0  0  0  0  0
   12.9800    4.6000   22.7000 C   0  0  0  0  0  0  0  0  0  0  0  0
    2.2890   -8.3040   24.4950 C   0  0  0  0  0  0  0  0  0  0  0  0
    4.3910   -7.9230   24.8000 O   0  0  0  0  0  0  0  0  0  0  0  0
    1.1090   -6.1020   22.6620 C   0  0  0  0  0  0  0  0  0  0  0  0
    1.0320   -7.3580   21.9950 O   0  0  0  0  0  0  0  0  0  0  0  0
   -0.0760   -5.4250   22.9620 C   0  0  0  0  0  0  0  0  0  0  0  0
  1  2  1  0
  2  3  2  0
  1  4  1  0
  1  5  1  0
  2  6  1  0
  4  7  1  6
  4  8  1  0
  5  9  2  0
  5 10  1  0
  6 11  1  6
  7 12  1  0
  7 13  2  0
  8 14  2  0
  8 15  1  0
  9 16  1  0
 10 17  2  0
  6 18  1  0
 12 19  1  0
 15 20  2  0
 14 21  1  0
 16 22  2  0
 17 22  1  0
 18 23  1  0
 18 24  1  6
 19 25  1  0
 22 26  1  0
 23 27  1  1
 23 28  1  0
 20 29  1  0
 21 29  2  0
 24 30  1  0
 23 31  1  0
 25 32  1  0
 26 33  1  0
 26 34  1  0
 26 35  1  0
 31 36  1  0
 28 37  1  0
 28 38  2  0
 30 39  1  0
 31 39  1  1
 32 40  1  0
 36 41  1  1
 36 42  1  0
 40 43  1  0
 42 44  1  6
 42 45  1  0
 41 46  1  0
 46 47  2  0
 46 48  1  0
M  END
