x3110-x0946
     RDKit          3D

 38 40  0  0  0  0  0  0  0  0999 V2000
    7.9170    1.1750   23.3300 N   0  0  0  0  0  0  0  0  0  0  0  0
    8.6260    2.4440   23.6760 C   0  0  0  0  0  0  0  0  0  0  0  0
   10.1370    2.4770   23.4000 C   0  0  0  0  0  0  0  0  0  0  0  0
    7.6870    0.7420   21.9480 C   0  0  0  0  0  0  0  0  0  0  0  0
    8.4330    1.3730   20.8850 O   0  0  0  0  0  0  0  0  0  0  0  0
    6.6010   -0.3770   21.6650 C   0  0  2  0  0  0  0  0  0  0  0  0
    7.0290   -1.7320   21.6040 N   0  0  0  0  0  0  0  0  0  0  0  0
    6.0900    0.2190   20.3730 C   0  0  0  0  0  0  0  0  0  0  0  0
   10.9690    3.6360   23.2990 C   0  0  0  0  0  0  0  0  0  0  0  0
   10.8050    1.2670   23.2090 C   0  0  0  0  0  0  0  0  0  0  0  0
   10.4210    5.0340   23.4620 C   0  0  0  0  0  0  0  0  0  0  0  0
    6.2020   -2.9530   21.4020 C   0  0  0  0  0  0  0  0  0  0  0  0
    4.9960    1.0500   20.1910 C   0  0  0  0  0  0  0  0  0  0  0  0
    6.8140   -0.0980   19.2290 C   0  0  0  0  0  0  0  0  0  0  0  0
    8.3140   -1.8750   22.2430 C   0  0  0  0  0  0  0  0  0  0  0  0
   12.1600    1.1840   22.9330 C   0  0  0  0  0  0  0  0  0  0  0  0
   12.2900    3.5400   23.0410 C   0  0  0  0  0  0  0  0  0  0  0  0
   13.2270    4.7230   22.9320 C   0  0  0  0  0  0  0  0  0  0  0  0
    4.9210   -3.0840   21.0680 O   0  0  0  0  0  0  0  0  0  0  0  0
    6.8830   -4.3030   21.6250 C   0  0  0  0  0  0  0  0  0  0  0  0
   10.4140    5.4520   24.5160 N   0  0  0  0  0  0  0  0  0  0  0  0
    9.1220    5.1850   23.0540 O   0  0  0  0  0  0  0  0  0  0  0  0
   10.9910    5.8510   22.7250 O   0  0  0  0  0  0  0  0  0  0  0  0
    6.4980    0.3750   17.9730 N   0  0  0  0  0  0  0  0  0  0  0  0
    4.6350    1.5530   18.9430 C   0  0  0  0  0  0  0  0  0  0  0  0
    9.4670   -1.3600   21.6490 C   0  0  0  0  0  0  0  0  0  0  0  0
    8.5140   -2.5000   23.4620 C   0  0  0  0  0  0  0  0  0  0  0  0
   12.8720    2.3090   22.8560 C   0  0  0  0  0  0  0  0  0  0  0  0
   13.1830    5.2810   21.5570 C   0  0  0  0  0  0  0  0  0  0  0  0
    8.2810   -4.4900   20.9840 C   0  0  0  0  0  0  0  0  0  0  0  0
    5.3440    1.2600   17.7870 C   0  0  0  0  0  0  0  0  0  0  0  0
   10.7070   -1.4750   22.2580 C   0  0  0  0  0  0  0  0  0  0  0  0
    9.7900   -2.6070   24.0680 C   0  0  0  0  0  0  0  0  0  0  0  0
   10.9340   -2.0780   23.4710 C   0  0  0  0  0  0  0  0  0  0  0  0
   12.3260   -2.1620   24.1310 C   0  0  0  0  0  0  0  0  0  0  0  0
   13.3520   -1.5990   23.3990 C   0  0  0  0  0  0  0  0  0  0  0  0
   12.8580   -0.8930   24.6890 C   0  0  0  0  0  0  0  0  0  0  0  0
   12.6080   -3.0980   25.0060 C   0  0  0  0  0  0  0  0  0  0  0  0
  1  2  1  0
  2  3  1  0
  1  4  1  0
  4  5  2  0
  6  4  1  6
  6  7  1  0
  6  8  1  0
  3  9  2  0
  3 10  1  0
  9 11  1  0
  7 12  1  0
  8 13  2  0
  8 14  1  0
  7 15  1  0
 10 16  2  0
  9 17  1  0
 17 18  1  0
 12 19  2  0
 12 20  1  0
 11 21  1  0
 11 22  1  0
 11 23  1  0
 14 24  2  0
 13 25  1  0
 15 26  2  0
 15 27  1  0
 16 28  1  0
 17 28  2  0
 18 29  1  0
 20 30  1  0
 24 31  1  0
 25 31  2  0
 26 32  1  0
 27 33  2  0
 32 34  2  0
 33 34  1  0
 34 35  1  0
 35 36  1  0
 35 37  1  0
 35 38  1  0
M  END
