x3110-x1348
     RDKit          3D

 43 46  0  0  0  0  0  0  0  0999 V2000
    8.0080    1.0400   23.2460 N   0  0  0  0  0  0  0  0  0  0  0  0
    8.7520    2.1390   23.8690 C   0  0  0  0  0  0  0  0  0  0  0  0
   10.2380    2.0990   23.5170 C   0  0  0  0  0  0  0  0  0  0  0  0
    7.8010    0.7720   21.8210 C   0  0  0  0  0  0  0  0  0  0  0  0
    8.4920    1.3420   20.9600 O   0  0  0  0  0  0  0  0  0  0  0  0
    6.7250   -0.1540   21.5440 C   0  0  2  0  0  0  0  0  0  0  0  0
    7.0880   -1.6000   21.5140 N   0  0  0  0  0  0  0  0  0  0  0  0
   11.0780    3.3520   23.3840 C   0  0  0  0  0  0  0  0  0  0  0  0
    6.1760    0.3570   20.2670 C   0  0  0  0  0  0  0  0  0  0  0  0
   11.8970    3.2510   22.4760 O   0  0  0  0  0  0  0  0  0  0  0  0
   10.9460    4.3390   24.0940 O   0  0  0  0  0  0  0  0  0  0  0  0
    6.2240   -2.8060   21.3460 C   0  0  0  0  0  0  0  0  0  0  0  0
    4.9360    1.2590   20.2370 C   0  0  0  0  0  0  0  0  0  0  0  0
    6.7550    0.0710   19.0420 C   0  0  0  0  0  0  0  0  0  0  0  0
    8.3270   -1.7350   22.2240 C   0  0  0  0  0  0  0  0  0  0  0  0
   12.2540    4.4630   21.9750 C   0  0  0  0  0  0  0  0  0  0  0  0
    4.9590   -3.0780   20.9040 O   0  0  0  0  0  0  0  0  0  0  0  0
    7.0130   -4.0050   21.8230 C   0  0  2  0  0  0  0  0  0  0  0  0
    6.3530    0.5120   17.8290 N   0  0  0  0  0  0  0  0  0  0  0  0
    4.4510    1.7610   19.0180 C   0  0  0  0  0  0  0  0  0  0  0  0
    9.5360   -1.2940   21.7000 C   0  0  0  0  0  0  0  0  0  0  0  0
    8.3610   -2.3780   23.6000 C   0  0  0  0  0  0  0  0  0  0  0  0
   13.3690    5.0540   22.8210 C   0  0  0  0  0  0  0  0  0  0  0  0
    7.0380   -4.9480   20.6590 C   0  0  0  0  0  0  0  0  0  0  0  0
    5.1780    1.3910   17.7550 C   0  0  0  0  0  0  0  0  0  0  0  0
   10.7260   -1.4180   22.3720 C   0  0  0  0  0  0  0  0  0  0  0  0
    9.6720   -2.5320   24.3560 C   0  0  0  0  0  0  0  0  0  0  0  0
    6.3630   -4.2820   23.1490 N   0  0  0  0  0  0  0  0  0  0  0  0
   10.8660   -2.0450   23.7580 C   0  0  0  0  0  0  0  0  0  0  0  0
    6.2280   -5.6210   23.8290 C   0  0  1  0  0  0  0  0  0  0  0  0
    5.0930   -3.5900   23.1260 C   0  0  0  0  0  0  0  0  0  0  0  0
   12.2360   -2.0920   24.4050 C   0  0  0  0  0  0  0  0  0  0  0  0
    6.5910   -5.4810   25.3760 C   0  0  1  0  0  0  0  0  0  0  0  0
    4.9790   -6.2730   23.4760 C   0  0  2  0  0  0  0  0  0  0  0  0
    3.8960   -4.8670   23.2100 S   0  0  0  0  0  0  0  0  0  0  0  0
   12.7160   -0.6480   24.7570 C   0  0  0  0  0  0  0  0  0  0  0  0
   13.3170   -1.6660   23.4810 C   0  0  0  0  0  0  0  0  0  0  0  0
   12.7130   -3.1040   25.1850 C   0  0  0  0  0  0  0  0  0  0  0  0
    7.1080   -4.3390   25.9530 O   0  0  0  0  0  0  0  0  0  0  0  0
    4.3340   -7.1700   24.5130 C   0  0  0  0  0  0  0  0  0  0  0  0
    5.6490   -5.8940   26.3630 C   0  0  0  0  0  0  0  0  0  0  0  0
    7.9070   -4.5750   27.1290 C   0  0  0  0  0  0  0  0  0  0  0  0
    4.6530   -6.9690   25.9610 C   0  0  0  0  0  0  0  0  0  0  0  0
  1  2  1  0
  2  3  1  0
  1  4  1  0
  4  5  2  0
  6  4  1  6
  6  7  1  0
  3  8  1  0
  6  9  1  0
  8 10  1  0
  8 11  2  0
  7 12  1  0
  9 13  2  0
  9 14  1  0
  7 15  1  0
 10 16  1  0
 12 17  2  0
 12 18  1  0
 14 19  2  0
 13 20  1  0
 15 21  2  0
 15 22  1  0
 16 23  1  0
 18 24  1  6
 19 25  1  0
 20 25  2  0
 21 26  1  0
 22 27  2  0
 18 28  1  0
 26 29  2  0
 27 29  1  0
 30 28  1  1
 28 31  1  0
 29 32  1  0
 30 33  1  0
 30 34  1  0
 31 35  2  0
 34 35  1  0
 32 36  1  0
 32 37  1  0
 32 38  1  0
 33 39  1  1
 34 40  1  1
 33 41  1  0
 39 42  1  0
 40 43  2  0
 41 43  1  0
M  END
