x3115-x1311-x1119-x0786-x3110-x0691-x2776-x0426-x0731-x2705-x2694-x0387
     RDKit          3D

115126  0  0  0  0  0  0  0  0999 V2000
    7.8110    1.9590   22.8160 N   0  0  0  0  0  0  0  0  0  0  0  0
    7.6590    1.1190   21.6270 C   0  0  0  0  0  0  0  0  0  0  0  0
    8.4390    1.3160   20.7120 O   0  0  0  0  0  0  0  0  0  0  0  0
    8.4430    3.3520   22.9740 C   0  0  0  0  0  0  0  0  0  0  0  0
    6.4940    0.0220   21.5000 C   0  0  2  0  0  0  0  0  0  0  0  0
    9.7580    3.6150   23.4060 C   0  0  0  0  0  0  0  0  0  0  0  0
    7.6860    4.6440   22.6840 C   0  0  0  0  0  0  0  0  0  0  0  0
    6.8520   -1.3400   21.4060 N   0  0  0  0  0  0  0  0  0  0  0  0
   10.8470    2.6740   23.7390 C   0  0  2  0  0  0  0  0  0  0  0  0
    5.9770    0.4950   20.1730 C   0  0  0  0  0  0  0  0  0  0  0  0
   10.2220    4.8810   23.5830 C   0  0  0  0  0  0  0  0  0  0  0  0
    8.2810    5.9240   22.8750 C   0  0  0  0  0  0  0  0  0  0  0  0
   11.6930    2.8910   22.8330 O   0  0  0  0  0  0  0  0  0  0  0  0
   10.1570    1.3590   24.0330 C   0  0  0  0  0  0  0  0  0  0  0  0
    6.0610   -2.5890   21.2370 C   0  0  0  0  0  0  0  0  0  0  0  0
    7.5090    7.1550   22.5580 C   0  0  0  0  0  0  0  0  0  0  0  0
    4.7510    1.1370   19.9970 C   0  0  0  0  0  0  0  0  0  0  0  0
    6.7210    0.3230   19.0050 C   0  0  0  0  0  0  0  0  0  0  0  0
    8.0480   -1.3610   22.1510 C   0  0  0  0  0  0  0  0  0  0  0  0
    9.5840    6.0360   23.3600 C   0  0  0  0  0  0  0  0  0  0  0  0
   12.3410    4.2000   22.6960 C   0  0  0  0  0  0  0  0  0  0  0  0
    4.8150   -2.8920   20.8420 O   0  0  0  0  0  0  0  0  0  0  0  0
    6.7300   -3.8690   21.6240 C   0  0  1  0  0  0  0  0  0  0  0  0
   10.2090    7.2390   23.6000 O   0  0  0  0  0  0  0  0  0  0  0  0
    9.0940    1.5420   25.1330 C   0  0  0  0  0  0  0  0  0  0  0  0
    3.7380    1.4160   21.0900 C   0  0  0  0  0  0  0  0  0  0  0  0
    6.3830    0.7270   17.7790 N   0  0  0  0  0  0  0  0  0  0  0  0
    4.3850    1.5600   18.7860 C   0  0  0  0  0  0  0  0  0  0  0  0
    9.1450   -1.8800   21.5200 C   0  0  0  0  0  0  0  0  0  0  0  0
    8.1800   -0.9100   23.4640 C   0  0  0  0  0  0  0  0  0  0  0  0
   13.7540    4.0760   22.1650 C   0  0  0  0  0  0  0  0  0  0  0  0
    6.7940   -4.7600   20.3670 C   0  0  0  0  0  0  0  0  0  0  0  0
   11.3670    7.1340   24.4530 C   0  0  0  0  0  0  0  0  0  0  0  0
    4.1710    2.2200   22.1400 C   0  0  0  0  0  0  0  0  0  0  0  0
    5.2130    1.3540   17.7040 C   0  0  0  0  0  0  0  0  0  0  0  0
   10.3500   -1.9630   22.1720 C   0  0  0  0  0  0  0  0  0  0  0  0
    9.3850   -0.9970   24.1090 C   0  0  0  0  0  0  0  0  0  0  0  0
    7.9370   -4.2930   22.5550 C   0  0  2  0  0  0  0  0  0  0  0  0
    5.7140   -4.1160   22.7780 C   0  0  0  0  0  0  0  0  0  0  0  0
    3.1650    3.0250   22.8810 N   0  0  0  0  0  0  0  0  0  0  0  0
   14.8150    4.8830   22.8950 C   0  0  0  0  0  0  0  0  0  0  0  0
   10.4930   -1.5330   23.4670 C   0  0  0  0  0  0  0  0  0  0  0  0
    8.0390   -5.6970   23.1230 C   0  0  0  0  0  0  0  0  0  0  0  0
    8.0540   -3.4380   23.5230 C   0  0  0  0  0  0  0  0  0  0  0  0
    4.8870   -5.1700   22.8240 C   0  0  0  0  0  0  0  0  0  0  0  0
    5.5770   -3.1950   23.8820 C   0  0  0  0  0  0  0  0  0  0  0  0
    2.3740    2.2990   23.9550 C   0  0  0  0  0  0  0  0  0  0  0  0
   16.1950    4.3680   22.4680 C   0  0  0  0  0  0  0  0  0  0  0  0
    8.9130   -5.7550   24.1940 C   0  0  0  0  0  0  0  0  0  0  0  0
    4.6050   -6.2370   22.0050 C   0  0  0  0  0  0  0  0  0  0  0  0
    4.0340   -5.2930   23.9380 C   0  0  0  0  0  0  0  0  0  0  0  0
    4.7270   -3.3070   24.9730 C   0  0  0  0  0  0  0  0  0  0  0  0
    2.6330    1.1660   24.2590 O   0  0  0  0  0  0  0  0  0  0  0  0
   17.2210    4.8800   23.4190 C   0  0  0  0  0  0  0  0  0  0  0  0
    1.2720    3.0000   24.6790 C   0  0  0  0  0  0  0  0  0  0  0  0
    8.2530   -5.6570   25.4270 C   0  0  0  0  0  0  0  0  0  0  0  0
    3.1120   -6.6020   23.8270 S   0  0  0  0  0  0  0  0  0  0  0  0
    3.5840   -6.9930   22.4240 C   0  0  0  0  0  0  0  0  0  0  0  0
    3.8820   -4.4270   25.0900 C   0  0  0  0  0  0  0  0  0  0  0  0
    2.4630   -6.4770   25.2100 N   0  0  0  0  0  0  0  0  0  0  0  0
    2.6900   -5.1590   26.1750 S   0  0  1  0  0  0  0  0  0  0  0  0
   18.5620    5.0010   23.0460 C   0  0  0  0  0  0  0  0  0  0  0  0
    1.5460    4.2990   25.4250 C   0  0  0  0  0  0  0  0  0  0  0  0
   -0.0400    2.4910   24.7050 C   0  0  0  0  0  0  0  0  0  0  0  0
    8.1940   -4.4540   26.4000 C   0  0  1  0  0  0  0  0  0  0  0  0
    1.9680   -7.7020   24.2770 N   0  0  0  0  0  0  0  0  0  0  0  0
    2.7700    4.8460   25.4520 F   0  0  0  0  0  0  0  0  0  0  0  0
    2.0550   -4.9850   27.4370 O   0  0  0  0  0  0  0  0  0  0  0  0
   19.2540    6.3140   22.9670 C   0  0  0  0  0  0  0  0  0  0  0  0
   -1.0550    3.1620   25.3930 C   0  0  0  0  0  0  0  0  0  0  0  0
    0.4930    4.9150   26.0890 C   0  0  0  0  0  0  0  0  0  0  0  0
    0.8820   -7.4690   23.2790 C   0  0  0  0  0  0  0  0  0  0  0  0
    1.2870   -7.9660   25.5350 C   0  0  0  0  0  0  0  0  0  0  0  0
    3.2330   -3.6400   26.5770 C   0  0  0  0  0  0  0  0  0  0  0  0
    9.3750   -4.6160   27.2940 C   0  0  1  0  0  0  0  0  0  0  0  0
    8.3490   -3.0440   25.8470 C   0  0  0  0  0  0  0  0  0  0  0  0
   20.5750    6.6500   22.8720 N   0  0  0  0  0  0  0  0  0  0  0  0
    9.2010   -5.7320   28.1310 O   0  0  0  0  0  0  0  0  0  0  0  0
   -0.7910    4.3570   26.0750 C   0  0  0  0  0  0  0  0  0  0  0  0
    0.3550   -6.1810   23.3030 C   0  0  0  0  0  0  0  0  0  0  0  0
   -0.0430   -7.4790   25.6540 C   0  0  0  0  0  0  0  0  0  0  0  0
    4.2380   -2.7360   27.1050 C   0  0  0  0  0  0  0  0  0  0  0  0
    1.9960   -3.2070   26.1060 C   0  0  0  0  0  0  0  0  0  0  0  0
    9.7610   -2.6410   25.6370 N   0  0  0  0  0  0  0  0  0  0  0  0
   10.5810   -4.7770   26.3950 C   0  0  0  0  0  0  0  0  0  0  0  0
   -0.3550   -5.8310   24.9200 S   0  0  0  0  0  0  0  0  0  0  0  0
    3.7630   -1.3950   27.0520 C   0  0  0  0  0  0  0  0  0  0  0  0
    1.6110   -1.9470   26.0930 C   0  0  0  0  0  0  0  0  0  0  0  0
   21.5760    5.8330   23.2970 C   0  0  0  0  0  0  0  0  0  0  0  0
   10.6870   -3.7010   25.3440 C   0  0  2  0  0  0  0  0  0  0  0  0
   12.1740   -3.4140   25.1020 C   0  0  0  0  0  0  0  0  0  0  0  0
    4.5460   -0.4150   27.4770 F   0  0  0  0  0  0  0  0  0  0  0  0
    2.4760   -1.0220   26.5620 C   0  0  0  0  0  0  0  0  0  0  0  0
   22.9180    5.8330   22.9690 C   0  0  0  0  0  0  0  0  0  0  0  0
   21.1260    4.8890   24.1720 C   0  0  0  0  0  0  0  0  0  0  0  0
   12.9700   -2.2730   25.4870 C   0  0  2  0  0  0  0  0  0  0  0  0
    1.9920    0.3790   26.5280 C   0  0  0  0  0  0  0  0  0  0  0  0
   23.7900    4.8760   23.5360 C   0  0  0  0  0  0  0  0  0  0  0  0
   21.9580    3.9720   24.6950 C   0  0  0  0  0  0  0  0  0  0  0  0
   12.4910   -0.9890   25.1890 C   0  0  0  0  0  0  0  0  0  0  0  0
   13.5860   -1.7300   24.3140 C   0  0  0  0  0  0  0  0  0  0  0  0
   23.2480    3.9610   24.4050 C   0  0  0  0  0  0  0  0  0  0  0  0
   24.0580    2.6570   25.2590 S   0  0  0  0  0  0  0  0  0  0  0  0
   13.0620   -2.1190   22.6530 S   0  0  0  0  0  0  0  0  0  0  0  0
   23.0380    1.6280   25.3960 O   0  0  0  0  0  0  0  0  0  0  0  0
   24.2770    3.2120   26.8340 N   0  0  0  0  0  0  0  0  0  0  0  0
   25.3180    2.3850   24.6220 O   0  0  0  0  0  0  0  0  0  0  0  0
   13.3080   -0.4340   22.1760 C   0  0  0  0  0  0  0  0  0  0  0  0
   25.0740    4.3320   27.1050 C   0  0  0  0  0  0  0  0  0  0  0  0
   12.3360    0.5350   22.6240 C   0  0  0  0  0  0  0  0  0  0  0  0
   25.1160    4.5990   28.4310 N   0  0  0  0  0  0  0  0  0  0  0  0
   25.7300    5.0640   26.1470 C   0  0  0  0  0  0  0  0  0  0  0  0
   25.8590    5.6640   28.8080 C   0  0  0  0  0  0  0  0  0  0  0  0
   26.4900    6.1550   26.5620 C   0  0  0  0  0  0  0  0  0  0  0  0
   26.5580    6.4630   27.9190 C   0  0  0  0  0  0  0  0  0  0  0  0
  1  2  1  0
  2  3  2  0
  1  4  1  0
  5  2  1  6
  4  6  1  0
  4  7  2  0
  5  8  1  0
  6  9  1  0
  5 10  1  0
  6 11  2  0
  7 12  1  0
  9 13  1  0
  9 14  1  6
  8 15  1  0
 12 16  1  0
 10 17  1  0
 10 18  2  0
  8 19  1  0
 11 20  1  0
 12 20  2  0
 13 21  1  0
 15 22  2  0
 23 15  1  0
 20 24  1  0
 14 25  1  0
 17 26  1  0
 18 27  1  0
 17 28  2  0
 19 29  2  0
 19 30  1  0
 21 31  1  0
 23 32  1  6
 24 33  1  0
 26 34  1  0
 27 35  2  0
 28 35  1  0
 29 36  1  0
 30 37  2  0
 23 38  1  0
 23 39  1  0
 34 40  1  0
 31 41  1  0
 36 42  2  0
 37 42  1  0
 38 43  1  0
 38 44  1  1
 39 45  1  0
 39 46  2  0
 40 47  1  0
 41 48  1  0
 43 49  1  0
 45 50  1  0
 45 51  2  0
 46 52  1  0
 47 53  2  0
 48 54  1  0
 47 55  1  0
 49 56  1  0
 51 57  1  0
 50 58  2  0
 57 58  1  0
 51 59  1  0
 52 59  2  0
 57 60  1  0
 59 61  1  0
 60 61  2  0
 54 62  1  0
 55 63  2  0
 55 64  1  0
 65 56  1  6
 57 66  1  0
 63 67  1  0
 61 68  2  0
 62 69  1  0
 64 70  2  0
 63 71  1  0
 66 72  1  0
 66 73  1  0
 61 74  1  6
 65 75  1  0
 65 76  1  0
 69 77  1  0
 75 78  1  6
 70 79  1  0
 71 79  2  0
 72 80  1  0
 73 81  1  0
 74 82  2  0
 74 83  1  0
 76 84  1  0
 75 85  1  0
 80 86  1  0
 81 86  1  0
 82 87  1  0
 83 88  2  0
 77 89  1  0
 84 90  1  0
 85 90  1  0
 90 91  1  1
 87 92  1  0
 87 93  2  0
 88 93  1  0
 89 94  2  0
 89 95  1  0
 91 96  1  0
 93 97  1  0
 94 98  1  0
 95 99  2  0
 96100  1  6
 96101  1  0
 98102  2  0
 99102  1  0
102103  1  0
101104  1  0
103105  2  0
103106  1  0
103107  2  0
104108  1  0
106109  1  0
108110  1  0
109111  2  0
109112  1  0
111113  1  0
112114  2  0
113115  2  0
114115  1  0
M  END
