x3110-x0107-x1311
     RDKit          3D

 47 51  0  0  0  0  0  0  0  0999 V2000
    7.9150    1.0410   23.1880 N   0  0  0  0  0  0  0  0  0  0  0  0
    8.6120    2.3100   23.5280 C   0  0  0  0  0  0  0  0  0  0  0  0
   10.0310    2.3090   22.9590 C   0  0  0  0  0  0  0  0  0  0  0  0
    7.6560    0.7510   21.8920 C   0  0  2  0  0  0  0  0  0  0  0  0
    7.7240    1.7450   21.1320 O   0  0  0  0  0  0  0  0  0  0  0  0
    6.6110   -0.2590   21.7050 C   0  0  2  0  0  0  0  0  0  0  0  0
    8.8760    0.0430   21.3530 C   0  0  0  0  0  0  0  0  0  0  0  0
    6.9140   -1.7680   21.9150 N   0  0  0  0  0  0  0  0  0  0  0  0
   10.9920    3.3720   23.4970 C   0  0  0  0  0  0  0  0  0  0  0  0
    6.1090    0.1690   20.3400 C   0  0  0  0  0  0  0  0  0  0  0  0
    9.2530   -1.0430   22.2270 C   0  0  0  0  0  0  0  0  0  0  0  0
   12.0060    3.3720   22.8100 O   0  0  0  0  0  0  0  0  0  0  0  0
   10.7430    4.2140   24.6170 O   0  0  0  0  0  0  0  0  0  0  0  0
    6.1520   -3.0160   21.4190 C   0  0  0  0  0  0  0  0  0  0  0  0
    4.9590    1.1480   20.2420 C   0  0  0  0  0  0  0  0  0  0  0  0
    6.7160   -0.3010   19.2000 C   0  0  0  0  0  0  0  0  0  0  0  0
   10.6370   -1.0940   22.7300 C   0  0  0  0  0  0  0  0  0  0  0  0
    8.2230   -1.9880   22.5380 C   0  0  0  0  0  0  0  0  0  0  0  0
   12.2210    4.5590   22.0390 C   0  0  0  0  0  0  0  0  0  0  0  0
    4.9010   -3.0430   21.0560 O   0  0  0  0  0  0  0  0  0  0  0  0
    6.7970   -4.4420   21.3860 C   0  0  1  0  0  0  0  0  0  0  0  0
    6.2640    0.1590   17.8860 N   0  0  0  0  0  0  0  0  0  0  0  0
    4.4450    1.6570   18.8810 C   0  0  0  0  0  0  0  0  0  0  0  0
   11.0300   -2.0770   23.5590 C   0  0  0  0  0  0  0  0  0  0  0  0
    8.6660   -2.9660   23.3910 C   0  0  0  0  0  0  0  0  0  0  0  0
   13.4510    5.3090   22.5530 C   0  0  0  0  0  0  0  0  0  0  0  0
    7.5060   -3.5260   20.3050 C   0  0  0  0  0  0  0  0  0  0  0  0
   12.4440   -2.0580   24.0330 C   0  0  0  0  0  0  0  0  0  0  0  0
    5.1580    1.1140   17.8100 C   0  0  0  0  0  0  0  0  0  0  0  0
    9.9730   -3.0900   23.9120 C   0  0  0  0  0  0  0  0  0  0  0  0
    7.4220   -4.8660   22.7740 C   0  0  0  0  0  0  0  0  0  0  0  0
   13.0050   -0.6410   24.1170 C   0  0  0  0  0  0  0  0  0  0  0  0
   13.4490   -1.8090   22.9890 C   0  0  0  0  0  0  0  0  0  0  0  0
   12.9460   -3.0330   25.0880 C   0  0  0  0  0  0  0  0  0  0  0  0
    8.6200   -5.5300   22.7020 C   0  0  0  0  0  0  0  0  0  0  0  0
    6.8590   -4.6390   24.2190 C   0  0  0  0  0  0  0  0  0  0  0  0
    9.2870   -5.9410   23.8560 C   0  0  0  0  0  0  0  0  0  0  0  0
    7.5940   -5.0800   25.3220 C   0  0  0  0  0  0  0  0  0  0  0  0
    5.5290   -3.9650   24.5500 C   0  0  0  0  0  0  0  0  0  0  0  0
    8.7950   -5.7170   25.1070 C   0  0  0  0  0  0  0  0  0  0  0  0
    4.2710   -4.6390   23.9910 C   0  0  1  0  0  0  0  0  0  0  0  0
    4.7010   -5.1060   22.7700 C   0  0  0  0  0  0  0  0  0  0  0  0
    3.6200   -6.1340   24.7570 S   0  0  0  0  0  0  0  0  0  0  0  0
    4.4900   -6.5240   25.8420 O   0  0  0  0  0  0  0  0  0  0  0  0
    2.2060   -5.9620   24.9920 O   0  0  0  0  0  0  0  0  0  0  0  0
    4.4210   -6.5420   22.5450 C   0  0  0  0  0  0  0  0  0  0  0  0
    3.8350   -7.1850   23.5170 C   0  0  0  0  0  0  0  0  0  0  0  0
  1  2  1  0
  2  3  1  0
  1  4  1  0
  4  5  1  6
  4  6  1  0
  4  7  1  0
  6  8  1  0
  3  9  1  0
  6 10  1  6
  7 11  1  0
  9 12  1  0
  9 13  2  0
  8 14  1  0
 10 15  2  0
 10 16  1  0
 11 17  2  0
  8 18  1  0
 11 18  1  0
 12 19  1  0
 14 20  2  0
 14 21  1  0
 16 22  2  0
 15 23  1  0
 17 24  1  0
 18 25  2  0
 19 26  1  0
 21 27  1  6
 24 28  1  0
 22 29  1  0
 23 29  2  0
 24 30  2  0
 25 30  1  0
 21 31  1  0
 28 32  1  0
 28 33  1  0
 28 34  1  0
 31 35  2  0
 31 36  1  0
 35 37  1  0
 36 38  2  0
 36 39  1  0
 37 40  2  0
 38 40  1  0
 41 39  1  1
 41 42  1  0
 41 43  1  0
 43 44  1  0
 43 45  1  0
 42 46  1  0
 43 47  1  0
 46 47  2  0
M  END
