x3115-x2705
     RDKit          3D

 34 37  0  0  0  0  0  0  0  0999 V2000
    6.9400   -1.6610   21.8420 N   0  0  0  0  0  0  0  0  0  0  0  0
    6.0820   -2.8530   21.5900 C   0  0  0  0  0  0  0  0  0  0  0  0
    4.8270   -3.0270   21.2420 O   0  0  0  0  0  0  0  0  0  0  0  0
    6.5750   -0.2990   21.7150 C   0  0  1  0  0  0  0  0  0  0  0  0
    8.2120   -1.7940   22.5360 C   0  0  0  0  0  0  0  0  0  0  0  0
    6.7960   -4.1670   21.7590 C   0  0  0  0  0  0  0  0  0  0  0  0
    7.7090    0.7090   21.9970 C   0  0  0  0  0  0  0  0  0  0  0  0
    6.0750    0.1600   20.3980 C   0  0  0  0  0  0  0  0  0  0  0  0
    9.3910   -1.5850   21.8090 C   0  0  0  0  0  0  0  0  0  0  0  0
    8.3660   -2.1020   23.8860 C   0  0  0  0  0  0  0  0  0  0  0  0
    6.7270   -4.8880   20.4380 C   0  0  0  0  0  0  0  0  0  0  0  0
    7.7400    1.5710   23.2170 N   0  0  0  0  0  0  0  0  0  0  0  0
    8.5950    0.8350   21.1670 O   0  0  0  0  0  0  0  0  0  0  0  0
    4.9040    0.9590   20.3050 C   0  0  0  0  0  0  0  0  0  0  0  0
    6.7970   -0.1650   19.0640 C   0  0  0  0  0  0  0  0  0  0  0  0
   10.8460   -1.6800   22.4740 C   0  0  0  0  0  0  0  0  0  0  0  0
    9.6460   -2.1830   24.4890 C   0  0  0  0  0  0  0  0  0  0  0  0
   12.2760   -1.5140   22.0060 C   0  0  0  0  0  0  0  0  0  0  0  0
    6.3040    0.3360   17.7930 N   0  0  0  0  0  0  0  0  0  0  0  0
    4.4540    1.4200   19.0760 C   0  0  0  0  0  0  0  0  0  0  0  0
   10.9860   -1.9550   23.7560 C   0  0  0  0  0  0  0  0  0  0  0  0
    8.2860    2.8900   23.1550 C   0  0  0  0  0  0  0  0  0  0  0  0
    7.7590    1.0440   24.5270 C   0  0  0  0  0  0  0  0  0  0  0  0
   12.3450   -1.9940   24.3390 C   0  0  0  0  0  0  0  0  0  0  0  0
   13.1600   -2.0520   23.1920 C   0  0  0  0  0  0  0  0  0  0  0  0
    5.1850    1.0850   17.8830 C   0  0  0  0  0  0  0  0  0  0  0  0
    9.5750    3.2320   23.6180 C   0  0  0  0  0  0  0  0  0  0  0  0
    7.5070    4.0580   22.5830 C   0  0  0  0  0  0  0  0  0  0  0  0
    9.1890    0.8270   25.0530 C   0  0  0  0  0  0  0  0  0  0  0  0
   12.7320   -3.1370   25.2760 C   0  0  0  0  0  0  0  0  0  0  0  0
   12.5830   -0.6730   25.0600 C   0  0  0  0  0  0  0  0  0  0  0  0
   10.1260    4.6840   23.5460 C   0  0  0  0  0  0  0  0  0  0  0  0
    8.0450    5.4700   22.5120 C   0  0  0  0  0  0  0  0  0  0  0  0
    9.4430    5.7830   23.0330 C   0  0  0  0  0  0  0  0  0  0  0  0
  1  2  1  0
  2  3  2  0
  1  4  1  0
  1  5  1  0
  2  6  1  0
  4  7  1  6
  4  8  1  0
  5  9  2  0
  5 10  1  0
  6 11  1  0
  7 12  1  0
  7 13  2  0
  8 14  2  0
  8 15  1  0
  9 16  1  0
 10 17  2  0
 16 18  1  0
 15 19  2  0
 14 20  1  0
 16 21  2  0
 17 21  1  0
 12 22  1  0
 12 23  1  0
 21 24  1  0
 18 25  1  0
 24 25  1  0
 19 26  1  0
 20 26  2  0
 22 27  2  0
 22 28  1  0
 23 29  1  0
 24 30  1  0
 24 31  1  0
 27 32  1  0
 28 33  2  0
 32 34  2  0
 33 34  1  0
M  END
