x3110-x1348-x0426
     RDKit          3D

 55 59  0  0  0  0  0  0  0  0999 V2000
    8.0420    0.9600   23.2810 N   0  0  0  0  0  0  0  0  0  0  0  0
    8.8300    2.1680   23.6680 C   0  0  0  0  0  0  0  0  0  0  0  0
   10.3660    1.9640   23.5560 C   0  0  0  0  0  0  0  0  0  0  0  0
    7.8250    0.6580   21.8710 C   0  0  0  0  0  0  0  0  0  0  0  0
    8.5070    1.2410   21.0030 O   0  0  0  0  0  0  0  0  0  0  0  0
    6.6690   -0.3610   21.5240 C   0  0  2  0  0  0  0  0  0  0  0  0
    7.0730   -1.6770   21.4650 N   0  0  0  0  0  0  0  0  0  0  0  0
   11.1040    3.1790   23.4130 C   0  0  0  0  0  0  0  0  0  0  0  0
    6.0170    0.2420   20.3020 C   0  0  0  0  0  0  0  0  0  0  0  0
   12.0250    3.1770   22.6040 O   0  0  0  0  0  0  0  0  0  0  0  0
   10.7080    4.0980   24.1390 O   0  0  0  0  0  0  0  0  0  0  0  0
    6.2430   -2.9030   21.2560 C   0  0  0  0  0  0  0  0  0  0  0  0
    4.7870    0.9130   20.2310 C   0  0  0  0  0  0  0  0  0  0  0  0
    6.8200    0.1070   19.0610 C   0  0  0  0  0  0  0  0  0  0  0  0
    8.2820   -1.7920   22.2480 C   0  0  0  0  0  0  0  0  0  0  0  0
   12.2370    4.4460   21.9620 C   0  0  0  0  0  0  0  0  0  0  0  0
    4.9640   -3.0950   20.8740 O   0  0  0  0  0  0  0  0  0  0  0  0
    6.9290   -4.2610   21.5960 C   0  0  1  0  0  0  0  0  0  0  0  0
    3.8900    1.1220   21.2790 C   0  0  0  0  0  0  0  0  0  0  0  0
    6.4990    0.6170   17.7350 N   0  0  0  0  0  0  0  0  0  0  0  0
    4.3780    1.4820   18.8910 C   0  0  0  0  0  0  0  0  0  0  0  0
    9.5280   -1.4020   21.6590 C   0  0  0  0  0  0  0  0  0  0  0  0
    8.3260   -2.2400   23.5070 C   0  0  0  0  0  0  0  0  0  0  0  0
   13.5520    5.1190   22.5280 C   0  0  0  0  0  0  0  0  0  0  0  0
    8.3700   -4.5100   21.1040 C   0  0  0  0  0  0  0  0  0  0  0  0
    4.3000    1.8130   22.4120 C   0  0  0  0  0  0  0  0  0  0  0  0
    5.2300    1.3420   17.6640 C   0  0  0  0  0  0  0  0  0  0  0  0
   11.0160   -1.3870   22.1630 C   0  0  0  0  0  0  0  0  0  0  0  0
    9.6180   -2.3120   24.1790 C   0  0  0  0  0  0  0  0  0  0  0  0
    6.7160   -4.3520   23.0760 N   0  0  0  0  0  0  0  0  0  0  0  0
    3.3420    2.5370   23.2250 N   0  0  0  0  0  0  0  0  0  0  0  0
   10.8070   -1.9300   23.5760 C   0  0  0  0  0  0  0  0  0  0  0  0
    6.5750   -5.6640   23.8600 C   0  0  1  0  0  0  0  0  0  0  0  0
    5.4500   -3.6910   23.1260 C   0  0  0  0  0  0  0  0  0  0  0  0
   12.0240   -2.0910   24.4740 C   0  0  0  0  0  0  0  0  0  0  0  0
    2.3200    1.8040   23.8070 C   0  0  0  0  0  0  0  0  0  0  0  0
    6.7190   -5.6000   25.3080 C   0  0  1  0  0  0  0  0  0  0  0  0
    5.3990   -6.3610   23.3970 C   0  0  2  0  0  0  0  0  0  0  0  0
    4.3190   -4.9800   23.1920 S   0  0  0  0  0  0  0  0  0  0  0  0
   12.7370   -0.9010   24.8910 C   0  0  0  0  0  0  0  0  0  0  0  0
   13.3620   -2.0040   23.7890 C   0  0  0  0  0  0  0  0  0  0  0  0
   11.8850   -3.3500   25.3070 C   0  0  0  0  0  0  0  0  0  0  0  0
    2.2510    0.5720   23.7490 O   0  0  0  0  0  0  0  0  0  0  0  0
    7.2610   -4.3540   25.7590 O   0  0  0  0  0  0  0  0  0  0  0  0
    1.2600    2.5820   24.5400 C   0  0  0  0  0  0  0  0  0  0  0  0
    4.6380   -7.0570   24.2940 C   0  0  0  0  0  0  0  0  0  0  0  0
    5.6110   -5.9060   26.1480 C   0  0  0  0  0  0  0  0  0  0  0  0
    7.9120   -4.4650   27.0200 C   0  0  0  0  0  0  0  0  0  0  0  0
    1.5090    3.7400   25.1900 C   0  0  0  0  0  0  0  0  0  0  0  0
   -0.1800    2.0210   24.5410 C   0  0  0  0  0  0  0  0  0  0  0  0
    4.7160   -6.8460   25.6430 C   0  0  0  0  0  0  0  0  0  0  0  0
    2.7510    4.2460   25.2020 F   0  0  0  0  0  0  0  0  0  0  0  0
   -1.2110    2.8500   25.2970 C   0  0  0  0  0  0  0  0  0  0  0  0
    0.5240    4.4800   25.8790 C   0  0  0  0  0  0  0  0  0  0  0  0
   -0.8720    4.0120   25.9260 C   0  0  0  0  0  0  0  0  0  0  0  0
  1  2  1  0
  2  3  1  0
  1  4  1  0
  4  5  2  0
  6  4  1  6
  6  7  1  0
  3  8  1  0
  6  9  1  0
  8 10  1  0
  8 11  2  0
  7 12  1  0
  9 13  1  0
  9 14  2  0
  7 15  1  0
 10 16  1  0
 12 17  2  0
 12 18  1  0
 13 19  1  0
 14 20  1  0
 13 21  2  0
 15 22  2  0
 15 23  1  0
 16 24  1  0
 18 25  1  1
 19 26  1  0
 20 27  2  0
 21 27  1  0
 22 28  1  0
 23 29  2  0
 18 30  1  0
 26 31  1  0
 28 32  2  0
 29 32  1  0
 33 30  1  1
 30 34  1  0
 32 35  1  0
 31 36  1  0
 33 37  1  0
 33 38  1  0
 34 39  2  0
 38 39  1  0
 35 40  1  0
 35 41  1  0
 35 42  1  0
 36 43  2  0
 37 44  1  6
 36 45  1  0
 38 46  1  1
 37 47  1  0
 44 48  1  0
 45 49  2  0
 45 50  1  0
 46 51  2  0
 47 51  1  0
 49 52  1  0
 50 53  2  0
 49 54  1  0
 53 55  1  0
 54 55  2  0
M  END
