x3110-x2193-x0426
     RDKit          3D

 51 54  0  0  0  0  0  0  0  0999 V2000
    8.1190    1.0740   23.3040 N   0  0  0  0  0  0  0  0  0  0  0  0
    8.9790    2.1170   23.7030 C   0  0  0  0  0  0  0  0  0  0  0  0
   10.3480    2.0100   23.5600 C   0  0  0  0  0  0  0  0  0  0  0  0
    7.8970    0.7760   21.8740 C   0  0  0  0  0  0  0  0  0  0  0  0
    8.6320    1.3400   21.0430 O   0  0  0  0  0  0  0  0  0  0  0  0
    6.8230   -0.0860   21.5300 C   0  0  2  0  0  0  0  0  0  0  0  0
    7.1080   -1.5550   21.6660 N   0  0  0  0  0  0  0  0  0  0  0  0
   11.0260    3.2320   23.4890 C   0  0  0  0  0  0  0  0  0  0  0  0
    6.1740    0.3850   20.2380 C   0  0  0  0  0  0  0  0  0  0  0  0
   11.8790    3.1690   22.6060 O   0  0  0  0  0  0  0  0  0  0  0  0
   10.8140    4.2290   24.1980 O   0  0  0  0  0  0  0  0  0  0  0  0
    5.9160   -2.4160   21.4730 C   0  0  0  0  0  0  0  0  0  0  0  0
    4.9460    1.0170   20.1000 C   0  0  0  0  0  0  0  0  0  0  0  0
    6.8210    0.2030   19.1600 C   0  0  0  0  0  0  0  0  0  0  0  0
    8.3620   -1.7260   22.4450 C   0  0  0  0  0  0  0  0  0  0  0  0
   12.2860    4.4170   22.0290 C   0  0  0  0  0  0  0  0  0  0  0  0
    5.0580   -3.3720   21.2190 O   0  0  0  0  0  0  0  0  0  0  0  0
    6.9120   -3.5050   21.0390 C   0  0  0  0  0  0  0  0  0  0  0  0
    3.9270    1.3540   21.1690 C   0  0  0  0  0  0  0  0  0  0  0  0
    6.3270    0.6540   17.8460 N   0  0  0  0  0  0  0  0  0  0  0  0
    4.5130    1.4310   18.8560 C   0  0  0  0  0  0  0  0  0  0  0  0
    9.5720   -1.2690   21.6880 C   0  0  0  0  0  0  0  0  0  0  0  0
    8.6370   -2.2110   23.7340 C   0  0  0  0  0  0  0  0  0  0  0  0
   13.5760    5.1450   22.4840 C   0  0  0  0  0  0  0  0  0  0  0  0
    7.2430   -3.2810   19.5490 C   0  0  0  0  0  0  0  0  0  0  0  0
    4.4440    1.9010   22.3640 C   0  0  0  0  0  0  0  0  0  0  0  0
    5.1550    1.2890   17.7120 C   0  0  0  0  0  0  0  0  0  0  0  0
   10.8880   -1.3120   22.2310 C   0  0  0  0  0  0  0  0  0  0  0  0
   10.0630   -2.2390   24.2960 C   0  0  0  0  0  0  0  0  0  0  0  0
    7.6130   -2.7400   24.6720 C   0  0  0  0  0  0  0  0  0  0  0  0
    3.3310    2.6040   23.0280 N   0  0  0  0  0  0  0  0  0  0  0  0
   11.1780   -1.8190   23.6270 C   0  0  0  0  0  0  0  0  0  0  0  0
    8.0320   -4.0610   25.1400 N   0  0  0  0  0  0  0  0  0  0  0  0
   12.5870   -1.8290   24.2090 C   0  0  0  0  0  0  0  0  0  0  0  0
    2.3080    1.8270   23.7630 C   0  0  0  0  0  0  0  0  0  0  0  0
    8.4040   -4.0860   26.5410 C   0  0  0  0  0  0  0  0  0  0  0  0
    9.0240   -4.6750   24.4410 C   0  0  0  0  0  0  0  0  0  0  0  0
   12.7450   -0.6230   24.8600 C   0  0  0  0  0  0  0  0  0  0  0  0
   13.4190   -2.1330   23.1340 C   0  0  0  0  0  0  0  0  0  0  0  0
   12.8330   -2.9540   25.2340 C   0  0  0  0  0  0  0  0  0  0  0  0
    2.2870    0.4080   23.7910 O   0  0  0  0  0  0  0  0  0  0  0  0
    1.2610    2.5980   24.5020 C   0  0  0  0  0  0  0  0  0  0  0  0
    8.5570   -5.5250   26.9770 C   0  0  0  0  0  0  0  0  0  0  0  0
    9.1060   -5.9970   24.6880 C   0  0  0  0  0  0  0  0  0  0  0  0
    1.5580    3.7840   25.1740 C   0  0  0  0  0  0  0  0  0  0  0  0
   -0.0230    2.0800   24.4900 C   0  0  0  0  0  0  0  0  0  0  0  0
    9.4890   -6.2340   26.0990 N   0  0  0  0  0  0  0  0  0  0  0  0
    2.8150    4.2630   25.1680 F   0  0  0  0  0  0  0  0  0  0  0  0
   -1.1960    2.7480   25.1960 C   0  0  0  0  0  0  0  0  0  0  0  0
    0.6010    4.5280   25.8750 C   0  0  0  0  0  0  0  0  0  0  0  0
   -0.8680    4.0620   25.9410 C   0  0  0  0  0  0  0  0  0  0  0  0
  1  2  1  0
  2  3  1  0
  1  4  1  0
  4  5  2  0
  6  4  1  6
  6  7  1  0
  3  8  1  0
  6  9  1  0
  8 10  1  0
  8 11  2  0
  7 12  1  0
  9 13  1  0
  9 14  2  0
  7 15  1  0
 10 16  1  0
 12 17  2  0
 12 18  1  0
 13 19  1  0
 14 20  1  0
 13 21  2  0
 15 22  2  0
 15 23  1  0
 16 24  1  0
 18 25  1  0
 19 26  1  0
 20 27  2  0
 21 27  1  0
 22 28  1  0
 23 29  2  0
 23 30  1  0
 26 31  1  0
 28 32  2  0
 29 32  1  0
 30 33  1  0
 32 34  1  0
 31 35  1  0
 33 36  1  0
 33 37  1  0
 34 38  1  0
 34 39  1  0
 34 40  1  0
 35 41  2  0
 35 42  1  0
 36 43  1  0
 37 44  1  0
 42 45  2  0
 42 46  1  0
 43 47  1  0
 44 47  1  0
 45 48  1  0
 46 49  2  0
 45 50  1  0
 49 51  1  0
 50 51  2  0
M  END
