x3113-x3110-x1458-x0786
     RDKit          3D

 59 65  0  0  0  0  0  0  0  0999 V2000
    7.8580    1.2870   23.3610 N   0  0  0  0  0  0  0  0  0  0  0  0
    8.7930    2.3760   23.3890 C   0  0  0  0  0  0  0  0  0  0  0  0
   10.2770    2.0510   23.5570 C   0  0  0  0  0  0  0  0  0  0  0  0
    7.7670    0.8840   21.9340 C   0  0  0  0  0  0  0  0  0  0  0  0
    8.5540    1.3510   21.0870 O   0  0  0  0  0  0  0  0  0  0  0  0
    6.6030   -0.1140   21.5370 C   0  0  2  0  0  0  0  0  0  0  0  0
    7.1090   -1.6040   21.6580 C   0  0  2  0  0  0  0  0  0  0  0  0
   11.0130    3.2240   23.4070 C   0  0  0  0  0  0  0  0  0  0  0  0
    6.1350    0.3560   20.2230 C   0  0  0  0  0  0  0  0  0  0  0  0
   12.0080    3.1850   22.4680 O   0  0  0  0  0  0  0  0  0  0  0  0
   10.7900    4.2370   24.0670 O   0  0  0  0  0  0  0  0  0  0  0  0
    6.2120   -2.9080   21.1110 C   0  0  0  0  0  0  0  0  0  0  0  0
    6.6060   -2.3600   22.8240 C   0  0  0  0  0  0  0  0  0  0  0  0
    5.0060    1.1840   20.1420 C   0  0  0  0  0  0  0  0  0  0  0  0
    6.7460    0.0670   19.0110 C   0  0  0  0  0  0  0  0  0  0  0  0
    8.5250   -1.6570   22.3080 C   0  0  0  0  0  0  0  0  0  0  0  0
   12.3710    4.4740   21.9510 C   0  0  0  0  0  0  0  0  0  0  0  0
    4.9570   -3.0630   20.7260 O   0  0  0  0  0  0  0  0  0  0  0  0
    6.3000    0.5700   17.7300 N   0  0  0  0  0  0  0  0  0  0  0  0
    4.5250    1.7190   18.8000 C   0  0  0  0  0  0  0  0  0  0  0  0
    9.6290   -2.1760   21.6720 C   0  0  0  0  0  0  0  0  0  0  0  0
    8.7240   -1.1710   23.6140 C   0  0  0  0  0  0  0  0  0  0  0  0
    6.9830   -4.2060   21.2710 C   0  0  2  0  0  0  0  0  0  0  0  0
    7.5510   -3.6080   22.5690 C   0  0  2  0  0  0  0  0  0  0  0  0
   13.3810    5.1460   22.8760 C   0  0  0  0  0  0  0  0  0  0  0  0
    7.2320   -3.5120   19.8920 C   0  0  0  0  0  0  0  0  0  0  0  0
    5.2370    1.3620   17.6720 C   0  0  0  0  0  0  0  0  0  0  0  0
   10.8930   -2.2280   22.2300 C   0  0  0  0  0  0  0  0  0  0  0  0
    9.9410   -1.1860   24.2490 C   0  0  0  0  0  0  0  0  0  0  0  0
    7.6190   -4.4080   23.8660 C   0  0  0  0  0  0  0  0  0  0  0  0
    5.8980   -5.2610   21.5110 C   0  0  0  0  0  0  0  0  0  0  0  0
   11.1210   -1.7550   23.4910 C   0  0  0  0  0  0  0  0  0  0  0  0
    4.7680   -4.9110   22.5120 C   0  0  1  0  0  0  0  0  0  0  0  0
    6.2760   -4.9750   24.2760 C   0  0  2  0  0  0  0  0  0  0  0  0
   12.4590   -1.7400   24.1690 C   0  0  0  0  0  0  0  0  0  0  0  0
    4.0480   -6.1710   22.8520 C   0  0  0  0  0  0  0  0  0  0  0  0
    5.1270   -4.2420   23.6250 C   0  0  2  0  0  0  0  0  0  0  0  0
    5.9490   -5.0320   25.7540 C   0  0  0  0  0  0  0  0  0  0  0  0
   12.5220   -0.5270   25.0480 C   0  0  0  0  0  0  0  0  0  0  0  0
   13.4800   -1.5420   23.1180 C   0  0  0  0  0  0  0  0  0  0  0  0
   12.8000   -2.9890   24.9830 C   0  0  0  0  0  0  0  0  0  0  0  0
    5.9340   -3.5750   26.2030 C   0  0  2  0  0  0  0  0  0  0  0  0
    3.8560   -6.2830   24.3540 C   0  0  2  0  0  0  0  0  0  0  0  0
    4.0170   -3.7970   24.5750 C   0  0  1  0  0  0  0  0  0  0  0  0
    2.8340   -7.3620   24.4310 C   0  0  0  0  0  0  0  0  0  0  0  0
    6.4570   -3.4270   27.4660 N   0  0  0  0  0  0  0  0  0  0  0  0
    3.2570   -5.0110   25.0120 C   0  0  0  0  0  0  0  0  0  0  0  0
    4.5790   -2.9770   25.7830 C   0  0  0  0  0  0  0  0  0  0  0  0
    3.2050   -8.6220   24.9490 O   0  0  0  0  0  0  0  0  0  0  0  0
    5.9970   -4.3060   28.5440 C   0  0  0  0  0  0  0  0  0  0  0  0
    6.6960   -2.0070   27.7630 C   0  0  0  0  0  0  0  0  0  0  0  0
    1.4830   -7.0860   23.9180 N   0  0  0  0  0  0  0  0  0  0  0  0
    7.0180   -5.1550   28.8970 C   0  0  0  0  0  0  0  0  0  0  0  0
    4.8990   -5.0530   28.1560 C   0  0  0  0  0  0  0  0  0  0  0  0
    1.0280   -5.8870   23.1910 C   0  0  0  0  0  0  0  0  0  0  0  0
    0.4750   -8.0980   24.1730 C   0  0  0  0  0  0  0  0  0  0  0  0
    0.0230   -5.1570   23.8200 C   0  0  0  0  0  0  0  0  0  0  0  0
   -0.4720   -7.6320   25.0710 C   0  0  0  0  0  0  0  0  0  0  0  0
   -1.3590   -6.1610   24.4530 S   0  0  0  0  0  0  0  0  0  0  0  0
  1  2  1  0
  2  3  1  0
  1  4  1  0
  4  5  2  0
  6  4  1  6
  6  7  1  0
  3  8  1  0
  6  9  1  0
  8 10  1  0
  8 11  2  0
  7 12  1  0
  7 13  1  0
  9 14  2  0
  9 15  1  0
  7 16  1  6
 10 17  1  0
 12 18  2  0
 15 19  2  0
 14 20  1  0
 16 21  2  0
 16 22  1  0
 12 23  1  0
 24 13  1  1
 23 24  1  0
 17 25  1  0
 23 26  1  6
 19 27  1  0
 20 27  2  0
 21 28  1  0
 22 29  2  0
 24 30  1  0
 23 31  1  0
 28 32  2  0
 29 32  1  0
 33 31  1  1
 34 30  1  1
 32 35  1  0
 33 36  1  0
 37 33  1  6
 34 37  1  0
 34 38  1  0
 35 39  1  0
 35 40  1  0
 35 41  1  0
 38 42  1  0
 36 43  1  0
 37 44  1  0
 43 45  1  6
 42 46  1  1
 43 47  1  0
 44 47  1  1
 42 48  1  0
 44 48  1  0
 45 49  2  0
 46 50  1  0
 46 51  1  0
 45 52  1  0
 50 53  1  0
 50 54  1  0
 52 55  1  0
 52 56  1  0
 55 57  1  0
 56 58  1  0
 57 59  1  0
 58 59  1  0
M  END
