x3113-x0540
     RDKit          3D

 42 44  0  0  0  0  0  0  0  0999 V2000
    7.1180   -1.7790   21.7890 N   0  0  0  0  0  0  0  0  0  0  0  0
    6.2050   -2.9600   21.5940 C   0  0  0  0  0  0  0  0  0  0  0  0
    4.9220   -3.1140   21.1990 O   0  0  0  0  0  0  0  0  0  0  0  0
    6.8070   -0.3120   21.6210 C   0  0  1  0  0  0  0  0  0  0  0  0
    8.4670   -1.8810   22.4540 C   0  0  0  0  0  0  0  0  0  0  0  0
    6.9290   -4.2470   21.9100 C   0  0  0  0  0  0  0  0  0  0  0  0
    7.9100    0.6240   21.8780 C   0  0  0  0  0  0  0  0  0  0  0  0
    6.2650    0.1080   20.2780 C   0  0  0  0  0  0  0  0  0  0  0  0
    9.6330   -1.4930   21.7970 C   0  0  0  0  0  0  0  0  0  0  0  0
    8.6380   -2.3770   23.8600 C   0  0  0  0  0  0  0  0  0  0  0  0
    7.0280   -5.1100   20.6450 C   0  0  0  0  0  0  0  0  0  0  0  0
    8.2100    0.9180   23.1840 N   0  0  0  0  0  0  0  0  0  0  0  0
    8.5550    1.1900   20.9820 O   0  0  0  0  0  0  0  0  0  0  0  0
    5.0560    0.7580   20.2220 C   0  0  0  0  0  0  0  0  0  0  0  0
    6.9340   -0.1120   19.0900 C   0  0  0  0  0  0  0  0  0  0  0  0
   10.8800   -1.5460   22.3820 C   0  0  0  0  0  0  0  0  0  0  0  0
    9.8890   -2.4200   24.4310 C   0  0  0  0  0  0  0  0  0  0  0  0
    9.0840    1.9500   23.4340 C   0  0  0  0  0  0  0  0  0  0  0  0
    4.2560    1.0180   21.4690 C   0  0  0  0  0  0  0  0  0  0  0  0
    6.3900    0.3530   17.8100 N   0  0  0  0  0  0  0  0  0  0  0  0
    4.5280    1.1910   19.0920 C   0  0  0  0  0  0  0  0  0  0  0  0
   11.0340   -2.0190   23.7600 C   0  0  0  0  0  0  0  0  0  0  0  0
   10.2620    2.0200   22.7020 C   0  0  0  0  0  0  0  0  0  0  0  0
   12.4870   -1.9810   24.2930 C   0  0  0  0  0  0  0  0  0  0  0  0
    4.9740    1.8230   22.3490 C   0  0  0  0  0  0  0  0  0  0  0  0
    5.2050    0.9910   17.8860 C   0  0  0  0  0  0  0  0  0  0  0  0
   11.3120    2.6090   23.4250 C   0  0  0  0  0  0  0  0  0  0  0  0
   13.3660   -2.1960   23.2500 C   0  0  0  0  0  0  0  0  0  0  0  0
   12.8170   -3.0900   25.3160 C   0  0  0  0  0  0  0  0  0  0  0  0
   12.7180   -0.7360   24.9290 C   0  0  0  0  0  0  0  0  0  0  0  0
    4.1270    2.8270   22.9230 N   0  0  0  0  0  0  0  0  0  0  0  0
   11.4950    3.9200   23.0180 O   0  0  0  0  0  0  0  0  0  0  0  0
    2.8920    2.4220   23.6250 C   0  0  0  0  0  0  0  0  0  0  0  0
   12.8500    4.3300   22.7900 C   0  0  0  0  0  0  0  0  0  0  0  0
    2.8610    1.5250   24.4720 O   0  0  0  0  0  0  0  0  0  0  0  0
    1.7300    3.2210   23.1890 N   0  0  0  0  0  0  0  0  0  0  0  0
    0.5320    3.3720   24.0200 C   0  0  0  0  0  0  0  0  0  0  0  0
    0.4710    4.6930   24.4950 C   0  0  0  0  0  0  0  0  0  0  0  0
   -0.5630    2.8090   23.3410 C   0  0  0  0  0  0  0  0  0  0  0  0
   -0.7120    5.0460   25.1390 C   0  0  0  0  0  0  0  0  0  0  0  0
   -1.8110    3.3500   23.6550 C   0  0  0  0  0  0  0  0  0  0  0  0
   -1.8600    4.6640   24.4500 C   0  0  0  0  0  0  0  0  0  0  0  0
  1  2  1  0
  2  3  2  0
  1  4  1  0
  1  5  1  0
  2  6  1  0
  4  7  1  6
  4  8  1  0
  5  9  2  0
  5 10  1  0
  6 11  1  0
  7 12  1  0
  7 13  2  0
  8 14  1  0
  8 15  2  0
  9 16  1  0
 10 17  2  0
 12 18  1  0
 14 19  1  0
 15 20  1  0
 14 21  2  0
 16 22  2  0
 17 22  1  0
 18 23  1  0
 22 24  1  0
 19 25  1  0
 20 26  2  0
 21 26  1  0
 23 27  1  0
 24 28  1  0
 24 29  1  0
 24 30  1  0
 25 31  1  0
 27 32  1  0
 31 33  1  0
 32 34  1  0
 33 35  2  0
 33 36  1  0
 36 37  1  0
 37 38  1  0
 37 39  1  0
 38 40  1  0
 39 41  1  0
 40 42  1  0
 41 42  1  0
M  END
