x3110-x0820-x2193
     RDKit          3D

 47 52  0  0  0  0  0  0  0  0999 V2000
    7.7700    1.1700   23.4200 N   0  0  0  0  0  0  0  0  0  0  0  0
    8.7940    2.2040   23.6570 C   0  0  0  0  0  0  0  0  0  0  0  0
   10.2870    1.8910   23.6040 C   0  0  0  0  0  0  0  0  0  0  0  0
    7.6360    0.4970   22.1340 C   0  0  0  0  0  0  0  0  0  0  0  0
    8.5260    0.8130   21.0770 O   0  0  0  0  0  0  0  0  0  0  0  0
    6.5510   -0.4480   21.9730 C   0  0  2  0  0  0  0  0  0  0  0  0
    7.0800   -1.9680   22.0270 C   0  0  2  0  0  0  0  0  0  0  0  0
   11.0370    3.2550   23.4350 C   0  0  0  0  0  0  0  0  0  0  0  0
    6.0540    0.0880   20.5850 C   0  0  0  0  0  0  0  0  0  0  0  0
   11.9050    3.1990   22.5630 O   0  0  0  0  0  0  0  0  0  0  0  0
   10.7780    4.2480   24.1040 O   0  0  0  0  0  0  0  0  0  0  0  0
    6.1950   -3.1090   21.3550 C   0  0  0  0  0  0  0  0  0  0  0  0
    7.0070   -3.3060   22.9810 C   0  0  2  0  0  0  0  0  0  0  0  0
    4.9170    0.8870   20.4570 C   0  0  0  0  0  0  0  0  0  0  0  0
    6.8010   -0.2060   19.2850 C   0  0  0  0  0  0  0  0  0  0  0  0
    8.5520   -1.9000   22.4700 C   0  0  0  0  0  0  0  0  0  0  0  0
   12.2310    4.4790   21.9990 C   0  0  0  0  0  0  0  0  0  0  0  0
    5.0330   -3.1910   20.7510 O   0  0  0  0  0  0  0  0  0  0  0  0
    6.9370   -4.3040   21.7080 C   0  0  2  0  0  0  0  0  0  0  0  0
    6.4470    0.2680   17.9340 N   0  0  0  0  0  0  0  0  0  0  0  0
    4.4830    1.4180   19.0980 C   0  0  0  0  0  0  0  0  0  0  0  0
    9.7000   -2.1510   21.7650 C   0  0  0  0  0  0  0  0  0  0  0  0
    8.5930   -1.5310   23.8110 C   0  0  0  0  0  0  0  0  0  0  0  0
    6.0450   -3.6090   24.2360 C   0  0  0  0  0  0  0  0  0  0  0  0
   13.3650    5.1390   22.8240 C   0  0  0  0  0  0  0  0  0  0  0  0
    8.2650   -4.7630   21.0720 C   0  0  0  0  0  0  0  0  0  0  0  0
    5.2950    1.0700   17.8990 C   0  0  0  0  0  0  0  0  0  0  0  0
   10.9140   -2.0540   22.3420 C   0  0  0  0  0  0  0  0  0  0  0  0
   10.0060   -1.4460   24.4140 C   0  0  0  0  0  0  0  0  0  0  0  0
    6.6090   -4.0180   25.6270 C   0  0  0  0  0  0  0  0  0  0  0  0
    4.5240   -3.4810   24.0380 C   0  0  0  0  0  0  0  0  0  0  0  0
   11.1290   -1.7180   23.6350 C   0  0  0  0  0  0  0  0  0  0  0  0
    8.0030   -4.3210   26.2210 C   0  0  1  0  0  0  0  0  0  0  0  0
    5.6230   -4.1520   26.5550 C   0  0  0  0  0  0  0  0  0  0  0  0
    3.7120   -3.7200   25.1540 C   0  0  0  0  0  0  0  0  0  0  0  0
   12.5140   -1.6390   24.2360 C   0  0  0  0  0  0  0  0  0  0  0  0
    8.1650   -5.6560   26.0050 C   0  0  0  0  0  0  0  0  0  0  0  0
    9.0010   -3.5460   25.7740 N   0  0  0  0  0  0  0  0  0  0  0  0
    4.2440   -4.0390   26.4100 C   0  0  0  0  0  0  0  0  0  0  0  0
    6.2830   -4.4330   27.9260 C   0  0  0  0  0  0  0  0  0  0  0  0
    7.6800   -4.4460   27.7340 C   0  0  0  0  0  0  0  0  0  0  0  0
   12.5350   -0.4630   24.9600 C   0  0  0  0  0  0  0  0  0  0  0  0
   13.4280   -1.7580   23.1880 C   0  0  0  0  0  0  0  0  0  0  0  0
   12.8320   -2.7150   25.1200 C   0  0  0  0  0  0  0  0  0  0  0  0
    8.4070   -6.0010   24.7010 N   0  0  0  0  0  0  0  0  0  0  0  0
   10.0570   -4.2800   25.1590 C   0  0  0  0  0  0  0  0  0  0  0  0
    9.5950   -5.3020   24.3170 C   0  0  0  0  0  0  0  0  0  0  0  0
  1  2  1  0
  2  3  1  0
  1  4  1  0
  4  5  2  0
  6  4  1  6
  6  7  1  0
  3  8  1  0
  6  9  1  0
  8 10  1  0
  8 11  2  0
  7 12  1  0
  7 13  1  0
  9 14  2  0
  9 15  1  0
  7 16  1  6
 10 17  1  0
 12 18  2  0
 12 19  1  0
 13 19  1  0
 15 20  2  0
 14 21  1  0
 16 22  2  0
 16 23  1  0
 13 24  1  1
 17 25  1  0
 19 26  1  6
 20 27  1  0
 21 27  2  0
 22 28  1  0
 23 29  2  0
 24 30  1  0
 24 31  2  0
 28 32  2  0
 29 32  1  0
 30 33  1  0
 30 34  2  0
 31 35  1  0
 32 36  1  0
 33 37  1  6
 33 38  1  0
 34 39  1  0
 35 39  2  0
 34 40  1  0
 33 41  1  0
 40 41  2  0
 36 42  1  0
 36 43  1  0
 36 44  1  0
 37 45  1  0
 38 46  1  0
 45 47  1  0
 46 47  1  0
M  END
