x3115-x1493-x0540-x3110-x0946
     RDKit          3D

 62 67  0  0  0  0  0  0  0  0999 V2000
    7.9840    1.2720   23.3460 N   0  0  0  0  0  0  0  0  0  0  0  0
    8.5860    2.6120   23.6740 C   0  0  2  0  0  0  0  0  0  0  0  0
    8.0080    3.7340   22.8200 C   0  0  0  0  0  0  0  0  0  0  0  0
    7.7760    0.8630   21.9470 C   0  0  0  0  0  0  0  0  0  0  0  0
    8.5180    1.4480   20.9330 O   0  0  0  0  0  0  0  0  0  0  0  0
    6.6710   -0.2280   21.6660 C   0  0  2  0  0  0  0  0  0  0  0  0
   10.1040    2.5040   23.4010 C   0  0  0  0  0  0  0  0  0  0  0  0
    6.8400   -1.7000   21.8960 C   0  0  2  0  0  0  0  0  0  0  0  0
    8.3400    5.0570   23.2380 O   0  0  0  0  0  0  0  0  0  0  0  0
    6.1570    0.2020   20.3250 C   0  0  0  0  0  0  0  0  0  0  0  0
   11.0510    3.7300   23.4600 C   0  0  0  0  0  0  0  0  0  0  0  0
   10.6150    1.2430   23.0750 C   0  0  0  0  0  0  0  0  0  0  0  0
   10.6210    5.0860   23.8480 C   0  0  0  0  0  0  0  0  0  0  0  0
    6.1150   -2.8640   21.1030 C   0  0  0  0  0  0  0  0  0  0  0  0
    8.0900    6.0600   22.2470 C   0  0  0  0  0  0  0  0  0  0  0  0
    6.0900   -2.3140   22.8840 C   0  0  0  0  0  0  0  0  0  0  0  0
    4.9580    0.8590   20.2300 C   0  0  0  0  0  0  0  0  0  0  0  0
    6.9330   -0.0540   19.1130 C   0  0  0  0  0  0  0  0  0  0  0  0
    8.3150   -1.8060   22.4120 C   0  0  0  0  0  0  0  0  0  0  0  0
   11.9670    1.1100   22.7890 C   0  0  0  0  0  0  0  0  0  0  0  0
   12.3850    3.5500   23.1370 C   0  0  0  0  0  0  0  0  0  0  0  0
   13.3170    4.7280   23.1400 C   0  0  0  0  0  0  0  0  0  0  0  0
    4.9180   -3.0250   20.5650 O   0  0  0  0  0  0  0  0  0  0  0  0
    6.8460   -4.1230   21.2570 C   0  0  2  0  0  0  0  0  0  0  0  0
    4.1780    1.0890   21.4860 C   0  0  0  0  0  0  0  0  0  0  0  0
    9.7890    5.3680   24.7130 O   0  0  0  0  0  0  0  0  0  0  0  0
   11.2790    6.0420   23.1650 O   0  0  0  0  0  0  0  0  0  0  0  0
    6.4550    0.4040   17.8140 N   0  0  0  0  0  0  0  0  0  0  0  0
    4.4380    1.3450   18.8990 C   0  0  0  0  0  0  0  0  0  0  0  0
    9.5700   -1.4840   21.6800 C   0  0  0  0  0  0  0  0  0  0  0  0
    8.6230   -2.2410   23.8200 C   0  0  0  0  0  0  0  0  0  0  0  0
   12.8880    2.2970   22.8100 C   0  0  0  0  0  0  0  0  0  0  0  0
    6.3350   -3.9240   22.6880 C   0  0  1  0  0  0  0  0  0  0  0  0
   13.2220    5.4250   21.7890 C   0  0  0  0  0  0  0  0  0  0  0  0
    8.3300   -4.2870   20.9110 C   0  0  0  0  0  0  0  0  0  0  0  0
    4.9170    1.9320   22.5100 C   0  0  0  0  0  0  0  0  0  0  0  0
    5.2080    1.0920   17.8320 C   0  0  0  0  0  0  0  0  0  0  0  0
   10.9010   -1.6140   22.3030 C   0  0  0  0  0  0  0  0  0  0  0  0
    9.9550   -2.3450   24.3920 C   0  0  0  0  0  0  0  0  0  0  0  0
    7.0410   -4.4920   23.7360 C   0  0  0  0  0  0  0  0  0  0  0  0
    4.9730   -4.4230   22.5770 N   0  0  0  0  0  0  0  0  0  0  0  0
    4.1500    2.9020   22.9690 N   0  0  0  0  0  0  0  0  0  0  0  0
   11.0380   -2.0590   23.7100 C   0  0  0  0  0  0  0  0  0  0  0  0
    6.3600   -5.6230   24.3190 N   0  0  0  0  0  0  0  0  0  0  0  0
    4.8940   -5.8580   22.3390 C   0  0  0  0  0  0  0  0  0  0  0  0
   12.3670   -2.1660   24.3530 C   0  0  0  0  0  0  0  0  0  0  0  0
    2.9130    2.4890   23.6430 C   0  0  0  0  0  0  0  0  0  0  0  0
    6.1530   -5.7310   25.7730 C   0  0  0  0  0  0  0  0  0  0  0  0
    5.6960   -6.5680   23.4070 C   0  0  0  0  0  0  0  0  0  0  0  0
   13.3850   -1.4040   23.7960 C   0  0  0  0  0  0  0  0  0  0  0  0
   12.6850   -0.8390   24.9470 C   0  0  0  0  0  0  0  0  0  0  0  0
   12.7280   -3.2570   25.3570 C   0  0  0  0  0  0  0  0  0  0  0  0
    2.8150    1.4320   24.6080 O   0  0  0  0  0  0  0  0  0  0  0  0
    1.7770    3.2990   23.2090 N   0  0  0  0  0  0  0  0  0  0  0  0
    4.8210   -6.1570   26.3690 C   0  0  0  0  0  0  0  0  0  0  0  0
    7.0960   -5.4950   26.5290 O   0  0  0  0  0  0  0  0  0  0  0  0
    0.5970    3.3530   24.0570 C   0  0  0  0  0  0  0  0  0  0  0  0
    0.4920    4.6170   24.6400 C   0  0  0  0  0  0  0  0  0  0  0  0
   -0.6300    2.8110   23.3220 C   0  0  0  0  0  0  0  0  0  0  0  0
   -0.7670    5.0060   25.0910 C   0  0  0  0  0  0  0  0  0  0  0  0
   -1.9910    3.3450   23.7450 C   0  0  0  0  0  0  0  0  0  0  0  0
   -1.9790    4.6580   24.2310 C   0  0  0  0  0  0  0  0  0  0  0  0
  1  2  1  0
  2  3  1  6
  1  4  1  0
  4  5  2  0
  6  4  1  6
  2  7  1  0
  6  8  1  0
  3  9  1  0
  6 10  1  0
  7 11  2  0
  7 12  1  0
 11 13  1  0
  8 14  1  0
  9 15  1  0
  8 16  1  0
 10 17  1  0
 10 18  2  0
  8 19  1  1
 12 20  2  0
 11 21  1  0
 21 22  1  0
 14 23  2  0
 14 24  1  0
 17 25  1  0
 13 26  2  0
 13 27  1  0
 18 28  1  0
 17 29  2  0
 19 30  2  0
 19 31  1  0
 20 32  1  0
 21 32  2  0
 33 16  1  1
 24 33  1  0
 22 34  1  0
 24 35  1  1
 25 36  1  0
 28 37  2  0
 29 37  1  0
 30 38  1  0
 31 39  2  0
 33 40  1  0
 33 41  1  0
 36 42  1  0
 38 43  2  0
 39 43  1  0
 40 44  1  0
 41 45  1  0
 43 46  1  0
 42 47  1  0
 44 48  1  0
 44 49  1  0
 45 49  1  0
 46 50  1  0
 46 51  1  0
 46 52  1  0
 47 53  2  0
 47 54  1  0
 48 55  1  0
 48 56  2  0
 54 57  1  0
 57 58  1  0
 57 59  1  0
 58 60  1  0
 59 61  1  0
 60 62  1  0
 61 62  1  0
M  END
