x3117-x0755
     RDKit          3D

 50 55  0  0  0  0  0  0  0  0999 V2000
    6.6290   -1.4020   22.1010 C   0  0  1  0  0  0  0  0  0  0  0  0
    5.8700   -2.3000   21.0210 C   0  0  0  0  0  0  0  0  0  0  0  0
    4.6940   -2.8530   21.1490 O   0  0  0  0  0  0  0  0  0  0  0  0
    6.4340    0.1300   21.8620 C   0  0  1  0  0  0  0  0  0  0  0  0
    5.7720   -2.1360   23.1100 C   0  0  0  0  0  0  0  0  0  0  0  0
    8.1620   -1.5800   22.5270 C   0  0  0  0  0  0  0  0  0  0  0  0
    6.3750   -2.7510   19.7700 C   0  0  0  0  0  0  0  0  0  0  0  0
    7.6670    0.9130   22.0070 C   0  0  0  0  0  0  0  0  0  0  0  0
    5.3980   -3.4940   22.6150 C   0  0  0  0  0  0  0  0  0  0  0  0
    6.0100    0.4960   20.4760 C   0  0  0  0  0  0  0  0  0  0  0  0
    9.2230   -1.8910   21.7400 C   0  0  0  0  0  0  0  0  0  0  0  0
    8.6060   -1.3810   23.8800 C   0  0  0  0  0  0  0  0  0  0  0  0
    6.7760   -4.1080   20.1620 C   0  0  0  0  0  0  0  0  0  0  0  0
    7.7210    2.0360   22.8360 N   0  0  0  0  0  0  0  0  0  0  0  0
    8.6680    0.6030   21.3550 O   0  0  0  0  0  0  0  0  0  0  0  0
    4.7720    1.2720   20.1670 C   0  0  0  0  0  0  0  0  0  0  0  0
    6.7840    0.1250   19.3590 C   0  0  0  0  0  0  0  0  0  0  0  0
   10.7400   -2.0540   22.0080 C   0  0  0  0  0  0  0  0  0  0  0  0
    9.9080   -1.4820   24.2520 C   0  0  0  0  0  0  0  0  0  0  0  0
    6.4520   -4.4200   21.7900 C   0  0  0  0  0  0  0  0  0  0  0  0
    6.3950    0.4890   17.9850 N   0  0  0  0  0  0  0  0  0  0  0  0
    4.3950    1.6200   18.9050 C   0  0  0  0  0  0  0  0  0  0  0  0
    8.5840    3.1270   22.4600 C   0  0  0  0  0  0  0  0  0  0  0  0
   11.1040   -1.7790   23.5480 C   0  0  0  0  0  0  0  0  0  0  0  0
    7.6350   -4.6830   22.6880 C   0  0  0  0  0  0  0  0  0  0  0  0
    5.7990   -5.8420   21.8690 C   0  0  0  0  0  0  0  0  0  0  0  0
   12.3270   -1.8020   24.1030 C   0  0  0  0  0  0  0  0  0  0  0  0
    5.1830    1.2460   17.8290 C   0  0  0  0  0  0  0  0  0  0  0  0
   10.0340    3.4170   22.9750 C   0  0  0  0  0  0  0  0  0  0  0  0
    8.4810    4.6590   22.6420 C   0  0  0  0  0  0  0  0  0  0  0  0
    7.2090   -4.9300   24.1440 C   0  0  0  0  0  0  0  0  0  0  0  0
    5.1580   -6.1670   23.2320 C   0  0  0  0  0  0  0  0  0  0  0  0
   12.4950   -0.5670   24.9770 C   0  0  0  0  0  0  0  0  0  0  0  0
   13.3360   -1.7130   23.1860 C   0  0  0  0  0  0  0  0  0  0  0  0
   12.6370   -3.0220   24.9620 C   0  0  0  0  0  0  0  0  0  0  0  0
   10.4930    4.6670   23.7350 C   0  0  0  0  0  0  0  0  0  0  0  0
    8.3240    4.2410   23.9750 C   0  0  0  0  0  0  0  0  0  0  0  0
    5.7860   -5.3750   24.3220 N   0  0  0  0  0  0  0  0  0  0  0  0
    5.0250   -5.3110   25.8420 S   0  0  0  0  0  0  0  0  0  0  0  0
    9.4080    4.9220   24.5760 O   0  0  0  0  0  0  0  0  0  0  0  0
    4.2710   -6.5420   25.9710 O   0  0  0  0  0  0  0  0  0  0  0  0
    5.9700   -4.9490   26.8540 O   0  0  0  0  0  0  0  0  0  0  0  0
    3.8610   -3.9540   25.8230 C   0  0  0  0  0  0  0  0  0  0  0  0
    2.4760   -4.2080   25.6760 C   0  0  0  0  0  0  0  0  0  0  0  0
    4.3590   -2.5090   25.9840 C   0  0  0  0  0  0  0  0  0  0  0  0
    2.0640   -5.4750   25.5400 F   0  0  0  0  0  0  0  0  0  0  0  0
    5.6350   -2.1470   26.1350 F   0  0  0  0  0  0  0  0  0  0  0  0
    3.2510   -1.4610   25.9650 C   0  0  0  0  0  0  0  0  0  0  0  0
    1.5010   -3.1930   25.6680 C   0  0  0  0  0  0  0  0  0  0  0  0
    1.8130   -1.9080   25.8000 C   0  0  0  0  0  0  0  0  0  0  0  0
  1  2  1  0
  2  3  2  0
  1  4  1  0
  1  5  1  0
  1  6  1  1
  2  7  1  0
  4  8  1  6
  5  9  1  0
  4 10  1  0
  6 11  2  0
  6 12  1  0
  7 13  1  0
  8 14  1  0
  8 15  2  0
 10 16  2  0
 10 17  1  0
 11 18  1  0
 12 19  2  0
 20  9  1  0
 13 20  1  0
 17 21  2  0
 16 22  1  0
 14 23  1  0
 18 24  2  0
 19 24  1  0
 20 25  1  0
 20 26  1  0
 24 27  1  0
 21 28  1  0
 22 28  2  0
 23 29  1  0
 23 30  1  0
 25 31  1  0
 26 32  1  0
 27 33  1  0
 27 34  1  0
 27 35  1  0
 29 36  1  0
 30 37  1  0
 31 38  1  0
 32 38  1  0
 38 39  1  0
 36 40  1  0
 37 40  1  0
 39 41  2  0
 39 42  2  0
 39 43  1  0
 43 44  2  0
 43 45  1  0
 44 46  1  0
 45 47  1  0
 45 48  2  0
 44 49  1  0
 48 50  1  0
 49 50  2  0
M  END
