x3110-x1458-x0426
     RDKit          3D

 57 61  0  0  0  0  0  0  0  0999 V2000
    7.8320    1.2130   23.2160 N   0  0  0  0  0  0  0  0  0  0  0  0
    8.6550    2.4000   23.4110 C   0  0  0  0  0  0  0  0  0  0  0  0
   10.1750    2.0830   23.5570 C   0  0  0  0  0  0  0  0  0  0  0  0
    7.6580    0.8130   21.8010 C   0  0  0  0  0  0  0  0  0  0  0  0
    8.4130    1.3090   20.9320 O   0  0  0  0  0  0  0  0  0  0  0  0
    6.4750   -0.2000   21.5040 C   0  0  2  0  0  0  0  0  0  0  0  0
    6.8980   -1.6300   21.7800 C   0  0  2  0  0  0  0  0  0  0  0  0
   11.1380    3.2960   23.3570 C   0  0  0  0  0  0  0  0  0  0  0  0
    6.0240    0.3270   20.1640 C   0  0  0  0  0  0  0  0  0  0  0  0
   11.9910    3.2100   22.4660 O   0  0  0  0  0  0  0  0  0  0  0  0
   10.9930    4.2780   24.0910 O   0  0  0  0  0  0  0  0  0  0  0  0
    6.1180   -2.9570   21.2240 C   0  0  0  0  0  0  0  0  0  0  0  0
    6.3460   -2.2790   23.0230 C   0  0  0  0  0  0  0  0  0  0  0  0
    4.8090    1.0290   20.1030 C   0  0  0  0  0  0  0  0  0  0  0  0
    6.8420    0.1020   19.0680 C   0  0  0  0  0  0  0  0  0  0  0  0
    8.3540   -1.6620   22.3780 C   0  0  0  0  0  0  0  0  0  0  0  0
   12.3920    4.4870   21.9470 C   0  0  0  0  0  0  0  0  0  0  0  0
    4.9650   -3.1020   20.6420 O   0  0  0  0  0  0  0  0  0  0  0  0
    3.8620    1.2680   21.2770 C   0  0  0  0  0  0  0  0  0  0  0  0
    6.4410    0.6440   17.7710 N   0  0  0  0  0  0  0  0  0  0  0  0
    4.3730    1.5720   18.9100 C   0  0  0  0  0  0  0  0  0  0  0  0
    9.5850   -2.1870   21.6820 C   0  0  0  0  0  0  0  0  0  0  0  0
    8.6480   -1.1950   23.6850 C   0  0  0  0  0  0  0  0  0  0  0  0
    6.8460   -4.2000   21.6660 C   0  0  2  0  0  0  0  0  0  0  0  0
    7.3140   -3.4960   22.9050 C   0  0  2  0  0  0  0  0  0  0  0  0
   13.3970    5.1810   22.8560 C   0  0  0  0  0  0  0  0  0  0  0  0
    8.1540   -4.6390   20.9630 C   0  0  0  0  0  0  0  0  0  0  0  0
    4.4170    2.0370   22.3000 C   0  0  0  0  0  0  0  0  0  0  0  0
    5.1990    1.4000   17.6870 C   0  0  0  0  0  0  0  0  0  0  0  0
   10.8310   -2.1940   22.2610 C   0  0  0  0  0  0  0  0  0  0  0  0
   10.0050   -1.1940   24.3530 C   0  0  0  0  0  0  0  0  0  0  0  0
    7.3640   -4.2680   24.0920 C   0  0  0  0  0  0  0  0  0  0  0  0
    5.9050   -5.3390   22.1080 C   0  0  0  0  0  0  0  0  0  0  0  0
    3.3010    2.6430   23.0630 N   0  0  0  0  0  0  0  0  0  0  0  0
   11.0920   -1.6790   23.6610 C   0  0  0  0  0  0  0  0  0  0  0  0
    6.1560   -4.7950   24.4040 C   0  0  2  0  0  0  0  0  0  0  0  0
    5.2650   -5.0950   23.3500 C   0  0  0  0  0  0  0  0  0  0  0  0
   12.4860   -1.6960   24.2360 C   0  0  0  0  0  0  0  0  0  0  0  0
    2.2580    1.8490   23.7330 C   0  0  0  0  0  0  0  0  0  0  0  0
    5.5650   -3.9520   25.5460 C   0  0  0  0  0  0  0  0  0  0  0  0
   12.5850   -0.6360   25.1020 C   0  0  0  0  0  0  0  0  0  0  0  0
   13.4380   -1.5600   23.0370 C   0  0  0  0  0  0  0  0  0  0  0  0
   12.9030   -2.9460   25.0220 C   0  0  0  0  0  0  0  0  0  0  0  0
    2.1980    0.6240   23.6950 O   0  0  0  0  0  0  0  0  0  0  0  0
    6.1880   -3.8870   26.7330 N   0  0  0  0  0  0  0  0  0  0  0  0
    4.5100   -3.3270   25.3740 O   0  0  0  0  0  0  0  0  0  0  0  0
    1.2250    2.6060   24.4990 C   0  0  0  0  0  0  0  0  0  0  0  0
    6.2960   -5.0480   27.6360 C   0  0  0  0  0  0  0  0  0  0  0  0
    6.4490   -2.5290   27.2380 C   0  0  0  0  0  0  0  0  0  0  0  0
    1.4870    3.7980   25.2070 C   0  0  0  0  0  0  0  0  0  0  0  0
   -0.0820    2.1300   24.5330 C   0  0  0  0  0  0  0  0  0  0  0  0
    2.7240    4.3280   25.2280 F   0  0  0  0  0  0  0  0  0  0  0  0
    7.0230   -4.9200   28.7970 C   0  0  0  0  0  0  0  0  0  0  0  0
    5.0280   -5.5570   27.8280 C   0  0  0  0  0  0  0  0  0  0  0  0
   -1.0780    2.8060   25.2340 C   0  0  0  0  0  0  0  0  0  0  0  0
    0.4880    4.4800   25.9120 C   0  0  0  0  0  0  0  0  0  0  0  0
   -0.8000    3.9710   25.9190 C   0  0  0  0  0  0  0  0  0  0  0  0
  1  2  1  0
  2  3  1  0
  1  4  1  0
  4  5  2  0
  6  4  1  6
  6  7  1  0
  3  8  1  0
  6  9  1  0
  8 10  1  0
  8 11  2  0
  7 12  1  0
  7 13  1  0
  9 14  1  0
  9 15  2  0
  7 16  1  1
 10 17  1  0
 12 18  2  0
 14 19  1  0
 15 20  1  0
 14 21  2  0
 16 22  2  0
 16 23  1  0
 12 24  1  0
 25 13  1  1
 24 25  1  0
 17 26  1  0
 24 27  1  6
 19 28  1  0
 20 29  2  0
 21 29  1  0
 22 30  1  0
 23 31  2  0
 25 32  1  0
 24 33  1  0
 28 34  1  0
 30 35  2  0
 31 35  1  0
 32 36  1  0
 33 37  1  0
 36 37  1  0
 35 38  1  0
 34 39  1  0
 36 40  1  1
 38 41  1  0
 38 42  1  0
 38 43  1  0
 39 44  2  0
 40 45  1  0
 40 46  2  0
 39 47  1  0
 45 48  1  0
 45 49  1  0
 47 50  2  0
 47 51  1  0
 50 52  1  0
 48 53  1  0
 48 54  1  0
 51 55  2  0
 50 56  1  0
 55 57  1  0
 56 57  2  0
M  END
