x3124-x3110
     RDKit          3D

 32 33  0  0  0  0  0  0  0  0999 V2000
    7.9390    1.0930   23.3460 N   0  0  0  0  0  0  0  0  0  0  0  0
    8.7140    2.2520   23.5920 C   0  0  0  0  0  0  0  0  0  0  0  0
   10.2450    1.9970   23.5000 C   0  0  0  0  0  0  0  0  0  0  0  0
    7.7340    0.5440   21.9810 C   0  0  0  0  0  0  0  0  0  0  0  0
    8.4690    0.9360   21.0700 O   0  0  0  0  0  0  0  0  0  0  0  0
    6.5640   -0.4770   21.6860 C   0  0  2  0  0  0  0  0  0  0  0  0
    6.9180   -1.6390   21.7940 N   0  0  0  0  0  0  0  0  0  0  0  0
   10.9980    3.1850   23.3790 C   0  0  0  0  0  0  0  0  0  0  0  0
    6.1020    0.0650   20.3460 C   0  0  0  0  0  0  0  0  0  0  0  0
   11.9050    3.1920   22.5470 O   0  0  0  0  0  0  0  0  0  0  0  0
   10.7610    4.1660   24.0740 O   0  0  0  0  0  0  0  0  0  0  0  0
    6.1580   -2.9030   21.4850 C   0  0  0  0  0  0  0  0  0  0  0  0
    4.9750    0.8790   20.1920 C   0  0  0  0  0  0  0  0  0  0  0  0
    6.8710   -0.2250   19.0610 C   0  0  0  0  0  0  0  0  0  0  0  0
    8.2460   -1.6960   22.3800 C   0  0  0  0  0  0  0  0  0  0  0  0
   12.2300    4.2980   22.1000 C   0  0  0  0  0  0  0  0  0  0  0  0
    4.8980   -3.0670   21.1160 O   0  0  0  0  0  0  0  0  0  0  0  0
    6.8990   -4.2400   21.6500 C   0  0  0  0  0  0  0  0  0  0  0  0
    6.3650    0.3830   17.8190 N   0  0  0  0  0  0  0  0  0  0  0  0
    4.5270    1.4290   19.0010 C   0  0  0  0  0  0  0  0  0  0  0  0
    9.3170   -1.5190   21.5410 C   0  0  0  0  0  0  0  0  0  0  0  0
    8.5320   -1.8940   23.7480 C   0  0  0  0  0  0  0  0  0  0  0  0
   13.3550    5.1240   22.7210 C   0  0  0  0  0  0  0  0  0  0  0  0
    8.3070   -4.3760   20.9900 C   0  0  0  0  0  0  0  0  0  0  0  0
    5.2540    1.1570   17.8520 C   0  0  0  0  0  0  0  0  0  0  0  0
   10.7930   -1.5390   22.0960 C   0  0  0  0  0  0  0  0  0  0  0  0
    9.8600   -1.8940   24.2110 C   0  0  0  0  0  0  0  0  0  0  0  0
   11.0250   -1.7220   23.4460 C   0  0  0  0  0  0  0  0  0  0  0  0
   12.4330   -1.7220   24.0790 C   0  0  0  0  0  0  0  0  0  0  0  0
   12.5340   -0.6390   24.9420 C   0  0  0  0  0  0  0  0  0  0  0  0
   13.3470   -1.8520   23.0310 C   0  0  0  0  0  0  0  0  0  0  0  0
   12.6760   -2.9500   24.9600 C   0  0  0  0  0  0  0  0  0  0  0  0
  1  2  1  0
  2  3  1  0
  1  4  1  0
  4  5  2  0
  6  4  1  6
  6  7  1  0
  3  8  1  0
  6  9  1  0
  8 10  1  0
  8 11  2  0
  7 12  1  0
  9 13  2  0
  9 14  1  0
  7 15  1  0
 10 16  1  0
 12 17  2  0
 12 18  1  0
 14 19  2  0
 13 20  1  0
 15 21  2  0
 15 22  1  0
 16 23  1  0
 18 24  1  0
 19 25  1  0
 20 25  2  0
 21 26  1  0
 22 27  2  0
 26 28  2  0
 27 28  1  0
 28 29  1  0
 29 30  1  0
 29 31  1  0
 29 32  1  0
M  END
