x3124-x2703-x1458
     RDKit          3D

 47 51  0  0  0  0  0  0  0  0999 V2000
    6.9320   -1.6340   21.7250 C   0  0  1  0  0  0  0  0  0  0  0  0
    6.0130   -2.9430   21.2030 C   0  0  0  0  0  0  0  0  0  0  0  0
    4.9160   -3.0480   20.5670 O   0  0  0  0  0  0  0  0  0  0  0  0
    6.5170   -0.2040   21.5530 C   0  0  1  0  0  0  0  0  0  0  0  0
    6.4520   -2.0860   23.0340 C   0  0  0  0  0  0  0  0  0  0  0  0
    8.4230   -1.7230   22.2590 C   0  0  0  0  0  0  0  0  0  0  0  0
    7.6780    0.7890   21.9060 C   0  0  0  0  0  0  0  0  0  0  0  0
    6.0220    0.3030   20.1970 C   0  0  0  0  0  0  0  0  0  0  0  0
    8.6550   -1.2900   23.5620 C   0  0  0  0  0  0  0  0  0  0  0  0
    9.5520   -2.1710   21.6540 C   0  0  0  0  0  0  0  0  0  0  0  0
    6.6130   -4.1670   21.7860 C   0  0  2  0  0  0  0  0  0  0  0  0
    7.1940   -3.4740   23.0080 C   0  0  2  0  0  0  0  0  0  0  0  0
    7.7820   -4.7920   21.0280 C   0  0  0  0  0  0  0  0  0  0  0  0
    7.2510    1.9240   22.7590 N   0  0  0  0  0  0  0  0  0  0  0  0
    8.8310    0.6890   21.4990 O   0  0  0  0  0  0  0  0  0  0  0  0
    4.8630    1.0680   20.1500 C   0  0  0  0  0  0  0  0  0  0  0  0
    6.7170    0.0440   19.0370 C   0  0  0  0  0  0  0  0  0  0  0  0
   10.8140   -2.2280   22.1520 N   0  0  0  0  0  0  0  0  0  0  0  0
    9.8880   -1.3260   24.1310 C   0  0  0  0  0  0  0  0  0  0  0  0
    6.9350   -4.0550   24.2710 C   0  0  0  0  0  0  0  0  0  0  0  0
    5.6140   -5.3050   22.2410 C   0  0  0  0  0  0  0  0  0  0  0  0
    6.3220    0.5410   17.7390 N   0  0  0  0  0  0  0  0  0  0  0  0
    4.4020    1.6040   18.8920 C   0  0  0  0  0  0  0  0  0  0  0  0
   11.0470   -1.7700   23.5270 C   0  0  0  0  0  0  0  0  0  0  0  0
    8.0010    3.1230   22.8920 C   0  0  0  0  0  0  0  0  0  0  0  0
    5.6180   -4.1230   24.3610 C   0  0  1  0  0  0  0  0  0  0  0  0
    5.1490   -5.3460   23.6010 C   0  0  0  0  0  0  0  0  0  0  0  0
   12.4640   -1.8420   24.0210 C   0  0  0  0  0  0  0  0  0  0  0  0
    5.2780   -3.9550   25.8180 C   0  0  0  0  0  0  0  0  0  0  0  0
    5.1020    1.3670   17.7090 C   0  0  0  0  0  0  0  0  0  0  0  0
    9.3900    3.1640   23.5330 C   0  0  0  0  0  0  0  0  0  0  0  0
    7.4030    4.4530   22.3720 C   0  0  0  0  0  0  0  0  0  0  0  0
   10.1180    1.9410   24.0940 C   0  0  0  0  0  0  0  0  0  0  0  0
    6.0300    4.4590   21.7280 C   0  0  0  0  0  0  0  0  0  0  0  0
   12.8270   -2.9760   24.9780 C   0  0  0  0  0  0  0  0  0  0  0  0
   12.7180   -0.5180   24.7200 C   0  0  0  0  0  0  0  0  0  0  0  0
   13.4120   -1.9590   22.8430 C   0  0  0  0  0  0  0  0  0  0  0  0
    6.3030   -3.9800   26.8750 N   0  0  0  0  0  0  0  0  0  0  0  0
    3.9690   -3.6770   26.0780 O   0  0  0  0  0  0  0  0  0  0  0  0
   10.0510    4.5250   23.5980 C   0  0  0  0  0  0  0  0  0  0  0  0
    8.2400    5.7260   22.5350 C   0  0  0  0  0  0  0  0  0  0  0  0
    9.1720    1.3480   25.0550 C   0  0  0  0  0  0  0  0  0  0  0  0
    6.5530   -5.1850   27.4680 C   0  0  0  0  0  0  0  0  0  0  0  0
    6.6230   -2.7040   27.5770 C   0  0  0  0  0  0  0  0  0  0  0  0
    9.4980    5.7300   23.1230 C   0  0  0  0  0  0  0  0  0  0  0  0
    7.2770   -5.0900   28.6350 C   0  0  0  0  0  0  0  0  0  0  0  0
    5.5010   -6.0780   27.5670 C   0  0  0  0  0  0  0  0  0  0  0  0
  1  2  1  0
  2  3  2  0
  1  4  1  0
  1  5  1  0
  1  6  1  1
  4  7  1  6
  4  8  1  0
  6  9  2  0
  6 10  1  0
  2 11  1  0
 12  5  1  1
 11 12  1  0
 11 13  1  6
  7 14  1  0
  7 15  2  0
  8 16  2  0
  8 17  1  0
 10 18  2  0
  9 19  1  0
 12 20  1  0
 11 21  1  0
 17 22  2  0
 16 23  1  0
 18 24  1  0
 19 24  2  0
 14 25  1  0
 20 26  1  0
 21 27  1  0
 26 27  1  0
 24 28  1  0
 26 29  1  1
 22 30  1  0
 23 30  2  0
 25 31  2  0
 25 32  1  0
 31 33  1  0
 32 34  1  0
 28 35  1  0
 28 36  1  0
 28 37  1  0
 29 38  1  0
 29 39  2  0
 31 40  1  0
 32 41  2  0
 33 42  1  0
 38 43  1  0
 38 44  1  0
 40 45  2  0
 41 45  1  0
 43 46  1  0
 43 47  1  0
M  END
