x3124-x0540
     RDKit          3D

 37 39  0  0  0  0  0  0  0  0999 V2000
    6.6170   -1.4200   21.9950 N   0  0  0  0  0  0  0  0  0  0  0  0
    5.9390   -2.6870   21.6370 C   0  0  0  0  0  0  0  0  0  0  0  0
    4.7210   -2.9170   21.2630 O   0  0  0  0  0  0  0  0  0  0  0  0
    6.2190   -0.0510   21.7330 C   0  0  2  0  0  0  0  0  0  0  0  0
    7.9860   -1.5360   22.4950 C   0  0  0  0  0  0  0  0  0  0  0  0
    6.7640   -3.9490   21.7210 C   0  0  0  0  0  0  0  0  0  0  0  0
    7.3350    0.8050   22.0000 C   0  0  0  0  0  0  0  0  0  0  0  0
    5.0720    0.3850   22.7240 C   0  0  0  0  0  0  0  0  0  0  0  0
    5.8550    0.3070   20.3410 C   0  0  0  0  0  0  0  0  0  0  0  0
    9.2130   -1.5170   21.5820 C   0  0  0  0  0  0  0  0  0  0  0  0
    8.2800   -1.6760   23.8700 C   0  0  0  0  0  0  0  0  0  0  0  0
    6.6680   -4.6900   20.3760 C   0  0  0  0  0  0  0  0  0  0  0  0
    7.2520    1.6330   23.2330 N   0  0  0  0  0  0  0  0  0  0  0  0
    8.2270    0.7870   21.1580 O   0  0  0  0  0  0  0  0  0  0  0  0
    4.3690    1.5970   22.7240 N   0  0  0  0  0  0  0  0  0  0  0  0
    4.6860    1.0270   20.0670 C   0  0  0  0  0  0  0  0  0  0  0  0
    6.7370   -0.0730   19.3120 C   0  0  0  0  0  0  0  0  0  0  0  0
   10.6170   -1.6460   22.1920 C   0  0  0  0  0  0  0  0  0  0  0  0
    9.5890   -1.7890   24.3850 C   0  0  0  0  0  0  0  0  0  0  0  0
    7.8340    2.9080   23.2210 C   0  0  0  0  0  0  0  0  0  0  0  0
    3.1830    1.8830   23.5180 C   0  0  0  0  0  0  0  0  0  0  0  0
    6.4320    0.2950   18.0360 N   0  0  0  0  0  0  0  0  0  0  0  0
    4.4170    1.3790   18.7650 C   0  0  0  0  0  0  0  0  0  0  0  0
   10.7280   -1.7740   23.5710 C   0  0  0  0  0  0  0  0  0  0  0  0
   12.1210   -1.9080   24.2150 C   0  0  0  0  0  0  0  0  0  0  0  0
    3.0020    1.2380   24.5450 O   0  0  0  0  0  0  0  0  0  0  0  0
    2.3060    2.8620   23.0890 N   0  0  0  0  0  0  0  0  0  0  0  0
    5.3150    0.9980   17.8080 C   0  0  0  0  0  0  0  0  0  0  0  0
   12.4220   -0.7440   24.9330 C   0  0  0  0  0  0  0  0  0  0  0  0
   13.2240   -2.1500   23.1690 C   0  0  0  0  0  0  0  0  0  0  0  0
   12.0920   -3.0940   25.1750 C   0  0  0  0  0  0  0  0  0  0  0  0
    1.0800    3.0830   23.7800 C   0  0  0  0  0  0  0  0  0  0  0  0
    0.9990    4.3920   24.3030 C   0  0  0  0  0  0  0  0  0  0  0  0
   -0.0450    2.6980   23.0230 C   0  0  0  0  0  0  0  0  0  0  0  0
   -0.2160    4.7750   24.8840 C   0  0  0  0  0  0  0  0  0  0  0  0
   -1.2750    3.0930   23.5860 C   0  0  0  0  0  0  0  0  0  0  0  0
   -1.3270    4.4020   24.1090 C   0  0  0  0  0  0  0  0  0  0  0  0
  1  2  1  0
  2  3  2  0
  1  4  1  0
  1  5  1  0
  2  6  1  0
  4  7  1  0
  4  8  1  1
  4  9  1  0
  5 10  2  0
  5 11  1  0
  6 12  1  0
  7 13  1  0
  7 14  2  0
  8 15  1  0
  9 16  2  0
  9 17  1  0
 10 18  1  0
 11 19  2  0
 13 20  1  0
 15 21  1  0
 17 22  2  0
 16 23  1  0
 18 24  2  0
 19 24  1  0
 24 25  1  0
 21 26  2  0
 21 27  1  0
 22 28  1  0
 23 28  2  0
 25 29  1  0
 25 30  1  0
 25 31  1  0
 27 32  1  0
 32 33  1  0
 32 34  1  0
 33 35  1  0
 34 36  1  0
 35 37  1  0
 36 37  1  0
M  END
