x3124-x1458
     RDKit          3D

 39 42  0  0  0  0  0  0  0  0999 V2000
    6.8750   -1.6250   21.7750 C   0  0  1  0  0  0  0  0  0  0  0  0
    5.8570   -2.8160   21.1310 C   0  0  0  0  0  0  0  0  0  0  0  0
    4.8190   -2.9580   20.4550 O   0  0  0  0  0  0  0  0  0  0  0  0
    6.5340   -0.1540   21.6450 C   0  0  1  0  0  0  0  0  0  0  0  0
    6.4260   -2.3120   23.0180 C   0  0  0  0  0  0  0  0  0  0  0  0
    8.3820   -1.7170   22.2820 C   0  0  0  0  0  0  0  0  0  0  0  0
    7.5450    0.7780   22.0100 C   0  0  0  0  0  0  0  0  0  0  0  0
    6.0730    0.3110   20.3020 C   0  0  0  0  0  0  0  0  0  0  0  0
    9.5190   -2.2570   21.6770 C   0  0  0  0  0  0  0  0  0  0  0  0
    8.6440   -1.1770   23.5650 C   0  0  0  0  0  0  0  0  0  0  0  0
    6.4450   -4.1120   21.6680 C   0  0  2  0  0  0  0  0  0  0  0  0
    7.2830   -3.5740   22.7740 C   0  0  2  0  0  0  0  0  0  0  0  0
    7.0040   -5.0170   20.5530 C   0  0  0  0  0  0  0  0  0  0  0  0
    7.5070    1.4650   23.2770 N   0  0  0  0  0  0  0  0  0  0  0  0
    8.3980    0.9490   21.1450 O   0  0  0  0  0  0  0  0  0  0  0  0
    4.8200    1.2010   20.1670 C   0  0  0  0  0  0  0  0  0  0  0  0
    6.7870   -0.0140   18.9490 C   0  0  0  0  0  0  0  0  0  0  0  0
   10.7930   -2.2560   22.2740 C   0  0  0  0  0  0  0  0  0  0  0  0
    9.8960   -1.1860   24.1420 C   0  0  0  0  0  0  0  0  0  0  0  0
    7.2630   -4.2340   24.0890 C   0  0  0  0  0  0  0  0  0  0  0  0
    5.4120   -5.0980   22.2510 C   0  0  0  0  0  0  0  0  0  0  0  0
    8.5620    2.4200   23.6880 C   0  0  0  0  0  0  0  0  0  0  0  0
    6.3290    0.4690   17.7810 N   0  0  0  0  0  0  0  0  0  0  0  0
    4.4460    1.6340   18.9070 C   0  0  0  0  0  0  0  0  0  0  0  0
   11.0200   -1.7110   23.5430 C   0  0  0  0  0  0  0  0  0  0  0  0
    6.0270   -4.6390   24.4730 C   0  0  2  0  0  0  0  0  0  0  0  0
    5.0280   -4.8250   23.5430 C   0  0  0  0  0  0  0  0  0  0  0  0
   12.4070   -1.7140   24.1500 C   0  0  0  0  0  0  0  0  0  0  0  0
    5.6250   -3.7100   25.6100 C   0  0  0  0  0  0  0  0  0  0  0  0
    5.2140    1.2550   17.7900 C   0  0  0  0  0  0  0  0  0  0  0  0
   12.5470   -0.6140   24.9870 C   0  0  0  0  0  0  0  0  0  0  0  0
   13.3770   -1.5720   22.9950 C   0  0  0  0  0  0  0  0  0  0  0  0
   12.8400   -2.9520   24.9350 C   0  0  0  0  0  0  0  0  0  0  0  0
    6.4240   -3.7110   26.7480 N   0  0  0  0  0  0  0  0  0  0  0  0
    4.6290   -2.9990   25.5110 O   0  0  0  0  0  0  0  0  0  0  0  0
    6.6260   -5.0280   27.3760 C   0  0  0  0  0  0  0  0  0  0  0  0
    6.6940   -2.5520   27.4740 C   0  0  0  0  0  0  0  0  0  0  0  0
    7.4310   -5.0230   28.6650 C   0  0  0  0  0  0  0  0  0  0  0  0
    5.4440   -5.7160   27.4830 C   0  0  0  0  0  0  0  0  0  0  0  0
  1  2  1  0
  2  3  2  0
  1  4  1  0
  1  5  1  0
  1  6  1  6
  4  7  1  6
  4  8  1  0
  6  9  2  0
  6 10  1  0
  2 11  1  0
 12  5  1  1
 11 12  1  0
 11 13  1  6
  7 14  1  0
  7 15  2  0
  8 16  2  0
  8 17  1  0
  9 18  1  0
 10 19  2  0
 12 20  1  0
 11 21  1  0
 14 22  1  0
 17 23  2  0
 16 24  1  0
 18 25  2  0
 19 25  1  0
 20 26  1  0
 21 27  1  0
 26 27  1  0
 25 28  1  0
 26 29  1  1
 23 30  1  0
 24 30  2  0
 28 31  1  0
 28 32  1  0
 28 33  1  0
 29 34  1  0
 29 35  2  0
 34 36  1  0
 34 37  1  0
 36 38  1  0
 36 39  1  0
M  END
