x3124-x1077
     RDKit          3D

 34 36  0  0  0  0  0  0  0  0999 V2000
    6.8850   -1.6740   21.9420 N   0  0  0  0  0  0  0  0  0  0  0  0
    6.1020   -2.8380   21.4640 C   0  0  0  0  0  0  0  0  0  0  0  0
    4.7960   -3.0780   21.4310 O   0  0  0  0  0  0  0  0  0  0  0  0
    6.4590   -0.3330   21.7190 C   0  0  1  0  0  0  0  0  0  0  0  0
    8.1930   -1.8000   22.6120 C   0  0  0  0  0  0  0  0  0  0  0  0
    6.9340   -3.9260   20.8960 C   0  0  0  0  0  0  0  0  0  0  0  0
    7.4980    0.6040   22.0070 C   0  0  0  0  0  0  0  0  0  0  0  0
    5.9830    0.1260   20.3820 C   0  0  0  0  0  0  0  0  0  0  0  0
    9.2650   -1.4630   21.7360 C   0  0  0  0  0  0  0  0  0  0  0  0
    8.5730   -2.1610   23.9210 C   0  0  0  0  0  0  0  0  0  0  0  0
    7.2590   -3.4320   19.4950 C   0  0  0  0  0  0  0  0  0  0  0  0
    7.3290    1.3710   23.2720 N   0  0  0  0  0  0  0  0  0  0  0  0
    8.3770    0.7160   21.1610 O   0  0  0  0  0  0  0  0  0  0  0  0
    4.7680    0.8200   20.3010 C   0  0  0  0  0  0  0  0  0  0  0  0
    6.7270   -0.0820   19.2090 C   0  0  0  0  0  0  0  0  0  0  0  0
   10.6230   -1.4550   22.1340 C   0  0  0  0  0  0  0  0  0  0  0  0
   10.0280   -2.1420   24.3880 C   0  0  0  0  0  0  0  0  0  0  0  0
    7.7540   -2.6200   25.0960 C   0  0  0  0  0  0  0  0  0  0  0  0
    7.7700    2.7010   23.3210 C   0  0  0  0  0  0  0  0  0  0  0  0
    6.4170    0.3240   17.9580 N   0  0  0  0  0  0  0  0  0  0  0  0
    4.3730    1.2750   19.0600 C   0  0  0  0  0  0  0  0  0  0  0  0
   11.0380   -1.8030   23.5660 C   0  0  0  0  0  0  0  0  0  0  0  0
    8.6210   -3.6420   25.7940 N   0  0  0  0  0  0  0  0  0  0  0  0
   12.4780   -1.7660   24.0570 C   0  0  0  0  0  0  0  0  0  0  0  0
    5.2180    1.0300   17.8370 C   0  0  0  0  0  0  0  0  0  0  0  0
    9.3400   -4.6260   24.8990 C   0  0  0  0  0  0  0  0  0  0  0  0
    8.0740   -4.2490   26.8570 C   0  0  0  0  0  0  0  0  0  0  0  0
   12.7190   -0.5310   24.6620 C   0  0  0  0  0  0  0  0  0  0  0  0
   13.3860   -1.9600   22.8620 C   0  0  0  0  0  0  0  0  0  0  0  0
   12.8320   -2.8650   25.0810 C   0  0  0  0  0  0  0  0  0  0  0  0
    8.4990   -5.1350   23.9480 C   0  0  0  0  0  0  0  0  0  0  0  0
    6.8280   -4.8080   26.5950 C   0  0  0  0  0  0  0  0  0  0  0  0
    6.5780   -4.8660   25.1880 O   0  0  0  0  0  0  0  0  0  0  0  0
    7.4290   -5.7050   24.5990 C   0  0  0  0  0  0  0  0  0  0  0  0
  1  2  1  0
  2  3  2  0
  1  4  1  0
  1  5  1  0
  2  6  1  0
  4  7  1  6
  4  8  1  0
  5  9  2  0
  5 10  1  0
  6 11  1  0
  7 12  1  0
  7 13  2  0
  8 14  2  0
  8 15  1  0
  9 16  1  0
 10 17  2  0
 10 18  1  0
 12 19  1  0
 15 20  2  0
 14 21  1  0
 16 22  2  0
 17 22  1  0
 18 23  1  0
 22 24  1  0
 20 25  1  0
 21 25  2  0
 23 26  1  0
 23 27  1  0
 24 28  1  0
 24 29  1  0
 24 30  1  0
 26 31  1  0
 27 32  1  0
 32 33  1  0
 31 34  1  0
 33 34  1  0
M  END
