x3124-x0771-x3113
     RDKit          3D

 48 52  0  0  0  0  0  0  0  0999 V2000
    6.8260   -1.5760   21.9900 C   0  0  1  0  0  0  0  0  0  0  0  0
    5.8760   -2.5440   21.0760 C   0  0  0  0  0  0  0  0  0  0  0  0
    4.7040   -2.9620   21.3790 O   0  0  0  0  0  0  0  0  0  0  0  0
    6.5740   -0.1080   21.7950 C   0  0  1  0  0  0  0  0  0  0  0  0
    6.4700   -2.5250   23.1150 C   0  0  0  0  0  0  0  0  0  0  0  0
    8.3460   -1.7300   22.4600 C   0  0  0  0  0  0  0  0  0  0  0  0
    6.3480   -3.1170   19.8380 C   0  0  0  0  0  0  0  0  0  0  0  0
    7.8030    0.8670   21.9790 C   0  0  0  0  0  0  0  0  0  0  0  0
    6.1750    0.2940   20.3850 C   0  0  0  0  0  0  0  0  0  0  0  0
    9.5280   -2.1730   21.6760 C   0  0  0  0  0  0  0  0  0  0  0  0
    8.7480   -1.4240   23.7790 C   0  0  0  0  0  0  0  0  0  0  0  0
    7.2330   -3.9340   22.9280 C   0  0  2  0  0  0  0  0  0  0  0  0
    7.4970   -3.8740   20.3590 C   0  0  0  0  0  0  0  0  0  0  0  0
    8.2980    1.2540   23.2900 N   0  0  0  0  0  0  0  0  0  0  0  0
    8.3710    1.3470   20.9770 O   0  0  0  0  0  0  0  0  0  0  0  0
    5.0360    1.0730   20.2760 C   0  0  0  0  0  0  0  0  0  0  0  0
    6.8230   -0.0310   19.3050 C   0  0  0  0  0  0  0  0  0  0  0  0
   10.8790   -2.2820   22.1290 C   0  0  0  0  0  0  0  0  0  0  0  0
   10.1410   -1.5160   24.3380 C   0  0  0  0  0  0  0  0  0  0  0  0
    7.1810   -4.6960   21.6230 N   0  0  0  0  0  0  0  0  0  0  0  0
    6.9850   -4.7660   24.1360 C   0  0  0  0  0  0  0  0  0  0  0  0
    9.0450    2.5410   23.4890 C   0  0  0  0  0  0  0  0  0  0  0  0
    6.4650    0.3490   18.0500 N   0  0  0  0  0  0  0  0  0  0  0  0
    4.6200    1.4940   19.0250 C   0  0  0  0  0  0  0  0  0  0  0  0
   11.2070   -1.9210   23.5820 C   0  0  0  0  0  0  0  0  0  0  0  0
    5.9980   -5.6250   21.6070 C   0  0  0  0  0  0  0  0  0  0  0  0
    5.8170   -5.6270   24.0100 N   0  0  0  0  0  0  0  0  0  0  0  0
   10.4330    2.3080   23.4070 C   0  0  0  0  0  0  0  0  0  0  0  0
   12.6110   -1.9870   24.1480 C   0  0  0  0  0  0  0  0  0  0  0  0
    4.9690   -5.8800   25.4850 S   0  0  0  0  0  0  0  0  0  0  0  0
    5.2610    1.1840   17.9180 C   0  0  0  0  0  0  0  0  0  0  0  0
    5.0920   -5.4460   22.6990 C   0  0  0  0  0  0  0  0  0  0  0  0
   11.0340    3.5760   23.2790 C   0  0  0  0  0  0  0  0  0  0  0  0
   13.5140   -2.0010   23.1200 C   0  0  0  0  0  0  0  0  0  0  0  0
   12.7650   -3.0000   25.0770 C   0  0  0  0  0  0  0  0  0  0  0  0
   12.7560   -0.6750   24.9220 C   0  0  0  0  0  0  0  0  0  0  0  0
    4.2800   -7.1440   25.4070 O   0  0  0  0  0  0  0  0  0  0  0  0
    5.9190   -5.6380   26.5500 O   0  0  0  0  0  0  0  0  0  0  0  0
    3.7430   -4.5850   25.6430 C   0  0  0  0  0  0  0  0  0  0  0  0
   12.2410    3.4000   22.6670 O   0  0  0  0  0  0  0  0  0  0  0  0
    2.3800   -4.7650   25.3660 C   0  0  0  0  0  0  0  0  0  0  0  0
    4.1520   -3.1800   26.1210 C   0  0  0  0  0  0  0  0  0  0  0  0
   13.0300    4.5900   22.6730 C   0  0  0  0  0  0  0  0  0  0  0  0
    1.8700   -6.0970   24.8900 C   0  0  0  0  0  0  0  0  0  0  0  0
    1.3010   -3.6670   25.5190 C   0  0  0  0  0  0  0  0  0  0  0  0
    3.0530   -2.1330   26.2560 C   0  0  0  0  0  0  0  0  0  0  0  0
    1.7250   -2.4160   25.9630 C   0  0  0  0  0  0  0  0  0  0  0  0
    0.6940   -1.3380   26.1300 C   0  0  0  0  0  0  0  0  0  0  0  0
  1  2  1  0
  2  3  2  0
  1  4  1  0
  1  5  1  0
  1  6  1  6
  2  7  1  0
  4  8  1  6
  4  9  1  0
  6 10  2  0
  6 11  1  0
 12  5  1  6
  7 13  1  0
  8 14  1  0
  8 15  2  0
  9 16  2  0
  9 17  1  0
 10 18  1  0
 11 19  2  0
 12 20  1  0
 13 20  1  0
 12 21  1  0
 14 22  1  0
 17 23  2  0
 16 24  1  0
 18 25  2  0
 19 25  1  0
 20 26  1  0
 21 27  1  0
 22 28  1  0
 25 29  1  0
 27 30  1  0
 23 31  1  0
 24 31  2  0
 26 32  1  0
 27 32  1  0
 28 33  1  0
 29 34  1  0
 29 35  1  0
 29 36  1  0
 30 37  2  0
 30 38  2  0
 30 39  1  0
 33 40  1  0
 39 41  2  0
 39 42  1  0
 40 43  1  0
 41 44  1  0
 41 45  1  0
 42 46  2  0
 45 47  2  0
 46 47  1  0
 47 48  1  0
M  END
