x3124-x0771
     RDKit          3D

 44 48  0  0  0  0  0  0  0  0999 V2000
    6.7570   -1.4540   22.0960 C   0  0  1  0  0  0  0  0  0  0  0  0
    5.8390   -2.4210   21.2620 C   0  0  0  0  0  0  0  0  0  0  0  0
    4.7540   -3.0430   21.3910 O   0  0  0  0  0  0  0  0  0  0  0  0
    6.3960    0.0210   21.9330 C   0  0  1  0  0  0  0  0  0  0  0  0
    6.3530   -2.3320   23.2070 C   0  0  0  0  0  0  0  0  0  0  0  0
    8.2880   -1.6220   22.4670 C   0  0  0  0  0  0  0  0  0  0  0  0
    6.6230   -2.5680   20.0920 C   0  0  0  0  0  0  0  0  0  0  0  0
    7.4310    0.9320   22.2120 C   0  0  0  0  0  0  0  0  0  0  0  0
    6.0230    0.3850   20.5150 C   0  0  0  0  0  0  0  0  0  0  0  0
    9.2920   -2.0900   21.6660 C   0  0  0  0  0  0  0  0  0  0  0  0
    8.6650   -1.2360   23.7740 C   0  0  0  0  0  0  0  0  0  0  0  0
    7.0550   -3.7570   22.8880 C   0  0  2  0  0  0  0  0  0  0  0  0
    6.9110   -4.0230   20.1420 C   0  0  0  0  0  0  0  0  0  0  0  0
    7.4930    1.6450   23.4290 N   0  0  0  0  0  0  0  0  0  0  0  0
    8.3170    1.1400   21.3680 O   0  0  0  0  0  0  0  0  0  0  0  0
    4.8420    1.1120   20.3140 C   0  0  0  0  0  0  0  0  0  0  0  0
    6.7770    0.0810   19.2180 C   0  0  0  0  0  0  0  0  0  0  0  0
   10.7930   -2.1960   22.1350 C   0  0  0  0  0  0  0  0  0  0  0  0
    9.9590   -1.3060   24.2530 C   0  0  0  0  0  0  0  0  0  0  0  0
    6.7380   -4.5260   21.5950 N   0  0  0  0  0  0  0  0  0  0  0  0
    6.8960   -4.5820   23.9990 C   0  0  0  0  0  0  0  0  0  0  0  0
    8.6440    2.5090   23.7240 C   0  0  0  0  0  0  0  0  0  0  0  0
    6.3810    0.4630   17.9910 N   0  0  0  0  0  0  0  0  0  0  0  0
    4.4290    1.5130   19.0320 C   0  0  0  0  0  0  0  0  0  0  0  0
   11.0110   -1.7720   23.4530 C   0  0  0  0  0  0  0  0  0  0  0  0
    6.1730   -5.8950   21.7750 C   0  0  0  0  0  0  0  0  0  0  0  0
    5.5350   -5.1640   24.0200 N   0  0  0  0  0  0  0  0  0  0  0  0
   12.4380   -1.7880   24.0620 C   0  0  0  0  0  0  0  0  0  0  0  0
    4.9630   -5.6560   25.5670 S   0  0  0  0  0  0  0  0  0  0  0  0
    5.1550    1.2190   17.8760 C   0  0  0  0  0  0  0  0  0  0  0  0
    5.2860   -6.0820   22.8600 C   0  0  0  0  0  0  0  0  0  0  0  0
   12.6890   -0.6300   24.7500 C   0  0  0  0  0  0  0  0  0  0  0  0
   13.4420   -1.9520   22.9310 C   0  0  0  0  0  0  0  0  0  0  0  0
   12.7460   -2.9450   25.0070 C   0  0  0  0  0  0  0  0  0  0  0  0
    4.4290   -7.0020   25.4520 O   0  0  0  0  0  0  0  0  0  0  0  0
    5.9350   -5.3050   26.5740 O   0  0  0  0  0  0  0  0  0  0  0  0
    3.6500   -4.4660   25.7270 C   0  0  0  0  0  0  0  0  0  0  0  0
    2.2900   -4.6920   25.4350 C   0  0  0  0  0  0  0  0  0  0  0  0
    4.0150   -3.0340   26.2320 C   0  0  0  0  0  0  0  0  0  0  0  0
    1.8080   -6.0250   24.9380 C   0  0  0  0  0  0  0  0  0  0  0  0
    1.3220   -3.6990   25.5890 C   0  0  0  0  0  0  0  0  0  0  0  0
    2.9760   -2.1270   26.3470 C   0  0  0  0  0  0  0  0  0  0  0  0
    1.6470   -2.4210   26.0420 C   0  0  0  0  0  0  0  0  0  0  0  0
    0.5860   -1.3770   26.2000 C   0  0  0  0  0  0  0  0  0  0  0  0
  1  2  1  0
  2  3  2  0
  1  4  1  0
  1  5  1  0
  1  6  1  6
  2  7  1  0
  4  8  1  6
  4  9  1  0
  6 10  2  0
  6 11  1  0
 12  5  1  1
  7 13  1  0
  8 14  1  0
  8 15  2  0
  9 16  2  0
  9 17  1  0
 10 18  1  0
 11 19  2  0
 12 20  1  0
 13 20  1  0
 12 21  1  0
 14 22  1  0
 17 23  2  0
 16 24  1  0
 18 25  2  0
 19 25  1  0
 20 26  1  0
 21 27  1  0
 25 28  1  0
 27 29  1  0
 23 30  1  0
 24 30  2  0
 26 31  1  0
 27 31  1  0
 28 32  1  0
 28 33  1  0
 28 34  1  0
 29 35  2  0
 29 36  2  0
 29 37  1  0
 37 38  2  0
 37 39  1  0
 38 40  1  0
 38 41  1  0
 39 42  2  0
 41 43  2  0
 42 43  1  0
 43 44  1  0
M  END
