x3124-x0426
     RDKit          3D

 38 40  0  0  0  0  0  0  0  0999 V2000
    6.8720   -1.6560   21.8680 N   0  0  0  0  0  0  0  0  0  0  0  0
    6.0860   -2.8890   21.6660 C   0  0  0  0  0  0  0  0  0  0  0  0
    4.8470   -3.0480   21.2440 O   0  0  0  0  0  0  0  0  0  0  0  0
    6.4230   -0.3320   21.7500 C   0  0  1  0  0  0  0  0  0  0  0  0
    8.2080   -1.7120   22.4490 C   0  0  0  0  0  0  0  0  0  0  0  0
    6.8260   -4.1670   21.9890 C   0  0  0  0  0  0  0  0  0  0  0  0
    7.4990    0.5860   22.0190 C   0  0  0  0  0  0  0  0  0  0  0  0
    5.9890    0.1320   20.3720 C   0  0  0  0  0  0  0  0  0  0  0  0
    9.2580   -2.0330   21.6080 C   0  0  0  0  0  0  0  0  0  0  0  0
    8.4630   -1.4370   23.7950 C   0  0  0  0  0  0  0  0  0  0  0  0
    6.8410   -5.1030   20.7690 C   0  0  0  0  0  0  0  0  0  0  0  0
    7.4430    1.2880   23.3400 N   0  0  0  0  0  0  0  0  0  0  0  0
    8.3260    0.7080   21.1240 O   0  0  0  0  0  0  0  0  0  0  0  0
    4.8010    0.8690   20.2270 C   0  0  0  0  0  0  0  0  0  0  0  0
    6.8010   -0.1380   19.1290 C   0  0  0  0  0  0  0  0  0  0  0  0
   10.5760   -2.0850   22.0380 C   0  0  0  0  0  0  0  0  0  0  0  0
    9.7830   -1.4600   24.3350 C   0  0  0  0  0  0  0  0  0  0  0  0
    8.3980    2.2660   23.6790 C   0  0  0  0  0  0  0  0  0  0  0  0
    3.7950    1.2750   21.2950 C   0  0  0  0  0  0  0  0  0  0  0  0
    6.3560    0.3730   17.8370 N   0  0  0  0  0  0  0  0  0  0  0  0
    4.4270    1.3310   18.9650 C   0  0  0  0  0  0  0  0  0  0  0  0
   10.9080   -1.7630   23.5480 C   0  0  0  0  0  0  0  0  0  0  0  0
   12.3140   -1.7630   24.1090 C   0  0  0  0  0  0  0  0  0  0  0  0
    4.2780    1.9370   22.4280 C   0  0  0  0  0  0  0  0  0  0  0  0
    5.2070    1.0760   17.8370 C   0  0  0  0  0  0  0  0  0  0  0  0
   12.5010   -0.6010   24.8640 C   0  0  0  0  0  0  0  0  0  0  0  0
   13.3180   -1.7650   22.9600 C   0  0  0  0  0  0  0  0  0  0  0  0
   12.7210   -2.9440   24.9840 C   0  0  0  0  0  0  0  0  0  0  0  0
    3.2440    2.4580   23.1030 N   0  0  0  0  0  0  0  0  0  0  0  0
    2.2190    1.7910   23.8000 C   0  0  0  0  0  0  0  0  0  0  0  0
    2.1630    0.5600   23.8130 O   0  0  0  0  0  0  0  0  0  0  0  0
    1.1950    2.5660   24.5250 C   0  0  0  0  0  0  0  0  0  0  0  0
    1.5510    3.7580   25.1770 C   0  0  0  0  0  0  0  0  0  0  0  0
   -0.1120    2.0750   24.5360 C   0  0  0  0  0  0  0  0  0  0  0  0
    2.8090    4.2280   25.1680 F   0  0  0  0  0  0  0  0  0  0  0  0
   -1.1350    2.7490   25.1990 C   0  0  0  0  0  0  0  0  0  0  0  0
    0.4650    4.5380   25.9210 C   0  0  0  0  0  0  0  0  0  0  0  0
   -0.8600    4.0790   25.9550 C   0  0  0  0  0  0  0  0  0  0  0  0
  1  2  1  0
  2  3  2  0
  1  4  1  0
  1  5  1  0
  2  6  1  0
  4  7  1  6
  4  8  1  0
  5  9  2  0
  5 10  1  0
  6 11  1  0
  7 12  1  0
  7 13  2  0
  8 14  1  0
  8 15  2  0
  9 16  1  0
 10 17  2  0
 12 18  1  0
 14 19  1  0
 15 20  1  0
 14 21  2  0
 16 22  2  0
 17 22  1  0
 22 23  1  0
 19 24  1  0
 20 25  2  0
 21 25  1  0
 23 26  1  0
 23 27  1  0
 23 28  1  0
 24 29  1  0
 29 30  1  0
 30 31  2  0
 30 32  1  0
 32 33  2  0
 32 34  1  0
 33 35  1  0
 34 36  2  0
 33 37  1  0
 36 38  1  0
 37 38  2  0
M  END
