x3124-x0769
     RDKit          3D

 43 46  0  0  0  0  0  0  0  0999 V2000
    6.5790   -1.1200   22.3440 C   0  0  1  0  0  0  0  0  0  0  0  0
    5.8370   -2.3960   21.6450 C   0  0  0  0  0  0  0  0  0  0  0  0
    4.6960   -2.9670   21.4010 O   0  0  0  0  0  0  0  0  0  0  0  0
    6.5160    0.2970   21.7830 C   0  0  1  0  0  0  0  0  0  0  0  0
    5.6290   -1.3920   23.5230 C   0  0  0  0  0  0  0  0  0  0  0  0
    8.0910   -1.3190   22.6830 C   0  0  0  0  0  0  0  0  0  0  0  0
    7.1030   -2.9750   21.2190 C   0  0  0  0  0  0  0  0  0  0  0  0
    7.6220    1.1470   21.9590 C   0  0  0  0  0  0  0  0  0  0  0  0
    6.1270    0.5210   20.3450 C   0  0  0  0  0  0  0  0  0  0  0  0
    9.2190   -1.5010   21.6330 C   0  0  0  0  0  0  0  0  0  0  0  0
    8.5630   -1.3240   24.0100 C   0  0  0  0  0  0  0  0  0  0  0  0
    6.9480   -4.2890   20.5230 C   0  0  0  0  0  0  0  0  0  0  0  0
    7.8280    1.7570   23.2180 N   0  0  0  0  0  0  0  0  0  0  0  0
    8.4210    1.3970   21.0350 O   0  0  0  0  0  0  0  0  0  0  0  0
    5.0290    1.3440   20.1380 C   0  0  0  0  0  0  0  0  0  0  0  0
    6.7590    0.0080   19.2090 C   0  0  0  0  0  0  0  0  0  0  0  0
   10.6610   -1.6650   22.1320 C   0  0  0  0  0  0  0  0  0  0  0  0
    9.8970   -1.4680   24.4030 C   0  0  0  0  0  0  0  0  0  0  0  0
    8.9400    2.6920   23.4130 C   0  0  0  0  0  0  0  0  0  0  0  0
    6.3460    0.2900   17.9090 N   0  0  0  0  0  0  0  0  0  0  0  0
    4.5730    1.6590   18.8890 C   0  0  0  0  0  0  0  0  0  0  0  0
   10.9260   -1.6360   23.4970 C   0  0  0  0  0  0  0  0  0  0  0  0
    6.9450   -5.3480   21.6050 N   0  0  0  0  0  0  0  0  0  0  0  0
   12.3260   -1.7660   24.0330 C   0  0  0  0  0  0  0  0  0  0  0  0
    5.2070    1.1580   17.7850 C   0  0  0  0  0  0  0  0  0  0  0  0
    5.6980   -6.1630   21.8200 C   0  0  0  0  0  0  0  0  0  0  0  0
    7.5180   -4.9840   22.9510 C   0  0  0  0  0  0  0  0  0  0  0  0
   12.5980   -0.6160   24.7360 C   0  0  0  0  0  0  0  0  0  0  0  0
   13.3270   -1.9190   22.8860 C   0  0  0  0  0  0  0  0  0  0  0  0
   12.6510   -2.9370   24.9600 C   0  0  0  0  0  0  0  0  0  0  0  0
    4.8330   -5.6430   22.8200 C   0  0  0  0  0  0  0  0  0  0  0  0
    6.6200   -4.4060   23.8480 C   0  0  0  0  0  0  0  0  0  0  0  0
    5.5590   -5.3810   24.1000 N   0  0  0  0  0  0  0  0  0  0  0  0
    4.7610   -5.3690   25.6420 S   0  0  0  0  0  0  0  0  0  0  0  0
    5.8020   -5.2240   26.6440 O   0  0  0  0  0  0  0  0  0  0  0  0
    3.8500   -6.4890   25.6860 O   0  0  0  0  0  0  0  0  0  0  0  0
    3.8200   -3.9310   25.7690 C   0  0  0  0  0  0  0  0  0  0  0  0
    4.3670   -2.6800   26.0870 C   0  0  0  0  0  0  0  0  0  0  0  0
    2.4500   -4.0960   25.5410 C   0  0  0  0  0  0  0  0  0  0  0  0
    5.6710   -2.4910   26.3150 F   0  0  0  0  0  0  0  0  0  0  0  0
    1.5960   -2.9980   25.6290 C   0  0  0  0  0  0  0  0  0  0  0  0
    3.4840   -1.5690   26.1710 C   0  0  0  0  0  0  0  0  0  0  0  0
    2.1110   -1.7390   25.9440 C   0  0  0  0  0  0  0  0  0  0  0  0
  1  2  1  0
  2  3  2  0
  1  4  1  0
  1  5  1  1
  1  6  1  0
  2  7  1  0
  4  8  1  6
  4  9  1  0
  6 10  2  0
  6 11  1  0
  7 12  1  0
  8 13  1  0
  8 14  2  0
  9 15  2  0
  9 16  1  0
 10 17  1  0
 11 18  2  0
 13 19  1  0
 16 20  2  0
 15 21  1  0
 17 22  2  0
 18 22  1  0
 12 23  1  0
 22 24  1  0
 20 25  1  0
 21 25  2  0
 23 26  1  0
 23 27  1  0
 24 28  1  0
 24 29  1  0
 24 30  1  0
 26 31  1  0
 27 32  1  0
 31 33  1  0
 32 33  1  0
 33 34  1  0
 34 35  2  0
 34 36  2  0
 34 37  1  0
 37 38  2  0
 37 39  1  0
 38 40  1  0
 39 41  2  0
 38 42  1  0
 41 43  1  0
 42 43  2  0
M  END
