x3124-x0195
     RDKit          3D

 40 43  0  0  0  0  0  0  0  0999 V2000
    6.8240   -1.6900   21.5900 N   0  0  0  0  0  0  0  0  0  0  0  0
    5.9960   -2.8850   21.4540 C   0  0  0  0  0  0  0  0  0  0  0  0
    4.7810   -2.9400   21.1010 O   0  0  0  0  0  0  0  0  0  0  0  0
    6.3510   -0.3570   21.5510 C   0  0  1  0  0  0  0  0  0  0  0  0
    7.9710   -1.8590   22.4290 C   0  0  1  0  0  0  0  0  0  0  0  0
    6.5960   -4.2550   21.7350 C   0  0  0  0  0  0  0  0  0  0  0  0
    7.2900    0.6440   21.8890 C   0  0  0  0  0  0  0  0  0  0  0  0
    5.9500    0.1540   20.1960 C   0  0  0  0  0  0  0  0  0  0  0  0
    9.0700   -2.4460   21.8350 C   0  0  0  0  0  0  0  0  0  0  0  0
    8.3420   -0.9400   23.4160 C   0  0  0  0  0  0  0  0  0  0  0  0
    6.6180   -5.0770   20.4390 C   0  0  0  0  0  0  0  0  0  0  0  0
    6.9140    1.4390   23.0950 N   0  0  0  0  0  0  0  0  0  0  0  0
    8.2650    0.7560   21.1490 O   0  0  0  0  0  0  0  0  0  0  0  0
    4.8320    0.9950   20.0980 C   0  0  0  0  0  0  0  0  0  0  0  0
    6.6800   -0.1610   19.0600 C   0  0  0  0  0  0  0  0  0  0  0  0
   10.4630   -2.5010   22.2650 C   0  0  0  0  0  0  0  0  0  0  0  0
    9.3370   -1.4010   24.2290 C   0  0  2  0  0  0  0  0  0  0  0  0
    7.6140    2.5960   23.4450 C   0  0  0  0  0  0  0  0  0  0  0  0
    9.4110   -0.2960   25.3140 C   0  0  0  0  0  0  0  0  0  0  0  0
    6.3290    0.3690   17.7480 N   0  0  0  0  0  0  0  0  0  0  0  0
    4.4440    1.5340   18.8860 C   0  0  0  0  0  0  0  0  0  0  0  0
   10.6710   -1.7490   23.4790 C   0  0  1  0  0  0  0  0  0  0  0  0
    5.1760    1.2310   17.7620 C   0  0  0  0  0  0  0  0  0  0  0  0
   11.6370   -2.3930   24.1050 N   0  0  0  0  0  0  0  0  0  0  0  0
   11.1860   -0.6620   22.5330 C   0  0  0  0  0  0  0  0  0  0  0  0
   12.8960   -1.7540   24.3290 C   0  0  0  0  0  0  0  0  0  0  0  0
   12.1860   -0.0290   23.0750 C   0  0  1  0  0  0  0  0  0  0  0  0
   12.7720   -0.8690   25.3500 C   0  0  0  0  0  0  0  0  0  0  0  0
   13.3500   -0.9170   23.1500 C   0  0  0  0  0  0  0  0  0  0  0  0
   13.7750   -2.8700   24.7980 C   0  0  0  0  0  0  0  0  0  0  0  0
   12.1470    1.3170   23.0960 C   0  0  0  0  0  0  0  0  0  0  0  0
   10.9310    1.6850   23.5650 C   0  0  0  0  0  0  0  0  0  0  0  0
   13.0830    2.2730   22.7410 C   0  0  0  0  0  0  0  0  0  0  0  0
   12.7150    3.6010   22.8700 C   0  0  0  0  0  0  0  0  0  0  0  0
   10.5190    2.9650   23.7260 C   0  0  0  0  0  0  0  0  0  0  0  0
   11.3240    4.0190   23.4060 C   0  0  0  0  0  0  0  0  0  0  0  0
   10.5640    5.6380   23.6970 S   0  0  0  0  0  0  0  0  0  0  0  0
   10.3780    5.8200   25.1200 O   0  0  0  0  0  0  0  0  0  0  0  0
    9.4480    5.7470   22.7920 O   0  0  0  0  0  0  0  0  0  0  0  0
   11.7710    6.6740   23.2050 N   0  0  0  0  0  0  0  0  0  0  0  0
  1  2  1  0
  2  3  2  0
  1  4  1  0
  5  1  1  6
  2  6  1  0
  4  7  1  6
  4  8  1  0
  5  9  1  0
  5 10  1  0
  6 11  1  0
  7 12  1  0
  7 13  2  0
  8 14  2  0
  8 15  1  0
  9 16  2  0
 10 17  1  0
 12 18  1  0
 17 19  1  1
 15 20  2  0
 14 21  1  0
 22 16  1  6
 17 22  1  0
 20 23  1  0
 21 23  2  0
 22 24  1  0
 22 25  1  0
 24 26  1  0
 25 27  1  0
 26 28  1  0
 26 29  1  0
 27 29  1  0
 26 30  1  0
 27 31  1  6
 31 32  2  0
 31 33  1  0
 33 34  2  0
 32 35  1  0
 34 36  1  0
 35 36  2  0
 36 37  1  0
 37 38  2  0
 37 39  2  0
 37 40  1  0
M  END
