x3124-x0978
     RDKit          3D

 37 38  0  0  0  0  0  0  0  0999 V2000
    6.8510   -1.8010   21.9690 N   0  0  0  0  0  0  0  0  0  0  0  0
    5.9880   -2.9850   21.6590 C   0  0  0  0  0  0  0  0  0  0  0  0
    4.7480   -2.9730   21.3200 O   0  0  0  0  0  0  0  0  0  0  0  0
    6.4550   -0.4500   21.7910 C   0  0  1  0  0  0  0  0  0  0  0  0
    8.1350   -1.8540   22.5170 C   0  0  0  0  0  0  0  0  0  0  0  0
    6.5200   -4.4150   21.6780 C   0  0  2  0  0  0  0  0  0  0  0  0
    7.5300    0.4520   22.0800 C   0  0  0  0  0  0  0  0  0  0  0  0
    6.0710    0.0350   20.4120 C   0  0  0  0  0  0  0  0  0  0  0  0
    9.2170   -2.0130   21.6560 C   0  0  0  0  0  0  0  0  0  0  0  0
    8.5350   -1.7380   23.8670 C   0  0  0  0  0  0  0  0  0  0  0  0
    6.4800   -4.8920   20.2220 C   0  0  0  0  0  0  0  0  0  0  0  0
    7.3650    1.3000   23.3020 N   0  0  0  0  0  0  0  0  0  0  0  0
    8.4460    0.4640   21.2650 O   0  0  0  0  0  0  0  0  0  0  0  0
    5.6760   -5.3800   22.5260 N   0  0  0  0  0  0  0  0  0  0  0  0
    4.8400    0.9570   20.2400 C   0  0  0  0  0  0  0  0  0  0  0  0
    6.8410   -0.2830   19.0910 C   0  0  0  0  0  0  0  0  0  0  0  0
   10.5750   -2.0510   22.0410 C   0  0  0  0  0  0  0  0  0  0  0  0
    9.8870   -1.7730   24.2400 C   0  0  0  0  0  0  0  0  0  0  0  0
    8.2240    2.3970   23.5150 C   0  0  0  0  0  0  0  0  0  0  0  0
    4.3710   -5.2020   23.1900 C   0  0  0  0  0  0  0  0  0  0  0  0
    6.3620    0.3100   17.8420 N   0  0  0  0  0  0  0  0  0  0  0  0
    4.4710    1.4670   18.9960 C   0  0  0  0  0  0  0  0  0  0  0  0
   10.9560   -1.9250   23.3790 C   0  0  0  0  0  0  0  0  0  0  0  0
   12.4210   -1.9500   23.7920 C   0  0  0  0  0  0  0  0  0  0  0  0
    3.3130   -6.3130   23.3540 C   0  0  2  0  0  0  0  0  0  0  0  0
    4.1670   -4.0720   23.6160 O   0  0  0  0  0  0  0  0  0  0  0  0
    5.1820    1.1850   17.8110 C   0  0  0  0  0  0  0  0  0  0  0  0
   12.8510   -0.6630   24.0750 C   0  0  0  0  0  0  0  0  0  0  0  0
   13.2780   -2.4080   22.6320 C   0  0  0  0  0  0  0  0  0  0  0  0
   12.7680   -2.8600   24.9710 C   0  0  0  0  0  0  0  0  0  0  0  0
    2.1330   -5.6480   23.2380 N   0  0  0  0  0  0  0  0  0  0  0  0
    3.3520   -7.1800   24.4640 C   0  0  1  0  0  0  0  0  0  0  0  0
    2.1550   -8.1280   24.6020 C   0  0  0  0  0  0  0  0  0  0  0  0
    4.4550   -7.6900   24.4920 O   0  0  0  0  0  0  0  0  0  0  0  0
    0.9030   -6.1990   22.5980 C   0  0  0  0  0  0  0  0  0  0  0  0
    0.9070   -7.2790   22.0220 O   0  0  0  0  0  0  0  0  0  0  0  0
   -0.2950   -5.4800   22.6310 C   0  0  0  0  0  0  0  0  0  0  0  0
  1  2  1  0
  2  3  2  0
  1  4  1  0
  1  5  1  0
  2  6  1  0
  4  7  1  6
  4  8  1  0
  5  9  2  0
  5 10  1  0
  6 11  1  6
  7 12  1  0
  7 13  2  0
  6 14  1  0
  8 15  2  0
  8 16  1  0
  9 17  1  0
 10 18  2  0
 12 19  1  0
 14 20  1  0
 16 21  2  0
 15 22  1  0
 17 23  2  0
 18 23  1  0
 23 24  1  0
 20 25  1  0
 20 26  2  0
 21 27  1  0
 22 27  2  0
 24 28  1  0
 24 29  1  0
 24 30  1  0
 25 31  1  1
 25 32  1  0
 32 33  1  6
 32 34  1  0
 31 35  1  0
 35 36  2  0
 35 37  1  0
M  END
