x3124-x0691
     RDKit          3D

 44 48  0  0  0  0  0  0  0  0999 V2000
    6.7030   -1.3050   22.0700 C   0  0  1  0  0  0  0  0  0  0  0  0
    5.7820   -2.2900   21.2190 C   0  0  0  0  0  0  0  0  0  0  0  0
    4.6730   -2.8800   21.2170 O   0  0  0  0  0  0  0  0  0  0  0  0
    6.5350    0.1810   21.7650 C   0  0  1  0  0  0  0  0  0  0  0  0
    5.7680   -2.0150   23.0270 C   0  0  0  0  0  0  0  0  0  0  0  0
    8.1720   -1.4820   22.5530 C   0  0  0  0  0  0  0  0  0  0  0  0
    6.6650   -2.4780   20.1390 C   0  0  0  0  0  0  0  0  0  0  0  0
    7.6260    1.0480   21.9710 C   0  0  0  0  0  0  0  0  0  0  0  0
    5.6110   -3.4040   22.7290 C   0  0  0  0  0  0  0  0  0  0  0  0
    6.0420    0.5840   20.3890 C   0  0  0  0  0  0  0  0  0  0  0  0
    9.2190   -1.7510   21.6410 C   0  0  0  0  0  0  0  0  0  0  0  0
    8.5240   -1.3450   23.9110 C   0  0  0  0  0  0  0  0  0  0  0  0
    7.3420   -3.7390   20.4770 C   0  0  0  0  0  0  0  0  0  0  0  0
    7.8320    1.6130   23.2510 N   0  0  0  0  0  0  0  0  0  0  0  0
    8.4130    1.3560   21.0520 O   0  0  0  0  0  0  0  0  0  0  0  0
    4.8750    1.3050   20.1690 C   0  0  0  0  0  0  0  0  0  0  0  0
    6.7950    0.2430   19.1180 C   0  0  0  0  0  0  0  0  0  0  0  0
   10.5690   -1.8820   22.0040 C   0  0  0  0  0  0  0  0  0  0  0  0
    9.8430   -1.4470   24.3990 C   0  0  0  0  0  0  0  0  0  0  0  0
    6.5150   -4.4250   21.8020 C   0  0  0  0  0  0  0  0  0  0  0  0
    8.8530    2.6470   23.4480 C   0  0  0  0  0  0  0  0  0  0  0  0
    6.3880    0.6160   17.7730 N   0  0  0  0  0  0  0  0  0  0  0  0
    4.4800    1.6670   18.8970 C   0  0  0  0  0  0  0  0  0  0  0  0
   10.8730   -1.7010   23.5300 C   0  0  0  0  0  0  0  0  0  0  0  0
    5.6960   -5.5600   21.6610 C   0  0  0  0  0  0  0  0  0  0  0  0
    7.4820   -5.0020   22.8600 C   0  0  0  0  0  0  0  0  0  0  0  0
   12.3430   -1.7950   24.0340 C   0  0  0  0  0  0  0  0  0  0  0  0
    5.2140    1.3360   17.7620 C   0  0  0  0  0  0  0  0  0  0  0  0
    4.9630   -6.0140   22.8030 C   0  0  0  0  0  0  0  0  0  0  0  0
    6.9560   -5.1740   24.1430 C   0  0  0  0  0  0  0  0  0  0  0  0
   12.6050   -0.6310   24.7230 C   0  0  0  0  0  0  0  0  0  0  0  0
   13.3150   -1.9180   22.8600 C   0  0  0  0  0  0  0  0  0  0  0  0
   12.7260   -2.9400   24.9690 C   0  0  0  0  0  0  0  0  0  0  0  0
    5.5040   -5.4720   24.1050 N   0  0  0  0  0  0  0  0  0  0  0  0
    4.7580   -5.7100   25.4780 S   0  0  0  0  0  0  0  0  0  0  0  0
    4.0510   -6.9710   25.3470 O   0  0  0  0  0  0  0  0  0  0  0  0
    5.7090   -5.4760   26.5420 O   0  0  0  0  0  0  0  0  0  0  0  0
    3.5230   -4.4250   25.5800 C   0  0  0  0  0  0  0  0  0  0  0  0
    3.9460   -3.0850   25.7340 C   0  0  0  0  0  0  0  0  0  0  0  0
    2.1730   -4.7810   25.5150 C   0  0  0  0  0  0  0  0  0  0  0  0
    3.0490   -2.0020   25.8380 C   0  0  0  0  0  0  0  0  0  0  0  0
    1.0310   -3.7290   25.6110 C   0  0  0  0  0  0  0  0  0  0  0  0
    3.4690   -0.7360   25.9860 F   0  0  0  0  0  0  0  0  0  0  0  0
    1.5550   -2.2850   25.7830 C   0  0  0  0  0  0  0  0  0  0  0  0
  1  2  1  0
  2  3  2  0
  1  4  1  0
  1  5  1  0
  1  6  1  1
  2  7  1  0
  4  8  1  6
  5  9  1  0
  4 10  1  0
  6 11  2  0
  6 12  1  0
  7 13  1  0
  8 14  1  0
  8 15  2  0
 10 16  2  0
 10 17  1  0
 11 18  1  0
 12 19  2  0
 20  9  1  0
 13 20  1  0
 14 21  1  0
 17 22  2  0
 16 23  1  0
 18 24  2  0
 19 24  1  0
 20 25  1  0
 20 26  1  0
 24 27  1  0
 22 28  1  0
 23 28  2  0
 25 29  1  0
 26 30  1  0
 27 31  1  0
 27 32  1  0
 27 33  1  0
 29 34  1  0
 30 34  1  0
 34 35  1  0
 35 36  2  0
 35 37  2  0
 35 38  1  0
 38 39  2  0
 38 40  1  0
 39 41  1  0
 40 42  2  0
 41 43  1  0
 41 44  2  0
 42 44  1  0
M  END
