x3124-x2908
     RDKit          3D

 33 36  0  0  0  0  0  0  0  0999 V2000
    6.9000   -1.6640   21.7960 N   0  0  0  0  0  0  0  0  0  0  0  0
    6.0360   -2.8540   21.5540 C   0  0  0  0  0  0  0  0  0  0  0  0
    4.7780   -2.9550   21.2220 O   0  0  0  0  0  0  0  0  0  0  0  0
    6.4350   -0.3370   21.6330 C   0  0  1  0  0  0  0  0  0  0  0  0
    8.1070   -1.8220   22.5910 C   0  0  2  0  0  0  0  0  0  0  0  0
    6.6760   -4.2060   21.6870 C   0  0  0  0  0  0  0  0  0  0  0  0
    7.4140    0.6520   21.9640 C   0  0  0  0  0  0  0  0  0  0  0  0
    5.9960    0.1230   20.2980 C   0  0  0  0  0  0  0  0  0  0  0  0
    9.2090   -1.6090   21.7250 C   0  0  0  0  0  0  0  0  0  0  0  0
    8.3450   -2.8550   23.4790 C   0  0  0  0  0  0  0  0  0  0  0  0
    6.6300   -4.8710   20.3210 C   0  0  0  0  0  0  0  0  0  0  0  0
    7.3310    1.2180   23.3540 N   0  0  0  0  0  0  0  0  0  0  0  0
    8.1880    0.9590   21.0620 O   0  0  0  0  0  0  0  0  0  0  0  0
    4.8630    0.9310   20.2420 C   0  0  0  0  0  0  0  0  0  0  0  0
    6.6930   -0.1980   19.1310 C   0  0  0  0  0  0  0  0  0  0  0  0
   10.3750   -1.1940   22.3870 C   0  0  2  0  0  0  0  0  0  0  0  0
    9.7760   -2.8400   24.0590 C   0  0  0  0  0  0  0  0  0  0  0  0
    8.1530    2.2910   23.7550 C   0  0  0  0  0  0  0  0  0  0  0  0
    4.0850    1.3000   21.4660 C   0  0  0  0  0  0  0  0  0  0  0  0
    6.3500    0.2370   17.9010 N   0  0  0  0  0  0  0  0  0  0  0  0
    4.4470    1.4160   19.0250 C   0  0  0  0  0  0  0  0  0  0  0  0
   10.6490   -1.8470   23.7250 C   0  0  1  0  0  0  0  0  0  0  0  0
   10.2820    0.2260   22.8500 C   0  0  0  0  0  0  0  0  0  0  0  0
   12.1110   -1.7350   24.1510 C   0  0  2  0  0  0  0  0  0  0  0  0
    5.2250    1.0640   17.7860 C   0  0  0  0  0  0  0  0  0  0  0  0
   11.2240    0.7440   23.9900 C   0  0  0  0  0  0  0  0  0  0  0  0
   13.1940   -1.9050   23.0500 C   0  0  2  0  0  0  0  0  0  0  0  0
   12.6030   -2.7800   25.1490 C   0  0  0  0  0  0  0  0  0  0  0  0
   12.1840   -0.1340   24.5450 C   0  0  2  0  0  0  0  0  0  0  0  0
   12.8240   -0.5740   23.6760 C   0  0  0  0  0  0  0  0  0  0  0  0
   13.5040   -0.4530   22.7490 C   0  0  0  0  0  0  0  0  0  0  0  0
   12.9310   -2.7110   21.8110 C   0  0  0  0  0  0  0  0  0  0  0  0
   13.5820   -1.5520   20.7170 Cl  0  0  0  0  0  0  0  0  0  0  0  0
  1  2  1  0
  2  3  2  0
  1  4  1  0
  5  1  1  6
  2  6  1  0
  4  7  1  6
  4  8  1  0
  5  9  1  0
  5 10  1  0
  6 11  1  0
  7 12  1  0
  7 13  2  0
  8 14  2  0
  8 15  1  0
 16  9  1  1
 10 17  2  0
 12 18  1  0
 14 19  1  0
 15 20  2  0
 14 21  1  0
 16 22  1  0
 22 17  1  6
 16 23  1  0
 22 24  1  0
 20 25  1  0
 21 25  2  0
 23 26  2  0
 24 27  1  0
 24 28  1  1
 24 29  1  0
 29 26  1  6
 29 30  1  0
 27 31  1  0
 30 31  2  0
 27 32  1  6
 32 33  1  0
M  END
