x3124-x2705
     RDKit          3D

 34 36  0  0  0  0  0  0  0  0999 V2000
    6.9620   -1.5410   21.8130 N   0  0  0  0  0  0  0  0  0  0  0  0
    6.1300   -2.7910   21.5870 C   0  0  0  0  0  0  0  0  0  0  0  0
    4.8400   -3.0160   21.2340 O   0  0  0  0  0  0  0  0  0  0  0  0
    6.5330   -0.1940   21.6700 C   0  0  1  0  0  0  0  0  0  0  0  0
    8.2300   -1.5950   22.6120 C   0  0  0  0  0  0  0  0  0  0  0  0
    6.8960   -4.0730   21.7860 C   0  0  0  0  0  0  0  0  0  0  0  0
    7.5990    0.7650   21.8780 C   0  0  0  0  0  0  0  0  0  0  0  0
    6.0730    0.2160   20.2970 C   0  0  0  0  0  0  0  0  0  0  0  0
    8.3320   -1.6660   23.9710 N   0  0  0  0  0  0  0  0  0  0  0  0
    9.4510   -1.5450   21.9640 C   0  0  0  0  0  0  0  0  0  0  0  0
    6.8250   -4.8830   20.4840 C   0  0  0  0  0  0  0  0  0  0  0  0
    7.3270    1.8840   22.8540 N   0  0  0  0  0  0  0  0  0  0  0  0
    8.6010    0.5930   21.2050 O   0  0  0  0  0  0  0  0  0  0  0  0
    4.9170    0.9990   20.1970 C   0  0  0  0  0  0  0  0  0  0  0  0
    6.8150   -0.1550   19.0330 C   0  0  0  0  0  0  0  0  0  0  0  0
    9.6790   -1.6590   24.2540 N   0  0  0  0  0  0  0  0  0  0  0  0
   10.5740   -1.5840   23.0800 C   0  0  0  0  0  0  0  0  0  0  0  0
   12.1130   -1.5590   23.1240 C   0  0  0  0  0  0  0  0  0  0  0  0
    6.3970    0.2590   17.8310 N   0  0  0  0  0  0  0  0  0  0  0  0
    4.4650    1.4390   18.9610 C   0  0  0  0  0  0  0  0  0  0  0  0
    8.0250    3.1500   22.9290 C   0  0  0  0  0  0  0  0  0  0  0  0
   12.4920   -0.3720   23.7920 C   0  0  0  0  0  0  0  0  0  0  0  0
   12.6400   -2.7540   23.9740 C   0  0  0  0  0  0  0  0  0  0  0  0
   12.6310   -1.7540   21.8290 C   0  0  0  0  0  0  0  0  0  0  0  0
    5.1790    1.0890   17.8220 C   0  0  0  0  0  0  0  0  0  0  0  0
    9.3340    3.1850   23.4670 C   0  0  0  0  0  0  0  0  0  0  0  0
    7.4530    4.3620   22.4870 C   0  0  0  0  0  0  0  0  0  0  0  0
   10.0640    1.9510   23.9640 C   0  0  0  0  0  0  0  0  0  0  0  0
    6.0770    4.4880   21.8840 C   0  0  0  0  0  0  0  0  0  0  0  0
   13.3250   -2.4800   25.1520 C   0  0  0  0  0  0  0  0  0  0  0  0
   10.0430    4.4010   23.5670 C   0  0  0  0  0  0  0  0  0  0  0  0
    8.1630    5.5740   22.5870 C   0  0  0  0  0  0  0  0  0  0  0  0
    9.1890    1.2340   24.9920 C   0  0  0  0  0  0  0  0  0  0  0  0
    9.4530    5.6000   23.1260 C   0  0  0  0  0  0  0  0  0  0  0  0
  1  2  1  0
  2  3  2  0
  1  4  1  0
  1  5  1  0
  2  6  1  0
  4  7  1  6
  4  8  1  0
  5  9  2  0
  5 10  1  0
  6 11  1  0
  7 12  1  0
  7 13  2  0
  8 14  2  0
  8 15  1  0
  9 16  1  0
 10 17  2  0
 16 17  1  0
 17 18  1  0
 15 19  2  0
 14 20  1  0
 12 21  1  0
 18 22  1  0
 18 23  1  0
 18 24  1  0
 19 25  1  0
 20 25  2  0
 21 26  2  0
 21 27  1  0
 26 28  1  0
 27 29  1  0
 23 30  1  0
 26 31  1  0
 27 32  2  0
 28 33  1  0
 31 34  2  0
 32 34  1  0
M  END
