x3124-x0820
     RDKit          3D

 37 41  0  0  0  0  0  0  0  0999 V2000
    7.2180   -1.9760   21.5940 C   0  0  2  0  0  0  0  0  0  0  0  0
    5.6960   -2.5120   21.7090 C   0  0  0  0  0  0  0  0  0  0  0  0
    4.6560   -3.1400   21.6810 O   0  0  0  0  0  0  0  0  0  0  0  0
    6.8210   -0.4740   21.7060 C   0  0  1  0  0  0  0  0  0  0  0  0
    7.1420   -3.3610   22.3910 C   0  0  2  0  0  0  0  0  0  0  0  0
    8.4560   -1.8820   22.4370 C   0  0  0  0  0  0  0  0  0  0  0  0
    6.3850   -3.7340   21.1260 C   0  0  2  0  0  0  0  0  0  0  0  0
    7.7700    0.5200   21.9890 C   0  0  0  0  0  0  0  0  0  0  0  0
    6.2500    0.0850   20.3790 C   0  0  0  0  0  0  0  0  0  0  0  0
    9.7350   -2.3530   21.7970 C   0  0  0  0  0  0  0  0  0  0  0  0
    8.6460   -1.4200   23.7520 C   0  0  0  0  0  0  0  0  0  0  0  0
    6.3680   -3.8150   23.8320 C   0  0  0  0  0  0  0  0  0  0  0  0
    6.6540   -3.4480   19.6230 C   0  0  0  0  0  0  0  0  0  0  0  0
    7.6100    1.4180   23.0690 N   0  0  0  0  0  0  0  0  0  0  0  0
    8.7640    0.6710   21.2800 O   0  0  0  0  0  0  0  0  0  0  0  0
    5.0820    0.8760   20.3860 C   0  0  0  0  0  0  0  0  0  0  0  0
    6.8530   -0.1490   19.1360 C   0  0  0  0  0  0  0  0  0  0  0  0
   11.0420   -2.3030   22.5010 C   0  0  0  0  0  0  0  0  0  0  0  0
    9.9020   -1.3910   24.3800 C   0  0  0  0  0  0  0  0  0  0  0  0
    6.9510   -4.0370   25.1140 C   0  0  0  0  0  0  0  0  0  0  0  0
    4.9500   -4.0180   23.8070 C   0  0  0  0  0  0  0  0  0  0  0  0
    8.1400    2.7760   22.9120 C   0  0  0  0  0  0  0  0  0  0  0  0
    6.3980    0.3390   17.9140 N   0  0  0  0  0  0  0  0  0  0  0  0
    4.5970    1.3830   19.1720 C   0  0  0  0  0  0  0  0  0  0  0  0
   11.0910   -1.8150   23.7740 C   0  0  0  0  0  0  0  0  0  0  0  0
    6.1510   -4.4090   26.2340 C   0  0  0  0  0  0  0  0  0  0  0  0
    4.1690   -4.3860   24.8990 C   0  0  0  0  0  0  0  0  0  0  0  0
    8.3300   -3.9170   25.3940 C   0  0  0  0  0  0  0  0  0  0  0  0
   12.4200   -1.7510   24.4260 C   0  0  0  0  0  0  0  0  0  0  0  0
    5.2190    1.1380   17.9640 C   0  0  0  0  0  0  0  0  0  0  0  0
    4.7780   -4.5780   26.1200 C   0  0  0  0  0  0  0  0  0  0  0  0
    6.7040   -4.6270   27.5120 C   0  0  0  0  0  0  0  0  0  0  0  0
    8.8820   -4.1400   26.6660 C   0  0  0  0  0  0  0  0  0  0  0  0
   12.4680   -0.6210   25.1760 C   0  0  0  0  0  0  0  0  0  0  0  0
   13.4350   -1.5870   23.2990 C   0  0  0  0  0  0  0  0  0  0  0  0
   12.9060   -2.9490   25.2600 C   0  0  0  0  0  0  0  0  0  0  0  0
    8.0610   -4.4950   27.7350 C   0  0  0  0  0  0  0  0  0  0  0  0
  1  2  1  0
  2  3  2  0
  1  4  1  0
  1  5  1  0
  1  6  1  6
  2  7  1  0
  5  7  1  0
  4  8  1  6
  4  9  1  0
  6 10  2  0
  6 11  1  0
  5 12  1  1
  7 13  1  6
  8 14  1  0
  8 15  2  0
  9 16  2  0
  9 17  1  0
 10 18  1  0
 11 19  2  0
 12 20  1  0
 12 21  2  0
 14 22  1  0
 17 23  2  0
 16 24  1  0
 18 25  2  0
 19 25  1  0
 20 26  2  0
 21 27  1  0
 20 28  1  0
 25 29  1  0
 23 30  1  0
 24 30  2  0
 26 31  1  0
 27 31  2  0
 26 32  1  0
 28 33  2  0
 29 34  1  0
 29 35  1  0
 29 36  1  0
 32 37  2  0
 33 37  1  0
M  END
