x3124-x2705-x1311
     RDKit          3D

 48 52  0  0  0  0  0  0  0  0999 V2000
    7.0970   -1.5930   21.7000 N   0  0  0  0  0  0  0  0  0  0  0  0
    6.2690   -2.8660   21.4910 C   0  0  0  0  0  0  0  0  0  0  0  0
    4.9470   -3.1320   21.1980 O   0  0  0  0  0  0  0  0  0  0  0  0
    6.6100   -0.1880   21.5610 C   0  0  1  0  0  0  0  0  0  0  0  0
    8.3050   -1.5720   22.5170 C   0  0  0  0  0  0  0  0  0  0  0  0
    7.0830   -4.1490   21.6210 C   0  0  1  0  0  0  0  0  0  0  0  0
    7.7440    0.8690   21.8700 C   0  0  0  0  0  0  0  0  0  0  0  0
    6.1260    0.2650   20.2270 C   0  0  0  0  0  0  0  0  0  0  0  0
    8.3380   -1.4950   24.0050 N   0  0  0  0  0  0  0  0  0  0  0  0
    9.6630   -1.5750   22.1290 C   0  0  0  0  0  0  0  0  0  0  0  0
    8.4420   -4.2930   20.9340 C   0  0  0  0  0  0  0  0  0  0  0  0
    7.4110    1.9940   22.7790 N   0  0  0  0  0  0  0  0  0  0  0  0
    8.8440    0.7890   21.3470 O   0  0  0  0  0  0  0  0  0  0  0  0
    4.8630    1.0860   20.1790 C   0  0  0  0  0  0  0  0  0  0  0  0
    6.7700    0.0020   19.0510 C   0  0  0  0  0  0  0  0  0  0  0  0
    9.7080   -1.4510   24.3280 N   0  0  0  0  0  0  0  0  0  0  0  0
   10.4800   -1.5000   23.2390 C   0  0  0  0  0  0  0  0  0  0  0  0
    7.5740   -4.6070   23.0800 C   0  0  0  0  0  0  0  0  0  0  0  0
   12.0370   -1.4630   23.3450 C   0  0  0  0  0  0  0  0  0  0  0  0
    6.3240    0.4760   17.7670 N   0  0  0  0  0  0  0  0  0  0  0  0
    4.4830    1.5150   18.9070 C   0  0  0  0  0  0  0  0  0  0  0  0
    8.0860    3.2620   22.8950 C   0  0  0  0  0  0  0  0  0  0  0  0
    8.8850   -5.0250   23.2170 C   0  0  0  0  0  0  0  0  0  0  0  0
    6.8110   -4.6770   24.2660 C   0  0  0  0  0  0  0  0  0  0  0  0
   12.4330   -0.3660   24.0970 C   0  0  0  0  0  0  0  0  0  0  0  0
   12.5900   -2.7200   24.0420 C   0  0  0  0  0  0  0  0  0  0  0  0
   12.6670   -1.4130   22.0720 C   0  0  0  0  0  0  0  0  0  0  0  0
    5.1990    1.2190   17.7650 C   0  0  0  0  0  0  0  0  0  0  0  0
    9.4000    3.2630   23.4850 C   0  0  0  0  0  0  0  0  0  0  0  0
    7.4450    4.4660   22.4280 C   0  0  0  0  0  0  0  0  0  0  0  0
    9.4640   -5.5510   24.5020 C   0  0  0  0  0  0  0  0  0  0  0  0
    7.4070   -5.1620   25.4200 C   0  0  0  0  0  0  0  0  0  0  0  0
    5.3580   -4.3510   24.4790 C   0  0  0  0  0  0  0  0  0  0  0  0
   10.0820    2.0120   23.9710 C   0  0  0  0  0  0  0  0  0  0  0  0
    6.0630    4.4020   21.8120 C   0  0  0  0  0  0  0  0  0  0  0  0
   13.4280   -2.5570   25.2510 C   0  0  0  0  0  0  0  0  0  0  0  0
   10.1340    4.4540   23.6410 C   0  0  0  0  0  0  0  0  0  0  0  0
    8.1020    5.6940   22.5430 C   0  0  0  0  0  0  0  0  0  0  0  0
    8.7130   -5.6260   25.6040 C   0  0  0  0  0  0  0  0  0  0  0  0
    4.9750   -5.7670   24.1870 C   0  0  2  0  0  0  0  0  0  0  0  0
    9.1950    1.2570   24.9990 C   0  0  0  0  0  0  0  0  0  0  0  0
    9.4780    5.7490   23.1560 C   0  0  0  0  0  0  0  0  0  0  0  0
    5.4470   -6.0020   22.9250 C   0  0  0  0  0  0  0  0  0  0  0  0
    3.3730   -6.5530   24.4090 S   0  0  0  0  0  0  0  0  0  0  0  0
    3.5830   -7.7250   25.2520 O   0  0  0  0  0  0  0  0  0  0  0  0
    2.3460   -5.6660   24.8820 O   0  0  0  0  0  0  0  0  0  0  0  0
    4.4810   -6.6080   22.2390 C   0  0  0  0  0  0  0  0  0  0  0  0
    3.3240   -6.9610   22.8190 C   0  0  0  0  0  0  0  0  0  0  0  0
  1  2  1  0
  2  3  2  0
  1  4  1  0
  1  5  1  0
  2  6  1  0
  4  7  1  6
  4  8  1  0
  5  9  2  0
  5 10  1  0
  6 11  1  6
  7 12  1  0
  7 13  2  0
  8 14  2  0
  8 15  1  0
  9 16  1  0
 10 17  2  0
 16 17  1  0
  6 18  1  0
 17 19  1  0
 15 20  2  0
 14 21  1  0
 12 22  1  0
 18 23  2  0
 18 24  1  0
 19 25  1  0
 19 26  1  0
 19 27  1  0
 20 28  1  0
 21 28  2  0
 22 29  2  0
 22 30  1  0
 23 31  1  0
 24 32  2  0
 24 33  1  0
 29 34  1  0
 30 35  1  0
 26 36  1  0
 29 37  1  0
 30 38  2  0
 31 39  2  0
 32 39  1  0
 40 33  1  6
 34 41  1  0
 37 42  2  0
 38 42  1  0
 40 43  1  0
 40 44  1  0
 44 45  1  0
 44 46  1  0
 43 47  1  0
 44 48  1  0
 47 48  2  0
M  END
