x3124-x0946
     RDKit          3D

 36 38  0  0  0  0  0  0  0  0999 V2000
    6.8920   -1.5670   21.8740 N   0  0  0  0  0  0  0  0  0  0  0  0
    6.0610   -2.7890   21.6030 C   0  0  0  0  0  0  0  0  0  0  0  0
    4.7940   -2.9760   21.2370 O   0  0  0  0  0  0  0  0  0  0  0  0
    6.5230   -0.2070   21.7130 C   0  0  1  0  0  0  0  0  0  0  0  0
    8.1290   -1.7070   22.5960 C   0  0  0  0  0  0  0  0  0  0  0  0
    6.7990   -4.0910   21.7740 C   0  0  0  0  0  0  0  0  0  0  0  0
    7.6520    0.6700   21.9930 C   0  0  0  0  0  0  0  0  0  0  0  0
    6.0190    0.2280   20.3780 C   0  0  0  0  0  0  0  0  0  0  0  0
    9.2210   -1.7080   21.7170 C   0  0  0  0  0  0  0  0  0  0  0  0
    8.3010   -1.8090   23.9640 C   0  0  0  0  0  0  0  0  0  0  0  0
    6.7240   -4.8680   20.4540 C   0  0  0  0  0  0  0  0  0  0  0  0
    7.7600    1.2880   23.3810 N   0  0  0  0  0  0  0  0  0  0  0  0
    8.4080    0.8420   21.0480 O   0  0  0  0  0  0  0  0  0  0  0  0
    4.8510    0.9930   20.2990 C   0  0  0  0  0  0  0  0  0  0  0  0
    6.7020   -0.0900   19.2020 C   0  0  0  0  0  0  0  0  0  0  0  0
   10.5500   -1.8060   22.1500 C   0  0  0  0  0  0  0  0  0  0  0  0
    9.7590   -1.9160   24.5010 C   0  0  0  0  0  0  0  0  0  0  0  0
    8.5510    2.4610   23.6890 C   0  0  0  0  0  0  0  0  0  0  0  0
    6.3570    0.2790   17.9460 N   0  0  0  0  0  0  0  0  0  0  0  0
    4.4080    1.4250   19.0560 C   0  0  0  0  0  0  0  0  0  0  0  0
   10.8540   -1.9140   23.6400 C   0  0  0  0  0  0  0  0  0  0  0  0
   12.2700   -2.0200   24.2100 C   0  0  0  0  0  0  0  0  0  0  0  0
    5.2430    1.0230   17.8560 C   0  0  0  0  0  0  0  0  0  0  0  0
   10.0700    2.3890   23.4130 C   0  0  0  0  0  0  0  0  0  0  0  0
   12.6760   -0.9150   24.9570 C   0  0  0  0  0  0  0  0  0  0  0  0
   13.3110   -2.3020   23.1190 C   0  0  0  0  0  0  0  0  0  0  0  0
   12.1690   -3.2090   25.1560 C   0  0  0  0  0  0  0  0  0  0  0  0
   10.9870    3.4960   23.3600 C   0  0  0  0  0  0  0  0  0  0  0  0
   10.6320    1.1220   23.1820 C   0  0  0  0  0  0  0  0  0  0  0  0
   10.3080    5.1830   23.6870 S   0  0  0  0  0  0  0  0  0  0  0  0
   11.9990    0.9280   22.9050 C   0  0  0  0  0  0  0  0  0  0  0  0
   12.3230    3.2680   23.0750 C   0  0  0  0  0  0  0  0  0  0  0  0
    9.0480    5.3600   22.6120 N   0  0  0  0  0  0  0  0  0  0  0  0
    9.6670    5.2760   24.9860 O   0  0  0  0  0  0  0  0  0  0  0  0
   11.3380    6.1300   23.3090 O   0  0  0  0  0  0  0  0  0  0  0  0
   12.8350    2.0300   22.8540 C   0  0  0  0  0  0  0  0  0  0  0  0
  1  2  1  0
  2  3  2  0
  1  4  1  0
  1  5  1  0
  2  6  1  0
  4  7  1  6
  4  8  1  0
  5  9  2  0
  5 10  1  0
  6 11  1  0
  7 12  1  0
  7 13  2  0
  8 14  2  0
  8 15  1  0
  9 16  1  0
 10 17  2  0
 12 18  1  0
 15 19  2  0
 14 20  1  0
 16 21  2  0
 17 21  1  0
 21 22  1  0
 19 23  1  0
 20 23  2  0
 18 24  1  0
 22 25  1  0
 22 26  1  0
 22 27  1  0
 24 28  2  0
 24 29  1  0
 28 30  1  0
 29 31  2  0
 28 32  1  0
 30 33  1  0
 30 34  2  0
 30 35  2  0
 31 36  1  0
 32 36  2  0
M  END
