x3124-x0161
     RDKit          3D

 37 39  0  0  0  0  0  0  0  0999 V2000
    6.8980   -1.5590   21.8990 N   0  0  0  0  0  0  0  0  0  0  0  0
    6.0610   -2.7900   21.6240 C   0  0  0  0  0  0  0  0  0  0  0  0
    4.7970   -2.9770   21.2420 O   0  0  0  0  0  0  0  0  0  0  0  0
    6.5140   -0.2040   21.7350 C   0  0  1  0  0  0  0  0  0  0  0  0
    8.1910   -1.6580   22.5430 C   0  0  0  0  0  0  0  0  0  0  0  0
    6.7790   -4.0970   21.8130 C   0  0  0  0  0  0  0  0  0  0  0  0
    7.6440    0.6800   22.0190 C   0  0  0  0  0  0  0  0  0  0  0  0
    6.0330    0.2220   20.3990 C   0  0  0  0  0  0  0  0  0  0  0  0
    9.1990   -1.9050   21.6010 C   0  0  0  0  0  0  0  0  0  0  0  0
    8.4950   -1.5110   23.8950 C   0  0  0  0  0  0  0  0  0  0  0  0
    6.7400   -4.8910   20.4950 C   0  0  0  0  0  0  0  0  0  0  0  0
    7.7600    1.2840   23.4150 N   0  0  0  0  0  0  0  0  0  0  0  0
    8.3890    0.8620   21.0640 O   0  0  0  0  0  0  0  0  0  0  0  0
    4.8870    1.0010   20.2770 C   0  0  0  0  0  0  0  0  0  0  0  0
    6.7010   -0.1030   19.2010 C   0  0  0  0  0  0  0  0  0  0  0  0
   10.5520   -2.0250   21.9290 C   0  0  0  0  0  0  0  0  0  0  0  0
   10.0110   -1.6310   24.2830 C   0  0  0  0  0  0  0  0  0  0  0  0
    8.4860    2.4970   23.7380 C   0  0  0  0  0  0  0  0  0  0  0  0
    6.3230    0.2910   17.9420 N   0  0  0  0  0  0  0  0  0  0  0  0
    4.4280    1.4420   19.0730 C   0  0  0  0  0  0  0  0  0  0  0  0
   11.0150   -1.8830   23.3630 C   0  0  0  0  0  0  0  0  0  0  0  0
   12.5110   -2.0110   23.7100 C   0  0  0  0  0  0  0  0  0  0  0  0
    5.2090    1.0570   17.8470 C   0  0  0  0  0  0  0  0  0  0  0  0
   10.0090    2.5390   23.4640 C   0  0  0  0  0  0  0  0  0  0  0  0
   13.1600   -0.8210   23.9040 C   0  0  0  0  0  0  0  0  0  0  0  0
   13.2330   -2.6160   22.5290 C   0  0  0  0  0  0  0  0  0  0  0  0
   12.7810   -2.8720   24.9360 C   0  0  0  0  0  0  0  0  0  0  0  0
   10.8060    3.6720   23.4100 C   0  0  0  0  0  0  0  0  0  0  0  0
   10.6780    1.3430   23.2390 C   0  0  0  0  0  0  0  0  0  0  0  0
   12.9250   -0.1850   25.1150 O   0  0  0  0  0  0  0  0  0  0  0  0
   10.0150    5.3030   23.7190 S   0  0  0  0  0  0  0  0  0  0  0  0
   12.0300    0.9420   22.9440 C   0  0  0  0  0  0  0  0  0  0  0  0
   12.1130    3.5070   23.1350 C   0  0  0  0  0  0  0  0  0  0  0  0
   10.9650    6.3180   23.3120 O   0  0  0  0  0  0  0  0  0  0  0  0
    9.4180    5.3510   25.0330 O   0  0  0  0  0  0  0  0  0  0  0  0
    8.7560    5.3710   22.6230 N   0  0  0  0  0  0  0  0  0  0  0  0
   12.6060    2.2490   22.9370 C   0  0  0  0  0  0  0  0  0  0  0  0
  1  2  1  0
  2  3  2  0
  1  4  1  0
  1  5  1  0
  2  6  1  0
  4  7  1  6
  4  8  1  0
  5  9  2  0
  5 10  1  0
  6 11  1  0
  7 12  1  0
  7 13  2  0
  8 14  2  0
  8 15  1  0
  9 16  1  0
 10 17  2  0
 12 18  1  0
 15 19  2  0
 14 20  1  0
 16 21  2  0
 17 21  1  0
 21 22  1  0
 19 23  1  0
 20 23  2  0
 18 24  1  0
 22 25  1  0
 22 26  1  0
 22 27  1  0
 24 28  2  0
 24 29  1  0
 25 30  2  0
 28 31  1  0
 29 32  2  0
 28 33  1  0
 31 34  2  0
 31 35  2  0
 31 36  1  0
 32 37  1  0
 33 37  2  0
M  END
