x3124-x0395
     RDKit          3D

 38 42  0  0  0  0  0  0  0  0999 V2000
    6.8060   -1.6660   21.8000 N   0  0  0  0  0  0  0  0  0  0  0  0
    5.9710   -2.8080   21.3290 C   0  0  0  0  0  0  0  0  0  0  0  0
    4.7080   -3.0350   21.5240 O   0  0  0  0  0  0  0  0  0  0  0  0
    6.4200   -0.3030   21.6100 C   0  0  1  0  0  0  0  0  0  0  0  0
    8.1250   -1.7770   22.4860 C   0  0  2  0  0  0  0  0  0  0  0  0
    6.5740   -3.8860   20.4930 C   0  0  0  0  0  0  0  0  0  0  0  0
    7.3920    0.6730   21.9750 C   0  0  0  0  0  0  0  0  0  0  0  0
    5.9810    0.1790   20.2960 C   0  0  0  0  0  0  0  0  0  0  0  0
    9.4950   -1.4120   21.8560 C   0  0  0  0  0  0  0  0  0  0  0  0
    8.4750   -2.6980   23.5050 C   0  0  1  0  0  0  0  0  0  0  0  0
    7.2850   -3.2610   19.3150 C   0  0  0  0  0  0  0  0  0  0  0  0
    7.1670    1.3110   23.3120 N   0  0  0  0  0  0  0  0  0  0  0  0
    8.2650    0.9120   21.1470 O   0  0  0  0  0  0  0  0  0  0  0  0
    4.7960    0.9070   20.1870 C   0  0  0  0  0  0  0  0  0  0  0  0
    6.7400   -0.0510   19.1690 C   0  0  0  0  0  0  0  0  0  0  0  0
   10.3050   -0.7260   22.9920 C   0  0  1  0  0  0  0  0  0  0  0  0
    9.8510   -2.7990   23.7220 C   0  0  0  0  0  0  0  0  0  0  0  0
    7.7770   -2.5190   24.6920 N   0  0  0  0  0  0  0  0  0  0  0  0
    8.1420   -4.4240   23.0120 S   0  0  0  0  0  0  0  0  0  0  0  0
    7.7220    2.5660   23.6170 C   0  0  0  0  0  0  0  0  0  0  0  0
    6.3660    0.4430   17.8620 N   0  0  0  0  0  0  0  0  0  0  0  0
    4.4020    1.4040   18.9390 C   0  0  0  0  0  0  0  0  0  0  0  0
   10.5280   -1.6380   24.0480 C   0  0  1  0  0  0  0  0  0  0  0  0
    7.8750   -4.9170   24.6440 C   0  0  2  0  0  0  0  0  0  0  0  0
    7.4130   -3.6890   25.3030 N   0  0  0  0  0  0  0  0  0  0  0  0
   11.7760   -0.4630   22.7910 C   0  0  0  0  0  0  0  0  0  0  0  0
    9.6980    0.4650   23.2980 N   0  0  0  0  0  0  0  0  0  0  0  0
   12.0510   -1.8470   24.1930 C   0  0  0  0  0  0  0  0  0  0  0  0
   12.3250   -1.8020   22.7060 C   0  0  2  0  0  0  0  0  0  0  0  0
    9.1120   -5.6690   25.1820 C   0  0  0  0  0  0  0  0  0  0  0  0
    5.1700    1.1850   17.7990 C   0  0  0  0  0  0  0  0  0  0  0  0
   10.5460    1.5570   23.7900 C   0  0  0  0  0  0  0  0  0  0  0  0
   12.4350    0.7630   22.7780 C   0  0  0  0  0  0  0  0  0  0  0  0
   12.6330   -0.8060   24.9330 C   0  0  0  0  0  0  0  0  0  0  0  0
   12.5950   -3.1150   24.8270 C   0  0  0  0  0  0  0  0  0  0  0  0
   13.5400   -1.8990   22.2850 C   0  0  0  0  0  0  0  0  0  0  0  0
   11.6560    1.8650   23.0300 C   0  0  0  0  0  0  0  0  0  0  0  0
   13.5380   -1.8050   20.9370 F   0  0  0  0  0  0  0  0  0  0  0  0
  1  2  1  0
  2  3  2  0
  1  4  1  0
  5  1  1  6
  2  6  1  0
  4  7  1  6
  4  8  1  0
  5  9  1  0
  5 10  1  0
  6 11  1  0
  7 12  1  0
  7 13  2  0
  8 14  2  0
  8 15  1  0
 16  9  1  6
 10 17  1  1
 10 18  1  0
 10 19  1  0
 12 20  1  0
 15 21  2  0
 14 22  1  0
 16 23  1  0
 23 17  1  6
 19 24  1  0
 18 25  1  0
 24 25  1  0
 16 26  1  0
 16 27  1  0
 23 28  1  0
 26 29  1  0
 28 29  1  0
 24 30  1  1
 21 31  1  0
 22 31  2  0
 27 32  1  0
 26 33  2  0
 28 34  1  0
 28 35  1  0
 29 36  1  1
 32 37  1  0
 33 37  1  0
 36 38  1  0
M  END
