x3124-x2694
     RDKit          3D

 34 36  0  0  0  0  0  0  0  0999 V2000
    6.9450   -1.4150   21.8290 N   0  0  0  0  0  0  0  0  0  0  0  0
    6.1220   -2.6810   21.5530 C   0  0  0  0  0  0  0  0  0  0  0  0
    4.8160   -2.9710   21.2230 O   0  0  0  0  0  0  0  0  0  0  0  0
    6.6410   -0.0230   21.6220 C   0  0  1  0  0  0  0  0  0  0  0  0
    8.2170   -1.5140   22.5750 C   0  0  0  0  0  0  0  0  0  0  0  0
    6.9380   -3.9380   21.6740 C   0  0  0  0  0  0  0  0  0  0  0  0
    7.7520    0.8970   21.8790 C   0  0  0  0  0  0  0  0  0  0  0  0
    6.1300    0.4000   20.3180 C   0  0  0  0  0  0  0  0  0  0  0  0
    8.4000   -1.6970   23.9080 N   0  0  0  0  0  0  0  0  0  0  0  0
    9.6690   -1.4180   22.0590 C   0  0  0  0  0  0  0  0  0  0  0  0
    6.7860   -4.7130   20.3670 C   0  0  0  0  0  0  0  0  0  0  0  0
    7.5020    2.0510   22.8490 N   0  0  0  0  0  0  0  0  0  0  0  0
    8.7710    0.6790   21.2480 O   0  0  0  0  0  0  0  0  0  0  0  0
    4.9740    1.1840   20.2330 C   0  0  0  0  0  0  0  0  0  0  0  0
    6.8000    0.0460   19.1560 C   0  0  0  0  0  0  0  0  0  0  0  0
    9.7870   -1.7100   24.1950 O   0  0  0  0  0  0  0  0  0  0  0  0
   10.5840   -1.5400   23.0810 C   0  0  0  0  0  0  0  0  0  0  0  0
   12.0900   -1.5330   23.2530 C   0  0  0  0  0  0  0  0  0  0  0  0
    6.3870    0.4470   17.8220 N   0  0  0  0  0  0  0  0  0  0  0  0
    4.5370    1.5960   18.9710 C   0  0  0  0  0  0  0  0  0  0  0  0
    8.3120    3.1820   23.0530 C   0  0  0  0  0  0  0  0  0  0  0  0
   12.5300   -0.3410   23.8110 C   0  0  0  0  0  0  0  0  0  0  0  0
   12.8160   -1.7610   21.9070 C   0  0  0  0  0  0  0  0  0  0  0  0
   12.4900   -2.7150   24.1610 C   0  0  0  0  0  0  0  0  0  0  0  0
    5.2260    1.2380   17.8260 C   0  0  0  0  0  0  0  0  0  0  0  0
    9.5750    3.0400   23.6510 C   0  0  0  0  0  0  0  0  0  0  0  0
    7.9710    4.5120   22.7100 C   0  0  0  0  0  0  0  0  0  0  0  0
   10.1190    1.7120   24.0910 C   0  0  0  0  0  0  0  0  0  0  0  0
   13.3670   -2.3800   25.1660 C   0  0  0  0  0  0  0  0  0  0  0  0
   10.4390    4.1540   23.8910 C   0  0  0  0  0  0  0  0  0  0  0  0
    8.8160    5.5990   22.9540 C   0  0  0  0  0  0  0  0  0  0  0  0
   10.0430    5.4490   23.5420 C   0  0  0  0  0  0  0  0  0  0  0  0
   10.8880    6.6110   23.7890 O   0  0  0  0  0  0  0  0  0  0  0  0
   11.8550    6.5010   24.8370 C   0  0  0  0  0  0  0  0  0  0  0  0
  1  2  1  0
  2  3  2  0
  1  4  1  0
  1  5  1  0
  2  6  1  0
  4  7  1  6
  4  8  1  0
  5  9  2  0
  5 10  1  0
  6 11  1  0
  7 12  1  0
  7 13  2  0
  8 14  2  0
  8 15  1  0
  9 16  1  0
 10 17  2  0
 16 17  1  0
 17 18  1  0
 15 19  2  0
 14 20  1  0
 12 21  1  0
 18 22  1  0
 18 23  1  0
 18 24  1  0
 19 25  1  0
 20 25  2  0
 21 26  2  0
 21 27  1  0
 26 28  1  0
 24 29  1  0
 26 30  1  0
 27 31  2  0
 30 32  2  0
 31 32  1  0
 32 33  1  0
 33 34  1  0
M  END
