x3298-x0354
     RDKit          3D

 43 48  0  0  0  0  0  0  0  0999 V2000
    7.4580    1.9790   22.4820 N   0  0  0  0  0  0  0  0  0  0  0  0
    8.1790    1.2190   21.5960 C   0  0  0  0  0  0  0  0  0  0  0  0
    7.4810   -0.1050   21.2180 C   0  0  1  0  0  0  0  0  0  0  0  0
    7.9300    3.1540   23.0730 C   0  0  0  0  0  0  0  0  0  0  0  0
    9.2270    1.5890   21.1290 O   0  0  0  0  0  0  0  0  0  0  0  0
    8.1580    4.3450   22.3900 C   0  0  0  0  0  0  0  0  0  0  0  0
    8.1740    3.0840   24.4290 C   0  0  0  0  0  0  0  0  0  0  0  0
    6.6660   -0.7100   22.2170 O   0  0  0  0  0  0  0  0  0  0  0  0
    7.9580    1.8770   25.1300 N   0  0  0  0  0  0  0  0  0  0  0  0
    6.6040    0.2480   20.0940 C   0  0  0  0  0  0  0  0  0  0  0  0
    8.6360    5.4790   23.0600 C   0  0  0  0  0  0  0  0  0  0  0  0
    8.6310    4.2030   25.1010 C   0  0  0  0  0  0  0  0  0  0  0  0
    8.5870    0.4950   24.3730 S   0  0  0  0  0  0  0  0  0  0  0  0
    6.9260   -0.0490   18.7790 C   0  0  0  0  0  0  0  0  0  0  0  0
    5.4190    0.9300   20.4020 C   0  0  0  0  0  0  0  0  0  0  0  0
    8.8720    5.3970   24.4290 C   0  0  0  0  0  0  0  0  0  0  0  0
   10.1530    0.8920   24.7920 N   0  0  0  0  0  0  0  0  0  0  0  0
    8.6400   -0.7950   25.6810 C   0  0  2  0  0  0  0  0  0  0  0  0
    6.2290    0.2550   17.6800 N   0  0  0  0  0  0  0  0  0  0  0  0
    4.5620    1.3140   19.2060 C   0  0  0  0  0  0  0  0  0  0  0  0
    7.5540   -1.7130   25.4700 O   0  0  0  0  0  0  0  0  0  0  0  0
    8.5180   -0.1580   27.0830 C   0  0  0  0  0  0  0  0  0  0  0  0
    5.0940    0.9150   17.8640 C   0  0  0  0  0  0  0  0  0  0  0  0
    9.9100   -1.3830   25.4470 N   0  0  0  0  0  0  0  0  0  0  0  0
   10.8350   -0.3500   25.0740 C   0  0  1  0  0  0  0  0  0  0  0  0
    7.2370   -0.3090   27.6900 O   0  0  0  0  0  0  0  0  0  0  0  0
   11.7160   -0.7600   23.8970 C   0  0  2  0  0  0  0  0  0  0  0  0
    9.9700   -2.5930   24.5910 C   0  0  0  0  0  0  0  0  0  0  0  0
   12.7020    0.2560   23.4830 C   0  0  0  0  0  0  0  0  0  0  0  0
   11.0530   -1.2120   22.7910 C   0  0  0  0  0  0  0  0  0  0  0  0
    6.7880    0.7110   28.4370 C   0  0  0  0  0  0  0  0  0  0  0  0
   12.4120   -1.9580   24.3380 N   0  0  0  0  0  0  0  0  0  0  0  0
   11.4140   -3.0150   24.2580 C   0  0  0  0  0  0  0  0  0  0  0  0
   13.5030    0.0020   22.4190 C   0  0  0  0  0  0  0  0  0  0  0  0
   11.9290   -1.5440   21.6350 C   0  0  0  0  0  0  0  0  0  0  0  0
    7.1640    2.0480   28.2760 C   0  0  0  0  0  0  0  0  0  0  0  0
    5.8870    0.3250   29.4280 C   0  0  0  0  0  0  0  0  0  0  0  0
   13.2640   -1.2970   21.7770 C   0  0  2  0  0  0  0  0  0  0  0  0
    6.6910    3.0270   29.0600 C   0  0  0  0  0  0  0  0  0  0  0  0
    5.3490    1.2770   30.2820 C   0  0  0  0  0  0  0  0  0  0  0  0
   13.7160   -2.2970   22.5230 F   0  0  0  0  0  0  0  0  0  0  0  0
    5.7930    2.7460   30.0790 C   0  0  0  0  0  0  0  0  0  0  0  0
    5.2700    3.8370   30.9580 C   0  0  0  0  0  0  0  0  0  0  0  0
  1  2  1  0
  2  3  1  0
  1  4  1  0
  2  5  2  0
  4  6  2  0
  4  7  1  0
  3  8  1  1
  7  9  1  0
  3 10  1  0
  6 11  1  0
  7 12  2  0
 13  9  1  1
 10 14  2  0
 10 15  1  0
 11 16  2  0
 12 16  1  0
 13 17  2  0
 13 18  1  0
 14 19  1  0
 15 20  2  0
 18 21  1  6
 18 22  1  0
 19 23  2  0
 20 23  1  0
 18 24  1  0
 25 17  1  6
 24 25  1  0
 22 26  1  0
 25 27  1  0
 24 28  1  0
 27 29  1  6
 27 30  1  0
 26 31  1  0
 27 32  1  0
 28 33  1  0
 32 33  1  0
 29 34  2  0
 30 35  2  0
 31 36  2  0
 31 37  1  0
 34 38  1  0
 35 38  1  0
 36 39  1  0
 37 40  2  0
 38 41  1  1
 39 42  2  0
 40 42  1  0
 42 43  1  0
M  END
