x3298-x0734
     RDKit          3D

 47 51  0  0  0  0  0  0  0  0999 V2000
    7.2940    2.0780   21.9690 N   0  0  0  0  0  0  0  0  0  0  0  0
    8.1160    1.0870   21.5000 C   0  0  0  0  0  0  0  0  0  0  0  0
    7.3770   -0.2530   21.3400 C   0  0  1  0  0  0  0  0  0  0  0  0
    7.8380    3.1330   22.6710 C   0  0  0  0  0  0  0  0  0  0  0  0
    9.2630    1.3060   21.1930 O   0  0  0  0  0  0  0  0  0  0  0  0
    7.8170    4.4890   22.3250 C   0  0  0  0  0  0  0  0  0  0  0  0
    8.4490    2.6980   23.8010 C   0  0  0  0  0  0  0  0  0  0  0  0
    6.5940   -0.7000   22.4730 O   0  0  0  0  0  0  0  0  0  0  0  0
    8.4680    1.2970   24.1330 N   0  0  0  0  0  0  0  0  0  0  0  0
    6.4980    0.1100   20.2060 C   0  0  0  0  0  0  0  0  0  0  0  0
    8.4430    5.4320   23.1600 C   0  0  0  0  0  0  0  0  0  0  0  0
    9.0520    3.6190   24.6160 C   0  0  0  0  0  0  0  0  0  0  0  0
    9.9210    0.7120   24.7650 S   0  0  0  0  0  0  0  0  0  0  0  0
    7.1740   -1.6360   23.4170 C   0  0  0  0  0  0  0  0  0  0  0  0
    6.9150   -0.0610   18.8790 C   0  0  0  0  0  0  0  0  0  0  0  0
    5.2380    0.6720   20.4690 C   0  0  0  0  0  0  0  0  0  0  0  0
    9.0650    4.9810   24.3170 C   0  0  0  0  0  0  0  0  0  0  0  0
   10.6390    1.9520   24.7070 O   0  0  0  0  0  0  0  0  0  0  0  0
    9.7640   -0.1410   25.9270 O   0  0  0  0  0  0  0  0  0  0  0  0
    6.3020    0.2480   17.7290 N   0  0  0  0  0  0  0  0  0  0  0  0
    4.4600    1.0570   19.2180 C   0  0  0  0  0  0  0  0  0  0  0  0
   10.9110   -0.1300   23.6030 C   0  0  0  0  0  0  0  0  0  0  0  0
    6.8410   -3.0590   22.9180 C   0  0  2  0  0  0  0  0  0  0  0  0
    5.1110    0.7980   17.8920 C   0  0  0  0  0  0  0  0  0  0  0  0
   12.3100    0.4130   23.3740 C   0  0  0  0  0  0  0  0  0  0  0  0
   10.5610   -1.2480   22.8650 C   0  0  0  0  0  0  0  0  0  0  0  0
    6.4830   -4.1850   23.8620 N   0  0  0  0  0  0  0  0  0  0  0  0
    7.8590   -3.5690   21.9650 C   0  0  0  0  0  0  0  0  0  0  0  0
   13.2320   -0.1040   22.5100 C   0  0  0  0  0  0  0  0  0  0  0  0
   11.5550   -1.8620   21.8890 C   0  0  0  0  0  0  0  0  0  0  0  0
    7.2780   -4.6800   25.0260 C   0  0  0  0  0  0  0  0  0  0  0  0
    7.0100   -4.4280   21.1050 N   0  0  0  0  0  0  0  0  0  0  0  0
    5.6340   -5.1130   23.0950 C   0  0  0  0  0  0  0  0  0  0  0  0
    6.4080   -3.9360   19.9710 C   0  0  0  0  0  0  0  0  0  0  0  0
   12.8070   -1.2690   21.7670 C   0  0  0  0  0  0  0  0  0  0  0  0
    6.5550   -4.9830   26.3290 C   0  0  0  0  0  0  0  0  0  0  0  0
    8.6580   -4.8990   24.9810 C   0  0  0  0  0  0  0  0  0  0  0  0
    6.3740   -5.5560   21.8010 C   0  0  0  0  0  0  0  0  0  0  0  0
   13.6620   -1.8140   20.8850 F   0  0  0  0  0  0  0  0  0  0  0  0
    5.1340   -4.8150   26.5030 N   0  0  0  0  0  0  0  0  0  0  0  0
    5.2290   -4.1420   19.7040 O   0  0  0  0  0  0  0  0  0  0  0  0
    7.3380   -3.1890   19.0360 C   0  0  0  0  0  0  0  0  0  0  0  0
    9.3330   -5.3840   26.1120 C   0  0  0  0  0  0  0  0  0  0  0  0
    7.2620   -5.4550   27.4320 C   0  0  0  0  0  0  0  0  0  0  0  0
    4.4190   -5.6000   25.8640 O   0  0  0  0  0  0  0  0  0  0  0  0
    4.7510   -3.7080   26.9120 O   0  0  0  0  0  0  0  0  0  0  0  0
    8.6460   -5.6510   27.3140 C   0  0  0  0  0  0  0  0  0  0  0  0
  1  2  1  0
  2  3  1  0
  1  4  1  0
  2  5  2  0
  4  6  2  0
  4  7  1  0
  3  8  1  1
  7  9  1  0
  3 10  1  0
  6 11  1  0
  7 12  2  0
 13  9  1  0
  8 14  1  0
 10 15  2  0
 10 16  1  0
 11 17  2  0
 12 17  1  0
 13 18  2  0
 13 19  2  0
 15 20  1  0
 16 21  2  0
 13 22  1  0
 23 14  1  1
 20 24  2  0
 21 24  1  0
 22 25  2  0
 22 26  1  0
 23 27  1  0
 23 28  1  0
 25 29  1  0
 26 30  2  0
 27 31  1  0
 28 32  1  0
 27 33  1  0
 32 34  1  0
 29 35  2  0
 30 35  1  0
 31 36  2  0
 31 37  1  0
 32 38  1  0
 33 38  1  0
 35 39  1  0
 36 40  1  0
 34 41  2  0
 34 42  1  0
 37 43  2  0
 36 44  1  0
 40 45  2  0
 40 46  1  0
 43 47  1  0
 44 47  2  0
M  CHG  2  40   1  46  -1
M  END
