x3298-x1392
     RDKit          3D

 41 45  0  0  0  0  0  0  0  0999 V2000
    7.1670    2.0590   22.3300 N   0  0  0  0  0  0  0  0  0  0  0  0
    7.8410    1.1010   21.5820 C   0  0  0  0  0  0  0  0  0  0  0  0
    6.9420   -0.1390   21.4300 C   0  0  1  0  0  0  0  0  0  0  0  0
    7.9620    3.1210   22.7310 C   0  0  0  0  0  0  0  0  0  0  0  0
    8.9460    1.2660   21.0890 O   0  0  0  0  0  0  0  0  0  0  0  0
    7.7020    4.4290   22.3440 C   0  0  0  0  0  0  0  0  0  0  0  0
    8.9990    2.7490   23.5000 C   0  0  0  0  0  0  0  0  0  0  0  0
    5.9030    0.0430   22.3950 O   0  0  0  0  0  0  0  0  0  0  0  0
    9.0270    1.3260   23.7870 N   0  0  0  0  0  0  0  0  0  0  0  0
    6.2950    0.2240   20.1170 C   0  0  0  0  0  0  0  0  0  0  0  0
    8.5150    5.4920   22.7210 C   0  0  0  0  0  0  0  0  0  0  0  0
    9.9040    3.7120   23.9220 C   0  0  0  0  0  0  0  0  0  0  0  0
    7.4010   -1.6560   21.7550 C   0  0  1  0  0  0  0  0  0  0  0  0
   10.2450    0.6990   24.6840 S   0  0  0  0  0  0  0  0  0  0  0  0
    6.8740    0.0310   18.8840 C   0  0  0  0  0  0  0  0  0  0  0  0
    5.0600    0.8130   20.1700 C   0  0  0  0  0  0  0  0  0  0  0  0
    9.6170    5.1300   23.5030 C   0  0  0  0  0  0  0  0  0  0  0  0
    6.4780   -2.7180   21.2890 N   0  0  0  0  0  0  0  0  0  0  0  0
    8.6470   -2.1590   21.8480 C   0  0  0  0  0  0  0  0  0  0  0  0
   11.0120    1.8740   24.7060 O   0  0  0  0  0  0  0  0  0  0  0  0
    9.8700   -0.1450   25.8000 O   0  0  0  0  0  0  0  0  0  0  0  0
    6.4630   -3.4090   20.0500 C   0  0  0  0  0  0  0  0  0  0  0  0
    6.3720    0.3660   17.7620 N   0  0  0  0  0  0  0  0  0  0  0  0
    4.4640    1.1960   18.9800 C   0  0  0  0  0  0  0  0  0  0  0  0
   11.2800   -0.1100   23.5860 C   0  0  0  0  0  0  0  0  0  0  0  0
    8.5810   -3.2930   22.8000 C   0  0  0  0  0  0  0  0  0  0  0  0
    6.0620   -3.4930   22.4430 C   0  0  0  0  0  0  0  0  0  0  0  0
    5.6140   -4.2910   19.8520 O   0  0  0  0  0  0  0  0  0  0  0  0
    7.5000   -3.0470   18.9660 C   0  0  0  0  0  0  0  0  0  0  0  0
    5.1690    0.9530   17.8150 C   0  0  0  0  0  0  0  0  0  0  0  0
   12.4400    0.5500   23.3020 C   0  0  0  0  0  0  0  0  0  0  0  0
   10.9540   -1.2830   23.0470 C   0  0  0  0  0  0  0  0  0  0  0  0
    7.2030   -3.9420   23.0940 C   0  0  0  0  0  0  0  0  0  0  0  0
    9.6790   -3.8460   23.4810 C   0  0  0  0  0  0  0  0  0  0  0  0
   13.3550   -0.0300   22.3520 C   0  0  0  0  0  0  0  0  0  0  0  0
   11.8160   -1.8240   22.1410 C   0  0  0  0  0  0  0  0  0  0  0  0
    7.1100   -4.9840   24.0110 C   0  0  0  0  0  0  0  0  0  0  0  0
    9.5020   -4.9090   24.3770 C   0  0  0  0  0  0  0  0  0  0  0  0
   12.9400   -1.2420   21.8040 C   0  0  0  0  0  0  0  0  0  0  0  0
    8.2510   -5.4530   24.6460 C   0  0  0  0  0  0  0  0  0  0  0  0
   13.6930   -1.8310   20.9000 F   0  0  0  0  0  0  0  0  0  0  0  0
  1  2  1  0
  2  3  1  0
  1  4  1  0
  2  5  2  0
  4  6  2  0
  4  7  1  0
  3  8  1  1
  7  9  1  0
  3 10  1  0
  6 11  1  0
  7 12  2  0
  3 13  1  0
 14  9  1  0
 10 15  2  0
 10 16  1  0
 11 17  2  0
 12 17  1  0
 13 18  1  0
 13 19  1  6
 14 20  2  0
 14 21  2  0
 18 22  1  0
 15 23  1  0
 16 24  2  0
 14 25  1  0
 19 26  1  0
 18 27  1  0
 22 28  2  0
 22 29  1  0
 23 30  2  0
 24 30  1  0
 25 31  2  0
 25 32  1  0
 26 33  2  0
 27 33  1  0
 26 34  1  0
 31 35  1  0
 32 36  2  0
 33 37  1  0
 34 38  2  0
 35 39  2  0
 36 39  1  0
 37 40  2  0
 38 40  1  0
 39 41  1  0
M  END
