x3298-x0759
     RDKit          3D

 37 40  0  0  0  0  0  0  0  0999 V2000
    7.1010    1.9560   22.5020 N   0  0  0  0  0  0  0  0  0  0  0  0
    7.6650    0.9990   21.6650 C   0  0  0  0  0  0  0  0  0  0  0  0
    6.7040   -0.2180   21.5200 C   0  0  1  0  0  0  0  0  0  0  0  0
    7.9350    3.0280   22.8180 C   0  0  0  0  0  0  0  0  0  0  0  0
    8.7450    1.1480   21.0840 O   0  0  0  0  0  0  0  0  0  0  0  0
    7.6320    4.3350   22.4540 C   0  0  0  0  0  0  0  0  0  0  0  0
    9.0460    2.6630   23.4800 C   0  0  0  0  0  0  0  0  0  0  0  0
    5.6610    0.0130   22.4640 O   0  0  0  0  0  0  0  0  0  0  0  0
    9.0850    1.2400   23.7530 N   0  0  0  0  0  0  0  0  0  0  0  0
    6.1280    0.1750   20.1780 C   0  0  0  0  0  0  0  0  0  0  0  0
    8.4790    5.4030   22.7450 C   0  0  0  0  0  0  0  0  0  0  0  0
    9.9960    3.6340   23.8120 C   0  0  0  0  0  0  0  0  0  0  0  0
    7.1510   -1.7430   21.8700 C   0  0  1  0  0  0  0  0  0  0  0  0
   10.2670    0.5910   24.6900 S   0  0  0  0  0  0  0  0  0  0  0  0
    6.7910    0.0330   18.9810 C   0  0  0  0  0  0  0  0  0  0  0  0
    4.8850    0.7380   20.1740 C   0  0  0  0  0  0  0  0  0  0  0  0
    9.6550    5.0500   23.4160 C   0  0  0  0  0  0  0  0  0  0  0  0
    6.4300   -2.9550   21.3280 N   0  0  0  0  0  0  0  0  0  0  0  0
    8.4300   -2.0520   21.9870 C   0  0  0  0  0  0  0  0  0  0  0  0
   11.0520    1.7520   24.7070 O   0  0  0  0  0  0  0  0  0  0  0  0
    9.8540   -0.2160   25.8180 O   0  0  0  0  0  0  0  0  0  0  0  0
    6.2880   -3.3950   20.0000 C   0  0  0  0  0  0  0  0  0  0  0  0
    6.3430    0.3950   17.8410 N   0  0  0  0  0  0  0  0  0  0  0  0
    4.3550    1.1520   18.9640 C   0  0  0  0  0  0  0  0  0  0  0  0
   11.2660   -0.2550   23.5780 C   0  0  0  0  0  0  0  0  0  0  0  0
    8.5690   -3.3060   22.7220 O   0  0  0  0  0  0  0  0  0  0  0  0
    6.2490   -3.9140   22.4140 C   0  0  0  0  0  0  0  0  0  0  0  0
    5.3370   -4.1330   19.7290 O   0  0  0  0  0  0  0  0  0  0  0  0
    7.3350   -3.0090   18.9510 C   0  0  0  0  0  0  0  0  0  0  0  0
    5.1320    0.9590   17.8380 C   0  0  0  0  0  0  0  0  0  0  0  0
   12.4020    0.4400   23.2430 C   0  0  0  0  0  0  0  0  0  0  0  0
   10.9710   -1.4780   23.0570 C   0  0  0  0  0  0  0  0  0  0  0  0
    7.3620   -3.9050   23.2500 C   0  0  0  0  0  0  0  0  0  0  0  0
   13.3120   -0.1200   22.2880 C   0  0  0  0  0  0  0  0  0  0  0  0
   11.8430   -1.9840   22.1410 C   0  0  0  0  0  0  0  0  0  0  0  0
   12.9330   -1.3590   21.7680 C   0  0  0  0  0  0  0  0  0  0  0  0
   13.6850   -1.9300   20.8590 F   0  0  0  0  0  0  0  0  0  0  0  0
  1  2  1  0
  2  3  1  0
  1  4  1  0
  2  5  2  0
  4  6  2  0
  4  7  1  0
  3  8  1  1
  7  9  1  0
  3 10  1  0
  6 11  1  0
  7 12  2  0
  3 13  1  0
 14  9  1  0
 10 15  2  0
 10 16  1  0
 11 17  2  0
 12 17  1  0
 13 18  1  0
 13 19  1  6
 14 20  2  0
 14 21  2  0
 18 22  1  0
 15 23  1  0
 16 24  2  0
 14 25  1  0
 19 26  1  0
 18 27  1  0
 22 28  2  0
 22 29  1  0
 23 30  2  0
 24 30  1  0
 25 31  2  0
 25 32  1  0
 26 33  1  0
 27 33  1  0
 31 34  1  0
 32 35  2  0
 34 36  2  0
 35 36  1  0
 36 37  1  0
M  END
