x3298-x0978
     RDKit          3D

 45 47  0  0  0  0  0  0  0  0999 V2000
    2.0560   -5.7000   23.2940 N   0  0  0  0  0  0  0  0  0  0  0  0
    3.2430   -6.4370   23.3210 C   0  0  2  0  0  0  0  0  0  0  0  0
    3.3310   -7.3900   24.5270 C   0  0  1  0  0  0  0  0  0  0  0  0
    0.8480   -6.2270   22.5890 C   0  0  0  0  0  0  0  0  0  0  0  0
    0.8510   -7.2680   21.9420 O   0  0  0  0  0  0  0  0  0  0  0  0
   -0.4480   -5.3720   22.7190 C   0  0  0  0  0  0  0  0  0  0  0  0
    4.4170   -5.4040   23.2790 C   0  0  0  0  0  0  0  0  0  0  0  0
    2.0380   -8.2430   24.6040 C   0  0  0  0  0  0  0  0  0  0  0  0
    4.4050   -7.9550   24.4140 O   0  0  0  0  0  0  0  0  0  0  0  0
    5.5380   -5.6910   22.3640 N   0  0  0  0  0  0  0  0  0  0  0  0
    4.4040   -4.2500   24.0880 O   0  0  0  0  0  0  0  0  0  0  0  0
    6.0820   -4.4800   21.7130 C   0  0  1  0  0  0  0  0  0  0  0  0
    6.3880   -4.8220   20.2710 C   0  0  0  0  0  0  0  0  0  0  0  0
    5.0560   -3.3300   21.7810 C   0  0  0  0  0  0  0  0  0  0  0  0
    5.7430   -6.1210   19.8490 C   0  0  0  0  0  0  0  0  0  0  0  0
    5.4330   -2.3310   22.6530 C   0  0  0  0  0  0  0  0  0  0  0  0
    5.5410   -1.1330   21.9790 C   0  0  0  0  0  0  0  0  0  0  0  0
    6.5900   -0.6590   22.3430 O   0  0  0  0  0  0  0  0  0  0  0  0
    7.3610    0.0100   21.3620 C   0  0  2  0  0  0  0  0  0  0  0  0
    7.8340    1.2650   21.6100 C   0  0  0  0  0  0  0  0  0  0  0  0
    6.6060    0.3140   20.1290 C   0  0  0  0  0  0  0  0  0  0  0  0
    7.0520    2.1440   22.4820 N   0  0  0  0  0  0  0  0  0  0  0  0
    9.0330    1.6560   20.9970 O   0  0  0  0  0  0  0  0  0  0  0  0
    7.0150   -0.1720   18.9120 C   0  0  0  0  0  0  0  0  0  0  0  0
    5.4780    1.1240   20.1980 C   0  0  0  0  0  0  0  0  0  0  0  0
    6.3080    0.1570   17.6970 N   0  0  0  0  0  0  0  0  0  0  0  0
    4.7250    1.5010   19.1120 C   0  0  0  0  0  0  0  0  0  0  0  0
    7.8160    3.2240   22.8430 C   0  0  0  0  0  0  0  0  0  0  0  0
    5.1370    1.0260   17.8350 C   0  0  0  0  0  0  0  0  0  0  0  0
    7.5340    4.5610   22.5300 C   0  0  0  0  0  0  0  0  0  0  0  0
    8.9310    2.8080   23.5330 C   0  0  0  0  0  0  0  0  0  0  0  0
    8.9630    1.3290   23.7630 N   0  0  0  0  0  0  0  0  0  0  0  0
    8.4640    5.6600   22.9230 C   0  0  0  0  0  0  0  0  0  0  0  0
    9.9080    3.9450   23.9100 C   0  0  0  0  0  0  0  0  0  0  0  0
   10.2280    0.7530   24.6120 S   0  0  0  0  0  0  0  0  0  0  0  0
    9.7380    5.2910   23.6580 C   0  0  0  0  0  0  0  0  0  0  0  0
   11.0270    1.9040   24.6900 O   0  0  0  0  0  0  0  0  0  0  0  0
    9.7850   -0.0920   25.7080 O   0  0  0  0  0  0  0  0  0  0  0  0
   11.1860   -0.1340   23.5040 C   0  0  0  0  0  0  0  0  0  0  0  0
   12.4340    0.4070   23.2810 C   0  0  0  0  0  0  0  0  0  0  0  0
   10.7350   -1.2790   22.8840 C   0  0  0  0  0  0  0  0  0  0  0  0
   13.2510   -0.2050   22.4080 C   0  0  0  0  0  0  0  0  0  0  0  0
   11.6120   -2.0330   21.8730 C   0  0  0  0  0  0  0  0  0  0  0  0
   12.8550   -1.4650   21.6580 C   0  0  0  0  0  0  0  0  0  0  0  0
   13.6740   -2.0180   20.7970 F   0  0  0  0  0  0  0  0  0  0  0  0
  2  1  1  1
  2  3  1  0
  1  4  1  0
  4  5  2  0
  4  6  1  0
  2  7  1  0
  3  8  1  6
  3  9  1  0
  7 10  1  0
  7 11  2  0
 10 12  1  0
 12 13  1  6
 12 14  1  0
 13 15  2  3
 14 16  1  0
 16 17  1  0
 17 18  1  0
 19 18  1  1
 19 20  1  0
 19 21  1  0
 20 22  1  0
 20 23  2  0
 21 24  2  0
 21 25  1  0
 24 26  1  0
 25 27  2  0
 22 28  1  0
 26 29  2  0
 27 29  1  0
 28 30  2  0
 28 31  1  0
 31 32  1  0
 30 33  1  0
 31 34  2  0
 35 32  1  0
 33 36  2  0
 34 36  1  0
 35 37  2  0
 35 38  2  0
 35 39  1  0
 39 40  2  0
 39 41  1  0
 40 42  1  0
 41 43  2  0
 42 44  2  0
 43 44  1  0
 44 45  1  0
M  END
