x3298-x2703
     RDKit          3D

 39 43  0  0  0  0  0  0  0  0999 V2000
    6.9770   -1.7080   21.8010 N   0  0  0  0  0  0  0  0  0  0  0  0
    6.1160   -2.9200   21.5790 C   0  0  0  0  0  0  0  0  0  0  0  0
    4.8480   -3.0340   21.2080 O   0  0  0  0  0  0  0  0  0  0  0  0
    6.4310   -0.3090   21.6350 C   0  0  1  0  0  0  0  0  0  0  0  0
    8.4260   -1.6410   22.0960 C   0  0  1  0  0  0  0  0  0  0  0  0
    6.7100   -4.2870   21.7680 C   0  0  0  0  0  0  0  0  0  0  0  0
    7.4670    0.8560   21.8250 C   0  0  0  0  0  0  0  0  0  0  0  0
    5.9910    0.1310   20.2510 C   0  0  0  0  0  0  0  0  0  0  0  0
    8.9230   -0.9310   23.4240 C   0  0  2  0  0  0  0  0  0  0  0  0
    9.3790   -2.6080   21.9690 C   0  0  0  0  0  0  0  0  0  0  0  0
    6.6660   -4.9970   20.4200 C   0  0  0  0  0  0  0  0  0  0  0  0
    7.2320    2.0260   22.4890 N   0  0  0  0  0  0  0  0  0  0  0  0
    8.7740    0.8670   21.2250 O   0  0  0  0  0  0  0  0  0  0  0  0
    9.4590    0.3880   23.1710 O   0  0  0  0  0  0  0  0  0  0  0  0
    4.8270    0.8800   20.1290 C   0  0  0  0  0  0  0  0  0  0  0  0
    6.7540   -0.1670   19.1020 C   0  0  0  0  0  0  0  0  0  0  0  0
   10.5960   -2.1940   22.7030 N   0  0  0  0  0  0  0  0  0  0  0  0
   10.0470   -1.7070   23.9690 C   0  0  1  0  0  0  0  0  0  0  0  0
    9.3630    1.6200   23.9460 C   0  0  1  0  0  0  0  0  0  0  0  0
    6.2890    0.3530   17.8020 N   0  0  0  0  0  0  0  0  0  0  0  0
    4.3670    1.3720   18.9470 C   0  0  0  0  0  0  0  0  0  0  0  0
    8.0730    3.2130   22.5270 C   0  0  2  0  0  0  0  0  0  0  0  0
   11.4300   -1.2910   21.8890 C   0  0  2  0  0  0  0  0  0  0  0  0
   10.9470   -0.8360   24.8180 C   0  0  0  0  0  0  0  0  0  0  0  0
    8.3360    1.5400   25.0840 C   0  0  0  0  0  0  0  0  0  0  0  0
   12.5430   -1.9310   21.4020 F   0  0  0  0  0  0  0  0  0  0  0  0
   10.5720    1.7290   24.6500 O   0  0  0  0  0  0  0  0  0  0  0  0
    5.0580    1.1430   17.8010 C   0  0  0  0  0  0  0  0  0  0  0  0
    9.3200    2.9550   23.0630 C   0  0  1  0  0  0  0  0  0  0  0  0
    7.2870    4.5190   22.8550 C   0  0  2  0  0  0  0  0  0  0  0  0
   12.0590   -0.1770   24.0390 C   0  0  2  0  0  0  0  0  0  0  0  0
   11.8800   -0.1470   22.5470 C   0  0  0  0  0  0  0  0  0  0  0  0
    6.0580    4.6140   21.9140 C   0  0  0  0  0  0  0  0  0  0  0  0
   13.2730   -0.9650   24.2760 C   0  0  0  0  0  0  0  0  0  0  0  0
   10.0210    4.1960   23.6370 C   0  0  0  0  0  0  0  0  0  0  0  0
    8.0720    5.6850   22.7650 C   0  0  0  0  0  0  0  0  0  0  0  0
   13.2580   -2.4480   23.9720 C   0  0  0  0  0  0  0  0  0  0  0  0
    9.4190    5.3960   23.4760 C   0  0  0  0  0  0  0  0  0  0  0  0
   13.1520   -3.1490   25.2800 C   0  0  0  0  0  0  0  0  0  0  0  0
  1  2  1  0
  2  3  2  0
  1  4  1  0
  1  5  1  0
  2  6  1  0
  4  7  1  0
  4  8  1  6
  5  9  1  0
  5 10  1  1
  6 11  1  0
  7 12  1  0
  7 13  2  0
  9 14  1  6
  8 15  2  0
  8 16  1  0
 10 17  1  0
  9 18  1  0
 17 18  1  0
 14 19  1  0
 16 20  2  0
 15 21  1  0
 22 12  1  1
 17 23  1  0
 18 24  1  6
 19 25  1  1
 23 26  1  1
 19 27  1  0
 20 28  1  0
 21 28  2  0
 19 29  1  0
 22 29  1  0
 22 30  1  0
 24 31  1  0
 23 32  1  0
 31 32  1  0
 30 33  1  6
 31 34  1  6
 29 35  1  1
 30 36  1  0
 34 37  1  0
 35 38  2  0
 36 38  1  0
 37 39  1  0
M  END
