x3298-x1348
     RDKit          3D

 45 49  0  0  0  0  0  0  0  0999 V2000
    7.0300    2.0770   22.2250 N   0  0  0  0  0  0  0  0  0  0  0  0
    7.9400    1.2840   21.5240 C   0  0  0  0  0  0  0  0  0  0  0  0
    7.3700   -0.0870   21.1600 C   0  0  1  0  0  0  0  0  0  0  0  0
    7.7890    3.1260   22.7060 C   0  0  0  0  0  0  0  0  0  0  0  0
    9.0570    1.6520   21.1800 O   0  0  0  0  0  0  0  0  0  0  0  0
    7.6710    4.4870   22.3960 C   0  0  0  0  0  0  0  0  0  0  0  0
    8.8210    2.6160   23.6250 C   0  0  0  0  0  0  0  0  0  0  0  0
    6.5710   -0.7560   22.1170 O   0  0  0  0  0  0  0  0  0  0  0  0
    8.8930    1.2500   23.9150 N   0  0  0  0  0  0  0  0  0  0  0  0
    6.5610    0.3460   20.0470 C   0  0  0  0  0  0  0  0  0  0  0  0
    8.5430    5.4430   22.9450 C   0  0  0  0  0  0  0  0  0  0  0  0
    9.6980    3.7030   24.1340 C   0  0  0  0  0  0  0  0  0  0  0  0
   10.2550    0.5940   24.6340 S   0  0  0  0  0  0  0  0  0  0  0  0
    7.3310   -1.7020   22.8500 C   0  0  0  0  0  0  0  0  0  0  0  0
    6.9860    0.0720   18.6460 C   0  0  0  0  0  0  0  0  0  0  0  0
    5.2840    1.1210   20.2550 C   0  0  0  0  0  0  0  0  0  0  0  0
    9.5620    5.0500   23.8140 C   0  0  0  0  0  0  0  0  0  0  0  0
   11.0450    1.7720   24.6220 O   0  0  0  0  0  0  0  0  0  0  0  0
    9.9870   -0.2780   25.7630 O   0  0  0  0  0  0  0  0  0  0  0  0
    8.0060   -2.7220   21.9070 C   0  0  0  0  0  0  0  0  0  0  0  0
    6.2810    0.5200   17.4980 N   0  0  0  0  0  0  0  0  0  0  0  0
    4.6430    1.5300   19.0870 C   0  0  0  0  0  0  0  0  0  0  0  0
   11.1800   -0.1910   23.5100 C   0  0  0  0  0  0  0  0  0  0  0  0
    7.0160   -3.6900   21.4110 N   0  0  0  0  0  0  0  0  0  0  0  0
    5.0750    1.2840   17.7790 C   0  0  0  0  0  0  0  0  0  0  0  0
   12.4190    0.3540   23.3060 C   0  0  0  0  0  0  0  0  0  0  0  0
   10.7360   -1.4140   22.7460 C   0  0  0  0  0  0  0  0  0  0  0  0
    6.4870   -3.7250   20.1190 C   0  0  0  0  0  0  0  0  0  0  0  0
   13.2800   -0.1330   22.4540 C   0  0  0  0  0  0  0  0  0  0  0  0
   11.6160   -1.9540   21.8410 C   0  0  0  0  0  0  0  0  0  0  0  0
    6.4040   -4.4950   22.4240 C   0  0  0  0  0  0  0  0  0  0  0  0
    5.4050   -4.2410   19.8150 O   0  0  0  0  0  0  0  0  0  0  0  0
    7.3600   -3.1360   19.0380 C   0  0  0  0  0  0  0  0  0  0  0  0
   12.8620   -1.3550   21.6730 C   0  0  0  0  0  0  0  0  0  0  0  0
    6.8770   -4.4210   23.7930 N   0  0  0  0  0  0  0  0  0  0  0  0
    5.0940   -5.5800   22.1700 S   0  0  0  0  0  0  0  0  0  0  0  0
   13.6950   -1.8680   20.7900 F   0  0  0  0  0  0  0  0  0  0  0  0
    6.0410   -5.2910   24.5220 C   0  0  0  0  0  0  0  0  0  0  0  0
    5.0610   -5.9740   23.8550 C   0  0  0  0  0  0  0  0  0  0  0  0
    6.2750   -5.4200   26.0300 C   0  0  0  0  0  0  0  0  0  0  0  0
    4.1900   -6.8860   24.7090 C   0  0  0  0  0  0  0  0  0  0  0  0
    7.2760   -4.7230   26.7050 O   0  0  0  0  0  0  0  0  0  0  0  0
    4.4010   -6.9980   26.0890 C   0  0  0  0  0  0  0  0  0  0  0  0
    5.4330   -6.2770   26.7560 C   0  0  0  0  0  0  0  0  0  0  0  0
    8.0170   -5.4730   27.6630 C   0  0  0  0  0  0  0  0  0  0  0  0
  1  2  1  0
  2  3  1  0
  1  4  1  0
  2  5  2  0
  4  6  2  0
  4  7  1  0
  3  8  1  1
  7  9  1  0
  3 10  1  0
  6 11  1  0
  7 12  2  0
 13  9  1  0
  8 14  1  0
 10 15  2  0
 10 16  1  0
 11 17  2  0
 12 17  1  0
 13 18  2  0
 13 19  2  0
 14 20  1  0
 15 21  1  0
 16 22  2  0
 13 23  1  0
 20 24  1  0
 21 25  2  0
 22 25  1  0
 23 26  2  0
 23 27  1  0
 24 28  1  0
 26 29  1  0
 27 30  2  0
 24 31  1  0
 28 32  2  0
 28 33  1  0
 29 34  2  0
 30 34  1  0
 31 35  2  0
 31 36  1  0
 34 37  1  0
 35 38  1  0
 36 39  1  0
 38 39  2  0
 38 40  1  0
 39 41  1  0
 40 42  1  0
 41 43  2  0
 40 44  2  0
 43 44  1  0
 42 45  1  0
M  END
