x3298-x2754
     RDKit          3D

 48 52  0  0  0  0  0  0  0  0999 V2000
    7.0390    2.2660   22.0780 N   0  0  0  0  0  0  0  0  0  0  0  0
    7.9000    1.3560   21.4560 C   0  0  0  0  0  0  0  0  0  0  0  0
    7.2800   -0.0370   21.2860 C   0  0  1  0  0  0  0  0  0  0  0  0
    7.8790    3.1930   22.6710 C   0  0  0  0  0  0  0  0  0  0  0  0
    9.0220    1.6400   21.0570 O   0  0  0  0  0  0  0  0  0  0  0  0
    7.8910    4.5770   22.5240 C   0  0  0  0  0  0  0  0  0  0  0  0
    8.8640    2.5080   23.5360 C   0  0  0  0  0  0  0  0  0  0  0  0
    6.3820   -0.4780   22.2910 O   0  0  0  0  0  0  0  0  0  0  0  0
    8.7860    1.1170   23.6500 N   0  0  0  0  0  0  0  0  0  0  0  0
    6.5250    0.2870   20.1000 C   0  0  0  0  0  0  0  0  0  0  0  0
    8.8310    5.3780   23.1730 C   0  0  0  0  0  0  0  0  0  0  0  0
    9.8490    3.4450   24.1840 C   0  0  0  0  0  0  0  0  0  0  0  0
    9.6800    0.3260   24.7920 S   0  0  0  0  0  0  0  0  0  0  0  0
    5.7760   -1.7380   22.0000 C   0  0  0  0  0  0  0  0  0  0  0  0
    7.0200   -0.1070   18.7440 C   0  0  0  0  0  0  0  0  0  0  0  0
    5.2430    1.0650   20.2430 C   0  0  0  0  0  0  0  0  0  0  0  0
    9.8190    4.8380   24.0030 C   0  0  0  0  0  0  0  0  0  0  0  0
    9.8450    1.5030   25.5030 O   0  0  0  0  0  0  0  0  0  0  0  0
    9.0370   -0.8360   25.3430 O   0  0  0  0  0  0  0  0  0  0  0  0
    6.2770    0.2860   17.5900 N   0  0  0  0  0  0  0  0  0  0  0  0
    4.5880    1.4000   19.0670 C   0  0  0  0  0  0  0  0  0  0  0  0
   10.9450   -0.1280   23.7470 C   0  0  0  0  0  0  0  0  0  0  0  0
    6.7340   -2.8380   22.3710 C   0  0  2  0  0  0  0  0  0  0  0  0
    5.0590    1.0540   17.8040 C   0  0  0  0  0  0  0  0  0  0  0  0
   12.1720    0.5220   23.6620 C   0  0  0  0  0  0  0  0  0  0  0  0
   10.6550   -1.3280   22.8590 C   0  0  0  0  0  0  0  0  0  0  0  0
    6.4690   -4.0550   21.6050 N   0  0  0  0  0  0  0  0  0  0  0  0
    6.7520   -3.0180   23.7630 C   0  0  0  0  0  0  0  0  0  0  0  0
    6.1360   -4.0210   20.2830 C   0  0  0  0  0  0  0  0  0  0  0  0
   13.1180    0.1020   22.7980 C   0  0  0  0  0  0  0  0  0  0  0  0
   11.6070   -1.7660   21.9810 C   0  0  0  0  0  0  0  0  0  0  0  0
    5.9180   -4.0180   24.2940 C   0  0  1  0  0  0  0  0  0  0  0  0
    6.0320   -5.2480   22.3190 C   0  0  0  0  0  0  0  0  0  0  0  0
    4.8740   -3.3230   25.2180 C   0  0  0  0  0  0  0  0  0  0  0  0
    5.1660   -4.6260   19.8780 O   0  0  0  0  0  0  0  0  0  0  0  0
    7.0120   -3.2480   19.3240 C   0  0  0  0  0  0  0  0  0  0  0  0
   12.8170   -1.0980   21.9190 C   0  0  0  0  0  0  0  0  0  0  0  0
    5.1290   -4.8630   23.2890 C   0  0  0  0  0  0  0  0  0  0  0  0
   13.7100   -1.5410   21.0420 F   0  0  0  0  0  0  0  0  0  0  0  0
    3.7920   -2.9980   24.7410 O   0  0  0  0  0  0  0  0  0  0  0  0
    5.2410   -3.1320   26.5350 N   0  0  0  0  0  0  0  0  0  0  0  0
    4.6690   -2.2470   27.2910 C   0  0  0  0  0  0  0  0  0  0  0  0
    6.5190   -3.6180   26.9970 C   0  0  0  0  0  0  0  0  0  0  0  0
    6.8140   -4.9770   27.1940 C   0  0  0  0  0  0  0  0  0  0  0  0
    7.5340   -2.7060   27.2640 C   0  0  0  0  0  0  0  0  0  0  0  0
    8.0580   -5.4160   27.6380 C   0  0  0  0  0  0  0  0  0  0  0  0
    8.7810   -3.0600   27.7070 C   0  0  0  0  0  0  0  0  0  0  0  0
    9.1390   -4.4020   27.9240 C   0  0  0  0  0  0  0  0  0  0  0  0
  1  2  1  0
  2  3  1  0
  1  4  1  0
  2  5  2  0
  4  6  2  0
  4  7  1  0
  3  8  1  1
  7  9  1  0
  3 10  1  0
  6 11  1  0
  7 12  2  0
 13  9  1  0
  8 14  1  0
 10 15  2  0
 10 16  1  0
 11 17  2  0
 12 17  1  0
 13 18  2  0
 13 19  2  0
 15 20  1  0
 16 21  2  0
 13 22  1  0
 23 14  1  1
 20 24  2  0
 21 24  1  0
 22 25  2  0
 22 26  1  0
 23 27  1  0
 23 28  1  0
 27 29  1  0
 25 30  1  0
 26 31  2  0
 28 32  1  0
 27 33  1  0
 32 34  1  1
 29 35  2  0
 29 36  1  0
 30 37  2  0
 31 37  1  0
 32 38  1  0
 33 38  1  0
 37 39  1  0
 34 40  2  0
 34 41  1  0
 41 42  1  0
 41 43  1  0
 43 44  2  0
 43 45  1  0
 44 46  1  0
 45 47  2  0
 46 48  2  0
 47 48  1  0
M  END
