x3298-x1493
     RDKit          3D

 42 45  0  0  0  0  0  0  0  0999 V2000
    6.9820    2.0980   22.2800 N   0  0  0  0  0  0  0  0  0  0  0  0
    7.8110    1.2180   21.5620 C   0  0  0  0  0  0  0  0  0  0  0  0
    7.1530   -0.1380   21.2800 C   0  0  1  0  0  0  0  0  0  0  0  0
    7.7590    3.1630   22.6690 C   0  0  0  0  0  0  0  0  0  0  0  0
    8.9330    1.5160   21.1420 O   0  0  0  0  0  0  0  0  0  0  0  0
    7.5790    4.4960   22.3320 C   0  0  0  0  0  0  0  0  0  0  0  0
    8.9000    2.7340   23.5100 C   0  0  0  0  0  0  0  0  0  0  0  0
    6.5150   -0.7160   22.4190 O   0  0  0  0  0  0  0  0  0  0  0  0
    8.9080    1.2720   23.8030 N   0  0  0  0  0  0  0  0  0  0  0  0
    6.3690    0.2360   20.1150 C   0  0  0  0  0  0  0  0  0  0  0  0
    8.4660    5.4880   22.7560 C   0  0  0  0  0  0  0  0  0  0  0  0
    9.9000    3.7870   23.9570 C   0  0  0  0  0  0  0  0  0  0  0  0
   10.1390    0.6370   24.7130 S   0  0  0  0  0  0  0  0  0  0  0  0
    7.1350   -1.9130   22.9250 C   0  0  0  0  0  0  0  0  0  0  0  0
    7.0010   -0.1660   18.7930 C   0  0  0  0  0  0  0  0  0  0  0  0
    5.1700    0.9290   20.1730 C   0  0  0  0  0  0  0  0  0  0  0  0
    9.5950    5.2030   23.5280 C   0  0  0  0  0  0  0  0  0  0  0  0
   10.8740    1.8340   24.7430 O   0  0  0  0  0  0  0  0  0  0  0  0
    9.7510   -0.2090   25.8180 O   0  0  0  0  0  0  0  0  0  0  0  0
    6.1300   -2.8750   23.1420 C   0  0  0  0  0  0  0  0  0  0  0  0
    6.3570    0.2030   17.7000 N   0  0  0  0  0  0  0  0  0  0  0  0
    4.5230    1.2910   19.0110 C   0  0  0  0  0  0  0  0  0  0  0  0
   11.1280   -0.1830   23.5870 C   0  0  0  0  0  0  0  0  0  0  0  0
    5.1050    0.9460   17.8150 C   0  0  0  0  0  0  0  0  0  0  0  0
   12.3480    0.4170   23.3850 C   0  0  0  0  0  0  0  0  0  0  0  0
   10.6860   -1.3280   22.9560 C   0  0  0  0  0  0  0  0  0  0  0  0
    6.7940   -4.1540   23.7380 C   0  0  1  0  0  0  0  0  0  0  0  0
   13.2840   -0.1600   22.4260 C   0  0  0  0  0  0  0  0  0  0  0  0
   11.6170   -1.9740   21.9410 C   0  0  0  0  0  0  0  0  0  0  0  0
    5.8570   -5.1960   24.1750 N   0  0  0  0  0  0  0  0  0  0  0  0
    7.6690   -4.7310   22.8230 C   0  0  0  0  0  0  0  0  0  0  0  0
    5.6360   -5.5970   25.5630 C   0  0  0  0  0  0  0  0  0  0  0  0
   12.8600   -1.4260   21.6760 C   0  0  0  0  0  0  0  0  0  0  0  0
    6.8760   -5.1970   21.6570 N   0  0  0  0  0  0  0  0  0  0  0  0
    5.0870   -5.8000   23.0860 C   0  0  0  0  0  0  0  0  0  0  0  0
   13.6670   -1.9650   20.7880 F   0  0  0  0  0  0  0  0  0  0  0  0
    4.5060   -6.5390   25.8650 C   0  0  0  0  0  0  0  0  0  0  0  0
    6.3920   -5.1790   26.6770 O   0  0  0  0  0  0  0  0  0  0  0  0
    6.7360   -4.3700   20.5490 C   0  0  0  0  0  0  0  0  0  0  0  0
    5.9510   -6.2510   22.0850 C   0  0  0  0  0  0  0  0  0  0  0  0
    5.6790   -4.3410   19.8880 O   0  0  0  0  0  0  0  0  0  0  0  0
    7.9290   -3.5170   20.1250 C   0  0  0  0  0  0  0  0  0  0  0  0
  1  2  1  0
  2  3  1  0
  1  4  1  0
  2  5  2  0
  4  6  2  0
  4  7  1  0
  3  8  1  1
  7  9  1  0
  3 10  1  0
  6 11  1  0
  7 12  2  0
 13  9  1  0
  8 14  1  0
 10 15  2  0
 10 16  1  0
 11 17  2  0
 12 17  1  0
 13 18  2  0
 13 19  2  0
 14 20  1  0
 15 21  1  0
 16 22  2  0
 13 23  1  0
 21 24  2  0
 22 24  1  0
 23 25  2  0
 23 26  1  0
 27 20  1  6
 25 28  1  0
 26 29  2  0
 27 30  1  0
 27 31  1  0
 30 32  1  0
 28 33  2  0
 29 33  1  0
 31 34  1  0
 30 35  1  0
 33 36  1  0
 32 37  1  0
 32 38  2  0
 34 39  1  0
 34 40  1  0
 35 40  1  0
 39 41  2  0
 39 42  1  0
M  END
