x3298-x1402
     RDKit          3D

 48 52  0  0  0  0  0  0  0  0999 V2000
    7.6640    2.0160   21.6080 N   0  0  0  0  0  0  0  0  0  0  0  0
    8.3680    0.8250   21.5430 C   0  0  0  0  0  0  0  0  0  0  0  0
    7.4230   -0.3630   21.2530 C   0  0  1  0  0  0  0  0  0  0  0  0
    8.0000    3.0460   22.4750 C   0  0  0  0  0  0  0  0  0  0  0  0
    9.5740    0.7430   21.6780 O   0  0  0  0  0  0  0  0  0  0  0  0
    8.0130    4.4120   22.2020 C   0  0  0  0  0  0  0  0  0  0  0  0
    8.3860    2.5890   23.8360 C   0  0  0  0  0  0  0  0  0  0  0  0
    6.5530   -0.7680   22.3070 O   0  0  0  0  0  0  0  0  0  0  0  0
    8.4070    1.1520   24.1890 N   0  0  0  0  0  0  0  0  0  0  0  0
    6.6860    0.0990   20.0800 C   0  0  0  0  0  0  0  0  0  0  0  0
    8.3870    5.3050   23.1950 C   0  0  0  0  0  0  0  0  0  0  0  0
    8.7330    3.5310   24.7820 C   0  0  0  0  0  0  0  0  0  0  0  0
    9.9010    0.6650   24.8370 S   0  0  0  0  0  0  0  0  0  0  0  0
    7.0430   -1.8330   23.1070 C   0  0  0  0  0  0  0  0  0  0  0  0
    7.0850   -0.1850   18.6350 C   0  0  0  0  0  0  0  0  0  0  0  0
    5.4420    0.9480   20.3240 C   0  0  0  0  0  0  0  0  0  0  0  0
    8.7430    4.8960   24.4670 C   0  0  0  0  0  0  0  0  0  0  0  0
   10.4990    1.9660   24.8300 O   0  0  0  0  0  0  0  0  0  0  0  0
    9.7470   -0.1840   25.9930 O   0  0  0  0  0  0  0  0  0  0  0  0
    6.0010   -2.9840   23.2100 C   0  0  0  0  0  0  0  0  0  0  0  0
    6.2590    0.4020   17.5940 N   0  0  0  0  0  0  0  0  0  0  0  0
    4.6460    1.5060   19.1650 C   0  0  0  0  0  0  0  0  0  0  0  0
   10.9540   -0.1440   23.6920 C   0  0  0  0  0  0  0  0  0  0  0  0
    5.0810    1.2280   17.8730 C   0  0  0  0  0  0  0  0  0  0  0  0
   12.2050    0.4610   23.4510 C   0  0  0  0  0  0  0  0  0  0  0  0
   10.5940   -1.3040   23.0510 C   0  0  0  0  0  0  0  0  0  0  0  0
    6.6620   -4.2760   23.7380 C   0  0  2  0  0  0  0  0  0  0  0  0
   13.1650   -0.0770   22.5290 C   0  0  0  0  0  0  0  0  0  0  0  0
   11.4760   -1.8600   22.1530 C   0  0  0  0  0  0  0  0  0  0  0  0
    7.4990   -4.8740   22.7870 C   0  0  0  0  0  0  0  0  0  0  0  0
    5.6030   -5.2280   24.1340 N   0  0  0  0  0  0  0  0  0  0  0  0
    5.0390   -5.3110   25.7570 S   0  0  0  0  0  0  0  0  0  0  0  0
   12.8370   -1.2080   21.8730 C   0  0  0  0  0  0  0  0  0  0  0  0
    6.6500   -5.4010   21.6930 N   0  0  0  0  0  0  0  0  0  0  0  0
    4.8530   -5.9370   23.1010 C   0  0  0  0  0  0  0  0  0  0  0  0
   13.6540   -1.7540   20.9890 F   0  0  0  0  0  0  0  0  0  0  0  0
    6.3370   -4.6280   20.5770 C   0  0  0  0  0  0  0  0  0  0  0  0
    4.1450   -6.4490   25.8430 O   0  0  0  0  0  0  0  0  0  0  0  0
    6.1720   -5.1730   26.6370 O   0  0  0  0  0  0  0  0  0  0  0  0
    5.7470   -6.4440   22.1640 C   0  0  0  0  0  0  0  0  0  0  0  0
    4.0590   -3.8490   25.9320 C   0  0  0  0  0  0  0  0  0  0  0  0
    7.2990   -3.5300   20.1170 C   0  0  0  0  0  0  0  0  0  0  0  0
    5.2970   -4.8150   19.9680 O   0  0  0  0  0  0  0  0  0  0  0  0
    2.3420   -3.8570   25.8850 S   0  0  0  0  0  0  0  0  0  0  0  0
    4.5310   -2.5800   26.1220 C   0  0  0  0  0  0  0  0  0  0  0  0
    3.5580   -1.6190   26.2330 C   0  0  0  0  0  0  0  0  0  0  0  0
    2.2720   -2.1460   26.1340 C   0  0  0  0  0  0  0  0  0  0  0  0
    0.7670   -1.3230   26.2300 Cl  0  0  0  0  0  0  0  0  0  0  0  0
  1  2  1  0
  2  3  1  0
  1  4  1  0
  2  5  2  0
  4  6  2  0
  4  7  1  0
  3  8  1  1
  7  9  1  0
  3 10  1  0
  6 11  1  0
  7 12  2  0
 13  9  1  0
  8 14  1  0
 10 15  2  0
 10 16  1  0
 11 17  2  0
 12 17  1  0
 13 18  2  0
 13 19  2  0
 14 20  1  0
 15 21  1  0
 16 22  2  0
 13 23  1  0
 21 24  2  0
 22 24  1  0
 23 25  2  0
 23 26  1  0
 27 20  1  6
 25 28  1  0
 26 29  2  0
 27 30  1  0
 27 31  1  0
 31 32  1  0
 28 33  2  0
 29 33  1  0
 30 34  1  0
 31 35  1  0
 33 36  1  0
 34 37  1  0
 32 38  2  0
 32 39  2  0
 34 40  1  0
 35 40  1  0
 32 41  1  0
 37 42  1  0
 37 43  2  0
 41 44  1  0
 41 45  2  0
 45 46  1  0
 44 47  1  0
 46 47  2  0
 47 48  1  0
M  END
