x3298-x0981
     RDKit          3D

 46 48  0  0  0  0  0  0  0  0999 V2000
    1.3040   -8.6300   21.5090 C   0  0  0  0  0  0  0  0  0  0  0  0
    1.4820   -7.3180   22.2390 C   0  0  0  0  0  0  0  0  0  0  0  0
    2.6480   -7.0690   22.7790 N   0  0  0  0  0  0  0  0  0  0  0  0
    0.5620   -6.5000   22.3020 O   0  0  0  0  0  0  0  0  0  0  0  0
    2.8760   -5.8680   23.4920 C   0  0  1  0  0  0  0  0  0  0  0  0
    2.5820   -6.1090   25.0100 C   0  0  0  0  0  0  0  0  0  0  0  0
    4.3390   -5.2870   23.3050 C   0  0  0  0  0  0  0  0  0  0  0  0
    5.1600   -5.6940   22.2780 N   0  0  0  0  0  0  0  0  0  0  0  0
    4.6600   -4.3410   24.2410 N   0  0  0  0  0  0  0  0  0  0  0  0
    2.9770   -7.5620   25.3540 C   0  0  0  0  0  0  0  0  0  0  0  0
    2.3570   -8.2480   26.3870 N   0  0  0  0  0  0  0  0  0  0  0  0
    4.0010   -8.2080   24.6030 O   0  0  0  0  0  0  0  0  0  0  0  0
    6.2100   -4.7700   21.7650 C   0  0  0  0  0  0  0  0  0  0  0  0
    5.9400   -3.5800   24.3350 C   0  0  0  0  0  0  0  0  0  0  0  0
    6.3930   -4.9870   20.2920 C   0  0  0  0  0  0  0  0  0  0  0  0
    5.7050   -2.3110   23.7850 C   0  0  0  0  0  0  0  0  0  0  0  0
    5.7110   -6.2390   19.7960 C   0  0  0  0  0  0  0  0  0  0  0  0
    6.8150   -1.7990   23.0970 C   0  0  0  0  0  0  0  0  0  0  0  0
    6.2750   -0.8220   22.2000 O   0  0  0  0  0  0  0  0  0  0  0  0
    7.2130   -0.1520   21.3680 C   0  0  2  0  0  0  0  0  0  0  0  0
    7.7360    1.1040   21.6590 C   0  0  0  0  0  0  0  0  0  0  0  0
    6.4770    0.2130   20.1350 C   0  0  0  0  0  0  0  0  0  0  0  0
    7.0240    2.0080   22.5720 N   0  0  0  0  0  0  0  0  0  0  0  0
    8.9330    1.4730   21.0130 O   0  0  0  0  0  0  0  0  0  0  0  0
    6.9540   -0.1140   18.8770 C   0  0  0  0  0  0  0  0  0  0  0  0
    5.2870    0.9180   20.2160 C   0  0  0  0  0  0  0  0  0  0  0  0
    6.3330    0.2300   17.7350 N   0  0  0  0  0  0  0  0  0  0  0  0
    4.5890    1.3040   19.0990 C   0  0  0  0  0  0  0  0  0  0  0  0
    7.7980    3.1250   22.8830 C   0  0  0  0  0  0  0  0  0  0  0  0
    5.1900    0.9190   17.8640 C   0  0  0  0  0  0  0  0  0  0  0  0
    7.4950    4.4610   22.5860 C   0  0  0  0  0  0  0  0  0  0  0  0
    8.9460    2.6900   23.5140 C   0  0  0  0  0  0  0  0  0  0  0  0
    9.0320    1.3520   23.7290 N   0  0  0  0  0  0  0  0  0  0  0  0
    8.4440    5.5630   22.9370 C   0  0  0  0  0  0  0  0  0  0  0  0
    9.9390    3.8430   23.8490 C   0  0  0  0  0  0  0  0  0  0  0  0
   10.2330    0.6940   24.6460 S   0  0  0  0  0  0  0  0  0  0  0  0
    9.7510    5.1920   23.6090 C   0  0  0  0  0  0  0  0  0  0  0  0
   11.0220    1.8530   24.7100 O   0  0  0  0  0  0  0  0  0  0  0  0
    9.8290   -0.1570   25.7420 O   0  0  0  0  0  0  0  0  0  0  0  0
   11.1970   -0.1620   23.5210 C   0  0  0  0  0  0  0  0  0  0  0  0
   12.4370    0.3940   23.2920 C   0  0  0  0  0  0  0  0  0  0  0  0
   10.7490   -1.2990   22.8910 C   0  0  0  0  0  0  0  0  0  0  0  0
   13.2520   -0.1980   22.4020 C   0  0  0  0  0  0  0  0  0  0  0  0
   11.6180   -2.0300   21.8610 C   0  0  0  0  0  0  0  0  0  0  0  0
   12.8560   -1.4520   21.6400 C   0  0  0  0  0  0  0  0  0  0  0  0
   13.6670   -1.9940   20.7630 F   0  0  0  0  0  0  0  0  0  0  0  0
  1  2  1  0
  2  3  1  0
  2  4  2  0
  3  5  1  0
  5  6  1  1
  5  7  1  0
  7  8  1  0
  7  9  2  3
  6 10  1  0
 10 11  1  0
 10 12  2  0
  8 13  1  0
  9 14  1  0
 13 15  1  0
 14 16  1  0
 15 17  2  3
 16 18  1  0
 18 19  1  0
 20 19  1  1
 20 21  1  0
 20 22  1  0
 21 23  1  0
 21 24  2  0
 22 25  2  0
 22 26  1  0
 25 27  1  0
 26 28  2  0
 23 29  1  0
 27 30  2  0
 28 30  1  0
 29 31  2  0
 29 32  1  0
 32 33  1  0
 31 34  1  0
 32 35  2  0
 36 33  1  0
 34 37  2  0
 35 37  1  0
 36 38  2  0
 36 39  2  0
 36 40  1  0
 40 41  2  0
 40 42  1  0
 41 43  1  0
 42 44  2  0
 43 45  2  0
 44 45  1  0
 45 46  1  0
M  END
