x3298-x1374
     RDKit          3D

 48 52  0  0  0  0  0  0  0  0999 V2000
    7.1460    2.0660   22.2190 N   0  0  0  0  0  0  0  0  0  0  0  0
    7.9330    1.1810   21.5120 C   0  0  0  0  0  0  0  0  0  0  0  0
    7.2730   -0.1650   21.2060 C   0  0  1  0  0  0  0  0  0  0  0  0
    7.8150    3.2030   22.6480 C   0  0  0  0  0  0  0  0  0  0  0  0
    9.0460    1.4740   21.1120 O   0  0  0  0  0  0  0  0  0  0  0  0
    7.5910    4.5330   22.2910 C   0  0  0  0  0  0  0  0  0  0  0  0
    8.8200    2.8680   23.5060 C   0  0  0  0  0  0  0  0  0  0  0  0
    6.4480   -0.6590   22.2690 O   0  0  0  0  0  0  0  0  0  0  0  0
    8.9080    1.4590   23.8010 N   0  0  0  0  0  0  0  0  0  0  0  0
    6.4590    0.2100   20.0310 C   0  0  0  0  0  0  0  0  0  0  0  0
    8.4200    5.5330   22.8150 C   0  0  0  0  0  0  0  0  0  0  0  0
    9.6540    3.8720   24.0100 C   0  0  0  0  0  0  0  0  0  0  0  0
   10.2770    0.8830   24.4910 S   0  0  1  0  0  0  0  0  0  0  0  0
    6.9220   -0.0750   18.7820 C   0  0  0  0  0  0  0  0  0  0  0  0
    5.2540    0.8680   20.1910 C   0  0  0  0  0  0  0  0  0  0  0  0
    9.4590    5.2010   23.6740 C   0  0  0  0  0  0  0  0  0  0  0  0
   11.0790    2.0420   24.6040 O   0  0  0  0  0  0  0  0  0  0  0  0
    9.8130   -0.1410   25.5370 N   0  0  0  0  0  0  0  0  0  0  0  0
    6.2560    0.2780   17.6950 N   0  0  0  0  0  0  0  0  0  0  0  0
    4.5120    1.2570   19.0930 C   0  0  0  0  0  0  0  0  0  0  0  0
   11.1890    0.0060   23.3370 C   0  0  0  0  0  0  0  0  0  0  0  0
    9.6470   -1.5300   25.0630 C   0  0  0  0  0  0  0  0  0  0  0  0
    5.1010    0.9230   17.8770 C   0  0  0  0  0  0  0  0  0  0  0  0
   12.4980    0.3830   23.3310 C   0  0  0  0  0  0  0  0  0  0  0  0
   10.6630   -0.9670   22.5290 C   0  0  0  0  0  0  0  0  0  0  0  0
   10.8840   -2.2020   24.9950 C   0  0  0  0  0  0  0  0  0  0  0  0
   13.3170   -0.2410   22.4920 C   0  0  0  0  0  0  0  0  0  0  0  0
   11.5240   -1.6350   21.6690 C   0  0  0  0  0  0  0  0  0  0  0  0
   10.8900   -3.7420   24.9950 C   0  0  0  0  0  0  0  0  0  0  0  0
   12.8510   -1.2450   21.6720 C   0  0  0  0  0  0  0  0  0  0  0  0
   13.6790   -1.8470   20.8450 F   0  0  0  0  0  0  0  0  0  0  0  0
    9.7660   -4.1060   24.3850 C   0  0  0  0  0  0  0  0  0  0  0  0
    9.4880   -3.3650   23.2990 C   0  0  0  0  0  0  0  0  0  0  0  0
    8.8600   -5.1260   24.7200 C   0  0  0  0  0  0  0  0  0  0  0  0
    8.3720   -3.5560   22.5580 C   0  0  0  0  0  0  0  0  0  0  0  0
    7.7030   -5.3450   23.9600 C   0  0  0  0  0  0  0  0  0  0  0  0
    7.4620   -4.5190   22.8510 C   0  0  0  0  0  0  0  0  0  0  0  0
    6.3110   -4.6390   22.0330 N   0  0  0  0  0  0  0  0  0  0  0  0
    6.2760   -4.4670   20.6210 C   0  0  0  0  0  0  0  0  0  0  0  0
    5.0250   -4.9650   22.6720 C   0  0  2  0  0  0  0  0  0  0  0  0
    5.4590   -5.1530   20.0240 O   0  0  0  0  0  0  0  0  0  0  0  0
    7.1700   -3.4480   19.8390 C   0  0  0  0  0  0  0  0  0  0  0  0
    5.0120   -4.6340   24.0470 C   0  0  0  0  0  0  0  0  0  0  0  0
    4.8710   -6.4800   22.6610 C   0  0  0  0  0  0  0  0  0  0  0  0
    3.8260   -6.7780   24.1040 S   0  0  0  0  0  0  0  0  0  0  0  0
    4.4170   -5.4670   24.9400 C   0  0  0  0  0  0  0  0  0  0  0  0
    2.4390   -6.6600   23.7240 O   0  0  0  0  0  0  0  0  0  0  0  0
    4.2800   -8.0380   24.5610 O   0  0  0  0  0  0  0  0  0  0  0  0
  1  2  1  0
  2  3  1  0
  1  4  1  0
  2  5  2  0
  4  6  2  0
  4  7  1  0
  3  8  1  1
  7  9  1  0
  3 10  1  0
  6 11  1  0
  7 12  2  0
 13  9  1  6
 10 14  2  0
 10 15  1  0
 11 16  2  0
 12 16  1  0
 13 17  2  0
 13 18  2  0
 14 19  1  0
 15 20  2  0
 13 21  1  0
 18 22  1  0
 19 23  2  0
 20 23  1  0
 21 24  2  0
 21 25  1  0
 22 26  1  0
 24 27  1  0
 25 28  2  0
 26 29  1  0
 27 30  2  0
 28 30  1  0
 30 31  1  0
 29 32  1  0
 32 33  2  0
 32 34  1  0
 33 35  1  0
 34 36  2  0
 35 37  2  0
 36 37  1  0
 37 38  1  0
 38 39  1  0
 40 38  1  1
 39 41  2  0
 39 42  1  0
 40 43  1  0
 40 44  1  0
 44 45  1  0
 43 46  2  0
 45 46  1  0
 45 47  1  0
 45 48  1  0
M  END
