x3298-x0072
     RDKit          3D

 35 37  0  0  0  0  0  0  0  0999 V2000
    7.6360    2.0020   21.6740 N   0  0  0  0  0  0  0  0  0  0  0  0
    8.3620    0.8320   21.5120 C   0  0  0  0  0  0  0  0  0  0  0  0
    7.4360   -0.3360   21.1280 C   0  0  1  0  0  0  0  0  0  0  0  0
    8.0110    3.0370   22.5230 C   0  0  0  0  0  0  0  0  0  0  0  0
    9.5700    0.7520   21.6340 O   0  0  0  0  0  0  0  0  0  0  0  0
    8.0370    4.3990   22.2210 C   0  0  0  0  0  0  0  0  0  0  0  0
    8.3930    2.6220   23.7800 C   0  0  0  0  0  0  0  0  0  0  0  0
    6.5790   -0.8360   22.1450 O   0  0  0  0  0  0  0  0  0  0  0  0
    8.3970    1.2320   24.1390 N   0  0  0  0  0  0  0  0  0  0  0  0
    6.5810    0.1780   20.0490 C   0  0  0  0  0  0  0  0  0  0  0  0
    8.4400    5.3420   23.1590 C   0  0  0  0  0  0  0  0  0  0  0  0
    8.7840    3.5720   24.7130 C   0  0  0  0  0  0  0  0  0  0  0  0
    9.8520    0.6960   24.8310 S   0  0  0  0  0  0  0  0  0  0  0  0
    6.9490    0.0500   18.7070 C   0  0  0  0  0  0  0  0  0  0  0  0
    5.3860    0.8330   20.3710 C   0  0  0  0  0  0  0  0  0  0  0  0
    8.8210    4.9380   24.4250 C   0  0  0  0  0  0  0  0  0  0  0  0
   10.5020    1.9700   24.8360 O   0  0  0  0  0  0  0  0  0  0  0  0
    9.6900   -0.1900   25.9660 O   0  0  0  0  0  0  0  0  0  0  0  0
    6.3050    0.5010   17.6070 N   0  0  0  0  0  0  0  0  0  0  0  0
    4.6080    1.3660   19.1870 C   0  0  0  0  0  0  0  0  0  0  0  0
   10.8790   -0.1250   23.6790 C   0  0  0  0  0  0  0  0  0  0  0  0
    5.1700    1.1490   17.8250 C   0  0  0  0  0  0  0  0  0  0  0  0
   12.2800    0.4250   23.3800 C   0  0  0  0  0  0  0  0  0  0  0  0
   10.5450   -1.2800   22.9770 C   0  0  0  0  0  0  0  0  0  0  0  0
    9.2400   -2.0510   23.0760 C   0  0  0  0  0  0  0  0  0  0  0  0
   13.2100   -0.0950   22.5030 C   0  0  0  0  0  0  0  0  0  0  0  0
   11.5800   -1.8420   22.0100 C   0  0  0  0  0  0  0  0  0  0  0  0
    9.2200   -3.0320   24.2970 C   0  0  0  0  0  0  0  0  0  0  0  0
   12.8210   -1.2850   21.7890 C   0  0  0  0  0  0  0  0  0  0  0  0
   13.6460   -1.8550   20.8980 F   0  0  0  0  0  0  0  0  0  0  0  0
    8.1400   -3.7810   24.6520 N   0  0  0  0  0  0  0  0  0  0  0  0
    8.1480   -4.5790   26.1540 S   0  0  0  0  0  0  0  0  0  0  0  0
    6.5380   -5.3340   26.2630 C   0  0  0  0  0  0  0  0  0  0  0  0
    9.1520   -5.6140   26.0990 O   0  0  0  0  0  0  0  0  0  0  0  0
    8.1890   -3.5510   27.1690 O   0  0  0  0  0  0  0  0  0  0  0  0
  1  2  1  0
  2  3  1  0
  1  4  1  0
  2  5  2  0
  4  6  2  0
  4  7  1  0
  3  8  1  1
  7  9  1  0
  3 10  1  0
  6 11  1  0
  7 12  2  0
 13  9  1  0
 10 14  2  0
 10 15  1  0
 11 16  2  0
 12 16  1  0
 13 17  2  0
 13 18  2  0
 14 19  1  0
 15 20  2  0
 13 21  1  0
 19 22  2  0
 20 22  1  0
 21 23  2  0
 21 24  1  0
 24 25  1  0
 23 26  1  0
 24 27  2  0
 25 28  1  0
 26 29  2  0
 27 29  1  0
 29 30  1  0
 28 31  1  0
 32 31  1  0
 32 33  1  0
 32 34  2  0
 32 35  2  0
M  END
