x3298-x2052
     RDKit          3D

 47 51  0  0  0  0  0  0  0  0999 V2000
    7.4360    1.6250   21.6830 N   0  0  0  0  0  0  0  0  0  0  0  0
    8.3240    0.5400   21.5210 C   0  0  0  0  0  0  0  0  0  0  0  0
    7.7130   -0.7580   20.9200 C   0  0  2  0  0  0  0  0  0  0  0  0
    7.8610    2.7700   22.3640 C   0  0  0  0  0  0  0  0  0  0  0  0
    9.5090    0.6700   21.7790 O   0  0  0  0  0  0  0  0  0  0  0  0
    7.7880    4.1290   22.0280 C   0  0  0  0  0  0  0  0  0  0  0  0
    8.4950    2.4240   23.6390 C   0  0  0  0  0  0  0  0  0  0  0  0
    8.5960    1.0250   24.0830 N   0  0  0  0  0  0  0  0  0  0  0  0
    6.7380   -0.1680   20.0030 C   0  0  0  0  0  0  0  0  0  0  0  0
    8.3220    5.0890   22.8750 C   0  0  0  0  0  0  0  0  0  0  0  0
    8.9960    3.4150   24.4160 C   0  0  0  0  0  0  0  0  0  0  0  0
    7.3940   -1.9010   21.9090 C   0  0  2  0  0  0  0  0  0  0  0  0
   10.1010    0.6320   24.7330 S   0  0  0  0  0  0  0  0  0  0  0  0
    7.0380   -0.0360   18.5220 C   0  0  0  0  0  0  0  0  0  0  0  0
    5.3910    0.3850   20.4720 C   0  0  0  0  0  0  0  0  0  0  0  0
    8.9320    4.7610   24.0660 C   0  0  0  0  0  0  0  0  0  0  0  0
    6.6040   -3.0120   21.5210 N   0  0  0  0  0  0  0  0  0  0  0  0
    6.8590   -1.3620   23.0960 C   0  0  0  0  0  0  0  0  0  0  0  0
   10.8010    1.8830   24.7290 O   0  0  0  0  0  0  0  0  0  0  0  0
    9.9180   -0.1900   25.9130 O   0  0  0  0  0  0  0  0  0  0  0  0
    6.3970   -3.4250   20.1680 C   0  0  0  0  0  0  0  0  0  0  0  0
    6.1610    0.5810   17.5760 N   0  0  0  0  0  0  0  0  0  0  0  0
    4.4640    1.0420   19.4580 C   0  0  0  0  0  0  0  0  0  0  0  0
   11.0760   -0.2140   23.5910 C   0  0  0  0  0  0  0  0  0  0  0  0
    5.9060   -2.1610   23.7190 C   0  0  2  0  0  0  0  0  0  0  0  0
    6.4910   -4.0390   22.5830 C   0  0  0  0  0  0  0  0  0  0  0  0
    5.4630   -1.6620   25.1100 C   0  0  0  0  0  0  0  0  0  0  0  0
    5.4690   -4.2060   19.8520 O   0  0  0  0  0  0  0  0  0  0  0  0
    7.3240   -3.0440   19.0310 C   0  0  0  0  0  0  0  0  0  0  0  0
    4.9010    1.1020   18.1310 C   0  0  0  0  0  0  0  0  0  0  0  0
   12.3190    0.3740   23.3400 C   0  0  0  0  0  0  0  0  0  0  0  0
   10.6670   -1.3670   22.9680 C   0  0  0  0  0  0  0  0  0  0  0  0
    6.2930   -3.4840   23.8510 C   0  0  0  0  0  0  0  0  0  0  0  0
    4.2810   -1.7530   25.4260 O   0  0  0  0  0  0  0  0  0  0  0  0
    6.4530   -1.1340   25.9310 N   0  0  0  0  0  0  0  0  0  0  0  0
   13.2410   -0.1720   22.4130 C   0  0  0  0  0  0  0  0  0  0  0  0
   11.5240   -1.9340   22.0570 C   0  0  0  0  0  0  0  0  0  0  0  0
   12.8880   -1.2970   21.7610 C   0  0  0  0  0  0  0  0  0  0  0  0
    6.2030   -0.3300   27.0750 C   0  0  0  0  0  0  0  0  0  0  0  0
   13.6820   -1.8470   20.8670 F   0  0  0  0  0  0  0  0  0  0  0  0
    6.4610    1.1730   27.1940 C   0  0  0  0  0  0  0  0  0  0  0  0
    5.6680   -0.9260   28.2100 C   0  0  0  0  0  0  0  0  0  0  0  0
    6.2300    1.9690   28.2740 N   0  0  0  0  0  0  0  0  0  0  0  0
    5.3640   -0.1260   29.4800 C   0  0  0  0  0  0  0  0  0  0  0  0
    5.7050    1.3780   29.3790 C   0  0  0  0  0  0  0  0  0  0  0  0
    5.4460    2.1350   30.5070 O   0  0  0  0  0  0  0  0  0  0  0  0
    6.2430    3.3120   30.5990 C   0  0  0  0  0  0  0  0  0  0  0  0
  1  2  1  0
  3  2  1  1
  1  4  1  0
  2  5  2  0
  4  6  2  0
  4  7  1  0
  7  8  1  0
  3  9  1  0
  6 10  1  0
  7 11  2  0
  3 12  1  0
 13  8  1  0
  9 14  2  0
  9 15  1  0
 10 16  2  0
 11 16  1  0
 12 17  1  0
 12 18  1  1
 13 19  2  0
 13 20  2  0
 17 21  1  0
 14 22  1  0
 15 23  2  0
 13 24  1  0
 18 25  1  0
 17 26  1  0
 25 27  1  1
 21 28  2  0
 21 29  1  0
 22 30  2  0
 23 30  1  0
 24 31  2  0
 24 32  1  0
 25 33  1  0
 26 33  1  0
 27 34  2  0
 27 35  1  0
 31 36  1  0
 32 37  2  0
 36 38  2  0
 37 38  1  0
 35 39  1  0
 38 40  1  0
 39 41  2  0
 39 42  1  0
 41 43  1  0
 42 44  2  0
 43 45  2  0
 44 45  1  0
 45 46  1  0
 46 47  1  0
M  END
