x3298-x2097
     RDKit          3D

 36 39  0  0  0  0  0  0  0  0999 V2000
    7.2420    2.0020   21.9820 N   0  0  0  0  0  0  0  0  0  0  0  0
    8.1290    1.1300   21.4120 C   0  0  0  0  0  0  0  0  0  0  0  0
    7.5460   -0.2430   21.0690 C   0  0  1  0  0  0  0  0  0  0  0  0
    7.8070    3.0500   22.7000 C   0  0  0  0  0  0  0  0  0  0  0  0
    9.2570    1.4660   21.1590 O   0  0  0  0  0  0  0  0  0  0  0  0
    7.6890    4.4850   22.2880 C   0  0  0  0  0  0  0  0  0  0  0  0
    8.4890    2.6520   23.7900 C   0  0  0  0  0  0  0  0  0  0  0  0
    6.7850   -0.9140   22.0210 O   0  0  0  0  0  0  0  0  0  0  0  0
    8.5430    1.3130   24.0730 N   0  0  0  0  0  0  0  0  0  0  0  0
    6.7120    0.1960   19.9330 C   0  0  0  0  0  0  0  0  0  0  0  0
    8.3600    5.5760   23.1120 C   0  0  0  0  0  0  0  0  0  0  0  0
    9.0930    3.5990   24.5480 C   0  0  0  0  0  0  0  0  0  0  0  0
    9.9740    0.7230   24.7640 S   0  0  0  0  0  0  0  0  0  0  0  0
    7.0930   -0.0890   18.5010 C   0  0  0  0  0  0  0  0  0  0  0  0
    5.4500    0.9900   20.3060 C   0  0  0  0  0  0  0  0  0  0  0  0
    9.0480    5.1020   24.2270 C   0  0  0  0  0  0  0  0  0  0  0  0
    7.1050   -2.2650   21.9330 N   0  0  0  0  0  0  0  0  0  0  0  0
   10.7100    1.9500   24.7050 O   0  0  0  0  0  0  0  0  0  0  0  0
    9.7510   -0.0950   25.9370 O   0  0  0  0  0  0  0  0  0  0  0  0
    6.2030    0.4640   17.4760 N   0  0  0  0  0  0  0  0  0  0  0  0
    4.6760    1.4630   19.0960 C   0  0  0  0  0  0  0  0  0  0  0  0
   11.0040   -0.1190   23.6100 C   0  0  0  0  0  0  0  0  0  0  0  0
    6.2000   -2.9950   21.0270 C   0  0  1  0  0  0  0  0  0  0  0  0
    7.3170   -2.8050   23.1790 C   0  0  0  0  0  0  0  0  0  0  0  0
    6.5260   -4.0650   20.0940 C   0  0  0  0  0  0  0  0  0  0  0  0
    5.1240    1.1670   17.8230 C   0  0  0  0  0  0  0  0  0  0  0  0
   12.2790    0.4040   23.3740 C   0  0  0  0  0  0  0  0  0  0  0  0
   10.5410   -1.2580   22.9720 C   0  0  0  0  0  0  0  0  0  0  0  0
    6.2060   -3.1360   23.8250 C   0  0  0  0  0  0  0  0  0  0  0  0
    5.0670   -3.5130   21.8300 N   0  0  0  0  0  0  0  0  0  0  0  0
    5.8260   -5.1410   20.0570 N   0  0  0  0  0  0  0  0  0  0  0  0
   13.1720   -0.1680   22.4790 C   0  0  0  0  0  0  0  0  0  0  0  0
   11.4840   -1.9120   21.9860 C   0  0  0  0  0  0  0  0  0  0  0  0
    5.0290   -2.9520   23.2130 C   0  0  0  0  0  0  0  0  0  0  0  0
   12.8320   -1.3140   21.7590 C   0  0  0  0  0  0  0  0  0  0  0  0
   13.6620   -1.8540   20.8920 F   0  0  0  0  0  0  0  0  0  0  0  0
  1  2  1  0
  2  3  1  0
  1  4  1  0
  2  5  2  0
  4  6  2  0
  4  7  1  0
  3  8  1  1
  7  9  1  0
  3 10  1  0
  6 11  1  0
  7 12  2  0
 13  9  1  0
 10 14  2  0
 10 15  1  0
 11 16  2  0
 12 16  1  0
  8 17  1  0
 13 18  2  0
 13 19  2  0
 14 20  1  0
 15 21  2  0
 13 22  1  0
 17 23  1  0
 17 24  1  0
 23 25  1  1
 20 26  2  0
 21 26  1  0
 22 27  2  0
 22 28  1  0
 24 29  2  0
 23 30  1  0
 25 31  2  3
 27 32  1  0
 28 33  2  0
 29 34  1  0
 30 34  1  0
 32 35  2  0
 33 35  1  0
 35 36  1  0
M  END
