x3298-x1458
     RDKit          3D

 45 48  0  0  0  0  0  0  0  0999 V2000
    7.1740    2.1450   22.1370 N   0  0  0  0  0  0  0  0  0  0  0  0
    7.9270    1.2120   21.4680 C   0  0  0  0  0  0  0  0  0  0  0  0
    7.2240   -0.1220   21.2270 C   0  0  1  0  0  0  0  0  0  0  0  0
    7.9300    3.1270   22.7250 C   0  0  0  0  0  0  0  0  0  0  0  0
    9.0490    1.4520   21.0620 O   0  0  0  0  0  0  0  0  0  0  0  0
    7.9400    4.4870   22.4320 C   0  0  0  0  0  0  0  0  0  0  0  0
    8.7270    2.5780   23.6510 C   0  0  0  0  0  0  0  0  0  0  0  0
    6.3700   -0.5260   22.3080 O   0  0  0  0  0  0  0  0  0  0  0  0
    8.5610    1.1770   23.8380 N   0  0  0  0  0  0  0  0  0  0  0  0
    6.4470    0.2430   20.0450 C   0  0  0  0  0  0  0  0  0  0  0  0
    8.8830    5.3730   23.1650 C   0  0  0  0  0  0  0  0  0  0  0  0
    9.5840    3.3860   24.2920 C   0  0  0  0  0  0  0  0  0  0  0  0
    9.4910    0.1380   24.7310 S   0  0  1  0  0  0  0  0  0  0  0  0
    6.9320   -0.0310   18.7060 C   0  0  0  0  0  0  0  0  0  0  0  0
    5.2370    0.8930   20.2090 C   0  0  0  0  0  0  0  0  0  0  0  0
    9.6950    4.7030   24.1010 C   0  0  0  0  0  0  0  0  0  0  0  0
    9.8460    0.9710   25.7620 O   0  0  0  0  0  0  0  0  0  0  0  0
    8.5350   -1.0350   24.9430 N   0  0  0  0  0  0  0  0  0  0  0  0
    6.2480    0.3460   17.6320 N   0  0  0  0  0  0  0  0  0  0  0  0
    4.5500    1.2680   19.0770 C   0  0  0  0  0  0  0  0  0  0  0  0
   10.8310   -0.3010   23.6660 C   0  0  0  0  0  0  0  0  0  0  0  0
    8.8310   -1.9010   25.9230 C   0  0  0  0  0  0  0  0  0  0  0  0
    5.0940    0.9830   17.8400 C   0  0  0  0  0  0  0  0  0  0  0  0
   12.0480    0.3970   23.6320 C   0  0  0  0  0  0  0  0  0  0  0  0
   10.5880   -1.4900   22.7630 C   0  0  0  0  0  0  0  0  0  0  0  0
    7.6660   -2.3740   26.8630 C   0  0  0  0  0  0  0  0  0  0  0  0
   13.0380    0.0250   22.7850 C   0  0  0  0  0  0  0  0  0  0  0  0
   11.6140   -1.8320   21.9260 C   0  0  0  0  0  0  0  0  0  0  0  0
    7.0200   -3.6890   26.5260 N   0  0  0  0  0  0  0  0  0  0  0  0
   12.7900   -1.1190   21.9210 C   0  0  0  0  0  0  0  0  0  0  0  0
   13.7150   -1.5150   21.0630 F   0  0  0  0  0  0  0  0  0  0  0  0
    7.4000   -4.9870   27.1500 C   0  0  0  0  0  0  0  0  0  0  0  0
    6.2610   -3.6680   25.4340 C   0  0  0  0  0  0  0  0  0  0  0  0
    8.7580   -5.2610   27.0420 C   0  0  0  0  0  0  0  0  0  0  0  0
    5.1220   -3.1780   25.4380 O   0  0  0  0  0  0  0  0  0  0  0  0
    6.8760   -5.1150   28.4340 C   0  0  0  0  0  0  0  0  0  0  0  0
    6.8000   -4.2700   24.1590 C   0  0  0  0  0  0  0  0  0  0  0  0
    7.4980   -3.3060   23.4420 C   0  0  0  0  0  0  0  0  0  0  0  0
    5.9350   -5.1590   23.5280 C   0  0  0  0  0  0  0  0  0  0  0  0
    7.4630   -3.3110   22.0660 C   0  0  0  0  0  0  0  0  0  0  0  0
    6.4430   -5.5370   22.1540 C   0  0  0  0  0  0  0  0  0  0  0  0
    6.7020   -4.3940   21.4520 N   0  0  0  0  0  0  0  0  0  0  0  0
    6.2120   -4.1090   20.2020 C   0  0  0  0  0  0  0  0  0  0  0  0
    5.1320   -4.5320   19.8470 O   0  0  0  0  0  0  0  0  0  0  0  0
    7.1150   -3.2970   19.2870 C   0  0  0  0  0  0  0  0  0  0  0  0
  1  2  1  0
  2  3  1  0
  1  4  1  0
  2  5  2  0
  4  6  2  0
  4  7  1  0
  3  8  1  1
  7  9  1  0
  3 10  1  0
  6 11  1  0
  7 12  2  0
 13  9  1  6
 10 14  2  0
 10 15  1  0
 11 16  2  0
 12 16  1  0
 13 17  2  0
 13 18  2  0
 14 19  1  0
 15 20  2  0
 13 21  1  0
 18 22  1  0
 19 23  2  0
 20 23  1  0
 21 24  2  0
 21 25  1  0
 22 26  1  0
 24 27  1  0
 25 28  2  0
 26 29  1  0
 27 30  2  0
 28 30  1  0
 30 31  1  0
 29 32  1  0
 29 33  1  0
 32 34  1  0
 33 35  2  0
 32 36  1  0
 33 37  1  0
 37 38  1  0
 37 39  1  0
 38 40  1  0
 39 41  1  0
 40 42  1  0
 41 42  1  0
 42 43  1  0
 43 44  2  0
 43 45  1  0
M  END
