x3298-x0786
     RDKit          3D

 48 52  0  0  0  0  0  0  0  0999 V2000
    7.3510    2.2100   21.7300 N   0  0  0  0  0  0  0  0  0  0  0  0
    8.1660    1.2300   21.3200 C   0  0  0  0  0  0  0  0  0  0  0  0
    7.4110   -0.0640   21.0930 C   0  0  1  0  0  0  0  0  0  0  0  0
    7.8250    3.1870   22.5540 C   0  0  0  0  0  0  0  0  0  0  0  0
    9.3220    1.4060   21.1400 O   0  0  0  0  0  0  0  0  0  0  0  0
    7.7770    4.5740   22.3000 C   0  0  0  0  0  0  0  0  0  0  0  0
    8.3890    2.6790   23.7080 C   0  0  0  0  0  0  0  0  0  0  0  0
    6.6280   -0.3720   22.2310 O   0  0  0  0  0  0  0  0  0  0  0  0
    8.4720    1.2470   23.9810 N   0  0  0  0  0  0  0  0  0  0  0  0
    6.5280    0.2940   19.9720 C   0  0  0  0  0  0  0  0  0  0  0  0
    8.3070    5.4770   23.2290 C   0  0  0  0  0  0  0  0  0  0  0  0
    8.8720    3.5820   24.5830 C   0  0  0  0  0  0  0  0  0  0  0  0
    9.9010    0.7230   24.7190 S   0  0  0  0  0  0  0  0  0  0  0  0
    6.7790   -1.7190   22.5830 C   0  0  0  0  0  0  0  0  0  0  0  0
    6.9380   -0.0020   18.7060 C   0  0  0  0  0  0  0  0  0  0  0  0
    5.3210    0.9380   20.1890 C   0  0  0  0  0  0  0  0  0  0  0  0
    8.8550    4.9490   24.3820 C   0  0  0  0  0  0  0  0  0  0  0  0
   10.6040    1.9610   24.7870 O   0  0  0  0  0  0  0  0  0  0  0  0
    9.6800   -0.1530   25.8480 O   0  0  0  0  0  0  0  0  0  0  0  0
    5.7560   -2.3680   21.9410 C   0  0  0  0  0  0  0  0  0  0  0  0
    6.2290    0.3210   17.6380 N   0  0  0  0  0  0  0  0  0  0  0  0
    4.5570    1.2830   19.1020 C   0  0  0  0  0  0  0  0  0  0  0  0
   10.9630   -0.1190   23.5940 C   0  0  0  0  0  0  0  0  0  0  0  0
    5.9580   -3.6880   22.0170 N   0  0  0  0  0  0  0  0  0  0  0  0
    5.0800    0.9490   17.8610 C   0  0  0  0  0  0  0  0  0  0  0  0
   12.2230    0.4820   23.4390 C   0  0  0  0  0  0  0  0  0  0  0  0
   10.5280   -1.2700   22.9490 C   0  0  0  0  0  0  0  0  0  0  0  0
    6.3600   -4.2830   20.8450 C   0  0  0  0  0  0  0  0  0  0  0  0
   13.1240   -0.0720   22.5870 C   0  0  0  0  0  0  0  0  0  0  0  0
   11.5070   -1.7890   22.0820 C   0  0  0  0  0  0  0  0  0  0  0  0
    5.4830   -4.2780   23.1850 C   0  0  0  0  0  0  0  0  0  0  0  0
    7.8610   -4.3390   20.6080 C   0  0  0  0  0  0  0  0  0  0  0  0
    5.5330   -4.7160   20.0130 O   0  0  0  0  0  0  0  0  0  0  0  0
   12.7560   -1.2100   21.9050 C   0  0  0  0  0  0  0  0  0  0  0  0
    4.6550   -5.3730   23.1460 C   0  0  0  0  0  0  0  0  0  0  0  0
    5.8460   -3.7310   24.4300 C   0  0  0  0  0  0  0  0  0  0  0  0
   13.6060   -1.7630   21.0510 F   0  0  0  0  0  0  0  0  0  0  0  0
    4.1780   -5.9180   24.3320 C   0  0  0  0  0  0  0  0  0  0  0  0
    5.3770   -4.2670   25.6060 C   0  0  0  0  0  0  0  0  0  0  0  0
    3.2800   -7.0810   24.3210 C   0  0  0  0  0  0  0  0  0  0  0  0
    4.5340   -5.3680   25.5620 C   0  0  0  0  0  0  0  0  0  0  0  0
    3.7100   -8.1100   24.8250 O   0  0  0  0  0  0  0  0  0  0  0  0
    2.0060   -6.9850   23.7690 N   0  0  0  0  0  0  0  0  0  0  0  0
    1.5160   -5.6030   23.4420 C   0  0  0  0  0  0  0  0  0  0  0  0
    0.9720   -8.0230   23.8580 C   0  0  0  0  0  0  0  0  0  0  0  0
    0.4680   -5.0360   24.4030 C   0  0  0  0  0  0  0  0  0  0  0  0
   -0.1710   -7.6520   24.8210 C   0  0  0  0  0  0  0  0  0  0  0  0
   -1.0110   -6.0750   24.4370 S   0  0  0  0  0  0  0  0  0  0  0  0
  1  2  1  0
  2  3  1  0
  1  4  1  0
  2  5  2  0
  4  6  2  0
  4  7  1  0
  3  8  1  1
  7  9  1  0
  3 10  1  0
  6 11  1  0
  7 12  2  0
 13  9  1  0
  8 14  1  0
 10 15  2  0
 10 16  1  0
 11 17  2  0
 12 17  1  0
 13 18  2  0
 13 19  2  0
 14 20  1  0
 15 21  1  0
 16 22  2  0
 13 23  1  0
 20 24  1  0
 21 25  2  0
 22 25  1  0
 23 26  2  0
 23 27  1  0
 24 28  1  0
 26 29  1  0
 27 30  2  0
 24 31  1  0
 28 32  1  0
 28 33  2  0
 29 34  2  0
 30 34  1  0
 31 35  2  0
 31 36  1  0
 34 37  1  0
 35 38  1  0
 36 39  2  0
 38 40  1  0
 38 41  2  0
 39 41  1  0
 40 42  2  0
 40 43  1  0
 43 44  1  0
 43 45  1  0
 44 46  1  0
 45 47  1  0
 46 48  1  0
 47 48  1  0
M  END
