x3298-x1385
     RDKit          3D

 44 48  0  0  0  0  0  0  0  0999 V2000
    7.1480    1.9390   22.3590 N   0  0  0  0  0  0  0  0  0  0  0  0
    7.7640    0.8380   21.7290 C   0  0  0  0  0  0  0  0  0  0  0  0
    6.7110   -0.2350   21.4330 C   0  0  1  0  0  0  0  0  0  0  0  0
    7.8900    3.0710   22.6750 C   0  0  0  0  0  0  0  0  0  0  0  0
    8.9520    0.7650   21.4190 O   0  0  0  0  0  0  0  0  0  0  0  0
    7.6800    4.3990   22.2950 C   0  0  0  0  0  0  0  0  0  0  0  0
    8.9400    2.7090   23.4410 C   0  0  0  0  0  0  0  0  0  0  0  0
    5.6420   -0.0170   22.3250 O   0  0  0  0  0  0  0  0  0  0  0  0
    8.9910    1.3150   23.7840 N   0  0  0  0  0  0  0  0  0  0  0  0
    6.1690    0.2260   20.1440 C   0  0  0  0  0  0  0  0  0  0  0  0
    8.5890    5.3920   22.7030 C   0  0  0  0  0  0  0  0  0  0  0  0
    9.8570    3.6840   23.8180 C   0  0  0  0  0  0  0  0  0  0  0  0
    6.9750   -1.6860   21.7330 C   0  0  1  0  0  0  0  0  0  0  0  0
   10.2450    0.6670   24.6640 S   0  0  0  0  0  0  0  0  0  0  0  0
    6.8570    0.1140   18.9300 C   0  0  0  0  0  0  0  0  0  0  0  0
    4.9130    0.8400   20.2110 C   0  0  0  0  0  0  0  0  0  0  0  0
    9.6910    5.0150   23.4660 C   0  0  0  0  0  0  0  0  0  0  0  0
    6.2460   -2.8160   21.1800 N   0  0  0  0  0  0  0  0  0  0  0  0
    8.4200   -1.9910   22.0490 C   0  0  0  0  0  0  0  0  0  0  0  0
   11.0290    1.8300   24.7220 O   0  0  0  0  0  0  0  0  0  0  0  0
    9.8840   -0.2290   25.7460 O   0  0  0  0  0  0  0  0  0  0  0  0
    6.2160   -3.2650   19.8800 C   0  0  0  0  0  0  0  0  0  0  0  0
    6.4690    0.5600   17.7030 N   0  0  0  0  0  0  0  0  0  0  0  0
    4.3750    1.3820   18.9100 C   0  0  0  0  0  0  0  0  0  0  0  0
   11.2230   -0.1160   23.5160 C   0  0  0  0  0  0  0  0  0  0  0  0
    6.1530   -3.8270   22.2230 C   0  0  0  0  0  0  0  0  0  0  0  0
    8.4420   -3.2020   22.8870 N   0  0  0  0  0  0  0  0  0  0  0  0
    7.3710   -2.9380   18.9110 C   0  0  0  0  0  0  0  0  0  0  0  0
    5.2530   -3.9430   19.5550 O   0  0  0  0  0  0  0  0  0  0  0  0
    9.4300   -3.2870   23.9350 C   0  0  0  0  0  0  0  0  0  0  0  0
    5.1830    1.2380   17.6640 C   0  0  0  0  0  0  0  0  0  0  0  0
   12.5580    0.4830   23.2600 C   0  0  0  0  0  0  0  0  0  0  0  0
   10.8930   -1.2250   22.8040 C   0  0  0  0  0  0  0  0  0  0  0  0
    7.3880   -4.1990   22.6470 C   0  0  0  0  0  0  0  0  0  0  0  0
   13.4420    0.0080   22.3760 C   0  0  0  0  0  0  0  0  0  0  0  0
   11.8360   -1.8130   21.8020 C   0  0  0  0  0  0  0  0  0  0  0  0
    9.1080   -4.2540   25.0300 C   0  0  0  0  0  0  0  0  0  0  0  0
   13.0410   -1.1720   21.6390 C   0  0  0  0  0  0  0  0  0  0  0  0
    9.6730   -5.4920   25.2800 C   0  0  0  0  0  0  0  0  0  0  0  0
    7.9020   -3.8680   26.1890 S   0  0  0  0  0  0  0  0  0  0  0  0
   13.8550   -1.6840   20.7190 F   0  0  0  0  0  0  0  0  0  0  0  0
    8.1360   -5.3300   26.9990 C   0  0  0  0  0  0  0  0  0  0  0  0
    9.1210   -6.1140   26.4180 C   0  0  0  0  0  0  0  0  0  0  0  0
    7.1210   -5.8030   28.5400 Br  0  0  0  0  0  0  0  0  0  0  0  0
  1  2  1  0
  2  3  1  0
  1  4  1  0
  2  5  2  0
  4  6  2  0
  4  7  1  0
  3  8  1  1
  7  9  1  0
  3 10  1  0
  6 11  1  0
  7 12  2  0
  3 13  1  0
 14  9  1  0
 10 15  2  0
 10 16  1  0
 11 17  2  0
 12 17  1  0
 13 18  1  0
 13 19  1  6
 14 20  2  0
 14 21  2  0
 18 22  1  0
 15 23  1  0
 16 24  2  0
 14 25  1  0
 18 26  1  0
 19 27  1  0
 22 28  1  0
 22 29  2  0
 27 30  1  0
 23 31  2  0
 24 31  1  0
 25 32  2  0
 25 33  1  0
 26 34  1  0
 27 34  1  0
 32 35  1  0
 33 36  2  0
 30 37  1  0
 35 38  2  0
 36 38  1  0
 37 39  2  0
 37 40  1  0
 38 41  1  0
 40 42  1  0
 39 43  1  0
 42 43  2  0
 42 44  1  0
M  END
