x3303-x2754
     RDKit          3D

 43 49  0  0  0  0  0  0  0  0999 V2000
    4.9540   -3.0230   25.2810 C   0  0  0  0  0  0  0  0  0  0  0  0
    5.6910   -2.8130   26.5310 N   0  0  0  0  0  0  0  0  0  0  0  0
    5.0280   -2.1430   27.5460 C   0  0  0  0  0  0  0  0  0  0  0  0
    3.5310   -3.0300   25.2070 O   0  0  0  0  0  0  0  0  0  0  0  0
    5.7610   -3.2360   23.9880 C   0  0  2  0  0  0  0  0  0  0  0  0
    6.2430   -1.9480   23.4490 C   0  0  0  0  0  0  0  0  0  0  0  0
    4.6840   -4.0740   23.1670 C   0  0  0  0  0  0  0  0  0  0  0  0
    6.9110   -3.5400   26.7950 C   0  0  0  0  0  0  0  0  0  0  0  0
    7.0760   -2.4700   22.4100 C   0  0  2  0  0  0  0  0  0  0  0  0
    5.8220   -4.5250   22.6290 C   0  0  0  0  0  0  0  0  0  0  0  0
    7.0270   -4.6930   27.7230 C   0  0  0  0  0  0  0  0  0  0  0  0
    8.0360   -3.1290   26.1400 C   0  0  0  0  0  0  0  0  0  0  0  0
    6.2490   -3.3980   21.7530 C   0  0  2  0  0  0  0  0  0  0  0  0
    8.2160   -5.3700   27.9620 C   0  0  0  0  0  0  0  0  0  0  0  0
    9.3060   -3.8740   26.4170 C   0  0  0  0  0  0  0  0  0  0  0  0
    8.5460   -2.7500   22.7760 C   0  0  0  0  0  0  0  0  0  0  0  0
    7.2080   -1.4780   21.3360 N   0  0  0  0  0  0  0  0  0  0  0  0
    6.4230   -4.0210   20.3220 C   0  0  0  0  0  0  0  0  0  0  0  0
    6.0640   -1.3620   20.8380 C   0  0  0  0  0  0  0  0  0  0  0  0
    5.2230   -2.5560   21.1090 N   0  0  0  0  0  0  0  0  0  0  0  0
    9.3660   -4.9380   27.2920 C   0  0  0  0  0  0  0  0  0  0  0  0
    8.2520   -0.5840   21.3060 C   0  0  0  0  0  0  0  0  0  0  0  0
    9.3540   -1.5630   23.1970 N   0  0  0  0  0  0  0  0  0  0  0  0
    5.8610   -5.0790   20.0410 O   0  0  0  0  0  0  0  0  0  0  0  0
    7.2190   -3.2720   19.2400 C   0  0  0  0  0  0  0  0  0  0  0  0
    8.9580   -0.2690   22.6000 C   0  0  0  0  0  0  0  0  0  0  0  0
    5.6290   -0.1970   20.0490 C   0  0  0  0  0  0  0  0  0  0  0  0
   10.7100   -1.8300   23.3740 C   0  0  0  0  0  0  0  0  0  0  0  0
    4.6700    0.7980   20.6030 C   0  0  0  0  0  0  0  0  0  0  0  0
    6.3020   -0.2030   18.6690 C   0  0  0  0  0  0  0  0  0  0  0  0
   11.5900   -1.7400   22.2920 C   0  0  0  0  0  0  0  0  0  0  0  0
   11.1450   -2.1720   24.5770 C   0  0  0  0  0  0  0  0  0  0  0  0
    4.3010    1.8530   19.8170 C   0  0  0  0  0  0  0  0  0  0  0  0
    5.6660    1.0870   18.1270 C   0  0  0  0  0  0  0  0  0  0  0  0
   13.0340   -2.0270   22.4420 C   0  0  0  0  0  0  0  0  0  0  0  0
   12.4900   -2.4660   24.7880 C   0  0  0  0  0  0  0  0  0  0  0  0
    4.1270    0.7070   21.8980 C   0  0  0  0  0  0  0  0  0  0  0  0
    6.1330    1.3100   16.8930 O   0  0  0  0  0  0  0  0  0  0  0  0
    4.7870    1.9700   18.6410 N   0  0  0  0  0  0  0  0  0  0  0  0
   13.3780   -2.3900   23.7420 C   0  0  0  0  0  0  0  0  0  0  0  0
    3.1450    1.7750   22.4000 C   0  0  0  0  0  0  0  0  0  0  0  0
    3.4170    2.8290   20.2270 C   0  0  0  0  0  0  0  0  0  0  0  0
    2.8100    2.8040   21.5580 C   0  0  0  0  0  0  0  0  0  0  0  0
  1  2  1  0
  2  3  1  0
  1  4  2  0
  5  1  1  1
  5  6  1  0
  5  7  1  0
  2  8  1  0
  9  6  1  1
  7 10  1  0
  8 11  2  0
  8 12  1  0
  9 13  1  0
 10 13  1  0
 11 14  1  0
 12 15  2  0
  9 16  1  0
  9 17  1  0
 13 18  1  6
 17 19  1  0
 13 20  1  0
 19 20  2  0
 14 21  2  0
 15 21  1  0
 17 22  1  0
 16 23  1  0
 18 24  2  0
 18 25  1  0
 22 26  1  0
 23 26  1  0
 19 27  1  0
 23 28  1  0
 27 29  1  0
 27 30  2  0
 28 31  2  0
 28 32  1  0
 29 33  2  0
 30 34  1  0
 31 35  1  0
 32 36  2  0
 29 37  1  0
 34 38  1  0
 33 39  1  0
 34 39  2  0
 35 40  2  0
 36 40  1  0
 37 41  2  0
 33 42  1  0
 41 43  1  0
 42 43  2  0
M  END
