x3305-x1249
     RDKit          3D

 39 42  0  0  0  0  0  0  0  0999 V2000
    3.2830   -7.4060   24.0150 C   0  0  0  0  0  0  0  0  0  0  0  0
    4.3960   -6.5030   23.7430 N   0  0  0  0  0  0  0  0  0  0  0  0
    4.5590   -5.2530   24.2130 C   0  0  0  0  0  0  0  0  0  0  0  0
    5.4260   -6.8550   22.9470 N   0  0  0  0  0  0  0  0  0  0  0  0
    5.7490   -4.8230   23.6730 C   0  0  0  0  0  0  0  0  0  0  0  0
    6.2680   -5.8280   22.8970 N   0  0  0  0  0  0  0  0  0  0  0  0
    6.4450   -3.5470   23.8160 C   0  0  0  0  0  0  0  0  0  0  0  0
    7.0590   -3.3750   22.6190 N   0  0  0  0  0  0  0  0  0  0  0  0
    6.3870   -2.8570   21.4360 C   0  0  0  0  0  0  0  0  0  0  0  0
    5.4090   -3.3960   20.9300 O   0  0  0  0  0  0  0  0  0  0  0  0
    6.9800   -1.7200   20.9460 N   0  0  0  0  0  0  0  0  0  0  0  0
    8.0390   -1.0000   21.5630 C   0  0  0  0  0  0  0  0  0  0  0  0
    6.8460   -1.4610   19.5400 C   0  0  0  0  0  0  0  0  0  0  0  0
    9.0310   -1.8930   21.9650 C   0  0  0  0  0  0  0  0  0  0  0  0
    6.0470   -0.4040   19.2330 C   0  0  0  0  0  0  0  0  0  0  0  0
    6.4710    0.5880   18.1620 C   0  0  0  0  0  0  0  0  0  0  0  0
    4.7000   -0.1170   19.8960 C   0  0  0  0  0  0  0  0  0  0  0  0
   10.1860   -1.1290   22.3080 C   0  0  0  0  0  0  0  0  0  0  0  0
    5.7780    1.6350   17.7290 N   0  0  0  0  0  0  0  0  0  0  0  0
    3.9780    1.0980   19.3820 C   0  0  0  0  0  0  0  0  0  0  0  0
    9.9970   -0.0270   23.0530 C   0  0  0  0  0  0  0  0  0  0  0  0
   11.3350   -1.4410   21.9070 C   0  0  0  0  0  0  0  0  0  0  0  0
    4.6130    1.9070   18.2810 C   0  0  0  0  0  0  0  0  0  0  0  0
   10.9660    0.9890   23.5490 C   0  0  0  0  0  0  0  0  0  0  0  0
   12.4510   -0.5640   22.2740 C   0  0  0  0  0  0  0  0  0  0  0  0
   13.5200   -1.1370   21.5790 C   0  0  0  0  0  0  0  0  0  0  0  0
   12.3530    0.6860   23.1330 C   0  0  0  0  0  0  0  0  0  0  0  0
   10.3620    2.0790   24.3040 C   0  0  0  0  0  0  0  0  0  0  0  0
   14.1240   -1.5810   20.3810 N   0  0  0  0  0  0  0  0  0  0  0  0
    9.2980    1.5360   25.2950 C   0  0  0  0  0  0  0  0  0  0  0  0
    8.1560    0.8700   24.7410 N   0  0  0  0  0  0  0  0  0  0  0  0
    7.3770    1.5830   23.8950 C   0  0  0  0  0  0  0  0  0  0  0  0
    7.8080    2.5610   23.2920 O   0  0  0  0  0  0  0  0  0  0  0  0
    6.0870    1.1440   23.7650 N   0  0  0  0  0  0  0  0  0  0  0  0
    5.2830    1.5270   22.5960 C   0  0  0  0  0  0  0  0  0  0  0  0
    5.3540    0.9350   25.0300 C   0  0  0  0  0  0  0  0  0  0  0  0
    3.9330    0.8380   22.5730 C   0  0  0  0  0  0  0  0  0  0  0  0
    4.1520    0.2690   24.8370 C   0  0  0  0  0  0  0  0  0  0  0  0
    3.3300    0.9070   23.8620 O   0  0  0  0  0  0  0  0  0  0  0  0
  1  2  1  0
  2  3  1  0
  2  4  1  0
  3  5  2  0
  4  6  2  0
  5  6  1  0
  5  7  1  0
  7  8  1  0
  8  9  1  0
  9 10  2  0
  9 11  1  0
 11 12  1  0
 11 13  1  0
 12 14  1  0
 13 15  1  0
 15 16  2  0
 15 17  1  0
 14 18  1  0
 16 19  1  0
 17 20  2  0
 18 21  2  0
 18 22  1  0
 19 23  2  0
 20 23  1  0
 21 24  1  0
 22 25  2  0
 25 26  1  0
 24 27  2  0
 25 27  1  0
 24 28  1  0
 26 29  3  0
 28 30  1  0
 30 31  1  0
 31 32  1  0
 32 33  2  0
 32 34  1  0
 34 35  1  0
 34 36  1  0
 35 37  1  0
 36 38  1  0
 37 39  1  0
 38 39  1  0
M  END
