x3303-x2608
     RDKit          3D

 30 34  0  0  0  0  0  0  0  0999 V2000
    6.4350   -1.4510   20.9970 C   0  0  0  0  0  0  0  0  0  0  0  0
    7.7450   -1.5760   21.6690 N   0  0  0  0  0  0  0  0  0  0  0  0
    8.8970   -0.7540   21.5970 C   0  0  1  0  0  0  0  0  0  0  0  0
    5.5590   -2.5580   21.1810 O   0  0  0  0  0  0  0  0  0  0  0  0
    5.9040   -0.2690   20.1380 C   0  0  0  0  0  0  0  0  0  0  0  0
    8.0640   -2.7140   22.5240 C   0  0  0  0  0  0  0  0  0  0  0  0
    4.8050    0.4870   20.7000 C   0  0  0  0  0  0  0  0  0  0  0  0
    6.6950   -0.1530   18.7810 C   0  0  0  0  0  0  0  0  0  0  0  0
    8.4340    0.4800   21.0700 O   0  0  0  0  0  0  0  0  0  0  0  0
    9.6150   -0.5130   22.8710 C   0  0  1  0  0  0  0  0  0  0  0  0
    8.4460   -2.2670   23.9270 C   0  0  0  0  0  0  0  0  0  0  0  0
    4.4630    1.4780   19.7940 C   0  0  0  0  0  0  0  0  0  0  0  0
    6.0650    0.9110   18.2030 C   0  0  0  0  0  0  0  0  0  0  0  0
    4.0840    0.3190   22.0110 C   0  0  0  0  0  0  0  0  0  0  0  0
    6.4060    1.3980   16.9920 O   0  0  0  0  0  0  0  0  0  0  0  0
    8.7960   -0.9030   23.9000 N   0  0  0  0  0  0  0  0  0  0  0  0
    5.0530    1.6400   18.6820 N   0  0  0  0  0  0  0  0  0  0  0  0
    3.0200    1.1510   22.4050 C   0  0  0  0  0  0  0  0  0  0  0  0
    3.3350    2.4070   20.1430 C   0  0  0  0  0  0  0  0  0  0  0  0
   11.0610   -1.0250   23.1300 C   0  0  0  0  0  0  0  0  0  0  0  0
    9.8800    1.1550   23.1940 S   0  0  0  0  0  0  0  0  0  0  0  0
   11.7250   -1.8800   22.0700 C   0  0  0  0  0  0  0  0  0  0  0  0
   11.2560   -1.8780   24.4570 C   0  0  0  0  0  0  0  0  0  0  0  0
    2.5850    2.2740   21.4450 C   0  0  0  0  0  0  0  0  0  0  0  0
   11.6090    1.1100   22.8290 C   0  0  2  0  0  0  0  0  0  0  0  0
   12.1300   -0.0140   23.3340 C   0  0  0  0  0  0  0  0  0  0  0  0
   12.3320    2.4200   22.9740 C   0  0  0  0  0  0  0  0  0  0  0  0
   12.9100   -2.5590   22.3210 C   0  0  0  0  0  0  0  0  0  0  0  0
   12.5630   -2.5860   24.5870 C   0  0  0  0  0  0  0  0  0  0  0  0
   13.4880   -2.4520   23.5910 C   0  0  0  0  0  0  0  0  0  0  0  0
  1  2  1  0
  2  3  1  0
  1  4  2  0
  1  5  1  0
  2  6  1  0
  5  7  1  0
  5  8  2  0
  3  9  1  1
  3 10  1  0
  6 11  1  0
  7 12  2  0
  8 13  1  0
  7 14  1  0
 13 15  1  0
 10 16  1  1
 11 16  1  0
 12 17  1  0
 13 17  2  0
 14 18  2  0
 12 19  1  0
 10 20  1  0
 10 21  1  0
 20 22  1  0
 20 23  1  0
 18 24  1  0
 19 24  2  0
 21 25  1  0
 20 26  1  0
 25 26  1  0
 25 27  1  1
 22 28  2  0
 23 29  2  0
 28 30  1  0
 29 30  1  0
M  END
