x3303-x0104
     RDKit          3D

 33 37  0  0  0  0  0  0  0  0999 V2000
    9.0850    6.5580   22.6070 C   0  0  0  0  0  0  0  0  0  0  0  0
   10.2740    6.1070   23.4720 C   0  0  0  0  0  0  0  0  0  0  0  0
   10.2350    6.2560   24.6900 O   0  0  0  0  0  0  0  0  0  0  0  0
   11.2730    5.5640   22.7150 N   0  0  0  0  0  0  0  0  0  0  0  0
   12.4130    5.0010   23.2880 C   0  0  0  0  0  0  0  0  0  0  0  0
   12.7330    3.6650   22.8060 C   0  0  0  0  0  0  0  0  0  0  0  0
   11.8520    2.3820   22.9340 C   0  0  2  0  0  0  0  0  0  0  0  0
   10.5350    2.9630   23.4100 C   0  0  0  0  0  0  0  0  0  0  0  0
   11.7790    0.9190   23.5840 C   0  0  1  0  0  0  0  0  0  0  0  0
    9.8100    1.9110   23.8080 N   0  0  0  0  0  0  0  0  0  0  0  0
   10.4300    0.6930   23.1470 C   0  0  2  0  0  0  0  0  0  0  0  0
   12.6400   -0.0010   22.8290 C   0  0  0  0  0  0  0  0  0  0  0  0
    9.2600   -0.7280   22.9840 S   0  0  0  0  0  0  0  0  0  0  0  0
   12.0650   -1.1580   22.3490 C   0  0  2  0  0  0  0  0  0  0  0  0
   12.9700   -1.8550   21.5810 F   0  0  0  0  0  0  0  0  0  0  0  0
   10.5560   -1.0240   21.9030 C   0  0  0  0  0  0  0  0  0  0  0  0
    7.9870    0.4090   23.0580 C   0  0  0  0  0  0  0  0  0  0  0  0
    8.6350   -2.1250   23.8600 C   0  0  0  0  0  0  0  0  0  0  0  0
    8.2430   -1.9090   22.0400 N   0  0  0  0  0  0  0  0  0  0  0  0
    6.9000   -1.6490   21.4820 C   0  0  0  0  0  0  0  0  0  0  0  0
    8.3270   -2.9180   22.8510 C   0  0  0  0  0  0  0  0  0  0  0  0
    6.0300   -2.5100   21.6980 O   0  0  0  0  0  0  0  0  0  0  0  0
    6.2990   -0.5020   20.6220 C   0  0  0  0  0  0  0  0  0  0  0  0
    5.0580    0.4150   20.8900 C   0  0  0  0  0  0  0  0  0  0  0  0
    6.9570   -0.2000   19.2710 C   0  0  0  0  0  0  0  0  0  0  0  0
    4.6070    1.4020   19.9920 C   0  0  0  0  0  0  0  0  0  0  0  0
    6.3350    0.9250   18.4040 C   0  0  0  0  0  0  0  0  0  0  0  0
    4.2060    0.2930   22.1980 C   0  0  0  0  0  0  0  0  0  0  0  0
    6.9540    1.1960   17.1840 O   0  0  0  0  0  0  0  0  0  0  0  0
    5.2760    1.6380   18.7370 N   0  0  0  0  0  0  0  0  0  0  0  0
    3.0910    1.0940   22.4650 C   0  0  0  0  0  0  0  0  0  0  0  0
    3.4520    2.2220   20.2800 C   0  0  0  0  0  0  0  0  0  0  0  0
    2.7540    2.0940   21.4010 C   0  0  0  0  0  0  0  0  0  0  0  0
  1  2  1  0
  2  3  2  0
  2  4  1  0
  4  5  1  0
  5  6  1  0
  7  6  1  1
  7  8  1  0
  7  9  1  0
  8 10  1  0
  9 11  1  0
 11 10  1  1
  9 12  1  6
 11 13  1  0
 12 14  1  0
 14 15  1  6
 13 16  1  0
 14 16  1  0
 13 17  1  0
 13 18  1  0
 13 19  1  0
 19 20  1  0
 18 21  1  0
 19 21  1  0
 20 22  2  0
 20 23  1  0
 23 24  1  0
 23 25  2  0
 24 26  2  0
 25 27  1  0
 24 28  1  0
 27 29  1  0
 26 30  1  0
 27 30  2  0
 28 31  2  0
 26 32  1  0
 31 33  1  0
 32 33  2  0
M  END
