x3305-x0540
     RDKit          3D

 38 41  0  0  0  0  0  0  0  0999 V2000
    3.4290   -7.1820   23.7580 C   0  0  0  0  0  0  0  0  0  0  0  0
    4.5610   -6.3000   23.5940 N   0  0  0  0  0  0  0  0  0  0  0  0
    4.6930   -5.0810   24.1580 C   0  0  0  0  0  0  0  0  0  0  0  0
    5.6200   -6.6250   22.8390 N   0  0  0  0  0  0  0  0  0  0  0  0
    5.8830   -4.6460   23.7290 C   0  0  0  0  0  0  0  0  0  0  0  0
    6.4590   -5.6010   22.9120 N   0  0  0  0  0  0  0  0  0  0  0  0
    6.5510   -3.3600   24.0330 C   0  0  0  0  0  0  0  0  0  0  0  0
    7.2370   -2.9900   22.9230 N   0  0  0  0  0  0  0  0  0  0  0  0
    6.6320   -2.4840   21.7970 C   0  0  0  0  0  0  0  0  0  0  0  0
    5.6590   -3.0220   21.2680 O   0  0  0  0  0  0  0  0  0  0  0  0
    7.1950   -1.3380   21.3030 N   0  0  0  0  0  0  0  0  0  0  0  0
    8.3470   -0.7970   21.8090 C   0  0  0  0  0  0  0  0  0  0  0  0
    6.9840   -1.1770   19.8750 C   0  0  0  0  0  0  0  0  0  0  0  0
    9.4600   -1.7770   22.2040 C   0  0  0  0  0  0  0  0  0  0  0  0
    6.1410   -0.0550   19.4520 C   0  0  0  0  0  0  0  0  0  0  0  0
    6.4040    0.3600   18.2390 C   0  0  0  0  0  0  0  0  0  0  0  0
    5.1290    0.5780   20.1780 C   0  0  0  0  0  0  0  0  0  0  0  0
   10.7500   -1.0630   22.3980 C   0  0  0  0  0  0  0  0  0  0  0  0
    4.6690    0.2550   21.6380 C   0  0  0  0  0  0  0  0  0  0  0  0
    5.8340    1.3420   17.4910 N   0  0  0  0  0  0  0  0  0  0  0  0
    4.4750    1.5920   19.5230 C   0  0  0  0  0  0  0  0  0  0  0  0
   10.7320    0.2640   22.8960 C   0  0  0  0  0  0  0  0  0  0  0  0
   11.9380   -1.7050   22.0840 C   0  0  0  0  0  0  0  0  0  0  0  0
    5.0040    1.2900   22.5610 C   0  0  0  0  0  0  0  0  0  0  0  0
    4.8540    1.9740   18.1210 C   0  0  0  0  0  0  0  0  0  0  0  0
   11.8830    1.0350   23.1060 C   0  0  0  0  0  0  0  0  0  0  0  0
   13.2090   -0.9610   22.2810 C   0  0  0  0  0  0  0  0  0  0  0  0
    4.0540    2.2520   22.5390 N   0  0  0  0  0  0  0  0  0  0  0  0
   13.2270    0.4380   22.7970 C   0  0  0  0  0  0  0  0  0  0  0  0
    3.0020    2.2570   23.4420 C   0  0  0  0  0  0  0  0  0  0  0  0
    2.9450    1.4860   24.4040 O   0  0  0  0  0  0  0  0  0  0  0  0
    1.9340    3.2500   23.1800 N   0  0  0  0  0  0  0  0  0  0  0  0
    0.7900    3.3000   24.0870 C   0  0  0  0  0  0  0  0  0  0  0  0
    0.4390    4.5620   24.5500 C   0  0  0  0  0  0  0  0  0  0  0  0
   -0.4510    2.6630   23.5310 C   0  0  0  0  0  0  0  0  0  0  0  0
   -0.9490    4.5980   25.1980 C   0  0  0  0  0  0  0  0  0  0  0  0
   -1.5640    3.4710   23.8250 C   0  0  0  0  0  0  0  0  0  0  0  0
   -1.2500    4.8540   23.7000 C   0  0  0  0  0  0  0  0  0  0  0  0
  1  2  1  0
  2  3  1  0
  2  4  1  0
  3  5  2  0
  4  6  2  0
  5  6  1  0
  5  7  1  0
  7  8  1  0
  8  9  1  0
  9 10  2  0
  9 11  1  0
 11 12  1  0
 11 13  1  0
 12 14  1  0
 13 15  1  0
 15 16  2  0
 15 17  1  0
 14 18  1  0
 17 19  1  0
 16 20  1  0
 17 21  2  0
 18 22  2  0
 18 23  1  0
 19 24  1  0
 20 25  2  0
 21 25  1  0
 22 26  1  0
 23 27  2  0
 24 28  1  0
 26 29  2  0
 27 29  1  0
 28 30  1  0
 30 31  2  0
 30 32  1  0
 32 33  1  0
 33 34  1  0
 33 35  1  0
 34 36  1  0
 35 37  1  0
 36 38  1  0
 37 38  1  0
M  END
