x3303-x1402
     RDKit          3D

 44 49  0  0  0  0  0  0  0  0999 V2000
    7.1810   -3.5080   19.8140 C   0  0  0  0  0  0  0  0  0  0  0  0
    6.2520   -4.5780   20.5340 C   0  0  0  0  0  0  0  0  0  0  0  0
    5.4840   -5.3060   19.9590 O   0  0  0  0  0  0  0  0  0  0  0  0
    6.1230   -4.7490   22.0460 C   0  0  0  0  0  0  0  0  0  0  0  0
    5.4430   -3.4300   22.5660 C   0  0  0  0  0  0  0  0  0  0  0  0
    7.3260   -5.1800   22.6720 C   0  0  0  0  0  0  0  0  0  0  0  0
    5.2800   -5.8530   22.1860 C   0  0  0  0  0  0  0  0  0  0  0  0
    5.3440   -2.4340   21.6010 N   0  0  0  0  0  0  0  0  0  0  0  0
    6.9510   -5.1790   24.1510 C   0  0  0  0  0  0  0  0  0  0  0  0
    4.9920   -6.2190   23.5160 C   0  0  0  0  0  0  0  0  0  0  0  0
    6.2880   -1.4350   21.3440 C   0  0  0  0  0  0  0  0  0  0  0  0
    5.6250   -5.3660   24.3320 N   0  0  0  0  0  0  0  0  0  0  0  0
    4.9540   -5.2770   25.8900 S   0  0  0  0  0  0  0  0  0  0  0  0
    7.5110   -1.2800   21.9780 N   0  0  0  0  0  0  0  0  0  0  0  0
    5.9060   -0.4200   20.2770 C   0  0  0  0  0  0  0  0  0  0  0  0
    4.0260   -6.3760   25.7480 O   0  0  0  0  0  0  0  0  0  0  0  0
    5.9510   -5.2060   26.9310 O   0  0  0  0  0  0  0  0  0  0  0  0
    4.0680   -3.8430   26.0140 C   0  0  0  0  0  0  0  0  0  0  0  0
    8.5610   -0.3320   21.4880 C   0  0  0  0  0  0  0  0  0  0  0  0
    8.1500   -2.3740   22.6750 C   0  0  0  0  0  0  0  0  0  0  0  0
    4.8750    0.6800   20.5440 C   0  0  0  0  0  0  0  0  0  0  0  0
    6.4380   -0.2660   18.8080 C   0  0  0  0  0  0  0  0  0  0  0  0
    2.3970   -3.8990   25.8710 S   0  0  0  0  0  0  0  0  0  0  0  0
    4.4230   -2.5880   26.2130 C   0  0  0  0  0  0  0  0  0  0  0  0
    9.4350    0.1030   22.4810 C   0  0  0  0  0  0  0  0  0  0  0  0
    8.7610   -1.7740   23.7410 C   0  0  0  0  0  0  0  0  0  0  0  0
    4.4190    1.7240   19.6050 C   0  0  0  0  0  0  0  0  0  0  0  0
    5.7990    0.8490   18.1810 C   0  0  0  0  0  0  0  0  0  0  0  0
    4.2900    0.7160   21.8230 C   0  0  0  0  0  0  0  0  0  0  0  0
    6.1740    1.1040   16.9320 O   0  0  0  0  0  0  0  0  0  0  0  0
    3.5190   -1.4520   26.2940 C   0  0  0  0  0  0  0  0  0  0  0  0
    2.3340   -2.2180   26.0980 C   0  0  0  0  0  0  0  0  0  0  0  0
    9.7280   -0.7340   23.5040 N   0  0  0  0  0  0  0  0  0  0  0  0
    4.9090    1.7560   18.4660 N   0  0  0  0  0  0  0  0  0  0  0  0
    3.2720    1.7260   22.2210 C   0  0  0  0  0  0  0  0  0  0  0  0
    3.4750    2.6750   19.9310 C   0  0  0  0  0  0  0  0  0  0  0  0
    0.7620   -1.5190   26.0770 Cl  0  0  0  0  0  0  0  0  0  0  0  0
   11.0250   -1.3470   23.5630 C   0  0  0  0  0  0  0  0  0  0  0  0
    2.8330    2.7660   21.2170 C   0  0  0  0  0  0  0  0  0  0  0  0
   11.7120   -1.4190   22.4250 C   0  0  0  0  0  0  0  0  0  0  0  0
   11.5890   -1.8730   24.7460 C   0  0  0  0  0  0  0  0  0  0  0  0
   13.0790   -2.0090   22.1790 C   0  0  0  0  0  0  0  0  0  0  0  0
   12.8080   -2.4370   24.6340 C   0  0  0  0  0  0  0  0  0  0  0  0
   13.6730   -2.6100   23.5310 C   0  0  0  0  0  0  0  0  0  0  0  0
  1  2  1  0
  2  3  2  0
  4  2  1  0
  4  5  1  0
  4  6  1  0
  4  7  1  0
  5  8  1  0
  6  9  1  0
  7 10  1  0
  8 11  2  3
  9 12  1  0
 10 12  1  0
 12 13  1  0
 11 14  1  0
 11 15  1  0
 13 16  2  0
 13 17  2  0
 13 18  1  0
 14 19  1  0
 14 20  1  0
 15 21  1  0
 15 22  2  0
 18 23  1  0
 18 24  2  0
 19 25  1  0
 20 26  1  0
 21 27  2  0
 22 28  1  0
 21 29  1  0
 28 30  1  0
 24 31  1  0
 23 32  1  0
 31 32  2  0
 25 33  1  0
 26 33  1  0
 27 34  1  0
 28 34  2  0
 29 35  2  0
 27 36  1  0
 32 37  1  0
 33 38  1  0
 35 39  1  0
 36 39  2  0
 38 40  2  0
 38 41  1  0
 40 42  1  0
 41 43  2  0
 42 44  2  0
 43 44  1  0
M  END
