x3303-x0195
     RDKit          3D

 37 41  0  0  0  0  0  0  0  0999 V2000
    5.8560   -1.6780   20.7550 C   0  0  0  0  0  0  0  0  0  0  0  0
    7.0150   -1.6600   21.5520 N   0  0  0  0  0  0  0  0  0  0  0  0
    8.0680   -0.8120   21.1900 C   0  0  0  0  0  0  0  0  0  0  0  0
    5.0920   -2.8710   20.7080 O   0  0  0  0  0  0  0  0  0  0  0  0
    5.4810   -0.4180   19.9950 C   0  0  0  0  0  0  0  0  0  0  0  0
    7.3780   -2.7570   22.4500 C   0  0  0  0  0  0  0  0  0  0  0  0
    4.5270    0.4450   20.5950 C   0  0  0  0  0  0  0  0  0  0  0  0
    6.2600   -0.3420   18.6590 C   0  0  0  0  0  0  0  0  0  0  0  0
    8.9690   -0.4090   22.2390 C   0  0  0  0  0  0  0  0  0  0  0  0
    8.8200   -2.6210   22.8040 C   0  0  0  0  0  0  0  0  0  0  0  0
    4.2990    1.5220   19.7810 C   0  0  0  0  0  0  0  0  0  0  0  0
    5.8130    0.8100   18.1240 C   0  0  0  0  0  0  0  0  0  0  0  0
    3.8020    0.3640   21.8630 C   0  0  0  0  0  0  0  0  0  0  0  0
    6.2760    1.2240   16.9330 O   0  0  0  0  0  0  0  0  0  0  0  0
    9.0390   -1.3470   23.2400 N   0  0  0  0  0  0  0  0  0  0  0  0
    4.9080    1.6560   18.6520 N   0  0  0  0  0  0  0  0  0  0  0  0
    2.8390    1.4750   22.1960 C   0  0  0  0  0  0  0  0  0  0  0  0
    3.4000    2.5310   20.1190 C   0  0  0  0  0  0  0  0  0  0  0  0
    9.9550   -1.0450   24.2520 C   0  0  1  0  0  0  0  0  0  0  0  0
    2.4800    2.7530   21.3620 C   0  0  0  0  0  0  0  0  0  0  0  0
   11.2710   -1.6140   23.7980 C   0  0  0  0  0  0  0  0  0  0  0  0
    9.9620    0.3570   24.7220 C   0  0  0  0  0  0  0  0  0  0  0  0
   11.8600   -1.6560   22.4400 C   0  0  0  0  0  0  0  0  0  0  0  0
   11.8930   -2.1200   24.8620 C   0  0  0  0  0  0  0  0  0  0  0  0
   10.8730    1.3470   24.0640 C   0  0  0  0  0  0  0  0  0  0  0  0
   13.0840   -2.2400   22.2950 C   0  0  0  0  0  0  0  0  0  0  0  0
   13.2100   -2.7450   24.6830 C   0  0  0  0  0  0  0  0  0  0  0  0
   10.4210    2.6230   24.0180 C   0  0  0  0  0  0  0  0  0  0  0  0
   12.2030    1.0180   23.4930 C   0  0  0  0  0  0  0  0  0  0  0  0
   13.7240   -2.7720   23.4170 C   0  0  0  0  0  0  0  0  0  0  0  0
   12.9900    2.1490   22.8760 C   0  0  0  0  0  0  0  0  0  0  0  0
   11.1800    3.7490   23.4270 C   0  0  0  0  0  0  0  0  0  0  0  0
   10.3360    5.3890   23.5410 S   0  0  0  0  0  0  0  0  0  0  0  0
   12.3850    3.5170   22.8850 C   0  0  0  0  0  0  0  0  0  0  0  0
   10.0780    5.6710   24.9410 O   0  0  0  0  0  0  0  0  0  0  0  0
    9.2280    5.4100   22.6230 O   0  0  0  0  0  0  0  0  0  0  0  0
   11.5680    6.4660   23.0700 N   0  0  0  0  0  0  0  0  0  0  0  0
  1  2  1  0
  2  3  1  0
  1  4  2  0
  1  5  1  0
  2  6  1  0
  5  7  1  0
  5  8  2  0
  3  9  1  0
  6 10  1  0
  7 11  2  0
  8 12  1  0
  7 13  1  0
 12 14  1  0
  9 15  1  0
 10 15  1  0
 11 16  1  0
 12 16  2  0
 13 17  2  0
 11 18  1  0
 15 19  1  0
 17 20  1  0
 18 20  2  0
 19 21  1  0
 19 22  1  6
 21 23  2  0
 21 24  1  0
 22 25  1  0
 23 26  1  0
 24 27  2  0
 25 28  2  0
 25 29  1  0
 26 30  2  0
 27 30  1  0
 29 31  2  0
 28 32  1  0
 32 33  1  0
 31 34  1  0
 32 34  2  0
 33 35  2  0
 33 36  2  0
 33 37  1  0
M  END
