x3303-x1374
     RDKit          3D

 44 50  0  0  0  0  0  0  0  0999 V2000
   10.4120   -5.0400   26.2430 C   0  0  0  0  0  0  0  0  0  0  0  0
    9.3010   -4.8310   25.3340 C   0  0  0  0  0  0  0  0  0  0  0  0
    9.0700   -5.6710   24.3060 C   0  0  0  0  0  0  0  0  0  0  0  0
    8.4400   -3.6780   25.5670 C   0  0  0  0  0  0  0  0  0  0  0  0
    7.3210   -3.5400   24.5490 C   0  0  0  0  0  0  0  0  0  0  0  0
    8.0550   -5.4890   23.4260 C   0  0  0  0  0  0  0  0  0  0  0  0
    6.9450   -4.4060   23.2970 C   0  0  0  0  0  0  0  0  0  0  0  0
    5.8820   -4.2050   22.3450 C   0  0  2  0  0  0  0  0  0  0  0  0
    6.4550   -4.3520   20.9000 C   0  0  0  0  0  0  0  0  0  0  0  0
    5.5520   -2.7840   22.5830 C   0  0  0  0  0  0  0  0  0  0  0  0
    4.7930   -5.0700   22.8730 C   0  0  2  0  0  0  0  0  0  0  0  0
    5.6890   -4.7110   19.9970 O   0  0  0  0  0  0  0  0  0  0  0  0
    7.9650   -4.0040   20.7330 C   0  0  0  0  0  0  0  0  0  0  0  0
    5.2390   -1.9820   21.5690 N   0  0  0  0  0  0  0  0  0  0  0  0
    4.3830   -4.6910   24.1540 C   0  0  0  0  0  0  0  0  0  0  0  0
    5.0110   -6.4510   22.8530 C   0  0  0  0  0  0  0  0  0  0  0  0
    6.2750   -1.1980   20.9140 C   0  0  0  0  0  0  0  0  0  0  0  0
    3.8270   -7.1140   23.9590 S   0  0  0  0  0  0  0  0  0  0  0  0
    3.7690   -5.7720   24.8890 C   0  0  0  0  0  0  0  0  0  0  0  0
    8.3670   -2.6390   21.4080 C   0  0  2  0  0  0  0  0  0  0  0  0
    2.6810   -7.3910   23.1430 O   0  0  0  0  0  0  0  0  0  0  0  0
    4.3750   -8.1500   24.7620 O   0  0  0  0  0  0  0  0  0  0  0  0
    8.8490   -2.7190   22.8290 C   0  0  0  0  0  0  0  0  0  0  0  0
    7.5810   -1.4000   21.3390 N   0  0  0  0  0  0  0  0  0  0  0  0
    5.8480   -0.2100   19.9600 C   0  0  0  0  0  0  0  0  0  0  0  0
    8.5060   -0.3670   21.5190 C   0  0  0  0  0  0  0  0  0  0  0  0
    9.5090   -1.6070   23.0800 N   0  0  0  0  0  0  0  0  0  0  0  0
    4.7100    0.6510   20.4130 C   0  0  0  0  0  0  0  0  0  0  0  0
    6.6350   -0.2110   18.6780 C   0  0  0  0  0  0  0  0  0  0  0  0
    8.8670   -0.4230   22.8530 C   0  0  0  0  0  0  0  0  0  0  0  0
    4.2440    1.6280   19.5950 C   0  0  0  0  0  0  0  0  0  0  0  0
    5.9010    0.9550   18.0020 C   0  0  0  0  0  0  0  0  0  0  0  0
   10.8260   -1.8370   23.4190 C   0  0  0  0  0  0  0  0  0  0  0  0
    4.0810    0.5010   21.6760 C   0  0  0  0  0  0  0  0  0  0  0  0
    6.3010    1.3140   16.7930 O   0  0  0  0  0  0  0  0  0  0  0  0
    4.7950    1.8010   18.4360 N   0  0  0  0  0  0  0  0  0  0  0  0
   11.7940   -1.5570   22.4740 C   0  0  0  0  0  0  0  0  0  0  0  0
   11.1450   -2.3270   24.6030 C   0  0  0  0  0  0  0  0  0  0  0  0
    2.9200    1.3870   22.1260 C   0  0  0  0  0  0  0  0  0  0  0  0
    3.1930    2.4660   19.9450 C   0  0  0  0  0  0  0  0  0  0  0  0
   13.2190   -1.7990   22.7620 C   0  0  0  0  0  0  0  0  0  0  0  0
   12.4620   -2.5860   24.9310 C   0  0  0  0  0  0  0  0  0  0  0  0
    2.4980    2.3570   21.2460 C   0  0  0  0  0  0  0  0  0  0  0  0
   13.4640   -2.3290   24.0350 C   0  0  0  0  0  0  0  0  0  0  0  0
  1  2  1  0
  2  3  2  0
  2  4  1  0
  4  5  2  0
  3  6  1  0
  5  7  1  0
  6  7  2  0
  8  7  1  1
  8  9  1  0
  8 10  1  0
  8 11  1  0
  9 12  2  0
  9 13  1  0
 10 14  1  0
 11 15  1  1
 11 16  1  0
 14 17  2  0
 16 18  1  0
 15 19  2  0
 18 19  1  0
 20 13  1  1
 18 21  1  0
 18 22  1  0
 20 23  1  0
 17 24  1  0
 20 24  1  0
 17 25  1  0
 24 26  1  0
 23 27  1  0
 25 28  1  0
 25 29  2  0
 26 30  1  0
 27 30  1  0
 28 31  2  0
 29 32  1  0
 27 33  1  0
 28 34  1  0
 32 35  1  0
 31 36  1  0
 32 36  2  0
 33 37  2  0
 33 38  1  0
 34 39  2  0
 31 40  1  0
 37 41  1  0
 38 42  2  0
 39 43  1  0
 40 43  2  0
 41 44  2  0
 42 44  1  0
M  END
