x3303-x1077
     RDKit          3D

 34 38  0  0  0  0  0  0  0  0999 V2000
    6.1380   -1.6030   20.9070 C   0  0  0  0  0  0  0  0  0  0  0  0
    7.3180   -1.5630   21.7420 N   0  0  0  0  0  0  0  0  0  0  0  0
    8.4650   -0.6950   21.4290 C   0  0  0  0  0  0  0  0  0  0  0  0
    5.2450   -2.6900   20.7260 O   0  0  0  0  0  0  0  0  0  0  0  0
    5.6680   -0.4020   20.0890 C   0  0  0  0  0  0  0  0  0  0  0  0
    7.3620   -2.1310   22.9900 C   0  0  0  0  0  0  0  0  0  0  0  0
    4.6560    0.5070   20.4940 C   0  0  0  0  0  0  0  0  0  0  0  0
    6.3330   -0.1440   18.7320 C   0  0  0  0  0  0  0  0  0  0  0  0
    9.1900   -0.1630   22.6780 C   0  0  2  0  0  0  0  0  0  0  0  0
    8.7540   -2.2740   23.6380 C   0  0  1  0  0  0  0  0  0  0  0  0
    4.2590    1.6190   19.6960 C   0  0  0  0  0  0  0  0  0  0  0  0
    5.8120    1.0760   17.9890 C   0  0  0  0  0  0  0  0  0  0  0  0
    4.0220    0.2580   21.7900 C   0  0  0  0  0  0  0  0  0  0  0  0
    6.2560    1.3920   16.9160 O   0  0  0  0  0  0  0  0  0  0  0  0
   10.1430    0.8020   22.3950 N   0  0  0  0  0  0  0  0  0  0  0  0
    9.5870   -1.2040   23.5010 N   0  0  0  0  0  0  0  0  0  0  0  0
    4.8650    1.8370   18.4910 N   0  0  0  0  0  0  0  0  0  0  0  0
    3.0240    1.0780   22.2890 C   0  0  0  0  0  0  0  0  0  0  0  0
    3.1560    2.6690   20.0600 C   0  0  0  0  0  0  0  0  0  0  0  0
    8.6350   -2.8050   25.1630 C   0  0  0  0  0  0  0  0  0  0  0  0
   10.9920   -1.6130   23.5440 C   0  0  0  0  0  0  0  0  0  0  0  0
    2.6020    2.2700   21.4230 C   0  0  0  0  0  0  0  0  0  0  0  0
    8.3930   -4.2470   25.2800 N   0  0  0  0  0  0  0  0  0  0  0  0
   11.7880   -1.5020   22.4420 C   0  0  0  0  0  0  0  0  0  0  0  0
   11.5320   -2.1680   24.7750 C   0  0  0  0  0  0  0  0  0  0  0  0
    9.1940   -5.1650   24.5270 C   0  0  0  0  0  0  0  0  0  0  0  0
    8.4130   -4.4320   26.7070 C   0  0  0  0  0  0  0  0  0  0  0  0
   13.1850   -1.8630   22.2440 C   0  0  0  0  0  0  0  0  0  0  0  0
   12.8050   -2.5560   24.7460 C   0  0  0  0  0  0  0  0  0  0  0  0
    8.1280   -5.6630   23.5990 C   0  0  0  0  0  0  0  0  0  0  0  0
    6.9530   -4.7770   26.5530 C   0  0  0  0  0  0  0  0  0  0  0  0
   13.5000   -2.3880   23.5420 C   0  0  0  0  0  0  0  0  0  0  0  0
    7.0340   -5.7750   25.6120 O   0  0  0  0  0  0  0  0  0  0  0  0
    6.8850   -5.4730   24.2170 C   0  0  0  0  0  0  0  0  0  0  0  0
  1  2  1  0
  2  3  1  0
  1  4  2  0
  1  5  1  0
  2  6  1  0
  5  7  1  0
  5  8  2  0
  3  9  1  0
  6 10  1  0
  7 11  2  0
  8 12  1  0
  7 13  1  0
 12 14  1  0
  9 15  1  6
  9 16  1  0
 10 16  1  0
 11 17  1  0
 12 17  2  0
 13 18  2  0
 11 19  1  0
 10 20  1  1
 16 21  1  0
 18 22  1  0
 19 22  2  0
 20 23  1  0
 21 24  2  0
 21 25  1  0
 23 26  1  0
 23 27  1  0
 24 28  1  0
 25 29  2  0
 26 30  1  0
 27 31  1  0
 28 32  2  0
 29 32  1  0
 31 33  1  0
 30 34  1  0
 33 34  1  0
M  END
