x3303-x0786
     RDKit          3D

 44 50  0  0  0  0  0  0  0  0999 V2000
    6.3550   -3.4130   22.2490 C   0  0  1  0  0  0  0  0  0  0  0  0
    6.6740   -4.1580   20.8900 C   0  0  0  0  0  0  0  0  0  0  0  0
    8.1360   -4.3370   20.5820 C   0  0  0  0  0  0  0  0  0  0  0  0
    5.0190   -2.8510   21.9720 C   0  0  0  0  0  0  0  0  0  0  0  0
    5.8010   -4.1700   23.3730 C   0  0  0  0  0  0  0  0  0  0  0  0
    7.3140   -2.2090   22.5690 C   0  0  1  0  0  0  0  0  0  0  0  0
    5.7690   -4.5410   20.0540 O   0  0  0  0  0  0  0  0  0  0  0  0
    5.0900   -1.8400   21.1330 N   0  0  0  0  0  0  0  0  0  0  0  0
    4.8810   -5.3310   23.1830 C   0  0  0  0  0  0  0  0  0  0  0  0
    6.0920   -3.7640   24.6310 C   0  0  0  0  0  0  0  0  0  0  0  0
    8.6090   -2.4740   23.2970 C   0  0  0  0  0  0  0  0  0  0  0  0
    7.4020   -1.4170   21.4850 N   0  0  0  0  0  0  0  0  0  0  0  0
    6.3020   -1.1070   20.9000 C   0  0  0  0  0  0  0  0  0  0  0  0
    4.3100   -5.9680   24.4690 C   0  0  0  0  0  0  0  0  0  0  0  0
    5.5910   -4.3380   25.7540 C   0  0  0  0  0  0  0  0  0  0  0  0
    8.6340   -0.6380   21.3850 C   0  0  0  0  0  0  0  0  0  0  0  0
    9.4850   -1.4560   23.3090 N   0  0  0  0  0  0  0  0  0  0  0  0
    3.3770   -7.0870   24.3390 C   0  0  0  0  0  0  0  0  0  0  0  0
    4.6140   -5.5300   25.9420 C   0  0  0  0  0  0  0  0  0  0  0  0
    9.0840   -0.2350   22.6550 C   0  0  0  0  0  0  0  0  0  0  0  0
    5.9260   -0.0640   19.9700 C   0  0  0  0  0  0  0  0  0  0  0  0
   10.8350   -1.7410   23.3900 C   0  0  0  0  0  0  0  0  0  0  0  0
    3.6600   -8.2110   24.7140 O   0  0  0  0  0  0  0  0  0  0  0  0
    2.1110   -6.9420   23.8170 N   0  0  0  0  0  0  0  0  0  0  0  0
    4.8730    0.8740   20.4670 C   0  0  0  0  0  0  0  0  0  0  0  0
    6.6350   -0.0960   18.6400 C   0  0  0  0  0  0  0  0  0  0  0  0
   11.6770   -1.5920   22.3020 C   0  0  0  0  0  0  0  0  0  0  0  0
   11.2740   -2.1700   24.5460 C   0  0  0  0  0  0  0  0  0  0  0  0
    1.6280   -5.6220   23.5230 C   0  0  0  0  0  0  0  0  0  0  0  0
    1.0880   -8.0000   23.9530 C   0  0  0  0  0  0  0  0  0  0  0  0
    4.4310    1.8660   19.6540 C   0  0  0  0  0  0  0  0  0  0  0  0
    5.8920    1.1180   18.0470 C   0  0  0  0  0  0  0  0  0  0  0  0
   13.1110   -1.9200   22.4060 C   0  0  0  0  0  0  0  0  0  0  0  0
   12.6000   -2.5080   24.7280 C   0  0  0  0  0  0  0  0  0  0  0  0
    4.3130    0.7660   21.7600 C   0  0  0  0  0  0  0  0  0  0  0  0
    6.3700    1.2840   16.8260 O   0  0  0  0  0  0  0  0  0  0  0  0
    0.7300   -5.0430   24.4210 C   0  0  0  0  0  0  0  0  0  0  0  0
   -0.1620   -7.5680   24.6960 C   0  0  0  0  0  0  0  0  0  0  0  0
    4.9370    1.9660   18.4910 N   0  0  0  0  0  0  0  0  0  0  0  0
   13.4610   -2.3810   23.6740 C   0  0  0  0  0  0  0  0  0  0  0  0
    3.2330    1.7530   22.2190 C   0  0  0  0  0  0  0  0  0  0  0  0
    3.4560    2.7780   20.0230 C   0  0  0  0  0  0  0  0  0  0  0  0
   -0.7240   -6.0360   24.1480 S   0  0  0  0  0  0  0  0  0  0  0  0
    2.8250    2.7320   21.3470 C   0  0  0  0  0  0  0  0  0  0  0  0
  1  2  1  6
  2  3  1  0
  1  4  1  0
  1  5  1  0
  1  6  1  0
  2  7  2  0
  4  8  1  0
  5  9  2  0
  5 10  1  0
  6 11  1  6
  6 12  1  0
  8 13  2  0
 12 13  1  0
  9 14  1  0
 10 15  2  0
 12 16  1  0
 11 17  1  0
 14 18  1  0
 14 19  2  0
 15 19  1  0
 16 20  1  0
 17 20  1  0
 13 21  1  0
 17 22  1  0
 18 23  2  0
 18 24  1  0
 21 25  1  0
 21 26  2  0
 22 27  2  0
 22 28  1  0
 24 29  1  0
 24 30  1  0
 25 31  2  0
 26 32  1  0
 27 33  1  0
 28 34  2  0
 25 35  1  0
 32 36  1  0
 29 37  1  0
 30 38  1  0
 31 39  1  0
 32 39  2  0
 33 40  2  0
 34 40  1  0
 35 41  2  0
 31 42  1  0
 37 43  1  0
 38 43  1  0
 41 44  1  0
 42 44  2  0
M  END
