x3305-x2581
     RDKit          3D

 49 55  0  0  0  0  0  0  0  0999 V2000
    3.3310   -7.2340   23.6280 C   0  0  0  0  0  0  0  0  0  0  0  0
    4.3860   -6.2370   23.5260 N   0  0  0  0  0  0  0  0  0  0  0  0
    4.3790   -4.9890   24.0630 C   0  0  0  0  0  0  0  0  0  0  0  0
    5.5440   -6.4580   22.8600 N   0  0  0  0  0  0  0  0  0  0  0  0
    5.5990   -4.3790   23.7230 C   0  0  0  0  0  0  0  0  0  0  0  0
    6.3180   -5.3010   22.9720 N   0  0  0  0  0  0  0  0  0  0  0  0
    6.0860   -3.0200   24.0790 C   0  0  0  0  0  0  0  0  0  0  0  0
    6.2160   -2.1530   23.0050 N   0  0  0  0  0  0  0  0  0  0  0  0
    6.1760   -2.5120   21.6640 C   0  0  0  0  0  0  0  0  0  0  0  0
    5.4070   -3.3730   21.2450 O   0  0  0  0  0  0  0  0  0  0  0  0
    7.0300   -1.8420   20.8110 N   0  0  0  0  0  0  0  0  0  0  0  0
    6.6670   -1.6870   19.5120 C   0  0  0  0  0  0  0  0  0  0  0  0
    8.4860   -1.8210   20.9250 C   0  0  0  0  0  0  0  0  0  0  0  0
    5.9940   -0.4040   19.1350 C   0  0  0  0  0  0  0  0  0  0  0  0
    9.1840   -1.4950   22.2440 C   0  0  1  0  0  0  0  0  0  0  0  0
    6.5470    0.4420   18.2520 C   0  0  0  0  0  0  0  0  0  0  0  0
    4.6380    0.0600   19.6870 C   0  0  0  0  0  0  0  0  0  0  0  0
    8.8670   -2.5130   23.3270 C   0  0  0  0  0  0  0  0  0  0  0  0
   10.6530   -1.6110   22.5040 C   0  0  0  0  0  0  0  0  0  0  0  0
    9.5340   -0.0180   22.3340 C   0  0  0  0  0  0  0  0  0  0  0  0
    5.9410    1.5190   17.8970 N   0  0  0  0  0  0  0  0  0  0  0  0
    3.8740    1.3700   19.3080 C   0  0  0  0  0  0  0  0  0  0  0  0
    9.0170   -1.8770   24.6440 C   0  0  0  0  0  0  0  0  0  0  0  0
   10.9000   -1.1410   23.8360 C   0  0  0  0  0  0  0  0  0  0  0  0
   11.6670   -2.0330   21.6860 C   0  0  0  0  0  0  0  0  0  0  0  0
    9.0930    1.4640   22.3490 C   0  0  0  0  0  0  0  0  0  0  0  0
   10.9950    0.2260   22.4600 C   0  0  0  0  0  0  0  0  0  0  0  0
    4.7600    1.8650   18.4090 C   0  0  0  0  0  0  0  0  0  0  0  0
    9.8700   -0.7690   24.5960 O   0  0  0  0  0  0  0  0  0  0  0  0
   12.1190   -1.0130   24.4890 C   0  0  0  0  0  0  0  0  0  0  0  0
   13.0310   -1.9560   22.2340 C   0  0  0  0  0  0  0  0  0  0  0  0
    9.9640    2.4950   22.4430 C   0  0  0  0  0  0  0  0  0  0  0  0
   11.8180    1.3580   22.5660 C   0  0  0  0  0  0  0  0  0  0  0  0
    9.8520    3.8360   22.4740 N   0  0  0  0  0  0  0  0  0  0  0  0
   13.2780   -1.4470   23.6360 C   0  0  0  0  0  0  0  0  0  0  0  0
   11.3470    2.4810   22.5530 N   0  0  0  0  0  0  0  0  0  0  0  0
   10.9110    4.3630   23.1750 C   0  0  0  0  0  0  0  0  0  0  0  0
   11.2520    3.9320   24.2400 O   0  0  0  0  0  0  0  0  0  0  0  0
   11.6250    5.4050   22.6300 C   0  0  0  0  0  0  0  0  0  0  0  0
   10.9260    6.5330   23.2700 C   0  0  0  0  0  0  0  0  0  0  0  0
    9.5880    6.9770   22.7340 C   0  0  0  0  0  0  0  0  0  0  0  0
   11.5110    7.2300   24.4480 C   0  0  0  0  0  0  0  0  0  0  0  0
    8.9120    8.1000   23.4140 C   0  0  0  0  0  0  0  0  0  0  0  0
   10.7740    8.3270   25.0440 C   0  0  0  0  0  0  0  0  0  0  0  0
    9.5760    8.7430   24.5810 C   0  0  0  0  0  0  0  0  0  0  0  0
   11.3530    8.9770   26.1460 C   0  0  0  0  0  0  0  0  0  0  0  0
    8.9210    9.8140   25.1930 C   0  0  0  0  0  0  0  0  0  0  0  0
   10.7120   10.0450   26.7620 C   0  0  0  0  0  0  0  0  0  0  0  0
    9.4840   10.4680   26.2780 C   0  0  0  0  0  0  0  0  0  0  0  0
  1  2  1  0
  2  3  1  0
  2  4  1  0
  3  5  2  0
  4  6  2  0
  5  6  1  0
  5  7  1  0
  7  8  1  0
  8  9  1  0
  9 10  2  0
  9 11  1  0
 11 12  1  0
 11 13  1  0
 12 14  1  0
 15 13  1  6
 14 16  2  0
 14 17  1  0
 15 18  1  0
 15 19  1  0
 15 20  1  0
 16 21  1  0
 17 22  2  0
 18 23  1  0
 19 24  2  0
 19 25  1  0
 20 26  2  0
 20 27  1  0
 21 28  2  0
 22 28  1  0
 23 29  1  0
 24 29  1  0
 24 30  1  0
 25 31  2  0
 26 32  1  0
 27 33  2  0
 32 34  1  0
 30 35  2  0
 31 35  1  0
 32 36  2  0
 33 36  1  0
 34 37  1  0
 37 38  2  0
 37 39  1  0
 39 40  1  0
 40 41  2  0
 40 42  1  0
 41 43  1  0
 42 44  2  0
 43 45  2  0
 44 45  1  0
 44 46  1  0
 45 47  1  0
 46 48  2  0
 47 49  2  0
 48 49  1  0
M  END
