x3303-x1380
     RDKit          3D

 41 46  0  0  0  0  0  0  0  0999 V2000
    7.1210   -3.2620   19.2780 C   0  0  0  0  0  0  0  0  0  0  0  0
    6.2960   -4.0520   20.3250 C   0  0  0  0  0  0  0  0  0  0  0  0
    5.3480   -4.7460   19.9680 O   0  0  0  0  0  0  0  0  0  0  0  0
    6.7320   -3.9760   21.6600 N   0  0  0  0  0  0  0  0  0  0  0  0
    6.5950   -5.2930   22.3230 C   0  0  0  0  0  0  0  0  0  0  0  0
    7.3280   -2.8600   22.4050 C   0  0  1  0  0  0  0  0  0  0  0  0
    6.9770   -4.9780   23.6340 C   0  0  0  0  0  0  0  0  0  0  0  0
    7.0660   -2.5940   23.7970 C   0  0  0  0  0  0  0  0  0  0  0  0
    8.9030   -2.8160   22.4050 C   0  0  0  0  0  0  0  0  0  0  0  0
    7.0830   -1.7020   21.7660 N   0  0  0  0  0  0  0  0  0  0  0  0
    5.8490   -1.5750   21.0700 C   0  0  0  0  0  0  0  0  0  0  0  0
    6.2150   -3.7120   24.0060 C   0  0  2  0  0  0  0  0  0  0  0  0
    8.2460   -0.8540   21.3030 C   0  0  0  0  0  0  0  0  0  0  0  0
    9.4380   -1.6630   23.1310 N   0  0  0  0  0  0  0  0  0  0  0  0
    5.7190   -3.3970   25.3860 C   0  0  0  0  0  0  0  0  0  0  0  0
    4.9470   -2.3750   21.2100 O   0  0  0  0  0  0  0  0  0  0  0  0
    9.2190   -0.5390   22.4190 C   0  0  0  0  0  0  0  0  0  0  0  0
    5.5650   -0.4610   20.1590 C   0  0  0  0  0  0  0  0  0  0  0  0
   10.7640   -1.9250   23.5880 C   0  0  0  0  0  0  0  0  0  0  0  0
    4.5320   -3.0600   25.5140 O   0  0  0  0  0  0  0  0  0  0  0  0
    6.5280   -3.4660   26.5110 N   0  0  0  0  0  0  0  0  0  0  0  0
    4.5570    0.6370   20.4180 C   0  0  0  0  0  0  0  0  0  0  0  0
    6.2450   -0.1860   18.7550 C   0  0  0  0  0  0  0  0  0  0  0  0
   11.7910   -1.5810   22.8010 C   0  0  0  0  0  0  0  0  0  0  0  0
   11.0880   -2.5510   24.8300 C   0  0  0  0  0  0  0  0  0  0  0  0
    7.6660   -4.3170   26.5280 C   0  0  0  0  0  0  0  0  0  0  0  0
    5.9720   -3.5440   27.8100 C   0  0  0  0  0  0  0  0  0  0  0  0
    4.2210    1.7860   19.5490 C   0  0  0  0  0  0  0  0  0  0  0  0
    5.7060    1.0020   18.1650 C   0  0  0  0  0  0  0  0  0  0  0  0
   13.2690   -1.7200   22.9610 C   0  0  0  0  0  0  0  0  0  0  0  0
   12.4170   -2.7300   25.0690 C   0  0  0  0  0  0  0  0  0  0  0  0
    3.8580    0.5360   21.6540 C   0  0  0  0  0  0  0  0  0  0  0  0
    6.2080    1.3540   16.9710 O   0  0  0  0  0  0  0  0  0  0  0  0
    7.4170   -5.3960   27.2810 C   0  0  0  0  0  0  0  0  0  0  0  0
    6.1700   -4.8100   28.3850 C   0  0  0  0  0  0  0  0  0  0  0  0
    4.8160    1.9080   18.4610 N   0  0  0  0  0  0  0  0  0  0  0  0
   13.5990   -2.4260   24.3540 C   0  0  0  0  0  0  0  0  0  0  0  0
    2.8380    1.5230   22.0630 C   0  0  0  0  0  0  0  0  0  0  0  0
    3.2730    2.7250   19.9020 C   0  0  0  0  0  0  0  0  0  0  0  0
    7.4590   -5.1370   28.7050 C   0  0  0  0  0  0  0  0  0  0  0  0
    2.5330    2.6730   21.1370 C   0  0  0  0  0  0  0  0  0  0  0  0
  1  2  1  0
  2  3  2  0
  2  4  1  0
  4  5  1  0
  6  4  1  0
  5  7  1  0
  6  8  1  1
  6  9  1  0
  6 10  1  0
 10 11  1  0
  7 12  1  0
  8 12  1  0
 10 13  1  0
  9 14  1  0
 12 15  1  1
 11 16  2  0
 13 17  1  0
 14 17  1  0
 11 18  1  0
 14 19  1  0
 15 20  2  0
 15 21  1  0
 18 22  1  0
 18 23  2  0
 19 24  2  0
 19 25  1  0
 21 26  1  0
 21 27  1  0
 22 28  2  0
 23 29  1  0
 24 30  1  0
 25 31  2  0
 22 32  1  0
 29 33  1  0
 26 34  1  0
 27 35  1  0
 28 36  1  0
 29 36  2  0
 30 37  2  0
 31 37  1  0
 32 38  2  0
 28 39  1  0
 34 40  1  0
 35 40  1  0
 38 41  1  0
 39 41  2  0
M  END
