x3303-x1351
     RDKit          3D

 42 48  0  0  0  0  0  0  0  0999 V2000
    7.2960   -3.3170   19.2280 C   0  0  0  0  0  0  0  0  0  0  0  0
    6.4210   -4.0190   20.2990 C   0  0  0  0  0  0  0  0  0  0  0  0
    5.7840   -5.0350   20.0250 O   0  0  0  0  0  0  0  0  0  0  0  0
    6.2410   -3.4610   21.7130 C   0  0  2  0  0  0  0  0  0  0  0  0
    5.2740   -2.5290   21.1140 N   0  0  0  0  0  0  0  0  0  0  0  0
    7.2150   -2.5370   22.3020 C   0  0  1  0  0  0  0  0  0  0  0  0
    5.7540   -4.5470   22.4390 C   0  0  0  0  0  0  0  0  0  0  0  0
    6.0070   -1.4210   20.8730 C   0  0  0  0  0  0  0  0  0  0  0  0
    6.3680   -2.0580   23.4600 C   0  0  0  0  0  0  0  0  0  0  0  0
    5.6540   -4.3540   23.9140 C   0  0  0  0  0  0  0  0  0  0  0  0
    8.5770   -2.8630   22.3710 C   0  0  0  0  0  0  0  0  0  0  0  0
    7.2570   -1.5450   21.3430 N   0  0  0  0  0  0  0  0  0  0  0  0
    6.3750   -3.2410   24.4300 C   0  0  2  0  0  0  0  0  0  0  0  0
    8.3310   -0.5840   21.3250 C   0  0  0  0  0  0  0  0  0  0  0  0
    9.3090   -1.8090   22.8440 N   0  0  0  0  0  0  0  0  0  0  0  0
    5.4820   -0.2480   20.1510 C   0  0  0  0  0  0  0  0  0  0  0  0
    5.6170   -2.7930   25.5750 N   0  0  0  0  0  0  0  0  0  0  0  0
    8.8370   -0.4870   22.5910 C   0  0  0  0  0  0  0  0  0  0  0  0
    4.4920    0.5780   20.6390 C   0  0  0  0  0  0  0  0  0  0  0  0
    6.1290   -0.0190   18.8290 C   0  0  0  0  0  0  0  0  0  0  0  0
   10.7460   -1.9540   23.0440 C   0  0  0  0  0  0  0  0  0  0  0  0
    6.2000   -2.4540   26.7610 C   0  0  0  0  0  0  0  0  0  0  0  0
    4.0430    1.7630   19.8010 C   0  0  0  0  0  0  0  0  0  0  0  0
    5.7170    1.1330   17.9880 C   0  0  0  0  0  0  0  0  0  0  0  0
   11.7040   -1.7510   22.0670 C   0  0  0  0  0  0  0  0  0  0  0  0
   11.0630   -2.3230   24.3220 C   0  0  0  0  0  0  0  0  0  0  0  0
    3.8690    0.3850   21.8820 C   0  0  0  0  0  0  0  0  0  0  0  0
    6.7150   -3.2730   27.5080 O   0  0  0  0  0  0  0  0  0  0  0  0
    6.2230    1.4500   16.7980 O   0  0  0  0  0  0  0  0  0  0  0  0
    6.1600   -1.0070   27.1530 C   0  0  0  0  0  0  0  0  0  0  0  0
    4.6710    2.0060   18.5040 N   0  0  0  0  0  0  0  0  0  0  0  0
   13.1380   -1.9380   22.4100 C   0  0  0  0  0  0  0  0  0  0  0  0
   12.3620   -2.5260   24.7300 C   0  0  0  0  0  0  0  0  0  0  0  0
    2.7790    1.3490   22.3450 C   0  0  0  0  0  0  0  0  0  0  0  0
    3.0580    2.6310   20.2210 C   0  0  0  0  0  0  0  0  0  0  0  0
    6.9490   -0.5510   28.1850 C   0  0  0  0  0  0  0  0  0  0  0  0
    5.2910   -0.0600   26.4670 C   0  0  0  0  0  0  0  0  0  0  0  0
   13.4980   -2.3470   23.7860 C   0  0  0  0  0  0  0  0  0  0  0  0
    2.4240    2.5030   21.3900 C   0  0  0  0  0  0  0  0  0  0  0  0
    7.0800    0.8010   28.7610 C   0  0  0  0  0  0  0  0  0  0  0  0
    5.3010    1.2160   26.8840 C   0  0  0  0  0  0  0  0  0  0  0  0
    6.1540    1.5630   27.9590 C   0  0  0  0  0  0  0  0  0  0  0  0
  1  2  1  0
  2  3  2  0
  4  2  1  6
  4  5  1  0
  4  6  1  0
  4  7  1  0
  5  8  2  0
  6  9  1  1
  7 10  1  0
  6 11  1  0
  6 12  1  0
  8 12  1  0
  9 13  1  0
 10 13  1  0
 12 14  1  0
 11 15  1  0
  8 16  1  0
 13 17  1  1
 14 18  1  0
 15 18  1  0
 16 19  1  0
 16 20  2  0
 15 21  1  0
 17 22  1  0
 19 23  2  0
 20 24  1  0
 21 25  2  0
 21 26  1  0
 19 27  1  0
 22 28  2  0
 24 29  1  0
 22 30  1  0
 23 31  1  0
 24 31  2  0
 25 32  1  0
 26 33  2  0
 27 34  2  0
 23 35  1  0
 30 36  2  0
 30 37  1  0
 32 38  2  0
 33 38  1  0
 34 39  1  0
 35 39  2  0
 36 40  1  0
 37 41  2  0
 40 42  2  0
 41 42  1  0
M  END
