x3303-x2581
     RDKit          3D

 44 50  0  0  0  0  0  0  0  0999 V2000
    9.9530   -2.3000   24.5540 C   0  0  0  0  0  0  0  0  0  0  0  0
    8.9610   -1.6310   23.8070 N   0  0  0  0  0  0  0  0  0  0  0  0
    7.8370   -2.4430   23.7280 C   0  0  0  0  0  0  0  0  0  0  0  0
   11.1760   -2.1320   23.8880 C   0  0  0  0  0  0  0  0  0  0  0  0
    9.0580   -0.4890   23.0080 C   0  0  0  0  0  0  0  0  0  0  0  0
   12.2820   -2.0870   24.5500 C   0  0  0  0  0  0  0  0  0  0  0  0
   11.1440   -1.9910   22.3940 C   0  0  0  0  0  0  0  0  0  0  0  0
    9.9540    0.6240   23.1470 C   0  0  0  0  0  0  0  0  0  0  0  0
    8.0390   -0.4860   21.8560 C   0  0  0  0  0  0  0  0  0  0  0  0
    7.5090   -2.6660   22.3320 C   0  0  0  0  0  0  0  0  0  0  0  0
   12.2990   -1.7930   21.7580 C   0  0  0  0  0  0  0  0  0  0  0  0
   13.4310   -1.8830   23.8840 C   0  0  0  0  0  0  0  0  0  0  0  0
    9.8830    1.8310   22.1960 C   0  0  0  0  0  0  0  0  0  0  0  0
    8.0480    0.7720   20.9540 C   0  0  0  0  0  0  0  0  0  0  0  0
    7.1920   -1.5430   21.6740 N   0  0  0  0  0  0  0  0  0  0  0  0
   13.4170   -1.7260   22.5080 C   0  0  0  0  0  0  0  0  0  0  0  0
   10.7140    2.9690   22.2560 N   0  0  0  0  0  0  0  0  0  0  0  0
    5.9730   -1.6130   20.8960 C   0  0  0  0  0  0  0  0  0  0  0  0
    8.8780    1.7940   21.1360 N   0  0  0  0  0  0  0  0  0  0  0  0
   11.1020    3.8660   23.3270 C   0  0  0  0  0  0  0  0  0  0  0  0
    5.2280   -2.5890   20.8880 O   0  0  0  0  0  0  0  0  0  0  0  0
    5.5690   -0.4300   20.0410 C   0  0  0  0  0  0  0  0  0  0  0  0
   10.7960    3.7560   24.4930 O   0  0  0  0  0  0  0  0  0  0  0  0
   11.9310    5.0950   22.9200 C   0  0  0  0  0  0  0  0  0  0  0  0
    4.6200    0.5180   20.3820 C   0  0  0  0  0  0  0  0  0  0  0  0
    6.2500   -0.1830   18.6360 C   0  0  0  0  0  0  0  0  0  0  0  0
   11.1750    6.2950   23.4580 C   0  0  0  0  0  0  0  0  0  0  0  0
    4.1720    1.7070   19.6200 C   0  0  0  0  0  0  0  0  0  0  0  0
    5.6180    1.0750   18.0990 C   0  0  0  0  0  0  0  0  0  0  0  0
    3.9660    0.3580   21.6370 C   0  0  0  0  0  0  0  0  0  0  0  0
    6.1740    1.4000   16.8500 O   0  0  0  0  0  0  0  0  0  0  0  0
    9.9020    6.7270   22.8760 C   0  0  0  0  0  0  0  0  0  0  0  0
   11.6070    7.0300   24.5050 C   0  0  0  0  0  0  0  0  0  0  0  0
    4.6440    1.9980   18.5100 N   0  0  0  0  0  0  0  0  0  0  0  0
    2.9930    1.2320   22.1070 C   0  0  0  0  0  0  0  0  0  0  0  0
    3.2030    2.5500   20.1190 C   0  0  0  0  0  0  0  0  0  0  0  0
    9.2550    7.7630   23.3680 C   0  0  0  0  0  0  0  0  0  0  0  0
   10.8010    8.1130   24.9110 C   0  0  0  0  0  0  0  0  0  0  0  0
    2.6090    2.3310   21.3440 C   0  0  0  0  0  0  0  0  0  0  0  0
    9.5980    8.6520   24.4860 C   0  0  0  0  0  0  0  0  0  0  0  0
   11.4240    8.8280   26.0700 C   0  0  0  0  0  0  0  0  0  0  0  0
    8.8120    9.8640   25.0200 C   0  0  0  0  0  0  0  0  0  0  0  0
   10.7160   10.0510   26.6690 C   0  0  0  0  0  0  0  0  0  0  0  0
    9.3810   10.5430   26.0970 C   0  0  0  0  0  0  0  0  0  0  0  0
  1  2  1  0
  2  3  1  0
  1  4  1  0
  2  5  1  0
  4  6  2  0
  4  7  1  0
  5  8  1  0
  5  9  2  0
  3 10  1  0
  7 11  2  0
  6 12  1  0
  8 13  2  0
  9 14  1  0
  9 15  1  0
 10 15  1  0
 11 16  1  0
 12 16  2  0
 13 17  1  0
 15 18  1  0
 13 19  1  0
 14 19  2  0
 17 20  1  0
 18 21  2  0
 18 22  1  0
 20 23  2  0
 20 24  1  0
 22 25  1  0
 22 26  2  0
 24 27  1  0
 25 28  2  0
 26 29  1  0
 25 30  1  0
 29 31  1  0
 27 32  2  0
 27 33  1  0
 28 34  1  0
 29 34  2  0
 30 35  2  0
 28 36  1  0
 32 37  1  0
 33 38  2  0
 35 39  1  0
 36 39  2  0
 37 40  2  0
 38 40  1  0
 38 41  1  0
 40 42  1  0
 41 43  2  0
 42 44  2  0
 43 44  1  0
M  END
