x3303-x0769
     RDKit          3D

 45 51  0  0  0  0  0  0  0  0999 V2000
    5.6210   -5.3170   26.9520 O   0  0  0  0  0  0  0  0  0  0  0  0
    4.6680   -5.4180   25.8730 S   0  0  0  0  0  0  0  0  0  0  0  0
    3.7590   -6.5400   25.8260 O   0  0  0  0  0  0  0  0  0  0  0  0
    3.6400   -3.9700   25.9670 C   0  0  0  0  0  0  0  0  0  0  0  0
    5.2900   -5.2610   24.3600 N   0  0  0  0  0  0  0  0  0  0  0  0
    4.2190   -2.5790   26.2350 C   0  0  0  0  0  0  0  0  0  0  0  0
    2.1300   -4.1530   25.7700 C   0  0  0  0  0  0  0  0  0  0  0  0
    4.7380   -6.0670   23.3080 C   0  0  0  0  0  0  0  0  0  0  0  0
    6.6680   -4.9450   24.2570 C   0  0  0  0  0  0  0  0  0  0  0  0
    5.5400   -2.4410   26.4020 F   0  0  0  0  0  0  0  0  0  0  0  0
    1.2550   -2.8920   25.8580 C   0  0  0  0  0  0  0  0  0  0  0  0
    3.4060   -1.4500   26.3100 C   0  0  0  0  0  0  0  0  0  0  0  0
    5.3190   -5.7440   22.1440 C   0  0  0  0  0  0  0  0  0  0  0  0
    7.2820   -5.0840   23.0120 C   0  0  0  0  0  0  0  0  0  0  0  0
    1.9260   -1.5270   26.1350 C   0  0  0  0  0  0  0  0  0  0  0  0
    6.1820   -4.6710   22.2170 C   0  0  0  0  0  0  0  0  0  0  0  0
    6.5950   -4.3110   20.8090 C   0  0  0  0  0  0  0  0  0  0  0  0
    5.6240   -3.3010   22.5910 C   0  0  0  0  0  0  0  0  0  0  0  0
    5.7500   -4.3270   19.8990 O   0  0  0  0  0  0  0  0  0  0  0  0
    8.0900   -3.9850   20.7120 C   0  0  0  0  0  0  0  0  0  0  0  0
    5.4330   -2.2340   21.7000 N   0  0  0  0  0  0  0  0  0  0  0  0
    6.3860   -1.4200   21.0460 C   0  0  0  0  0  0  0  0  0  0  0  0
    8.4650   -2.6200   21.4660 C   0  0  2  0  0  0  0  0  0  0  0  0
    8.5310   -2.5600   23.0080 C   0  0  0  0  0  0  0  0  0  0  0  0
    7.7800   -1.5350   21.1220 N   0  0  0  0  0  0  0  0  0  0  0  0
    5.8720   -0.3530   20.2760 C   0  0  0  0  0  0  0  0  0  0  0  0
    8.5260   -0.4450   21.3760 C   0  0  0  0  0  0  0  0  0  0  0  0
    9.3700   -1.3950   23.2780 N   0  0  0  0  0  0  0  0  0  0  0  0
    4.9390    0.5910   20.7750 C   0  0  0  0  0  0  0  0  0  0  0  0
    6.3500   -0.1980   18.8730 C   0  0  0  0  0  0  0  0  0  0  0  0
    8.8980   -0.1980   22.6980 C   0  0  0  0  0  0  0  0  0  0  0  0
    4.4110    1.7360   19.9030 C   0  0  0  0  0  0  0  0  0  0  0  0
    5.8370    0.9400   18.0360 C   0  0  0  0  0  0  0  0  0  0  0  0
   10.7950   -1.7000   23.3400 C   0  0  0  0  0  0  0  0  0  0  0  0
    4.4360    0.5670   22.0760 C   0  0  0  0  0  0  0  0  0  0  0  0
    6.2450    1.1300   16.8030 O   0  0  0  0  0  0  0  0  0  0  0  0
    4.8810    1.8760   18.5530 N   0  0  0  0  0  0  0  0  0  0  0  0
   11.6700   -1.5510   22.2830 C   0  0  0  0  0  0  0  0  0  0  0  0
   11.2030   -2.1770   24.5670 C   0  0  0  0  0  0  0  0  0  0  0  0
    3.4230    1.6220   22.5540 C   0  0  0  0  0  0  0  0  0  0  0  0
    3.4980    2.6800   20.3260 C   0  0  0  0  0  0  0  0  0  0  0  0
   13.0980   -1.9170   22.4460 C   0  0  0  0  0  0  0  0  0  0  0  0
   12.5030   -2.5460   24.8040 C   0  0  0  0  0  0  0  0  0  0  0  0
    2.9910    2.6900   21.5460 C   0  0  0  0  0  0  0  0  0  0  0  0
   13.5620   -2.4520   23.7490 C   0  0  0  0  0  0  0  0  0  0  0  0
  1  2  2  0
  2  3  2  0
  2  4  1  0
  2  5  1  0
  4  6  2  0
  4  7  1  0
  5  8  1  0
  5  9  1  0
  6 10  1  0
  7 11  2  0
  6 12  1  0
  8 13  1  0
  9 14  1  0
 11 15  1  0
 12 15  2  0
 13 16  1  0
 14 16  1  0
 16 17  1  0
 16 18  1  0
 17 19  2  0
 17 20  1  0
 18 21  1  0
 21 22  2  0
 23 20  1  1
 23 24  1  0
 22 25  1  0
 23 25  1  0
 22 26  1  0
 25 27  1  0
 24 28  1  0
 26 29  1  0
 26 30  2  0
 27 31  1  0
 28 31  1  0
 29 32  2  0
 30 33  1  0
 28 34  1  0
 29 35  1  0
 33 36  1  0
 32 37  1  0
 33 37  2  0
 34 38  2  0
 34 39  1  0
 35 40  2  0
 32 41  1  0
 38 42  1  0
 39 43  2  0
 40 44  1  0
 41 44  2  0
 42 45  2  0
 43 45  1  0
M  END
