x3303-x0981
     RDKit          3D

 42 45  0  0  0  0  0  0  0  0999 V2000
    1.2320   -8.7140   21.3760 C   0  0  0  0  0  0  0  0  0  0  0  0
    1.4280   -7.4010   22.1620 C   0  0  0  0  0  0  0  0  0  0  0  0
    2.6880   -7.1750   22.6710 N   0  0  0  0  0  0  0  0  0  0  0  0
    0.5080   -6.6000   22.3010 O   0  0  0  0  0  0  0  0  0  0  0  0
    2.9580   -6.1060   23.5190 C   0  0  1  0  0  0  0  0  0  0  0  0
    2.5120   -6.4240   24.8490 C   0  0  0  0  0  0  0  0  0  0  0  0
    4.4420   -5.7630   23.5220 C   0  0  0  0  0  0  0  0  0  0  0  0
    5.2230   -6.0300   22.3240 N   0  0  0  0  0  0  0  0  0  0  0  0
    4.9300   -5.2290   24.5140 O   0  0  0  0  0  0  0  0  0  0  0  0
    3.0080   -7.7550   25.3690 C   0  0  0  0  0  0  0  0  0  0  0  0
    2.2550   -8.2050   26.5720 N   0  0  0  0  0  0  0  0  0  0  0  0
    3.9200   -8.3400   24.8200 O   0  0  0  0  0  0  0  0  0  0  0  0
    6.0710   -5.0380   21.8310 C   0  0  1  0  0  0  0  0  0  0  0  0
    6.3630   -5.2110   20.3380 C   0  0  0  0  0  0  0  0  0  0  0  0
    5.2080   -3.8340   21.9280 C   0  0  0  0  0  0  0  0  0  0  0  0
    5.6390   -6.3880   19.7120 C   0  0  0  0  0  0  0  0  0  0  0  0
    5.6580   -2.7670   22.7440 C   0  0  0  0  0  0  0  0  0  0  0  0
    5.1900   -1.7220   21.8440 N   0  0  0  0  0  0  0  0  0  0  0  0
    6.3570   -1.2510   21.3140 C   0  0  0  0  0  0  0  0  0  0  0  0
    7.7130   -1.4630   21.4420 N   0  0  0  0  0  0  0  0  0  0  0  0
    5.9110   -0.1740   20.2730 C   0  0  0  0  0  0  0  0  0  0  0  0
    8.5880   -0.4360   21.3800 C   0  0  0  0  0  0  0  0  0  0  0  0
    8.2900   -2.4060   22.2120 C   0  0  0  0  0  0  0  0  0  0  0  0
    4.8380    0.8250   20.6350 C   0  0  0  0  0  0  0  0  0  0  0  0
    6.6200   -0.2140   18.8770 C   0  0  0  0  0  0  0  0  0  0  0  0
    9.0780    0.0980   22.5720 C   0  0  0  0  0  0  0  0  0  0  0  0
    8.6330   -1.9440   23.5960 C   0  0  0  0  0  0  0  0  0  0  0  0
    4.4070    1.8280   19.6500 C   0  0  0  0  0  0  0  0  0  0  0  0
    5.9090    0.9560   18.1720 C   0  0  0  0  0  0  0  0  0  0  0  0
    4.1980    0.8140   21.9930 C   0  0  0  0  0  0  0  0  0  0  0  0
    6.2940    1.2110   16.9160 O   0  0  0  0  0  0  0  0  0  0  0  0
    9.5260   -0.9860   23.4870 N   0  0  0  0  0  0  0  0  0  0  0  0
    4.9690    1.8430   18.4660 N   0  0  0  0  0  0  0  0  0  0  0  0
    3.1550    1.8560   22.2060 C   0  0  0  0  0  0  0  0  0  0  0  0
    3.4300    2.7440   19.9570 C   0  0  0  0  0  0  0  0  0  0  0  0
   10.7300   -1.4410   23.4460 C   0  0  0  0  0  0  0  0  0  0  0  0
    2.8150    2.8060   21.1170 C   0  0  0  0  0  0  0  0  0  0  0  0
   11.5590   -1.6310   22.2200 C   0  0  0  0  0  0  0  0  0  0  0  0
   11.3790   -1.8180   24.5840 C   0  0  0  0  0  0  0  0  0  0  0  0
   12.9210   -2.1930   22.3560 C   0  0  0  0  0  0  0  0  0  0  0  0
   12.6440   -2.3340   24.6320 C   0  0  0  0  0  0  0  0  0  0  0  0
   13.6850   -2.6470   23.5910 C   0  0  0  0  0  0  0  0  0  0  0  0
  1  2  1  0
  2  3  1  0
  2  4  2  0
  3  5  1  0
  5  6  1  1
  5  7  1  0
  7  8  1  0
  7  9  2  0
  6 10  1  0
 10 11  1  0
 10 12  2  0
  8 13  1  0
 13 14  1  6
 13 15  1  0
 14 16  2  3
 15 17  1  0
 17 18  1  0
 18 19  2  3
 19 20  1  0
 19 21  1  0
 20 22  1  0
 20 23  1  0
 21 24  1  0
 21 25  2  0
 22 26  1  0
 23 27  1  0
 24 28  2  0
 25 29  1  0
 24 30  1  0
 29 31  1  0
 26 32  1  0
 27 32  1  0
 28 33  1  0
 29 33  2  0
 30 34  2  0
 28 35  1  0
 32 36  1  0
 34 37  1  0
 35 37  2  0
 36 38  2  0
 36 39  1  0
 38 40  1  0
 39 41  2  0
 40 42  2  0
 41 42  1  0
M  END
