x3303-x0731
     RDKit          3D

 45 50  0  0  0  0  0  0  0  0999 V2000
    0.8140   -0.9320   25.9910 C   0  0  0  0  0  0  0  0  0  0  0  0
    1.9290   -1.9850   25.9800 C   0  0  0  0  0  0  0  0  0  0  0  0
    3.1790   -1.7080   26.4810 C   0  0  0  0  0  0  0  0  0  0  0  0
    1.5790   -3.3490   25.3880 C   0  0  0  0  0  0  0  0  0  0  0  0
    2.6420   -4.4740   25.3420 C   0  0  0  0  0  0  0  0  0  0  0  0
    4.2780   -2.7470   26.4780 C   0  0  0  0  0  0  0  0  0  0  0  0
    4.0480   -4.1180   25.9300 C   0  0  0  0  0  0  0  0  0  0  0  0
    5.3910   -5.2800   25.9810 S   0  0  0  0  0  0  0  0  0  0  0  0
    6.2500   -4.7730   27.0110 O   0  0  0  0  0  0  0  0  0  0  0  0
    4.7470   -6.5650   26.1470 O   0  0  0  0  0  0  0  0  0  0  0  0
    5.8730   -5.2110   24.4060 N   0  0  0  0  0  0  0  0  0  0  0  0
    7.1600   -4.8050   23.9060 C   0  0  0  0  0  0  0  0  0  0  0  0
    5.0970   -6.1190   23.5970 C   0  0  0  0  0  0  0  0  0  0  0  0
    7.2360   -4.6870   22.4990 C   0  0  0  0  0  0  0  0  0  0  0  0
    5.2670   -5.8740   22.1440 C   0  0  0  0  0  0  0  0  0  0  0  0
    6.0220   -4.5360   21.9770 C   0  0  0  0  0  0  0  0  0  0  0  0
    6.0840   -4.4870   20.4580 C   0  0  0  0  0  0  0  0  0  0  0  0
    5.0810   -3.4070   22.3030 C   0  0  0  0  0  0  0  0  0  0  0  0
    5.4080   -5.3530   19.9580 O   0  0  0  0  0  0  0  0  0  0  0  0
    6.8620   -3.4450   19.6280 C   0  0  0  0  0  0  0  0  0  0  0  0
    5.1430   -2.3170   21.4000 N   0  0  0  0  0  0  0  0  0  0  0  0
    6.1240   -1.3280   21.2880 C   0  0  0  0  0  0  0  0  0  0  0  0
    7.2810   -1.1770   22.0050 N   0  0  0  0  0  0  0  0  0  0  0  0
    5.8050   -0.2900   20.2410 C   0  0  0  0  0  0  0  0  0  0  0  0
    8.5920   -0.9610   21.4100 C   0  0  0  0  0  0  0  0  0  0  0  0
    7.3890   -1.7410   23.2920 C   0  0  0  0  0  0  0  0  0  0  0  0
    4.8270    0.7470   20.6470 C   0  0  0  0  0  0  0  0  0  0  0  0
    6.4980   -0.3920   18.8890 C   0  0  0  0  0  0  0  0  0  0  0  0
    9.3630   -0.1880   22.2950 C   0  0  0  0  0  0  0  0  0  0  0  0
    8.7790   -1.8770   23.8130 C   0  0  0  0  0  0  0  0  0  0  0  0
    4.4650    1.7210   19.7650 C   0  0  0  0  0  0  0  0  0  0  0  0
    5.8920    0.8360   18.1550 C   0  0  0  0  0  0  0  0  0  0  0  0
    4.2520    0.7720   21.9190 C   0  0  0  0  0  0  0  0  0  0  0  0
    6.2460    1.1340   16.9120 O   0  0  0  0  0  0  0  0  0  0  0  0
    9.7330   -1.0290   23.4380 N   0  0  0  0  0  0  0  0  0  0  0  0
    4.9850    1.7380   18.6010 N   0  0  0  0  0  0  0  0  0  0  0  0
    3.2340    1.8310   22.3430 C   0  0  0  0  0  0  0  0  0  0  0  0
    3.5450    2.7120   20.0760 C   0  0  0  0  0  0  0  0  0  0  0  0
   11.0140   -1.5220   23.4490 C   0  0  0  0  0  0  0  0  0  0  0  0
    2.9090    2.7720   21.3980 C   0  0  0  0  0  0  0  0  0  0  0  0
   11.7300   -1.6660   22.2730 C   0  0  0  0  0  0  0  0  0  0  0  0
   11.5380   -1.8640   24.6080 C   0  0  0  0  0  0  0  0  0  0  0  0
   13.0910   -2.2130   22.3080 C   0  0  0  0  0  0  0  0  0  0  0  0
   12.8040   -2.3880   24.7360 C   0  0  0  0  0  0  0  0  0  0  0  0
   13.5440   -2.5530   23.5890 C   0  0  0  0  0  0  0  0  0  0  0  0
  1  2  1  0
  2  3  2  0
  2  4  1  0
  4  5  2  0
  3  6  1  0
  5  7  1  0
  6  7  2  0
  8  7  1  0
  8  9  2  0
  8 10  2  0
  8 11  1  0
 11 12  1  0
 11 13  1  0
 12 14  1  0
 13 15  1  0
 14 16  1  0
 15 16  1  0
 16 17  1  0
 16 18  1  0
 17 19  2  0
 17 20  1  0
 18 21  1  0
 21 22  2  3
 22 23  1  0
 22 24  1  0
 23 25  1  0
 23 26  1  0
 24 27  1  0
 24 28  2  0
 25 29  1  0
 26 30  1  0
 27 31  2  0
 28 32  1  0
 27 33  1  0
 32 34  1  0
 29 35  1  0
 30 35  1  0
 31 36  1  0
 32 36  2  0
 33 37  2  0
 31 38  1  0
 35 39  1  0
 37 40  1  0
 38 40  2  0
 39 41  2  0
 39 42  1  0
 41 43  1  0
 42 44  2  0
 43 45  2  0
 44 45  1  0
M  END
