
     RDKit          3D

 20 21  0  0  0  0  0  0  0  0999 V2000
    5.6780   -5.1770   24.4190 N   0  0  0  0  0  0  0  0  0  0  0  0
    2.4870   -4.0880   25.7920 C   0  0  0  0  0  0  0  0  0  0  0  0
    4.3960   -6.2590   26.2120 O   0  0  0  0  0  0  0  0  0  0  0  0
    1.5080   -3.1250   25.7670 C   0  0  0  0  0  0  0  0  0  0  0  0
    6.5330   -5.0760   21.7480 N   0  0  0  0  0  0  0  0  0  0  0  0
    6.1360   -4.5960   26.7730 O   0  0  0  0  0  0  0  0  0  0  0  0
    1.8870   -1.8010   25.8480 C   0  0  0  0  0  0  0  0  0  0  0  0
    5.7890   -4.8480   19.6320 O   0  0  0  0  0  0  0  0  0  0  0  0
    3.2150   -1.4310   25.9550 C   0  0  0  0  0  0  0  0  0  0  0  0
    4.1740   -2.4160   25.9740 C   0  0  0  0  0  0  0  0  0  0  0  0
    3.8300   -3.7570   25.8940 C   0  0  0  0  0  0  0  0  0  0  0  0
    4.7080   -5.3010   23.3210 C   0  0  0  0  0  0  0  0  0  0  0  0
    5.4120   -5.9250   22.1480 C   0  0  0  0  0  0  0  0  0  0  0  0
    7.5000   -4.9280   22.8390 C   0  0  0  0  0  0  0  0  0  0  0  0
    6.8250   -4.3320   24.0480 C   0  0  0  0  0  0  0  0  0  0  0  0
    6.5760   -4.5240   20.5130 C   0  0  0  0  0  0  0  0  0  0  0  0
    7.5890   -3.4380   20.2480 C   0  0  0  0  0  0  0  0  0  0  0  0
    2.1170   -5.3860   25.7130 F   0  0  0  0  0  0  0  0  0  0  0  0
    5.4740   -2.0530   26.0720 F   0  0  0  0  0  0  0  0  0  0  0  0
    5.0630   -5.0260   25.9310 S   0  0  1  0  0  0  0  0  0  0  0  0
  1 12  1  0
  1 15  1  0
  1 20  1  0
  2  4  2  0
  2 11  1  0
  2 18  1  0
  3 20  2  0
  4  7  1  0
  5 13  1  0
  5 14  1  0
  5 16  1  0
  6 20  2  0
  7  9  2  0
  8 16  2  0
  9 10  1  0
 10 11  2  0
 10 19  1  0
 20 11  1  6
 12 13  1  0
 14 15  1  0
 16 17  1  0
M  END
