
     RDKit          3D

 16 17  0  0  0  0  0  0  0  0999 V2000
    8.9730   -3.5350   18.4280 S   0  0  0  0  0  0  0  0  0  0  0  0
    7.1690   -3.7790   21.2720 N   0  0  0  0  0  0  0  0  0  0  0  0
    7.7500   -4.6630   27.6230 C   0  0  0  0  0  0  0  0  0  0  0  0
    7.5880   -4.7420   26.2070 O   0  0  0  0  0  0  0  0  0  0  0  0
    6.4830   -5.3610   25.7130 C   0  0  0  0  0  0  0  0  0  0  0  0
    7.1330   -4.5410   23.4720 N   0  0  0  0  0  0  0  0  0  0  0  0
    5.6480   -4.2110   19.6520 O   0  0  0  0  0  0  0  0  0  0  0  0
    5.5680   -6.0900   26.4690 C   0  0  0  0  0  0  0  0  0  0  0  0
    4.4680   -6.6880   25.8480 C   0  0  0  0  0  0  0  0  0  0  0  0
    4.2640   -6.5750   24.4910 C   0  0  0  0  0  0  0  0  0  0  0  0
    5.1860   -5.8470   23.7490 C   0  0  0  0  0  0  0  0  0  0  0  0
    6.6100   -4.5390   22.2790 C   0  0  0  0  0  0  0  0  0  0  0  0
    6.6700   -3.6450   20.0050 C   0  0  0  0  0  0  0  0  0  0  0  0
    7.4730   -2.7530   19.0880 C   0  0  0  0  0  0  0  0  0  0  0  0
    6.3020   -5.2330   24.3380 C   0  0  0  0  0  0  0  0  0  0  0  0
    5.1930   -5.5340   22.0340 S   0  0  0  0  0  0  0  0  0  0  0  0
  1 14  1  0
  2 12  1  0
  2 13  1  0
  3  4  1  0
  4  5  1  0
  5  8  2  0
  5 15  1  0
  6 12  2  0
  6 15  1  0
  7 13  2  0
  8  9  1  0
  9 10  2  0
 10 11  1  0
 11 15  2  0
 11 16  1  0
 12 16  1  0
 13 14  1  0
M  END
