
     RDKit          3D

 18 19  0  0  0  0  0  0  0  0999 V2000
    8.1840   -3.4960   18.6230 S   0  0  0  0  0  0  0  0  0  0  0  0
    5.7020   -3.9510   20.0510 O   0  0  0  0  0  0  0  0  0  0  0  0
    6.6360   -4.2000   20.8040 C   0  0  0  0  0  0  0  0  0  0  0  0
    8.0550   -3.8980   20.3870 C   0  0  0  0  0  0  0  0  0  0  0  0
    6.4360   -4.7710   22.0390 N   0  0  0  0  0  0  0  0  0  0  0  0
    7.4800   -4.8410   23.0280 C   0  0  0  0  0  0  0  0  0  0  0  0
    8.4800   -5.8070   22.9480 C   0  0  0  0  0  0  0  0  0  0  0  0
    9.4530   -5.8790   23.9320 C   0  0  0  0  0  0  0  0  0  0  0  0
    9.4280   -5.0190   25.0080 C   0  0  0  0  0  0  0  0  0  0  0  0
    8.4290   -4.0790   25.1070 C   0  0  0  0  0  0  0  0  0  0  0  0
    7.4550   -3.9840   24.1260 C   0  0  0  0  0  0  0  0  0  0  0  0
    5.1240   -5.3150   22.3730 C   0  0  1  0  0  0  0  0  0  0  0  0
    5.0510   -6.8000   22.0760 C   0  0  0  0  0  0  0  0  0  0  0  0
    4.0320   -7.3780   22.6850 C   0  0  0  0  0  0  0  0  0  0  0  0
    3.7460   -6.6070   24.2260 S   0  0  2  0  0  0  0  0  0  0  0  0
    4.3190   -7.3910   25.2880 O   0  0  0  0  0  0  0  0  0  0  0  0
    2.3640   -6.2300   24.3510 O   0  0  0  0  0  0  0  0  0  0  0  0
    4.7620   -5.1890   23.8650 C   0  0  0  0  0  0  0  0  0  0  0  0
  1  4  1  0
  2  3  2  0
  3  4  1  0
  3  5  1  0
  5  6  1  0
 12  5  1  1
  6  7  2  0
  6 11  1  0
  7  8  1  0
  8  9  2  0
  9 10  1  0
 10 11  2  0
 12 13  1  0
 12 18  1  0
 13 14  2  0
 15 14  1  6
 15 16  2  0
 15 17  2  0
 15 18  1  0
M  END
