
     RDKit          3D

 16 17  0  0  0  0  0  0  0  0999 V2000
    6.8220   -2.6820   20.9300 N   0  0  0  0  0  0  0  0  0  0  0  0
    7.0930   -2.4990   18.4820 C   0  0  0  0  0  0  0  0  0  0  0  0
    5.7520   -4.1290   19.5770 O   0  0  0  0  0  0  0  0  0  0  0  0
    7.7110   -5.9680   28.4380 Cl  0  0  0  0  0  0  0  0  0  0  0  0
    6.4910   -3.1560   19.7100 C   0  0  0  0  0  0  0  0  0  0  0  0
    8.4190   -2.5730   23.3080 N   0  0  0  0  0  0  0  0  0  0  0  0
    6.3850   -3.3240   22.1660 C   0  0  0  0  0  0  0  0  0  0  0  0
    7.5950   -3.7360   22.9690 C   0  0  0  0  0  0  0  0  0  0  0  0
    9.5840   -2.9730   24.1180 C   0  0  0  0  0  0  0  0  0  0  0  0
    9.2880   -4.0590   25.1070 C   0  0  0  0  0  0  0  0  0  0  0  0
    9.7470   -5.3710   25.0790 C   0  0  0  0  0  0  0  0  0  0  0  0
    9.4320   -6.0950   26.2520 C   0  0  0  0  0  0  0  0  0  0  0  0
    8.5330   -5.3940   27.0450 C   0  0  0  0  0  0  0  0  0  0  0  0
    8.8440   -1.9090   22.0700 C   0  0  0  0  0  0  0  0  0  0  0  0
    7.6610   -1.5140   21.2120 C   0  0  0  0  0  0  0  0  0  0  0  0
    8.2670   -3.7960   26.4770 S   0  0  0  0  0  0  0  0  0  0  0  0
  1  5  1  0
  1  7  1  0
  1 15  1  0
  2  5  1  0
  3  5  2  0
  4 13  1  0
  6  8  1  0
  6  9  1  0
  6 14  1  0
  7  8  1  0
  9 10  1  0
 10 11  2  0
 10 16  1  0
 11 12  1  0
 12 13  2  0
 13 16  1  0
 14 15  1  0
M  END
