
     RDKit          3D

 12 12  0  0  0  0  0  0  0  0999 V2000
    9.1010   -3.3830   17.8510 S   0  0  0  0  0  0  0  0  0  0  0  0
    7.3930   -3.1130   21.3650 N   0  0  0  0  0  0  0  0  0  0  0  0
    8.4390   -2.5600   19.3240 C   0  0  0  0  0  0  0  0  0  0  0  0
    6.2560   -3.5430   19.4370 O   0  0  0  0  0  0  0  0  0  0  0  0
    6.3500   -5.8660   21.7700 Cl  0  0  0  0  0  0  0  0  0  0  0  0
    7.2400   -3.1340   20.0300 C   0  0  0  0  0  0  0  0  0  0  0  0
    4.9130   -4.6370   23.5520 N   0  0  0  0  0  0  0  0  0  0  0  0
    6.3960   -3.2170   22.3570 C   0  0  0  0  0  0  0  0  0  0  0  0
    5.9620   -2.1140   23.0890 C   0  0  0  0  0  0  0  0  0  0  0  0
    4.9930   -2.3010   24.0510 C   0  0  0  0  0  0  0  0  0  0  0  0
    4.5010   -3.5730   24.2470 C   0  0  0  0  0  0  0  0  0  0  0  0
    5.8400   -4.4570   22.6350 C   0  0  0  0  0  0  0  0  0  0  0  0
  1  3  1  0
  2  6  1  0
  2  8  1  0
  3  6  1  0
  4  6  2  0
  5 12  1  0
  7 11  2  0
  7 12  1  0
  8  9  1  0
  8 12  2  0
  9 10  2  0
 10 11  1  0
M  END
