
     RDKit          3D

 17 18  0  0  0  0  0  0  0  0999 V2000
    8.9820   -3.3470   18.2940 S   0  0  0  0  0  0  0  0  0  0  0  0
    6.9780   -4.4370   20.9130 N   0  0  0  0  0  0  0  0  0  0  0  0
    7.7790   -2.6470   19.4720 C   0  0  0  0  0  0  0  0  0  0  0  0
    5.6930   -3.7740   19.1850 O   0  0  0  0  0  0  0  0  0  0  0  0
    6.7200   -3.6510   19.8590 C   0  0  0  0  0  0  0  0  0  0  0  0
    7.8880   -4.0670   21.8850 N   0  0  0  0  0  0  0  0  0  0  0  0
    6.6890   -2.4200   22.8270 O   0  0  0  0  0  0  0  0  0  0  0  0
    7.7870   -2.8930   22.5310 C   0  0  0  0  0  0  0  0  0  0  0  0
    9.0220   -2.1300   22.8080 C   0  0  0  0  0  0  0  0  0  0  0  0
   10.2220   -2.0940   22.0330 C   0  0  0  0  0  0  0  0  0  0  0  0
   11.1630   -1.1900   22.5800 C   0  0  0  0  0  0  0  0  0  0  0  0
   12.5180   -0.8940   22.0230 C   0  0  0  0  0  0  0  0  0  0  0  0
   13.3660   -0.0930   23.0000 C   0  0  0  0  0  0  0  0  0  0  0  0
   12.6010    1.0080   23.6370 C   0  0  0  0  0  0  0  0  0  0  0  0
   11.4890    0.4550   24.4960 C   0  0  0  0  0  0  0  0  0  0  0  0
   10.7240   -0.5670   23.7090 C   0  0  0  0  0  0  0  0  0  0  0  0
    9.1380   -1.0610   24.1860 S   0  0  0  0  0  0  0  0  0  0  0  0
  1  3  1  0
  2  5  1  0
  2  6  1  0
  3  5  1  0
  4  5  2  0
  6  8  1  0
  7  8  2  0
  8  9  1  0
  9 10  2  0
  9 17  1  0
 10 11  1  0
 11 12  1  0
 11 16  2  0
 12 13  1  0
 13 14  1  0
 14 15  1  0
 15 16  1  0
 16 17  1  0
M  END
