ABI-SAT-3cb25904-5
     RDKit          3D

 10 10  0  0  0  0  0  0  0  0999 V2000
    9.7340   -5.9780   25.3300 C   0  0  0  0  0  0  0  0  0  0  0  0
    9.3490   -4.6560   24.8210 C   0  0  1  0  0  0  0  0  0  0  0  0
    8.1960   -4.4820   24.1700 C   0  0  2  0  0  0  0  0  0  0  0  0
    7.5100   -3.2790   24.2090 C   0  0  0  0  0  0  0  0  0  0  0  0
    6.8350   -2.7880   23.1500 N   0  0  0  0  0  0  0  0  0  0  0  0
    8.1600   -3.8060   25.4470 C   0  0  1  0  0  0  0  0  0  0  0  0
    7.1970   -4.5440   26.6750 S   0  0  0  0  0  0  0  0  0  0  0  0
    8.3630   -5.2300   27.8570 C   0  0  0  0  0  0  0  0  0  0  0  0
    6.5270   -5.6470   26.0110 O   0  0  0  0  0  0  0  0  0  0  0  0
    6.4360   -3.5130   27.3480 O   0  0  0  0  0  0  0  0  0  0  0  0
  2  1  1  1
  2  3  1  0
  3  4  1  6
  4  5  3  0
  2  6  1  0
  3  6  1  0
  6  7  1  1
  7  8  1  0
  7  9  2  0
  7 10  2  0
M  END
