ABI-SAT-2adc218e-8
     RDKit          3D

  8  8  0  0  0  0  0  0  0  0999 V2000
    6.4980   -4.0410   22.4350 N   0  0  0  0  0  0  0  0  0  0  0  0
    7.8020   -4.0930   22.8700 C   0  0  0  0  0  0  0  0  0  0  0  0
    8.0180   -5.0820   23.9870 C   0  0  0  0  0  0  0  0  0  0  0  0
    8.9550   -4.8290   24.9810 C   0  0  1  0  0  0  0  0  0  0  0  0
    9.9010   -3.9130   25.0220 C   0  0  1  0  0  0  0  0  0  0  0  0
   10.8580   -3.9290   24.0780 O   0  0  0  0  0  0  0  0  0  0  0  0
    8.8790   -3.2110   24.6830 C   0  0  2  0  0  0  0  0  0  0  0  0
    8.2270   -2.3860   25.5670 F   0  0  0  0  0  0  0  0  0  0  0  0
  1  2  3  0
  2  3  1  0
  4  3  1  6
  4  5  1  0
  5  6  1  6
  4  7  1  0
  5  7  1  0
  7  8  1  1
M  END
