ABI-SAT-2adc218e-6
     RDKit          3D

  7  7  0  0  0  0  0  0  0  0999 V2000
    9.9080   -5.4070   25.1340 N   0  0  0  0  0  0  0  0  0  0  0  0
    8.5510   -5.3320   25.0110 C   0  0  2  0  0  0  0  0  0  0  0  0
    7.9800   -3.9910   24.9170 C   0  0  0  0  0  0  0  0  0  0  0  0
    8.5360   -3.9210   23.8250 O   0  0  0  0  0  0  0  0  0  0  0  0
    7.6560   -4.6710   26.0910 C   0  0  1  0  0  0  0  0  0  0  0  0
    6.3490   -5.1460   26.2590 C   0  0  0  0  0  0  0  0  0  0  0  0
    5.5790   -4.4330   26.9140 O   0  0  0  0  0  0  0  0  0  0  0  0
  2  1  1  1
  2  3  1  0
  3  4  2  0
  2  5  1  0
  3  5  1  0
  5  6  1  6
  6  7  1  0
M  END
