ABI-SAT-2adc218e-4
     RDKit          3D

 10 11  0  0  0  0  0  0  0  0999 V2000
    5.9670   -4.2370   24.0390 N   0  0  0  0  0  0  0  0  0  0  0  0
    7.1600   -4.3900   23.3740 C   0  0  0  0  0  0  0  0  0  0  0  0
    8.3660   -4.2230   24.2390 C   0  0  1  0  0  0  0  0  0  0  0  0
    8.4900   -4.5800   25.4160 C   0  0  1  0  0  0  0  0  0  0  0  0
    9.3300   -5.2580   24.6270 C   0  0  2  0  0  0  0  0  0  0  0  0
   10.1350   -4.6390   25.4260 C   0  0  1  0  0  0  0  0  0  0  0  0
   10.9030   -3.4800   24.9300 C   0  0  0  0  0  0  0  0  0  0  0  0
   12.1830   -3.5060   25.3430 F   0  0  0  0  0  0  0  0  0  0  0  0
   10.3610   -2.3170   25.3360 F   0  0  0  0  0  0  0  0  0  0  0  0
   10.9020   -3.4150   23.5840 F   0  0  0  0  0  0  0  0  0  0  0  0
  1  2  3  0
  3  2  1  6
  4  3  1  6
  5  3  1  6
  4  5  1  0
  4  6  1  0
  5  6  1  0
  6  7  1  6
  7  8  1  0
  7  9  1  0
  7 10  1  0
M  END
