ABI-SAT-3cb25904-4
     RDKit          3D

 10 10  0  0  0  0  0  0  0  0999 V2000
    8.8740   -3.3140   23.4100 C   0  0  0  0  0  0  0  0  0  0  0  0
    8.0660   -4.3450   24.1650 C   0  0  1  0  0  0  0  0  0  0  0  0
    8.6630   -5.4410   24.6650 C   0  0  1  0  0  0  0  0  0  0  0  0
    9.3720   -5.4610   25.8610 C   0  0  0  0  0  0  0  0  0  0  0  0
    9.1290   -6.3110   26.8720 N   0  0  0  0  0  0  0  0  0  0  0  0
    8.1770   -4.6400   25.7470 C   0  0  2  0  0  0  0  0  0  0  0  0
    6.9180   -4.9470   26.4390 C   0  0  0  0  0  0  0  0  0  0  0  0
    6.1770   -3.8240   26.5650 F   0  0  0  0  0  0  0  0  0  0  0  0
    6.1920   -5.8430   25.7390 F   0  0  0  0  0  0  0  0  0  0  0  0
    7.1240   -5.4340   27.6850 F   0  0  0  0  0  0  0  0  0  0  0  0
  2  1  1  1
  2  3  1  0
  3  4  1  1
  4  5  3  0
  2  6  1  0
  3  6  1  0
  6  7  1  6
  7  8  1  0
  7  9  1  0
  7 10  1  0
M  END
