ABI-SAT-2adc218e-1
     RDKit          3D

 11 11  0  0  0  0  0  0  0  0999 V2000
   10.3380   -4.1450   24.4630 N   0  0  0  0  0  0  0  0  0  0  0  0
    9.7150   -5.1400   25.1610 C   0  0  0  0  0  0  0  0  0  0  0  0
    8.3640   -5.3520   24.5770 C   0  0  2  0  0  0  0  0  0  0  0  0
    7.9730   -4.5400   23.5300 C   0  0  0  0  0  0  0  0  0  0  0  0
    6.9810   -3.6290   23.6060 N   0  0  0  0  0  0  0  0  0  0  0  0
    6.5080   -3.7270   24.8700 N   0  0  0  0  0  0  0  0  0  0  0  0
    6.9570   -5.1640   25.6650 S   0  0  0  0  0  0  0  0  0  0  0  0
    7.7490   -4.4360   27.0960 C   0  0  0  0  0  0  0  0  0  0  0  0
    8.1390   -3.1650   26.8690 F   0  0  0  0  0  0  0  0  0  0  0  0
    8.8550   -5.1420   27.4410 F   0  0  0  0  0  0  0  0  0  0  0  0
    6.9740   -4.4160   28.2080 F   0  0  0  0  0  0  0  0  0  0  0  0
  1  2  3  0
  3  2  1  1
  3  4  1  0
  4  5  2  0
  5  6  1  0
  3  7  1  0
  6  7  2  0
  7  8  1  0
  8  9  1  0
  8 10  1  0
  8 11  1  0
M  END
