ABI-SAT-3cb25904-2
     RDKit          3D

 12 12  0  0  0  0  0  0  0  0999 V2000
    8.0870   -5.6210   26.6110 C   0  0  0  0  0  0  0  0  0  0  0  0
    8.9490   -4.6520   25.3610 S   0  0  0  0  0  0  0  0  0  0  0  0
   10.2080   -5.2950   25.0970 O   0  0  0  0  0  0  0  0  0  0  0  0
    8.8130   -3.2730   25.7630 O   0  0  0  0  0  0  0  0  0  0  0  0
    7.9460   -4.7600   23.9240 C   0  0  0  0  0  0  0  0  0  0  0  0
    8.2270   -3.7450   22.9920 C   0  0  2  0  0  0  0  0  0  0  0  0
    9.4030   -3.0070   23.1800 C   0  0  0  0  0  0  0  0  0  0  0  0
    9.1730   -1.7060   22.8000 C   0  0  0  0  0  0  0  0  0  0  0  0
    7.7900   -1.6140   22.3560 C   0  0  2  0  0  0  0  0  0  0  0  0
    7.1050   -0.3640   22.7240 C   0  0  0  0  0  0  0  0  0  0  0  0
    7.0530    0.7820   21.9020 N   0  0  0  0  0  0  0  0  0  0  0  0
    7.1520   -2.8520   22.6820 C   0  0  0  0  0  0  0  0  0  0  0  0
  2  1  1  0
  2  3  2  0
  2  4  2  0
  2  5  1  0
  6  5  1  1
  6  7  1  0
  7  8  1  0
  8  9  1  0
  9 10  1  1
 10 11  3  0
  6 12  1  0
  9 12  1  0
M  END
