ABI-SAT-3cb25904-1
     RDKit          3D

  6  5  0  0  0  0  0  0  0  0999 V2000
    9.7700   -5.8460   25.5140 C   0  0  0  0  0  0  0  0  0  0  0  0
    8.8070   -4.7270   25.3050 C   0  0  2  0  0  0  0  0  0  0  0  0
    7.8240   -4.6250   26.3780 N   0  0  0  0  0  0  0  0  0  0  0  0
    8.0870   -4.6260   24.1100 C   0  0  0  0  0  0  0  0  0  0  0  0
    8.4010   -3.5820   23.2430 C   0  0  0  0  0  0  0  0  0  0  0  0
    7.3320   -2.8980   22.7620 N   0  0  0  0  0  0  0  0  0  0  0  0
  2  1  1  6
  2  3  1  0
  2  4  1  0
  4  5  1  0
  5  6  3  0
M  END
