AGN-NEW-63f62ae9-2-acrylamide
     RDKit          3D

 27 29  0  0  0  0  0  0  0  0999 V2000
    7.4700   -4.1040   20.7810 C   0  0  0  0  0  0  0  0  0  0  0  0
    7.3710   -2.6770   21.3290 C   0  0  0  0  0  0  0  0  0  0  0  0
    5.8960   -2.3510   21.5120 C   0  0  0  0  0  0  0  0  0  0  0  0
    4.9510   -3.1880   21.2220 O   0  0  0  0  0  0  0  0  0  0  0  0
    5.7080   -1.0730   22.0150 N   0  0  0  0  0  0  0  0  0  0  0  0
    4.8340   -0.2500   21.3940 C   0  0  2  0  0  0  0  0  0  0  0  0
    5.0130   -0.2000   20.0070 C   0  0  0  0  0  0  0  0  0  0  0  0
    6.1570    0.2290   19.6200 N   0  0  0  0  0  0  0  0  0  0  0  0
    6.5870   -0.2540   18.3690 C   0  0  0  0  0  0  0  0  0  0  0  0
    7.2100    0.6430   17.5860 C   0  0  0  0  0  0  0  0  0  0  0  0
    7.6690    0.2450   16.2770 C   0  0  0  0  0  0  0  0  0  0  0  0
    8.3800    0.9790   15.2390 C   0  0  0  0  0  0  0  0  0  0  0  0
    7.4480   -0.9260   15.9330 C   0  0  0  0  0  0  0  0  0  0  0  0
    6.8480   -1.8930   16.6790 C   0  0  0  0  0  0  0  0  0  0  0  0
    6.7950   -3.0050   16.0500 F   0  0  0  0  0  0  0  0  0  0  0  0
    6.4090   -1.5450   17.9120 C   0  0  0  0  0  0  0  0  0  0  0  0
    6.6310    1.3690   20.2580 C   0  0  0  0  0  0  0  0  0  0  0  0
    7.9780    1.8250   20.3610 O   0  0  0  0  0  0  0  0  0  0  0  0
    5.5370    2.0420   20.9170 N   0  0  0  0  0  0  0  0  0  0  0  0
    4.6590    3.0010   20.2400 C   0  0  0  0  0  0  0  0  0  0  0  0
    4.1190    3.9850   21.0510 C   0  0  0  0  0  0  0  0  0  0  0  0
    3.2760    4.9700   20.5990 N   0  0  0  0  0  0  0  0  0  0  0  0
    2.9390    5.0060   19.2940 C   0  0  0  0  0  0  0  0  0  0  0  0
    3.4510    3.9960   18.2840 C   0  0  0  0  0  0  0  0  0  0  0  0
    4.3700    2.9510   18.8720 C   0  0  0  0  0  0  0  0  0  0  0  0
    4.9030    1.9320   17.9030 C   0  0  0  0  0  0  0  0  0  0  0  0
    4.8470    1.1940   21.8690 C   0  0  0  0  0  0  0  0  0  0  0  0
  1  2  1  0
  2  3  1  0
  3  4  2  0
  3  5  1  0
  6  5  1  1
  6  7  1  0
  7  8  1  0
  8  9  1  0
  9 10  2  0
 10 11  1  0
 11 12  1  0
 11 13  2  0
 13 14  1  0
 14 15  1  0
  9 16  1  0
 14 16  2  0
  8 17  1  0
 17 18  2  0
 17 19  1  0
 19 20  1  0
 20 21  2  0
 21 22  1  0
 22 23  2  0
 23 24  1  0
 20 25  1  0
 24 25  2  0
 25 26  1  0
  6 27  1  0
 19 27  1  0
M  END
