AGN-NEW-817c14da-1
     RDKit          3D

 36 39  0  0  0  0  0  0  0  0999 V2000
    7.9580   -0.8150   29.6850 C   0  0  0  0  0  0  0  0  0  0  0  0
    8.1710   -1.7320   28.5680 C   0  0  0  0  0  0  0  0  0  0  0  0
    7.5590   -1.2060   27.2840 C   0  0  0  0  0  0  0  0  0  0  0  0
    6.4190   -0.1980   27.4670 C   0  0  0  0  0  0  0  0  0  0  0  0
    5.7790    0.3590   26.2100 C   0  0  0  0  0  0  0  0  0  0  0  0
    6.3610   -0.1620   24.9080 C   0  0  0  0  0  0  0  0  0  0  0  0
    7.5080   -1.1740   24.9500 C   0  0  0  0  0  0  0  0  0  0  0  0
    8.0210   -1.6370   23.5890 C   0  0  0  0  0  0  0  0  0  0  0  0
    8.5450   -0.5770   22.8160 N   0  0  0  0  0  0  0  0  0  0  0  0
    7.9870   -0.0180   21.6570 C   0  0  0  0  0  0  0  0  0  0  0  0
    8.5290    0.9740   21.1650 O   0  0  0  0  0  0  0  0  0  0  0  0
    6.7790   -0.6160   21.0700 N   0  0  0  0  0  0  0  0  0  0  0  0
    6.1930    0.1300   20.0000 C   0  0  0  0  0  0  0  0  0  0  0  0
    5.1350    1.1810   20.2440 C   0  0  0  0  0  0  0  0  0  0  0  0
    4.7030    1.4280   21.5290 C   0  0  0  0  0  0  0  0  0  0  0  0
    3.9500    1.7590   22.3590 N   0  0  0  0  0  0  0  0  0  0  0  0
    3.7900    3.0930   22.4930 C   0  0  0  0  0  0  0  0  0  0  0  0
    3.5080    3.2150   23.8600 C   0  0  0  0  0  0  0  0  0  0  0  0
    2.1370    2.9000   24.0120 O   0  0  0  0  0  0  0  0  0  0  0  0
    1.7290    1.9830   23.0000 C   0  0  0  0  0  0  0  0  0  0  0  0
    2.8710    1.0250   22.7500 C   0  0  0  0  0  0  0  0  0  0  0  0
    4.6620    1.8420   19.1260 C   0  0  0  0  0  0  0  0  0  0  0  0
    5.1680    1.5340   17.7650 C   0  0  0  0  0  0  0  0  0  0  0  0
    6.0950    0.5980   17.5690 N   0  0  0  0  0  0  0  0  0  0  0  0
    6.5700   -0.0680   18.6650 C   0  0  0  0  0  0  0  0  0  0  0  0
    7.4700   -0.9800   18.3620 C   0  0  0  0  0  0  0  0  0  0  0  0
    9.8940   -0.3230   23.0430 C   0  0  0  0  0  0  0  0  0  0  0  0
   10.2890    0.5750   23.9590 N   0  0  0  0  0  0  0  0  0  0  0  0
   11.6070    0.7930   24.1210 C   0  0  0  0  0  0  0  0  0  0  0  0
   12.7200    0.0550   23.3060 C   0  0  0  0  0  0  0  0  0  0  0  0
   11.9770   -0.9000   22.3360 C   0  0  0  0  0  0  0  0  0  0  0  0
   12.7080   -1.7510   21.3890 C   0  0  0  0  0  0  0  0  0  0  0  0
   13.3130   -2.8790   21.9890 C   0  0  0  0  0  0  0  0  0  0  0  0
   13.6930   -1.0090   20.5470 C   0  0  0  0  0  0  0  0  0  0  0  0
   10.6840   -1.0260   22.2710 N   0  0  0  0  0  0  0  0  0  0  0  0
    8.0580   -1.6560   26.1040 N   0  0  0  0  0  0  0  0  0  0  0  0
  1  2  3  0
  2  3  1  0
  3  4  2  0
  4  5  1  0
  5  6  2  0
  6  7  1  0
  7  8  1  0
  8  9  1  0
  9 10  1  0
 10 11  2  0
 10 12  1  0
 12 13  1  0
 13 14  1  0
 14 15  1  0
 15 16  1  0
 16 17  1  0
 17 18  1  0
 18 19  1  0
 19 20  1  0
 16 21  1  0
 20 21  1  0
 14 22  2  0
 22 23  1  0
 23 24  2  0
 13 25  2  0
 24 25  1  0
 25 26  1  0
  9 27  1  0
 27 28  2  0
 28 29  1  0
 29 30  2  0
 30 31  1  0
 31 32  1  0
 32 33  1  0
 32 34  1  0
 27 35  1  0
 31 35  2  0
  3 36  1  0
  7 36  2  0
M  END
