AGN-NEW-cce853d0-1-vinylsulfonamide
     RDKit          3D

 24 25  0  0  0  0  0  0  0  0999 V2000
    7.3240   -5.1180   21.0550 C   0  0  0  0  0  0  0  0  0  0  0  0
    7.4490   -4.0650   22.1490 C   0  0  0  0  0  0  0  0  0  0  0  0
    6.3190   -2.7130   21.9220 S   0  0  0  0  0  0  0  0  0  0  0  0
    4.8290   -3.3530   21.7730 O   0  0  0  0  0  0  0  0  0  0  0  0
    6.7560   -2.0470   20.7250 O   0  0  0  0  0  0  0  0  0  0  0  0
    6.9650   -1.5810   23.2400 N   0  0  0  0  0  0  0  0  0  0  0  0
    8.4540   -1.1470   23.5750 C   0  0  0  0  0  0  0  0  0  0  0  0
    9.0360   -0.8780   24.8460 C   0  0  0  0  0  0  0  0  0  0  0  0
    8.0510   -0.9900   25.8570 C   0  0  0  0  0  0  0  0  0  0  0  0
   10.4350   -0.5240   25.0820 C   0  0  0  0  0  0  0  0  0  0  0  0
   11.3340   -0.3990   24.0580 C   0  0  0  0  0  0  0  0  0  0  0  0
   10.8800   -0.5940   22.7150 C   0  0  0  0  0  0  0  0  0  0  0  0
    9.3970   -0.9540   22.5740 C   0  0  0  0  0  0  0  0  0  0  0  0
    8.9710   -1.0390   21.2920 C   0  0  0  0  0  0  0  0  0  0  0  0
    8.0570    0.0880   21.0470 C   0  0  0  0  0  0  0  0  0  0  0  0
    8.5220    1.2180   20.8160 O   0  0  0  0  0  0  0  0  0  0  0  0
    6.6390   -0.2360   21.1810 N   0  0  0  0  0  0  0  0  0  0  0  0
    6.0720    0.4230   20.0450 C   0  0  0  0  0  0  0  0  0  0  0  0
    5.1730    1.5640   20.2290 C   0  0  0  0  0  0  0  0  0  0  0  0
    4.6670    2.1950   18.9370 C   0  0  0  0  0  0  0  0  0  0  0  0
    5.0760    1.6750   17.7410 C   0  0  0  0  0  0  0  0  0  0  0  0
    5.8920    0.6210   17.5570 N   0  0  0  0  0  0  0  0  0  0  0  0
    6.3690    0.0140   18.7750 C   0  0  0  0  0  0  0  0  0  0  0  0
    7.3850   -1.3290   18.5980 Cl  0  0  0  0  0  0  0  0  0  0  0  0
  1  2  1  0
  2  3  1  0
  3  4  2  0
  3  5  2  0
  3  6  1  0
  6  7  1  0
  7  8  2  0
  8  9  1  0
  8 10  1  0
 10 11  2  0
 11 12  1  0
  7 13  1  0
 12 13  2  0
 13 14  1  0
 14 15  1  0
 15 16  2  0
 15 17  1  0
 17 18  1  0
 18 19  2  0
 19 20  1  0
 20 21  2  0
 21 22  1  0
 18 23  1  0
 22 23  2  0
 23 24  1  0
M  END
