AGN-NEW-cce853d0-1-chloroacetamide
     RDKit          3D

 22 23  0  0  0  0  0  0  0  0999 V2000
    8.1010   -3.5760   20.1080 C   0  0  0  0  0  0  0  0  0  0  0  0
    7.6690   -2.1250   20.0910 C   0  0  0  0  0  0  0  0  0  0  0  0
    6.8360   -2.6760   19.0950 O   0  0  0  0  0  0  0  0  0  0  0  0
    8.7360   -2.0660   21.2280 N   0  0  0  0  0  0  0  0  0  0  0  0
    9.6960   -1.0780   21.9710 C   0  0  0  0  0  0  0  0  0  0  0  0
   11.1490   -1.2470   22.0190 C   0  0  0  0  0  0  0  0  0  0  0  0
   11.6180   -2.3260   21.3450 C   0  0  0  0  0  0  0  0  0  0  0  0
   12.1390   -0.4600   22.6740 C   0  0  0  0  0  0  0  0  0  0  0  0
   11.7150    0.6010   23.3680 C   0  0  0  0  0  0  0  0  0  0  0  0
   10.3120    0.9710   23.4640 C   0  0  0  0  0  0  0  0  0  0  0  0
    9.2690    0.0850   22.7230 C   0  0  0  0  0  0  0  0  0  0  0  0
    7.8660    0.5640   22.8940 C   0  0  0  0  0  0  0  0  0  0  0  0
    7.4440    1.9960   22.9590 C   0  0  0  0  0  0  0  0  0  0  0  0
    7.0870    2.5930   21.9500 O   0  0  0  0  0  0  0  0  0  0  0  0
    7.5100    2.5460   24.3280 N   0  0  0  0  0  0  0  0  0  0  0  0
    8.6260    3.5000   24.5380 C   0  0  0  0  0  0  0  0  0  0  0  0
    9.5700    3.7460   23.4240 C   0  0  0  0  0  0  0  0  0  0  0  0
   10.7410    4.7300   23.6110 C   0  0  0  0  0  0  0  0  0  0  0  0
   10.8640    5.3610   24.8370 C   0  0  0  0  0  0  0  0  0  0  0  0
   10.0050    5.1530   25.8760 N   0  0  0  0  0  0  0  0  0  0  0  0
    8.8870    4.2160   25.7140 C   0  0  0  0  0  0  0  0  0  0  0  0
    7.9050    4.0730   27.1250 Cl  0  0  0  0  0  0  0  0  0  0  0  0
  1  2  1  0
  2  3  2  0
  2  4  1  0
  4  5  1  0
  5  6  2  0
  6  7  1  0
  6  8  1  0
  8  9  2  0
  9 10  1  0
  5 11  1  0
 10 11  2  0
 11 12  1  0
 12 13  1  0
 13 14  2  0
 13 15  1  0
 15 16  1  0
 16 17  2  0
 17 18  1  0
 18 19  2  0
 19 20  1  0
 16 21  1  0
 20 21  2  0
 21 22  1  0
M  END
