AGN-NEW-95323f67-2
     RDKit          3D

 20 20  0  0  0  0  0  0  0  0999 V2000
    4.1160    1.2180   21.5060 C   0  0  0  0  0  0  0  0  0  0  0  0
    4.8820    0.9510   20.2990 C   0  0  0  0  0  0  0  0  0  0  0  0
    4.4220    1.6840   19.0760 C   0  0  0  0  0  0  0  0  0  0  0  0
    5.1850    1.4450   17.8030 C   0  0  0  0  0  0  0  0  0  0  0  0
    6.2330    0.6260   17.6760 N   0  0  0  0  0  0  0  0  0  0  0  0
    6.6150   -0.0210   18.7850 C   0  0  0  0  0  0  0  0  0  0  0  0
    7.6450   -0.8450   18.6600 F   0  0  0  0  0  0  0  0  0  0  0  0
    5.9880    0.0940   20.1710 C   0  0  0  0  0  0  0  0  0  0  0  0
    6.5060   -0.6300   21.2860 N   0  0  0  0  0  0  0  0  0  0  0  0
    8.1720   -0.4190   21.3970 S   0  0  0  0  0  0  0  0  0  0  0  0
    8.4800    0.9070   20.9090 O   0  0  0  0  0  0  0  0  0  0  0  0
    8.7360   -1.5960   20.8220 O   0  0  0  0  0  0  0  0  0  0  0  0
    8.7360   -0.4400   23.0530 C   0  0  0  0  0  0  0  0  0  0  0  0
   10.1590   -0.7300   23.4560 C   0  0  0  0  0  0  0  0  0  0  0  0
   11.0990   -1.0210   22.4330 N   0  0  0  0  0  0  0  0  0  0  0  0
   12.4490   -0.7040   22.4210 C   0  0  0  0  0  0  0  0  0  0  0  0
   13.2740   -1.2020   21.6620 O   0  0  0  0  0  0  0  0  0  0  0  0
   12.7820    0.2190   23.3790 C   0  0  0  0  0  0  0  0  0  0  0  0
   12.3550    1.6530   23.1650 C   0  0  0  0  0  0  0  0  0  0  0  0
   12.2030   -0.2440   24.7400 C   0  0  0  0  0  0  0  0  0  0  0  0
  1  2  1  0
  2  3  2  0
  3  4  1  0
  4  5  2  0
  5  6  1  0
  6  7  1  0
  2  8  1  0
  6  8  2  0
  8  9  1  0
  9 10  1  0
 10 11  2  0
 10 12  2  0
 10 13  1  0
 13 14  2  3
 14 15  1  0
 15 16  1  0
 16 17  2  0
 16 18  1  0
 18 19  1  0
 18 20  1  0
M  END
