AGN-NEW-c7b24fe3-4-vinylsulfonamide
     RDKit          3D

 22 23  0  0  0  0  0  0  0  0999 V2000
    7.2890   -3.5470   19.7900 C   0  0  0  0  0  0  0  0  0  0  0  0
    6.7890   -2.2740   19.1640 C   0  0  0  0  0  0  0  0  0  0  0  0
    5.3860   -1.7640   20.0920 S   0  0  0  0  0  0  0  0  0  0  0  0
    4.8250   -2.9570   20.8050 O   0  0  0  0  0  0  0  0  0  0  0  0
    4.5670   -0.9350   19.2220 O   0  0  0  0  0  0  0  0  0  0  0  0
    6.0120   -0.5900   21.2360 C   0  0  0  0  0  0  0  0  0  0  0  0
    5.4840   -0.0780   20.1670 N   0  0  0  0  0  0  0  0  0  0  0  0
    5.1090   -1.1700   19.4190 C   0  0  0  0  0  0  0  0  0  0  0  0
    5.3110   -2.5830   19.8780 C   0  0  0  0  0  0  0  0  0  0  0  0
    5.9340   -2.7950   21.1570 C   0  0  0  0  0  0  0  0  0  0  0  0
    6.3240   -1.7070   21.8910 C   0  0  0  0  0  0  0  0  0  0  0  0
    6.9930   -1.7800   23.1720 N   0  0  0  0  0  0  0  0  0  0  0  0
    8.2180   -1.1240   23.1870 C   0  0  0  0  0  0  0  0  0  0  0  0
    8.5490   -0.1910   23.9040 O   0  0  0  0  0  0  0  0  0  0  0  0
    9.1940   -1.6900   22.1520 C   0  0  0  0  0  0  0  0  0  0  0  0
   10.5540   -1.1440   22.3820 C   0  0  0  0  0  0  0  0  0  0  0  0
   11.8680   -1.8360   22.4590 C   0  0  0  0  0  0  0  0  0  0  0  0
   13.0080   -1.1600   22.6800 C   0  0  0  0  0  0  0  0  0  0  0  0
   12.9930    0.2960   22.8470 C   0  0  0  0  0  0  0  0  0  0  0  0
   11.6800    1.0820   22.7790 C   0  0  0  0  0  0  0  0  0  0  0  0
   11.6700    2.7970   22.9630 Cl  0  0  0  0  0  0  0  0  0  0  0  0
   10.4890    0.4030   22.5590 C   0  0  0  0  0  0  0  0  0  0  0  0
  1  2  1  0
  3  2  1  0
  3  4  2  0
  3  5  2  0
  3  6  1  0
  6  7  2  0
  7  8  1  0
  8  9  2  0
  9 10  1  0
  6 11  1  0
 10 11  2  0
 11 12  1  0
 12 13  1  0
 13 14  2  0
 13 15  1  0
 15 16  1  0
 16 17  2  0
 17 18  1  0
 18 19  2  0
 19 20  1  0
 20 21  1  0
 16 22  1  0
 20 22  2  0
M  END
