AGN-NEW-cce853d0-1-nitrile
     RDKit          3D

 21 22  0  0  0  0  0  0  0  0999 V2000
    7.5840   -3.4860   19.9140 C   0  0  0  0  0  0  0  0  0  0  0  0
    7.0330   -2.8840   18.8810 N   0  0  0  0  0  0  0  0  0  0  0  0
    8.9420   -3.1030   20.6340 N   0  0  0  0  0  0  0  0  0  0  0  0
    9.7530   -1.9850   21.6260 C   0  0  0  0  0  0  0  0  0  0  0  0
   11.3610   -1.7930   21.7190 C   0  0  0  0  0  0  0  0  0  0  0  0
   12.3760   -2.4560   21.0620 C   0  0  0  0  0  0  0  0  0  0  0  0
   12.0140   -0.8110   22.5830 C   0  0  0  0  0  0  0  0  0  0  0  0
   11.3250    0.0420   23.4010 C   0  0  0  0  0  0  0  0  0  0  0  0
    9.9830   -0.1020   23.3460 C   0  0  0  0  0  0  0  0  0  0  0  0
    9.1770   -1.0520   22.5220 C   0  0  0  0  0  0  0  0  0  0  0  0
    7.7380   -0.9160   22.7260 C   0  0  0  0  0  0  0  0  0  0  0  0
    7.3190   -0.1740   21.5490 C   0  0  0  0  0  0  0  0  0  0  0  0
    8.0800    0.7010   21.1230 O   0  0  0  0  0  0  0  0  0  0  0  0
    6.1280   -0.5070   21.0140 N   0  0  0  0  0  0  0  0  0  0  0  0
    5.7370    0.2530   20.0080 C   0  0  0  0  0  0  0  0  0  0  0  0
    4.8150    1.2430   20.1380 C   0  0  0  0  0  0  0  0  0  0  0  0
    4.4480    2.0370   18.9660 C   0  0  0  0  0  0  0  0  0  0  0  0
    5.1670    1.6570   17.6870 C   0  0  0  0  0  0  0  0  0  0  0  0
    6.0740    0.6680   17.6070 N   0  0  0  0  0  0  0  0  0  0  0  0
    6.3040    0.0200   18.7610 C   0  0  0  0  0  0  0  0  0  0  0  0
    7.4340   -1.2410   18.6220 Cl  0  0  0  0  0  0  0  0  0  0  0  0
  1  2  2  3
  1  3  1  0
  3  4  1  0
  4  5  2  0
  5  6  1  0
  5  7  1  0
  7  8  2  0
  8  9  1  0
  4 10  1  0
  9 10  2  0
 10 11  1  0
 11 12  1  0
 12 13  2  0
 12 14  1  0
 14 15  1  0
 15 16  2  0
 16 17  1  0
 17 18  2  0
 18 19  1  0
 15 20  1  0
 19 20  2  0
 20 21  1  0
M  END
