AGN-NEW-63f62ae9-1-acrylamide
     RDKit          3D

 27 29  0  0  0  0  0  0  0  0999 V2000
    7.9630   -3.9430   21.0080 C   0  0  0  0  0  0  0  0  0  0  0  0
    7.3150   -2.7260   21.6610 C   0  0  0  0  0  0  0  0  0  0  0  0
    6.1120   -2.3600   20.8650 C   0  0  0  0  0  0  0  0  0  0  0  0
    4.9380   -3.0270   20.8950 O   0  0  0  0  0  0  0  0  0  0  0  0
    6.4880   -1.3130   20.0340 N   0  0  0  0  0  0  0  0  0  0  0  0
    6.3780    0.0800   20.2950 C   0  0  1  0  0  0  0  0  0  0  0  0
    6.4220    0.9410   19.0870 C   0  0  0  0  0  0  0  0  0  0  0  0
    5.6410    2.1350   19.3470 N   0  0  0  0  0  0  0  0  0  0  0  0
    4.3200    2.5910   19.0540 C   0  0  0  0  0  0  0  0  0  0  0  0
    4.1200    3.4960   17.9780 C   0  0  0  0  0  0  0  0  0  0  0  0
    2.8170    3.9290   17.8410 C   0  0  0  0  0  0  0  0  0  0  0  0
    2.7470    4.8340   16.7530 C   0  0  0  0  0  0  0  0  0  0  0  0
    1.7070    3.5740   18.6030 C   0  0  0  0  0  0  0  0  0  0  0  0
    1.7910    2.6380   19.7110 C   0  0  0  0  0  0  0  0  0  0  0  0
    0.4460    2.1630   20.6800 Cl  0  0  0  0  0  0  0  0  0  0  0  0
    3.2420    2.1660   19.8750 C   0  0  0  0  0  0  0  0  0  0  0  0
    5.8700    2.4050   20.7100 C   0  0  0  0  0  0  0  0  0  0  0  0
    6.8890    3.1930   21.3140 O   0  0  0  0  0  0  0  0  0  0  0  0
    5.1060    1.8280   21.2970 N   0  0  0  0  0  0  0  0  0  0  0  0
    4.6130    2.4850   22.5150 C   0  0  0  0  0  0  0  0  0  0  0  0
    4.4860    1.6720   23.8080 C   0  0  0  0  0  0  0  0  0  0  0  0
    4.0550    2.1010   25.0250 N   0  0  0  0  0  0  0  0  0  0  0  0
    3.7180    3.3940   25.0190 C   0  0  0  0  0  0  0  0  0  0  0  0
    3.7910    4.2290   23.9020 C   0  0  0  0  0  0  0  0  0  0  0  0
    4.2240    3.8430   22.6360 C   0  0  0  0  0  0  0  0  0  0  0  0
    4.2480    4.7820   21.5970 C   0  0  0  0  0  0  0  0  0  0  0  0
    5.1180    0.4190   21.0840 C   0  0  0  0  0  0  0  0  0  0  0  0
  1  2  1  0
  2  3  1  0
  3  4  2  0
  3  5  1  0
  6  5  1  6
  6  7  1  0
  7  8  1  0
  8  9  1  0
  9 10  2  0
 10 11  1  0
 11 12  1  0
 11 13  2  0
 13 14  1  0
 14 15  1  0
  9 16  1  0
 14 16  2  0
  8 17  1  0
 17 18  2  0
 17 19  1  0
 19 20  1  0
 20 21  2  0
 21 22  1  0
 22 23  2  0
 23 24  1  0
 20 25  1  0
 24 25  2  0
 25 26  1  0
  6 27  1  0
 19 27  1  0
M  END
