AGN-NEW-cce853d0-3-vinylsulfonamide
     RDKit          3D

 25 26  0  0  0  0  0  0  0  0999 V2000
    7.5960   -4.1950   20.7030 C   0  0  0  0  0  0  0  0  0  0  0  0
    7.1970   -4.4010   22.1610 C   0  0  0  0  0  0  0  0  0  0  0  0
    6.1940   -3.0220   22.6230 S   0  0  0  0  0  0  0  0  0  0  0  0
    4.9000   -3.3180   21.6390 O   0  0  0  0  0  0  0  0  0  0  0  0
    5.9890   -3.1560   24.0560 O   0  0  0  0  0  0  0  0  0  0  0  0
    7.5550   -1.7310   22.4230 N   0  0  0  0  0  0  0  0  0  0  0  0
    8.4960   -0.8120   23.3570 C   0  0  0  0  0  0  0  0  0  0  0  0
    9.4810   -0.0010   24.1490 C   0  0  0  0  0  0  0  0  0  0  0  0
    8.7750    0.7080   25.1510 C   0  0  0  0  0  0  0  0  0  0  0  0
   10.9010    0.2210   24.1270 C   0  0  0  0  0  0  0  0  0  0  0  0
   11.6500   -0.3900   23.2740 C   0  0  0  0  0  0  0  0  0  0  0  0
   11.0050   -1.2560   22.3900 C   0  0  0  0  0  0  0  0  0  0  0  0
   12.0090   -1.9390   21.4710 C   0  0  0  0  0  0  0  0  0  0  0  0
    9.5570   -1.3640   22.4870 C   0  0  0  0  0  0  0  0  0  0  0  0
    8.8220   -2.1280   21.5690 C   0  0  0  0  0  0  0  0  0  0  0  0
    8.1220   -1.0030   21.1120 C   0  0  0  0  0  0  0  0  0  0  0  0
    8.7160    0.0780   21.0500 O   0  0  0  0  0  0  0  0  0  0  0  0
    6.7790   -1.0840   20.8260 N   0  0  0  0  0  0  0  0  0  0  0  0
    6.1760   -0.1610   19.9790 C   0  0  0  0  0  0  0  0  0  0  0  0
    5.3420    1.0710   20.3400 C   0  0  0  0  0  0  0  0  0  0  0  0
    4.8680    1.8320   19.3140 C   0  0  0  0  0  0  0  0  0  0  0  0
    5.2150    1.3900   17.8990 C   0  0  0  0  0  0  0  0  0  0  0  0
    5.9470    0.3030   17.5910 N   0  0  0  0  0  0  0  0  0  0  0  0
    6.3840   -0.4210   18.6500 C   0  0  0  0  0  0  0  0  0  0  0  0
    7.2940   -1.8410   18.3430 Cl  0  0  0  0  0  0  0  0  0  0  0  0
  1  2  1  0
  2  3  1  0
  3  4  2  0
  3  5  2  0
  3  6  1  0
  6  7  1  0
  7  8  2  0
  8  9  1  0
  8 10  1  0
 10 11  2  0
 11 12  1  0
 12 13  1  0
  7 14  1  0
 12 14  2  0
 14 15  1  0
 15 16  1  0
 16 17  2  0
 16 18  1  0
 18 19  1  0
 19 20  2  0
 20 21  1  0
 21 22  2  0
 22 23  1  0
 19 24  1  0
 23 24  2  0
 24 25  1  0
M  END
