AGN-NEW-cce853d0-3-acrylamide
     RDKit          3D

 24 25  0  0  0  0  0  0  0  0999 V2000
    8.3050   -3.3760   20.1780 C   0  0  0  0  0  0  0  0  0  0  0  0
    7.0790   -3.8930   20.8380 C   0  0  0  0  0  0  0  0  0  0  0  0
    6.3040   -2.7440   21.4270 C   0  0  0  0  0  0  0  0  0  0  0  0
    4.9340   -3.0750   21.2280 O   0  0  0  0  0  0  0  0  0  0  0  0
    7.0470   -1.5230   22.1040 N   0  0  0  0  0  0  0  0  0  0  0  0
    8.4660   -0.9950   22.4060 C   0  0  0  0  0  0  0  0  0  0  0  0
    9.7180   -1.5490   22.2550 C   0  0  0  0  0  0  0  0  0  0  0  0
    9.7820   -2.7360   21.7900 C   0  0  0  0  0  0  0  0  0  0  0  0
   10.6710   -0.6730   22.6710 C   0  0  0  0  0  0  0  0  0  0  0  0
   11.7780    0.1160   23.0600 C   0  0  0  0  0  0  0  0  0  0  0  0
   10.3940    0.8370   23.2880 C   0  0  0  0  0  0  0  0  0  0  0  0
   10.5500    2.1930   23.8630 C   0  0  0  0  0  0  0  0  0  0  0  0
    8.8470    0.3400   22.9930 C   0  0  0  0  0  0  0  0  0  0  0  0
    7.8240    1.2050   23.3080 C   0  0  0  0  0  0  0  0  0  0  0  0
    8.1440    2.6500   23.1250 C   0  0  0  0  0  0  0  0  0  0  0  0
    8.0220    2.9960   21.7460 O   0  0  0  0  0  0  0  0  0  0  0  0
    8.5020    3.4800   24.1340 N   0  0  0  0  0  0  0  0  0  0  0  0
    7.4590    4.2040   24.8760 C   0  0  0  0  0  0  0  0  0  0  0  0
    7.4620    5.5440   24.6840 C   0  0  0  0  0  0  0  0  0  0  0  0
    6.4110    6.3590   25.4280 C   0  0  0  0  0  0  0  0  0  0  0  0
    5.4320    5.6010   26.3360 C   0  0  0  0  0  0  0  0  0  0  0  0
    5.5200    4.2250   26.4590 N   0  0  0  0  0  0  0  0  0  0  0  0
    6.5130    3.6120   25.7330 C   0  0  0  0  0  0  0  0  0  0  0  0
    6.4790    1.9090   26.0070 Cl  0  0  0  0  0  0  0  0  0  0  0  0
  1  2  1  0
  2  3  1  0
  3  4  2  0
  3  5  1  0
  5  6  1  0
  6  7  2  0
  7  8  1  0
  7  9  1  0
  9 10  2  0
 10 11  1  0
 11 12  1  0
  6 13  1  0
 11 13  2  0
 13 14  1  0
 14 15  1  0
 15 16  2  0
 15 17  1  0
 17 18  1  0
 18 19  2  0
 19 20  1  0
 20 21  2  0
 21 22  1  0
 18 23  1  0
 22 23  2  0
 23 24  1  0
M  END
