AGN-NEW-9315dc74-2
     RDKit          3D

 26 28  0  0  0  0  0  0  0  0999 V2000
   13.0250    0.5290   23.6560 C   0  0  0  0  0  0  0  0  0  0  0  0
   12.8900   -0.3650   24.7380 O   0  0  0  0  0  0  0  0  0  0  0  0
   11.6140   -0.5440   24.5470 C   0  0  0  0  0  0  0  0  0  0  0  0
   10.4540   -0.3360   25.3690 C   0  0  0  0  0  0  0  0  0  0  0  0
    9.1810   -0.5290   24.9570 N   0  0  0  0  0  0  0  0  0  0  0  0
    8.9770   -0.9600   23.6990 C   0  0  0  0  0  0  0  0  0  0  0  0
    7.6890   -1.1490   23.2440 C   0  0  0  0  0  0  0  0  0  0  0  0
    7.5370    0.0920   21.9860 S   0  0  0  0  0  0  0  0  0  0  0  0
    8.7800    0.3060   21.2800 O   0  0  0  0  0  0  0  0  0  0  0  0
    6.7630    1.1970   22.5210 O   0  0  0  0  0  0  0  0  0  0  0  0
    6.5430   -0.8120   20.9430 N   0  0  0  0  0  0  0  0  0  0  0  0
    6.0650   -0.0060   19.8510 C   0  0  0  0  0  0  0  0  0  0  0  0
    4.9680    0.7880   20.1520 C   0  0  0  0  0  0  0  0  0  0  0  0
    4.2430    0.8860   21.4400 C   0  0  0  0  0  0  0  0  0  0  0  0
    4.5000    1.5870   19.1050 C   0  0  0  0  0  0  0  0  0  0  0  0
    5.2190    1.4960   17.8250 C   0  0  0  0  0  0  0  0  0  0  0  0
    6.2880    0.7010   17.5780 N   0  0  0  0  0  0  0  0  0  0  0  0
    6.6610   -0.0310   18.6290 C   0  0  0  0  0  0  0  0  0  0  0  0
    7.6920   -0.8490   18.4740 F   0  0  0  0  0  0  0  0  0  0  0  0
    9.9850   -1.2100   22.8810 C   0  0  0  0  0  0  0  0  0  0  0  0
   11.3010   -0.9890   23.3500 C   0  0  0  0  0  0  0  0  0  0  0  0
   12.1510   -1.3270   22.3110 C   0  0  0  0  0  0  0  0  0  0  0  0
   11.7460   -2.4310   21.7110 C   0  0  0  0  0  0  0  0  0  0  0  0
   12.6880   -2.6340   20.6280 C   0  0  0  0  0  0  0  0  0  0  0  0
   13.6880   -1.5060   20.6360 C   0  0  0  0  0  0  0  0  0  0  0  0
   13.4690   -0.4390   21.8870 S   0  0  0  0  0  0  0  0  0  0  0  0
  1  2  1  0
  2  3  1  0
  3  4  2  0
  4  5  1  0
  5  6  2  0
  6  7  1  0
  7  8  1  0
  8  9  2  0
  8 10  2  0
  8 11  1  0
 11 12  1  0
 12 13  2  0
 13 14  1  0
 13 15  1  0
 15 16  2  0
 16 17  1  0
 12 18  1  0
 17 18  2  0
 18 19  1  0
  6 20  1  0
  3 21  1  0
 20 21  2  0
 21 22  1  0
 22 23  2  0
 23 24  1  0
 24 25  2  0
 22 26  1  0
 25 26  1  0
M  END
