AGN-NEW-9d245c51-5
     RDKit          3D

 41 44  0  0  0  0  0  0  0  0999 V2000
    7.7540   -1.0030   16.4450 C   0  0  0  0  0  0  0  0  0  0  0  0
    7.5360   -0.9130   17.8850 C   0  0  0  0  0  0  0  0  0  0  0  0
    6.4560   -0.0240   18.4140 C   0  0  0  0  0  0  0  0  0  0  0  0
    5.8150    0.8540   17.6190 N   0  0  0  0  0  0  0  0  0  0  0  0
    4.7690    1.6880   18.1490 C   0  0  0  0  0  0  0  0  0  0  0  0
    4.4340    1.4940   19.6320 C   0  0  0  0  0  0  0  0  0  0  0  0
    3.2970    2.3990   20.0860 C   0  0  0  0  0  0  0  0  0  0  0  0
    5.1170    0.5720   20.4700 C   0  0  0  0  0  0  0  0  0  0  0  0
    4.7730    0.3950   21.9420 C   0  0  0  0  0  0  0  0  0  0  0  0
    5.2420    1.6200   22.7360 C   0  0  0  0  0  0  0  0  0  0  0  0
    4.1800    2.6450   22.7220 N   0  0  0  0  0  0  0  0  0  0  0  0
    2.9330    2.4120   23.3990 C   0  0  0  0  0  0  0  0  0  0  0  0
    2.8630    1.5650   24.3010 O   0  0  0  0  0  0  0  0  0  0  0  0
    1.7370    3.2460   22.9590 C   0  0  0  0  0  0  0  0  0  0  0  0
    0.6160    3.4520   23.7990 N   0  0  0  0  0  0  0  0  0  0  0  0
   -0.6290    2.9620   23.1660 C   0  0  0  0  0  0  0  0  0  0  0  0
   -1.8100    3.3210   23.8240 C   0  0  0  0  0  0  0  0  0  0  0  0
   -1.8580    4.4770   24.5450 O   0  0  0  0  0  0  0  0  0  0  0  0
   -0.6240    4.8800   25.1330 C   0  0  0  0  0  0  0  0  0  0  0  0
    0.4760    4.7210   24.2840 C   0  0  0  0  0  0  0  0  0  0  0  0
    6.1440   -0.1970   19.8920 C   0  0  0  0  0  0  0  0  0  0  0  0
    6.9630   -1.1520   20.5340 N   0  0  0  0  0  0  0  0  0  0  0  0
    8.1540   -0.6040   21.2200 C   0  0  0  0  0  0  0  0  0  0  0  0
    8.4170    0.5830   21.1360 O   0  0  0  0  0  0  0  0  0  0  0  0
    9.0070   -1.4420   21.9720 N   0  0  0  0  0  0  0  0  0  0  0  0
    8.4880   -2.6330   22.6000 C   0  0  0  0  0  0  0  0  0  0  0  0
    8.3200   -2.7160   23.9310 C   0  0  0  0  0  0  0  0  0  0  0  0
    8.2340   -1.6330   24.7390 N   0  0  0  0  0  0  0  0  0  0  0  0
    8.0580   -1.8550   26.0540 C   0  0  0  0  0  0  0  0  0  0  0  0
    7.9630   -3.0770   26.6000 N   0  0  0  0  0  0  0  0  0  0  0  0
    8.0630   -4.0780   25.7340 C   0  0  0  0  0  0  0  0  0  0  0  0
    7.9730   -5.3330   26.3030 O   0  0  0  0  0  0  0  0  0  0  0  0
    9.2330   -5.8540   26.7210 C   0  0  0  0  0  0  0  0  0  0  0  0
    8.2370   -3.9660   24.4200 N   0  0  0  0  0  0  0  0  0  0  0  0
   10.1770   -0.7120   22.4420 C   0  0  0  0  0  0  0  0  0  0  0  0
    9.9130    0.7240   22.9700 C   0  0  0  0  0  0  0  0  0  0  0  0
   11.1010    1.4900   23.4020 C   0  0  0  0  0  0  0  0  0  0  0  0
   10.9810    2.9120   23.8800 C   0  0  0  0  0  0  0  0  0  0  0  0
   12.4560    0.7740   23.3030 C   0  0  0  0  0  0  0  0  0  0  0  0
   12.5070   -0.5130   22.8130 C   0  0  0  0  0  0  0  0  0  0  0  0
   11.4310   -1.2370   22.3940 N   0  0  0  0  0  0  0  0  0  0  0  0
  1  2  2  3
  2  3  1  0
  3  4  2  0
  4  5  1  0
  5  6  2  0
  6  7  1  0
  6  8  1  0
  8  9  1  0
  9 10  1  0
 10 11  1  0
 11 12  1  0
 12 13  2  0
 12 14  1  0
 14 15  1  0
 15 16  1  0
 16 17  1  0
 17 18  1  0
 18 19  1  0
 15 20  1  0
 19 20  1  0
  3 21  1  0
  8 21  2  0
 21 22  1  0
 22 23  1  0
 23 24  2  0
 23 25  1  0
 25 26  1  0
 26 27  1  0
 27 28  2  0
 28 29  1  0
 29 30  2  0
 30 31  1  0
 31 32  1  0
 32 33  1  0
 27 34  1  0
 31 34  2  0
 25 35  1  0
 35 36  2  0
 36 37  1  0
 37 38  1  0
 37 39  2  0
 39 40  1  0
 35 41  1  0
 40 41  2  0
M  END
