AGN-NEW-c7b24fe3-4-nitrile
     RDKit          3D

 19 20  0  0  0  0  0  0  0  0999 V2000
    7.1690   -2.6510   18.5340 C   0  0  0  0  0  0  0  0  0  0  0  0
    6.5100   -2.9590   17.5060 N   0  0  0  0  0  0  0  0  0  0  0  0
    6.6430   -1.2530   18.9260 C   0  0  0  0  0  0  0  0  0  0  0  0
    6.2110   -0.5870   17.8020 N   0  0  0  0  0  0  0  0  0  0  0  0
    5.6770    0.6390   17.9340 C   0  0  0  0  0  0  0  0  0  0  0  0
    5.5110    1.3260   19.1140 C   0  0  0  0  0  0  0  0  0  0  0  0
    5.9700    0.6460   20.2930 C   0  0  0  0  0  0  0  0  0  0  0  0
    6.5290   -0.6330   20.1580 C   0  0  0  0  0  0  0  0  0  0  0  0
    6.9670   -1.2700   21.2770 N   0  0  0  0  0  0  0  0  0  0  0  0
    8.2770   -0.7530   21.6210 C   0  0  0  0  0  0  0  0  0  0  0  0
    8.7180    0.5120   21.3080 O   0  0  0  0  0  0  0  0  0  0  0  0
    9.1450   -1.6920   22.3620 C   0  0  0  0  0  0  0  0  0  0  0  0
   10.3060   -0.8310   22.7210 C   0  0  0  0  0  0  0  0  0  0  0  0
   11.6790   -1.2950   22.5930 C   0  0  0  0  0  0  0  0  0  0  0  0
   12.8510   -0.4890   22.9030 C   0  0  0  0  0  0  0  0  0  0  0  0
   12.6260    0.7940   23.3380 C   0  0  0  0  0  0  0  0  0  0  0  0
   11.2410    1.3820   23.5080 C   0  0  0  0  0  0  0  0  0  0  0  0
   10.8380    2.9800   24.0110 Cl  0  0  0  0  0  0  0  0  0  0  0  0
   10.0990    0.4490   23.1670 C   0  0  0  0  0  0  0  0  0  0  0  0
  1  2  2  3
  1  3  1  0
  3  4  2  0
  4  5  1  0
  5  6  2  0
  6  7  1  0
  3  8  1  0
  7  8  2  0
  8  9  1  0
  9 10  1  0
 10 11  2  0
 10 12  1  0
 12 13  1  0
 13 14  2  0
 14 15  1  0
 15 16  2  0
 16 17  1  0
 17 18  1  0
 13 19  1  0
 17 19  2  0
M  END
