AGN-NEW-cce853d0-2-chloroacetamide
     RDKit          3D

 22 23  0  0  0  0  0  0  0  0999 V2000
    8.2910   -3.6140   20.4160 C   0  0  0  0  0  0  0  0  0  0  0  0
    7.7430   -2.1840   20.1520 C   0  0  0  0  0  0  0  0  0  0  0  0
    7.0050   -2.6470   19.0590 O   0  0  0  0  0  0  0  0  0  0  0  0
    8.6850   -2.1020   21.3900 N   0  0  0  0  0  0  0  0  0  0  0  0
    9.6980   -1.1360   22.0800 C   0  0  0  0  0  0  0  0  0  0  0  0
   11.1730   -1.1580   22.0070 C   0  0  0  0  0  0  0  0  0  0  0  0
   12.1880   -2.2260   21.1470 Cl  0  0  0  0  0  0  0  0  0  0  0  0
   12.0900   -0.2520   22.6850 C   0  0  0  0  0  0  0  0  0  0  0  0
   11.5940    0.7200   23.4810 C   0  0  0  0  0  0  0  0  0  0  0  0
   10.2480    0.7540   23.5750 C   0  0  0  0  0  0  0  0  0  0  0  0
    9.2140   -0.1170   22.9270 C   0  0  0  0  0  0  0  0  0  0  0  0
    7.7840    0.2460   23.3130 C   0  0  0  0  0  0  0  0  0  0  0  0
    7.5640    0.0330   24.7770 C   0  0  0  0  0  0  0  0  0  0  0  0
    6.4190    0.2240   25.1920 O   0  0  0  0  0  0  0  0  0  0  0  0
    8.5520   -0.3350   25.5770 N   0  0  0  0  0  0  0  0  0  0  0  0
    8.3560   -1.6570   25.9070 C   0  0  0  0  0  0  0  0  0  0  0  0
    8.5170   -2.5480   24.8730 C   0  0  0  0  0  0  0  0  0  0  0  0
    8.3330   -3.9960   25.1280 C   0  0  0  0  0  0  0  0  0  0  0  0
    7.9630   -4.4150   26.5500 C   0  0  0  0  0  0  0  0  0  0  0  0
    7.7910   -3.5360   27.6020 N   0  0  0  0  0  0  0  0  0  0  0  0
    8.0150   -2.1100   27.2010 C   0  0  0  0  0  0  0  0  0  0  0  0
    7.8350   -1.1570   28.3860 C   0  0  0  0  0  0  0  0  0  0  0  0
  1  2  1  0
  2  3  2  0
  2  4  1  0
  4  5  1  0
  5  6  2  0
  6  7  1  0
  6  8  1  0
  8  9  2  0
  9 10  1  0
  5 11  1  0
 10 11  2  0
 11 12  1  0
 12 13  1  0
 13 14  2  0
 13 15  1  0
 15 16  1  0
 16 17  2  0
 17 18  1  0
 18 19  2  0
 19 20  1  0
 16 21  1  0
 20 21  2  0
 21 22  1  0
M  END
