AGN-NEW-cce853d0-2-vinylsulfonamide
     RDKit          3D

 24 25  0  0  0  0  0  0  0  0999 V2000
    7.7390   -3.8120   20.5710 C   0  0  0  0  0  0  0  0  0  0  0  0
    6.7140   -2.6940   20.4370 C   0  0  0  0  0  0  0  0  0  0  0  0
    5.8600   -2.3440   21.9590 S   0  0  0  0  0  0  0  0  0  0  0  0
    4.7700   -3.4770   21.9300 O   0  0  0  0  0  0  0  0  0  0  0  0
    5.3000   -1.0170   21.7990 O   0  0  0  0  0  0  0  0  0  0  0  0
    7.0820   -2.1120   23.3350 N   0  0  0  0  0  0  0  0  0  0  0  0
    8.4280   -1.3070   23.6050 C   0  0  0  0  0  0  0  0  0  0  0  0
    8.7410   -0.7860   24.9420 C   0  0  0  0  0  0  0  0  0  0  0  0
    9.3200   -0.0850   26.4180 Cl  0  0  0  0  0  0  0  0  0  0  0  0
   10.1280   -0.1520   24.8470 C   0  0  0  0  0  0  0  0  0  0  0  0
   10.9740   -0.0250   23.7760 C   0  0  0  0  0  0  0  0  0  0  0  0
   10.5130   -0.4950   22.6970 C   0  0  0  0  0  0  0  0  0  0  0  0
    9.2500   -1.1290   22.5700 C   0  0  0  0  0  0  0  0  0  0  0  0
    9.0090   -1.4840   21.2580 C   0  0  0  0  0  0  0  0  0  0  0  0
    8.1420   -0.2780   21.0510 C   0  0  0  0  0  0  0  0  0  0  0  0
    8.6700    0.8310   20.9630 O   0  0  0  0  0  0  0  0  0  0  0  0
    6.8510   -0.3720   21.0700 N   0  0  0  0  0  0  0  0  0  0  0  0
    6.3330    0.2370   19.9880 C   0  0  0  0  0  0  0  0  0  0  0  0
    5.5380    1.3090   20.2600 C   0  0  0  0  0  0  0  0  0  0  0  0
    4.9180    2.0510   19.1560 C   0  0  0  0  0  0  0  0  0  0  0  0
    5.2280    1.5490   17.7560 C   0  0  0  0  0  0  0  0  0  0  0  0
    6.0220    0.4700   17.4700 N   0  0  0  0  0  0  0  0  0  0  0  0
    6.5670   -0.1810   18.6900 C   0  0  0  0  0  0  0  0  0  0  0  0
    7.4340   -1.4070   18.4050 C   0  0  0  0  0  0  0  0  0  0  0  0
  1  2  1  0
  2  3  1  0
  3  4  2  0
  3  5  2  0
  3  6  1  0
  6  7  1  0
  7  8  2  0
  8  9  1  0
  8 10  1  0
 10 11  2  0
 11 12  1  0
  7 13  1  0
 12 13  2  0
 13 14  1  0
 14 15  1  0
 15 16  2  0
 15 17  1  0
 17 18  1  0
 18 19  2  0
 19 20  1  0
 20 21  2  0
 21 22  1  0
 18 23  1  0
 22 23  2  0
 23 24  1  0
M  END
