AGN-NEW-fad6815c-1
     RDKit          3D

 36 39  0  0  0  0  0  0  0  0999 V2000
    9.4040   -5.6210   22.5110 C   0  0  0  0  0  0  0  0  0  0  0  0
    9.3430   -5.8560   23.9450 C   0  0  0  0  0  0  0  0  0  0  0  0
    8.7310   -4.6840   24.6860 C   0  0  0  0  0  0  0  0  0  0  0  0
    8.3870   -4.9360   26.1500 C   0  0  0  0  0  0  0  0  0  0  0  0
    7.7750   -3.7600   26.8810 C   0  0  0  0  0  0  0  0  0  0  0  0
    7.6230   -2.6240   26.1030 N   0  0  0  0  0  0  0  0  0  0  0  0
    7.9840   -2.4860   24.7240 C   0  0  0  0  0  0  0  0  0  0  0  0
    7.7510   -1.1450   23.9850 C   0  0  0  0  0  0  0  0  0  0  0  0
    8.4940   -0.7590   22.8200 N   0  0  0  0  0  0  0  0  0  0  0  0
    8.0060   -0.0610   21.7070 C   0  0  0  0  0  0  0  0  0  0  0  0
    8.5560    0.9400   21.2570 O   0  0  0  0  0  0  0  0  0  0  0  0
    6.8360   -0.5300   21.0850 N   0  0  0  0  0  0  0  0  0  0  0  0
    6.2690    0.0880   19.9740 C   0  0  0  0  0  0  0  0  0  0  0  0
    5.3460    1.1170   20.1710 C   0  0  0  0  0  0  0  0  0  0  0  0
    4.9000    1.5760   21.5510 C   0  0  0  0  0  0  0  0  0  0  0  0
    3.6830    2.2860   21.4690 N   0  0  0  0  0  0  0  0  0  0  0  0
    3.3020    3.1450   22.5990 C   0  0  0  0  0  0  0  0  0  0  0  0
    2.1790    3.9170   22.2740 C   0  0  0  0  0  0  0  0  0  0  0  0
    1.2320    3.4060   21.4160 O   0  0  0  0  0  0  0  0  0  0  0  0
    1.5990    2.3010   20.5750 C   0  0  0  0  0  0  0  0  0  0  0  0
    2.6200    1.4920   21.0820 C   0  0  0  0  0  0  0  0  0  0  0  0
    4.7910    1.7770   19.0640 C   0  0  0  0  0  0  0  0  0  0  0  0
    5.1290    1.4450   17.8120 C   0  0  0  0  0  0  0  0  0  0  0  0
    6.0360    0.4170   17.5600 N   0  0  0  0  0  0  0  0  0  0  0  0
    6.5950   -0.2620   18.6760 C   0  0  0  0  0  0  0  0  0  0  0  0
    7.4510   -1.2580   18.4440 C   0  0  0  0  0  0  0  0  0  0  0  0
    9.8340   -0.4320   23.0170 C   0  0  0  0  0  0  0  0  0  0  0  0
   10.1440    0.2800   23.8720 N   0  0  0  0  0  0  0  0  0  0  0  0
   11.4360    0.6310   24.0850 C   0  0  0  0  0  0  0  0  0  0  0  0
   12.5510    0.2710   23.4280 C   0  0  0  0  0  0  0  0  0  0  0  0
   11.9040   -0.6580   22.3320 C   0  0  0  0  0  0  0  0  0  0  0  0
   12.8970   -1.3230   21.3300 C   0  0  0  0  0  0  0  0  0  0  0  0
   13.4260   -1.6340   22.5400 C   0  0  0  0  0  0  0  0  0  0  0  0
   13.8340   -0.6830   20.3220 C   0  0  0  0  0  0  0  0  0  0  0  0
   10.6640   -0.9530   22.1850 N   0  0  0  0  0  0  0  0  0  0  0  0
    8.5360   -3.5180   24.0120 N   0  0  0  0  0  0  0  0  0  0  0  0
  1  2  3  0
  2  3  1  0
  3  4  2  0
  4  5  1  0
  5  6  2  0
  6  7  1  0
  7  8  1  0
  8  9  1  0
  9 10  1  0
 10 11  2  0
 10 12  1  0
 12 13  1  0
 13 14  1  0
 14 15  1  0
 15 16  1  0
 16 17  1  0
 17 18  1  0
 18 19  1  0
 19 20  1  0
 16 21  1  0
 20 21  1  0
 14 22  2  0
 22 23  1  0
 23 24  2  0
 13 25  2  0
 24 25  1  0
 25 26  1  0
  9 27  1  0
 27 28  2  0
 28 29  1  0
 29 30  2  0
 30 31  1  0
 31 32  1  0
 32 33  1  0
 32 34  1  0
 27 35  1  0
 31 35  2  0
  3 36  1  0
  7 36  2  0
M  END
