AGN-NEW-891393a6-1
     RDKit          3D

 19 20  0  0  0  0  0  0  0  0999 V2000
   10.6200    3.4520   23.7930 C   0  0  0  0  0  0  0  0  0  0  0  0
   11.3160    2.3510   24.3640 O   0  0  0  0  0  0  0  0  0  0  0  0
   11.3180    1.1810   23.7020 C   0  0  0  0  0  0  0  0  0  0  0  0
   12.5070    0.3730   23.1700 C   0  0  0  0  0  0  0  0  0  0  0  0
   12.2020   -0.9280   22.4220 C   0  0  0  0  0  0  0  0  0  0  0  0
   13.3020   -1.9790   21.7320 Cl  0  0  0  0  0  0  0  0  0  0  0  0
   10.8760   -1.2790   22.2860 C   0  0  0  0  0  0  0  0  0  0  0  0
    9.8590   -0.4910   22.8040 C   0  0  0  0  0  0  0  0  0  0  0  0
    8.5600   -0.9030   22.6100 O   0  0  0  0  0  0  0  0  0  0  0  0
    8.0700   -0.1190   21.5980 C   0  0  0  0  0  0  0  0  0  0  0  0
    8.5830    0.9350   21.2690 O   0  0  0  0  0  0  0  0  0  0  0  0
    6.9660   -0.6640   21.0320 N   0  0  0  0  0  0  0  0  0  0  0  0
    6.3560   -0.0120   19.9740 C   0  0  0  0  0  0  0  0  0  0  0  0
    5.1590    0.6810   20.1980 C   0  0  0  0  0  0  0  0  0  0  0  0
    4.5540    1.3610   19.1430 C   0  0  0  0  0  0  0  0  0  0  0  0
    5.1650    1.3230   17.8970 C   0  0  0  0  0  0  0  0  0  0  0  0
    6.3070    0.6530   17.6690 N   0  0  0  0  0  0  0  0  0  0  0  0
    6.8740    0.0040   18.7000 C   0  0  0  0  0  0  0  0  0  0  0  0
   10.0520    0.6930   23.4900 C   0  0  0  0  0  0  0  0  0  0  0  0
  1  2  1  0
  2  3  1  0
  3  4  2  0
  4  5  1  0
  5  6  1  0
  5  7  2  0
  7  8  1  0
  8  9  1  0
  9 10  1  0
 10 11  2  0
 10 12  1  0
 12 13  1  0
 13 14  2  0
 14 15  1  0
 15 16  2  0
 16 17  1  0
 13 18  1  0
 17 18  2  0
  3 19  1  0
  8 19  2  0
M  END
