AGN-NEW-c7b24fe3-3-vinylsulfonamide
     RDKit          3D

 22 23  0  0  0  0  0  0  0  0999 V2000
    7.8760   -3.0190   18.9580 C   0  0  0  0  0  0  0  0  0  0  0  0
    6.4860   -3.4410   19.0210 C   0  0  0  0  0  0  0  0  0  0  0  0
    5.6370   -2.7260   20.2490 S   0  0  0  0  0  0  0  0  0  0  0  0
    4.4010   -2.9670   19.6280 O   0  0  0  0  0  0  0  0  0  0  0  0
    5.9940   -3.3740   21.4970 O   0  0  0  0  0  0  0  0  0  0  0  0
    6.0230   -1.0120   20.3210 C   0  0  0  0  0  0  0  0  0  0  0  0
    5.2640   -0.9130   19.1400 N   0  0  0  0  0  0  0  0  0  0  0  0
    4.9820    0.3010   18.4110 C   0  0  0  0  0  0  0  0  0  0  0  0
    5.4400    1.6450   18.7570 C   0  0  0  0  0  0  0  0  0  0  0  0
    6.1780    1.4870   19.8640 C   0  0  0  0  0  0  0  0  0  0  0  0
    6.0320    0.2150   19.9980 C   0  0  0  0  0  0  0  0  0  0  0  0
    6.8770    0.2930   21.2040 N   0  0  0  0  0  0  0  0  0  0  0  0
    8.1030    0.9210   21.1890 C   0  0  0  0  0  0  0  0  0  0  0  0
    9.2340    1.2740   21.2740 O   0  0  0  0  0  0  0  0  0  0  0  0
    8.5380   -0.4340   21.8690 C   0  0  0  0  0  0  0  0  0  0  0  0
   10.0150   -0.5370   22.1390 C   0  0  0  0  0  0  0  0  0  0  0  0
   11.0540   -1.5660   21.7700 C   0  0  0  0  0  0  0  0  0  0  0  0
   12.4580   -1.7160   21.9810 C   0  0  0  0  0  0  0  0  0  0  0  0
   12.6100   -0.4290   22.7540 C   0  0  0  0  0  0  0  0  0  0  0  0
   11.5920    0.6150   23.1420 C   0  0  0  0  0  0  0  0  0  0  0  0
   12.1130    1.5630   23.8010 C   0  0  0  0  0  0  0  0  0  0  0  0
   10.3100    0.5710   22.8490 C   0  0  0  0  0  0  0  0  0  0  0  0
  1  2  1  0
  3  2  1  0
  3  4  2  0
  3  5  2  0
  3  6  1  0
  6  7  2  0
  7  8  1  0
  8  9  2  0
  9 10  1  0
  6 11  1  0
 10 11  2  0
 11 12  1  0
 12 13  1  0
 13 14  2  0
 13 15  1  0
 15 16  1  0
 16 17  2  0
 17 18  1  0
 18 19  2  0
 19 20  1  0
 20 21  1  0
 16 22  1  0
 20 22  2  0
M  END
