AGN-NEW-891393a6-4
     RDKit          3D

 20 21  0  0  0  0  0  0  0  0999 V2000
   13.2400   -2.0480   21.2140 C   0  0  0  0  0  0  0  0  0  0  0  0
   13.5170   -1.3200   22.4000 O   0  0  0  0  0  0  0  0  0  0  0  0
   12.5100   -0.4890   22.7100 C   0  0  0  0  0  0  0  0  0  0  0  0
   12.5480    0.9910   23.1000 C   0  0  0  0  0  0  0  0  0  0  0  0
   11.2220    1.7200   23.3880 C   0  0  0  0  0  0  0  0  0  0  0  0
   11.0430    3.3840   23.8000 Cl  0  0  0  0  0  0  0  0  0  0  0  0
   10.0770    0.9310   23.2740 C   0  0  0  0  0  0  0  0  0  0  0  0
   10.1180   -0.4230   22.9080 C   0  0  0  0  0  0  0  0  0  0  0  0
    8.7880   -1.1390   22.7900 C   0  0  0  0  0  0  0  0  0  0  0  0
    8.1760   -0.4950   21.2580 S   0  0  0  0  0  0  0  0  0  0  0  0
    8.6500    0.8690   21.1360 O   0  0  0  0  0  0  0  0  0  0  0  0
    8.3310   -1.4630   20.2540 O   0  0  0  0  0  0  0  0  0  0  0  0
    6.5240   -0.3730   21.3030 N   0  0  0  0  0  0  0  0  0  0  0  0
    6.0700    0.2170   20.1250 C   0  0  0  0  0  0  0  0  0  0  0  0
    4.8910    0.9500   20.1640 C   0  0  0  0  0  0  0  0  0  0  0  0
    4.4370    1.5570   19.0060 C   0  0  0  0  0  0  0  0  0  0  0  0
    5.1680    1.4170   17.8370 C   0  0  0  0  0  0  0  0  0  0  0  0
    6.3050    0.7080   17.7620 N   0  0  0  0  0  0  0  0  0  0  0  0
    6.7330    0.1240   18.9010 C   0  0  0  0  0  0  0  0  0  0  0  0
   11.2860   -1.1150   22.6350 C   0  0  0  0  0  0  0  0  0  0  0  0
  1  2  1  0
  2  3  1  0
  3  4  2  0
  4  5  1  0
  5  6  1  0
  5  7  2  0
  7  8  1  0
  8  9  1  0
  9 10  1  0
 10 11  2  0
 10 12  2  0
 10 13  1  0
 13 14  1  0
 14 15  2  0
 15 16  1  0
 16 17  2  0
 17 18  1  0
 14 19  1  0
 18 19  2  0
  3 20  1  0
  8 20  2  0
M  END
