AGN-NEW-95323f67-3
     RDKit          3D

 26 28  0  0  0  0  0  0  0  0999 V2000
   13.5100   -2.3910   25.1090 C   0  0  0  0  0  0  0  0  0  0  0  0
   13.1450   -1.0260   25.2940 O   0  0  0  0  0  0  0  0  0  0  0  0
   11.9370   -0.7000   24.7750 C   0  0  0  0  0  0  0  0  0  0  0  0
   10.7300   -0.3100   25.5440 C   0  0  0  0  0  0  0  0  0  0  0  0
    9.5690   -0.0310   24.9390 N   0  0  0  0  0  0  0  0  0  0  0  0
    9.4310   -0.0960   23.5670 C   0  0  0  0  0  0  0  0  0  0  0  0
    8.0760    0.2150   23.0500 C   0  0  0  0  0  0  0  0  0  0  0  0
    8.1190   -0.0630   21.2950 S   0  0  0  0  0  0  0  0  0  0  0  0
    8.3650    1.2680   20.7550 O   0  0  0  0  0  0  0  0  0  0  0  0
    8.9430   -1.2060   21.0350 O   0  0  0  0  0  0  0  0  0  0  0  0
    6.5450   -0.5630   21.0030 N   0  0  0  0  0  0  0  0  0  0  0  0
    6.0960    0.0940   19.9520 C   0  0  0  0  0  0  0  0  0  0  0  0
    4.9420    1.0340   20.1600 C   0  0  0  0  0  0  0  0  0  0  0  0
    4.3980    1.1090   21.5750 C   0  0  0  0  0  0  0  0  0  0  0  0
    4.5060    1.7270   19.0400 C   0  0  0  0  0  0  0  0  0  0  0  0
    5.1220    1.5430   17.8010 C   0  0  0  0  0  0  0  0  0  0  0  0
    6.1740    0.6900   17.5510 N   0  0  0  0  0  0  0  0  0  0  0  0
    6.6410   -0.0440   18.7120 C   0  0  0  0  0  0  0  0  0  0  0  0
    7.6500   -0.8930   18.5500 F   0  0  0  0  0  0  0  0  0  0  0  0
   10.4860   -0.4470   22.7940 C   0  0  0  0  0  0  0  0  0  0  0  0
   11.6640   -0.7310   23.4550 C   0  0  0  0  0  0  0  0  0  0  0  0
   12.3910   -1.0730   22.4920 C   0  0  0  0  0  0  0  0  0  0  0  0
   13.4120   -0.5010   21.8630 C   0  0  0  0  0  0  0  0  0  0  0  0
   13.7840   -1.3840   20.7550 C   0  0  0  0  0  0  0  0  0  0  0  0
   13.0450   -2.4720   20.7520 C   0  0  0  0  0  0  0  0  0  0  0  0
   11.8710   -2.5310   21.9460 S   0  0  0  0  0  0  0  0  0  0  0  0
  1  2  1  0
  2  3  1  0
  3  4  2  0
  4  5  1  0
  5  6  2  0
  6  7  1  0
  7  8  1  0
  8  9  2  0
  8 10  2  0
  8 11  1  0
 11 12  1  0
 12 13  2  0
 13 14  1  0
 13 15  1  0
 15 16  2  0
 16 17  1  0
 12 18  1  0
 17 18  2  0
 18 19  1  0
  6 20  1  0
  3 21  1  0
 20 21  2  0
 21 22  1  0
 22 23  2  0
 23 24  1  0
 24 25  2  0
 22 26  1  0
 25 26  1  0
M  END
