AGN-NEW-63f62ae9-1-vinylsulfonamide
     RDKit          3D

 28 30  0  0  0  0  0  0  0  0999 V2000
    7.2530   -3.6120   19.7500 C   0  0  0  0  0  0  0  0  0  0  0  0
    5.9510   -4.3460   20.1750 C   0  0  0  0  0  0  0  0  0  0  0  0
    5.8500   -4.8940   21.8510 S   0  0  0  0  0  0  0  0  0  0  0  0
    4.5780   -4.4040   22.3270 O   0  0  0  0  0  0  0  0  0  0  0  0
    6.1220   -6.3070   21.8520 O   0  0  0  0  0  0  0  0  0  0  0  0
    7.1110   -4.1730   22.7130 N   0  0  0  0  0  0  0  0  0  0  0  0
    7.2610   -2.7230   22.7420 C   0  0  1  0  0  0  0  0  0  0  0  0
    8.6800   -2.4060   22.2860 C   0  0  0  0  0  0  0  0  0  0  0  0
    8.8610   -0.9900   22.3340 N   0  0  0  0  0  0  0  0  0  0  0  0
   10.0240   -0.4030   22.7050 C   0  0  0  0  0  0  0  0  0  0  0  0
   11.1860   -1.1200   22.5830 C   0  0  0  0  0  0  0  0  0  0  0  0
   12.3820   -0.5300   22.9490 C   0  0  0  0  0  0  0  0  0  0  0  0
   13.3520   -1.4260   22.7430 C   0  0  0  0  0  0  0  0  0  0  0  0
   12.3410    0.8630   23.4490 C   0  0  0  0  0  0  0  0  0  0  0  0
   11.0550    1.6800   23.5910 C   0  0  0  0  0  0  0  0  0  0  0  0
   10.7860    3.3000   24.1170 Cl  0  0  0  0  0  0  0  0  0  0  0  0
    9.9300    0.8920   23.1730 C   0  0  0  0  0  0  0  0  0  0  0  0
    7.9980   -0.2900   21.4340 C   0  0  0  0  0  0  0  0  0  0  0  0
    8.3240    1.0570   21.0170 O   0  0  0  0  0  0  0  0  0  0  0  0
    7.0520   -0.8380   21.0610 N   0  0  0  0  0  0  0  0  0  0  0  0
    6.3160   -0.0670   20.0520 C   0  0  0  0  0  0  0  0  0  0  0  0
    6.8600    0.0500   18.6970 C   0  0  0  0  0  0  0  0  0  0  0  0
    6.3900    0.7090   17.6140 N   0  0  0  0  0  0  0  0  0  0  0  0
    5.2450    1.3570   17.8080 C   0  0  0  0  0  0  0  0  0  0  0  0
    4.5060    1.3640   19.1130 C   0  0  0  0  0  0  0  0  0  0  0  0
    4.9650    0.6990   20.2340 C   0  0  0  0  0  0  0  0  0  0  0  0
    4.3680    0.6430   21.4780 C   0  0  0  0  0  0  0  0  0  0  0  0
    6.3310   -1.8970   21.8340 C   0  0  0  0  0  0  0  0  0  0  0  0
  1  2  1  0
  2  3  1  0
  3  4  2  0
  3  5  2  0
  3  6  1  0
  7  6  1  6
  7  8  1  0
  8  9  1  0
  9 10  1  0
 10 11  2  0
 11 12  1  0
 12 13  1  0
 12 14  2  0
 14 15  1  0
 15 16  1  0
 10 17  1  0
 15 17  2  0
  9 18  1  0
 18 19  2  0
 18 20  1  0
 20 21  1  0
 21 22  2  0
 22 23  1  0
 23 24  2  0
 24 25  1  0
 21 26  1  0
 25 26  2  0
 26 27  1  0
  7 28  1  0
 20 28  1  0
M  END
