AGN-NEW-817c14da-3
     RDKit          3D

 36 39  0  0  0  0  0  0  0  0999 V2000
    9.5570   -6.4180   23.8370 C   0  0  0  0  0  0  0  0  0  0  0  0
    8.1750   -5.9980   23.8650 C   0  0  0  0  0  0  0  0  0  0  0  0
    8.2580   -4.7150   23.1690 C   0  0  0  0  0  0  0  0  0  0  0  0
    8.9370   -4.8990   21.8520 C   0  0  0  0  0  0  0  0  0  0  0  0
    9.1010   -3.6760   21.0440 C   0  0  0  0  0  0  0  0  0  0  0  0
    8.6100   -2.5610   21.6610 N   0  0  0  0  0  0  0  0  0  0  0  0
    7.9920   -2.5130   22.9330 C   0  0  0  0  0  0  0  0  0  0  0  0
    7.5440   -1.1760   23.4630 C   0  0  0  0  0  0  0  0  0  0  0  0
    8.2410   -0.0750   22.9250 N   0  0  0  0  0  0  0  0  0  0  0  0
    8.0030    0.3990   21.6460 C   0  0  0  0  0  0  0  0  0  0  0  0
    8.6620    1.2870   21.0980 O   0  0  0  0  0  0  0  0  0  0  0  0
    6.9170   -0.2070   21.0060 N   0  0  0  0  0  0  0  0  0  0  0  0
    6.3210    0.3160   19.8900 C   0  0  0  0  0  0  0  0  0  0  0  0
    5.4150    1.3560   20.0650 C   0  0  0  0  0  0  0  0  0  0  0  0
    5.0260    1.9130   21.4250 C   0  0  0  0  0  0  0  0  0  0  0  0
    3.6790    2.3240   21.4080 N   0  0  0  0  0  0  0  0  0  0  0  0
    2.6930    1.5200   22.1430 C   0  0  0  0  0  0  0  0  0  0  0  0
    1.3970    1.9200   21.8020 C   0  0  0  0  0  0  0  0  0  0  0  0
    1.1540    3.2530   21.5650 O   0  0  0  0  0  0  0  0  0  0  0  0
    2.2640    4.0910   21.1930 C   0  0  0  0  0  0  0  0  0  0  0  0
    3.5170    3.6750   21.6580 C   0  0  0  0  0  0  0  0  0  0  0  0
    4.8230    1.9420   18.9490 C   0  0  0  0  0  0  0  0  0  0  0  0
    5.1140    1.5220   17.7180 C   0  0  0  0  0  0  0  0  0  0  0  0
    6.0010    0.4680   17.4930 N   0  0  0  0  0  0  0  0  0  0  0  0
    6.6010   -0.1410   18.6210 C   0  0  0  0  0  0  0  0  0  0  0  0
    7.4430   -1.1620   18.4350 C   0  0  0  0  0  0  0  0  0  0  0  0
    9.5770    0.0210   23.2950 C   0  0  0  0  0  0  0  0  0  0  0  0
    9.9630    1.0610   23.5960 N   0  0  0  0  0  0  0  0  0  0  0  0
   11.2390    1.2940   23.9520 C   0  0  0  0  0  0  0  0  0  0  0  0
   12.2580    0.4560   24.0400 C   0  0  0  0  0  0  0  0  0  0  0  0
   11.5460   -0.8380   23.6130 C   0  0  0  0  0  0  0  0  0  0  0  0
   12.5090   -1.9890   23.6000 C   0  0  0  0  0  0  0  0  0  0  0  0
   13.2960   -2.2170   24.8830 C   0  0  0  0  0  0  0  0  0  0  0  0
   13.2780   -1.4640   22.4200 C   0  0  0  0  0  0  0  0  0  0  0  0
   10.3200   -1.0320   23.2680 N   0  0  0  0  0  0  0  0  0  0  0  0
    7.7840   -3.5900   23.7170 N   0  0  0  0  0  0  0  0  0  0  0  0
  1  2  3  0
  2  3  1  0
  3  4  2  0
  4  5  1  0
  5  6  2  0
  6  7  1  0
  7  8  1  0
  8  9  1  0
  9 10  1  0
 10 11  2  0
 10 12  1  0
 12 13  1  0
 13 14  1  0
 14 15  1  0
 15 16  1  0
 16 17  1  0
 17 18  1  0
 18 19  1  0
 19 20  1  0
 16 21  1  0
 20 21  1  0
 14 22  2  0
 22 23  1  0
 23 24  2  0
 13 25  2  0
 24 25  1  0
 25 26  1  0
  9 27  1  0
 27 28  2  0
 28 29  1  0
 29 30  2  0
 30 31  1  0
 31 32  1  0
 32 33  1  0
 32 34  1  0
 27 35  1  0
 31 35  2  0
  3 36  1  0
  7 36  2  0
M  END
