AGN-NEW-891393a6-2
     RDKit          3D

 18 19  0  0  0  0  0  0  0  0999 V2000
    8.5670    0.8020   21.3300 O   0  0  0  0  0  0  0  0  0  0  0  0
    8.0840   -0.2930   21.5890 C   0  0  0  0  0  0  0  0  0  0  0  0
    6.9890   -0.8230   21.0010 N   0  0  0  0  0  0  0  0  0  0  0  0
    6.3230   -0.0880   20.0310 C   0  0  0  0  0  0  0  0  0  0  0  0
    5.0210    0.6930   20.2620 C   0  0  0  0  0  0  0  0  0  0  0  0
    4.4410    1.4820   19.0630 C   0  0  0  0  0  0  0  0  0  0  0  0
    5.1250    1.4510   17.8250 C   0  0  0  0  0  0  0  0  0  0  0  0
    6.3630    0.6790   17.6600 N   0  0  0  0  0  0  0  0  0  0  0  0
    6.8870   -0.0530   18.7900 C   0  0  0  0  0  0  0  0  0  0  0  0
    8.6270   -1.1340   22.5320 O   0  0  0  0  0  0  0  0  0  0  0  0
    9.9170   -0.7360   22.6950 C   0  0  0  0  0  0  0  0  0  0  0  0
   10.2710    0.4620   23.4780 C   0  0  0  0  0  0  0  0  0  0  0  0
   11.5990    0.7880   23.5490 C   0  0  0  0  0  0  0  0  0  0  0  0
   11.9580    1.8460   24.2100 O   0  0  0  0  0  0  0  0  0  0  0  0
   12.5850    0.0350   22.9280 C   0  0  0  0  0  0  0  0  0  0  0  0
   12.1930   -1.0860   22.2050 C   0  0  0  0  0  0  0  0  0  0  0  0
   13.2600   -2.0850   21.3800 Cl  0  0  0  0  0  0  0  0  0  0  0  0
   10.8860   -1.4720   22.0850 C   0  0  0  0  0  0  0  0  0  0  0  0
  1  2  2  0
  2  3  1  0
  3  4  1  0
  4  5  2  0
  5  6  1  0
  6  7  2  0
  7  8  1  0
  4  9  1  0
  8  9  2  0
  2 10  1  0
 10 11  1  0
 11 12  2  0
 12 13  1  0
 13 14  1  0
 13 15  2  0
 15 16  1  0
 16 17  1  0
 11 18  1  0
 16 18  2  0
M  END
