AGN-NEW-9315dc74-5
     RDKit          3D

 21 22  0  0  0  0  0  0  0  0999 V2000
    3.8890    1.2650   21.3020 C   0  0  0  0  0  0  0  0  0  0  0  0
    4.8670    0.9830   20.1770 C   0  0  0  0  0  0  0  0  0  0  0  0
    4.4940    1.5740   18.8970 C   0  0  0  0  0  0  0  0  0  0  0  0
    5.1890    1.4800   17.7220 C   0  0  0  0  0  0  0  0  0  0  0  0
    6.3600    0.7380   17.7640 N   0  0  0  0  0  0  0  0  0  0  0  0
    6.7050    0.1850   18.9820 C   0  0  0  0  0  0  0  0  0  0  0  0
    6.0310    0.2730   20.1800 C   0  0  0  0  0  0  0  0  0  0  0  0
    6.5380   -0.3420   21.3650 N   0  0  0  0  0  0  0  0  0  0  0  0
    8.2180   -0.2610   21.2910 S   0  0  0  0  0  0  0  0  0  0  0  0
    8.5300    1.1220   20.9300 O   0  0  0  0  0  0  0  0  0  0  0  0
    8.5250   -1.3450   20.4420 O   0  0  0  0  0  0  0  0  0  0  0  0
    8.9070   -0.5740   22.8060 C   0  0  0  0  0  0  0  0  0  0  0  0
   10.0190   -1.3960   23.3060 C   0  0  0  0  0  0  0  0  0  0  0  0
   10.8880   -2.2210   22.6140 N   0  0  0  0  0  0  0  0  0  0  0  0
   12.1830   -1.9130   22.8710 C   0  0  0  0  0  0  0  0  0  0  0  0
   13.1840   -2.6090   22.7430 O   0  0  0  0  0  0  0  0  0  0  0  0
   12.0550   -0.5650   23.3210 C   0  0  0  0  0  0  0  0  0  0  0  0
   10.8000   -0.0830   24.0840 C   0  0  0  0  0  0  0  0  0  0  0  0
   11.2990    1.1530   24.1300 C   0  0  0  0  0  0  0  0  0  0  0  0
   12.5490    1.5380   23.6010 C   0  0  0  0  0  0  0  0  0  0  0  0
   13.3820    0.3490   22.8850 S   0  0  0  0  0  0  0  0  0  0  0  0
  1  2  1  0
  2  3  2  0
  3  4  1  0
  4  5  2  0
  5  6  1  0
  2  7  1  0
  6  7  2  0
  7  8  1  0
  8  9  1  0
  9 10  2  0
  9 11  2  0
  9 12  1  0
 12 13  2  3
 13 14  1  0
 14 15  1  0
 15 16  2  0
 15 17  1  0
 17 18  2  0
 18 19  1  0
 19 20  2  0
 17 21  1  0
 20 21  1  0
M  END
