AGN-NEW-63f62ae9-2-nitrile
     RDKit          3D

 25 27  0  0  0  0  0  0  0  0999 V2000
    6.6480   -3.7740   20.1820 C   0  0  0  0  0  0  0  0  0  0  0  0
    5.8040   -4.7100   20.0380 N   0  0  0  0  0  0  0  0  0  0  0  0
    6.1190   -2.5150   20.3290 N   0  0  0  0  0  0  0  0  0  0  0  0
    6.6670   -1.3500   21.0380 C   0  0  2  0  0  0  0  0  0  0  0  0
    5.5730   -0.4420   21.5290 C   0  0  0  0  0  0  0  0  0  0  0  0
    4.9970    0.4010   20.4620 N   0  0  0  0  0  0  0  0  0  0  0  0
    4.0670    1.4390   20.8550 C   0  0  0  0  0  0  0  0  0  0  0  0
    3.0720    1.8830   19.9260 C   0  0  0  0  0  0  0  0  0  0  0  0
    2.1940    2.8790   20.3350 C   0  0  0  0  0  0  0  0  0  0  0  0
    1.2430    3.2980   19.4340 C   0  0  0  0  0  0  0  0  0  0  0  0
    2.2200    3.4760   21.5970 C   0  0  0  0  0  0  0  0  0  0  0  0
    3.2500    3.0490   22.6240 C   0  0  0  0  0  0  0  0  0  0  0  0
    3.3330    3.5790   23.8590 F   0  0  0  0  0  0  0  0  0  0  0  0
    4.1560    1.9900   22.1410 C   0  0  0  0  0  0  0  0  0  0  0  0
    5.1090    0.0120   19.1890 C   0  0  0  0  0  0  0  0  0  0  0  0
    4.2560    0.1750   18.3370 O   0  0  0  0  0  0  0  0  0  0  0  0
    6.3720   -0.6260   18.9070 N   0  0  0  0  0  0  0  0  0  0  0  0
    6.9190   -0.3270   17.7430 C   0  0  0  0  0  0  0  0  0  0  0  0
    7.9500   -1.1190   17.1250 C   0  0  0  0  0  0  0  0  0  0  0  0
    8.6050   -0.9690   16.0290 N   0  0  0  0  0  0  0  0  0  0  0  0
    8.2380    0.1510   15.3700 C   0  0  0  0  0  0  0  0  0  0  0  0
    7.2790    1.0180   15.7860 C   0  0  0  0  0  0  0  0  0  0  0  0
    6.5560    0.7350   17.0770 C   0  0  0  0  0  0  0  0  0  0  0  0
    5.4380    1.6780   17.5600 C   0  0  0  0  0  0  0  0  0  0  0  0
    7.3260   -0.5600   19.9840 C   0  0  0  0  0  0  0  0  0  0  0  0
  1  2  2  3
  1  3  1  0
  4  3  1  6
  4  5  1  0
  5  6  1  0
  6  7  1  0
  7  8  2  0
  8  9  1  0
  9 10  1  0
  9 11  2  0
 11 12  1  0
 12 13  1  0
  7 14  1  0
 12 14  2  0
  6 15  1  0
 15 16  2  0
 15 17  1  0
 17 18  1  0
 18 19  2  0
 19 20  1  0
 20 21  2  0
 21 22  1  0
 18 23  1  0
 22 23  2  0
 23 24  1  0
  4 25  1  0
 17 25  1  0
M  END
