AGN-NEW-c7b24fe3-1
     RDKit          3D

 19 20  0  0  0  0  0  0  0  0999 V2000
    7.4030   -1.9260   17.3830 C   0  0  0  0  0  0  0  0  0  0  0  0
    7.5150   -1.0970   18.6200 C   0  0  0  0  0  0  0  0  0  0  0  0
    6.5370   -0.0230   18.7680 C   0  0  0  0  0  0  0  0  0  0  0  0
    5.9730    0.5780   17.7180 N   0  0  0  0  0  0  0  0  0  0  0  0
    5.0710    1.5660   17.9040 C   0  0  0  0  0  0  0  0  0  0  0  0
    4.6670    2.0100   19.1940 C   0  0  0  0  0  0  0  0  0  0  0  0
    5.2950    1.3490   20.2200 C   0  0  0  0  0  0  0  0  0  0  0  0
    6.2120    0.3610   20.0400 C   0  0  0  0  0  0  0  0  0  0  0  0
    6.8110   -0.2340   21.2150 N   0  0  0  0  0  0  0  0  0  0  0  0
    8.0870    0.1440   21.6020 C   0  0  0  0  0  0  0  0  0  0  0  0
    8.7500    1.1030   21.1490 O   0  0  0  0  0  0  0  0  0  0  0  0
    8.6460   -0.7480   22.6940 C   0  0  0  0  0  0  0  0  0  0  0  0
   10.0270   -0.3510   22.9640 C   0  0  0  0  0  0  0  0  0  0  0  0
   10.5830    0.7080   23.8350 C   0  0  0  0  0  0  0  0  0  0  0  0
   11.9230    0.8960   23.9130 C   0  0  0  0  0  0  0  0  0  0  0  0
   12.7950    0.0270   23.1220 C   0  0  0  0  0  0  0  0  0  0  0  0
   12.2640   -1.0720   22.2210 C   0  0  0  0  0  0  0  0  0  0  0  0
   13.2110   -2.1070   21.2800 Cl  0  0  0  0  0  0  0  0  0  0  0  0
   10.9400   -1.2510   22.1460 C   0  0  0  0  0  0  0  0  0  0  0  0
  1  2  2  3
  2  3  1  0
  3  4  2  0
  4  5  1  0
  5  6  2  0
  6  7  1  0
  3  8  1  0
  7  8  2  0
  8  9  1  0
  9 10  1  0
 10 11  2  0
 10 12  1  0
 12 13  1  0
 13 14  2  0
 14 15  1  0
 15 16  2  0
 16 17  1  0
 17 18  1  0
 13 19  1  0
 17 19  2  0
M  END
