AGN-NEW-c7b24fe3-3-nitrile
     RDKit          3D

 19 20  0  0  0  0  0  0  0  0999 V2000
    7.2180   -2.6260   18.5040 C   0  0  0  0  0  0  0  0  0  0  0  0
    6.5170   -2.9680   17.5210 N   0  0  0  0  0  0  0  0  0  0  0  0
    6.6840   -1.2310   18.8890 C   0  0  0  0  0  0  0  0  0  0  0  0
    6.2670   -0.5690   17.7600 N   0  0  0  0  0  0  0  0  0  0  0  0
    5.7250    0.6550   17.8900 C   0  0  0  0  0  0  0  0  0  0  0  0
    5.5420    1.3410   19.0680 C   0  0  0  0  0  0  0  0  0  0  0  0
    5.9890    0.6650   20.2520 C   0  0  0  0  0  0  0  0  0  0  0  0
    6.5540   -0.6100   20.1200 C   0  0  0  0  0  0  0  0  0  0  0  0
    6.9820   -1.2390   21.2450 N   0  0  0  0  0  0  0  0  0  0  0  0
    8.2900   -0.7200   21.5850 C   0  0  0  0  0  0  0  0  0  0  0  0
    8.7040    0.5670   21.3280 O   0  0  0  0  0  0  0  0  0  0  0  0
    9.1930   -1.6860   22.2440 C   0  0  0  0  0  0  0  0  0  0  0  0
   10.3820   -0.8610   22.5830 C   0  0  0  0  0  0  0  0  0  0  0  0
   11.7430   -1.3470   22.3860 C   0  0  0  0  0  0  0  0  0  0  0  0
   12.9400   -0.5710   22.6880 C   0  0  0  0  0  0  0  0  0  0  0  0
   12.7210    0.6850   23.1720 C   0  0  0  0  0  0  0  0  0  0  0  0
   11.3070    1.1850   23.3640 C   0  0  0  0  0  0  0  0  0  0  0  0
   11.0420    2.6010   23.8560 C   0  0  0  0  0  0  0  0  0  0  0  0
   10.2180    0.4030   23.0770 C   0  0  0  0  0  0  0  0  0  0  0  0
  1  2  2  3
  1  3  1  0
  3  4  2  0
  4  5  1  0
  5  6  2  0
  6  7  1  0
  3  8  1  0
  7  8  2  0
  8  9  1  0
  9 10  1  0
 10 11  2  0
 10 12  1  0
 12 13  1  0
 13 14  2  0
 14 15  1  0
 15 16  2  0
 16 17  1  0
 17 18  1  0
 13 19  1  0
 17 19  2  0
M  END
