AGN-NEW-c7b24fe3-4-chloroacetamide
     RDKit          3D

 20 21  0  0  0  0  0  0  0  0999 V2000
    7.5180   -2.7030   18.2170 C   0  0  0  0  0  0  0  0  0  0  0  0
    6.2050   -2.3350   18.7390 C   0  0  0  0  0  0  0  0  0  0  0  0
    5.3640   -3.2100   19.0200 O   0  0  0  0  0  0  0  0  0  0  0  0
    5.9710   -0.8470   18.8990 C   0  0  0  0  0  0  0  0  0  0  0  0
    5.4520   -0.1940   17.8430 N   0  0  0  0  0  0  0  0  0  0  0  0
    5.1800    1.1270   17.9250 C   0  0  0  0  0  0  0  0  0  0  0  0
    5.4410    1.8490   19.1250 C   0  0  0  0  0  0  0  0  0  0  0  0
    6.0020    1.1650   20.1900 C   0  0  0  0  0  0  0  0  0  0  0  0
    6.2700   -0.1730   20.0710 C   0  0  0  0  0  0  0  0  0  0  0  0
    6.8820   -0.7820   21.2440 N   0  0  0  0  0  0  0  0  0  0  0  0
    8.1930   -0.3920   21.5220 C   0  0  0  0  0  0  0  0  0  0  0  0
    8.6600    0.7060   21.2390 O   0  0  0  0  0  0  0  0  0  0  0  0
    9.0510   -1.4390   22.2220 C   0  0  0  0  0  0  0  0  0  0  0  0
   10.3810   -0.8460   22.5040 C   0  0  0  0  0  0  0  0  0  0  0  0
   11.7720   -1.3560   22.3840 C   0  0  0  0  0  0  0  0  0  0  0  0
   12.8480   -0.5900   22.6900 C   0  0  0  0  0  0  0  0  0  0  0  0
   12.6520    0.7970   23.1590 C   0  0  0  0  0  0  0  0  0  0  0  0
   11.2520    1.3940   23.3160 C   0  0  0  0  0  0  0  0  0  0  0  0
   10.9250    3.0010   23.8320 Cl  0  0  0  0  0  0  0  0  0  0  0  0
   10.1950    0.5950   23.0060 C   0  0  0  0  0  0  0  0  0  0  0  0
  1  2  1  0
  2  3  2  0
  2  4  1  0
  4  5  2  0
  5  6  1  0
  6  7  2  0
  7  8  1  0
  4  9  1  0
  8  9  2  0
  9 10  1  0
 10 11  1  0
 11 12  2  0
 11 13  1  0
 13 14  1  0
 14 15  2  0
 15 16  1  0
 16 17  2  0
 17 18  1  0
 18 19  1  0
 14 20  1  0
 18 20  2  0
M  END
