AGN-NEW-95323f67-4
     RDKit          3D

 26 28  0  0  0  0  0  0  0  0999 V2000
   13.2190   -1.7300   21.5070 C   0  0  0  0  0  0  0  0  0  0  0  0
   13.2320   -0.8360   22.6220 O   0  0  0  0  0  0  0  0  0  0  0  0
   12.0050   -0.7200   23.1760 C   0  0  0  0  0  0  0  0  0  0  0  0
   11.5730    0.0020   24.4440 C   0  0  0  0  0  0  0  0  0  0  0  0
   10.0770   -0.0500   24.8210 C   0  0  0  0  0  0  0  0  0  0  0  0
    9.2230    0.5240   25.9770 C   0  0  0  0  0  0  0  0  0  0  0  0
    9.4300    0.3120   27.4590 C   0  0  0  0  0  0  0  0  0  0  0  0
    8.3560    1.0280   28.2320 C   0  0  0  0  0  0  0  0  0  0  0  0
    7.3950    1.7420   27.3070 C   0  0  0  0  0  0  0  0  0  0  0  0
    7.7450    1.5660   25.6370 S   0  0  0  0  0  0  0  0  0  0  0  0
    9.1680   -0.7980   23.9240 C   0  0  0  0  0  0  0  0  0  0  0  0
    9.6120   -1.4280   22.8000 C   0  0  0  0  0  0  0  0  0  0  0  0
    8.5900   -2.1300   21.9960 C   0  0  0  0  0  0  0  0  0  0  0  0
    7.9770   -0.8050   20.9540 S   0  0  0  0  0  0  0  0  0  0  0  0
    8.5090    0.4760   21.3700 O   0  0  0  0  0  0  0  0  0  0  0  0
    8.0240   -1.2340   19.5950 O   0  0  0  0  0  0  0  0  0  0  0  0
    6.2890   -0.8090   21.1440 N   0  0  0  0  0  0  0  0  0  0  0  0
    5.8010    0.0540   20.0460 C   0  0  0  0  0  0  0  0  0  0  0  0
    4.7640    0.9600   20.1590 C   0  0  0  0  0  0  0  0  0  0  0  0
    4.1430    1.0240   21.4070 C   0  0  0  0  0  0  0  0  0  0  0  0
    4.3880    1.7440   19.0830 C   0  0  0  0  0  0  0  0  0  0  0  0
    5.0170    1.7360   17.6990 C   0  0  0  0  0  0  0  0  0  0  0  0
    6.0090    0.8160   17.6910 N   0  0  0  0  0  0  0  0  0  0  0  0
    6.4020   -0.0070   18.8020 C   0  0  0  0  0  0  0  0  0  0  0  0
    7.4070   -0.8620   18.5840 F   0  0  0  0  0  0  0  0  0  0  0  0
   10.9350   -1.4030   22.4320 N   0  0  0  0  0  0  0  0  0  0  0  0
  1  2  1  0
  2  3  1  0
  3  4  2  0
  4  5  1  0
  5  6  1  0
  6  7  2  0
  7  8  1  0
  8  9  2  0
  6 10  1  0
  9 10  1  0
  5 11  2  0
 11 12  1  0
 12 13  1  0
 13 14  1  0
 14 15  2  0
 14 16  2  0
 14 17  1  0
 17 18  1  0
 18 19  2  0
 19 20  1  0
 19 21  1  0
 21 22  2  0
 22 23  1  0
 18 24  1  0
 23 24  2  0
 24 25  1  0
  3 26  1  0
 12 26  2  0
M  END
