AGN-NEW-c197b967-2
     RDKit          3D

 36 39  0  0  0  0  0  0  0  0999 V2000
    9.1550   -5.3390   21.9360 C   0  0  0  0  0  0  0  0  0  0  0  0
    9.5380   -5.9380   23.2710 C   0  0  0  0  0  0  0  0  0  0  0  0
    8.9480   -5.0270   24.2800 C   0  0  0  0  0  0  0  0  0  0  0  0
    8.8670   -5.2770   25.6300 C   0  0  0  0  0  0  0  0  0  0  0  0
    8.2520   -4.2790   26.4600 C   0  0  0  0  0  0  0  0  0  0  0  0
    7.8040   -3.1410   25.7760 C   0  0  0  0  0  0  0  0  0  0  0  0
    7.9340   -2.9830   24.4060 C   0  0  0  0  0  0  0  0  0  0  0  0
    7.4750   -1.8060   23.5950 C   0  0  0  0  0  0  0  0  0  0  0  0
    8.3960   -1.3170   22.5320 N   0  0  0  0  0  0  0  0  0  0  0  0
    7.8710   -0.5260   21.5210 C   0  0  0  0  0  0  0  0  0  0  0  0
    8.4410    0.4610   21.0460 O   0  0  0  0  0  0  0  0  0  0  0  0
    6.5440   -0.9360   21.0590 N   0  0  0  0  0  0  0  0  0  0  0  0
    6.1150   -0.1220   19.9220 C   0  0  0  0  0  0  0  0  0  0  0  0
    5.2100    1.0210   20.2150 C   0  0  0  0  0  0  0  0  0  0  0  0
    4.8210    1.2610   21.5130 C   0  0  0  0  0  0  0  0  0  0  0  0
    3.6980    2.0450   21.4510 N   0  0  0  0  0  0  0  0  0  0  0  0
    3.7600    3.3690   21.8540 C   0  0  0  0  0  0  0  0  0  0  0  0
    3.0680    3.7180   23.1890 C   0  0  0  0  0  0  0  0  0  0  0  0
    2.6760    2.7150   23.7900 O   0  0  0  0  0  0  0  0  0  0  0  0
    1.7770    1.9050   23.0150 C   0  0  0  0  0  0  0  0  0  0  0  0
    2.4890    1.3040   21.7970 C   0  0  0  0  0  0  0  0  0  0  0  0
    4.7910    1.8090   19.1480 C   0  0  0  0  0  0  0  0  0  0  0  0
    5.3220    1.4010   17.7940 C   0  0  0  0  0  0  0  0  0  0  0  0
    6.1210    0.3920   17.5400 N   0  0  0  0  0  0  0  0  0  0  0  0
    6.5170   -0.3770   18.6020 C   0  0  0  0  0  0  0  0  0  0  0  0
    7.3550   -1.4600   18.3040 C   0  0  0  0  0  0  0  0  0  0  0  0
    9.5840   -0.7960   23.0530 C   0  0  0  0  0  0  0  0  0  0  0  0
   10.8150   -0.9850   22.4850 C   0  0  0  0  0  0  0  0  0  0  0  0
   11.8510   -0.3860   23.1170 C   0  0  0  0  0  0  0  0  0  0  0  0
   13.0840   -0.4350   22.7240 N   0  0  0  0  0  0  0  0  0  0  0  0
   13.3270   -1.2720   21.5780 C   0  0  0  0  0  0  0  0  0  0  0  0
   13.4300    0.9370   22.7600 C   0  0  0  0  0  0  0  0  0  0  0  0
   11.6580    0.3500   24.2440 C   0  0  0  0  0  0  0  0  0  0  0  0
   10.4200    0.4680   24.7240 C   0  0  0  0  0  0  0  0  0  0  0  0
    9.3890   -0.0790   24.1590 N   0  0  0  0  0  0  0  0  0  0  0  0
    8.5060   -3.9310   23.6650 N   0  0  0  0  0  0  0  0  0  0  0  0
  1  2  3  0
  2  3  1  0
  3  4  2  0
  4  5  1  0
  5  6  2  0
  6  7  1  0
  7  8  1  0
  8  9  1  0
  9 10  1  0
 10 11  2  0
 10 12  1  0
 12 13  1  0
 13 14  1  0
 14 15  1  0
 15 16  1  0
 16 17  1  0
 17 18  1  0
 18 19  1  0
 19 20  1  0
 16 21  1  0
 20 21  1  0
 14 22  2  0
 22 23  1  0
 23 24  2  0
 13 25  2  0
 24 25  1  0
 25 26  1  0
  9 27  1  0
 27 28  2  0
 28 29  1  0
 29 30  1  0
 30 31  1  0
 30 32  1  0
 29 33  2  0
 33 34  1  0
 27 35  1  0
 34 35  2  0
  3 36  1  0
  7 36  2  0
M  END
