AGN-NEW-891393a6-9-acrylamide
     RDKit          3D

 22 23  0  0  0  0  0  0  0  0999 V2000
    6.3800   -5.4530   20.1330 C   0  0  0  0  0  0  0  0  0  0  0  0
    6.6280   -5.0680   21.5860 C   0  0  0  0  0  0  0  0  0  0  0  0
    6.4790   -3.6110   21.4410 C   0  0  0  0  0  0  0  0  0  0  0  0
    5.0990   -3.3770   21.2500 O   0  0  0  0  0  0  0  0  0  0  0  0
    8.0760   -2.9110   21.4440 C   0  0  0  0  0  0  0  0  0  0  0  0
    8.8950   -1.7300   22.1390 C   0  0  0  0  0  0  0  0  0  0  0  0
   10.3970   -1.3350   22.6580 C   0  0  0  0  0  0  0  0  0  0  0  0
   10.6720   -2.5990   22.2120 C   0  0  0  0  0  0  0  0  0  0  0  0
    9.4960   -1.6640   22.3150 C   0  0  0  0  0  0  0  0  0  0  0  0
    9.6010   -0.2810   22.9090 C   0  0  0  0  0  0  0  0  0  0  0  0
    8.7150    1.1610   23.2590 S   0  0  0  0  0  0  0  0  0  0  0  0
    7.6770    0.8680   24.2260 O   0  0  0  0  0  0  0  0  0  0  0  0
    9.6440    2.2660   23.3480 O   0  0  0  0  0  0  0  0  0  0  0  0
    8.1760    0.8610   21.6510 C   0  0  0  0  0  0  0  0  0  0  0  0
    7.0170    0.1620   21.3100 C   0  0  0  0  0  0  0  0  0  0  0  0
    6.8750   -0.0340   19.9620 C   0  0  0  0  0  0  0  0  0  0  0  0
    5.9970    1.0690   20.2730 C   0  0  0  0  0  0  0  0  0  0  0  0
    5.1340    1.8240   19.3060 C   0  0  0  0  0  0  0  0  0  0  0  0
    5.1500    1.4850   18.0190 C   0  0  0  0  0  0  0  0  0  0  0  0
    5.9080    0.5030   17.6520 N   0  0  0  0  0  0  0  0  0  0  0  0
    6.6380   -0.1250   18.5810 C   0  0  0  0  0  0  0  0  0  0  0  0
    8.4190   -0.6100   22.4820 C   0  0  0  0  0  0  0  0  0  0  0  0
  1  2  1  0
  2  3  1  0
  3  4  2  0
  3  5  1  0
  5  6  1  0
  6  7  2  0
  7  8  1  0
  8  9  2  0
  9 10  1  0
 10 11  1  0
 11 12  2  0
 11 13  2  0
 11 14  1  0
 14 15  2  3
 15 16  1  0
 16 17  2  0
 17 18  1  0
 18 19  2  0
 19 20  1  0
 16 21  1  0
 20 21  2  0
  6 22  1  0
 10 22  2  0
M  END
