AGN-NEW-63f62ae9-1-nitrile
     RDKit          3D

 25 27  0  0  0  0  0  0  0  0999 V2000
    6.9880   -3.3440   19.8810 C   0  0  0  0  0  0  0  0  0  0  0  0
    6.6000   -2.8550   18.8040 N   0  0  0  0  0  0  0  0  0  0  0  0
    6.5750   -2.7060   21.0600 N   0  0  0  0  0  0  0  0  0  0  0  0
    6.7170   -1.2000   21.1010 C   0  0  2  0  0  0  0  0  0  0  0  0
    5.4740   -0.4160   21.5270 C   0  0  0  0  0  0  0  0  0  0  0  0
    5.1970    0.5620   20.4740 N   0  0  0  0  0  0  0  0  0  0  0  0
    4.3490    1.6480   20.7230 C   0  0  0  0  0  0  0  0  0  0  0  0
    2.9550    1.6520   20.3700 C   0  0  0  0  0  0  0  0  0  0  0  0
    2.1000    2.6970   20.6100 C   0  0  0  0  0  0  0  0  0  0  0  0
    0.7930    2.4010   20.1590 C   0  0  0  0  0  0  0  0  0  0  0  0
    2.4840    3.8910   21.2250 C   0  0  0  0  0  0  0  0  0  0  0  0
    3.8210    4.1410   21.6690 C   0  0  0  0  0  0  0  0  0  0  0  0
    4.3000    5.6050   22.4310 Cl  0  0  0  0  0  0  0  0  0  0  0  0
    4.7850    2.9600   21.3990 C   0  0  0  0  0  0  0  0  0  0  0  0
    5.2290   -0.0580   19.1580 C   0  0  0  0  0  0  0  0  0  0  0  0
    4.3540    0.1050   18.3300 O   0  0  0  0  0  0  0  0  0  0  0  0
    6.1650   -0.7330   18.9550 N   0  0  0  0  0  0  0  0  0  0  0  0
    6.8060   -0.4130   17.7470 C   0  0  0  0  0  0  0  0  0  0  0  0
    7.8230   -1.3180   17.2030 C   0  0  0  0  0  0  0  0  0  0  0  0
    8.5610   -1.1800   16.1020 N   0  0  0  0  0  0  0  0  0  0  0  0
    8.3430   -0.0660   15.4370 C   0  0  0  0  0  0  0  0  0  0  0  0
    7.3410    0.9510   15.8470 C   0  0  0  0  0  0  0  0  0  0  0  0
    6.5130    0.7380   17.0840 C   0  0  0  0  0  0  0  0  0  0  0  0
    5.5230    1.6260   17.5300 C   0  0  0  0  0  0  0  0  0  0  0  0
    7.1770   -0.7930   19.8850 C   0  0  0  0  0  0  0  0  0  0  0  0
  1  2  2  3
  1  3  1  0
  4  3  1  6
  4  5  1  0
  5  6  1  0
  6  7  1  0
  7  8  2  0
  8  9  1  0
  9 10  1  0
  9 11  2  0
 11 12  1  0
 12 13  1  0
  7 14  1  0
 12 14  2  0
  6 15  1  0
 15 16  2  0
 15 17  1  0
 17 18  1  0
 18 19  2  0
 19 20  1  0
 20 21  2  0
 21 22  1  0
 18 23  1  0
 22 23  2  0
 23 24  1  0
  4 25  1  0
 17 25  1  0
M  END
