AGN-NEW-63f62ae9-2-chloroacetamide
     RDKit          3D

 26 28  0  0  0  0  0  0  0  0999 V2000
    7.4810   -4.3970   20.7150 C   0  0  0  0  0  0  0  0  0  0  0  0
    6.0180   -4.0380   20.6920 C   0  0  0  0  0  0  0  0  0  0  0  0
    5.2080   -4.5350   19.8980 O   0  0  0  0  0  0  0  0  0  0  0  0
    5.5940   -3.0520   21.5900 N   0  0  0  0  0  0  0  0  0  0  0  0
    5.4240   -1.6880   21.1060 C   0  0  2  0  0  0  0  0  0  0  0  0
    6.7450   -1.0400   20.8150 C   0  0  0  0  0  0  0  0  0  0  0  0
    6.4200   -0.0190   19.8600 N   0  0  0  0  0  0  0  0  0  0  0  0
    6.7110   -0.2720   18.5210 C   0  0  0  0  0  0  0  0  0  0  0  0
    6.9810    0.8100   17.7630 C   0  0  0  0  0  0  0  0  0  0  0  0
    7.3020    0.6290   16.4160 C   0  0  0  0  0  0  0  0  0  0  0  0
    7.5180    1.7060   15.7710 C   0  0  0  0  0  0  0  0  0  0  0  0
    7.3680   -0.6370   15.8110 C   0  0  0  0  0  0  0  0  0  0  0  0
    7.0830   -1.8410   16.5670 C   0  0  0  0  0  0  0  0  0  0  0  0
    7.1510   -2.9740   15.9420 F   0  0  0  0  0  0  0  0  0  0  0  0
    6.7350   -1.5580   17.9770 C   0  0  0  0  0  0  0  0  0  0  0  0
    5.4750    0.9870   20.3710 C   0  0  0  0  0  0  0  0  0  0  0  0
    5.5100    2.1540   20.0020 O   0  0  0  0  0  0  0  0  0  0  0  0
    4.6750    0.6370   21.1710 N   0  0  0  0  0  0  0  0  0  0  0  0
    3.3420    1.2730   21.1320 C   0  0  0  0  0  0  0  0  0  0  0  0
    2.8750    2.0420   19.9550 C   0  0  0  0  0  0  0  0  0  0  0  0
    1.6970    2.6920   19.7380 N   0  0  0  0  0  0  0  0  0  0  0  0
    0.7950    2.6350   20.7260 C   0  0  0  0  0  0  0  0  0  0  0  0
    1.0750    1.8970   22.0240 C   0  0  0  0  0  0  0  0  0  0  0  0
    2.2700    1.2340   22.2750 C   0  0  0  0  0  0  0  0  0  0  0  0
    2.6180    0.5390   23.4360 C   0  0  0  0  0  0  0  0  0  0  0  0
    4.7830   -0.6260   21.9690 C   0  0  0  0  0  0  0  0  0  0  0  0
  1  2  1  0
  2  3  2  0
  2  4  1  0
  5  4  1  1
  5  6  1  0
  6  7  1  0
  7  8  1  0
  8  9  2  0
  9 10  1  0
 10 11  1  0
 10 12  2  0
 12 13  1  0
 13 14  1  0
  8 15  1  0
 13 15  2  0
  7 16  1  0
 16 17  2  0
 16 18  1  0
 18 19  1  0
 19 20  2  0
 20 21  1  0
 21 22  2  0
 22 23  1  0
 19 24  1  0
 23 24  2  0
 24 25  1  0
  5 26  1  0
 18 26  1  0
M  END
