AGN-NEW-63f62ae9-1-chloroacetamide
     RDKit          3D

 26 28  0  0  0  0  0  0  0  0999 V2000
    7.8470   -3.5630   20.4660 C   0  0  0  0  0  0  0  0  0  0  0  0
    6.3530   -3.2980   20.4800 C   0  0  0  0  0  0  0  0  0  0  0  0
    5.5690   -3.8050   19.6350 O   0  0  0  0  0  0  0  0  0  0  0  0
    5.9070   -2.4550   21.5290 N   0  0  0  0  0  0  0  0  0  0  0  0
    6.4520   -1.1750   21.7850 C   0  0  1  0  0  0  0  0  0  0  0  0
    6.8890   -0.4940   20.7130 C   0  0  0  0  0  0  0  0  0  0  0  0
    5.7700   -0.3740   19.8010 N   0  0  0  0  0  0  0  0  0  0  0  0
    6.3250   -0.2770   18.5170 C   0  0  0  0  0  0  0  0  0  0  0  0
    6.4810   -1.4580   17.8720 C   0  0  0  0  0  0  0  0  0  0  0  0
    7.0270   -1.5180   16.6130 C   0  0  0  0  0  0  0  0  0  0  0  0
    7.2480   -2.6070   15.8210 C   0  0  0  0  0  0  0  0  0  0  0  0
    7.4240   -0.4590   15.9670 C   0  0  0  0  0  0  0  0  0  0  0  0
    7.2460    0.7130   16.6450 C   0  0  0  0  0  0  0  0  0  0  0  0
    7.7720    1.8790   15.7230 Cl  0  0  0  0  0  0  0  0  0  0  0  0
    6.6930    0.8650   17.9390 C   0  0  0  0  0  0  0  0  0  0  0  0
    4.6980    0.4960   20.1910 C   0  0  0  0  0  0  0  0  0  0  0  0
    3.8720    0.9790   19.4190 O   0  0  0  0  0  0  0  0  0  0  0  0
    4.7290    0.7280   21.5200 N   0  0  0  0  0  0  0  0  0  0  0  0
    4.2930    1.9730   21.9630 C   0  0  0  0  0  0  0  0  0  0  0  0
    5.1090    2.7210   23.0270 C   0  0  0  0  0  0  0  0  0  0  0  0
    4.8520    3.9320   23.5780 N   0  0  0  0  0  0  0  0  0  0  0  0
    3.7450    4.5730   23.1490 C   0  0  0  0  0  0  0  0  0  0  0  0
    2.7670    4.0230   22.0860 C   0  0  0  0  0  0  0  0  0  0  0  0
    3.1320    2.6460   21.5140 C   0  0  0  0  0  0  0  0  0  0  0  0
    2.1320    2.1480   20.4660 C   0  0  0  0  0  0  0  0  0  0  0  0
    5.4380   -0.2040   22.4480 C   0  0  0  0  0  0  0  0  0  0  0  0
  1  2  1  0
  2  3  2  0
  2  4  1  0
  5  4  1  6
  5  6  1  0
  6  7  1  0
  7  8  1  0
  8  9  2  0
  9 10  1  0
 10 11  1  0
 10 12  2  0
 12 13  1  0
 13 14  1  0
  8 15  1  0
 13 15  2  0
  7 16  1  0
 16 17  2  0
 16 18  1  0
 18 19  1  0
 19 20  2  0
 20 21  1  0
 21 22  2  0
 22 23  1  0
 19 24  1  0
 23 24  2  0
 24 25  1  0
  5 26  1  0
 18 26  1  0
M  END
