AGN-NEW-9315dc74-3
     RDKit          3D

 20 20  0  0  0  0  0  0  0  0999 V2000
    4.8240    1.4230   21.6670 C   0  0  0  0  0  0  0  0  0  0  0  0
    5.4000    1.0090   20.3270 C   0  0  0  0  0  0  0  0  0  0  0  0
    4.7760    1.6640   19.1670 C   0  0  0  0  0  0  0  0  0  0  0  0
    5.1170    1.4700   17.8530 C   0  0  0  0  0  0  0  0  0  0  0  0
    6.1340    0.5590   17.6390 N   0  0  0  0  0  0  0  0  0  0  0  0
    6.7030   -0.0450   18.7300 C   0  0  0  0  0  0  0  0  0  0  0  0
    7.6690   -0.9160   18.4720 F   0  0  0  0  0  0  0  0  0  0  0  0
    6.4140    0.1260   20.0370 C   0  0  0  0  0  0  0  0  0  0  0  0
    7.1560   -0.5830   21.0340 N   0  0  0  0  0  0  0  0  0  0  0  0
    8.0330    0.5410   21.9760 S   0  0  0  0  0  0  0  0  0  0  0  0
    8.8970    1.2840   21.0760 O   0  0  0  0  0  0  0  0  0  0  0  0
    7.0580    1.2950   22.7280 O   0  0  0  0  0  0  0  0  0  0  0  0
    9.0040   -0.2860   23.1210 C   0  0  0  0  0  0  0  0  0  0  0  0
   10.3200   -0.9450   23.1130 C   0  0  0  0  0  0  0  0  0  0  0  0
   11.2170   -1.1070   22.0910 N   0  0  0  0  0  0  0  0  0  0  0  0
   12.5440   -0.7550   22.2770 C   0  0  0  0  0  0  0  0  0  0  0  0
   13.4540   -1.2940   21.6580 O   0  0  0  0  0  0  0  0  0  0  0  0
   12.7040    0.3180   23.2820 C   0  0  0  0  0  0  0  0  0  0  0  0
   12.1860    1.7090   23.1900 C   0  0  0  0  0  0  0  0  0  0  0  0
   12.2100   -0.2720   24.5930 C   0  0  0  0  0  0  0  0  0  0  0  0
  1  2  1  0
  2  3  2  0
  3  4  1  0
  4  5  2  0
  5  6  1  0
  6  7  1  0
  2  8  1  0
  6  8  2  0
  8  9  1  0
  9 10  1  0
 10 11  2  0
 10 12  2  0
 10 13  1  0
 13 14  2  3
 14 15  1  0
 15 16  1  0
 16 17  2  0
 16 18  1  0
 18 19  1  0
 18 20  1  0
M  END
