AHN-SAT-de2502ba-1-acrylamide
     RDKit          3D

 32 34  0  0  0  0  0  0  0  0999 V2000
    7.3310   -2.9270   18.5450 C   0  0  0  0  0  0  0  0  0  0  0  0
    6.5010   -2.6660   19.7740 C   0  0  0  0  0  0  0  0  0  0  0  0
    6.0310   -3.9370   20.4360 C   0  0  0  0  0  0  0  0  0  0  0  0
    5.1700   -4.6600   19.9280 O   0  0  0  0  0  0  0  0  0  0  0  0
    6.6560   -4.2340   21.6220 N   0  0  0  0  0  0  0  0  0  0  0  0
    6.3320   -5.3690   22.4760 C   0  0  0  0  0  0  0  0  0  0  0  0
    5.6620   -4.8970   23.7500 C   0  0  0  0  0  0  0  0  0  0  0  0
    6.3210   -3.7370   24.4000 N   0  0  0  0  0  0  0  0  0  0  0  0
    5.5020   -3.2500   25.5150 C   0  0  0  0  0  0  0  0  0  0  0  0
    4.2910   -3.0830   25.4470 O   0  0  0  0  0  0  0  0  0  0  0  0
    6.1800   -2.9540   26.6970 C   0  0  0  0  0  0  0  0  0  0  0  0
    7.5250   -3.2800   26.6470 C   0  0  2  0  0  0  0  0  0  0  0  0
    7.8060   -4.5200   27.2480 C   0  0  0  0  0  0  0  0  0  0  0  0
    7.3540   -4.5820   28.5650 C   0  0  0  0  0  0  0  0  0  0  0  0
    6.0510   -5.0350   28.7650 C   0  0  0  0  0  0  0  0  0  0  0  0
    5.0390   -4.1830   29.5940 C   0  0  0  0  0  0  0  0  0  0  0  0
    3.6120   -4.7260   29.7970 C   0  0  0  0  0  0  0  0  0  0  0  0
    3.1990   -6.0660   29.2010 C   0  0  0  0  0  0  0  0  0  0  0  0
    4.2330   -6.8470   28.4020 C   0  0  0  0  0  0  0  0  0  0  0  0
    5.6520   -6.2770   28.2160 C   0  0  0  0  0  0  0  0  0  0  0  0
    8.2840   -2.2220   27.3920 N   0  0  0  0  0  0  0  0  0  0  0  0
    8.4360   -0.9820   26.5700 C   0  0  0  0  0  0  0  0  0  0  0  0
    9.0420    0.2190   27.2970 C   0  0  0  0  0  0  0  0  0  0  0  0
    8.4620    0.4580   28.6190 N   0  0  0  0  0  0  0  0  0  0  0  0
    9.3500    0.7950   29.6420 C   0  0  0  0  0  0  0  0  0  0  0  0
   10.5350    0.4690   29.6020 O   0  0  0  0  0  0  0  0  0  0  0  0
    8.8380    1.5920   30.8570 C   0  0  0  0  0  0  0  0  0  0  0  0
   10.1940    2.4020   31.6730 Cl  0  0  0  0  0  0  0  0  0  0  0  0
    7.3240   -0.4150   28.8380 C   0  0  0  0  0  0  0  0  0  0  0  0
    7.8000   -1.8650   28.7430 C   0  0  0  0  0  0  0  0  0  0  0  0
    6.8110   -2.6810   23.5070 C   0  0  0  0  0  0  0  0  0  0  0  0
    7.5090   -3.2510   22.2920 C   0  0  0  0  0  0  0  0  0  0  0  0
  1  2  1  0
  2  3  1  0
  3  4  2  0
  3  5  1  0
  5  6  1  0
  6  7  1  0
  7  8  1  0
  8  9  1  0
  9 10  2  0
  9 11  1  0
 12 11  1  1
 12 13  1  0
 13 14  1  0
 14 15  1  0
 15 16  2  0
 16 17  1  0
 17 18  2  0
 18 19  1  0
 15 20  1  0
 19 20  2  0
 12 21  1  0
 21 22  1  0
 22 23  1  0
 23 24  1  0
 24 25  1  0
 25 26  2  0
 25 27  1  0
 27 28  1  0
 24 29  1  0
 21 30  1  0
 29 30  1  0
  8 31  1  0
  5 32  1  0
 31 32  1  0
M  END
