AHN-SAT-de2502ba-3-acrylamide
     RDKit          3D

 20 21  0  0  0  0  0  0  0  0999 V2000
    7.1320   -2.9000   18.7640 C   0  0  0  0  0  0  0  0  0  0  0  0
    6.2540   -2.6500   19.9860 C   0  0  0  0  0  0  0  0  0  0  0  0
    5.7950   -3.9430   20.6250 C   0  0  0  0  0  0  0  0  0  0  0  0
    5.1650   -4.7680   19.9730 O   0  0  0  0  0  0  0  0  0  0  0  0
    6.1370   -4.1660   21.9550 N   0  0  0  0  0  0  0  0  0  0  0  0
    6.9300   -3.2690   22.7980 C   0  0  0  0  0  0  0  0  0  0  0  0
    6.3670   -3.1510   24.2020 C   0  0  0  0  0  0  0  0  0  0  0  0
    6.0220   -4.4410   24.8550 N   0  0  0  0  0  0  0  0  0  0  0  0
    5.3240   -4.1710   26.1300 C   0  0  0  0  0  0  0  0  0  0  0  0
    5.4610   -4.1010   27.5390 C   0  0  0  0  0  0  0  0  0  0  0  0
    6.7490   -4.3710   28.3060 C   0  0  0  0  0  0  0  0  0  0  0  0
    8.1380   -4.7550   27.8840 C   0  0  0  0  0  0  0  0  0  0  0  0
    9.4880   -5.1700   26.9110 Cl  0  0  0  0  0  0  0  0  0  0  0  0
    7.5860   -4.7070   26.6610 C   0  0  0  0  0  0  0  0  0  0  0  0
    6.3590   -4.3760   26.8960 C   0  0  0  0  0  0  0  0  0  0  0  0
    6.0280   -4.1830   28.3100 N   0  0  0  0  0  0  0  0  0  0  0  0
    5.5360   -5.1650   28.9200 O   0  0  0  0  0  0  0  0  0  0  0  0
    5.9120   -2.9870   28.6890 O   0  0  0  0  0  0  0  0  0  0  0  0
    5.3070   -5.3800   23.9580 C   0  0  0  0  0  0  0  0  0  0  0  0
    5.9300   -5.4850   22.5510 C   0  0  0  0  0  0  0  0  0  0  0  0
  1  2  1  0
  2  3  1  0
  3  4  2  0
  3  5  1  0
  5  6  1  0
  6  7  1  0
  7  8  1  0
  8  9  1  0
  9 10  2  0
 10 11  1  0
 11 12  2  0
 12 13  1  0
 12 14  1  0
  9 15  1  0
 14 15  2  0
 15 16  1  0
 16 17  2  0
 16 18  1  0
  8 19  1  0
  5 20  1  0
 19 20  1  0
M  CHG  2  16   1  18  -1
M  END
