AHN-SAT-de2502ba-9-vinylsulfonamide
     RDKit          3D

 22 23  0  0  0  0  0  0  0  0999 V2000
    8.6230   -3.8030   20.1750 C   0  0  0  0  0  0  0  0  0  0  0  0
    7.8630   -4.4720   21.3420 C   0  0  0  0  0  0  0  0  0  0  0  0
    6.2670   -3.6810   21.5850 S   0  0  0  0  0  0  0  0  0  0  0  0
    5.2730   -4.6320   21.1330 O   0  0  0  0  0  0  0  0  0  0  0  0
    6.3170   -2.3570   21.0010 O   0  0  0  0  0  0  0  0  0  0  0  0
    6.0970   -3.5270   23.3310 N   0  0  0  0  0  0  0  0  0  0  0  0
    5.9190   -4.8180   24.0210 C   0  0  0  0  0  0  0  0  0  0  0  0
    7.0430   -4.0730   23.6440 C   0  0  0  0  0  0  0  0  0  0  0  0
    7.9490   -4.8910   24.0230 C   0  0  0  0  0  0  0  0  0  0  0  0
    9.6800   -5.1400   24.1050 S   0  0  0  0  0  0  0  0  0  0  0  0
    9.8890   -6.0160   22.9910 O   0  0  0  0  0  0  0  0  0  0  0  0
   10.0120   -5.6330   25.4150 O   0  0  0  0  0  0  0  0  0  0  0  0
   10.3590   -3.5500   23.8030 N   0  0  0  0  0  0  0  0  0  0  0  0
   10.1640   -2.9010   22.5020 C   0  0  0  0  0  0  0  0  0  0  0  0
   11.2740   -2.1120   22.1890 C   0  0  0  0  0  0  0  0  0  0  0  0
   11.5260   -1.1670   23.2410 O   0  0  0  0  0  0  0  0  0  0  0  0
   11.8390   -1.8300   24.4770 C   0  0  0  0  0  0  0  0  0  0  0  0
   11.7470   -3.2120   24.2990 C   0  0  0  0  0  0  0  0  0  0  0  0
    8.0760   -3.5620   23.4100 C   0  0  0  0  0  0  0  0  0  0  0  0
    6.4870   -3.2140   23.2700 C   0  0  0  0  0  0  0  0  0  0  0  0
    5.0800   -4.0570   23.6700 C   0  0  0  0  0  0  0  0  0  0  0  0
    3.5690   -3.8720   23.6150 C   0  0  0  0  0  0  0  0  0  0  0  0
  1  2  1  0
  2  3  1  0
  3  4  2  0
  3  5  2  0
  3  6  1  0
  6  7  1  0
  7  8  2  0
  8  9  1  0
 10  9  1  0
 10 11  2  0
 10 12  2  0
 10 13  1  0
 13 14  1  0
 14 15  1  0
 15 16  1  0
 16 17  1  0
 13 18  1  0
 17 18  1  0
  9 19  2  0
 19 20  1  0
  7 21  1  0
 20 21  2  0
 21 22  1  0
M  END
