AHN-SAT-de2502ba-10-vinylsulfonamide
     RDKit          3D

 22 23  0  0  0  0  0  0  0  0999 V2000
    7.5790   -2.9660   18.4620 C   0  0  0  0  0  0  0  0  0  0  0  0
    6.8810   -2.5030   19.7280 C   0  0  0  0  0  0  0  0  0  0  0  0
    5.8050   -3.7550   20.3840 S   0  0  0  0  0  0  0  0  0  0  0  0
    4.8650   -3.1490   21.2850 O   0  0  0  0  0  0  0  0  0  0  0  0
    5.3040   -4.6500   19.4030 O   0  0  0  0  0  0  0  0  0  0  0  0
    6.8650   -4.6340   21.3480 N   0  0  0  0  0  0  0  0  0  0  0  0
    6.3760   -4.5720   22.6820 C   0  0  0  0  0  0  0  0  0  0  0  0
    6.2140   -3.8790   23.9220 C   0  0  0  0  0  0  0  0  0  0  0  0
    5.8960   -3.4490   25.2320 C   0  0  0  0  0  0  0  0  0  0  0  0
    4.9970   -4.2170   26.4920 S   0  0  0  0  0  0  0  0  0  0  0  0
    5.2530   -5.6410   26.4250 O   0  0  0  0  0  0  0  0  0  0  0  0
    3.6560   -3.6790   26.3880 O   0  0  0  0  0  0  0  0  0  0  0  0
    5.8830   -3.5660   27.7820 N   0  0  0  0  0  0  0  0  0  0  0  0
    5.5270   -4.0950   29.0780 C   0  0  0  0  0  0  0  0  0  0  0  0
    5.9300   -5.4320   29.1480 C   0  0  0  0  0  0  0  0  0  0  0  0
    7.0140   -5.8040   28.3350 C   0  0  0  0  0  0  0  0  0  0  0  0
    7.9210   -4.7880   28.0190 C   0  0  0  0  0  0  0  0  0  0  0  0
    7.3710   -3.5790   27.5860 C   0  0  0  0  0  0  0  0  0  0  0  0
    6.4910   -2.2760   25.1880 C   0  0  0  0  0  0  0  0  0  0  0  0
    7.1160   -2.1410   23.7790 C   0  0  0  0  0  0  0  0  0  0  0  0
    7.0370   -3.2440   22.6200 C   0  0  0  0  0  0  0  0  0  0  0  0
    7.7610   -2.7160   21.3940 C   0  0  0  0  0  0  0  0  0  0  0  0
  1  2  1  0
  2  3  1  0
  3  4  2  0
  3  5  2  0
  3  6  1  0
  6  7  1  0
  7  8  2  0
  8  9  1  0
 10  9  1  0
 10 11  2  0
 10 12  2  0
 10 13  1  0
 13 14  1  0
 14 15  1  0
 15 16  1  0
 16 17  1  0
 13 18  1  0
 17 18  1  0
  9 19  2  0
 19 20  1  0
  7 21  1  0
 20 21  2  0
 21 22  1  0
M  END
