AHN-SAT-de2502ba-1-chloroacetamide
     RDKit          3D

 31 33  0  0  0  0  0  0  0  0999 V2000
    7.0550   -3.2650   19.2450 C   0  0  0  0  0  0  0  0  0  0  0  0
    6.2690   -4.1150   20.2090 C   0  0  0  0  0  0  0  0  0  0  0  0
    5.2260   -4.6680   19.9090 O   0  0  0  0  0  0  0  0  0  0  0  0
    6.8310   -4.3000   21.4540 N   0  0  0  0  0  0  0  0  0  0  0  0
    6.3510   -5.3990   22.2890 C   0  0  0  0  0  0  0  0  0  0  0  0
    5.7080   -4.8810   23.5950 C   0  0  0  0  0  0  0  0  0  0  0  0
    6.3010   -3.6400   24.1610 N   0  0  0  0  0  0  0  0  0  0  0  0
    5.5990   -3.1760   25.3570 C   0  0  0  0  0  0  0  0  0  0  0  0
    4.6340   -2.4190   25.3360 O   0  0  0  0  0  0  0  0  0  0  0  0
    6.0730   -3.6520   26.5820 C   0  0  0  0  0  0  0  0  0  0  0  0
    7.4500   -3.8350   26.6950 C   0  0  1  0  0  0  0  0  0  0  0  0
    7.7220   -4.9450   27.4620 C   0  0  0  0  0  0  0  0  0  0  0  0
    7.1930   -4.7100   28.7100 C   0  0  0  0  0  0  0  0  0  0  0  0
    5.8530   -5.0910   28.8710 C   0  0  0  0  0  0  0  0  0  0  0  0
    5.4790   -6.4020   28.4860 C   0  0  0  0  0  0  0  0  0  0  0  0
    4.0200   -6.9020   28.6400 C   0  0  0  0  0  0  0  0  0  0  0  0
    2.9870   -5.9500   29.2180 C   0  0  0  0  0  0  0  0  0  0  0  0
    3.4340   -4.5560   29.6150 C   0  0  0  0  0  0  0  0  0  0  0  0
    4.9110   -4.1770   29.4140 C   0  0  0  0  0  0  0  0  0  0  0  0
    8.1940   -4.0150   25.4210 N   0  0  0  0  0  0  0  0  0  0  0  0
    8.6520   -2.7380   24.8120 C   0  0  0  0  0  0  0  0  0  0  0  0
   10.0850   -2.6880   24.2320 C   0  0  0  0  0  0  0  0  0  0  0  0
   11.0920   -3.2850   25.0900 N   0  0  0  0  0  0  0  0  0  0  0  0
   12.4350   -3.0210   24.8150 C   0  0  0  0  0  0  0  0  0  0  0  0
   13.3430   -3.4070   25.5580 O   0  0  0  0  0  0  0  0  0  0  0  0
   12.7870   -2.2510   23.5480 C   0  0  0  0  0  0  0  0  0  0  0  0
   12.4710   -0.5210   23.7580 Cl  0  0  0  0  0  0  0  0  0  0  0  0
   10.5900   -4.3940   25.9330 C   0  0  0  0  0  0  0  0  0  0  0  0
    9.2730   -4.9990   25.4060 C   0  0  0  0  0  0  0  0  0  0  0  0
    6.7320   -2.6240   23.2050 C   0  0  0  0  0  0  0  0  0  0  0  0
    7.5980   -3.2630   22.1360 C   0  0  0  0  0  0  0  0  0  0  0  0
  1  2  1  0
  2  3  2  0
  2  4  1  0
  4  5  1  0
  5  6  1  0
  6  7  1  0
  7  8  1  0
  8  9  2  0
  8 10  1  0
 11 10  1  6
 11 12  1  0
 12 13  1  0
 13 14  1  0
 14 15  2  0
 15 16  1  0
 16 17  2  0
 17 18  1  0
 14 19  1  0
 18 19  2  0
 11 20  1  0
 20 21  1  0
 21 22  1  0
 22 23  1  0
 23 24  1  0
 24 25  2  0
 24 26  1  0
 26 27  1  0
 23 28  1  0
 20 29  1  0
 28 29  1  0
  7 30  1  0
  4 31  1  0
 30 31  1  0
M  END
