AHN-SAT-de2502ba-4-chloroacetamide
     RDKit          3D

 19 20  0  0  0  0  0  0  0  0999 V2000
    7.2260   -3.2470   19.1560 C   0  0  0  0  0  0  0  0  0  0  0  0
    6.3650   -4.0640   20.0630 C   0  0  0  0  0  0  0  0  0  0  0  0
    5.2130   -4.3950   19.8260 O   0  0  0  0  0  0  0  0  0  0  0  0
    7.0370   -4.4890   21.1870 N   0  0  0  0  0  0  0  0  0  0  0  0
    6.2590   -4.6860   22.3360 C   0  0  0  0  0  0  0  0  0  0  0  0
    7.3650   -3.5460   22.2960 C   0  0  0  0  0  0  0  0  0  0  0  0
    7.7770   -2.5480   23.3190 C   0  0  0  0  0  0  0  0  0  0  0  0
    7.0940   -2.6340   24.4530 C   0  0  0  0  0  0  0  0  0  0  0  0
    6.1290   -3.5660   24.6030 C   0  0  0  0  0  0  0  0  0  0  0  0
    5.2240   -3.6550   26.0940 S   0  0  0  0  0  0  0  0  0  0  0  0
    4.1850   -2.6580   25.9830 O   0  0  0  0  0  0  0  0  0  0  0  0
    4.9310   -5.0490   26.3520 O   0  0  0  0  0  0  0  0  0  0  0  0
    6.3370   -3.1370   27.2650 N   0  0  0  0  0  0  0  0  0  0  0  0
    5.7980   -3.1580   28.6360 C   0  0  0  0  0  0  0  0  0  0  0  0
    5.7400   -4.4680   29.0860 C   0  0  0  0  0  0  0  0  0  0  0  0
    7.0550   -5.0250   29.1080 O   0  0  0  0  0  0  0  0  0  0  0  0
    7.6740   -5.0480   27.8100 C   0  0  0  0  0  0  0  0  0  0  0  0
    7.7150   -3.7520   27.2670 C   0  0  0  0  0  0  0  0  0  0  0  0
    5.7490   -4.5010   23.6500 C   0  0  0  0  0  0  0  0  0  0  0  0
  1  2  1  0
  2  3  2  0
  2  4  1  0
  4  5  1  0
  5  6  2  0
  6  7  1  0
  7  8  2  0
  8  9  1  0
 10  9  1  0
 10 11  2  0
 10 12  2  0
 10 13  1  0
 13 14  1  0
 14 15  1  0
 15 16  1  0
 16 17  1  0
 13 18  1  0
 17 18  1  0
  5 19  1  0
  9 19  2  0
M  END
