AHN-SAT-de2502ba-3-nitrile
     RDKit          3D

 18 19  0  0  0  0  0  0  0  0999 V2000
    6.7110   -4.0490   20.1310 C   0  0  0  0  0  0  0  0  0  0  0  0
    5.6060   -3.7730   19.5470 N   0  0  0  0  0  0  0  0  0  0  0  0
    6.8620   -4.3520   21.4640 N   0  0  0  0  0  0  0  0  0  0  0  0
    6.0640   -5.3810   22.1370 C   0  0  0  0  0  0  0  0  0  0  0  0
    5.6380   -4.9800   23.5790 C   0  0  0  0  0  0  0  0  0  0  0  0
    6.2230   -3.7480   24.1870 N   0  0  0  0  0  0  0  0  0  0  0  0
    5.2940   -3.0550   25.1080 C   0  0  0  0  0  0  0  0  0  0  0  0
    4.9980   -2.6610   26.5270 C   0  0  0  0  0  0  0  0  0  0  0  0
    6.2860   -3.4150   26.5690 C   0  0  0  0  0  0  0  0  0  0  0  0
    6.2740   -3.2040   27.9450 C   0  0  0  0  0  0  0  0  0  0  0  0
    5.5890   -2.5860   29.3970 Cl  0  0  0  0  0  0  0  0  0  0  0  0
    5.2540   -2.6860   27.3610 C   0  0  0  0  0  0  0  0  0  0  0  0
    5.9950   -3.2960   26.2480 C   0  0  0  0  0  0  0  0  0  0  0  0
    7.2670   -4.0360   26.3660 N   0  0  0  0  0  0  0  0  0  0  0  0
    7.2230   -5.2010   26.8120 O   0  0  0  0  0  0  0  0  0  0  0  0
    8.2900   -3.4870   25.9050 O   0  0  0  0  0  0  0  0  0  0  0  0
    7.0240   -2.8680   23.2830 C   0  0  0  0  0  0  0  0  0  0  0  0
    7.7780   -3.5810   22.3680 C   0  0  0  0  0  0  0  0  0  0  0  0
  1  2  2  3
  1  3  1  0
  3  4  1  0
  4  5  1  0
  5  6  1  0
  6  7  1  0
  7  8  2  0
  8  9  1  0
  9 10  2  0
 10 11  1  0
 10 12  1  0
  7 13  1  0
 12 13  2  0
 13 14  1  0
 14 15  2  0
 14 16  1  0
  6 17  1  0
  3 18  1  0
 17 18  1  0
M  CHG  2  14   1  16  -1
M  END
