AHN-SAT-de2502ba-4-vinylsulfonamide
     RDKit          3D

 21 22  0  0  0  0  0  0  0  0999 V2000
    7.8550   -2.9170   19.2590 C   0  0  0  0  0  0  0  0  0  0  0  0
    6.3740   -3.0430   19.1260 C   0  0  0  0  0  0  0  0  0  0  0  0
    5.7520   -4.0230   20.4320 S   0  0  0  0  0  0  0  0  0  0  0  0
    4.9080   -3.1940   21.2460 O   0  0  0  0  0  0  0  0  0  0  0  0
    5.2510   -5.2210   19.8540 O   0  0  0  0  0  0  0  0  0  0  0  0
    7.0710   -4.4310   21.3900 N   0  0  0  0  0  0  0  0  0  0  0  0
    6.5480   -4.7100   22.6880 C   0  0  0  0  0  0  0  0  0  0  0  0
    7.5370   -3.4000   22.3710 C   0  0  0  0  0  0  0  0  0  0  0  0
    8.0260   -2.7180   23.5370 C   0  0  0  0  0  0  0  0  0  0  0  0
    6.7990   -3.1990   23.7200 C   0  0  0  0  0  0  0  0  0  0  0  0
    5.9860   -3.3940   24.6500 C   0  0  0  0  0  0  0  0  0  0  0  0
    5.3700   -3.9660   26.1930 S   0  0  0  0  0  0  0  0  0  0  0  0
    4.0640   -3.3680   26.3520 O   0  0  0  0  0  0  0  0  0  0  0  0
    5.5510   -5.4000   26.2610 O   0  0  0  0  0  0  0  0  0  0  0  0
    6.3830   -3.2170   27.3200 N   0  0  0  0  0  0  0  0  0  0  0  0
    7.7630   -3.7680   27.4640 C   0  0  0  0  0  0  0  0  0  0  0  0
    7.6840   -5.0720   27.9710 C   0  0  0  0  0  0  0  0  0  0  0  0
    6.9400   -5.0740   29.2050 O   0  0  0  0  0  0  0  0  0  0  0  0
    5.6370   -4.4920   29.0980 C   0  0  0  0  0  0  0  0  0  0  0  0
    5.7720   -3.1770   28.6790 C   0  0  0  0  0  0  0  0  0  0  0  0
    6.0630   -4.6470   24.1440 C   0  0  0  0  0  0  0  0  0  0  0  0
  1  2  1  0
  2  3  1  0
  3  4  2  0
  3  5  2  0
  3  6  1  0
  6  7  1  0
  7  8  2  0
  8  9  1  0
  9 10  2  0
 10 11  1  0
 12 11  1  0
 12 13  2  0
 12 14  2  0
 12 15  1  0
 15 16  1  0
 16 17  1  0
 17 18  1  0
 18 19  1  0
 15 20  1  0
 19 20  1  0
  7 21  1  0
 11 21  2  0
M  END
