AHN-SAT-de2502ba-11-vinylsulfonamide
     RDKit          3D

 23 25  0  0  0  0  0  0  0  0999 V2000
    7.8780   -3.4380   19.7120 C   0  0  0  0  0  0  0  0  0  0  0  0
    7.2780   -4.2590   20.8220 C   0  0  0  0  0  0  0  0  0  0  0  0
    5.6260   -4.3860   20.3190 S   0  0  0  0  0  0  0  0  0  0  0  0
    4.9960   -5.4600   21.0360 O   0  0  0  0  0  0  0  0  0  0  0  0
    5.4570   -4.1140   18.9420 O   0  0  0  0  0  0  0  0  0  0  0  0
    5.1170   -3.0130   20.9910 N   0  0  0  0  0  0  0  0  0  0  0  0
    5.5830   -1.8300   20.2650 C   0  0  0  0  0  0  0  0  0  0  0  0
    6.3530   -1.0480   21.3300 C   0  0  0  0  0  0  0  0  0  0  0  0
    6.3220   -1.8510   22.5890 C   0  0  0  0  0  0  0  0  0  0  0  0
    6.8780   -1.5770   23.8110 C   0  0  0  0  0  0  0  0  0  0  0  0
    6.2880   -2.8170   24.0890 C   0  0  0  0  0  0  0  0  0  0  0  0
    6.9750   -2.4060   25.6580 S   0  0  0  0  0  0  0  0  0  0  0  0
    8.4130   -2.2530   25.5210 O   0  0  0  0  0  0  0  0  0  0  0  0
    6.1150   -1.3660   26.1890 O   0  0  0  0  0  0  0  0  0  0  0  0
    6.7010   -3.7750   26.5840 N   0  0  0  0  0  0  0  0  0  0  0  0
    7.9190   -4.6150   26.7610 C   0  0  0  0  0  0  0  0  0  0  0  0
    7.5660   -5.7550   27.4540 C   0  0  0  0  0  0  0  0  0  0  0  0
    7.1530   -5.4050   28.7240 C   0  0  0  0  0  0  0  0  0  0  0  0
    5.9630   -4.7060   28.7400 C   0  0  0  0  0  0  0  0  0  0  0  0
    5.8700   -3.5170   27.7770 C   0  0  0  0  0  0  0  0  0  0  0  0
    5.8500   -3.9910   24.7330 C   0  0  0  0  0  0  0  0  0  0  0  0
    5.2880   -4.1520   23.3130 C   0  0  0  0  0  0  0  0  0  0  0  0
    5.5970   -2.9940   22.3420 C   0  0  0  0  0  0  0  0  0  0  0  0
  1  2  1  0
  3  2  1  0
  3  4  2  0
  3  5  2  0
  3  6  1  0
  6  7  1  0
  7  8  1  0
  8  9  1  0
  9 10  2  0
 10 11  1  0
 12 11  1  0
 12 13  2  0
 12 14  2  0
 12 15  1  0
 15 16  1  0
 16 17  1  0
 17 18  1  0
 18 19  1  0
 15 20  1  0
 19 20  1  0
 11 21  2  0
 21 22  1  0
  6 23  1  0
  9 23  1  0
 22 23  2  0
M  END
