AHN-SAT-324b361c-1-acrylamide
     RDKit          3D

 20 22  0  0  0  0  0  0  0  0999 V2000
    7.6130   -5.6790   20.0550 C   0  0  0  0  0  0  0  0  0  0  0  0
    7.6130   -5.3480   21.5320 C   0  0  0  0  0  0  0  0  0  0  0  0
    7.5430   -6.7860   21.8910 C   0  0  0  0  0  0  0  0  0  0  0  0
    5.2700   -5.6830   21.3600 O   0  0  0  0  0  0  0  0  0  0  0  0
   10.0370   -8.2740   22.5210 N   0  0  0  0  0  0  0  0  0  0  0  0
   12.4120   -9.8810   21.9750 C   0  0  0  0  0  0  0  0  0  0  0  0
   14.4680  -11.8690   22.2980 C   0  0  0  0  0  0  0  0  0  0  0  0
   16.3320  -12.1130   22.7050 C   0  0  0  0  0  0  0  0  0  0  0  0
   17.0090  -13.5800   22.4980 C   0  0  0  0  0  0  0  0  0  0  0  0
   16.4200  -14.9530   22.1430 C   0  0  0  0  0  0  0  0  0  0  0  0
   18.2300  -15.6700   21.7910 C   0  0  0  0  0  0  0  0  0  0  0  0
   19.0450  -16.9860   20.6280 N   0  0  0  0  0  0  0  0  0  0  0  0
   19.1110  -18.4920   19.2770 C   0  0  0  0  0  0  0  0  0  0  0  0
   19.8080  -20.2140   17.7530 C   0  0  0  0  0  0  0  0  0  0  0  0
   21.1530  -19.9490   17.8910 C   0  0  0  0  0  0  0  0  0  0  0  0
   19.7990  -19.9490   17.9940 C   0  0  0  0  0  0  0  0  0  0  0  0
   18.5230  -19.5580   18.4380 C   0  0  0  0  0  0  0  0  0  0  0  0
   18.0130  -18.2110   19.5760 C   0  0  0  0  0  0  0  0  0  0  0  0
   18.8990  -16.7500   20.8360 S   0  0  0  0  0  0  0  0  0  0  0  0
   15.0490  -13.6120   22.2490 O   0  0  0  0  0  0  0  0  0  0  0  0
  1  2  1  0
  2  3  1  0
  3  4  2  0
  3  5  1  0
  5  6  1  0
  6  7  1  0
  7  8  2  0
  8  9  1  0
  9 10  2  0
 10 11  1  0
 11 12  2  0
 12 13  1  0
 13 14  2  0
 14 15  1  0
 15 16  2  0
 16 17  1  0
 13 18  1  0
 17 18  2  0
 11 19  1  0
 18 19  1  0
  7 20  1  0
 10 20  1  0
M  END
