AHN-SAT-02ef6d10-2-chloroacetamide
     RDKit          3D

 18 19  0  0  0  0  0  0  0  0999 V2000
    7.8060   -3.0480   18.8630 C   0  0  0  0  0  0  0  0  0  0  0  0
    6.4970   -3.6250   19.2250 C   0  0  0  0  0  0  0  0  0  0  0  0
    5.4730   -4.0190   19.7550 O   0  0  0  0  0  0  0  0  0  0  0  0
    6.9590   -3.0750   20.4310 N   0  0  0  0  0  0  0  0  0  0  0  0
    6.8300   -3.5190   21.7270 C   0  0  0  0  0  0  0  0  0  0  0  0
    7.9830   -3.0490   22.6420 C   0  0  0  0  0  0  0  0  0  0  0  0
    7.5570   -1.7900   23.3680 C   0  0  0  0  0  0  0  0  0  0  0  0
    6.4310   -1.9640   24.0590 N   0  0  0  0  0  0  0  0  0  0  0  0
    6.5140   -2.1340   25.3800 C   0  0  0  0  0  0  0  0  0  0  0  0
    5.1310   -2.1530   26.0310 C   0  0  0  0  0  0  0  0  0  0  0  0
    4.8460   -3.0700   27.1840 C   0  0  0  0  0  0  0  0  0  0  0  0
    3.5860   -3.1760   27.8530 C   0  0  0  0  0  0  0  0  0  0  0  0
    2.5920   -2.3480   27.3570 C   0  0  0  0  0  0  0  0  0  0  0  0
    1.3730   -2.3830   27.9200 F   0  0  0  0  0  0  0  0  0  0  0  0
    2.7590   -1.4120   26.2420 C   0  0  0  0  0  0  0  0  0  0  0  0
    4.0770   -1.3570   25.6050 C   0  0  0  0  0  0  0  0  0  0  0  0
    5.4700   -2.9610   23.5300 C   0  0  0  0  0  0  0  0  0  0  0  0
    5.5720   -3.1360   22.1770 C   0  0  0  0  0  0  0  0  0  0  0  0
  1  2  1  0
  2  3  2  0
  2  4  1  0
  4  5  1  0
  5  6  1  0
  6  7  1  0
  7  8  1  0
  8  9  1  0
  9 10  1  0
 10 11  2  0
 11 12  1  0
 12 13  2  0
 13 14  1  0
 13 15  1  0
 10 16  1  0
 15 16  2  0
  8 17  1  0
  5 18  1  0
 17 18  1  0
M  END
