AHN-SAT-de2502ba-12-vinylsulfonamide
     RDKit          3D

 22 23  0  0  0  0  0  0  0  0999 V2000
    7.3430   -2.9230   18.7120 C   0  0  0  0  0  0  0  0  0  0  0  0
    7.1950   -1.8130   19.7350 C   0  0  0  0  0  0  0  0  0  0  0  0
    5.5560   -1.8090   20.4420 S   0  0  0  0  0  0  0  0  0  0  0  0
    4.9630   -3.1600   20.4460 O   0  0  0  0  0  0  0  0  0  0  0  0
    4.8400   -0.6860   19.8830 O   0  0  0  0  0  0  0  0  0  0  0  0
    5.9780   -1.3770   22.0330 N   0  0  0  0  0  0  0  0  0  0  0  0
    5.2450   -2.0390   23.1030 C   0  0  0  0  0  0  0  0  0  0  0  0
    5.6030   -3.5350   23.2100 C   0  0  0  0  0  0  0  0  0  0  0  0
    6.1020   -4.3010   24.1020 C   0  0  0  0  0  0  0  0  0  0  0  0
    5.8330   -5.0360   22.9860 C   0  0  0  0  0  0  0  0  0  0  0  0
    5.3200   -5.0700   21.6080 C   0  0  0  0  0  0  0  0  0  0  0  0
    5.5610   -6.2060   21.6260 C   0  0  0  0  0  0  0  0  0  0  0  0
    5.5420   -4.8270   22.3370 C   0  0  0  0  0  0  0  0  0  0  0  0
    6.2440   -5.8760   23.6170 S   0  0  0  0  0  0  0  0  0  0  0  0
    7.4920   -5.3260   24.1260 O   0  0  0  0  0  0  0  0  0  0  0  0
    6.2730   -7.1870   23.0010 O   0  0  0  0  0  0  0  0  0  0  0  0
    5.0280   -5.8710   24.8440 N   0  0  0  0  0  0  0  0  0  0  0  0
    5.4270   -5.7550   26.3000 C   0  0  0  0  0  0  0  0  0  0  0  0
    4.4150   -6.3290   27.0810 C   0  0  0  0  0  0  0  0  0  0  0  0
    3.1250   -5.8600   26.6590 O   0  0  0  0  0  0  0  0  0  0  0  0
    2.7090   -6.4660   25.4300 C   0  0  0  0  0  0  0  0  0  0  0  0
    3.9380   -6.8410   24.5940 C   0  0  0  0  0  0  0  0  0  0  0  0
  1  2  1  0
  2  3  1  0
  3  4  2  0
  3  5  2  0
  3  6  1  0
  6  7  1  0
  7  8  1  0
  8  9  2  0
  9 10  1  0
 10 11  2  0
 11 12  1  0
  8 13  1  0
 12 13  2  0
 14 13  1  0
 14 15  2  0
 14 16  2  0
 14 17  1  0
 17 18  1  0
 18 19  1  0
 19 20  1  0
 20 21  1  0
 17 22  1  0
 21 22  1  0
M  END
