AHN-SAT-02ef6d10-1-chloroacetamide
     RDKit          3D

 18 20  0  0  0  0  0  0  0  0999 V2000
    7.4180   -3.5600   20.1740 C   0  0  0  0  0  0  0  0  0  0  0  0
    6.0320   -3.0020   20.3820 C   0  0  0  0  0  0  0  0  0  0  0  0
    5.3120   -3.2470   19.3600 O   0  0  0  0  0  0  0  0  0  0  0  0
    5.6250   -2.4560   21.7040 N   0  0  0  0  0  0  0  0  0  0  0  0
    5.7850   -3.4730   22.7360 C   0  0  0  0  0  0  0  0  0  0  0  0
    5.6970   -2.8760   24.1230 C   0  0  0  0  0  0  0  0  0  0  0  0
    6.8900   -1.9630   24.3430 C   0  0  0  0  0  0  0  0  0  0  0  0
    7.0310   -1.0010   23.1560 C   0  0  0  0  0  0  0  0  0  0  0  0
    5.7470   -0.9750   22.3190 C   0  0  2  0  0  0  0  0  0  0  0  0
    4.4240   -0.2600   23.0930 C   0  0  0  0  0  0  0  0  0  0  0  0
    3.6280    0.7510   23.4710 N   0  0  0  0  0  0  0  0  0  0  0  0
    3.1680    2.0270   23.5890 C   0  0  0  0  0  0  0  0  0  0  0  0
    2.3250    3.2120   23.9580 C   0  0  0  0  0  0  0  0  0  0  0  0
    1.1020    3.3680   24.6850 C   0  0  0  0  0  0  0  0  0  0  0  0
    0.4430    2.3140   25.2230 C   0  0  0  0  0  0  0  0  0  0  0  0
    1.0540    1.1150   25.0210 C   0  0  0  0  0  0  0  0  0  0  0  0
    2.3730    0.9240   24.2430 C   0  0  0  0  0  0  0  0  0  0  0  0
    3.1290   -0.7810   24.0470 S   0  0  0  0  0  0  0  0  0  0  0  0
  1  2  1  0
  2  3  2  0
  2  4  1  0
  4  5  1  0
  5  6  1  0
  6  7  1  0
  7  8  1  0
  4  9  1  0
  8  9  1  0
  9 10  1  1
 10 11  2  0
 11 12  1  0
 12 13  2  0
 13 14  1  0
 14 15  2  0
 15 16  1  0
 12 17  1  0
 16 17  2  0
 10 18  1  0
 17 18  1  0
M  END
