AHN-SAT-de2502ba-7-nitrile
     RDKit          3D

 17 18  0  0  0  0  0  0  0  0999 V2000
    6.4570   -5.2400   20.6730 C   0  0  0  0  0  0  0  0  0  0  0  0
    5.5500   -5.8840   20.0760 N   0  0  0  0  0  0  0  0  0  0  0  0
    6.4640   -5.0540   22.1150 N   0  0  0  0  0  0  0  0  0  0  0  0
    5.2150   -4.8420   22.8890 C   0  0  0  0  0  0  0  0  0  0  0  0
    5.3700   -5.0600   24.4230 C   0  0  0  0  0  0  0  0  0  0  0  0
    6.4850   -4.3570   25.0710 N   0  0  0  0  0  0  0  0  0  0  0  0
    6.1480   -2.9880   25.4750 C   0  0  0  0  0  0  0  0  0  0  0  0
    6.3550   -2.5650   26.6030 O   0  0  0  0  0  0  0  0  0  0  0  0
    5.5680   -2.2500   24.4810 N   0  0  0  0  0  0  0  0  0  0  0  0
    6.0090   -1.9840   23.1660 C   0  0  0  0  0  0  0  0  0  0  0  0
    7.3060   -2.1200   22.6580 C   0  0  0  0  0  0  0  0  0  0  0  0
    7.6330   -1.8200   21.3440 C   0  0  0  0  0  0  0  0  0  0  0  0
    6.6370   -1.3760   20.4750 C   0  0  0  0  0  0  0  0  0  0  0  0
    5.3380   -1.2300   20.9460 C   0  0  0  0  0  0  0  0  0  0  0  0
    5.0290   -1.5300   22.2790 C   0  0  0  0  0  0  0  0  0  0  0  0
    7.6810   -4.3650   24.2120 C   0  0  0  0  0  0  0  0  0  0  0  0
    7.5850   -5.3760   23.0510 C   0  0  0  0  0  0  0  0  0  0  0  0
  1  2  2  3
  1  3  1  0
  3  4  1  0
  4  5  1  0
  5  6  1  0
  6  7  1  0
  7  8  2  0
  7  9  1  0
  9 10  1  0
 10 11  2  0
 11 12  1  0
 12 13  2  0
 13 14  1  0
 10 15  1  0
 14 15  2  0
  6 16  1  0
  3 17  1  0
 16 17  1  0
M  END
