AHN-SAT-02ef6d10-1-vinylsulfonamide
     RDKit          3D

 20 22  0  0  0  0  0  0  0  0999 V2000
    7.0880   -5.6070   21.0050 C   0  0  0  0  0  0  0  0  0  0  0  0
    5.6290   -5.5730   21.2730 C   0  0  0  0  0  0  0  0  0  0  0  0
    5.2980   -4.4480   22.6100 S   0  0  0  0  0  0  0  0  0  0  0  0
    3.8750   -4.2890   22.7130 O   0  0  0  0  0  0  0  0  0  0  0  0
    6.1470   -4.7460   23.7500 O   0  0  0  0  0  0  0  0  0  0  0  0
    5.8130   -2.9890   22.0040 N   0  0  0  0  0  0  0  0  0  0  0  0
    5.2440   -2.5200   20.8010 C   0  0  0  0  0  0  0  0  0  0  0  0
    6.0450   -1.9880   19.5760 C   0  0  0  0  0  0  0  0  0  0  0  0
    7.3640   -1.4770   20.0520 C   0  0  0  0  0  0  0  0  0  0  0  0
    7.0440   -1.2120   21.4630 C   0  0  0  0  0  0  0  0  0  0  0  0
    7.1840   -2.5400   22.1730 C   0  0  1  0  0  0  0  0  0  0  0  0
    7.8840   -1.9400   23.3570 C   0  0  0  0  0  0  0  0  0  0  0  0
    9.0600   -1.8060   22.6140 N   0  0  0  0  0  0  0  0  0  0  0  0
   10.2080   -1.1020   23.3680 C   0  0  0  0  0  0  0  0  0  0  0  0
   11.4450   -0.7920   23.0300 C   0  0  0  0  0  0  0  0  0  0  0  0
   12.7130   -0.5310   22.5430 C   0  0  0  0  0  0  0  0  0  0  0  0
   12.5820    0.0020   23.9300 C   0  0  0  0  0  0  0  0  0  0  0  0
   11.3020   -0.1570   24.6980 C   0  0  0  0  0  0  0  0  0  0  0  0
    9.9910   -0.6430   24.7010 C   0  0  0  0  0  0  0  0  0  0  0  0
    9.3290   -1.3940   23.4430 S   0  0  0  0  0  0  0  0  0  0  0  0
  1  2  1  0
  3  2  1  0
  3  4  2  0
  3  5  2  0
  3  6  1  0
  6  7  1  0
  7  8  1  0
  8  9  1  0
  9 10  1  0
  6 11  1  0
 10 11  1  0
 11 12  1  1
 12 13  2  0
 13 14  1  0
 14 15  2  0
 15 16  1  0
 16 17  2  0
 17 18  1  0
 14 19  1  0
 18 19  2  0
 12 20  1  0
 19 20  1  0
M  END
