AHN-SAT-de2502ba-7-vinylsulfonamide
     RDKit          3D

 20 21  0  0  0  0  0  0  0  0999 V2000
    8.5390   -3.7380   20.2410 C   0  0  0  0  0  0  0  0  0  0  0  0
    7.8190   -4.4610   21.4250 C   0  0  0  0  0  0  0  0  0  0  0  0
    6.4530   -3.5240   22.2420 S   0  0  0  0  0  0  0  0  0  0  0  0
    5.0610   -3.7950   21.6510 O   0  0  0  0  0  0  0  0  0  0  0  0
    6.9220   -2.1750   22.4760 O   0  0  0  0  0  0  0  0  0  0  0  0
    6.4340   -4.2860   23.7510 N   0  0  0  0  0  0  0  0  0  0  0  0
    5.0770   -4.6500   24.1040 C   0  0  0  0  0  0  0  0  0  0  0  0
    4.5200   -5.4670   22.9300 C   0  0  0  0  0  0  0  0  0  0  0  0
    5.5520   -5.8510   21.9230 N   0  0  0  0  0  0  0  0  0  0  0  0
    5.6580   -5.1030   20.6240 C   0  0  0  0  0  0  0  0  0  0  0  0
    5.3240   -5.6590   19.6250 O   0  0  0  0  0  0  0  0  0  0  0  0
    6.2050   -3.8100   20.6230 N   0  0  0  0  0  0  0  0  0  0  0  0
    5.8170   -2.5450   20.0600 C   0  0  0  0  0  0  0  0  0  0  0  0
    5.2670   -1.5870   20.9310 C   0  0  0  0  0  0  0  0  0  0  0  0
    4.8650   -0.3280   20.5000 C   0  0  0  0  0  0  0  0  0  0  0  0
    5.0040    0.0170   19.1690 C   0  0  0  0  0  0  0  0  0  0  0  0
    5.5470   -0.9060   18.2840 C   0  0  0  0  0  0  0  0  0  0  0  0
    5.9530   -2.1760   18.7180 C   0  0  0  0  0  0  0  0  0  0  0  0
    6.8210   -6.3460   22.4970 C   0  0  0  0  0  0  0  0  0  0  0  0
    7.2850   -5.4590   23.6750 C   0  0  0  0  0  0  0  0  0  0  0  0
  1  2  1  0
  3  2  1  0
  3  4  2  0
  3  5  2  0
  3  6  1  0
  6  7  1  0
  7  8  1  0
  8  9  1  0
  9 10  1  0
 10 11  2  0
 10 12  1  0
 12 13  1  0
 13 14  2  0
 14 15  1  0
 15 16  2  0
 16 17  1  0
 13 18  1  0
 17 18  2  0
  9 19  1  0
  6 20  1  0
 19 20  1  0
M  END
