AHN-SAT-02ef6d10-1-acrylamide
     RDKit          3D

 19 21  0  0  0  0  0  0  0  0999 V2000
    7.2490   -3.1200   19.0250 C   0  0  0  0  0  0  0  0  0  0  0  0
    6.9900   -2.1840   20.1820 C   0  0  0  0  0  0  0  0  0  0  0  0
    5.7380   -2.6830   20.8470 C   0  0  0  0  0  0  0  0  0  0  0  0
    4.8600   -3.1460   20.1450 O   0  0  0  0  0  0  0  0  0  0  0  0
    5.7130   -2.5980   22.2210 N   0  0  0  0  0  0  0  0  0  0  0  0
    6.0590   -3.6080   23.0860 C   0  0  0  0  0  0  0  0  0  0  0  0
    6.1420   -3.2300   24.5510 C   0  0  0  0  0  0  0  0  0  0  0  0
    7.0940   -2.0460   24.5660 C   0  0  0  0  0  0  0  0  0  0  0  0
    6.4090   -0.9210   23.7710 C   0  0  0  0  0  0  0  0  0  0  0  0
    5.2720   -1.3990   22.8610 C   0  0  1  0  0  0  0  0  0  0  0  0
    4.5740   -0.4400   22.0200 C   0  0  0  0  0  0  0  0  0  0  0  0
    3.5930    0.2840   22.5650 N   0  0  0  0  0  0  0  0  0  0  0  0
    2.8370    1.2580   21.8490 C   0  0  0  0  0  0  0  0  0  0  0  0
    2.7100    0.9470   23.0240 C   0  0  0  0  0  0  0  0  0  0  0  0
    3.8070    0.2660   22.0350 C   0  0  0  0  0  0  0  0  0  0  0  0
    4.1320    0.5610   20.3900 C   0  0  0  0  0  0  0  0  0  0  0  0
    3.3720    1.5590   19.6540 C   0  0  0  0  0  0  0  0  0  0  0  0
    3.4750    1.0620   20.7370 C   0  0  0  0  0  0  0  0  0  0  0  0
    4.7640   -0.0500   20.4530 S   0  0  0  0  0  0  0  0  0  0  0  0
  1  2  1  0
  2  3  1  0
  3  4  2  0
  3  5  1  0
  5  6  1  0
  6  7  1  0
  7  8  1  0
  8  9  1  0
  5 10  1  0
  9 10  1  0
 10 11  1  6
 11 12  2  0
 12 13  1  0
 13 14  2  0
 14 15  1  0
 15 16  2  0
 16 17  1  0
 13 18  1  0
 17 18  2  0
 11 19  1  0
 18 19  1  0
M  END
