AHN-SAT-de2502ba-8-acrylamide
     RDKit          3D

 19 20  0  0  0  0  0  0  0  0999 V2000
    6.4580   -4.4620   20.4880 C   0  0  0  0  0  0  0  0  0  0  0  0
    6.4220   -3.4240   21.6590 C   0  0  0  0  0  0  0  0  0  0  0  0
    5.3360   -3.7080   22.7360 C   0  0  0  0  0  0  0  0  0  0  0  0
    4.3820   -4.4280   22.4610 O   0  0  0  0  0  0  0  0  0  0  0  0
    5.3860   -3.1230   24.0320 N   0  0  0  0  0  0  0  0  0  0  0  0
    5.0250   -1.7090   24.2600 C   0  0  0  0  0  0  0  0  0  0  0  0
    5.4070   -1.1630   25.6240 C   0  0  0  0  0  0  0  0  0  0  0  0
    6.4540   -1.9550   26.2650 N   0  0  0  0  0  0  0  0  0  0  0  0
    7.6500   -1.8300   25.4290 C   0  0  0  0  0  0  0  0  0  0  0  0
    8.4130   -0.8760   25.3580 O   0  0  0  0  0  0  0  0  0  0  0  0
    7.8190   -2.9310   24.6290 C   0  0  0  0  0  0  0  0  0  0  0  0
    7.0940   -4.0700   24.9760 C   0  0  0  0  0  0  0  0  0  0  0  0
    6.9520   -5.3790   24.4130 C   0  0  0  0  0  0  0  0  0  0  0  0
    7.8160   -5.2750   23.2920 C   0  0  0  0  0  0  0  0  0  0  0  0
    7.8400   -6.4290   22.5520 C   0  0  0  0  0  0  0  0  0  0  0  0
    8.6050   -4.2140   22.8480 C   0  0  0  0  0  0  0  0  0  0  0  0
    8.6230   -2.9310   23.5560 C   0  0  0  0  0  0  0  0  0  0  0  0
    5.8480   -3.2580   26.5450 C   0  0  0  0  0  0  0  0  0  0  0  0
    5.2380   -3.9340   25.2860 C   0  0  0  0  0  0  0  0  0  0  0  0
  1  2  1  0
  2  3  1  0
  3  4  2  0
  3  5  1  0
  5  6  1  0
  6  7  1  0
  7  8  1  0
  8  9  1  0
  9 10  2  0
  9 11  1  0
 11 12  2  0
 12 13  1  0
 13 14  2  0
 14 15  1  0
 14 16  1  0
 11 17  1  0
 16 17  2  0
  8 18  1  0
  5 19  1  0
 18 19  1  0
M  END
