AHN-SAT-de2502ba-6-nitrile
     RDKit          3D

 17 18  0  0  0  0  0  0  0  0999 V2000
    6.9050   -4.4880   20.2570 C   0  0  0  0  0  0  0  0  0  0  0  0
    5.6790   -4.4890   19.9220 N   0  0  0  0  0  0  0  0  0  0  0  0
    7.3960   -4.7340   21.4760 N   0  0  0  0  0  0  0  0  0  0  0  0
    6.5360   -4.6190   22.6010 C   0  0  0  0  0  0  0  0  0  0  0  0
    7.6600   -3.5350   22.3850 C   0  0  0  0  0  0  0  0  0  0  0  0
    8.0660   -2.3090   23.1490 C   0  0  0  0  0  0  0  0  0  0  0  0
    7.2940   -2.0430   24.3130 C   0  0  0  0  0  0  0  0  0  0  0  0
    6.3060   -2.9520   24.5510 C   0  0  0  0  0  0  0  0  0  0  0  0
    5.3760   -2.6240   25.9760 S   0  0  0  0  0  0  0  0  0  0  0  0
    5.7850   -1.3390   26.5000 O   0  0  0  0  0  0  0  0  0  0  0  0
    4.0030   -2.9300   25.6770 O   0  0  0  0  0  0  0  0  0  0  0  0
    6.0260   -3.8550   26.9080 N   0  0  0  0  0  0  0  0  0  0  0  0
    5.6280   -3.9450   28.3120 C   0  0  0  0  0  0  0  0  0  0  0  0
    6.5190   -4.8790   28.7830 C   0  0  0  0  0  0  0  0  0  0  0  0
    7.6840   -4.8910   28.0020 C   0  0  0  0  0  0  0  0  0  0  0  0
    7.5100   -4.0350   26.8940 C   0  0  0  0  0  0  0  0  0  0  0  0
    5.9550   -4.1000   23.8040 C   0  0  0  0  0  0  0  0  0  0  0  0
  1  2  2  3
  1  3  1  0
  3  4  1  0
  4  5  2  0
  5  6  1  0
  6  7  2  0
  7  8  1  0
  9  8  1  0
  9 10  2  0
  9 11  2  0
  9 12  1  0
 12 13  1  0
 13 14  1  0
 14 15  1  0
 12 16  1  0
 15 16  1  0
  4 17  1  0
  8 17  2  0
M  END
