AHN-SAT-b1e6fbb2-1-vinylsulfonamide
     RDKit          3D

 27 28  0  0  0  0  0  0  0  0999 V2000
    8.7260   -4.1630   20.1440 C   0  0  0  0  0  0  0  0  0  0  0  0
    7.6820   -3.2720   19.4030 C   0  0  0  0  0  0  0  0  0  0  0  0
    6.1110   -3.3510   20.2470 S   0  0  0  0  0  0  0  0  0  0  0  0
    5.1270   -4.3170   19.7600 O   0  0  0  0  0  0  0  0  0  0  0  0
    6.4500   -3.3700   21.6440 O   0  0  0  0  0  0  0  0  0  0  0  0
    5.5030   -1.8490   19.8330 N   0  0  0  0  0  0  0  0  0  0  0  0
    6.1470   -1.1120   18.7530 C   0  0  0  0  0  0  0  0  0  0  0  0
    5.3190    0.0900   18.3010 C   0  0  0  0  0  0  0  0  0  0  0  0
    5.1480   -1.0970   21.0080 C   0  0  0  0  0  0  0  0  0  0  0  0
    4.8820   -2.0460   22.1980 C   0  0  0  0  0  0  0  0  0  0  0  0
    4.4170   -3.2020   22.0570 O   0  0  0  0  0  0  0  0  0  0  0  0
    5.1980   -1.5520   23.4550 N   0  0  0  0  0  0  0  0  0  0  0  0
    5.5090   -0.1420   23.7090 C   0  0  0  0  0  0  0  0  0  0  0  0
    6.8100    0.3160   23.0530 C   0  0  0  0  0  0  0  0  0  0  0  0
    7.6810   -0.7300   22.7430 C   0  0  0  0  0  0  0  0  0  0  0  0
    7.9440   -1.5590   23.9400 N   0  0  0  0  0  0  0  0  0  0  0  0
    9.1670   -1.1380   24.9750 S   0  0  0  0  0  0  0  0  0  0  0  0
    8.8040    0.1050   25.6170 O   0  0  0  0  0  0  0  0  0  0  0  0
    9.5180   -2.3650   25.6620 O   0  0  0  0  0  0  0  0  0  0  0  0
   10.6130   -0.7710   24.0630 C   0  0  0  0  0  0  0  0  0  0  0  0
   11.6020    0.1010   23.9310 C   0  0  0  0  0  0  0  0  0  0  0  0
   12.6750    0.2560   23.1750 C   0  0  0  0  0  0  0  0  0  0  0  0
   12.5220   -0.9060   22.4010 C   0  0  0  0  0  0  0  0  0  0  0  0
   13.4560   -1.5410   21.1530 Cl  0  0  0  0  0  0  0  0  0  0  0  0
   11.1150   -1.8310   22.8220 S   0  0  0  0  0  0  0  0  0  0  0  0
    7.1840   -2.8370   24.1050 C   0  0  0  0  0  0  0  0  0  0  0  0
    5.7070   -2.5660   24.3760 C   0  0  0  0  0  0  0  0  0  0  0  0
  1  2  1  0
  2  3  1  0
  3  4  2  0
  3  5  2  0
  3  6  1  0
  6  7  1  0
  7  8  1  0
  6  9  1  0
  9 10  1  0
 10 11  2  0
 10 12  1  0
 12 13  1  0
 13 14  1  0
 14 15  1  0
 15 16  1  0
 16 17  1  0
 17 18  2  0
 17 19  2  0
 17 20  1  0
 20 21  2  0
 21 22  1  0
 22 23  2  0
 23 24  1  0
 20 25  1  0
 23 25  1  0
 16 26  1  0
 12 27  1  0
 26 27  1  0
M  END
