AHN-SAT-02ef6d10-2-acrylamide
     RDKit          3D

 19 20  0  0  0  0  0  0  0  0999 V2000
    6.2440   -4.9490   20.1540 C   0  0  0  0  0  0  0  0  0  0  0  0
    6.2300   -4.6020   21.6270 C   0  0  0  0  0  0  0  0  0  0  0  0
    6.0740   -3.1070   21.7760 C   0  0  0  0  0  0  0  0  0  0  0  0
    4.9530   -3.3020   21.3190 O   0  0  0  0  0  0  0  0  0  0  0  0
    7.3620   -3.2880   22.2500 N   0  0  0  0  0  0  0  0  0  0  0  0
    7.8010   -3.1220   23.5290 C   0  0  0  0  0  0  0  0  0  0  0  0
    8.5810   -1.8490   23.8370 C   0  0  0  0  0  0  0  0  0  0  0  0
    7.5760   -0.6920   23.8200 C   0  0  0  0  0  0  0  0  0  0  0  0
    6.4090   -0.9220   24.5940 N   0  0  0  0  0  0  0  0  0  0  0  0
    6.5440   -0.8480   26.0640 C   0  0  0  0  0  0  0  0  0  0  0  0
    5.2770   -1.4150   26.7060 C   0  0  0  0  0  0  0  0  0  0  0  0
    5.2440   -2.4320   27.7120 C   0  0  0  0  0  0  0  0  0  0  0  0
    4.0760   -2.9040   28.2450 C   0  0  0  0  0  0  0  0  0  0  0  0
    2.7840   -2.4050   27.8240 C   0  0  0  0  0  0  0  0  0  0  0  0
    1.6280   -2.8570   28.3370 F   0  0  0  0  0  0  0  0  0  0  0  0
    2.7630   -1.3600   26.7920 C   0  0  0  0  0  0  0  0  0  0  0  0
    4.0560   -0.9060   26.2720 C   0  0  0  0  0  0  0  0  0  0  0  0
    5.7860   -2.0620   24.2590 C   0  0  0  0  0  0  0  0  0  0  0  0
    6.5380   -3.1930   24.3990 C   0  0  0  0  0  0  0  0  0  0  0  0
  1  2  1  0
  2  3  1  0
  3  4  2  0
  3  5  1  0
  5  6  1  0
  6  7  1  0
  7  8  1  0
  8  9  1  0
  9 10  1  0
 10 11  1  0
 11 12  2  0
 12 13  1  0
 13 14  2  0
 14 15  1  0
 14 16  1  0
 11 17  1  0
 16 17  2  0
  9 18  1  0
  6 19  1  0
 18 19  1  0
M  END
