AHN-SAT-02ef6d10-2-vinylsulfonamide
     RDKit          3D

 20 21  0  0  0  0  0  0  0  0999 V2000
    8.0340   -3.3460   18.9070 C   0  0  0  0  0  0  0  0  0  0  0  0
    6.8200   -2.5210   18.5620 C   0  0  0  0  0  0  0  0  0  0  0  0
    5.7630   -2.5430   19.9360 S   0  0  0  0  0  0  0  0  0  0  0  0
    5.0760   -3.8030   19.8800 O   0  0  0  0  0  0  0  0  0  0  0  0
    5.0940   -1.2640   20.0680 O   0  0  0  0  0  0  0  0  0  0  0  0
    7.0050   -2.5170   21.0430 N   0  0  0  0  0  0  0  0  0  0  0  0
    7.0880   -3.2770   22.1850 C   0  0  0  0  0  0  0  0  0  0  0  0
    8.2650   -2.7820   23.0240 C   0  0  0  0  0  0  0  0  0  0  0  0
    7.7570   -1.6390   23.8390 C   0  0  0  0  0  0  0  0  0  0  0  0
    6.7370   -2.1340   24.5030 N   0  0  0  0  0  0  0  0  0  0  0  0
    6.4660   -1.5520   25.6560 C   0  0  0  0  0  0  0  0  0  0  0  0
    5.0610   -1.7960   26.1800 C   0  0  0  0  0  0  0  0  0  0  0  0
    4.8010   -2.8420   27.2370 C   0  0  0  0  0  0  0  0  0  0  0  0
    3.5280   -3.1590   27.8020 C   0  0  0  0  0  0  0  0  0  0  0  0
    2.4580   -2.4290   27.3220 C   0  0  0  0  0  0  0  0  0  0  0  0
    1.2180   -2.6440   27.7860 F   0  0  0  0  0  0  0  0  0  0  0  0
    2.6260   -1.4010   26.2990 C   0  0  0  0  0  0  0  0  0  0  0  0
    3.9390   -1.1020   25.7410 C   0  0  0  0  0  0  0  0  0  0  0  0
    5.5500   -2.2980   23.6390 C   0  0  0  0  0  0  0  0  0  0  0  0
    5.8270   -3.3400   22.7930 C   0  0  0  0  0  0  0  0  0  0  0  0
  1  2  1  0
  2  3  1  0
  3  4  2  0
  3  5  2  0
  3  6  1  0
  6  7  1  0
  7  8  1  0
  8  9  1  0
  9 10  1  0
 10 11  1  0
 11 12  1  0
 12 13  2  0
 13 14  1  0
 14 15  2  0
 15 16  1  0
 15 17  1  0
 12 18  1  0
 17 18  2  0
 10 19  1  0
  7 20  1  0
 19 20  1  0
M  END
