AHN-SAT-de2502ba-13-vinylsulfonamide
     RDKit          3D

 22 23  0  0  0  0  0  0  0  0999 V2000
    6.7200   -3.7530   19.8890 C   0  0  0  0  0  0  0  0  0  0  0  0
    7.2820   -3.1080   21.1530 C   0  0  0  0  0  0  0  0  0  0  0  0
    5.9800   -3.0000   22.3590 S   0  0  0  0  0  0  0  0  0  0  0  0
    4.8990   -3.8440   21.8930 O   0  0  0  0  0  0  0  0  0  0  0  0
    5.7410   -1.5940   22.5820 O   0  0  0  0  0  0  0  0  0  0  0  0
    6.6690   -3.7170   23.8090 N   0  0  0  0  0  0  0  0  0  0  0  0
    7.8310   -4.5110   23.4630 C   0  0  0  0  0  0  0  0  0  0  0  0
    6.5510   -5.1770   23.4530 C   0  0  0  0  0  0  0  0  0  0  0  0
    5.1340   -4.9050   23.7700 C   0  0  0  0  0  0  0  0  0  0  0  0
    5.5390   -3.4870   24.1820 C   0  0  0  0  0  0  0  0  0  0  0  0
    4.4380   -2.7370   24.6150 C   0  0  0  0  0  0  0  0  0  0  0  0
    6.8820   -2.7460   24.2100 C   0  0  0  0  0  0  0  0  0  0  0  0
    7.0090   -1.0430   24.7800 S   0  0  0  0  0  0  0  0  0  0  0  0
    8.3790   -0.6100   24.5850 O   0  0  0  0  0  0  0  0  0  0  0  0
    5.9150   -0.2730   24.2250 O   0  0  0  0  0  0  0  0  0  0  0  0
    6.7810   -1.1400   26.4700 N   0  0  0  0  0  0  0  0  0  0  0  0
    7.6900   -0.2120   27.2230 C   0  0  0  0  0  0  0  0  0  0  0  0
    7.5240   -0.5010   28.5840 C   0  0  0  0  0  0  0  0  0  0  0  0
    6.2510   -0.0090   29.0370 O   0  0  0  0  0  0  0  0  0  0  0  0
    5.2670    0.0960   27.9930 C   0  0  0  0  0  0  0  0  0  0  0  0
    5.4000   -1.0480   26.9670 C   0  0  0  0  0  0  0  0  0  0  0  0
    8.1380   -3.3030   23.8080 C   0  0  0  0  0  0  0  0  0  0  0  0
  1  2  1  0
  2  3  1  0
  3  4  2  0
  3  5  2  0
  3  6  1  0
  6  7  1  0
  7  8  2  0
  8  9  1  0
  9 10  2  0
 10 11  1  0
 10 12  1  0
 13 12  1  0
 13 14  2  0
 13 15  2  0
 13 16  1  0
 16 17  1  0
 17 18  1  0
 18 19  1  0
 19 20  1  0
 16 21  1  0
 20 21  1  0
  7 22  1  0
 12 22  2  0
M  END
