AHN-SAT-de2502ba-15-vinylsulfonamide
     RDKit          3D

 20 21  0  0  0  0  0  0  0  0999 V2000
    7.6820   -4.6350   20.8540 C   0  0  0  0  0  0  0  0  0  0  0  0
    6.3200   -4.1130   21.3010 C   0  0  0  0  0  0  0  0  0  0  0  0
    5.6100   -5.2150   22.5070 S   0  0  0  0  0  0  0  0  0  0  0  0
    4.1900   -4.9330   22.4900 O   0  0  0  0  0  0  0  0  0  0  0  0
    6.0920   -6.5590   22.2920 O   0  0  0  0  0  0  0  0  0  0  0  0
    6.2890   -4.6770   23.9800 N   0  0  0  0  0  0  0  0  0  0  0  0
    7.6780   -5.0730   24.2110 C   0  0  0  0  0  0  0  0  0  0  0  0
    8.1240   -4.7290   25.6490 C   0  0  0  0  0  0  0  0  0  0  0  0
    7.3510   -3.6420   26.3040 N   0  0  0  0  0  0  0  0  0  0  0  0
    7.7440   -2.2540   25.9410 C   0  0  0  0  0  0  0  0  0  0  0  0
    7.8230   -1.9520   24.5630 C   0  0  0  0  0  0  0  0  0  0  0  0
    8.6180   -2.3900   23.5850 C   0  0  0  0  0  0  0  0  0  0  0  0
    9.2000   -3.1500   24.5120 F   0  0  0  0  0  0  0  0  0  0  0  0
    9.4930   -2.9410   22.7610 C   0  0  0  0  0  0  0  0  0  0  0  0
    8.7110   -2.0360   21.9530 C   0  0  0  0  0  0  0  0  0  0  0  0
    7.6010   -1.1720   22.4110 C   0  0  0  0  0  0  0  0  0  0  0  0
    7.1240   -1.1110   23.7610 C   0  0  0  0  0  0  0  0  0  0  0  0
    5.8200   -0.0680   24.2170 Cl  0  0  0  0  0  0  0  0  0  0  0  0
    5.8950   -3.8860   26.3180 C   0  0  0  0  0  0  0  0  0  0  0  0
    5.4270   -4.7950   25.1590 C   0  0  0  0  0  0  0  0  0  0  0  0
  1  2  1  0
  3  2  1  0
  3  4  2  0
  3  5  2  0
  3  6  1  0
  6  7  1  0
  7  8  1  0
  8  9  1  0
  9 10  1  0
 10 11  1  0
 11 12  2  0
 12 13  1  0
 12 14  1  0
 14 15  2  0
 15 16  1  0
 11 17  1  0
 16 17  2  0
 17 18  1  0
  9 19  1  0
  6 20  1  0
 19 20  1  0
M  END
