AHN-SAT-02ef6d10-1-chloroacetamide
     RDKit          3D

 18 20  0  0  0  0  0  0  0  0999 V2000
    7.3940   -3.7390   20.3700 C   0  0  0  0  0  0  0  0  0  0  0  0
    6.0540   -3.0540   20.4400 C   0  0  0  0  0  0  0  0  0  0  0  0
    5.3590   -3.2510   19.3810 O   0  0  0  0  0  0  0  0  0  0  0  0
    5.5840   -2.4020   21.6920 N   0  0  0  0  0  0  0  0  0  0  0  0
    5.6750   -3.2900   22.7490 C   0  0  0  0  0  0  0  0  0  0  0  0
    5.2850   -2.7580   24.1280 C   0  0  0  0  0  0  0  0  0  0  0  0
    6.2960   -1.7100   24.5730 C   0  0  0  0  0  0  0  0  0  0  0  0
    7.0110   -1.2530   23.3130 C   0  0  0  0  0  0  0  0  0  0  0  0
    5.8960   -0.9740   22.2840 C   0  0  2  0  0  0  0  0  0  0  0  0
    4.8150    0.2280   22.8830 C   0  0  0  0  0  0  0  0  0  0  0  0
    3.7040    0.7800   23.4390 N   0  0  0  0  0  0  0  0  0  0  0  0
    3.2070    2.0490   23.7820 C   0  0  0  0  0  0  0  0  0  0  0  0
    2.3530    3.1410   24.2620 C   0  0  0  0  0  0  0  0  0  0  0  0
    0.9970    3.1990   24.8450 C   0  0  0  0  0  0  0  0  0  0  0  0
    0.3150    1.9610   25.0050 C   0  0  0  0  0  0  0  0  0  0  0  0
    1.0880    0.8230   24.5660 C   0  0  0  0  0  0  0  0  0  0  0  0
    2.3920    0.8750   24.0180 C   0  0  0  0  0  0  0  0  0  0  0  0
    3.3860   -0.5960   23.4650 S   0  0  0  0  0  0  0  0  0  0  0  0
  1  2  1  0
  2  3  2  0
  2  4  1  0
  4  5  1  0
  5  6  1  0
  6  7  1  0
  7  8  1  0
  4  9  1  0
  8  9  1  0
  9 10  1  1
 10 11  2  0
 11 12  1  0
 12 13  2  0
 13 14  1  0
 14 15  2  0
 15 16  1  0
 12 17  1  0
 16 17  2  0
 10 18  1  0
 17 18  1  0
M  END
