AHN-SAT-de2502ba-13-acrylamide
     RDKit          3D

 21 22  0  0  0  0  0  0  0  0999 V2000
    7.6410   -2.9890   18.4060 C   0  0  0  0  0  0  0  0  0  0  0  0
    6.8540   -2.7190   19.6600 C   0  0  0  0  0  0  0  0  0  0  0  0
    6.2750   -3.9910   20.2170 C   0  0  0  0  0  0  0  0  0  0  0  0
    5.1730   -4.4420   19.8460 O   0  0  0  0  0  0  0  0  0  0  0  0
    7.0350   -4.6250   21.1750 N   0  0  0  0  0  0  0  0  0  0  0  0
    6.7320   -4.2590   22.4800 C   0  0  0  0  0  0  0  0  0  0  0  0
    6.0410   -5.5090   23.0230 C   0  0  0  0  0  0  0  0  0  0  0  0
    5.8090   -4.9470   24.2530 C   0  0  0  0  0  0  0  0  0  0  0  0
    6.1110   -3.7250   24.7250 C   0  0  0  0  0  0  0  0  0  0  0  0
    5.7480   -3.4060   26.0050 C   0  0  0  0  0  0  0  0  0  0  0  0
    6.7510   -2.8120   23.9740 C   0  0  0  0  0  0  0  0  0  0  0  0
    7.1080   -1.2230   24.6720 S   0  0  0  0  0  0  0  0  0  0  0  0
    8.3470   -0.7540   24.0800 O   0  0  0  0  0  0  0  0  0  0  0  0
    6.9720   -1.2420   26.1140 O   0  0  0  0  0  0  0  0  0  0  0  0
    5.8490   -0.2020   24.1080 N   0  0  0  0  0  0  0  0  0  0  0  0
    6.2940    1.0860   23.4530 C   0  0  0  0  0  0  0  0  0  0  0  0
    5.3330    1.4960   22.5250 C   0  0  0  0  0  0  0  0  0  0  0  0
    4.0290    1.3990   23.1030 O   0  0  0  0  0  0  0  0  0  0  0  0
    3.5850    0.0450   23.1590 C   0  0  0  0  0  0  0  0  0  0  0  0
    4.7640   -0.9120   23.3890 C   0  0  0  0  0  0  0  0  0  0  0  0
    7.1900   -2.9180   22.6890 C   0  0  0  0  0  0  0  0  0  0  0  0
  1  2  1  0
  2  3  1  0
  3  4  2  0
  3  5  1  0
  5  6  1  0
  6  7  2  0
  7  8  1  0
  8  9  2  0
  9 10  1  0
  9 11  1  0
 12 11  1  0
 12 13  2  0
 12 14  2  0
 12 15  1  0
 15 16  1  0
 16 17  1  0
 17 18  1  0
 18 19  1  0
 15 20  1  0
 19 20  1  0
  6 21  1  0
 11 21  2  0
M  END
