AHN-SAT-de2502ba-4-nitrile
     RDKit          3D

 18 19  0  0  0  0  0  0  0  0999 V2000
    6.9800   -3.9540   20.0710 C   0  0  0  0  0  0  0  0  0  0  0  0
    5.7690   -3.9590   19.6500 N   0  0  0  0  0  0  0  0  0  0  0  0
    7.3720   -4.4920   21.2390 N   0  0  0  0  0  0  0  0  0  0  0  0
    7.0770   -3.7240   22.3890 C   0  0  0  0  0  0  0  0  0  0  0  0
    6.5380   -5.1920   22.2240 C   0  0  0  0  0  0  0  0  0  0  0  0
    5.6790   -6.0430   23.1100 C   0  0  0  0  0  0  0  0  0  0  0  0
    5.2510   -5.4200   24.3360 C   0  0  0  0  0  0  0  0  0  0  0  0
    5.6980   -4.1350   24.5220 C   0  0  0  0  0  0  0  0  0  0  0  0
    5.1190   -3.4060   26.0060 S   0  0  0  0  0  0  0  0  0  0  0  0
    4.5970   -2.1290   25.5970 O   0  0  0  0  0  0  0  0  0  0  0  0
    4.2420   -4.3590   26.6530 O   0  0  0  0  0  0  0  0  0  0  0  0
    6.4110   -3.1310   27.0570 N   0  0  0  0  0  0  0  0  0  0  0  0
    5.9790   -2.9920   28.4640 C   0  0  0  0  0  0  0  0  0  0  0  0
    5.7800   -4.2580   28.9700 C   0  0  0  0  0  0  0  0  0  0  0  0
    7.0200   -4.9550   28.9540 O   0  0  0  0  0  0  0  0  0  0  0  0
    7.4910   -5.1500   27.6120 C   0  0  0  0  0  0  0  0  0  0  0  0
    7.6920   -3.9040   26.9670 C   0  0  0  0  0  0  0  0  0  0  0  0
    6.5180   -3.3720   23.6690 C   0  0  0  0  0  0  0  0  0  0  0  0
  1  2  2  3
  1  3  1  0
  3  4  1  0
  4  5  2  0
  5  6  1  0
  6  7  2  0
  7  8  1  0
  9  8  1  0
  9 10  2  0
  9 11  2  0
  9 12  1  0
 12 13  1  0
 13 14  1  0
 14 15  1  0
 15 16  1  0
 12 17  1  0
 16 17  1  0
  4 18  1  0
  8 18  2  0
M  END
