AHN-SAT-de2502ba-14-acrylamide
     RDKit          3D

 19 20  0  0  0  0  0  0  0  0999 V2000
    7.2050   -2.8600   18.5960 C   0  0  0  0  0  0  0  0  0  0  0  0
    6.1220   -2.5150   19.6000 C   0  0  0  0  0  0  0  0  0  0  0  0
    5.7440   -3.7590   20.3700 C   0  0  0  0  0  0  0  0  0  0  0  0
    5.1210   -4.6690   19.8440 O   0  0  0  0  0  0  0  0  0  0  0  0
    6.2340   -3.8720   21.6350 N   0  0  0  0  0  0  0  0  0  0  0  0
    6.2140   -5.1190   22.3560 C   0  0  0  0  0  0  0  0  0  0  0  0
    5.8800   -4.8200   23.7790 C   0  0  0  0  0  0  0  0  0  0  0  0
    6.4360   -3.5510   24.3330 N   0  0  0  0  0  0  0  0  0  0  0  0
    5.5210   -2.9190   25.2530 C   0  0  0  0  0  0  0  0  0  0  0  0
    5.8580   -3.4250   26.4560 C   0  0  0  0  0  0  0  0  0  0  0  0
    6.9490   -4.2610   26.5150 C   0  0  0  0  0  0  0  0  0  0  0  0
    7.1770   -4.7800   27.7120 C   0  0  0  0  0  0  0  0  0  0  0  0
    7.1300   -5.4650   28.9460 C   0  0  0  0  0  0  0  0  0  0  0  0
    6.2070   -6.3130   29.6070 C   0  0  0  0  0  0  0  0  0  0  0  0
    4.9060   -6.6970   28.9860 C   0  0  0  0  0  0  0  0  0  0  0  0
    4.7790   -6.0800   27.6760 C   0  0  0  0  0  0  0  0  0  0  0  0
    5.8990   -5.1930   27.1630 C   0  0  0  0  0  0  0  0  0  0  0  0
    7.1680   -2.6080   23.4720 C   0  0  0  0  0  0  0  0  0  0  0  0
    7.3730   -3.0650   22.0520 C   0  0  0  0  0  0  0  0  0  0  0  0
  1  2  1  0
  2  3  1  0
  3  4  2  0
  3  5  1  0
  5  6  1  0
  6  7  1  0
  7  8  1  0
  8  9  1  0
  9 10  1  0
 10 11  2  3
 11 12  1  0
 12 13  2  0
 13 14  1  0
 14 15  2  0
 15 16  1  0
 12 17  1  0
 16 17  2  0
  8 18  1  0
  5 19  1  0
 18 19  1  0
M  END
