AHN-SAT-de2502ba-6-acrylamide
     RDKit          3D

 19 20  0  0  0  0  0  0  0  0999 V2000
    8.1410   -3.5880   19.1800 C   0  0  0  0  0  0  0  0  0  0  0  0
    7.0210   -2.6190   19.3610 C   0  0  0  0  0  0  0  0  0  0  0  0
    6.0940   -3.3140   20.2650 C   0  0  0  0  0  0  0  0  0  0  0  0
    4.9730   -3.5100   19.9030 O   0  0  0  0  0  0  0  0  0  0  0  0
    6.6410   -3.7700   21.4490 N   0  0  0  0  0  0  0  0  0  0  0  0
    6.4980   -3.1100   22.6480 C   0  0  0  0  0  0  0  0  0  0  0  0
    5.9460   -4.5950   22.3610 C   0  0  0  0  0  0  0  0  0  0  0  0
    5.2610   -5.4260   23.2230 C   0  0  0  0  0  0  0  0  0  0  0  0
    5.1220   -4.8010   24.3120 C   0  0  0  0  0  0  0  0  0  0  0  0
    5.4260   -3.6650   24.8360 C   0  0  0  0  0  0  0  0  0  0  0  0
    4.9850   -3.1850   26.4460 S   0  0  0  0  0  0  0  0  0  0  0  0
    4.1890   -4.2590   27.0060 O   0  0  0  0  0  0  0  0  0  0  0  0
    4.4770   -1.8490   26.3370 O   0  0  0  0  0  0  0  0  0  0  0  0
    6.4260   -3.0960   27.3200 N   0  0  0  0  0  0  0  0  0  0  0  0
    7.4030   -4.2130   27.0580 C   0  0  0  0  0  0  0  0  0  0  0  0
    7.3180   -5.0920   28.1550 C   0  0  0  0  0  0  0  0  0  0  0  0
    6.1920   -4.7380   28.8960 C   0  0  0  0  0  0  0  0  0  0  0  0
    6.0230   -3.2270   28.7110 C   0  0  0  0  0  0  0  0  0  0  0  0
    6.1250   -2.8160   24.0090 C   0  0  0  0  0  0  0  0  0  0  0  0
  1  2  1  0
  2  3  1  0
  3  4  2  0
  3  5  1  0
  5  6  1  0
  6  7  2  0
  7  8  1  0
  8  9  2  0
  9 10  1  0
 11 10  1  0
 11 12  2  0
 11 13  2  0
 11 14  1  0
 14 15  1  0
 15 16  1  0
 16 17  1  0
 14 18  1  0
 17 18  1  0
  6 19  1  0
 10 19  2  0
M  END
