AHN-SAT-02ef6d10-1-acrylamide
     RDKit          3D

 19 21  0  0  0  0  0  0  0  0999 V2000
    8.0130   -3.5230   20.6110 C   0  0  0  0  0  0  0  0  0  0  0  0
    7.0790   -2.2520   20.7280 C   0  0  0  0  0  0  0  0  0  0  0  0
    5.5740   -2.4470   21.1200 C   0  0  0  0  0  0  0  0  0  0  0  0
    4.9240   -3.1450   20.3270 O   0  0  0  0  0  0  0  0  0  0  0  0
    4.9740   -1.9750   22.3960 N   0  0  0  0  0  0  0  0  0  0  0  0
    5.2180   -3.0320   23.3600 C   0  0  0  0  0  0  0  0  0  0  0  0
    6.3770   -2.7340   24.2860 C   0  0  0  0  0  0  0  0  0  0  0  0
    6.8010   -1.2550   24.2770 C   0  0  0  0  0  0  0  0  0  0  0  0
    6.0190   -0.2660   23.3820 C   0  0  0  0  0  0  0  0  0  0  0  0
    4.5280   -0.4900   23.0630 C   0  0  2  0  0  0  0  0  0  0  0  0
    3.7230   -0.5320   24.4490 C   0  0  0  0  0  0  0  0  0  0  0  0
    4.2790   -1.3400   24.1990 N   0  0  0  0  0  0  0  0  0  0  0  0
    3.4780    0.0800   24.2900 C   0  0  0  0  0  0  0  0  0  0  0  0
    3.6340    0.8720   23.0700 C   0  0  0  0  0  0  0  0  0  0  0  0
    2.7900    1.9870   23.6380 C   0  0  0  0  0  0  0  0  0  0  0  0
    2.0420    3.2760   23.8220 C   0  0  0  0  0  0  0  0  0  0  0  0
    1.9300    2.4010   24.9160 C   0  0  0  0  0  0  0  0  0  0  0  0
    2.7870    1.3080   24.3650 C   0  0  0  0  0  0  0  0  0  0  0  0
    2.6850    0.2290   25.6140 S   0  0  0  0  0  0  0  0  0  0  0  0
  1  2  1  0
  2  3  1  0
  3  4  2  0
  3  5  1  0
  5  6  1  0
  6  7  1  0
  7  8  1  0
  8  9  1  0
  5 10  1  0
  9 10  1  0
 10 11  1  1
 11 12  2  0
 12 13  1  0
 13 14  2  0
 14 15  1  0
 15 16  2  0
 16 17  1  0
 13 18  1  0
 17 18  2  0
 11 19  1  0
 18 19  1  0
M  END
