AHN-SAT-de2502ba-5-nitrile
     RDKit          3D

 18 19  0  0  0  0  0  0  0  0999 V2000
    6.9790   -4.1990   20.2520 C   0  0  0  0  0  0  0  0  0  0  0  0
    5.7870   -4.4900   19.9050 N   0  0  0  0  0  0  0  0  0  0  0  0
    7.5090   -4.5260   21.4320 N   0  0  0  0  0  0  0  0  0  0  0  0
    7.1580   -3.7030   22.5210 C   0  0  0  0  0  0  0  0  0  0  0  0
    6.5990   -5.1690   22.3810 C   0  0  0  0  0  0  0  0  0  0  0  0
    5.6650   -5.9720   23.2430 C   0  0  0  0  0  0  0  0  0  0  0  0
    5.1770   -5.2940   24.4140 C   0  0  0  0  0  0  0  0  0  0  0  0
    5.6370   -4.0080   24.5790 C   0  0  0  0  0  0  0  0  0  0  0  0
    5.0290   -3.1700   25.9920 S   0  0  0  0  0  0  0  0  0  0  0  0
    4.7470   -1.8350   25.5510 O   0  0  0  0  0  0  0  0  0  0  0  0
    3.9850   -3.9790   26.5890 O   0  0  0  0  0  0  0  0  0  0  0  0
    6.3260   -3.1510   27.0710 N   0  0  0  0  0  0  0  0  0  0  0  0
    5.9230   -3.3140   28.4870 C   0  0  0  0  0  0  0  0  0  0  0  0
    6.0350   -4.6510   28.8100 C   0  0  0  0  0  0  0  0  0  0  0  0
    7.3110   -5.1530   28.5490 C   0  0  0  0  0  0  0  0  0  0  0  0
    7.5970   -5.1330   27.1840 C   0  0  0  0  0  0  0  0  0  0  0  0
    7.5870   -3.8240   26.6910 C   0  0  0  0  0  0  0  0  0  0  0  0
    6.5250   -3.3150   23.7290 C   0  0  0  0  0  0  0  0  0  0  0  0
  1  2  2  3
  1  3  1  0
  3  4  1  0
  4  5  2  0
  5  6  1  0
  6  7  2  0
  7  8  1  0
  9  8  1  0
  9 10  2  0
  9 11  2  0
  9 12  1  0
 12 13  1  0
 13 14  1  0
 14 15  1  0
 15 16  1  0
 12 17  1  0
 16 17  1  0
  4 18  1  0
  8 18  2  0
M  END
