AHN-SAT-02ef6d10-1-nitrile
     RDKit          3D

 17 19  0  0  0  0  0  0  0  0999 V2000
    7.2260   -4.0930   19.9800 C   0  0  0  0  0  0  0  0  0  0  0  0
    6.9160   -3.3470   18.9740 N   0  0  0  0  0  0  0  0  0  0  0  0
    6.6210   -3.8670   21.1740 N   0  0  0  0  0  0  0  0  0  0  0  0
    5.3380   -3.4420   20.6920 C   0  0  0  0  0  0  0  0  0  0  0  0
    5.5850   -2.1280   19.9900 C   0  0  0  0  0  0  0  0  0  0  0  0
    6.2080   -1.2360   21.0450 C   0  0  0  0  0  0  0  0  0  0  0  0
    6.0750   -1.9360   22.4010 C   0  0  0  0  0  0  0  0  0  0  0  0
    7.0550   -3.0870   22.4170 C   0  0  2  0  0  0  0  0  0  0  0  0
    8.4030   -2.3570   22.7040 C   0  0  0  0  0  0  0  0  0  0  0  0
    9.6200   -2.8510   22.7940 N   0  0  0  0  0  0  0  0  0  0  0  0
   10.5640   -1.8520   23.0890 C   0  0  0  0  0  0  0  0  0  0  0  0
   11.9430   -2.0480   23.2330 C   0  0  0  0  0  0  0  0  0  0  0  0
   12.7830   -0.9760   23.5250 C   0  0  0  0  0  0  0  0  0  0  0  0
   12.2710    0.3020   23.6880 C   0  0  0  0  0  0  0  0  0  0  0  0
   10.9110    0.5370   23.5600 C   0  0  0  0  0  0  0  0  0  0  0  0
   10.0610   -0.5530   23.2490 C   0  0  0  0  0  0  0  0  0  0  0  0
    8.3590   -0.6500   22.9860 S   0  0  0  0  0  0  0  0  0  0  0  0
  1  2  2  3
  1  3  1  0
  3  4  1  0
  4  5  1  0
  5  6  1  0
  6  7  1  0
  3  8  1  0
  7  8  1  0
  8  9  1  6
  9 10  2  0
 10 11  1  0
 11 12  2  0
 12 13  1  0
 13 14  2  0
 14 15  1  0
 11 16  1  0
 15 16  2  0
  9 17  1  0
 16 17  1  0
M  END
