ALE-HEI-f28a35b5-3
     RDKit          3D

 17 18  0  0  0  0  0  0  0  0999 V2000
   12.8870    1.3880   23.2150 C   0  0  0  0  0  0  0  0  0  0  0  0
   11.9360    0.3510   22.9310 C   0  0  0  0  0  0  0  0  0  0  0  0
   12.4340   -0.8870   22.3920 N   0  0  0  0  0  0  0  0  0  0  0  0
   11.3410   -1.6740   22.1760 N   0  0  0  0  0  0  0  0  0  0  0  0
   10.2030   -1.0760   22.5240 C   0  0  0  0  0  0  0  0  0  0  0  0
    8.9680   -1.6230   22.3740 C   0  0  0  0  0  0  0  0  0  0  0  0
    8.2140   -0.5670   21.5450 C   0  0  0  0  0  0  0  0  0  0  0  0
    8.6830    0.5640   21.4240 O   0  0  0  0  0  0  0  0  0  0  0  0
    7.0290   -0.9570   20.9810 N   0  0  0  0  0  0  0  0  0  0  0  0
    6.3240   -0.1110   20.1170 C   0  0  0  0  0  0  0  0  0  0  0  0
    6.6830   -0.1980   18.6480 C   0  0  0  0  0  0  0  0  0  0  0  0
    6.1220    0.5420   17.6550 N   0  0  0  0  0  0  0  0  0  0  0  0
    5.1840    1.3980   18.0580 C   0  0  0  0  0  0  0  0  0  0  0  0
    4.7550    1.5600   19.4980 C   0  0  0  0  0  0  0  0  0  0  0  0
    5.3450    0.7910   20.5120 C   0  0  0  0  0  0  0  0  0  0  0  0
    4.9920    0.9110   21.8600 C   0  0  0  0  0  0  0  0  0  0  0  0
   10.2860    0.5040   23.1830 S   0  0  0  0  0  0  0  0  0  0  0  0
  1  2  1  0
  2  3  2  0
  3  4  1  0
  4  5  2  0
  5  6  1  0
  6  7  1  0
  7  8  2  0
  7  9  1  0
  9 10  1  0
 10 11  2  0
 11 12  1  0
 12 13  2  0
 13 14  1  0
 10 15  1  0
 14 15  2  0
 15 16  1  0
  2 17  1  0
  5 17  1  0
M  END
