ALE-ACE-2610ee4d-1
     RDKit          3D

 17 18  0  0  0  0  0  0  0  0999 V2000
   13.2420   -2.1190   20.9120 C   0  0  0  0  0  0  0  0  0  0  0  0
   13.5460   -1.9160   22.2590 O   0  0  0  0  0  0  0  0  0  0  0  0
   12.6580   -1.0870   22.7900 C   0  0  0  0  0  0  0  0  0  0  0  0
   11.4420   -1.6390   23.5050 C   0  0  0  0  0  0  0  0  0  0  0  0
   10.4370   -0.6860   24.0840 C   0  0  0  0  0  0  0  0  0  0  0  0
   10.7700    0.7600   23.8690 C   0  0  0  0  0  0  0  0  0  0  0  0
    9.9700    1.8010   24.3160 N   0  0  0  0  0  0  0  0  0  0  0  0
   10.5150    3.0230   23.9740 C   0  0  0  0  0  0  0  0  0  0  0  0
   11.7700    2.6680   23.2480 C   0  0  0  0  0  0  0  0  0  0  0  0
   12.6800    3.7530   22.6850 C   0  0  0  0  0  0  0  0  0  0  0  0
   12.3510    5.1000   23.3220 C   0  0  0  0  0  0  0  0  0  0  0  0
   11.2170    5.6740   22.5780 N   0  0  0  0  0  0  0  0  0  0  0  0
   10.1640    6.2730   23.3220 C   0  0  0  0  0  0  0  0  0  0  0  0
    8.9300    6.7270   22.5670 C   0  0  0  0  0  0  0  0  0  0  0  0
   10.2370    6.4250   24.5390 O   0  0  0  0  0  0  0  0  0  0  0  0
   11.9170    1.2540   23.1950 C   0  0  0  0  0  0  0  0  0  0  0  0
   12.8230    0.3190   22.6880 C   0  0  0  0  0  0  0  0  0  0  0  0
  1  2  1  0
  2  3  1  0
  3  4  2  0
  4  5  1  0
  5  6  2  0
  6  7  1  0
  7  8  1  0
  8  9  2  0
  9 10  1  0
 10 11  1  0
 11 12  1  0
 12 13  1  0
 13 14  1  0
 13 15  2  0
  6 16  1  0
  9 16  1  0
  3 17  1  0
 16 17  2  0
M  END
