ALE-HEI-f28a35b5-7
     RDKit          3D

 17 18  0  0  0  0  0  0  0  0999 V2000
    5.2000    1.0960   21.8590 C   0  0  0  0  0  0  0  0  0  0  0  0
    5.6120    0.8170   20.4410 C   0  0  0  0  0  0  0  0  0  0  0  0
    4.7780    1.2260   19.3880 C   0  0  0  0  0  0  0  0  0  0  0  0
    5.1670    0.9590   18.0950 C   0  0  0  0  0  0  0  0  0  0  0  0
    6.2980    0.3290   17.7860 N   0  0  0  0  0  0  0  0  0  0  0  0
    7.0900   -0.0540   18.8000 C   0  0  0  0  0  0  0  0  0  0  0  0
    6.8120    0.1600   20.1350 C   0  0  0  0  0  0  0  0  0  0  0  0
    7.6650   -0.2260   21.1810 N   0  0  0  0  0  0  0  0  0  0  0  0
    8.7000    0.5350   21.7010 C   0  0  0  0  0  0  0  0  0  0  0  0
    9.0560    1.6320   21.2570 O   0  0  0  0  0  0  0  0  0  0  0  0
    9.2870   -0.1120   22.7780 N   0  0  0  0  0  0  0  0  0  0  0  0
   10.6660   -0.3740   22.9150 C   0  0  0  0  0  0  0  0  0  0  0  0
   11.3660   -1.4950   22.1670 C   0  0  0  0  0  0  0  0  0  0  0  0
   12.6430   -1.8360   22.6100 C   0  0  0  0  0  0  0  0  0  0  0  0
   13.2480   -1.0280   23.5790 C   0  0  0  0  0  0  0  0  0  0  0  0
   12.5150   -0.2510   24.4930 C   0  0  0  0  0  0  0  0  0  0  0  0
   11.0420   -0.5790   24.3740 C   0  0  0  0  0  0  0  0  0  0  0  0
  1  2  1  0
  2  3  2  0
  3  4  1  0
  4  5  2  0
  5  6  1  0
  2  7  1  0
  6  7  2  0
  7  8  1  0
  8  9  1  0
  9 10  2  0
  9 11  1  0
 11 12  1  0
 12 13  1  0
 13 14  1  0
 14 15  1  0
 15 16  1  0
 12 17  1  0
 16 17  1  0
M  END
