ALE-MCD-4ac17b19-1
     RDKit          3D

 28 30  0  0  0  0  0  0  0  0999 V2000
    7.2800   -3.0460   20.7420 C   0  0  0  0  0  0  0  0  0  0  0  0
    6.3010   -4.2120   20.7230 C   0  0  0  0  0  0  0  0  0  0  0  0
    5.4460   -4.3100   19.8420 O   0  0  0  0  0  0  0  0  0  0  0  0
    6.5440   -5.1250   21.8270 N   0  0  0  0  0  0  0  0  0  0  0  0
    7.1810   -4.7090   22.9930 C   0  0  0  0  0  0  0  0  0  0  0  0
    6.3960   -4.4170   24.0840 C   0  0  0  0  0  0  0  0  0  0  0  0
    5.4150   -5.4910   24.3700 N   0  0  0  0  0  0  0  0  0  0  0  0
    4.6660   -5.5540   25.9000 S   0  0  0  0  0  0  0  0  0  0  0  0
    3.9530   -6.8090   25.9900 O   0  0  0  0  0  0  0  0  0  0  0  0
    5.6530   -5.1640   26.8800 O   0  0  0  0  0  0  0  0  0  0  0  0
    3.4480   -4.2560   25.8520 C   0  0  0  0  0  0  0  0  0  0  0  0
    2.1030   -4.5710   25.7520 C   0  0  0  0  0  0  0  0  0  0  0  0
    1.1630   -3.5520   25.7270 C   0  0  0  0  0  0  0  0  0  0  0  0
    1.4630   -2.1000   25.7990 C   0  0  0  0  0  0  0  0  0  0  0  0
    0.4770   -1.1450   25.7730 N   0  0  0  0  0  0  0  0  0  0  0  0
   -0.8800   -1.3870   25.9580 C   0  0  0  0  0  0  0  0  0  0  0  0
   -1.4840   -2.3690   25.5440 O   0  0  0  0  0  0  0  0  0  0  0  0
   -1.4340   -0.3670   26.6820 N   0  0  0  0  0  0  0  0  0  0  0  0
   -2.5840    0.0600   26.0540 C   0  0  0  0  0  0  0  0  0  0  0  0
   -2.9050    1.0970   25.0370 C   0  0  0  0  0  0  0  0  0  0  0  0
   -4.1740    1.2960   24.5980 C   0  0  0  0  0  0  0  0  0  0  0  0
   -5.2670    0.4630   25.1400 C   0  0  0  0  0  0  0  0  0  0  0  0
   -5.2020   -0.4970   26.0340 N   0  0  0  0  0  0  0  0  0  0  0  0
   -3.8950   -0.6780   26.4650 C   0  0  0  0  0  0  0  0  0  0  0  0
    2.8150   -1.7940   25.8930 C   0  0  0  0  0  0  0  0  0  0  0  0
    3.8460   -2.9200   25.9200 C   0  0  0  0  0  0  0  0  0  0  0  0
    4.6520   -5.9250   23.1730 C   0  0  0  0  0  0  0  0  0  0  0  0
    5.6750   -6.2570   22.0900 C   0  0  0  0  0  0  0  0  0  0  0  0
  1  2  1  0
  2  3  2  0
  2  4  1  0
  4  5  1  0
  5  6  1  0
  6  7  1  0
  7  8  1  0
  8  9  2  0
  8 10  2  0
  8 11  1  0
 11 12  2  0
 12 13  1  0
 13 14  2  0
 14 15  1  0
 15 16  1  0
 16 17  2  0
 16 18  1  0
 18 19  1  0
 19 20  2  0
 20 21  1  0
 21 22  2  0
 22 23  1  0
 19 24  1  0
 23 24  2  0
 14 25  1  0
 11 26  1  0
 25 26  2  0
  7 27  1  0
  4 28  1  0
 27 28  1  0
M  END
