ALE-HEI-f28a35b5-16
     RDKit          3D

 16 17  0  0  0  0  0  0  0  0999 V2000
   12.8250   -1.4310   23.3750 C   0  0  0  0  0  0  0  0  0  0  0  0
   12.2710   -0.3370   24.0180 N   0  0  0  0  0  0  0  0  0  0  0  0
   12.3490    0.8300   23.2120 C   0  0  0  0  0  0  0  0  0  0  0  0
   10.9610    1.4660   22.9190 C   0  0  0  0  0  0  0  0  0  0  0  0
   10.0220    0.4660   22.3320 N   0  0  0  0  0  0  0  0  0  0  0  0
    8.9100    0.8770   21.5690 C   0  0  0  0  0  0  0  0  0  0  0  0
    8.8340    2.0400   21.1960 O   0  0  0  0  0  0  0  0  0  0  0  0
    7.9440   -0.0760   21.2500 N   0  0  0  0  0  0  0  0  0  0  0  0
    6.9480    0.1270   20.2670 C   0  0  0  0  0  0  0  0  0  0  0  0
    5.7370    0.7050   20.6700 C   0  0  0  0  0  0  0  0  0  0  0  0
    4.7340    0.9440   19.7320 C   0  0  0  0  0  0  0  0  0  0  0  0
    4.9710    0.5980   18.4150 C   0  0  0  0  0  0  0  0  0  0  0  0
    6.1120    0.0380   17.9920 N   0  0  0  0  0  0  0  0  0  0  0  0
    7.0660   -0.1880   18.9200 C   0  0  0  0  0  0  0  0  0  0  0  0
   10.1530   -0.8040   22.9800 C   0  0  0  0  0  0  0  0  0  0  0  0
   10.8560   -0.5390   24.2940 C   0  0  0  0  0  0  0  0  0  0  0  0
  1  2  1  0
  2  3  1  0
  3  4  1  0
  4  5  1  0
  5  6  1  0
  6  7  2  0
  6  8  1  0
  8  9  1  0
  9 10  2  0
 10 11  1  0
 11 12  2  0
 12 13  1  0
  9 14  1  0
 13 14  2  0
  5 15  1  0
  2 16  1  0
 15 16  1  0
M  END
