ALE-HEI-f28a35b5-5
     RDKit          3D

 16 17  0  0  0  0  0  0  0  0999 V2000
   13.2240   -2.0440   23.8320 C   0  0  0  0  0  0  0  0  0  0  0  0
   11.9510   -1.5080   23.2300 C   0  0  0  0  0  0  0  0  0  0  0  0
   10.9270   -2.4300   22.7870 N   0  0  0  0  0  0  0  0  0  0  0  0
    9.8550   -1.7290   22.2750 N   0  0  0  0  0  0  0  0  0  0  0  0
   10.0340   -0.4130   22.3130 C   0  0  0  0  0  0  0  0  0  0  0  0
    9.1150    0.5070   21.8150 C   0  0  0  0  0  0  0  0  0  0  0  0
    7.9120    0.9470   22.6720 C   0  0  0  0  0  0  0  0  0  0  0  0
    8.0600    1.7090   23.6160 O   0  0  0  0  0  0  0  0  0  0  0  0
    6.7140    0.4460   22.1920 N   0  0  0  0  0  0  0  0  0  0  0  0
    6.3150    0.5750   20.8420 C   0  0  0  0  0  0  0  0  0  0  0  0
    5.2150    1.5970   20.5480 C   0  0  0  0  0  0  0  0  0  0  0  0
    4.8650    1.6780   19.0630 C   0  0  0  0  0  0  0  0  0  0  0  0
    5.5960    0.7920   18.0910 C   0  0  0  0  0  0  0  0  0  0  0  0
    6.5430   -0.0760   18.4340 N   0  0  0  0  0  0  0  0  0  0  0  0
    6.8740   -0.1660   19.7700 C   0  0  0  0  0  0  0  0  0  0  0  0
   11.5400    0.1310   22.9960 S   0  0  0  0  0  0  0  0  0  0  0  0
  1  2  1  0
  2  3  2  0
  3  4  1  0
  4  5  2  0
  5  6  1  0
  6  7  1  0
  7  8  2  0
  7  9  1  0
  9 10  1  0
 10 11  2  0
 11 12  1  0
 12 13  2  0
 13 14  1  0
 10 15  1  0
 14 15  2  0
  2 16  1  0
  5 16  1  0
M  END
