ALV-UNI-7ff1a6f9-12
     RDKit          3D

 26 30  0  0  0  0  0  0  0  0999 V2000
    7.3410   -2.6290   20.0970 C   0  0  0  0  0  0  0  0  0  0  0  0
    6.7770   -2.0730   21.3610 C   0  0  0  0  0  0  0  0  0  0  0  0
    7.4150   -0.6820   21.5580 C   0  0  0  0  0  0  0  0  0  0  0  0
    7.1940    0.2370   22.5790 N   0  0  0  0  0  0  0  0  0  0  0  0
    6.2330   -0.6550   22.9710 C   0  0  0  0  0  0  0  0  0  0  0  0
    5.3680    0.2660   23.6690 C   0  0  0  0  0  0  0  0  0  0  0  0
    7.4340    0.2980   23.1510 C   0  0  0  0  0  0  0  0  0  0  0  0
    8.3270    0.0820   21.8130 C   0  0  0  0  0  0  0  0  0  0  0  0
    9.7160    0.3540   21.9380 C   0  0  0  0  0  0  0  0  0  0  0  0
   10.5480    0.7690   22.6040 N   0  0  0  0  0  0  0  0  0  0  0  0
    9.8410    1.1690   23.7350 C   0  0  0  0  0  0  0  0  0  0  0  0
   10.7700    1.6630   24.5220 N   0  0  0  0  0  0  0  0  0  0  0  0
    9.6390    1.7200   25.2260 C   0  0  0  0  0  0  0  0  0  0  0  0
    8.1330    1.3440   25.2520 C   0  0  0  0  0  0  0  0  0  0  0  0
    8.4480    0.8940   24.0710 C   0  0  0  0  0  0  0  0  0  0  0  0
    4.2760   -1.1410   23.8170 C   0  0  0  0  0  0  0  0  0  0  0  0
    5.2130    0.0910   23.6920 C   0  0  0  0  0  0  0  0  0  0  0  0
    4.1300    0.2920   24.5630 C   0  0  0  0  0  0  0  0  0  0  0  0
    4.8150    1.7090   24.5240 C   0  0  0  0  0  0  0  0  0  0  0  0
    3.8310    2.6330   25.0680 C   0  0  0  0  0  0  0  0  0  0  0  0
    3.8290    4.1550   25.3660 F   0  0  0  0  0  0  0  0  0  0  0  0
    3.2460    1.8180   25.7470 C   0  0  0  0  0  0  0  0  0  0  0  0
    4.2700    0.8070   24.6520 C   0  0  0  0  0  0  0  0  0  0  0  0
    4.7980   -2.2500   23.4710 N   0  0  0  0  0  0  0  0  0  0  0  0
    5.4350   -1.3360   23.3100 N   0  0  0  0  0  0  0  0  0  0  0  0
    6.0530   -2.4420   22.3570 C   0  0  0  0  0  0  0  0  0  0  0  0
  1  2  1  0
  2  3  1  0
  3  4  2  0
  4  5  1  0
  5  6  2  0
  6  7  1  0
  7  8  2  0
  8  9  1  0
  9 10  2  0
 10 11  1  0
 11 12  1  0
 12 13  1  0
 13 14  2  0
  7 15  1  0
 11 15  2  0
 14 15  1  0
  6 16  1  0
 16 17  1  0
 17 18  2  0
 18 19  1  0
 19 20  2  0
 20 21  1  0
 20 22  1  0
 17 23  1  0
 22 23  2  0
 16 24  2  0
  5 25  1  0
 24 25  1  0
  2 26  2  0
 25 26  1  0
M  END
