ALV-UNI-7ff1a6f9-45
     RDKit          3D

 21 23  0  0  0  0  0  0  0  0999 V2000
   -0.6360    6.1460   26.1590 C   0  0  0  0  0  0  0  0  0  0  0  0
   -0.5430    5.0360   25.1090 C   0  0  0  0  0  0  0  0  0  0  0  0
   -1.8450    4.3690   24.7390 C   0  0  0  0  0  0  0  0  0  0  0  0
   -1.7460    3.2720   23.7020 C   0  0  0  0  0  0  0  0  0  0  0  0
   -0.6300    2.8390   23.0800 N   0  0  0  0  0  0  0  0  0  0  0  0
    0.4810    3.5160   23.4930 C   0  0  0  0  0  0  0  0  0  0  0  0
    1.8510    3.2940   22.9890 N   0  0  0  0  0  0  0  0  0  0  0  0
    2.7300    2.3940   23.7730 C   0  0  0  0  0  0  0  0  0  0  0  0
    2.2760    1.5400   24.5440 O   0  0  0  0  0  0  0  0  0  0  0  0
    4.2090    2.6210   23.5480 C   0  0  0  0  0  0  0  0  0  0  0  0
    4.8450    1.4850   22.7800 C   0  0  0  0  0  0  0  0  0  0  0  0
    4.3370    2.5160   21.8430 C   0  0  0  0  0  0  0  0  0  0  0  0
    4.3300    2.6540   20.4300 C   0  0  0  0  0  0  0  0  0  0  0  0
    4.8740    1.7250   19.6470 C   0  0  0  0  0  0  0  0  0  0  0  0
    4.9990    1.6400   18.2890 C   0  0  0  0  0  0  0  0  0  0  0  0
    5.6500    0.5200   17.7590 C   0  0  0  0  0  0  0  0  0  0  0  0
    6.2330   -0.6380   18.6010 C   0  0  0  0  0  0  0  0  0  0  0  0
    6.0540   -0.4930   20.0920 C   0  0  0  0  0  0  0  0  0  0  0  0
    5.3490    0.7670   20.3890 C   0  0  0  0  0  0  0  0  0  0  0  0
    5.3840    0.5530   21.8270 C   0  0  0  0  0  0  0  0  0  0  0  0
    0.6100    4.5620   24.4430 C   0  0  0  0  0  0  0  0  0  0  0  0
  1  2  1  0
  2  3  2  0
  3  4  1  0
  4  5  2  0
  5  6  1  0
  6  7  1  0
  7  8  1  0
  8  9  2  0
  8 10  1  0
 10 11  1  0
 11 12  2  0
 12 13  1  0
 13 14  2  0
 14 15  1  0
 15 16  2  0
 16 17  1  0
 17 18  2  0
 14 19  1  0
 18 19  1  0
 11 20  1  0
 19 20  2  0
  2 21  1  0
  6 21  2  0
M  END
