ALV-UNI-7ff1a6f9-42
     RDKit          3D

 22 25  0  0  0  0  0  0  0  0999 V2000
    1.8030    4.3330   17.6810 C   0  0  0  0  0  0  0  0  0  0  0  0
    1.3200    3.8270   19.0390 C   0  0  0  0  0  0  0  0  0  0  0  0
    2.1930    2.9060   19.8270 C   0  0  0  0  0  0  0  0  0  0  0  0
    1.6620    2.5270   21.0300 N   0  0  0  0  0  0  0  0  0  0  0  0
    1.9400    1.7120   22.2150 C   0  0  0  0  0  0  0  0  0  0  0  0
    3.2220    0.8650   22.4490 C   0  0  0  0  0  0  0  0  0  0  0  0
    4.5430    0.0140   22.3720 C   0  0  0  0  0  0  0  0  0  0  0  0
    5.3380   -0.4100   21.1580 C   0  0  0  0  0  0  0  0  0  0  0  0
    4.9010   -0.0280   19.8260 N   0  0  0  0  0  0  0  0  0  0  0  0
    3.8030    0.6760   19.8900 C   0  0  0  0  0  0  0  0  0  0  0  0
    3.0670    1.0640   21.0370 C   0  0  0  0  0  0  0  0  0  0  0  0
    0.7880    1.8910   23.0570 C   0  0  0  0  0  0  0  0  0  0  0  0
    0.5920    1.2680   24.3200 C   0  0  0  0  0  0  0  0  0  0  0  0
   -0.1670    0.3000   24.0690 C   0  0  0  0  0  0  0  0  0  0  0  0
    0.2800    1.2090   23.0050 C   0  0  0  0  0  0  0  0  0  0  0  0
    1.2870    2.5070   23.3060 C   0  0  0  0  0  0  0  0  0  0  0  0
    1.7100    3.3600   22.3520 F   0  0  0  0  0  0  0  0  0  0  0  0
    1.7890    2.7940   24.7440 C   0  0  0  0  0  0  0  0  0  0  0  0
    1.1780    1.7500   25.4630 C   0  0  0  0  0  0  0  0  0  0  0  0
   -0.1960    2.7600   22.4780 N   0  0  0  0  0  0  0  0  0  0  0  0
    0.3410    3.1470   21.2290 C   0  0  0  0  0  0  0  0  0  0  0  0
   -0.1950    4.1730   19.8990 S   0  0  0  0  0  0  0  0  0  0  0  0
  1  2  1  0
  2  3  2  0
  3  4  1  0
  4  5  1  0
  5  6  1  0
  6  7  2  0
  7  8  1  0
  8  9  2  0
  9 10  1  0
  6 11  1  0
 10 11  2  0
  5 12  2  0
 12 13  1  0
 13 14  2  0
 14 15  1  0
 15 16  2  0
 16 17  1  0
 16 18  1  0
 13 19  1  0
 18 19  2  0
 12 20  1  0
  4 21  1  0
 20 21  2  0
  2 22  1  0
 21 22  1  0
M  END
