AMI-CSI-2ea5bed6-5
     RDKit          3D

 13 14  0  0  0  0  0  0  0  0999 V2000
    7.0010   -1.9570   22.8110 O   0  0  0  0  0  0  0  0  0  0  0  0
    7.0360   -3.1680   22.3680 C   0  0  0  0  0  0  0  0  0  0  0  0
    7.9240   -4.0800   22.7210 C   0  0  1  0  0  0  0  0  0  0  0  0
    9.1090   -3.8130   23.3420 C   0  0  0  0  0  0  0  0  0  0  0  0
    9.8860   -4.8610   23.6070 C   0  0  0  0  0  0  0  0  0  0  0  0
    9.4750   -6.1510   23.3090 C   0  0  0  0  0  0  0  0  0  0  0  0
    8.2130   -6.3300   23.1610 C   0  0  0  0  0  0  0  0  0  0  0  0
    7.3220   -5.2500   23.2760 C   0  0  2  0  0  0  0  0  0  0  0  0
    5.8820   -5.4690   21.9630 Se  0  0  0  0  0  2  0  0  0  0  0  0
    6.1010   -3.6330   21.4380 N   0  0  0  0  0  0  0  0  0  0  0  0
    5.8170   -3.1220   20.1760 C   0  0  0  0  0  0  0  0  0  0  0  0
    6.6540   -2.0300   19.7150 C   0  0  0  0  0  0  0  0  0  0  0  0
    6.2390   -1.6940   18.4430 O   0  0  0  0  0  0  0  0  0  0  0  0
  1  2  2  0
  2  3  1  0
  3  4  1  1
  4  5  2  0
  5  6  1  0
  6  7  2  0
  3  8  1  0
  8  7  1  6
  8  9  1  0
  2 10  1  0
  9 10  1  0
 10 11  1  0
 11 12  1  0
 12 13  1  0
M  END
