AMI-CSI-2ea5bed6-7
     RDKit          3D

 20 23  0  0  0  0  0  0  0  0999 V2000
    6.9300   -2.5220   20.1140 O   0  0  0  0  0  0  0  0  0  0  0  0
    7.0490   -3.2170   21.1850 C   0  0  0  0  0  0  0  0  0  0  0  0
    5.9500   -3.6320   21.8930 C   0  0  2  0  0  0  0  0  0  0  0  0
    5.0010   -2.8060   22.4900 C   0  0  0  0  0  0  0  0  0  0  0  0
    4.0140   -3.3850   23.2910 C   0  0  0  0  0  0  0  0  0  0  0  0
    3.9740   -4.7580   23.4820 C   0  0  0  0  0  0  0  0  0  0  0  0
    5.0880   -5.3800   23.2910 C   0  0  0  0  0  0  0  0  0  0  0  0
    6.2520   -4.6220   22.9050 C   0  0  1  0  0  0  0  0  0  0  0  0
    7.6140   -5.4910   21.8630 Se  0  0  0  0  0  2  0  0  0  0  0  0
    8.3170   -3.6970   21.6480 N   0  0  0  0  0  0  0  0  0  0  0  0
    9.4260   -3.3740   22.5680 C   0  0  0  0  0  0  0  0  0  0  0  0
    9.4550   -4.7460   23.3800 C   0  0  0  0  0  0  0  0  0  0  0  0
   10.3050   -4.1530   23.8300 C   0  0  0  0  0  0  0  0  0  0  0  0
   10.2670   -3.0690   23.1940 C   0  0  0  0  0  0  0  0  0  0  0  0
   11.1460   -2.2680   23.5600 C   0  0  0  0  0  0  0  0  0  0  0  0
   11.6990   -3.0340   24.5000 C   0  0  0  0  0  0  0  0  0  0  0  0
   12.6050   -2.2210   24.8790 C   0  0  0  0  0  0  0  0  0  0  0  0
   12.4310   -1.0840   24.0910 C   0  0  0  0  0  0  0  0  0  0  0  0
   11.3750   -0.9390   23.0380 C   0  0  0  0  0  0  0  0  0  0  0  0
   10.3290   -1.9460   22.6190 C   0  0  0  0  0  0  0  0  0  0  0  0
  1  2  2  0
  2  3  1  0
  3  4  1  1
  4  5  2  0
  5  6  1  0
  6  7  2  0
  3  8  1  0
  8  7  1  6
  8  9  1  0
  2 10  1  0
  9 10  1  0
 10 11  1  0
 11 12  2  0
 12 13  1  0
 13 14  2  0
 14 15  1  0
 15 16  1  0
 16 17  2  0
 17 18  1  0
 18 19  2  0
 11 20  1  0
 15 20  2  0
 19 20  1  0
M  END
