AMI-CSI-2ea5bed6-3
     RDKit          3D

 19 21  0  0  0  0  0  0  0  0999 V2000
   13.2950   -4.1720   26.5040 N   0  0  0  0  0  0  0  0  0  0  0  0
   13.7840   -3.0580   25.8160 C   0  0  0  0  0  0  0  0  0  0  0  0
   14.9440   -2.6720   26.0040 O   0  0  0  0  0  0  0  0  0  0  0  0
   12.9000   -2.4740   25.0030 C   0  0  0  0  0  0  0  0  0  0  0  0
   13.0200   -1.2380   24.4220 C   0  0  0  0  0  0  0  0  0  0  0  0
   12.0760   -0.7300   23.6210 C   0  0  0  0  0  0  0  0  0  0  0  0
   10.9690   -1.4580   23.3730 C   0  0  0  0  0  0  0  0  0  0  0  0
   10.8430   -2.6300   23.9160 C   0  0  0  0  0  0  0  0  0  0  0  0
    9.7340   -3.4230   23.7020 N   0  0  0  0  0  0  0  0  0  0  0  0
    9.6370   -5.2310   24.2530 Se  0  0  0  0  0  2  0  0  0  0  0  0
    7.6640   -5.1830   24.1880 C   0  0  2  0  0  0  0  0  0  0  0  0
    7.1630   -5.9870   23.3500 C   0  0  0  0  0  0  0  0  0  0  0  0
    6.6930   -6.1770   22.0580 C   0  0  0  0  0  0  0  0  0  0  0  0
    6.8200   -5.0690   21.4200 C   0  0  0  0  0  0  0  0  0  0  0  0
    7.2410   -3.8900   22.2240 C   0  0  0  0  0  0  0  0  0  0  0  0
    7.5190   -3.8610   23.6790 C   0  0  2  0  0  0  0  0  0  0  0  0
    8.5360   -3.1250   24.1560 C   0  0  0  0  0  0  0  0  0  0  0  0
    8.4150   -2.2410   25.0390 O   0  0  0  0  0  0  0  0  0  0  0  0
   11.7770   -3.1280   24.7150 C   0  0  0  0  0  0  0  0  0  0  0  0
  1  2  1  0
  2  3  2  0
  2  4  1  0
  4  5  2  0
  5  6  1  0
  6  7  2  0
  7  8  1  0
  8  9  1  0
  9 10  1  0
 10 11  1  0
 11 12  1  6
 12 13  2  0
 13 14  1  0
 14 15  2  0
 11 16  1  0
 16 15  1  6
  9 17  1  0
 16 17  1  0
 17 18  2  0
  4 19  1  0
  8 19  2  0
M  END
