AND-UNI-23ac02e4-1
     RDKit          3D

 33 34  0  0  0  0  0  0  0  0999 V2000
   13.3100   -2.4970   24.8540 C   0  0  0  0  0  0  0  0  0  0  0  0
   12.6630   -1.2200   24.8220 O   0  0  0  0  0  0  0  0  0  0  0  0
   12.1440   -0.8870   23.6130 C   0  0  0  0  0  0  0  0  0  0  0  0
   12.0370   -1.6310   22.6520 O   0  0  0  0  0  0  0  0  0  0  0  0
   11.7120    0.5840   23.5930 C   0  0  0  0  0  0  0  0  0  0  0  0
   12.7590    1.4710   22.9710 C   0  0  0  0  0  0  0  0  0  0  0  0
   12.5340    2.9880   22.8550 C   0  0  0  0  0  0  0  0  0  0  0  0
   11.2200    3.5320   23.3980 C   0  0  0  0  0  0  0  0  0  0  0  0
   10.8810    5.2920   23.3280 S   0  0  0  0  0  0  0  0  0  0  0  0
    9.3140    5.4140   22.7050 N   0  0  0  0  0  0  0  0  0  0  0  0
   11.7790    5.8810   22.3460 O   0  0  0  0  0  0  0  0  0  0  0  0
   10.8230    5.8070   24.6850 O   0  0  0  0  0  0  0  0  0  0  0  0
   10.2110    2.5390   24.0090 C   0  0  0  0  0  0  0  0  0  0  0  0
   10.4840    1.0550   24.0980 C   0  0  0  0  0  0  0  0  0  0  0  0
    9.6110    0.1270   24.6470 C   0  0  0  0  0  0  0  0  0  0  0  0
    8.3580    0.7840   24.8420 C   0  0  0  0  0  0  0  0  0  0  0  0
    7.6680   -0.0670   25.6850 C   0  0  0  0  0  0  0  0  0  0  0  0
    7.2730   -1.3630   25.1180 C   0  0  0  0  0  0  0  0  0  0  0  0
    6.6580   -1.3010   23.8600 C   0  0  0  0  0  0  0  0  0  0  0  0
    6.7100   -2.4870   23.1290 C   0  0  0  0  0  0  0  0  0  0  0  0
    5.9690   -3.5800   23.5710 C   0  0  0  0  0  0  0  0  0  0  0  0
    5.6080   -4.7210   22.2760 S   0  0  0  0  0  0  0  0  0  0  0  0
    4.1790   -4.8640   22.4270 O   0  0  0  0  0  0  0  0  0  0  0  0
    6.1150   -4.0370   21.1140 O   0  0  0  0  0  0  0  0  0  0  0  0
    6.3010   -6.2330   22.4290 N   0  0  0  0  0  0  0  0  0  0  0  0
    5.7780   -7.1270   23.3950 C   0  0  0  0  0  0  0  0  0  0  0  0
    6.6680   -8.1720   23.3050 C   0  0  0  0  0  0  0  0  0  0  0  0
    7.4240   -8.9310   22.8010 N   0  0  0  0  0  0  0  0  0  0  0  0
    7.8170  -10.3980   23.0810 C   0  0  0  0  0  0  0  0  0  0  0  0
    7.7240  -11.7520   22.3520 C   0  0  0  0  0  0  0  0  0  0  0  0
    8.2970  -10.8500   24.0580 O   0  0  0  0  0  0  0  0  0  0  0  0
    8.3920   -7.8550   22.6550 C   0  0  0  0  0  0  0  0  0  0  0  0
    7.7490   -6.3970   22.6280 C   0  0  0  0  0  0  0  0  0  0  0  0
  1  2  1  0
  2  3  1  0
  3  4  2  0
  3  5  1  0
  5  6  2  0
  6  7  1  0
  7  8  2  0
  8  9  1  0
  9 10  1  0
  9 11  2  0
  9 12  2  0
  8 13  1  0
  5 14  1  0
 13 14  2  0
 14 15  1  0
 15 16  1  0
 16 17  1  0
 17 18  1  0
 18 19  1  0
 19 20  1  0
 20 21  1  0
 21 22  1  0
 22 23  1  0
 22 24  1  0
 22 25  1  0
 25 26  1  0
 26 27  1  0
 27 28  1  0
 28 29  1  0
 29 30  1  0
 29 31  2  0
 28 32  1  0
 25 33  1  0
 32 33  1  0
M  END
