AND-WAB-bfd3647f-2
     RDKit          3D

 16 17  0  0  0  0  0  0  0  0999 V2000
   13.2950   -1.7620   23.8260 C   0  0  0  0  0  0  0  0  0  0  0  0
   12.1390   -1.0510   23.6210 N   0  0  0  0  0  0  0  0  0  0  0  0
   12.0080    0.3100   23.3030 C   0  0  0  0  0  0  0  0  0  0  0  0
   10.7080    0.8370   23.3450 C   0  0  0  0  0  0  0  0  0  0  0  0
    9.5730   -0.0350   22.9540 N   0  0  0  0  0  0  0  0  0  0  0  0
    8.5860    0.4820   21.9900 C   0  0  1  0  0  0  0  0  0  0  0  0
    9.0670    1.6320   21.2940 O   0  0  0  0  0  0  0  0  0  0  0  0
    8.0120   -0.4510   21.1140 C   0  0  0  0  0  0  0  0  0  0  0  0
    7.0590   -0.0070   20.1860 C   0  0  0  0  0  0  0  0  0  0  0  0
    7.2090   -0.3530   18.7580 C   0  0  0  0  0  0  0  0  0  0  0  0
    6.2780    0.1090   17.9140 N   0  0  0  0  0  0  0  0  0  0  0  0
    5.8860    0.5430   19.0040 C   0  0  0  0  0  0  0  0  0  0  0  0
    5.0360    1.1950   19.6250 N   0  0  0  0  0  0  0  0  0  0  0  0
    5.8990    0.8030   20.5880 C   0  0  0  0  0  0  0  0  0  0  0  0
    9.8960   -1.4810   22.8550 C   0  0  0  0  0  0  0  0  0  0  0  0
   11.2400   -1.8130   22.7410 C   0  0  0  0  0  0  0  0  0  0  0  0
  1  2  1  0
  2  3  1  0
  3  4  1  0
  4  5  1  0
  5  6  1  0
  6  7  1  6
  6  8  1  0
  8  9  1  0
  9 10  2  0
 10 11  1  0
 11 12  2  0
 12 13  1  0
  9 14  1  0
 13 14  2  0
  5 15  1  0
  2 16  1  0
 15 16  1  0
M  END
