AND-WAB-bfd3647f-1
     RDKit          3D

 23 24  0  0  0  0  0  0  0  0999 V2000
   13.0230   -1.0720   24.1060 C   0  0  0  0  0  0  0  0  0  0  0  0
   12.2210   -0.4160   22.7210 S   0  0  0  0  0  0  0  0  0  0  0  0
   13.4330    0.2800   21.9630 O   0  0  0  0  0  0  0  0  0  0  0  0
   11.8670   -1.7240   21.8680 O   0  0  0  0  0  0  0  0  0  0  0  0
   10.9330    0.6100   22.8600 N   0  0  0  0  0  0  0  0  0  0  0  0
    9.7690    0.4940   21.9760 C   0  0  0  0  0  0  0  0  0  0  0  0
    8.5370    0.1360   22.7530 C   0  0  0  0  0  0  0  0  0  0  0  0
    7.3650   -0.4920   21.9690 C   0  0  1  0  0  0  0  0  0  0  0  0
    6.2920    0.5210   21.6190 C   0  0  0  0  0  0  0  0  0  0  0  0
    6.2920    1.5000   20.4220 C   0  0  0  0  0  0  0  0  0  0  0  0
    5.1810    2.5060   20.0880 C   0  0  0  0  0  0  0  0  0  0  0  0
    4.1620    2.4360   21.0030 C   0  0  0  0  0  0  0  0  0  0  0  0
    4.8970    1.5580   21.4880 C   0  0  0  0  0  0  0  0  0  0  0  0
    5.1390    0.7000   22.3530 C   0  0  0  0  0  0  0  0  0  0  0  0
    7.6970   -1.5430   20.8860 C   0  0  2  0  0  0  0  0  0  0  0  0
    9.0020   -2.0100   21.1280 O   0  0  0  0  0  0  0  0  0  0  0  0
    7.6460   -1.0880   19.4820 N   0  0  0  0  0  0  0  0  0  0  0  0
    6.4960   -0.3920   19.1530 C   0  0  0  0  0  0  0  0  0  0  0  0
    5.3910   -0.6360   19.9570 C   0  0  0  0  0  0  0  0  0  0  0  0
    4.4180    0.1550   19.5250 C   0  0  0  0  0  0  0  0  0  0  0  0
    4.1120    1.0740   18.6210 C   0  0  0  0  0  0  0  0  0  0  0  0
    5.2460    1.2400   17.8470 C   0  0  0  0  0  0  0  0  0  0  0  0
    6.4160    0.5240   18.0970 N   0  0  0  0  0  0  0  0  0  0  0  0
  1  2  1  0
  2  3  1  0
  2  4  1  0
  2  5  1  0
  5  6  1  0
  6  7  1  0
  8  7  1  6
  8  9  1  0
  9 10  2  0
 10 11  1  0
 11 12  2  0
 12 13  1  0
  9 14  1  0
 13 14  2  0
  8 15  1  0
 15 16  1  1
 15 17  1  0
 17 18  1  0
 18 19  2  0
 19 20  1  0
 20 21  2  0
 21 22  1  0
 18 23  1  0
 22 23  2  0
M  END
