ANN-UNI-26382800-5-acrylamide
     RDKit          3D

 20 21  0  0  0  0  0  0  0  0999 V2000
    7.2890   -4.7390   20.9450 C   0  0  0  0  0  0  0  0  0  0  0  0
    5.8030   -4.7420   20.8860 C   0  0  0  0  0  0  0  0  0  0  0  0
    5.3720   -4.3900   22.3220 C   0  0  0  0  0  0  0  0  0  0  0  0
    4.1950   -4.1030   22.5620 O   0  0  0  0  0  0  0  0  0  0  0  0
    6.4310   -4.4640   23.3810 C   0  0  0  0  0  0  0  0  0  0  0  0
    6.7250   -5.6630   23.4190 C   0  0  0  0  0  0  0  0  0  0  0  0
    6.3030   -6.5970   22.7860 C   0  0  0  0  0  0  0  0  0  0  0  0
    5.5780   -5.2130   22.3550 C   0  0  0  0  0  0  0  0  0  0  0  0
    5.8330   -3.7390   22.9290 C   0  0  0  0  0  0  0  0  0  0  0  0
    5.0430   -2.6630   22.3620 C   0  0  0  0  0  0  0  0  0  0  0  0
    5.4770   -2.4670   20.8840 C   0  0  0  0  0  0  0  0  0  0  0  0
    4.7520   -3.4350   20.7470 O   0  0  0  0  0  0  0  0  0  0  0  0
    6.2430   -1.3430   21.4530 N   0  0  0  0  0  0  0  0  0  0  0  0
    7.1690   -0.8620   20.3920 C   0  0  0  0  0  0  0  0  0  0  0  0
    6.1660   -0.2730   19.5290 C   0  0  0  0  0  0  0  0  0  0  0  0
    4.8310   -0.0480   19.4130 C   0  0  0  0  0  0  0  0  0  0  0  0
    4.7590    0.6510   18.1460 C   0  0  0  0  0  0  0  0  0  0  0  0
    6.2240    0.5050   18.0830 N   0  0  0  0  0  0  0  0  0  0  0  0
    7.1150   -0.1830   19.1570 C   0  0  0  0  0  0  0  0  0  0  0  0
    6.7700   -3.4100   23.9510 C   0  0  0  0  0  0  0  0  0  0  0  0
  1  2  1  0
  2  3  1  0
  3  4  2  0
  3  5  1  0
  5  6  2  0
  6  7  1  0
  7  8  2  0
  8  9  1  0
  9 10  1  0
 10 11  1  0
 11 12  2  0
 11 13  1  0
 13 14  1  0
 14 15  2  0
 15 16  1  0
 16 17  2  0
 17 18  1  0
 14 19  1  0
 18 19  2  0
  5 20  1  0
  9 20  2  0
M  END
