ANN-UNI-26382800-4-chloroacetamide
     RDKit          3D

 19 20  0  0  0  0  0  0  0  0999 V2000
    7.5160   -3.8970   20.7640 C   0  0  0  0  0  0  0  0  0  0  0  0
    8.0280   -2.7260   19.8260 C   0  0  0  0  0  0  0  0  0  0  0  0
    7.2850   -3.2890   18.9510 O   0  0  0  0  0  0  0  0  0  0  0  0
    8.9010   -2.1520   21.0480 C   0  0  0  0  0  0  0  0  0  0  0  0
   10.3380   -2.4450   21.6180 C   0  0  0  0  0  0  0  0  0  0  0  0
   10.8160   -1.6530   22.7360 C   0  0  0  0  0  0  0  0  0  0  0  0
   10.1560   -0.6500   23.3500 C   0  0  0  0  0  0  0  0  0  0  0  0
    8.8920   -0.4160   22.7850 C   0  0  0  0  0  0  0  0  0  0  0  0
    8.1190    0.5880   23.2220 N   0  0  0  0  0  0  0  0  0  0  0  0
    7.6310    1.2510   22.0180 C   0  0  0  0  0  0  0  0  0  0  0  0
    8.3320    2.1620   21.2730 O   0  0  0  0  0  0  0  0  0  0  0  0
    6.5700    0.8300   21.7970 N   0  0  0  0  0  0  0  0  0  0  0  0
    6.1310    0.8670   20.4080 C   0  0  0  0  0  0  0  0  0  0  0  0
    4.7500    1.5620   20.2810 C   0  0  0  0  0  0  0  0  0  0  0  0
    4.2100    1.6680   18.9380 C   0  0  0  0  0  0  0  0  0  0  0  0
    5.2350    1.0230   18.0590 C   0  0  0  0  0  0  0  0  0  0  0  0
    6.2080    0.4930   17.8800 N   0  0  0  0  0  0  0  0  0  0  0  0
    6.7850    0.3670   19.2390 C   0  0  0  0  0  0  0  0  0  0  0  0
    8.3140   -1.1250   21.7250 C   0  0  0  0  0  0  0  0  0  0  0  0
  1  2  1  0
  2  3  2  0
  2  4  1  0
  4  5  2  0
  5  6  1  0
  6  7  2  0
  7  8  1  0
  8  9  1  0
  9 10  1  0
 10 11  2  0
 10 12  1  0
 12 13  1  0
 13 14  2  0
 14 15  1  0
 15 16  2  0
 16 17  1  0
 13 18  1  0
 17 18  2  0
  4 19  1  0
  8 19  2  0
M  END
