ANN-UNI-26382800-5-acrylamide
     RDKit          3D

 20 21  0  0  0  0  0  0  0  0999 V2000
    8.4930   -3.9290   20.3180 C   0  0  0  0  0  0  0  0  0  0  0  0
    7.1530   -3.6530   20.0420 C   0  0  0  0  0  0  0  0  0  0  0  0
    6.5680   -2.9240   21.1680 C   0  0  0  0  0  0  0  0  0  0  0  0
    5.0480   -3.2100   21.1850 O   0  0  0  0  0  0  0  0  0  0  0  0
    7.8770   -1.9540   21.9150 C   0  0  0  0  0  0  0  0  0  0  0  0
    8.1330   -0.4780   21.5540 C   0  0  0  0  0  0  0  0  0  0  0  0
    9.0270   -0.5670   22.5760 C   0  0  0  0  0  0  0  0  0  0  0  0
    9.9760   -0.5330   23.6020 C   0  0  0  0  0  0  0  0  0  0  0  0
    9.3220   -1.7880   23.4010 C   0  0  0  0  0  0  0  0  0  0  0  0
    8.6220   -0.7960   22.3930 C   0  0  0  0  0  0  0  0  0  0  0  0
    9.1210    0.6150   21.7030 C   0  0  0  0  0  0  0  0  0  0  0  0
   10.1590    0.4210   22.0310 O   0  0  0  0  0  0  0  0  0  0  0  0
    7.6830    0.8800   21.2500 N   0  0  0  0  0  0  0  0  0  0  0  0
    6.7700    1.2530   20.1690 C   0  0  0  0  0  0  0  0  0  0  0  0
    5.8790    0.6310   19.4800 C   0  0  0  0  0  0  0  0  0  0  0  0
    5.2990    1.7540   18.6640 C   0  0  0  0  0  0  0  0  0  0  0  0
    4.9040    0.1500   18.5970 C   0  0  0  0  0  0  0  0  0  0  0  0
    5.4980   -0.8290   19.3890 N   0  0  0  0  0  0  0  0  0  0  0  0
    6.5720   -0.1970   20.3150 C   0  0  0  0  0  0  0  0  0  0  0  0
    8.5180   -2.7820   22.9480 C   0  0  0  0  0  0  0  0  0  0  0  0
  1  2  1  0
  2  3  1  0
  3  4  2  0
  3  5  1  0
  5  6  2  0
  6  7  1  0
  7  8  2  0
  8  9  1  0
  9 10  1  0
 10 11  1  0
 11 12  2  0
 11 13  1  0
 13 14  1  0
 14 15  2  0
 15 16  1  0
 16 17  2  0
 17 18  1  0
 14 19  1  0
 18 19  2  0
  5 20  1  0
  9 20  2  0
M  END
