ANN-UNI-26382800-7
     RDKit          3D

 20 22  0  0  0  0  0  0  0  0999 V2000
   13.5190    2.4030   22.5750 N   0  0  0  0  0  0  0  0  0  0  0  0
   12.4150    3.1440   22.7940 C   0  0  0  0  0  0  0  0  0  0  0  0
   12.3960    4.5230   22.4410 O   0  0  0  0  0  0  0  0  0  0  0  0
   11.2700    2.4430   23.4810 C   0  0  1  0  0  0  0  0  0  0  0  0
    9.9270    2.5570   22.8100 C   0  0  0  0  0  0  0  0  0  0  0  0
    9.0800    1.4640   23.0520 N   0  0  0  0  0  0  0  0  0  0  0  0
    8.4380    0.8260   21.7990 C   0  0  0  0  0  0  0  0  0  0  0  0
    7.2560    1.4750   21.1420 C   0  0  0  0  0  0  0  0  0  0  0  0
    6.1820    1.7720   20.1850 C   0  0  0  0  0  0  0  0  0  0  0  0
    5.6830    1.2660   18.9580 C   0  0  0  0  0  0  0  0  0  0  0  0
    6.2710    0.1370   18.3460 N   0  0  0  0  0  0  0  0  0  0  0  0
    7.2690   -0.3320   19.0980 C   0  0  0  0  0  0  0  0  0  0  0  0
    7.6900    0.3410   20.4070 C   0  0  0  0  0  0  0  0  0  0  0  0
    9.9990    0.5680   23.8390 C   0  0  0  0  0  0  0  0  0  0  0  0
   11.4410    0.9260   23.6740 C   0  0  1  0  0  0  0  0  0  0  0  0
   11.9180   -0.0020   22.8220 C   0  0  0  0  0  0  0  0  0  0  0  0
   13.2490    0.0120   22.1960 C   0  0  0  0  0  0  0  0  0  0  0  0
   13.4040   -1.2180   21.3280 C   0  0  0  0  0  0  0  0  0  0  0  0
   11.9150   -2.2180   21.4070 S   0  0  0  0  0  0  0  0  0  0  0  0
   11.1650   -1.1210   22.4660 C   0  0  0  0  0  0  0  0  0  0  0  0
  1  2  1  0
  2  3  2  0
  4  2  1  6
  4  5  1  0
  5  6  1  0
  6  7  1  0
  7  8  1  0
  8  9  2  0
  9 10  1  0
 10 11  2  0
 11 12  1  0
  8 13  1  0
 12 13  2  0
  6 14  1  0
  4 15  1  0
 14 15  1  0
 15 16  1  6
 16 17  1  0
 17 18  2  0
 18 19  1  0
 16 20  2  0
 19 20  1  0
M  END
