ANN-UNI-26382800-6-acrylamide
     RDKit          3D

 22 23  0  0  0  0  0  0  0  0999 V2000
    6.5560   -4.8290   20.0850 C   0  0  0  0  0  0  0  0  0  0  0  0
    7.2770   -3.5350   20.1450 C   0  0  0  0  0  0  0  0  0  0  0  0
    6.6190   -2.9090   21.2410 C   0  0  0  0  0  0  0  0  0  0  0  0
    5.1810   -3.4220   21.2580 O   0  0  0  0  0  0  0  0  0  0  0  0
    7.6660   -1.8430   22.0040 C   0  0  0  0  0  0  0  0  0  0  0  0
    8.9420   -1.5420   22.7510 C   0  0  0  0  0  0  0  0  0  0  0  0
    8.8930   -0.1210   22.9570 C   0  0  0  0  0  0  0  0  0  0  0  0
    9.8800   -0.9030   23.3940 C   0  0  0  0  0  0  0  0  0  0  0  0
    8.6630   -1.3880   22.6120 C   0  0  0  0  0  0  0  0  0  0  0  0
    8.6820    0.0460   22.8410 N   0  0  0  0  0  0  0  0  0  0  0  0
    8.5870    0.9080   21.7190 C   0  0  0  0  0  0  0  0  0  0  0  0
    8.2840    1.4840   20.6860 O   0  0  0  0  0  0  0  0  0  0  0  0
    7.4090    0.0140   21.4120 N   0  0  0  0  0  0  0  0  0  0  0  0
    6.8580    0.1950   20.0320 C   0  0  0  0  0  0  0  0  0  0  0  0
    5.7470    0.9740   19.6300 C   0  0  0  0  0  0  0  0  0  0  0  0
    4.7180    1.7220   19.4260 C   0  0  0  0  0  0  0  0  0  0  0  0
    5.1710    1.1800   18.0520 C   0  0  0  0  0  0  0  0  0  0  0  0
    6.4120    0.1790   17.7560 C   0  0  0  0  0  0  0  0  0  0  0  0
    6.7800   -0.2940   16.5170 O   0  0  0  0  0  0  0  0  0  0  0  0
    7.7580    0.4180   15.7600 C   0  0  0  0  0  0  0  0  0  0  0  0
    7.2540   -0.3140   18.8100 C   0  0  0  0  0  0  0  0  0  0  0  0
    8.7160   -2.7510   22.4320 C   0  0  0  0  0  0  0  0  0  0  0  0
  1  2  1  0
  2  3  1  0
  3  4  2  0
  3  5  1  0
  5  6  2  0
  6  7  1  0
  7  8  2  0
  8  9  1  0
  9 10  1  0
 10 11  1  0
 11 12  2  0
 11 13  1  0
 13 14  1  0
 14 15  2  0
 15 16  1  0
 16 17  2  0
 17 18  1  0
 18 19  1  0
 19 20  1  0
 14 21  1  0
 18 21  2  0
  5 22  1  0
  9 22  2  0
M  END
