ANN-UNI-26382800-4-acrylamide
     RDKit          3D

 20 21  0  0  0  0  0  0  0  0999 V2000
    7.1010   -3.9700   20.2510 C   0  0  0  0  0  0  0  0  0  0  0  0
    6.7440   -3.9390   21.7320 C   0  0  0  0  0  0  0  0  0  0  0  0
    5.4600   -3.1640   21.9320 C   0  0  0  0  0  0  0  0  0  0  0  0
    4.4460   -3.7370   22.3180 O   0  0  0  0  0  0  0  0  0  0  0  0
    5.4440   -1.7140   21.6140 C   0  0  0  0  0  0  0  0  0  0  0  0
    5.7200   -0.5010   21.9050 C   0  0  0  0  0  0  0  0  0  0  0  0
    6.2050   -1.8690   22.2230 C   0  0  0  0  0  0  0  0  0  0  0  0
    6.9590   -0.8850   22.3600 C   0  0  0  0  0  0  0  0  0  0  0  0
    6.8660    0.2750   22.6640 C   0  0  0  0  0  0  0  0  0  0  0  0
    7.9640    0.7790   21.9490 N   0  0  0  0  0  0  0  0  0  0  0  0
    8.0610    2.1110   21.3180 C   0  0  0  0  0  0  0  0  0  0  0  0
    9.1090    2.3080   21.9420 O   0  0  0  0  0  0  0  0  0  0  0  0
    6.9020    1.5330   20.8090 N   0  0  0  0  0  0  0  0  0  0  0  0
    5.6120    2.2130   20.5200 C   0  0  0  0  0  0  0  0  0  0  0  0
    4.3740    2.4560   19.6520 C   0  0  0  0  0  0  0  0  0  0  0  0
    4.6870    1.3410   18.3570 C   0  0  0  0  0  0  0  0  0  0  0  0
    5.9730    0.8360   18.8920 C   0  0  0  0  0  0  0  0  0  0  0  0
    6.7100    0.8720   19.6650 N   0  0  0  0  0  0  0  0  0  0  0  0
    5.5070    1.5690   19.4870 C   0  0  0  0  0  0  0  0  0  0  0  0
    5.7580   -1.0180   22.9790 C   0  0  0  0  0  0  0  0  0  0  0  0
  1  2  1  0
  2  3  1  0
  3  4  2  0
  3  5  1  0
  5  6  2  0
  6  7  1  0
  7  8  2  0
  8  9  1  0
  9 10  1  0
 10 11  1  0
 11 12  2  0
 11 13  1  0
 13 14  1  0
 14 15  2  0
 15 16  1  0
 16 17  2  0
 17 18  1  0
 14 19  1  0
 18 19  2  0
  5 20  1  0
  9 20  2  0
M  END
