ANN-UNI-26382800-4-vinylsulfonamide
     RDKit          3D

 21 22  0  0  0  0  0  0  0  0999 V2000
    6.6060   -4.9640   20.4370 C   0  0  0  0  0  0  0  0  0  0  0  0
    7.0150   -4.8980   21.8920 C   0  0  0  0  0  0  0  0  0  0  0  0
    6.1060   -3.5930   22.6480 S   0  0  0  0  0  0  0  0  0  0  0  0
    4.8170   -3.5190   21.8570 O   0  0  0  0  0  0  0  0  0  0  0  0
    6.0260   -3.9620   24.0510 O   0  0  0  0  0  0  0  0  0  0  0  0
    7.0680   -2.0130   22.6100 C   0  0  0  0  0  0  0  0  0  0  0  0
    8.1540   -1.3090   22.6380 C   0  0  0  0  0  0  0  0  0  0  0  0
    8.5030   -2.7910   22.7580 C   0  0  0  0  0  0  0  0  0  0  0  0
    9.8090   -2.6940   22.8310 C   0  0  0  0  0  0  0  0  0  0  0  0
    9.6290   -1.4520   22.7370 C   0  0  0  0  0  0  0  0  0  0  0  0
    8.7900   -0.3140   22.6130 N   0  0  0  0  0  0  0  0  0  0  0  0
    8.5670    0.4830   21.4030 C   0  0  0  0  0  0  0  0  0  0  0  0
    8.9800    1.6330   21.2280 O   0  0  0  0  0  0  0  0  0  0  0  0
    7.7720   -0.2560   20.4220 N   0  0  0  0  0  0  0  0  0  0  0  0
    6.6300    0.3140   19.8810 C   0  0  0  0  0  0  0  0  0  0  0  0
    5.4920    0.5620   20.7650 C   0  0  0  0  0  0  0  0  0  0  0  0
    4.2370    1.1480   20.4090 C   0  0  0  0  0  0  0  0  0  0  0  0
    4.1760    1.4790   19.1130 C   0  0  0  0  0  0  0  0  0  0  0  0
    5.3030    1.2090   18.3330 N   0  0  0  0  0  0  0  0  0  0  0  0
    6.6150    0.6400   18.5020 C   0  0  0  0  0  0  0  0  0  0  0  0
    8.4230   -2.4320   22.7260 C   0  0  0  0  0  0  0  0  0  0  0  0
  1  2  1  0
  3  2  1  0
  3  4  2  0
  3  5  2  0
  3  6  1  0
  6  7  2  0
  7  8  1  0
  8  9  2  0
  9 10  1  0
 10 11  1  0
 11 12  1  0
 12 13  2  0
 12 14  1  0
 14 15  1  0
 15 16  2  0
 16 17  1  0
 17 18  2  0
 18 19  1  0
 15 20  1  0
 19 20  2  0
  6 21  1  0
 10 21  2  0
M  END
