ANN-UNI-26382800-3-vinylsulfonamide
     RDKit          3D

 21 22  0  0  0  0  0  0  0  0999 V2000
    7.2400   -3.6400   19.9120 C   0  0  0  0  0  0  0  0  0  0  0  0
    6.6980   -4.6730   20.9220 C   0  0  0  0  0  0  0  0  0  0  0  0
    6.0470   -3.8510   22.3500 S   0  0  0  0  0  0  0  0  0  0  0  0
    4.6090   -3.7380   22.1840 O   0  0  0  0  0  0  0  0  0  0  0  0
    6.5840   -4.5190   23.5130 O   0  0  0  0  0  0  0  0  0  0  0  0
    6.6640   -2.1560   22.3740 C   0  0  0  0  0  0  0  0  0  0  0  0
    8.1020   -2.9410   22.3580 C   0  0  0  0  0  0  0  0  0  0  0  0
    9.6080   -2.5840   22.3470 C   0  0  0  0  0  0  0  0  0  0  0  0
    9.2980   -1.2660   22.3440 C   0  0  0  0  0  0  0  0  0  0  0  0
    8.4220   -0.1710   22.3420 N   0  0  0  0  0  0  0  0  0  0  0  0
    8.1750    0.6500   21.2420 C   0  0  0  0  0  0  0  0  0  0  0  0
    8.6900    1.9230   21.1210 O   0  0  0  0  0  0  0  0  0  0  0  0
    7.5130    0.1690   20.3970 N   0  0  0  0  0  0  0  0  0  0  0  0
    6.4350    0.9880   19.7510 C   0  0  0  0  0  0  0  0  0  0  0  0
    5.5860    1.9420   20.6440 C   0  0  0  0  0  0  0  0  0  0  0  0
    6.6430    1.1080   21.1350 C   0  0  0  0  0  0  0  0  0  0  0  0
    6.0180    1.3690   19.8220 C   0  0  0  0  0  0  0  0  0  0  0  0
    5.3900    1.7210   18.9010 N   0  0  0  0  0  0  0  0  0  0  0  0
    6.2150    0.8600   18.3050 C   0  0  0  0  0  0  0  0  0  0  0  0
    8.1710   -2.2520   22.3590 C   0  0  0  0  0  0  0  0  0  0  0  0
    7.4640   -1.0490   22.3850 C   0  0  0  0  0  0  0  0  0  0  0  0
  1  2  1  0
  3  2  1  0
  3  4  2  0
  3  5  2  0
  3  6  1  0
  6  7  2  0
  7  8  1  0
  8  9  2  0
  9 10  1  0
 10 11  1  0
 11 12  2  0
 11 13  1  0
 13 14  1  0
 14 15  2  0
 15 16  1  0
 16 17  2  0
 17 18  1  0
 14 19  1  0
 18 19  2  0
  9 20  1  0
  6 21  1  0
 20 21  2  0
M  END
