ANN-UNI-26382800-4-vinylsulfonamide
     RDKit          3D

 21 22  0  0  0  0  0  0  0  0999 V2000
    6.4730   -4.4480   20.1610 C   0  0  0  0  0  0  0  0  0  0  0  0
    6.1360   -4.6130   21.6260 C   0  0  0  0  0  0  0  0  0  0  0  0
    5.3450   -3.1380   22.1340 S   0  0  0  0  0  0  0  0  0  0  0  0
    4.0110   -3.5360   22.4920 O   0  0  0  0  0  0  0  0  0  0  0  0
    5.5190   -2.1840   21.0700 O   0  0  0  0  0  0  0  0  0  0  0  0
    6.2140   -2.4890   23.5780 C   0  0  0  0  0  0  0  0  0  0  0  0
    7.6040   -2.0100   24.2360 C   0  0  0  0  0  0  0  0  0  0  0  0
    8.1100   -2.4040   22.8000 C   0  0  0  0  0  0  0  0  0  0  0  0
    9.2520   -2.5390   21.7780 C   0  0  0  0  0  0  0  0  0  0  0  0
    8.0020   -2.7290   21.9030 C   0  0  0  0  0  0  0  0  0  0  0  0
    8.9200   -2.1840   22.8460 N   0  0  0  0  0  0  0  0  0  0  0  0
    9.6060   -0.8380   22.6720 C   0  0  0  0  0  0  0  0  0  0  0  0
   10.0900   -0.9830   23.7940 O   0  0  0  0  0  0  0  0  0  0  0  0
    9.0230   -0.9560   21.6620 N   0  0  0  0  0  0  0  0  0  0  0  0
    8.1850    0.2110   21.3750 C   0  0  0  0  0  0  0  0  0  0  0  0
    8.7410    1.5440   22.0000 C   0  0  0  0  0  0  0  0  0  0  0  0
    7.9210    2.7380   21.7360 C   0  0  0  0  0  0  0  0  0  0  0  0
    6.7690    2.2350   20.9120 C   0  0  0  0  0  0  0  0  0  0  0  0
    6.1750    1.4460   20.3750 N   0  0  0  0  0  0  0  0  0  0  0  0
    6.9780    0.2280   20.6220 C   0  0  0  0  0  0  0  0  0  0  0  0
    7.3690   -2.4650   23.0090 C   0  0  0  0  0  0  0  0  0  0  0  0
  1  2  1  0
  3  2  1  0
  3  4  2  0
  3  5  2  0
  3  6  1  0
  6  7  2  0
  7  8  1  0
  8  9  2  0
  9 10  1  0
 10 11  1  0
 11 12  1  0
 12 13  2  0
 12 14  1  0
 14 15  1  0
 15 16  2  0
 16 17  1  0
 17 18  2  0
 18 19  1  0
 15 20  1  0
 19 20  2  0
  6 21  1  0
 10 21  2  0
M  END
