ANN-UNI-26382800-5-chloroacetamide
     RDKit          3D

 19 20  0  0  0  0  0  0  0  0999 V2000
    8.0940   -3.6380   20.1650 C   0  0  0  0  0  0  0  0  0  0  0  0
    7.3600   -2.3600   19.8830 C   0  0  0  0  0  0  0  0  0  0  0  0
    6.7250   -3.1380   19.0570 O   0  0  0  0  0  0  0  0  0  0  0  0
    8.3530   -1.7930   20.9990 C   0  0  0  0  0  0  0  0  0  0  0  0
    9.5930   -2.3170   21.4320 C   0  0  0  0  0  0  0  0  0  0  0  0
   10.3720   -1.6820   22.4710 C   0  0  0  0  0  0  0  0  0  0  0  0
    9.9080   -0.5360   23.0500 C   0  0  0  0  0  0  0  0  0  0  0  0
    8.7250   -0.0220   22.6280 C   0  0  0  0  0  0  0  0  0  0  0  0
    8.1070    1.2030   23.1110 C   0  0  0  0  0  0  0  0  0  0  0  0
    8.0170    2.0420   21.8550 C   0  0  0  0  0  0  0  0  0  0  0  0
    9.0460    2.4200   21.3100 O   0  0  0  0  0  0  0  0  0  0  0  0
    6.7330    2.2620   21.4460 N   0  0  0  0  0  0  0  0  0  0  0  0
    6.1150    1.6500   20.3550 C   0  0  0  0  0  0  0  0  0  0  0  0
    4.6460    1.5440   20.2970 C   0  0  0  0  0  0  0  0  0  0  0  0
    4.0040    0.9640   19.2560 C   0  0  0  0  0  0  0  0  0  0  0  0
    4.7650    0.4000   18.1120 C   0  0  0  0  0  0  0  0  0  0  0  0
    6.0820    0.4030   17.9900 N   0  0  0  0  0  0  0  0  0  0  0  0
    6.7660    1.0270   19.1110 C   0  0  0  0  0  0  0  0  0  0  0  0
    7.9690   -0.6410   21.6330 C   0  0  0  0  0  0  0  0  0  0  0  0
  1  2  1  0
  2  3  2  0
  2  4  1  0
  4  5  2  0
  5  6  1  0
  6  7  2  0
  7  8  1  0
  8  9  1  0
  9 10  1  0
 10 11  2  0
 10 12  1  0
 12 13  1  0
 13 14  2  0
 14 15  1  0
 15 16  2  0
 16 17  1  0
 13 18  1  0
 17 18  2  0
  4 19  1  0
  8 19  2  0
M  END
