ANT-OPE-7c194559-1
     RDKit          3D

 16 17  0  0  0  0  0  0  0  0999 V2000
    8.3940    7.7210   23.2780 C   0  0  0  0  0  0  0  0  0  0  0  0
    9.0780    6.5860   22.5580 C   0  0  0  0  0  0  0  0  0  0  0  0
   10.3310    6.1770   23.3240 C   0  0  0  0  0  0  0  0  0  0  0  0
   10.1910    6.3410   24.7340 O   0  0  0  0  0  0  0  0  0  0  0  0
   11.3920    5.7270   22.6070 N   0  0  0  0  0  0  0  0  0  0  0  0
   12.2460    4.8640   23.2330 C   0  0  0  0  0  0  0  0  0  0  0  0
   12.4670    3.5610   22.8050 C   0  0  0  0  0  0  0  0  0  0  0  0
   11.4700    2.6030   23.0390 C   0  0  2  0  0  0  0  0  0  0  0  0
   10.4030    2.8500   23.9010 C   0  0  0  0  0  0  0  0  0  0  0  0
    9.6430    1.5450   24.2120 C   0  0  0  0  0  0  0  0  0  0  0  0
   10.7580    0.6080   23.7280 C   0  0  0  0  0  0  0  0  0  0  0  0
   10.6400   -0.8990   23.9810 C   0  0  0  0  0  0  0  0  0  0  0  0
   11.7600   -1.8240   23.4950 C   0  0  0  0  0  0  0  0  0  0  0  0
   12.9490   -1.1670   22.7960 C   0  0  0  0  0  0  0  0  0  0  0  0
   13.0020    0.3460   22.5950 C   0  0  0  0  0  0  0  0  0  0  0  0
   11.8340    1.2140   23.0750 C   0  0  0  0  0  0  0  0  0  0  0  0
  1  2  1  0
  2  3  1  0
  3  4  2  0
  3  5  1  0
  5  6  1  0
  6  7  1  0
  8  7  1  1
  8  9  1  0
  9 10  1  0
 10 11  1  0
 11 12  2  0
 12 13  1  0
 13 14  2  0
 14 15  1  0
  8 16  1  0
 11 16  1  0
 15 16  2  0
M  END
