ANT-OPE-c0c3e7cc-1-chloroacetamide
     RDKit          3D

 17 18  0  0  0  0  0  0  0  0999 V2000
    7.1200   -3.0400   18.9650 C   0  0  0  0  0  0  0  0  0  0  0  0
    6.1610   -3.4630   20.0370 C   0  0  0  0  0  0  0  0  0  0  0  0
    5.2800   -4.2750   19.7820 O   0  0  0  0  0  0  0  0  0  0  0  0
    6.3920   -2.8820   21.2670 N   0  0  0  0  0  0  0  0  0  0  0  0
    6.2600   -1.4850   21.5210 C   0  0  0  0  0  0  0  0  0  0  0  0
    7.4260   -0.7350   21.3700 C   0  0  0  0  0  0  0  0  0  0  0  0
    8.5850   -1.4220   21.7260 C   0  0  0  0  0  0  0  0  0  0  0  0
    8.5760   -1.9000   23.1310 N   0  0  0  0  0  0  0  0  0  0  0  0
    9.9400   -2.1890   23.6110 C   0  0  0  0  0  0  0  0  0  0  0  0
   10.7110   -1.0500   23.5650 C   0  0  0  0  0  0  0  0  0  0  0  0
   12.0910   -1.0820   22.9140 C   0  0  0  0  0  0  0  0  0  0  0  0
   12.8510    0.2460   22.9020 C   0  0  0  0  0  0  0  0  0  0  0  0
   12.2930    1.4940   23.4780 C   0  0  0  0  0  0  0  0  0  0  0  0
   10.9260    1.3330   24.0800 C   0  0  0  0  0  0  0  0  0  0  0  0
   10.1940    0.1440   24.1210 C   0  0  0  0  0  0  0  0  0  0  0  0
    7.5230   -2.8470   23.5000 C   0  0  0  0  0  0  0  0  0  0  0  0
    6.9920   -3.6660   22.3600 C   0  0  0  0  0  0  0  0  0  0  0  0
  1  2  1  0
  2  3  2  0
  2  4  1  0
  4  5  1  0
  5  6  1  0
  6  7  1  0
  7  8  1  0
  8  9  1  0
  9 10  1  0
 10 11  2  0
 11 12  1  0
 12 13  2  0
 13 14  1  0
 10 15  1  0
 14 15  2  0
  8 16  1  0
  4 17  1  0
 16 17  1  0
M  END
