ANT-DIA-045cfdc4-2
     RDKit          3D

 17 18  0  0  0  0  0  0  0  0999 V2000
   13.5620    5.5790   22.0430 C   0  0  0  0  0  0  0  0  0  0  0  0
   12.4040    5.3080   22.7950 O   0  0  0  0  0  0  0  0  0  0  0  0
   12.0230    3.9530   22.6700 C   0  0  0  0  0  0  0  0  0  0  0  0
   10.7310    3.4810   23.2980 C   0  0  0  0  0  0  0  0  0  0  0  0
    9.7270    3.2490   22.2940 N   0  0  0  0  0  0  0  0  0  0  0  0
    9.0990    1.9470   22.1600 C   0  0  0  0  0  0  0  0  0  0  0  0
    8.7400    1.5140   21.0720 O   0  0  0  0  0  0  0  0  0  0  0  0
    8.9230    1.2350   23.5230 C   0  0  1  0  0  0  0  0  0  0  0  0
    7.4280    0.9780   23.8140 C   0  0  0  0  0  0  0  0  0  0  0  0
    7.1240   -0.4230   23.3080 C   0  0  0  0  0  0  0  0  0  0  0  0
    8.4510   -1.1110   23.0850 C   0  0  0  0  0  0  0  0  0  0  0  0
    9.5250   -0.1950   23.6620 C   0  0  1  0  0  0  0  0  0  0  0  0
   10.9090   -0.4500   23.1060 C   0  0  0  0  0  0  0  0  0  0  0  0
   11.9810    0.5650   23.3240 C   0  0  0  0  0  0  0  0  0  0  0  0
   13.2700    0.1340   22.6990 C   0  0  0  0  0  0  0  0  0  0  0  0
   13.1020   -1.3900   21.9440 S   0  0  0  0  0  0  0  0  0  0  0  0
   11.4200   -1.5370   22.3720 C   0  0  0  0  0  0  0  0  0  0  0  0
  1  2  1  0
  2  3  1  0
  3  4  1  0
  4  5  1  0
  5  6  1  0
  6  7  2  0
  8  6  1  6
  8  9  1  0
  9 10  1  0
 10 11  1  0
  8 12  1  0
 11 12  1  0
 12 13  1  6
 13 14  1  0
 14 15  2  0
 15 16  1  0
 13 17  2  0
 16 17  1  0
M  END
