ANT-DIA-b7f58f21-9-vinylsulfonamide
     RDKit          3D

 27 28  0  0  0  0  0  0  0  0999 V2000
    7.4780   -4.7410   20.8450 C   0  0  0  0  0  0  0  0  0  0  0  0
    6.2380   -4.8370   21.6900 C   0  0  0  0  0  0  0  0  0  0  0  0
    5.4950   -3.2660   21.7790 S   0  0  0  0  0  0  0  0  0  0  0  0
    4.9050   -3.0670   20.4700 O   0  0  0  0  0  0  0  0  0  0  0  0
    4.5710   -3.3180   22.9040 O   0  0  0  0  0  0  0  0  0  0  0  0
    6.8560   -2.1520   22.2780 C   0  0  0  0  0  0  0  0  0  0  0  0
    7.9360   -1.9410   23.1770 C   0  0  0  0  0  0  0  0  0  0  0  0
    8.3750   -0.7030   22.7370 C   0  0  0  0  0  0  0  0  0  0  0  0
    9.0380   -1.2600   23.8570 C   0  0  0  0  0  0  0  0  0  0  0  0
    9.9070   -0.2010   24.0110 N   0  0  0  0  0  0  0  0  0  0  0  0
   10.0560    0.0170   25.3560 C   0  0  0  0  0  0  0  0  0  0  0  0
    9.7660    0.2870   26.5120 O   0  0  0  0  0  0  0  0  0  0  0  0
    8.7170    0.3330   25.1360 N   0  0  0  0  0  0  0  0  0  0  0  0
    8.2270    1.6040   24.5950 C   0  0  0  0  0  0  0  0  0  0  0  0
    6.7480    1.8060   24.9400 C   0  0  0  0  0  0  0  0  0  0  0  0
    6.5310    1.7340   26.3570 O   0  0  0  0  0  0  0  0  0  0  0  0
    6.9650    0.4680   26.9030 C   0  0  0  0  0  0  0  0  0  0  0  0
    7.6940   -0.4120   25.8790 C   0  0  0  0  0  0  0  0  0  0  0  0
    8.0300   -2.0930   23.4040 C   0  0  0  0  0  0  0  0  0  0  0  0
    8.4730   -2.9830   24.5490 C   0  0  0  0  0  0  0  0  0  0  0  0
    9.1350   -4.2640   24.1600 C   0  0  0  0  0  0  0  0  0  0  0  0
    9.0800   -5.2310   25.2700 N   0  0  0  0  0  0  0  0  0  0  0  0
    8.0120   -4.9600   26.5290 S   0  0  0  0  0  0  0  0  0  0  0  0
    8.7890   -5.8100   27.8520 C   0  0  0  0  0  0  0  0  0  0  0  0
    6.8050   -5.6600   26.1830 O   0  0  0  0  0  0  0  0  0  0  0  0
    8.0060   -3.5540   26.8720 O   0  0  0  0  0  0  0  0  0  0  0  0
    7.1080   -3.1470   23.2050 C   0  0  0  0  0  0  0  0  0  0  0  0
  1  2  1  0
  3  2  1  0
  3  4  2  0
  3  5  2  0
  3  6  1  0
  6  7  2  0
  7  8  1  0
  8  9  2  0
  9 10  1  0
 10 11  1  0
 11 12  2  0
 11 13  1  0
 13 14  1  0
 14 15  1  0
 15 16  1  0
 16 17  1  0
 13 18  1  0
 17 18  1  0
  9 19  1  0
 19 20  1  0
 20 21  1  0
 21 22  1  0
 23 22  1  0
 23 24  1  0
 23 25  2  0
 23 26  2  0
  6 27  1  0
 19 27  2  0
M  END
