ANT-DIA-045cfdc4-3
     RDKit          3D

 19 21  0  0  0  0  0  0  0  0999 V2000
    8.8290    1.7790   21.2090 O   0  0  0  0  0  0  0  0  0  0  0  0
    9.3860    1.9870   22.2920 C   0  0  0  0  0  0  0  0  0  0  0  0
   10.4540    2.9350   22.4960 N   0  0  0  0  0  0  0  0  0  0  0  0
   10.2220    4.2600   22.8110 C   0  0  0  0  0  0  0  0  0  0  0  0
    8.8140    4.8090   22.8120 C   0  0  0  0  0  0  0  0  0  0  0  0
    8.5630    6.1040   23.1120 N   0  0  0  0  0  0  0  0  0  0  0  0
    9.6420    6.8610   23.4050 C   0  0  0  0  0  0  0  0  0  0  0  0
   10.9380    6.4700   23.4360 N   0  0  0  0  0  0  0  0  0  0  0  0
   11.2010    5.1730   23.1370 C   0  0  0  0  0  0  0  0  0  0  0  0
    8.9610    1.2290   23.5570 C   0  0  1  0  0  0  0  0  0  0  0  0
    7.4660    1.0170   23.7700 C   0  0  0  0  0  0  0  0  0  0  0  0
    7.1380   -0.3910   23.3110 C   0  0  0  0  0  0  0  0  0  0  0  0
    8.4650   -1.0940   23.1170 C   0  0  0  0  0  0  0  0  0  0  0  0
    9.5450   -0.2090   23.7290 C   0  0  1  0  0  0  0  0  0  0  0  0
   10.9230   -0.4690   23.1440 C   0  0  0  0  0  0  0  0  0  0  0  0
   11.9680    0.6140   23.3750 C   0  0  0  0  0  0  0  0  0  0  0  0
   13.2610    0.1920   22.7300 C   0  0  0  0  0  0  0  0  0  0  0  0
   13.0990   -1.3430   21.9860 S   0  0  0  0  0  0  0  0  0  0  0  0
   11.4450   -1.5330   22.4170 C   0  0  0  0  0  0  0  0  0  0  0  0
  1  2  2  0
  2  3  1  0
  3  4  1  0
  4  5  2  0
  5  6  1  0
  6  7  2  0
  7  8  1  0
  4  9  1  0
  8  9  2  0
 10  2  1  6
 10 11  1  0
 11 12  1  0
 12 13  1  0
 10 14  1  0
 13 14  1  0
 14 15  1  6
 15 16  1  0
 16 17  2  0
 17 18  1  0
 15 19  2  0
 18 19  1  0
M  END
