ANT-STE-dbb91f63-2-nitrile
     RDKit          3D

 22 24  0  0  0  0  0  0  0  0999 V2000
    6.7680   -3.5420   19.8970 C   0  0  0  0  0  0  0  0  0  0  0  0
    5.7890   -4.3670   19.8570 N   0  0  0  0  0  0  0  0  0  0  0  0
    6.8460   -2.6880   20.9750 N   0  0  0  0  0  0  0  0  0  0  0  0
    7.4970   -1.3600   20.8340 C   0  0  0  0  0  0  0  0  0  0  0  0
    8.6660   -1.1530   21.8240 C   0  0  0  0  0  0  0  0  0  0  0  0
    8.9950   -2.3380   22.6410 N   0  0  0  0  0  0  0  0  0  0  0  0
   10.1090   -2.3050   23.4940 C   0  0  0  0  0  0  0  0  0  0  0  0
   10.8920   -1.0770   23.5770 C   0  0  0  0  0  0  0  0  0  0  0  0
   10.7210    0.2110   23.4070 C   0  0  0  0  0  0  0  0  0  0  0  0
   11.3070    1.1300   23.4730 N   0  0  0  0  0  0  0  0  0  0  0  0
   11.0760    2.5350   23.2910 C   0  0  0  0  0  0  0  0  0  0  0  0
   12.1930    3.3640   23.2040 C   0  0  0  0  0  0  0  0  0  0  0  0
   11.9960    4.7840   23.0610 C   0  0  0  0  0  0  0  0  0  0  0  0
   10.5600    5.3100   22.9890 C   0  0  0  0  0  0  0  0  0  0  0  0
    9.3780    4.4710   23.0590 C   0  0  0  0  0  0  0  0  0  0  0  0
    8.1940    4.8120   23.0080 O   0  0  0  0  0  0  0  0  0  0  0  0
    7.8960    5.9390   22.1740 C   0  0  0  0  0  0  0  0  0  0  0  0
    9.7430    2.9940   23.2250 C   0  0  0  0  0  0  0  0  0  0  0  0
   12.4740    0.4700   23.8420 N   0  0  0  0  0  0  0  0  0  0  0  0
   12.2190   -0.9060   23.9120 N   0  0  0  0  0  0  0  0  0  0  0  0
    7.8280   -2.9750   23.2580 C   0  0  0  0  0  0  0  0  0  0  0  0
    6.6100   -3.1340   22.3510 C   0  0  0  0  0  0  0  0  0  0  0  0
  1  2  2  3
  1  3  1  0
  3  4  1  0
  4  5  1  0
  5  6  1  0
  6  7  1  0
  7  8  1  0
  8  9  2  0
  9 10  1  0
 10 11  1  0
 11 12  2  0
 12 13  1  0
 13 14  2  0
 14 15  1  0
 15 16  1  0
 16 17  1  0
 11 18  1  0
 15 18  2  0
 10 19  1  0
  8 20  1  0
 19 20  2  0
  6 21  1  0
  3 22  1  0
 21 22  1  0
M  END
