ANT-OPE-45835252-2
     RDKit          3D

 23 25  0  0  0  0  0  0  0  0999 V2000
    8.7960   -2.7390   23.2740 O   0  0  0  0  0  0  0  0  0  0  0  0
    9.0010   -1.8010   22.5260 C   0  0  0  0  0  0  0  0  0  0  0  0
    8.4380   -1.5600   21.3000 O   0  0  0  0  0  0  0  0  0  0  0  0
    7.3230   -0.7130   21.2380 N   0  0  0  0  0  0  0  0  0  0  0  0
    6.6690   -0.3530   22.3520 N   0  0  0  0  0  0  0  0  0  0  0  0
    5.6760    0.4480   21.9750 N   0  0  0  0  0  0  0  0  0  0  0  0
    5.7150    0.5860   20.6060 C   0  0  0  0  0  0  0  0  0  0  0  0
    4.8030    1.4000   19.6760 C   0  0  0  0  0  0  0  0  0  0  0  0
    5.0810    1.3770   18.1810 C   0  0  0  0  0  0  0  0  0  0  0  0
    6.2400    0.5460   17.6510 C   0  0  0  0  0  0  0  0  0  0  0  0
    7.1140   -0.2490   18.6200 C   0  0  0  0  0  0  0  0  0  0  0  0
    6.7700   -0.1600   20.1050 C   0  0  0  0  0  0  0  0  0  0  0  0
    9.9330   -0.6960   22.8310 C   0  0  0  0  0  0  0  0  0  0  0  0
   11.4580   -0.6820   22.6560 C   0  0  0  0  0  0  0  0  0  0  0  0
   12.1180    0.6540   23.0270 C   0  0  0  0  0  0  0  0  0  0  0  0
   11.2920    1.7260   23.4750 C   0  0  0  0  0  0  0  0  0  0  0  0
   11.8450    2.9600   23.7480 O   0  0  0  0  0  0  0  0  0  0  0  0
   11.0840    4.2160   23.5580 C   0  0  0  0  0  0  0  0  0  0  0  0
   11.2560    4.7940   22.3470 F   0  0  0  0  0  0  0  0  0  0  0  0
   11.4740    5.1660   24.4380 F   0  0  0  0  0  0  0  0  0  0  0  0
    9.7510    4.0330   23.6780 F   0  0  0  0  0  0  0  0  0  0  0  0
    9.9480    1.5650   23.6130 C   0  0  0  0  0  0  0  0  0  0  0  0
    9.2970    0.4180   23.3110 C   0  0  0  0  0  0  0  0  0  0  0  0
  1  2  2  0
  2  3  1  0
  3  4  1  0
  4  5  1  0
  5  6  2  0
  6  7  1  0
  7  8  1  0
  8  9  2  0
  9 10  1  0
 10 11  2  0
  4 12  1  0
  7 12  2  0
 11 12  1  0
  2 13  1  0
 13 14  2  0
 14 15  1  0
 15 16  2  0
 16 17  1  0
 17 18  1  0
 18 19  1  0
 18 20  1  0
 18 21  1  0
 16 22  1  0
 13 23  1  0
 22 23  2  0
M  END
