ANT-STE-dbb91f63-3-vinylsulfonamide
     RDKit          3D

 25 27  0  0  0  0  0  0  0  0999 V2000
    8.0660   -3.4110   19.6700 C   0  0  0  0  0  0  0  0  0  0  0  0
    6.9590   -2.6880   18.9660 C   0  0  0  0  0  0  0  0  0  0  0  0
    5.7510   -3.1950   20.1040 S   0  0  0  0  0  0  0  0  0  0  0  0
    4.4480   -3.0210   19.5950 O   0  0  0  0  0  0  0  0  0  0  0  0
    6.0720   -4.5180   20.5290 O   0  0  0  0  0  0  0  0  0  0  0  0
    6.1480   -2.1330   21.3750 N   0  0  0  0  0  0  0  0  0  0  0  0
    7.1270   -1.0620   21.0890 C   0  0  0  0  0  0  0  0  0  0  0  0
    8.5580   -1.4190   21.5340 C   0  0  0  0  0  0  0  0  0  0  0  0
    8.6890   -1.8860   22.9140 N   0  0  0  0  0  0  0  0  0  0  0  0
    9.9720   -2.2550   23.3390 C   0  0  0  0  0  0  0  0  0  0  0  0
   10.8600   -1.2950   23.7650 C   0  0  0  0  0  0  0  0  0  0  0  0
   11.2260   -0.1940   23.1060 C   0  0  0  0  0  0  0  0  0  0  0  0
   11.8950    0.6400   23.3200 N   0  0  0  0  0  0  0  0  0  0  0  0
   12.4380    1.9160   22.8400 C   0  0  0  0  0  0  0  0  0  0  0  0
   13.7340    1.8410   22.2790 C   0  0  0  0  0  0  0  0  0  0  0  0
   14.3580    3.1840   21.8040 C   0  0  0  0  0  0  0  0  0  0  0  0
   13.6450    4.4650   21.9040 C   0  0  0  0  0  0  0  0  0  0  0  0
   12.2490    4.4440   22.5060 C   0  0  0  0  0  0  0  0  0  0  0  0
   11.7200    3.1380   22.9530 C   0  0  0  0  0  0  0  0  0  0  0  0
   10.4050    3.2880   23.5120 O   0  0  0  0  0  0  0  0  0  0  0  0
    9.8930    4.6140   23.5740 C   0  0  0  0  0  0  0  0  0  0  0  0
   12.2970    0.1810   24.5640 N   0  0  0  0  0  0  0  0  0  0  0  0
   11.6320   -1.0640   24.8610 N   0  0  0  0  0  0  0  0  0  0  0  0
    7.7070   -2.9620   23.1620 C   0  0  0  0  0  0  0  0  0  0  0  0
    6.2610   -2.7290   22.7230 C   0  0  0  0  0  0  0  0  0  0  0  0
  1  2  1  0
  3  2  1  0
  3  4  2  0
  3  5  2  0
  3  6  1  0
  6  7  1  0
  7  8  1  0
  8  9  1  0
  9 10  1  0
 10 11  1  0
 11 12  2  0
 12 13  1  0
 13 14  1  0
 14 15  2  0
 15 16  1  0
 16 17  2  0
 17 18  1  0
 14 19  1  0
 18 19  2  0
 19 20  1  0
 20 21  1  0
 13 22  1  0
 11 23  1  0
 22 23  2  0
  9 24  1  0
  6 25  1  0
 24 25  1  0
M  END
