ANT-OPE-47f3bb65-4
     RDKit          3D

 18 19  0  0  0  0  0  0  0  0999 V2000
   10.3260    4.2070   22.5420 C   0  0  0  0  0  0  0  0  0  0  0  0
   10.9450    5.5200   22.8140 N   0  0  0  0  0  0  0  0  0  0  0  0
   10.1000    6.4890   23.4140 C   0  0  0  0  0  0  0  0  0  0  0  0
   12.2870    5.3020   23.3100 C   0  0  0  0  0  0  0  0  0  0  0  0
   12.7490    3.9480   22.8020 C   0  0  0  0  0  0  0  0  0  0  0  0
   11.8220    2.8240   23.2940 C   0  0  0  0  0  0  0  0  0  0  0  0
   10.5560    3.1460   24.1360 C   0  0  0  0  0  0  0  0  0  0  0  0
    9.9320    1.9660   24.4070 N   0  0  0  0  0  0  0  0  0  0  0  0
   10.6950    0.9560   23.8080 C   0  0  0  0  0  0  0  0  0  0  0  0
   10.1500   -0.4450   23.9870 C   0  0  0  0  0  0  0  0  0  0  0  0
   10.9780   -1.5160   23.3010 C   0  0  0  0  0  0  0  0  0  0  0  0
   12.2090   -1.0210   22.5710 C   0  0  0  0  0  0  0  0  0  0  0  0
   13.0680   -2.2070   21.7940 S   0  0  0  0  0  0  0  0  0  0  0  0
   13.7470   -2.9350   23.1680 N   0  0  0  0  0  0  0  0  0  0  0  0
   12.0400   -3.0320   21.2800 O   0  0  0  0  0  0  0  0  0  0  0  0
   13.9300   -1.5070   20.8880 O   0  0  0  0  0  0  0  0  0  0  0  0
   12.6450    0.3810   22.5060 C   0  0  0  0  0  0  0  0  0  0  0  0
   11.8300    1.4050   23.1390 C   0  0  0  0  0  0  0  0  0  0  0  0
  1  2  1  0
  2  3  1  0
  2  4  1  0
  4  5  1  0
  5  6  1  0
  6  7  2  0
  7  8  1  0
  8  9  1  0
  9 10  1  0
 10 11  2  0
 11 12  1  0
 12 13  1  0
 13 14  1  0
 13 15  2  0
 13 16  2  0
 12 17  2  0
  6 18  1  0
  9 18  2  0
 17 18  1  0
M  END
