ANT-OPE-c0c3e7cc-1-chloroacetamide
     RDKit          3D

 17 18  0  0  0  0  0  0  0  0999 V2000
    7.1430   -3.0470   18.9750 C   0  0  0  0  0  0  0  0  0  0  0  0
    6.2010   -3.4620   20.0640 C   0  0  0  0  0  0  0  0  0  0  0  0
    5.3490   -4.3220   19.8220 O   0  0  0  0  0  0  0  0  0  0  0  0
    6.3270   -2.8830   21.3320 N   0  0  0  0  0  0  0  0  0  0  0  0
    6.2080   -1.4300   21.5410 C   0  0  0  0  0  0  0  0  0  0  0  0
    7.3840   -0.7400   21.2330 C   0  0  0  0  0  0  0  0  0  0  0  0
    8.5500   -1.3370   21.7070 C   0  0  0  0  0  0  0  0  0  0  0  0
    8.5200   -1.7760   23.1180 N   0  0  0  0  0  0  0  0  0  0  0  0
    9.8700   -2.1250   23.6060 C   0  0  0  0  0  0  0  0  0  0  0  0
   10.6700   -0.9850   23.6120 C   0  0  0  0  0  0  0  0  0  0  0  0
   12.0000   -1.0010   22.9600 C   0  0  0  0  0  0  0  0  0  0  0  0
   12.9080    0.2250   22.9230 C   0  0  0  0  0  0  0  0  0  0  0  0
   12.1320    1.1760   23.6090 C   0  0  0  0  0  0  0  0  0  0  0  0
   11.1280    1.1600   24.0960 C   0  0  0  0  0  0  0  0  0  0  0  0
   10.1690    0.2080   24.2560 C   0  0  0  0  0  0  0  0  0  0  0  0
    7.5260   -2.8210   23.4070 C   0  0  0  0  0  0  0  0  0  0  0  0
    7.2420   -3.5820   22.2690 C   0  0  0  0  0  0  0  0  0  0  0  0
  1  2  1  0
  2  3  2  0
  2  4  1  0
  4  5  1  0
  5  6  1  0
  6  7  1  0
  7  8  1  0
  8  9  1  0
  9 10  1  0
 10 11  2  0
 11 12  1  0
 12 13  2  0
 13 14  1  0
 10 15  1  0
 14 15  2  0
  8 16  1  0
  4 17  1  0
 16 17  1  0
M  END
