ANT-OPE-c0c3e7cc-1-vinylsulfonamide
     RDKit          3D

 19 20  0  0  0  0  0  0  0  0999 V2000
    8.0420   -3.4990   19.7560 C   0  0  0  0  0  0  0  0  0  0  0  0
    6.9180   -2.8050   19.0700 C   0  0  0  0  0  0  0  0  0  0  0  0
    5.6540   -3.4840   20.0600 S   0  0  0  0  0  0  0  0  0  0  0  0
    4.4270   -2.9910   19.6070 O   0  0  0  0  0  0  0  0  0  0  0  0
    5.7530   -4.9040   20.0510 O   0  0  0  0  0  0  0  0  0  0  0  0
    6.0270   -2.7820   21.5420 N   0  0  0  0  0  0  0  0  0  0  0  0
    6.0750   -1.3520   21.6440 C   0  0  0  0  0  0  0  0  0  0  0  0
    7.2870   -0.7060   21.3800 C   0  0  0  0  0  0  0  0  0  0  0  0
    8.4770   -1.2790   21.8210 C   0  0  0  0  0  0  0  0  0  0  0  0
    8.4760   -1.7590   23.2240 N   0  0  0  0  0  0  0  0  0  0  0  0
    9.8520   -2.0340   23.6530 C   0  0  0  0  0  0  0  0  0  0  0  0
   10.6330   -0.9120   23.5930 C   0  0  0  0  0  0  0  0  0  0  0  0
   12.0050   -0.9560   22.9430 C   0  0  0  0  0  0  0  0  0  0  0  0
   12.8230    0.3240   22.8840 C   0  0  0  0  0  0  0  0  0  0  0  0
   12.3270    1.6140   23.4310 C   0  0  0  0  0  0  0  0  0  0  0  0
   10.9490    1.4580   24.0420 C   0  0  0  0  0  0  0  0  0  0  0  0
   10.1660    0.3020   24.1230 C   0  0  0  0  0  0  0  0  0  0  0  0
    7.4680   -2.7760   23.5520 C   0  0  0  0  0  0  0  0  0  0  0  0
    7.0120   -3.5300   22.3380 C   0  0  0  0  0  0  0  0  0  0  0  0
  1  2  1  0
  3  2  1  0
  3  4  2  0
  3  5  2  0
  3  6  1  0
  6  7  1  0
  7  8  1  0
  8  9  1  0
  9 10  1  0
 10 11  1  0
 11 12  1  0
 12 13  2  0
 13 14  1  0
 14 15  2  0
 15 16  1  0
 12 17  1  0
 16 17  2  0
 10 18  1  0
  6 19  1  0
 18 19  1  0
M  END
