ANT-DIA-b7f58f21-9-acrylamide
     RDKit          3D

 26 27  0  0  0  0  0  0  0  0999 V2000
    7.7950   -4.9010   21.0170 C   0  0  0  0  0  0  0  0  0  0  0  0
    6.5120   -4.5520   21.7630 C   0  0  0  0  0  0  0  0  0  0  0  0
    6.0440   -3.1970   21.2920 C   0  0  0  0  0  0  0  0  0  0  0  0
    4.8240   -3.0200   21.1100 O   0  0  0  0  0  0  0  0  0  0  0  0
    7.1290   -2.1460   20.9670 C   0  0  0  0  0  0  0  0  0  0  0  0
    7.2270   -1.2470   20.1100 C   0  0  0  0  0  0  0  0  0  0  0  0
    8.0150   -1.8100   21.1840 C   0  0  0  0  0  0  0  0  0  0  0  0
    7.3250   -2.9220   22.0600 C   0  0  0  0  0  0  0  0  0  0  0  0
    6.2320   -2.5830   21.2160 N   0  0  0  0  0  0  0  0  0  0  0  0
    5.3570   -1.5510   21.6480 C   0  0  0  0  0  0  0  0  0  0  0  0
    4.3980   -1.7270   22.4010 O   0  0  0  0  0  0  0  0  0  0  0  0
    5.6560   -0.2430   21.2110 N   0  0  0  0  0  0  0  0  0  0  0  0
    5.9280    0.8840   22.1170 C   0  0  0  0  0  0  0  0  0  0  0  0
    6.9770    1.8600   21.5580 C   0  0  0  0  0  0  0  0  0  0  0  0
    7.3620    1.6110   20.1980 O   0  0  0  0  0  0  0  0  0  0  0  0
    6.2600    1.2530   19.3250 C   0  0  0  0  0  0  0  0  0  0  0  0
    5.2850    0.1870   19.8580 C   0  0  0  0  0  0  0  0  0  0  0  0
    8.5540   -2.7800   22.4990 C   0  0  0  0  0  0  0  0  0  0  0  0
    9.5490   -3.2700   23.5270 C   0  0  0  0  0  0  0  0  0  0  0  0
    8.9770   -4.4100   24.3690 C   0  0  0  0  0  0  0  0  0  0  0  0
    8.6700   -3.9170   25.7180 N   0  0  0  0  0  0  0  0  0  0  0  0
    9.4720   -4.6440   26.9800 S   0  0  0  0  0  0  0  0  0  0  0  0
    8.9050   -6.2930   26.8330 C   0  0  0  0  0  0  0  0  0  0  0  0
   10.8630   -4.5950   26.5970 O   0  0  0  0  0  0  0  0  0  0  0  0
    8.9550   -4.1470   28.2280 O   0  0  0  0  0  0  0  0  0  0  0  0
    8.4830   -1.9280   21.5830 C   0  0  0  0  0  0  0  0  0  0  0  0
  1  2  1  0
  2  3  1  0
  3  4  2  0
  3  5  1  0
  5  6  2  0
  6  7  1  0
  7  8  2  0
  8  9  1  0
  9 10  1  0
 10 11  2  0
 10 12  1  0
 12 13  1  0
 13 14  1  0
 14 15  1  0
 15 16  1  0
 12 17  1  0
 16 17  1  0
  8 18  1  0
 18 19  1  0
 19 20  1  0
 20 21  1  0
 22 21  1  0
 22 23  1  0
 22 24  2  0
 22 25  2  0
  5 26  1  0
 18 26  2  0
M  END
