ANT-STE-dbb91f63-1-acrylamide
     RDKit          3D

 24 26  0  0  0  0  0  0  0  0999 V2000
    7.5750   -3.0960   19.0230 C   0  0  0  0  0  0  0  0  0  0  0  0
    6.2620   -2.3700   19.1690 C   0  0  0  0  0  0  0  0  0  0  0  0
    5.8580   -2.4610   20.6180 C   0  0  0  0  0  0  0  0  0  0  0  0
    4.9770   -3.2120   20.9990 O   0  0  0  0  0  0  0  0  0  0  0  0
    6.5300   -1.7210   21.5660 N   0  0  0  0  0  0  0  0  0  0  0  0
    7.7770   -1.0620   21.1720 C   0  0  0  0  0  0  0  0  0  0  0  0
    8.9560   -1.7980   21.5960 C   0  0  0  0  0  0  0  0  0  0  0  0
    8.9520   -2.1770   23.0120 N   0  0  0  0  0  0  0  0  0  0  0  0
   10.0540   -2.8000   23.5880 C   0  0  0  0  0  0  0  0  0  0  0  0
   11.0630   -2.0030   24.1310 C   0  0  0  0  0  0  0  0  0  0  0  0
   11.8360   -1.4240   23.3190 C   0  0  0  0  0  0  0  0  0  0  0  0
   12.6700   -0.7680   23.2700 N   0  0  0  0  0  0  0  0  0  0  0  0
   13.3890   -0.1900   22.1590 C   0  0  0  0  0  0  0  0  0  0  0  0
   13.5730   -1.0410   20.9040 C   0  0  0  0  0  0  0  0  0  0  0  0
   14.2750   -0.3430   19.7770 C   0  0  0  0  0  0  0  0  0  0  0  0
   14.8100    1.1360   19.8800 C   0  0  0  0  0  0  0  0  0  0  0  0
   15.3670    1.6310   18.9140 O   0  0  0  0  0  0  0  0  0  0  0  0
   15.1220    3.0140   18.7620 C   0  0  0  0  0  0  0  0  0  0  0  0
   14.5800    1.7790   21.0990 C   0  0  0  0  0  0  0  0  0  0  0  0
   13.8550    1.1000   22.2360 C   0  0  0  0  0  0  0  0  0  0  0  0
   12.7750   -0.6450   24.6400 N   0  0  0  0  0  0  0  0  0  0  0  0
   11.7210   -1.4540   25.2010 N   0  0  0  0  0  0  0  0  0  0  0  0
    7.7120   -2.9180   23.2680 C   0  0  0  0  0  0  0  0  0  0  0  0
    6.5510   -2.2100   22.9550 C   0  0  0  0  0  0  0  0  0  0  0  0
  1  2  1  0
  2  3  1  0
  3  4  2  0
  3  5  1  0
  5  6  1  0
  6  7  1  0
  7  8  1  0
  8  9  1  0
  9 10  1  0
 10 11  2  0
 11 12  1  0
 12 13  1  0
 13 14  2  0
 14 15  1  0
 15 16  2  0
 16 17  1  0
 17 18  1  0
 16 19  1  0
 13 20  1  0
 19 20  2  0
 12 21  1  0
 10 22  1  0
 21 22  2  0
  8 23  1  0
  5 24  1  0
 23 24  1  0
M  END
