ANT-STE-dbb91f63-1-nitrile
     RDKit          3D

 22 24  0  0  0  0  0  0  0  0999 V2000
    6.2880   -4.9080   20.3620 C   0  0  0  0  0  0  0  0  0  0  0  0
    5.6820   -5.9270   19.8940 N   0  0  0  0  0  0  0  0  0  0  0  0
    5.9900   -4.4940   21.6380 N   0  0  0  0  0  0  0  0  0  0  0  0
    6.0280   -3.0570   21.9920 C   0  0  0  0  0  0  0  0  0  0  0  0
    7.2050   -2.7500   22.9400 C   0  0  0  0  0  0  0  0  0  0  0  0
    7.2130   -3.5910   24.1550 N   0  0  0  0  0  0  0  0  0  0  0  0
    8.2460   -3.3840   25.0830 C   0  0  0  0  0  0  0  0  0  0  0  0
    9.1590   -2.2700   24.8700 C   0  0  0  0  0  0  0  0  0  0  0  0
   10.1300   -1.9630   24.0600 C   0  0  0  0  0  0  0  0  0  0  0  0
   10.8190   -1.1370   23.8910 N   0  0  0  0  0  0  0  0  0  0  0  0
   11.8580   -0.9100   22.9550 C   0  0  0  0  0  0  0  0  0  0  0  0
   12.5580    0.3010   22.9350 C   0  0  0  0  0  0  0  0  0  0  0  0
   13.5560    0.4690   21.9010 C   0  0  0  0  0  0  0  0  0  0  0  0
   13.7940   -0.7010   20.8680 C   0  0  0  0  0  0  0  0  0  0  0  0
   14.6200   -0.5340   19.8280 O   0  0  0  0  0  0  0  0  0  0  0  0
   15.4760    0.7390   19.4790 C   0  0  0  0  0  0  0  0  0  0  0  0
   13.0740   -1.8640   21.0370 C   0  0  0  0  0  0  0  0  0  0  0  0
   12.0950   -1.9680   22.0830 C   0  0  0  0  0  0  0  0  0  0  0  0
   10.3190   -0.3570   24.9310 N   0  0  0  0  0  0  0  0  0  0  0  0
    9.2740   -1.0670   25.5530 N   0  0  0  0  0  0  0  0  0  0  0  0
    7.0520   -5.0210   23.8600 C   0  0  0  0  0  0  0  0  0  0  0  0
    6.0480   -5.4160   22.7760 C   0  0  0  0  0  0  0  0  0  0  0  0
  1  2  2  3
  1  3  1  0
  3  4  1  0
  4  5  1  0
  5  6  1  0
  6  7  1  0
  7  8  1  0
  8  9  2  0
  9 10  1  0
 10 11  1  0
 11 12  2  0
 12 13  1  0
 13 14  2  0
 14 15  1  0
 15 16  1  0
 14 17  1  0
 11 18  1  0
 17 18  2  0
 10 19  1  0
  8 20  1  0
 19 20  2  0
  6 21  1  0
  3 22  1  0
 21 22  1  0
M  END
