ANT-DIA-045cfdc4-4
     RDKit          3D

 20 22  0  0  0  0  0  0  0  0999 V2000
    8.7550    1.5580   21.1750 O   0  0  0  0  0  0  0  0  0  0  0  0
    9.2390    1.8390   22.2740 C   0  0  0  0  0  0  0  0  0  0  0  0
   10.1360    2.9200   22.4760 N   0  0  0  0  0  0  0  0  0  0  0  0
    9.6890    4.0260   23.1440 C   0  0  0  0  0  0  0  0  0  0  0  0
   10.7410    5.0960   23.1830 C   0  0  0  0  0  0  0  0  0  0  0  0
   11.8680    4.7130   22.2020 C   0  0  0  0  0  0  0  0  0  0  0  0
   13.0080    5.7200   22.1300 C   0  0  0  0  0  0  0  0  0  0  0  0
   12.9220    6.9720   23.0080 C   0  0  0  0  0  0  0  0  0  0  0  0
   11.6970    7.1060   23.8970 C   0  0  0  0  0  0  0  0  0  0  0  0
   10.6720    6.1930   23.9580 N   0  0  0  0  0  0  0  0  0  0  0  0
    8.9190    1.0900   23.5640 C   0  0  1  0  0  0  0  0  0  0  0  0
    7.4350    0.8340   23.8130 C   0  0  0  0  0  0  0  0  0  0  0  0
    7.1420   -0.5730   23.3450 C   0  0  0  0  0  0  0  0  0  0  0  0
    8.4810   -1.2490   23.1310 C   0  0  0  0  0  0  0  0  0  0  0  0
    9.5630   -0.3160   23.7230 C   0  0  1  0  0  0  0  0  0  0  0  0
   10.9480   -0.5310   23.1140 C   0  0  0  0  0  0  0  0  0  0  0  0
   11.9680    0.5400   23.3250 C   0  0  0  0  0  0  0  0  0  0  0  0
   13.1890    0.2520   22.7320 C   0  0  0  0  0  0  0  0  0  0  0  0
   13.1260   -1.2760   21.9430 S   0  0  0  0  0  0  0  0  0  0  0  0
   11.4880   -1.5620   22.3700 C   0  0  0  0  0  0  0  0  0  0  0  0
  1  2  2  0
  2  3  1  0
  3  4  1  0
  4  5  1  0
  5  6  2  0
  6  7  1  0
  7  8  2  0
  8  9  1  0
  5 10  1  0
  9 10  2  0
 11  2  1  6
 11 12  1  0
 12 13  1  0
 13 14  1  0
 11 15  1  0
 14 15  1  0
 15 16  1  6
 16 17  1  0
 17 18  2  0
 18 19  1  0
 16 20  2  0
 19 20  1  0
M  END
