ANT-OPE-c0c3e7cc-1-nitrile
     RDKit          3D

 16 17  0  0  0  0  0  0  0  0999 V2000
    6.6320   -3.5460   19.7930 C   0  0  0  0  0  0  0  0  0  0  0  0
    5.7350   -3.2480   18.9600 N   0  0  0  0  0  0  0  0  0  0  0  0
    6.7580   -2.9620   21.0180 N   0  0  0  0  0  0  0  0  0  0  0  0
    6.3900   -1.6500   21.3230 C   0  0  0  0  0  0  0  0  0  0  0  0
    7.3770   -0.6920   21.4590 C   0  0  0  0  0  0  0  0  0  0  0  0
    8.6350   -1.1690   21.7780 C   0  0  0  0  0  0  0  0  0  0  0  0
    8.6600   -1.9420   23.0220 N   0  0  0  0  0  0  0  0  0  0  0  0
    9.9600   -2.2450   23.6060 C   0  0  0  0  0  0  0  0  0  0  0  0
   10.7460   -1.1180   23.5440 C   0  0  0  0  0  0  0  0  0  0  0  0
   12.0190   -1.0320   22.9830 C   0  0  0  0  0  0  0  0  0  0  0  0
   12.8940    0.1970   22.8860 C   0  0  0  0  0  0  0  0  0  0  0  0
   12.2710    1.4470   23.4720 C   0  0  0  0  0  0  0  0  0  0  0  0
   10.9230    1.4700   24.0970 C   0  0  0  0  0  0  0  0  0  0  0  0
   10.1520    0.1690   24.1380 C   0  0  0  0  0  0  0  0  0  0  0  0
    7.6140   -2.9280   23.2970 C   0  0  0  0  0  0  0  0  0  0  0  0
    7.0940   -3.7440   22.2230 C   0  0  0  0  0  0  0  0  0  0  0  0
  1  2  2  3
  1  3  1  0
  3  4  1  0
  4  5  1  0
  5  6  1  0
  6  7  1  0
  7  8  1  0
  8  9  1  0
  9 10  2  0
 10 11  1  0
 11 12  2  0
 12 13  1  0
  9 14  1  0
 13 14  2  0
  7 15  1  0
  3 16  1  0
 15 16  1  0
M  END
