ANT-OPE-47f3bb65-5
     RDKit          3D

 20 21  0  0  0  0  0  0  0  0999 V2000
    9.8940    6.5280   23.1330 C   0  0  0  0  0  0  0  0  0  0  0  0
   10.5940    5.4090   22.5080 N   0  0  0  0  0  0  0  0  0  0  0  0
    9.9530    4.1170   22.5150 C   0  0  0  0  0  0  0  0  0  0  0  0
   12.0220    5.5360   22.7020 C   0  0  0  0  0  0  0  0  0  0  0  0
   12.6340    4.2050   23.1200 C   0  0  0  0  0  0  0  0  0  0  0  0
   11.5580    3.1550   23.5440 C   0  0  0  0  0  0  0  0  0  0  0  0
   10.1750    3.6120   24.0470 C   0  0  0  0  0  0  0  0  0  0  0  0
    9.4620    2.4970   24.3490 N   0  0  0  0  0  0  0  0  0  0  0  0
   10.2490    1.3520   24.0900 C   0  0  0  0  0  0  0  0  0  0  0  0
    9.5780    0.0440   24.3850 C   0  0  0  0  0  0  0  0  0  0  0  0
   10.4840   -1.1150   24.0840 C   0  0  0  0  0  0  0  0  0  0  0  0
   11.8560   -0.7340   23.5610 C   0  0  0  0  0  0  0  0  0  0  0  0
   12.8230   -2.0610   23.2190 S   0  0  0  0  0  0  0  0  0  0  0  0
   11.9770   -2.9850   22.5370 O   0  0  0  0  0  0  0  0  0  0  0  0
   13.6790   -2.3720   24.3430 O   0  0  0  0  0  0  0  0  0  0  0  0
   13.5490   -1.1760   22.0440 N   0  0  0  0  0  0  0  0  0  0  0  0
   13.4770    0.2150   22.3400 C   0  0  0  0  0  0  0  0  0  0  0  0
   13.3860   -1.7700   20.8290 C   0  0  0  0  0  0  0  0  0  0  0  0
   12.3840    0.5500   23.3250 C   0  0  0  0  0  0  0  0  0  0  0  0
   11.5050    1.7030   23.6110 C   0  0  0  0  0  0  0  0  0  0  0  0
  1  2  1  0
  2  3  1  0
  2  4  1  0
  4  5  1  0
  5  6  1  0
  6  7  2  0
  7  8  1  0
  8  9  1  0
  9 10  1  0
 10 11  2  0
 11 12  1  0
 12 13  1  0
 13 14  2  0
 13 15  2  0
 13 16  1  0
 16 17  1  0
 16 18  1  0
 12 19  2  0
  6 20  1  0
  9 20  2  0
 19 20  1  0
M  END
