ANT-OPE-c0c3e7cc-1-vinylsulfonamide
     RDKit          3D

 19 20  0  0  0  0  0  0  0  0999 V2000
    7.5960   -2.9590   18.3670 C   0  0  0  0  0  0  0  0  0  0  0  0
    7.0590   -2.3210   19.5660 C   0  0  0  0  0  0  0  0  0  0  0  0
    5.8560   -3.3520   20.3200 S   0  0  0  0  0  0  0  0  0  0  0  0
    4.5820   -3.0310   19.7590 O   0  0  0  0  0  0  0  0  0  0  0  0
    6.1820   -4.7380   20.3990 O   0  0  0  0  0  0  0  0  0  0  0  0
    6.0510   -2.7250   21.8650 N   0  0  0  0  0  0  0  0  0  0  0  0
    6.0060   -1.2460   21.9240 C   0  0  0  0  0  0  0  0  0  0  0  0
    7.2090   -0.6000   21.5880 C   0  0  0  0  0  0  0  0  0  0  0  0
    8.4280   -1.1840   21.9080 C   0  0  0  0  0  0  0  0  0  0  0  0
    8.5200   -1.6370   23.3100 N   0  0  0  0  0  0  0  0  0  0  0  0
    9.9030   -1.9840   23.6450 C   0  0  0  0  0  0  0  0  0  0  0  0
   10.6930   -0.8510   23.6240 C   0  0  0  0  0  0  0  0  0  0  0  0
   12.0140   -0.8790   22.9820 C   0  0  0  0  0  0  0  0  0  0  0  0
   12.9310    0.3130   22.8990 C   0  0  0  0  0  0  0  0  0  0  0  0
   12.1960    1.3150   23.5460 C   0  0  0  0  0  0  0  0  0  0  0  0
   11.1860    1.3240   24.0380 C   0  0  0  0  0  0  0  0  0  0  0  0
   10.2110    0.3740   24.2300 C   0  0  0  0  0  0  0  0  0  0  0  0
    7.5690   -2.7000   23.6650 C   0  0  0  0  0  0  0  0  0  0  0  0
    7.2130   -3.3810   22.5030 C   0  0  0  0  0  0  0  0  0  0  0  0
  1  2  1  0
  3  2  1  0
  3  4  2  0
  3  5  2  0
  3  6  1  0
  6  7  1  0
  7  8  1  0
  8  9  1  0
  9 10  1  0
 10 11  1  0
 11 12  1  0
 12 13  2  0
 13 14  1  0
 14 15  2  0
 15 16  1  0
 12 17  1  0
 16 17  2  0
 10 18  1  0
  6 19  1  0
 18 19  1  0
M  END
