ANT-STE-dbb91f63-1-vinylsulfonamide
     RDKit          3D

 25 27  0  0  0  0  0  0  0  0999 V2000
    7.4160   -2.8850   18.4520 C   0  0  0  0  0  0  0  0  0  0  0  0
    6.5900   -2.2590   19.5800 C   0  0  0  0  0  0  0  0  0  0  0  0
    5.8600   -3.4630   20.6630 S   0  0  0  0  0  0  0  0  0  0  0  0
    4.7050   -2.9720   21.3260 O   0  0  0  0  0  0  0  0  0  0  0  0
    5.7280   -4.7470   20.0150 O   0  0  0  0  0  0  0  0  0  0  0  0
    7.0440   -3.3740   21.8540 N   0  0  0  0  0  0  0  0  0  0  0  0
    7.1480   -2.0400   22.4340 C   0  0  0  0  0  0  0  0  0  0  0  0
    8.5310   -1.8310   23.0450 C   0  0  0  0  0  0  0  0  0  0  0  0
    8.9510   -2.9140   23.9410 N   0  0  0  0  0  0  0  0  0  0  0  0
   10.2800   -3.3470   23.9290 C   0  0  0  0  0  0  0  0  0  0  0  0
   11.2650   -2.4120   24.1330 C   0  0  0  0  0  0  0  0  0  0  0  0
   11.9150   -1.8340   23.1670 C   0  0  0  0  0  0  0  0  0  0  0  0
   12.6810   -1.1030   23.0800 N   0  0  0  0  0  0  0  0  0  0  0  0
   13.3870   -0.4320   22.0330 C   0  0  0  0  0  0  0  0  0  0  0  0
   13.7800    0.8860   22.3650 C   0  0  0  0  0  0  0  0  0  0  0  0
   14.5160    1.7120   21.2760 C   0  0  0  0  0  0  0  0  0  0  0  0
   14.7920    1.1700   19.9310 C   0  0  0  0  0  0  0  0  0  0  0  0
   15.3530    1.7720   19.0200 O   0  0  0  0  0  0  0  0  0  0  0  0
   15.0250    3.1410   18.8540 C   0  0  0  0  0  0  0  0  0  0  0  0
   14.2880   -0.2890   19.7330 C   0  0  0  0  0  0  0  0  0  0  0  0
   13.6160   -1.0330   20.8110 C   0  0  0  0  0  0  0  0  0  0  0  0
   12.8600   -0.8760   24.4420 N   0  0  0  0  0  0  0  0  0  0  0  0
   11.9220   -1.7460   25.1320 N   0  0  0  0  0  0  0  0  0  0  0  0
    7.9910   -4.0390   24.0440 C   0  0  0  0  0  0  0  0  0  0  0  0
    7.1830   -4.4660   22.8180 C   0  0  0  0  0  0  0  0  0  0  0  0
  1  2  1  0
  3  2  1  0
  3  4  2  0
  3  5  2  0
  3  6  1  0
  6  7  1  0
  7  8  1  0
  8  9  1  0
  9 10  1  0
 10 11  1  0
 11 12  2  0
 12 13  1  0
 13 14  1  0
 14 15  2  0
 15 16  1  0
 16 17  2  0
 17 18  1  0
 18 19  1  0
 17 20  1  0
 14 21  1  0
 20 21  2  0
 13 22  1  0
 11 23  1  0
 22 23  2  0
  9 24  1  0
  6 25  1  0
 24 25  1  0
M  END
