ASH-UNK-7e8c50a4-1-nitrile
     RDKit          3D

 41 46  0  0  0  0  0  0  0  0999 V2000
    6.6290   -4.2890   20.3470 C   0  0  0  0  0  0  0  0  0  0  0  0
    5.4550   -4.2460   19.8450 N   0  0  0  0  0  0  0  0  0  0  0  0
    6.9300   -4.2890   21.6790 N   0  0  0  0  0  0  0  0  0  0  0  0
    6.0520   -4.6380   22.8150 C   0  0  0  0  0  0  0  0  0  0  0  0
    6.3600   -3.5870   23.9420 C   0  0  0  0  0  0  0  0  0  0  0  0
    5.5160   -3.8340   25.2180 C   0  0  0  0  0  0  0  0  0  0  0  0
    5.9190   -2.7440   26.2700 C   0  0  0  0  0  0  0  0  0  0  0  0
    4.6080   -1.9740   26.4450 C   0  0  0  0  0  0  0  0  0  0  0  0
    5.1160   -0.9180   25.4670 C   0  0  0  0  0  0  0  0  0  0  0  0
    5.8010   -0.4750   24.5790 N   0  0  0  0  0  0  0  0  0  0  0  0
    5.6080    0.9370   24.1470 C   0  0  0  0  0  0  0  0  0  0  0  0
    6.2720    1.6110   23.1780 N   0  0  0  0  0  0  0  0  0  0  0  0
    5.8260    2.8810   23.0640 C   0  0  0  0  0  0  0  0  0  0  0  0
    4.7170    3.4970   23.9090 C   0  0  0  0  0  0  0  0  0  0  0  0
    4.1260    2.6570   24.8780 C   0  0  0  0  0  0  0  0  0  0  0  0
    4.6250    1.3600   24.9500 C   0  0  0  0  0  0  0  0  0  0  0  0
    4.2930    0.2500   25.7790 C   0  0  0  0  0  0  0  0  0  0  0  0
    3.2890    0.3000   26.7790 C   0  0  0  0  0  0  0  0  0  0  0  0
    2.1280   -0.4960   26.6530 C   0  0  0  0  0  0  0  0  0  0  0  0
    2.0870   -1.7220   26.7430 O   0  0  0  0  0  0  0  0  0  0  0  0
    1.0020    0.2640   26.4240 N   0  0  0  0  0  0  0  0  0  0  0  0
   -0.0360   -0.5500   26.0390 C   0  0  0  0  0  0  0  0  0  0  0  0
   -1.1010   -0.8710   26.8530 C   0  0  0  0  0  0  0  0  0  0  0  0
   -1.1030   -0.0870   28.0960 N   0  0  0  0  0  0  0  0  0  0  0  0
   -2.3860   -0.1390   28.7830 C   0  0  0  0  0  0  0  0  0  0  0  0
   -0.6910    1.3090   27.8450 C   0  0  0  0  0  0  0  0  0  0  0  0
    0.5930    1.4510   27.2340 C   0  0  2  0  0  0  0  0  0  0  0  0
    0.7840    2.7300   26.4090 C   0  0  0  0  0  0  0  0  0  0  0  0
    1.6250    2.7230   25.3680 C   0  0  0  0  0  0  0  0  0  0  0  0
    3.0270    3.2690   25.7170 C   0  0  0  0  0  0  0  0  0  0  0  0
    4.5960   -4.8740   25.3210 C   0  0  0  0  0  0  0  0  0  0  0  0
    4.3780   -5.8500   24.1390 C   0  0  0  0  0  0  0  0  0  0  0  0
    3.3620   -6.9970   24.3050 C   0  0  0  0  0  0  0  0  0  0  0  0
    3.7840   -8.0190   24.8380 O   0  0  0  0  0  0  0  0  0  0  0  0
    2.0390   -6.8850   23.8730 N   0  0  0  0  0  0  0  0  0  0  0  0
    1.5520   -5.5670   23.5000 C   0  0  0  0  0  0  0  0  0  0  0  0
    0.4940   -5.0090   24.4800 C   0  0  0  0  0  0  0  0  0  0  0  0
   -1.0080   -6.0290   24.4750 S   0  0  0  0  0  0  0  0  0  0  0  0
   -0.2050   -7.6130   24.8930 C   0  0  0  0  0  0  0  0  0  0  0  0
    1.0380   -7.9580   23.9860 C   0  0  0  0  0  0  0  0  0  0  0  0
    5.1150   -5.6810   22.9510 C   0  0  0  0  0  0  0  0  0  0  0  0
  1  2  2  3
  1  3  1  0
  3  4  1  0
  4  5  2  0
  5  6  1  0
  6  7  1  0
  7  8  1  0
  8  9  1  0
  9 10  1  0
 10 11  1  0
 11 12  2  0
 12 13  1  0
 13 14  2  0
 14 15  1  0
 11 16  1  0
 15 16  2  0
  9 17  2  0
 16 17  1  0
 17 18  1  0
 18 19  1  0
 19 20  2  0
 19 21  1  0
 21 22  1  0
 22 23  1  0
 23 24  1  0
 24 25  1  0
 24 26  1  0
 21 27  1  0
 27 26  1  6
 27 28  1  0
 28 29  1  0
 15 30  1  0
 29 30  1  0
  6 31  2  0
 31 32  1  0
 32 33  1  0
 33 34  2  0
 33 35  1  0
 35 36  1  0
 36 37  1  0
 37 38  1  0
 38 39  1  0
 35 40  1  0
 39 40  1  0
  4 41  1  0
 32 41  2  0
M  END
