ASH-UNK-7e8c50a4-1-chloroacetamide
     RDKit          3D

 42 47  0  0  0  0  0  0  0  0999 V2000
    7.4550   -4.4390   20.5800 C   0  0  0  0  0  0  0  0  0  0  0  0
    6.0660   -3.9780   20.6450 C   0  0  0  0  0  0  0  0  0  0  0  0
    5.2490   -4.1420   19.7470 O   0  0  0  0  0  0  0  0  0  0  0  0
    5.7670   -3.3650   21.7980 N   0  0  0  0  0  0  0  0  0  0  0  0
    5.2440   -3.9960   22.9780 C   0  0  0  0  0  0  0  0  0  0  0  0
    5.5810   -3.0430   24.1500 C   0  0  0  0  0  0  0  0  0  0  0  0
    5.0400   -3.6110   25.4760 C   0  0  0  0  0  0  0  0  0  0  0  0
    5.3930   -2.6120   26.5780 C   0  0  0  0  0  0  0  0  0  0  0  0
    4.3070   -1.6630   26.0610 C   0  0  0  0  0  0  0  0  0  0  0  0
    4.3210   -0.5620   27.1490 C   0  0  0  0  0  0  0  0  0  0  0  0
    5.1800    0.6330   26.8440 N   0  0  0  0  0  0  0  0  0  0  0  0
    4.9980    1.4850   28.0130 C   0  0  0  0  0  0  0  0  0  0  0  0
    5.5860    2.6820   28.1800 N   0  0  0  0  0  0  0  0  0  0  0  0
    5.2220    3.3480   29.4810 C   0  0  0  0  0  0  0  0  0  0  0  0
    4.3360    2.7010   30.3870 C   0  0  0  0  0  0  0  0  0  0  0  0
    3.7780    1.4500   30.1170 C   0  0  0  0  0  0  0  0  0  0  0  0
    4.1220    0.8170   28.8790 C   0  0  0  0  0  0  0  0  0  0  0  0
    3.6760   -0.4330   28.4060 C   0  0  0  0  0  0  0  0  0  0  0  0
    2.7950   -1.3090   29.0690 C   0  0  0  0  0  0  0  0  0  0  0  0
    1.4780   -1.4340   28.5730 C   0  0  0  0  0  0  0  0  0  0  0  0
    1.0960   -2.4290   27.9650 O   0  0  0  0  0  0  0  0  0  0  0  0
    0.5740   -0.3840   28.7950 N   0  0  0  0  0  0  0  0  0  0  0  0
   -0.8290   -0.7030   29.0790 C   0  0  0  0  0  0  0  0  0  0  0  0
   -1.5530    0.4640   29.2890 C   0  0  0  0  0  0  0  0  0  0  0  0
   -1.6200    1.3880   28.1330 N   0  0  0  0  0  0  0  0  0  0  0  0
   -2.1250    2.6920   28.5480 C   0  0  0  0  0  0  0  0  0  0  0  0
   -0.2890    1.4800   27.4950 C   0  0  0  0  0  0  0  0  0  0  0  0
    0.8160    1.0370   28.4540 C   0  0  1  0  0  0  0  0  0  0  0  0
    0.9520    1.7260   29.6060 C   0  0  0  0  0  0  0  0  0  0  0  0
    1.3540    0.8450   30.8130 C   0  0  0  0  0  0  0  0  0  0  0  0
    2.8580    0.9040   31.1960 C   0  0  0  0  0  0  0  0  0  0  0  0
    4.3520   -4.8170   25.5880 C   0  0  0  0  0  0  0  0  0  0  0  0
    4.1100   -5.6360   24.3150 C   0  0  0  0  0  0  0  0  0  0  0  0
    3.3390   -6.9640   24.3700 C   0  0  0  0  0  0  0  0  0  0  0  0
    3.9210   -7.9540   24.8030 O   0  0  0  0  0  0  0  0  0  0  0  0
    2.0140   -6.9250   23.9140 N   0  0  0  0  0  0  0  0  0  0  0  0
    1.0520   -8.0080   24.1400 C   0  0  0  0  0  0  0  0  0  0  0  0
   -0.1850   -7.6260   24.9950 C   0  0  0  0  0  0  0  0  0  0  0  0
   -1.0420   -6.1250   24.4220 S   0  0  0  0  0  0  0  0  0  0  0  0
    0.4150   -5.0480   24.2670 C   0  0  0  0  0  0  0  0  0  0  0  0
    1.4880   -5.6640   23.3710 C   0  0  0  0  0  0  0  0  0  0  0  0
    4.5640   -5.2020   23.0780 C   0  0  0  0  0  0  0  0  0  0  0  0
  1  2  1  0
  2  3  2  0
  2  4  1  0
  4  5  1  0
  5  6  2  0
  6  7  1  0
  7  8  1  0
  8  9  1  0
  9 10  1  0
 10 11  1  0
 11 12  1  0
 12 13  2  0
 13 14  1  0
 14 15  2  0
 15 16  1  0
 12 17  1  0
 16 17  2  0
 10 18  2  0
 17 18  1  0
 18 19  1  0
 19 20  1  0
 20 21  2  0
 20 22  1  0
 22 23  1  0
 23 24  1  0
 24 25  1  0
 25 26  1  0
 25 27  1  0
 22 28  1  0
 28 27  1  1
 28 29  1  0
 29 30  1  0
 16 31  1  0
 30 31  1  0
  7 32  2  0
 32 33  1  0
 33 34  1  0
 34 35  2  0
 34 36  1  0
 36 37  1  0
 37 38  1  0
 38 39  1  0
 39 40  1  0
 36 41  1  0
 40 41  1  0
  5 42  1  0
 33 42  2  0
M  END
