ASH-SAT-43770c7d-8
     RDKit          3D

 20 21  0  0  0  0  0  0  0  0999 V2000
    9.1100    6.6180   22.5970 C   0  0  0  0  0  0  0  0  0  0  0  0
   10.2240    6.2540   23.3620 C   0  0  0  0  0  0  0  0  0  0  0  0
   10.2720    6.4220   24.5750 O   0  0  0  0  0  0  0  0  0  0  0  0
   11.2280    5.6920   22.6200 N   0  0  0  0  0  0  0  0  0  0  0  0
   12.3450    5.0190   23.2730 C   0  0  0  0  0  0  0  0  0  0  0  0
   12.5200    3.6300   22.7840 C   0  0  0  0  0  0  0  0  0  0  0  0
   11.5520    2.5850   23.2700 C   0  0  0  0  0  0  0  0  0  0  0  0
   10.3130    2.7450   23.8990 C   0  0  0  0  0  0  0  0  0  0  0  0
    9.5860    1.4230   24.1470 C   0  0  1  0  0  0  0  0  0  0  0  0
    9.1620    1.1270   25.5720 C   0  0  0  0  0  0  0  0  0  0  0  0
    8.2920    1.7290   26.1990 O   0  0  0  0  0  0  0  0  0  0  0  0
    8.3400    1.2980   23.2560 C   0  0  0  0  0  0  0  0  0  0  0  0
    7.6230   -0.3370   23.2380 Cl  0  0  0  0  0  0  0  0  0  0  0  0
   10.6200    0.4470   23.6310 C   0  0  0  0  0  0  0  0  0  0  0  0
   10.5290   -0.9410   23.6160 C   0  0  0  0  0  0  0  0  0  0  0  0
   11.5790   -1.6640   23.0820 C   0  0  0  0  0  0  0  0  0  0  0  0
   12.6870   -0.9940   22.5900 C   0  0  0  0  0  0  0  0  0  0  0  0
   13.6570   -1.7200   22.0800 F   0  0  0  0  0  0  0  0  0  0  0  0
   12.8030    0.3910   22.6120 C   0  0  0  0  0  0  0  0  0  0  0  0
   11.7490    1.1300   23.1300 C   0  0  0  0  0  0  0  0  0  0  0  0
  1  2  1  0
  2  3  2  0
  2  4  1  0
  4  5  1  0
  5  6  1  0
  6  7  1  0
  7  8  2  0
  8  9  1  0
  9 10  1  1
 10 11  2  0
  9 12  1  0
 12 13  1  0
  9 14  1  0
 14 15  2  0
 15 16  1  0
 16 17  2  0
 17 18  1  0
 17 19  1  0
  7 20  1  0
 14 20  1  0
 19 20  2  0
M  END
