ASH-UNK-e28bb067-1
     RDKit          3D

  7  7  0  0  0  0  0  0  0  0999 V2000
    3.2550   -3.8010   25.1230 C   0  0  0  0  0  0  0  0  0  0  0  0
    1.9970   -3.0830   25.2940 C   0  0  1  0  0  0  0  0  0  0  0  0
    1.6540   -2.9140   26.7570 C   0  0  2  0  0  0  0  0  0  0  0  0
    0.4960   -2.9130   27.1820 O   0  0  0  0  0  0  0  0  0  0  0  0
    2.0110   -1.7030   25.9230 C   0  0  2  0  0  0  0  0  0  0  0  0
    0.9690   -0.7470   25.6910 C   0  0  0  0  0  0  0  0  0  0  0  0
    0.1310    0.0400   25.5390 N   0  0  0  0  0  0  0  0  0  0  0  0
  2  1  1  1
  2  3  1  0
  3  4  1  6
  2  5  1  0
  3  5  1  0
  5  6  1  6
  6  7  3  0
M  END
