ASH-UNK-e28bb067-2
     RDKit          3D

  7  6  0  0  0  0  0  0  0  0999 V2000
    6.5190   -1.2450   18.7590 N   0  0  0  0  0  0  0  0  0  0  0  0
    6.8280   -1.9480   19.6260 C   0  0  0  0  0  0  0  0  0  0  0  0
    7.1970   -2.9130   20.6690 C   0  0  1  0  0  0  0  0  0  0  0  0
    7.3020   -2.2370   21.8560 F   0  0  0  0  0  0  0  0  0  0  0  0
    6.1610   -4.0380   20.7380 C   0  0  0  0  0  0  0  0  0  0  0  0
    6.0840   -4.7650   21.9000 N   0  0  0  0  0  0  0  0  0  0  0  0
    5.3970   -4.3440   19.8140 O   0  0  0  0  0  0  0  0  0  0  0  0
  1  2  3  0
  2  3  1  0
  3  4  1  1
  3  5  1  0
  5  6  1  0
  5  7  2  0
M  END
