ATU-SYN-3e3fbfe4-1-chloroacetamide
     RDKit          3D

 25 27  0  0  0  0  0  0  0  0999 V2000
    6.8870   -3.0350   18.9800 C   0  0  0  0  0  0  0  0  0  0  0  0
    5.8620   -3.5160   19.9910 C   0  0  0  0  0  0  0  0  0  0  0  0
    5.3800   -4.6360   19.9110 O   0  0  0  0  0  0  0  0  0  0  0  0
    5.5010   -2.6510   20.9970 N   0  0  0  0  0  0  0  0  0  0  0  0
    5.2010   -3.1470   22.3410 C   0  0  0  0  0  0  0  0  0  0  0  0
    6.3070   -3.0560   23.1900 C   0  0  0  0  0  0  0  0  0  0  0  0
    6.8570   -1.6630   23.3360 N   0  0  0  0  0  0  0  0  0  0  0  0
    8.0440   -1.6400   24.2410 C   0  0  0  0  0  0  0  0  0  0  0  0
    7.9700   -0.5300   25.3050 C   0  0  0  0  0  0  0  0  0  0  0  0
    8.0340    1.1360   24.6800 S   0  0  2  0  0  0  0  0  0  0  0  0
    7.7020    2.1960   25.9120 N   0  0  0  0  0  0  0  0  0  0  0  0
    7.0950    1.3390   23.5980 O   0  0  0  0  0  0  0  0  0  0  0  0
    9.7170    1.1980   24.0980 C   0  0  0  0  0  0  0  0  0  0  0  0
   10.9040    2.0630   24.0280 C   0  0  0  0  0  0  0  0  0  0  0  0
   11.9730    1.1730   23.2750 C   0  0  0  0  0  0  0  0  0  0  0  0
   11.6630   -0.1990   22.8000 N   0  0  0  0  0  0  0  0  0  0  0  0
   10.3960   -0.9150   22.9310 C   0  0  0  0  0  0  0  0  0  0  0  0
   11.0350   -2.0130   22.2180 C   0  0  0  0  0  0  0  0  0  0  0  0
   12.3570   -1.5920   21.9500 C   0  0  0  0  0  0  0  0  0  0  0  0
   13.2150   -2.8150   21.0720 Cl  0  0  0  0  0  0  0  0  0  0  0  0
   12.8480   -0.1890   22.4270 C   0  0  0  0  0  0  0  0  0  0  0  0
   11.9560    0.6820   23.1160 C   0  0  0  0  0  0  0  0  0  0  0  0
   10.5350    0.2290   23.3900 C   0  0  0  0  0  0  0  0  0  0  0  0
    7.2140   -1.1770   21.9920 C   0  0  0  0  0  0  0  0  0  0  0  0
    6.0910   -1.3130   20.9610 C   0  0  0  0  0  0  0  0  0  0  0  0
  1  2  1  0
  2  3  2  0
  2  4  1  0
  4  5  1  0
  5  6  1  0
  6  7  1  0
  7  8  1  0
  8  9  1  0
 10  9  1  1
 10 11  2  0
 10 12  2  0
 10 13  1  0
 13 14  2  0
 14 15  1  0
 15 16  2  0
 16 17  1  0
 17 18  1  0
 18 19  2  0
 19 20  1  0
 19 21  1  0
 21 22  2  0
 13 23  1  0
 17 23  2  0
 22 23  1  0
  7 24  1  0
  4 25  1  0
 24 25  1  0
M  END
