AUS-ARG-7cfdce8f-16
     RDKit          3D

 27 31  0  0  0  0  0  0  0  0999 V2000
    4.1280    2.0740   21.2020 C   0  0  0  0  0  0  0  0  0  0  0  0
    4.1860    3.5680   21.3120 C   0  0  0  0  0  0  0  0  0  0  0  0
    5.3930    4.1410   21.6450 N   0  0  0  0  0  0  0  0  0  0  0  0
    6.5530    3.2600   21.8680 C   0  0  0  0  0  0  0  0  0  0  0  0
    6.5040    1.8610   21.7660 C   0  0  0  0  0  0  0  0  0  0  0  0
    7.6500    1.1020   21.9960 C   0  0  0  0  0  0  0  0  0  0  0  0
    7.5610   -0.3400   21.7610 N   0  0  0  0  0  0  0  0  0  0  0  0
    8.8240   -1.0710   22.0190 C   0  0  0  0  0  0  0  0  0  0  0  0
    8.9840   -2.4230   21.8800 O   0  0  0  0  0  0  0  0  0  0  0  0
   10.1540   -2.5660   22.5000 C   0  0  0  0  0  0  0  0  0  0  0  0
   11.2760   -2.0750   21.8690 C   0  0  0  0  0  0  0  0  0  0  0  0
   12.6290   -2.1190   22.4530 C   0  0  0  0  0  0  0  0  0  0  0  0
   12.8390   -2.7130   23.7870 C   0  0  0  0  0  0  0  0  0  0  0  0
   13.4770   -3.0210   24.6860 C   0  0  0  0  0  0  0  0  0  0  0  0
   13.6800   -3.5780   25.9130 C   0  0  0  0  0  0  0  0  0  0  0  0
   12.5320   -4.0490   26.3800 C   0  0  0  0  0  0  0  0  0  0  0  0
   11.4330   -3.8510   25.5760 C   0  0  0  0  0  0  0  0  0  0  0  0
   11.5880   -3.2100   24.3420 C   0  0  0  0  0  0  0  0  0  0  0  0
   10.2360   -3.1410   23.7100 C   0  0  0  0  0  0  0  0  0  0  0  0
    9.9970   -0.3700   22.4520 C   0  0  0  0  0  0  0  0  0  0  0  0
   11.2330   -1.0390   22.6980 C   0  0  0  0  0  0  0  0  0  0  0  0
   12.3630   -0.3690   23.1040 C   0  0  0  0  0  0  0  0  0  0  0  0
   12.3270    1.0790   23.3030 C   0  0  0  0  0  0  0  0  0  0  0  0
   10.9920    1.7220   23.0350 C   0  0  0  0  0  0  0  0  0  0  0  0
    9.8920    1.0090   22.6250 C   0  0  0  0  0  0  0  0  0  0  0  0
    8.7880    1.7370   22.4200 N   0  0  0  0  0  0  0  0  0  0  0  0
    5.2580    1.2830   21.4260 C   0  0  0  0  0  0  0  0  0  0  0  0
  1  2  2  0
  2  3  1  0
  3  4  2  0
  4  5  1  0
  5  6  1  0
  6  7  2  0
  7  8  1  0
  8  9  1  0
  9 10  1  0
 10 11  2  0
 11 12  1  0
 12 13  2  0
 13 14  1  0
 14 15  2  0
 15 16  1  0
 16 17  2  0
 13 18  1  0
 17 18  1  0
 10 19  1  0
 18 19  2  0
  8 20  2  0
 20 21  1  0
 21 22  2  0
 22 23  1  0
 23 24  2  0
 20 25  1  0
 24 25  1  0
  6 26  1  0
 25 26  2  0
  1 27  1  0
  5 27  2  0
M  END
