AUS-ARG-7cfdce8f-12
     RDKit          3D

 30 32  0  0  0  0  0  0  0  0999 V2000
    8.5720   -5.2110   25.5500 C   0  0  0  0  0  0  0  0  0  0  0  0
    7.4280   -4.8380   24.6440 C   0  0  0  0  0  0  0  0  0  0  0  0
    6.1800   -5.3920   24.9350 N   0  0  0  0  0  0  0  0  0  0  0  0
    5.3300   -4.9150   23.9990 N   0  0  0  0  0  0  0  0  0  0  0  0
    3.8880   -5.2890   23.9820 C   0  0  0  0  0  0  0  0  0  0  0  0
    3.4300   -6.4680   23.1260 C   0  0  0  0  0  0  0  0  0  0  0  0
    1.9560   -6.8460   23.0890 C   0  0  0  0  0  0  0  0  0  0  0  0
    0.9780   -6.0350   23.9100 C   0  0  0  0  0  0  0  0  0  0  0  0
   -0.4810   -6.4490   23.8410 C   0  0  0  0  0  0  0  0  0  0  0  0
   -1.3720   -5.7420   24.5550 F   0  0  0  0  0  0  0  0  0  0  0  0
   -0.9540   -6.4130   22.5620 F   0  0  0  0  0  0  0  0  0  0  0  0
   -0.6520   -7.7400   24.2450 F   0  0  0  0  0  0  0  0  0  0  0  0
    1.4550   -4.9480   24.6930 C   0  0  0  0  0  0  0  0  0  0  0  0
    2.8570   -4.5520   24.7560 N   0  0  0  0  0  0  0  0  0  0  0  0
    6.0550   -4.0530   23.1050 C   0  0  0  0  0  0  0  0  0  0  0  0
    5.3790   -3.4480   22.0470 C   0  0  0  0  0  0  0  0  0  0  0  0
    7.3780   -3.9950   23.5090 C   0  0  0  0  0  0  0  0  0  0  0  0
    8.3480   -3.2300   22.8560 C   0  0  0  0  0  0  0  0  0  0  0  0
    7.8710   -1.9730   22.4960 C   0  0  0  0  0  0  0  0  0  0  0  0
    7.1860   -1.7690   21.4990 O   0  0  0  0  0  0  0  0  0  0  0  0
    8.2690   -0.9180   23.4020 N   0  0  0  0  0  0  0  0  0  0  0  0
    9.1130    0.0230   22.9070 C   0  0  2  0  0  0  0  0  0  0  0  0
    8.8590    0.1720   21.5530 C   0  0  0  0  0  0  0  0  0  0  0  0
   10.5010   -0.5370   23.1150 C   0  0  0  0  0  0  0  0  0  0  0  0
   11.2050   -1.3460   22.0150 C   0  0  0  0  0  0  0  0  0  0  0  0
   12.5910   -1.8910   22.2700 C   0  0  0  0  0  0  0  0  0  0  0  0
   13.2440   -1.6380   23.5910 C   0  0  0  0  0  0  0  0  0  0  0  0
   12.5430   -0.8330   24.6790 C   0  0  0  0  0  0  0  0  0  0  0  0
   13.1040   -0.6100   25.8250 F   0  0  0  0  0  0  0  0  0  0  0  0
   11.1430   -0.3160   24.3320 C   0  0  0  0  0  0  0  0  0  0  0  0
  1  2  1  0
  2  3  2  0
  3  4  1  0
  4  5  1  0
  5  6  2  0
  6  7  1  0
  7  8  2  0
  8  9  1  0
  9 10  1  0
  9 11  1  0
  9 12  1  0
  8 13  1  0
  5 14  1  0
 13 14  2  0
  4 15  1  0
 15 16  1  0
  2 17  1  0
 15 17  2  0
 17 18  1  0
 18 19  1  0
 19 20  2  0
 19 21  1  0
 21 22  1  0
 22 23  1  6
 22 24  1  0
 24 25  2  0
 25 26  1  0
 26 27  2  0
 27 28  1  0
 28 29  1  0
 24 30  1  0
 28 30  2  0
M  END
