AUS-ARG-7cfdce8f-18
     RDKit          3D

 22 26  0  0  0  0  0  0  0  0999 V2000
    6.7020    1.0780   16.5900 C   0  0  0  0  0  0  0  0  0  0  0  0
    5.4890    1.8010   17.1910 C   0  0  0  0  0  0  0  0  0  0  0  0
    5.7860    1.2110   18.1810 N   0  0  0  0  0  0  0  0  0  0  0  0
    5.8930    0.7150   19.3490 C   0  0  0  0  0  0  0  0  0  0  0  0
    5.5050    0.6160   20.5570 N   0  0  0  0  0  0  0  0  0  0  0  0
    6.4880   -0.2580   20.9050 C   0  0  0  0  0  0  0  0  0  0  0  0
    6.7360   -0.8840   22.4600 S   0  0  0  0  0  0  0  0  0  0  0  0
    8.4850   -0.4600   22.3480 C   0  0  0  0  0  0  0  0  0  0  0  0
    9.1870   -1.0280   23.4540 C   0  0  0  0  0  0  0  0  0  0  0  0
   10.5300   -0.8620   23.3300 C   0  0  1  0  0  0  0  0  0  0  0  0
   10.8640    0.2570   22.5950 C   0  0  0  0  0  0  0  0  0  0  0  0
   12.3060    0.2840   22.4470 C   0  0  2  0  0  0  0  0  0  0  0  0
   12.5910   -1.0700   22.1610 C   0  0  0  0  0  0  0  0  0  0  0  0
   12.6920   -1.8940   22.8670 C   0  0  1  0  0  0  0  0  0  0  0  0
   12.9740   -2.0170   24.1940 C   0  0  0  0  0  0  0  0  0  0  0  0
   12.6260   -0.7040   24.6100 C   0  0  1  0  0  0  0  0  0  0  0  0
   12.8840    0.3810   23.6930 C   0  0  0  0  0  0  0  0  0  0  0  0
   11.1130   -0.5840   24.7190 C   0  0  0  0  0  0  0  0  0  0  0  0
   11.1370   -2.0810   22.9300 C   0  0  0  0  0  0  0  0  0  0  0  0
    7.4550   -0.6940   19.8520 N   0  0  0  0  0  0  0  0  0  0  0  0
    6.9720    0.0120   18.8810 N   0  0  0  0  0  0  0  0  0  0  0  0
    7.3530    0.1990   17.4800 C   0  0  0  0  0  0  0  0  0  0  0  0
  1  2  1  0
  2  3  2  0
  3  4  1  0
  4  5  2  0
  5  6  1  0
  6  7  1  0
  7  8  1  0
  8  9  1  0
 10  9  1  1
 10 11  1  0
 12 11  1  1
 12 13  1  0
 14 13  1  1
 14 15  1  0
 16 15  1  6
 12 17  1  0
 16 17  1  0
 10 18  1  0
 16 18  1  0
 10 19  1  0
 14 19  1  0
  6 20  2  0
  4 21  1  0
 20 21  1  0
  1 22  2  0
 21 22  1  0
M  END
