AUS-ARG-7cfdce8f-3
     RDKit          3D

 22 24  0  0  0  0  0  0  0  0999 V2000
    7.5010    1.9860   27.5600 C   0  0  0  0  0  0  0  0  0  0  0  0
    8.4850    0.9600   27.5680 O   0  0  0  0  0  0  0  0  0  0  0  0
    9.0540    0.5990   26.3690 C   0  0  0  0  0  0  0  0  0  0  0  0
    8.2800    1.0510   25.1740 C   0  0  0  0  0  0  0  0  0  0  0  0
    8.7870    0.7350   23.8200 C   0  0  0  0  0  0  0  0  0  0  0  0
   10.1020   -0.0460   23.7110 C   0  0  0  0  0  0  0  0  0  0  0  0
   10.9180   -0.5110   24.8480 C   0  0  0  0  0  0  0  0  0  0  0  0
   10.2690   -0.1300   26.1880 C   0  0  0  0  0  0  0  0  0  0  0  0
   12.1540   -1.2260   24.6100 C   0  0  0  0  0  0  0  0  0  0  0  0
   12.5370   -1.1690   23.2590 C   0  0  0  0  0  0  0  0  0  0  0  0
   11.4570   -1.3260   22.3930 C   0  0  0  0  0  0  0  0  0  0  0  0
   10.4890   -0.3160   22.4960 C   0  0  1  0  0  0  0  0  0  0  0  0
    9.3250   -0.6080   21.8070 C   0  0  0  0  0  0  0  0  0  0  0  0
    8.7170   -1.8540   22.2800 N   0  0  0  0  0  0  0  0  0  0  0  0
    7.4620   -1.9730   23.0340 C   0  0  0  0  0  0  0  0  0  0  0  0
    6.4930   -0.9700   22.9350 C   0  0  0  0  0  0  0  0  0  0  0  0
    5.3120   -0.9710   23.4850 N   0  0  0  0  0  0  0  0  0  0  0  0
    4.9870   -2.0420   24.2250 N   0  0  0  0  0  0  0  0  0  0  0  0
    5.8790   -3.0230   24.5490 C   0  0  0  0  0  0  0  0  0  0  0  0
    5.7390   -3.9230   25.3700 O   0  0  0  0  0  0  0  0  0  0  0  0
    7.1050   -2.9850   23.8520 C   0  0  0  0  0  0  0  0  0  0  0  0
    8.0870   -4.4190   24.1870 Cl  0  0  0  0  0  0  0  0  0  0  0  0
  1  2  1  0
  2  3  1  0
  3  4  2  0
  4  5  1  0
  5  6  2  0
  6  7  1  0
  3  8  1  0
  7  8  2  0
  7  9  1  0
  9 10  1  0
 10 11  1  0
  6 12  1  0
 11 12  1  0
 12 13  1  6
 13 14  1  0
 14 15  1  0
 15 16  1  0
 16 17  2  0
 17 18  1  0
 18 19  1  0
 19 20  2  0
 15 21  2  0
 19 21  1  0
 21 22  1  0
M  END
