AUS-ARG-7cfdce8f-6
     RDKit          3D

 21 23  0  0  0  0  0  0  0  0999 V2000
    7.2420    1.5240   21.2630 C   0  0  0  0  0  0  0  0  0  0  0  0
    8.1240    0.5790   22.0270 C   0  0  0  0  0  0  0  0  0  0  0  0
    8.6550   -0.6980   21.3510 C   0  0  0  0  0  0  0  0  0  0  0  0
    9.5700   -1.6840   22.0700 C   0  0  0  0  0  0  0  0  0  0  0  0
    9.9420   -1.3490   23.5150 C   0  0  0  0  0  0  0  0  0  0  0  0
   10.8610   -2.2410   24.3320 C   0  0  0  0  0  0  0  0  0  0  0  0
   10.4580   -3.2620   25.1570 N   0  0  0  0  0  0  0  0  0  0  0  0
   11.6060   -3.7760   25.6730 N   0  0  0  0  0  0  0  0  0  0  0  0
   12.6790   -3.0800   25.1720 C   0  0  0  0  0  0  0  0  0  0  0  0
   12.2650   -2.0960   24.3170 C   0  0  0  0  0  0  0  0  0  0  0  0
   12.9010   -1.1220   23.5570 C   0  0  0  0  0  0  0  0  0  0  0  0
   13.7090   -0.5000   22.9760 N   0  0  0  0  0  0  0  0  0  0  0  0
   13.6480   -0.5420   21.5900 C   0  0  0  0  0  0  0  0  0  0  0  0
   14.1920    0.7980   20.9380 C   0  0  0  0  0  0  0  0  0  0  0  0
   14.6430    0.7810   19.5840 C   0  0  0  0  0  0  0  0  0  0  0  0
   15.1580    1.8640   18.8550 C   0  0  0  0  0  0  0  0  0  0  0  0
   15.3160    3.1200   19.3460 C   0  0  0  0  0  0  0  0  0  0  0  0
   14.9300    3.2790   20.7030 N   0  0  0  0  0  0  0  0  0  0  0  0
   14.4400    2.2110   21.3980 C   0  0  0  0  0  0  0  0  0  0  0  0
    9.4330   -0.1740   24.1240 C   0  0  0  0  0  0  0  0  0  0  0  0
    8.5060    0.8060   23.3590 C   0  0  0  0  0  0  0  0  0  0  0  0
  1  2  1  0
  2  3  2  0
  3  4  1  0
  4  5  2  0
  5  6  1  0
  6  7  2  0
  7  8  1  0
  8  9  1  0
  6 10  1  0
  9 10  2  0
 10 11  1  0
 11 12  1  0
 12 13  1  0
 13 14  1  0
 14 15  2  0
 15 16  1  0
 16 17  2  0
 17 18  1  0
 14 19  1  0
 18 19  2  0
  5 20  1  0
  2 21  1  0
 20 21  2  0
M  END
