AUS-ARG-7cfdce8f-17
     RDKit          3D

 23 25  0  0  0  0  0  0  0  0999 V2000
   12.5130   -0.4830   24.7080 C   0  0  0  0  0  0  0  0  0  0  0  0
   11.1800   -1.0030   24.6910 O   0  0  0  0  0  0  0  0  0  0  0  0
   10.7220   -1.3510   23.4520 C   0  0  2  0  0  0  0  0  0  0  0  0
   10.9170   -0.4020   22.2980 C   0  0  0  0  0  0  0  0  0  0  0  0
    9.8130    0.4600   22.5480 C   0  0  1  0  0  0  0  0  0  0  0  0
    9.6000    1.7170   21.9770 C   0  0  0  0  0  0  0  0  0  0  0  0
    8.6690    1.6840   23.0230 N   0  0  0  0  0  0  0  0  0  0  0  0
    7.7370    2.6940   23.3910 C   0  0  0  0  0  0  0  0  0  0  0  0
    6.9040    2.4230   24.4800 C   0  0  0  0  0  0  0  0  0  0  0  0
    7.9360    3.6830   22.5350 C   0  0  0  0  0  0  0  0  0  0  0  0
    7.3790    5.0330   22.2750 C   0  0  0  0  0  0  0  0  0  0  0  0
    9.0490    3.1310   21.6790 N   0  0  0  0  0  0  0  0  0  0  0  0
    8.7830   -0.5750   22.2590 N   0  0  0  0  0  0  0  0  0  0  0  0
    7.0790   -0.3000   22.0870 S   0  0  0  0  0  0  0  0  0  0  0  0
    6.5120   -1.6160   22.2960 O   0  0  0  0  0  0  0  0  0  0  0  0
    6.6950    0.7870   22.9390 O   0  0  0  0  0  0  0  0  0  0  0  0
    6.6530    0.1630   20.4400 C   0  0  0  0  0  0  0  0  0  0  0  0
    5.8490    0.9320   20.1060 C   0  0  0  0  0  0  0  0  0  0  0  0
    5.2590    1.5200   19.0140 C   0  0  0  0  0  0  0  0  0  0  0  0
    5.8360    1.0090   17.8860 C   0  0  0  0  0  0  0  0  0  0  0  0
    6.8350    0.0590   17.9950 N   0  0  0  0  0  0  0  0  0  0  0  0
    7.2310   -0.3560   19.2750 C   0  0  0  0  0  0  0  0  0  0  0  0
    9.1840   -1.5070   23.3320 C   0  0  0  0  0  0  0  0  0  0  0  0
  1  2  1  0
  3  2  1  1
  3  4  1  0
  4  5  1  0
  5  6  1  6
  6  7  2  0
  7  8  1  0
  8  9  1  0
  8 10  2  0
 10 11  1  0
  6 12  1  0
 10 12  1  0
  5 13  1  0
 13 14  1  0
 14 15  2  0
 14 16  2  0
 14 17  1  0
 17 18  2  0
 18 19  1  0
 19 20  2  0
 20 21  1  0
 17 22  1  0
 21 22  2  0
  3 23  1  0
 13 23  1  0
M  END
