AUS-ARG-7cfdce8f-4
     RDKit          3D

 25 28  0  0  0  0  0  0  0  0999 V2000
   13.6960   -2.4640   25.3980 C   0  0  0  0  0  0  0  0  0  0  0  0
   13.0430   -1.1970   25.3900 O   0  0  0  0  0  0  0  0  0  0  0  0
   12.2150   -1.0600   24.3320 C   0  0  0  0  0  0  0  0  0  0  0  0
   12.6370   -1.7100   23.0470 C   0  0  0  0  0  0  0  0  0  0  0  0
   11.7530   -1.6080   21.8470 C   0  0  0  0  0  0  0  0  0  0  0  0
   10.4080   -0.8510   21.8650 C   0  0  0  0  0  0  0  0  0  0  0  0
    9.5070   -0.1580   22.4530 N   0  0  0  0  0  0  0  0  0  0  0  0
    9.0090   -0.2470   21.3020 C   0  0  0  0  0  0  0  0  0  0  0  0
    8.6130    0.3750   22.5540 C   0  0  0  0  0  0  0  0  0  0  0  0
    7.5970    0.6150   21.4880 C   0  0  0  0  0  0  0  0  0  0  0  0
    6.2770    0.9380   21.7830 C   0  0  0  0  0  0  0  0  0  0  0  0
    5.4640    1.2820   20.6790 C   0  0  0  0  0  0  0  0  0  0  0  0
    6.0790    1.2550   19.3390 N   0  0  0  0  0  0  0  0  0  0  0  0
    5.0840    1.3100   18.4110 C   0  0  1  0  0  0  0  0  0  0  0  0
    4.8600   -0.0180   18.0750 C   0  0  0  0  0  0  0  0  0  0  0  0
    3.8120    1.9940   18.9750 C   0  0  0  0  0  0  0  0  0  0  0  0
    3.4120    3.2340   18.5150 C   0  0  0  0  0  0  0  0  0  0  0  0
    2.2140    3.8330   19.0590 N   0  0  0  0  0  0  0  0  0  0  0  0
    1.4850    3.1850   20.0160 C   0  0  0  0  0  0  0  0  0  0  0  0
    1.8910    1.9180   20.4960 C   0  0  0  0  0  0  0  0  0  0  0  0
    3.0300    1.3290   19.9950 N   0  0  0  0  0  0  0  0  0  0  0  0
    6.9050    0.0550   19.1190 C   0  0  0  0  0  0  0  0  0  0  0  0
    7.5190   -0.5070   20.4210 C   0  0  0  0  0  0  0  0  0  0  0  0
   10.0400   -0.2510   23.0850 C   0  0  0  0  0  0  0  0  0  0  0  0
   10.9850   -0.3620   24.3650 C   0  0  0  0  0  0  0  0  0  0  0  0
  1  2  1  0
  2  3  1  0
  3  4  2  0
  4  5  1  0
  5  6  2  0
  6  7  1  0
  7  8  1  0
  8  9  2  0
  9 10  1  0
 10 11  1  0
 11 12  1  0
 12 13  1  0
 13 14  1  0
 14 15  1  1
 14 16  1  0
 16 17  2  0
 17 18  1  0
 18 19  2  0
 19 20  1  0
 16 21  1  0
 20 21  2  0
 13 22  1  0
 10 23  1  0
 22 23  1  0
  6 24  1  0
  9 24  1  0
  3 25  1  0
 24 25  2  0
M  END
