AVI-UNI-a66764d4-3-chloroacetamide
     RDKit          3D

 23 25  0  0  0  0  0  0  0  0999 V2000
    7.3770   -4.4650   20.7710 C   0  0  0  0  0  0  0  0  0  0  0  0
    5.8890   -4.1350   20.8190 C   0  0  0  0  0  0  0  0  0  0  0  0
    5.1430   -4.3180   19.8390 O   0  0  0  0  0  0  0  0  0  0  0  0
    5.4120   -3.6230   22.0330 N   0  0  0  0  0  0  0  0  0  0  0  0
    5.7780   -4.3550   23.2460 C   0  0  0  0  0  0  0  0  0  0  0  0
    6.6980   -4.0230   24.0160 N   0  0  0  0  0  0  0  0  0  0  0  0
    6.8720   -2.9980   23.0900 C   0  0  0  0  0  0  0  0  0  0  0  0
    7.9150   -2.2070   23.9030 C   0  0  0  0  0  0  0  0  0  0  0  0
    8.4420   -0.7690   23.1340 C   0  0  0  0  0  0  0  0  0  0  0  0
    8.0420   -0.0320   21.6340 C   0  0  0  0  0  0  0  0  0  0  0  0
    7.2760    0.0550   20.2800 C   0  0  0  0  0  0  0  0  0  0  0  0
    6.4550    1.1620   20.1540 N   0  0  0  0  0  0  0  0  0  0  0  0
    7.3540   -0.7430   19.3610 O   0  0  0  0  0  0  0  0  0  0  0  0
    7.2740   -1.1250   21.5820 C   0  0  0  0  0  0  0  0  0  0  0  0
    7.4190   -1.9210   22.7350 C   0  0  0  0  0  0  0  0  0  0  0  0
    8.3440   -1.6980   24.0480 S   0  0  0  0  0  0  0  0  0  0  0  0
    6.8770   -2.3200   24.6960 C   0  0  0  0  0  0  0  0  0  0  0  0
    7.4870   -1.2290   25.4880 C   0  0  0  0  0  0  0  0  0  0  0  0
    8.8230   -0.8910   24.7600 C   0  0  0  0  0  0  0  0  0  0  0  0
    9.2330   -1.7110   23.4330 C   0  0  0  0  0  0  0  0  0  0  0  0
   10.7420   -1.3370   22.6560 Cl  0  0  0  0  0  0  0  0  0  0  0  0
    8.3120   -2.8640   22.8010 C   0  0  0  0  0  0  0  0  0  0  0  0
    6.9630   -3.1860   23.5520 C   0  0  0  0  0  0  0  0  0  0  0  0
  1  2  1  0
  2  3  2  0
  2  4  1  0
  4  5  1  0
  5  6  2  0
  6  7  1  0
  7  8  2  0
  8  9  1  0
  9 10  2  0
 10 11  1  0
 11 12  1  0
 11 13  2  0
 10 14  1  0
  7 15  1  0
 14 15  2  0
 15 16  1  0
 16 17  1  0
 17 18  2  0
 18 19  1  0
 19 20  2  0
 20 21  1  0
 20 22  1  0
  5 23  1  0
 17 23  1  0
 22 23  2  0
M  END
