AVI-UNI-a66764d4-2-acrylamide
     RDKit          3D

 24 26  0  0  0  0  0  0  0  0999 V2000
    7.5380   -4.1770   20.6720 C   0  0  0  0  0  0  0  0  0  0  0  0
    7.0860   -4.4290   22.1250 C   0  0  0  0  0  0  0  0  0  0  0  0
    5.5880   -4.3080   22.1350 C   0  0  0  0  0  0  0  0  0  0  0  0
    4.4300   -4.0130   22.4080 O   0  0  0  0  0  0  0  0  0  0  0  0
    5.9190   -3.5150   23.2160 N   0  0  0  0  0  0  0  0  0  0  0  0
    6.5020   -2.1760   23.0400 C   0  0  0  0  0  0  0  0  0  0  0  0
    5.7170   -1.0570   22.3840 N   0  0  0  0  0  0  0  0  0  0  0  0
    6.9630   -0.5800   22.7480 C   0  0  0  0  0  0  0  0  0  0  0  0
    6.4300   -1.1530   21.4910 C   0  0  0  0  0  0  0  0  0  0  0  0
    7.5460   -0.2660   20.9020 C   0  0  0  0  0  0  0  0  0  0  0  0
    7.0960   -0.0770   19.4130 C   0  0  0  0  0  0  0  0  0  0  0  0
    6.5660    0.3030   18.3660 O   0  0  0  0  0  0  0  0  0  0  0  0
    6.3600    0.9440   19.9750 O   0  0  0  0  0  0  0  0  0  0  0  0
    8.5970    0.3600   21.6720 C   0  0  0  0  0  0  0  0  0  0  0  0
    9.2950   -0.0210   22.9930 C   0  0  0  0  0  0  0  0  0  0  0  0
    8.3410   -1.1730   22.7770 C   0  0  0  0  0  0  0  0  0  0  0  0
    9.8500   -1.1870   23.4730 S   0  0  0  0  0  0  0  0  0  0  0  0
    8.5320   -1.0870   24.6100 C   0  0  0  0  0  0  0  0  0  0  0  0
    9.7120   -0.5190   25.3150 C   0  0  0  0  0  0  0  0  0  0  0  0
   10.9100   -0.7460   24.3920 C   0  0  0  0  0  0  0  0  0  0  0  0
   10.7080   -1.4750   23.0020 C   0  0  0  0  0  0  0  0  0  0  0  0
   12.1020   -1.7310   22.0210 Cl  0  0  0  0  0  0  0  0  0  0  0  0
    9.2430   -1.9690   22.5110 C   0  0  0  0  0  0  0  0  0  0  0  0
    8.0210   -1.7270   23.4540 C   0  0  0  0  0  0  0  0  0  0  0  0
  1  2  1  0
  2  3  1  0
  3  4  2  0
  3  5  1  0
  5  6  1  0
  6  7  2  0
  7  8  1  0
  8  9  2  0
  9 10  1  0
 10 11  1  0
 11 12  2  0
 11 13  1  0
 10 14  2  0
 14 15  1  0
  8 16  1  0
 15 16  2  0
 16 17  1  0
 17 18  1  0
 18 19  2  0
 19 20  1  0
 20 21  2  0
 21 22  1  0
 21 23  1  0
  6 24  1  0
 18 24  1  0
 23 24  2  0
M  END
