AVI-UNI-a66764d4-2-vinylsulfonamide
     RDKit          3D

 25 27  0  0  0  0  0  0  0  0999 V2000
    6.4190   -4.1590   20.0490 C   0  0  0  0  0  0  0  0  0  0  0  0
    5.6960   -2.8540   19.8570 C   0  0  0  0  0  0  0  0  0  0  0  0
    5.3300   -2.3110   21.4780 S   0  0  0  0  0  0  0  0  0  0  0  0
    4.5430   -3.3930   22.0610 O   0  0  0  0  0  0  0  0  0  0  0  0
    4.8170   -0.9630   21.3770 O   0  0  0  0  0  0  0  0  0  0  0  0
    6.8960   -2.2040   22.0910 N   0  0  0  0  0  0  0  0  0  0  0  0
    7.3480   -2.9030   23.2860 C   0  0  0  0  0  0  0  0  0  0  0  0
    8.1480   -3.9380   22.9630 N   0  0  0  0  0  0  0  0  0  0  0  0
    8.9840   -2.8600   22.8820 C   0  0  0  0  0  0  0  0  0  0  0  0
   10.0650   -2.7150   23.7430 C   0  0  0  0  0  0  0  0  0  0  0  0
   10.8560   -1.5320   23.6500 C   0  0  0  0  0  0  0  0  0  0  0  0
   11.9930   -1.3820   24.5340 C   0  0  0  0  0  0  0  0  0  0  0  0
   12.5850   -2.3480   25.0150 O   0  0  0  0  0  0  0  0  0  0  0  0
   12.3630   -0.0020   24.7480 O   0  0  0  0  0  0  0  0  0  0  0  0
   10.5420   -0.4830   22.6890 C   0  0  0  0  0  0  0  0  0  0  0  0
    9.5020   -0.4250   21.7000 C   0  0  0  0  0  0  0  0  0  0  0  0
    8.9800   -1.7480   22.1040 C   0  0  0  0  0  0  0  0  0  0  0  0
   10.2030   -1.5160   23.4240 S   0  0  0  0  0  0  0  0  0  0  0  0
    8.9000   -1.2350   24.6750 C   0  0  0  0  0  0  0  0  0  0  0  0
    9.9470   -0.4910   25.0690 C   0  0  0  0  0  0  0  0  0  0  0  0
   11.0370   -0.6860   24.2040 C   0  0  0  0  0  0  0  0  0  0  0  0
   11.0110   -1.5640   23.0700 C   0  0  0  0  0  0  0  0  0  0  0  0
   12.4200   -1.7660   22.0480 Cl  0  0  0  0  0  0  0  0  0  0  0  0
    9.7720   -2.2990   22.7770 C   0  0  0  0  0  0  0  0  0  0  0  0
    8.5030   -2.0940   23.7490 C   0  0  0  0  0  0  0  0  0  0  0  0
  1  2  1  0
  2  3  1  0
  3  4  2  0
  3  5  2  0
  3  6  1  0
  6  7  1  0
  7  8  2  0
  8  9  1  0
  9 10  2  0
 10 11  1  0
 11 12  1  0
 12 13  2  0
 12 14  1  0
 11 15  2  0
 15 16  1  0
  9 17  1  0
 16 17  2  0
 17 18  1  0
 18 19  1  0
 19 20  2  0
 20 21  1  0
 21 22  2  0
 22 23  1  0
 22 24  1  0
  7 25  1  0
 19 25  1  0
 24 25  2  0
M  END
