AVI-UNI-a66764d4-3-acrylamide
     RDKit          3D

 24 26  0  0  0  0  0  0  0  0999 V2000
    7.2410   -3.7910   20.0870 C   0  0  0  0  0  0  0  0  0  0  0  0
    7.0680   -4.7660   21.2550 C   0  0  0  0  0  0  0  0  0  0  0  0
    5.6330   -4.5870   21.6910 C   0  0  0  0  0  0  0  0  0  0  0  0
    4.5800   -4.5650   22.3090 O   0  0  0  0  0  0  0  0  0  0  0  0
    6.0960   -5.1430   22.8800 N   0  0  0  0  0  0  0  0  0  0  0  0
    7.0230   -4.4750   23.7920 C   0  0  0  0  0  0  0  0  0  0  0  0
    7.0490   -3.2670   22.9980 N   0  0  0  0  0  0  0  0  0  0  0  0
    6.8170   -2.3960   22.0820 C   0  0  0  0  0  0  0  0  0  0  0  0
    5.7980   -2.3460   21.1460 C   0  0  0  0  0  0  0  0  0  0  0  0
    5.8230   -1.2620   20.2770 C   0  0  0  0  0  0  0  0  0  0  0  0
    6.9610   -0.2160   20.4190 C   0  0  0  0  0  0  0  0  0  0  0  0
    7.0000    0.8670   19.5750 C   0  0  0  0  0  0  0  0  0  0  0  0
    6.3720    0.8180   18.3100 N   0  0  0  0  0  0  0  0  0  0  0  0
    7.6510    1.9650   20.0410 O   0  0  0  0  0  0  0  0  0  0  0  0
    7.9490   -0.3700   21.4160 C   0  0  0  0  0  0  0  0  0  0  0  0
    7.8430   -1.4770   22.2340 C   0  0  0  0  0  0  0  0  0  0  0  0
    9.0600   -1.8430   23.6370 S   0  0  0  0  0  0  0  0  0  0  0  0
    7.7730   -2.1910   24.7890 C   0  0  0  0  0  0  0  0  0  0  0  0
    8.3780   -1.0070   25.0600 C   0  0  0  0  0  0  0  0  0  0  0  0
    9.5040   -0.7270   24.2880 C   0  0  0  0  0  0  0  0  0  0  0  0
    9.9090   -1.7210   23.3000 C   0  0  0  0  0  0  0  0  0  0  0  0
   11.3100   -1.4720   22.3210 Cl  0  0  0  0  0  0  0  0  0  0  0  0
    9.0180   -3.0520   23.1470 C   0  0  0  0  0  0  0  0  0  0  0  0
    7.8770   -3.2600   23.9660 C   0  0  0  0  0  0  0  0  0  0  0  0
  1  2  1  0
  2  3  1  0
  3  4  2  0
  3  5  1  0
  5  6  1  0
  6  7  2  0
  7  8  1  0
  8  9  2  0
  9 10  1  0
 10 11  2  0
 11 12  1  0
 12 13  1  0
 12 14  2  0
 11 15  1  0
  8 16  1  0
 15 16  2  0
 16 17  1  0
 17 18  1  0
 18 19  2  0
 19 20  1  0
 20 21  2  0
 21 22  1  0
 21 23  1  0
  6 24  1  0
 18 24  1  0
 23 24  2  0
M  END
