AVI-UNI-70b60925-2-vinylsulfonamide
     RDKit          3D

 29 31  0  0  0  0  0  0  0  0999 V2000
    7.9120   -3.3210   18.7110 C   0  0  0  0  0  0  0  0  0  0  0  0
    7.5920   -3.0600   20.1220 C   0  0  0  0  0  0  0  0  0  0  0  0
    5.8600   -2.9760   20.1000 S   0  0  0  0  0  0  0  0  0  0  0  0
    5.2220   -4.2860   19.9980 O   0  0  0  0  0  0  0  0  0  0  0  0
    5.6140   -1.9400   19.1350 O   0  0  0  0  0  0  0  0  0  0  0  0
    5.8220   -2.4370   21.6670 N   0  0  0  0  0  0  0  0  0  0  0  0
    6.5240   -3.2710   22.5500 C   0  0  0  0  0  0  0  0  0  0  0  0
    7.6070   -2.8100   23.3280 C   0  0  0  0  0  0  0  0  0  0  0  0
    8.7190   -2.1730   22.8350 N   0  0  0  0  0  0  0  0  0  0  0  0
    9.7700   -2.1560   23.6910 C   0  0  0  0  0  0  0  0  0  0  0  0
   10.6120   -1.0690   23.6610 C   0  0  0  0  0  0  0  0  0  0  0  0
   11.8490   -1.1350   23.0270 C   0  0  0  0  0  0  0  0  0  0  0  0
   12.6600   -0.0130   23.0120 C   0  0  0  0  0  0  0  0  0  0  0  0
   13.7450   -0.0350   22.4700 O   0  0  0  0  0  0  0  0  0  0  0  0
   12.2420    1.1580   23.6150 C   0  0  0  0  0  0  0  0  0  0  0  0
   11.0120    1.2190   24.2390 C   0  0  0  0  0  0  0  0  0  0  0  0
   10.1910    0.1090   24.2770 C   0  0  0  0  0  0  0  0  0  0  0  0
    8.9860    0.1780   24.9060 O   0  0  0  0  0  0  0  0  0  0  0  0
    8.4090   -0.9420   22.3890 C   0  0  0  0  0  0  0  0  0  0  0  0
    6.9970   -0.4750   22.7280 C   0  0  1  0  0  0  0  0  0  0  0  0
    7.3180    1.0490   22.7830 C   0  0  0  0  0  0  0  0  0  0  0  0
    6.8260    1.5860   24.0910 C   0  0  0  0  0  0  0  0  0  0  0  0
    7.0500    3.0830   24.3310 C   0  0  0  0  0  0  0  0  0  0  0  0
    6.6440    3.7010   25.4810 O   0  0  0  0  0  0  0  0  0  0  0  0
    7.6850    3.8720   23.3670 C   0  0  0  0  0  0  0  0  0  0  0  0
    8.1070    3.2390   22.1630 C   0  0  0  0  0  0  0  0  0  0  0  0
    7.9370    1.8890   21.8700 C   0  0  0  0  0  0  0  0  0  0  0  0
    8.3810    1.4120   20.6860 O   0  0  0  0  0  0  0  0  0  0  0  0
    5.8900   -0.9740   21.8040 C   0  0  0  0  0  0  0  0  0  0  0  0
  1  2  1  0
  3  2  1  0
  3  4  2  0
  3  5  2  0
  3  6  1  0
  6  7  1  0
  7  8  1  0
  8  9  1  0
  9 10  1  0
 10 11  1  0
 11 12  2  0
 12 13  1  0
 13 14  1  0
 13 15  2  0
 15 16  1  0
 11 17  1  0
 16 17  2  0
 17 18  1  0
  9 19  1  0
 19 20  1  0
 20 21  1  6
 21 22  2  0
 22 23  1  0
 23 24  1  0
 23 25  2  0
 25 26  1  0
 21 27  1  0
 26 27  2  0
 27 28  1  0
  6 29  1  0
 20 29  1  0
M  END
