AVI-UNI-70b60925-1-vinylsulfonamide
     RDKit          3D

 28 30  0  0  0  0  0  0  0  0999 V2000
    7.8730   -4.3160   20.5160 C   0  0  0  0  0  0  0  0  0  0  0  0
    7.0090   -3.1540   20.2890 C   0  0  0  0  0  0  0  0  0  0  0  0
    5.4640   -3.5270   20.9940 S   0  0  0  0  0  0  0  0  0  0  0  0
    4.6350   -2.9320   20.0160 O   0  0  0  0  0  0  0  0  0  0  0  0
    5.2850   -4.9190   21.3210 O   0  0  0  0  0  0  0  0  0  0  0  0
    5.5840   -2.7250   22.4690 N   0  0  0  0  0  0  0  0  0  0  0  0
    6.4440   -3.2330   23.3930 C   0  0  0  0  0  0  0  0  0  0  0  0
    7.1210   -2.2830   24.1270 C   0  0  0  0  0  0  0  0  0  0  0  0
    8.0960   -1.5350   23.5600 N   0  0  0  0  0  0  0  0  0  0  0  0
    9.0990   -1.2280   24.3950 C   0  0  0  0  0  0  0  0  0  0  0  0
   10.1850   -0.5400   23.9480 C   0  0  0  0  0  0  0  0  0  0  0  0
   10.3440    0.8090   24.2480 C   0  0  0  0  0  0  0  0  0  0  0  0
   11.4690    1.4840   23.7750 C   0  0  0  0  0  0  0  0  0  0  0  0
   12.4180    0.8070   23.0150 C   0  0  0  0  0  0  0  0  0  0  0  0
   12.2200   -0.5460   22.7300 C   0  0  0  0  0  0  0  0  0  0  0  0
   13.3110   -1.4600   21.8000 Cl  0  0  0  0  0  0  0  0  0  0  0  0
   11.1200   -1.2200   23.1890 C   0  0  0  0  0  0  0  0  0  0  0  0
    7.6590   -0.5220   22.7730 C   0  0  0  0  0  0  0  0  0  0  0  0
    6.1400   -0.2190   22.7060 C   0  0  1  0  0  0  0  0  0  0  0  0
    6.2020    0.2950   21.2670 C   0  0  0  0  0  0  0  0  0  0  0  0
    6.9350   -0.6820   20.4310 C   0  0  0  0  0  0  0  0  0  0  0  0
    7.0540   -0.3270   18.9640 C   0  0  0  0  0  0  0  0  0  0  0  0
    7.7180   -1.2050   18.1700 O   0  0  0  0  0  0  0  0  0  0  0  0
    6.4830    0.8640   18.4940 C   0  0  0  0  0  0  0  0  0  0  0  0
    5.8060    1.7250   19.3980 C   0  0  0  0  0  0  0  0  0  0  0  0
    5.6670    1.4600   20.7500 C   0  0  0  0  0  0  0  0  0  0  0  0
    4.9990    2.3410   21.5600 O   0  0  0  0  0  0  0  0  0  0  0  0
    5.1020   -1.3620   22.6700 C   0  0  0  0  0  0  0  0  0  0  0  0
  1  2  1  0
  3  2  1  0
  3  4  2  0
  3  5  2  0
  3  6  1  0
  6  7  1  0
  7  8  1  0
  8  9  1  0
  9 10  1  0
 10 11  1  0
 11 12  2  0
 12 13  1  0
 13 14  2  0
 14 15  1  0
 15 16  1  0
 11 17  1  0
 15 17  2  0
  9 18  1  0
 18 19  1  0
 19 20  1  6
 20 21  2  0
 21 22  1  0
 22 23  1  0
 22 24  2  0
 24 25  1  0
 20 26  1  0
 25 26  2  0
 26 27  1  0
  6 28  1  0
 19 28  1  0
M  END
