AVI-UNI-a66764d4-3-vinylsulfonamide
     RDKit          3D

 25 27  0  0  0  0  0  0  0  0999 V2000
    7.2940   -3.2040   19.4980 C   0  0  0  0  0  0  0  0  0  0  0  0
    5.8920   -2.6010   19.7530 C   0  0  0  0  0  0  0  0  0  0  0  0
    5.5670   -2.5760   21.4990 S   0  0  0  0  0  0  0  0  0  0  0  0
    4.9110   -3.8210   21.8650 O   0  0  0  0  0  0  0  0  0  0  0  0
    4.8860   -1.3390   21.7770 O   0  0  0  0  0  0  0  0  0  0  0  0
    7.1100   -2.4720   22.2220 N   0  0  0  0  0  0  0  0  0  0  0  0
    7.4710   -3.4020   23.3030 C   0  0  0  0  0  0  0  0  0  0  0  0
    8.5940   -3.4800   23.8460 N   0  0  0  0  0  0  0  0  0  0  0  0
    8.6020   -2.2520   23.1620 C   0  0  0  0  0  0  0  0  0  0  0  0
    7.1500   -1.6950   23.0020 C   0  0  0  0  0  0  0  0  0  0  0  0
    6.9700   -0.3270   22.2740 C   0  0  0  0  0  0  0  0  0  0  0  0
    8.3190    0.3130   21.8040 C   0  0  0  0  0  0  0  0  0  0  0  0
    7.9180    1.6330   21.1300 C   0  0  0  0  0  0  0  0  0  0  0  0
    6.6890    1.6990   20.5040 N   0  0  0  0  0  0  0  0  0  0  0  0
    8.7590    2.6960   21.1560 O   0  0  0  0  0  0  0  0  0  0  0  0
    9.5860   -0.2330   21.9920 C   0  0  0  0  0  0  0  0  0  0  0  0
    9.6810   -1.5520   22.6980 C   0  0  0  0  0  0  0  0  0  0  0  0
   11.0940   -2.3460   23.0730 S   0  0  0  0  0  0  0  0  0  0  0  0
    9.9030   -2.5660   24.3360 C   0  0  0  0  0  0  0  0  0  0  0  0
   11.2340   -2.1710   24.8230 C   0  0  0  0  0  0  0  0  0  0  0  0
   12.1390   -2.0030   23.6550 C   0  0  0  0  0  0  0  0  0  0  0  0
   11.6110   -2.2280   22.2230 C   0  0  0  0  0  0  0  0  0  0  0  0
   12.7900   -2.0330   21.0100 Cl  0  0  0  0  0  0  0  0  0  0  0  0
   10.0660   -2.6350   22.0050 C   0  0  0  0  0  0  0  0  0  0  0  0
    9.0910   -2.8430   23.2310 C   0  0  0  0  0  0  0  0  0  0  0  0
  1  2  1  0
  2  3  1  0
  3  4  2  0
  3  5  2  0
  3  6  1  0
  6  7  1  0
  7  8  2  0
  8  9  1  0
  9 10  2  0
 10 11  1  0
 11 12  2  0
 12 13  1  0
 13 14  1  0
 13 15  2  0
 12 16  1  0
  9 17  1  0
 16 17  2  0
 17 18  1  0
 18 19  1  0
 19 20  2  0
 20 21  1  0
 21 22  2  0
 22 23  1  0
 22 24  1  0
  7 25  1  0
 19 25  1  0
 24 25  2  0
M  END
