AVI-UNI-a66764d4-1-vinylsulfonamide
     RDKit          3D

 22 24  0  0  0  0  0  0  0  0999 V2000
    7.1940   -6.0550   21.3110 C   0  0  0  0  0  0  0  0  0  0  0  0
    7.1860   -5.2830   22.6140 C   0  0  0  0  0  0  0  0  0  0  0  0
    6.0240   -3.8960   22.7830 S   0  0  0  0  0  0  0  0  0  0  0  0
    5.1330   -3.9010   21.5350 O   0  0  0  0  0  0  0  0  0  0  0  0
    5.5210   -4.0330   24.1190 O   0  0  0  0  0  0  0  0  0  0  0  0
    7.4170   -2.7560   22.8470 N   0  0  0  0  0  0  0  0  0  0  0  0
    8.1700   -2.7530   21.5780 C   0  0  0  0  0  0  0  0  0  0  0  0
    8.8660   -2.0720   20.6900 N   0  0  0  0  0  0  0  0  0  0  0  0
    8.6810   -0.8710   21.1790 C   0  0  0  0  0  0  0  0  0  0  0  0
    8.7870   -0.1610   22.3450 C   0  0  0  0  0  0  0  0  0  0  0  0
    8.3720    1.3430   22.2850 C   0  0  0  0  0  0  0  0  0  0  0  0
    7.9480    2.0630   21.0560 C   0  0  0  0  0  0  0  0  0  0  0  0
    7.8950    1.1750   19.7460 C   0  0  0  0  0  0  0  0  0  0  0  0
    8.3050    0.1320   20.5120 C   0  0  0  0  0  0  0  0  0  0  0  0
    8.4370    0.9920   22.0230 S   0  0  0  0  0  0  0  0  0  0  0  0
    9.6090   -0.2690   22.4950 C   0  0  0  0  0  0  0  0  0  0  0  0
   10.3900    0.5880   22.9690 C   0  0  0  0  0  0  0  0  0  0  0  0
   11.4190   -0.3750   23.1880 C   0  0  0  0  0  0  0  0  0  0  0  0
   11.1570   -1.7030   22.7300 C   0  0  0  0  0  0  0  0  0  0  0  0
   12.2380   -2.9720   22.7050 Cl  0  0  0  0  0  0  0  0  0  0  0  0
    9.9360   -2.0410   22.2060 C   0  0  0  0  0  0  0  0  0  0  0  0
    8.7160   -1.2380   21.9550 C   0  0  0  0  0  0  0  0  0  0  0  0
  1  2  1  0
  2  3  1  0
  3  4  2  0
  3  5  2  0
  3  6  1  0
  6  7  1  0
  7  8  2  0
  8  9  1  0
  9 10  2  0
 10 11  1  0
 11 12  2  0
 12 13  1  0
  9 14  1  0
 13 14  2  0
 14 15  1  0
 15 16  1  0
 16 17  2  0
 17 18  1  0
 18 19  2  0
 19 20  1  0
 19 21  1  0
  7 22  1  0
 16 22  1  0
 21 22  2  0
M  END
