AVI-UNI-a66764d4-1-vinylsulfonamide
     RDKit          3D

 22 24  0  0  0  0  0  0  0  0999 V2000
    7.1820   -3.2390   19.4100 C   0  0  0  0  0  0  0  0  0  0  0  0
    5.8180   -2.6790   19.8820 C   0  0  0  0  0  0  0  0  0  0  0  0
    5.7140   -2.8300   21.6480 S   0  0  0  0  0  0  0  0  0  0  0  0
    4.9830   -4.0790   21.8640 O   0  0  0  0  0  0  0  0  0  0  0  0
    5.1030   -1.6350   22.1670 O   0  0  0  0  0  0  0  0  0  0  0  0
    7.3710   -2.8460   22.1540 N   0  0  0  0  0  0  0  0  0  0  0  0
    7.9120   -1.7050   22.9760 C   0  0  0  0  0  0  0  0  0  0  0  0
    6.9770   -0.7040   22.9250 N   0  0  0  0  0  0  0  0  0  0  0  0
    6.8060   -0.3560   21.6920 C   0  0  0  0  0  0  0  0  0  0  0  0
    5.5890    0.4960   21.3270 C   0  0  0  0  0  0  0  0  0  0  0  0
    5.3400    0.8170   19.8720 C   0  0  0  0  0  0  0  0  0  0  0  0
    6.3800    0.1790   18.9200 C   0  0  0  0  0  0  0  0  0  0  0  0
    7.5110   -0.6480   19.5920 C   0  0  0  0  0  0  0  0  0  0  0  0
    7.8570   -0.9720   21.1040 C   0  0  0  0  0  0  0  0  0  0  0  0
    7.8470   -1.0660   22.9890 S   0  0  0  0  0  0  0  0  0  0  0  0
    9.2710    0.0300   23.1820 C   0  0  0  0  0  0  0  0  0  0  0  0
   10.7530    0.5360   23.1110 C   0  0  0  0  0  0  0  0  0  0  0  0
   11.9740   -0.1940   22.5830 C   0  0  0  0  0  0  0  0  0  0  0  0
   11.8270   -1.5780   22.0560 C   0  0  0  0  0  0  0  0  0  0  0  0
   13.1210   -2.4600   21.4160 Cl  0  0  0  0  0  0  0  0  0  0  0  0
   10.4470   -2.1330   22.1490 C   0  0  0  0  0  0  0  0  0  0  0  0
    9.3460   -1.2650   22.7120 C   0  0  0  0  0  0  0  0  0  0  0  0
  1  2  1  0
  2  3  1  0
  3  4  2  0
  3  5  2  0
  3  6  1  0
  6  7  1  0
  7  8  2  0
  8  9  1  0
  9 10  2  0
 10 11  1  0
 11 12  2  0
 12 13  1  0
  9 14  1  0
 13 14  2  0
 14 15  1  0
 15 16  1  0
 16 17  2  0
 17 18  1  0
 18 19  2  0
 19 20  1  0
 19 21  1  0
  7 22  1  0
 16 22  1  0
 21 22  2  0
M  END
