AVI-UNI-70b60925-1-nitrile
     RDKit          3D

 25 27  0  0  0  0  0  0  0  0999 V2000
    6.7290   -3.5100   19.7790 C   0  0  0  0  0  0  0  0  0  0  0  0
    5.7410   -3.2610   19.0260 N   0  0  0  0  0  0  0  0  0  0  0  0
    6.8450   -2.9300   21.0380 N   0  0  0  0  0  0  0  0  0  0  0  0
    7.1070   -3.7090   22.2640 C   0  0  0  0  0  0  0  0  0  0  0  0
    7.8130   -2.9360   23.3630 C   0  0  0  0  0  0  0  0  0  0  0  0
    8.6620   -1.9100   23.0530 N   0  0  0  0  0  0  0  0  0  0  0  0
   10.0150   -2.0770   23.6140 C   0  0  0  0  0  0  0  0  0  0  0  0
   10.7400   -0.8960   23.5400 C   0  0  0  0  0  0  0  0  0  0  0  0
   12.0450   -0.9220   23.0930 C   0  0  0  0  0  0  0  0  0  0  0  0
   12.7770    0.2630   23.0070 C   0  0  0  0  0  0  0  0  0  0  0  0
   12.1990    1.4890   23.3620 C   0  0  0  0  0  0  0  0  0  0  0  0
   10.8790    1.5100   23.8070 C   0  0  0  0  0  0  0  0  0  0  0  0
   10.1470    3.0180   24.2240 Cl  0  0  0  0  0  0  0  0  0  0  0  0
   10.1500    0.3280   23.9060 C   0  0  0  0  0  0  0  0  0  0  0  0
    8.6390   -1.2990   21.7130 C   0  0  0  0  0  0  0  0  0  0  0  0
    7.4520   -0.6740   21.3210 C   0  0  2  0  0  0  0  0  0  0  0  0
    6.9760    0.5030   22.2170 C   0  0  0  0  0  0  0  0  0  0  0  0
    7.5600    1.6620   21.4000 C   0  0  0  0  0  0  0  0  0  0  0  0
    7.2260    2.9780   22.0830 C   0  0  0  0  0  0  0  0  0  0  0  0
    7.5850    4.2230   21.6280 O   0  0  0  0  0  0  0  0  0  0  0  0
    6.4160    2.9280   23.3920 C   0  0  0  0  0  0  0  0  0  0  0  0
    5.9430    1.7890   24.0300 C   0  0  0  0  0  0  0  0  0  0  0  0
    6.2390    0.5640   23.4110 C   0  0  0  0  0  0  0  0  0  0  0  0
    5.7940   -0.5930   23.9930 O   0  0  0  0  0  0  0  0  0  0  0  0
    6.3730   -1.5710   21.3060 C   0  0  0  0  0  0  0  0  0  0  0  0
  1  2  2  3
  1  3  1  0
  3  4  1  0
  4  5  1  0
  5  6  1  0
  6  7  1  0
  7  8  1  0
  8  9  2  0
  9 10  1  0
 10 11  2  0
 11 12  1  0
 12 13  1  0
  8 14  1  0
 12 14  2  0
  6 15  1  0
 15 16  1  0
 16 17  1  1
 17 18  2  0
 18 19  1  0
 19 20  1  0
 19 21  2  0
 21 22  1  0
 17 23  1  0
 22 23  2  0
 23 24  1  0
  3 25  1  0
 16 25  1  0
M  END
