AVI-UNI-a66764d4-2-chloroacetamide
     RDKit          3D

 23 25  0  0  0  0  0  0  0  0999 V2000
    7.2830   -3.0800   19.0550 C   0  0  0  0  0  0  0  0  0  0  0  0
    6.4180   -3.6170   20.1880 C   0  0  0  0  0  0  0  0  0  0  0  0
    5.4690   -4.3770   19.9090 O   0  0  0  0  0  0  0  0  0  0  0  0
    6.7660   -3.2350   21.5170 N   0  0  0  0  0  0  0  0  0  0  0  0
    7.7120   -2.0940   21.7010 C   0  0  0  0  0  0  0  0  0  0  0  0
    8.2200   -1.1040   20.9370 N   0  0  0  0  0  0  0  0  0  0  0  0
    9.0940   -0.2630   21.5370 C   0  0  0  0  0  0  0  0  0  0  0  0
    9.7540   -1.5560   22.2800 C   0  0  0  0  0  0  0  0  0  0  0  0
   11.0540   -1.1560   23.2960 C   0  0  0  0  0  0  0  0  0  0  0  0
   11.6110   -2.5660   23.9260 C   0  0  0  0  0  0  0  0  0  0  0  0
   12.7780   -2.9390   23.7050 O   0  0  0  0  0  0  0  0  0  0  0  0
   10.7410   -3.2680   24.6810 O   0  0  0  0  0  0  0  0  0  0  0  0
   11.6210    0.1950   23.5730 C   0  0  0  0  0  0  0  0  0  0  0  0
   10.8310    1.1310   22.7650 C   0  0  0  0  0  0  0  0  0  0  0  0
   10.0670   -0.0610   22.3400 C   0  0  0  0  0  0  0  0  0  0  0  0
   10.4330   -1.5670   23.0210 S   0  0  0  0  0  0  0  0  0  0  0  0
    9.1940   -1.4830   24.2220 C   0  0  0  0  0  0  0  0  0  0  0  0
   10.4290   -1.2230   25.0260 C   0  0  0  0  0  0  0  0  0  0  0  0
   11.6200   -1.3580   24.1360 C   0  0  0  0  0  0  0  0  0  0  0  0
   11.2450   -1.7380   22.6740 C   0  0  0  0  0  0  0  0  0  0  0  0
   12.5440   -1.9730   21.5350 Cl  0  0  0  0  0  0  0  0  0  0  0  0
    9.7010   -1.9150   22.2310 C   0  0  0  0  0  0  0  0  0  0  0  0
    8.3560   -1.7620   23.1550 C   0  0  0  0  0  0  0  0  0  0  0  0
  1  2  1  0
  2  3  2  0
  2  4  1  0
  4  5  1  0
  5  6  2  0
  6  7  1  0
  7  8  2  0
  8  9  1  0
  9 10  1  0
 10 11  2  0
 10 12  1  0
  9 13  2  0
 13 14  1  0
  7 15  1  0
 14 15  2  0
 15 16  1  0
 16 17  1  0
 17 18  2  0
 18 19  1  0
 19 20  2  0
 20 21  1  0
 20 22  1  0
  5 23  1  0
 17 23  1  0
 22 23  2  0
M  END
