AVI-UNI-a66764d4-1-nitrile
     RDKit          3D

 19 21  0  0  0  0  0  0  0  0999 V2000
    7.1160   -3.2790   19.5050 C   0  0  0  0  0  0  0  0  0  0  0  0
    6.5320   -3.0830   18.3680 N   0  0  0  0  0  0  0  0  0  0  0  0
    7.9860   -2.4280   20.1290 N   0  0  0  0  0  0  0  0  0  0  0  0
    8.2310   -2.4730   21.5900 C   0  0  0  0  0  0  0  0  0  0  0  0
    7.2210   -1.9890   22.2840 N   0  0  0  0  0  0  0  0  0  0  0  0
    7.2920   -0.7150   21.9470 C   0  0  0  0  0  0  0  0  0  0  0  0
    7.0320    0.5520   20.8930 C   0  0  0  0  0  0  0  0  0  0  0  0
    6.4310    1.1040   19.4040 C   0  0  0  0  0  0  0  0  0  0  0  0
    5.8250   -0.1550   18.6570 C   0  0  0  0  0  0  0  0  0  0  0  0
    6.5050    0.2520   19.8850 C   0  0  0  0  0  0  0  0  0  0  0  0
    6.7520   -0.7750   20.8450 C   0  0  0  0  0  0  0  0  0  0  0  0
    7.4440    0.6690   21.5190 S   0  0  0  0  0  0  0  0  0  0  0  0
    9.0540   -0.0660   22.0210 C   0  0  0  0  0  0  0  0  0  0  0  0
   10.1980    0.8580   22.4840 C   0  0  0  0  0  0  0  0  0  0  0  0
   11.5520    0.2690   22.9070 C   0  0  0  0  0  0  0  0  0  0  0  0
   11.7750   -1.2410   22.8710 C   0  0  0  0  0  0  0  0  0  0  0  0
   13.2670   -1.9320   23.3390 Cl  0  0  0  0  0  0  0  0  0  0  0  0
   10.6700   -2.1680   22.4230 C   0  0  0  0  0  0  0  0  0  0  0  0
    9.3400   -1.6000   22.0110 C   0  0  0  0  0  0  0  0  0  0  0  0
  1  2  2  3
  1  3  1  0
  3  4  1  0
  4  5  2  0
  5  6  1  0
  6  7  2  0
  7  8  1  0
  8  9  2  0
  9 10  1  0
  6 11  1  0
 10 11  2  0
 11 12  1  0
 12 13  1  0
 13 14  2  0
 14 15  1  0
 15 16  2  0
 16 17  1  0
 16 18  1  0
  4 19  1  0
 13 19  1  0
 18 19  2  0
M  END
