AVI-UNI-a66764d4-3-chloroacetamide
     RDKit          3D

 23 25  0  0  0  0  0  0  0  0999 V2000
    8.1710   -2.8340   19.0280 C   0  0  0  0  0  0  0  0  0  0  0  0
    6.9480   -3.4920   19.5200 C   0  0  0  0  0  0  0  0  0  0  0  0
    5.9210   -4.0450   19.9340 O   0  0  0  0  0  0  0  0  0  0  0  0
    7.3230   -2.7900   20.8830 N   0  0  0  0  0  0  0  0  0  0  0  0
    8.8080   -2.7020   21.2960 C   0  0  0  0  0  0  0  0  0  0  0  0
    8.7690   -3.9180   20.9160 N   0  0  0  0  0  0  0  0  0  0  0  0
    7.9380   -2.8240   21.2920 C   0  0  0  0  0  0  0  0  0  0  0  0
    7.1020   -1.7150   21.6650 C   0  0  0  0  0  0  0  0  0  0  0  0
    6.6980   -0.4690   21.0340 C   0  0  0  0  0  0  0  0  0  0  0  0
    7.0970   -0.0630   19.7740 C   0  0  0  0  0  0  0  0  0  0  0  0
    6.6930    1.2180   19.0290 C   0  0  0  0  0  0  0  0  0  0  0  0
    5.9270    2.1660   19.7330 N   0  0  0  0  0  0  0  0  0  0  0  0
    6.9710    1.4130   17.8590 O   0  0  0  0  0  0  0  0  0  0  0  0
    7.9800   -1.0680   19.1400 C   0  0  0  0  0  0  0  0  0  0  0  0
    8.1420   -2.1770   20.0820 C   0  0  0  0  0  0  0  0  0  0  0  0
    7.3910   -1.1160   21.2800 S   0  0  0  0  0  0  0  0  0  0  0  0
    8.9450   -0.2180   21.9090 C   0  0  0  0  0  0  0  0  0  0  0  0
   10.2070    0.4080   22.3910 C   0  0  0  0  0  0  0  0  0  0  0  0
   11.5720    0.0270   22.6050 C   0  0  0  0  0  0  0  0  0  0  0  0
   12.0070   -1.2170   22.3580 C   0  0  0  0  0  0  0  0  0  0  0  0
   13.6260   -1.7410   22.5570 Cl  0  0  0  0  0  0  0  0  0  0  0  0
   11.0480   -2.0510   21.9340 C   0  0  0  0  0  0  0  0  0  0  0  0
    9.5940   -1.5450   21.7360 C   0  0  0  0  0  0  0  0  0  0  0  0
  1  2  1  0
  2  3  2  0
  2  4  1  0
  4  5  1  0
  5  6  2  0
  6  7  1  0
  7  8  2  0
  8  9  1  0
  9 10  2  0
 10 11  1  0
 11 12  1  0
 11 13  2  0
 10 14  1  0
  7 15  1  0
 14 15  2  0
 15 16  1  0
 16 17  1  0
 17 18  2  0
 18 19  1  0
 19 20  2  0
 20 21  1  0
 20 22  1  0
  5 23  1  0
 17 23  1  0
 22 23  2  0
M  END
