BAR-COM-4e090d3a-52
     RDKit          3D

 22 23  0  0  0  0  0  0  0  0999 V2000
    7.2610    0.2570   16.7190 C   0  0  0  0  0  0  0  0  0  0  0  0
    6.3310    0.5440   17.7840 N   0  0  0  0  0  0  0  0  0  0  0  0
    5.3220    1.5970   17.6590 C   0  0  0  0  0  0  0  0  0  0  0  0
    4.6270    1.6410   18.7380 N   0  0  0  0  0  0  0  0  0  0  0  0
    5.2390    0.6780   19.3780 C   0  0  0  0  0  0  0  0  0  0  0  0
    6.3220   -0.1570   19.0110 C   0  0  0  0  0  0  0  0  0  0  0  0
    6.0360   -0.6170   20.2840 C   0  0  0  0  0  0  0  0  0  0  0  0
    7.0020   -1.1680   21.0860 N   0  0  0  0  0  0  0  0  0  0  0  0
    8.2130   -0.4450   21.4490 C   0  0  0  0  0  0  0  0  0  0  0  0
    8.4290    0.6970   21.0680 O   0  0  0  0  0  0  0  0  0  0  0  0
    9.0340   -1.1770   22.2350 N   0  0  0  0  0  0  0  0  0  0  0  0
   10.2950   -0.7150   22.5170 C   0  0  0  0  0  0  0  0  0  0  0  0
   11.5920   -1.4030   22.1450 C   0  0  0  0  0  0  0  0  0  0  0  0
   12.8750   -0.7350   22.4980 C   0  0  0  0  0  0  0  0  0  0  0  0
   12.7640    0.5960   23.2050 C   0  0  0  0  0  0  0  0  0  0  0  0
   11.4070    1.2300   23.5530 C   0  0  0  0  0  0  0  0  0  0  0  0
   11.4060    2.4920   24.2000 O   0  0  0  0  0  0  0  0  0  0  0  0
   10.5850    3.5470   23.6480 C   0  0  0  0  0  0  0  0  0  0  0  0
   11.1320    4.9680   23.7970 C   0  0  0  0  0  0  0  0  0  0  0  0
   11.1200    5.6880   22.6380 F   0  0  0  0  0  0  0  0  0  0  0  0
   10.4160    5.7330   24.6800 F   0  0  0  0  0  0  0  0  0  0  0  0
   10.1840    0.5580   23.2100 N   0  0  0  0  0  0  0  0  0  0  0  0
  1  2  1  0
  2  3  1  0
  3  4  2  0
  4  5  1  0
  2  6  1  0
  5  6  2  0
  6  7  1  0
  7  8  1  0
  8  9  1  0
  9 10  2  0
  9 11  1  0
 11 12  1  0
 12 13  2  0
 13 14  1  0
 14 15  2  0
 15 16  1  0
 16 17  1  0
 17 18  1  0
 18 19  1  0
 19 20  1  0
 19 21  1  0
 12 22  1  0
 16 22  2  0
M  END
