BAR-COM-4e090d3a-38
     RDKit          3D

 25 27  0  0  0  0  0  0  0  0999 V2000
    7.1530    2.5610   26.7400 C   0  0  0  0  0  0  0  0  0  0  0  0
    7.4240    1.5760   25.6320 C   0  0  0  0  0  0  0  0  0  0  0  0
    7.0500    1.8850   24.3470 N   0  0  0  0  0  0  0  0  0  0  0  0
    7.4660    0.7640   23.6560 O   0  0  0  0  0  0  0  0  0  0  0  0
    8.0400   -0.1100   24.5390 C   0  0  0  0  0  0  0  0  0  0  0  0
    8.5530   -1.3340   24.1150 C   0  0  0  0  0  0  0  0  0  0  0  0
    8.9560   -1.2900   22.7740 C   0  0  1  0  0  0  0  0  0  0  0  0
    8.1730   -0.5310   21.9040 N   0  0  0  0  0  0  0  0  0  0  0  0
    6.8090   -1.0770   21.6760 C   0  0  0  0  0  0  0  0  0  0  0  0
    6.1640   -1.8030   22.4400 O   0  0  0  0  0  0  0  0  0  0  0  0
    6.0590   -0.7860   20.3920 C   0  0  1  0  0  0  0  0  0  0  0  0
    4.9470    0.2540   20.5100 C   0  0  0  0  0  0  0  0  0  0  0  0
    7.1140   -0.3680   19.4400 C   0  0  0  0  0  0  0  0  0  0  0  0
    6.5920    0.4130   18.4060 N   0  0  0  0  0  0  0  0  0  0  0  0
    7.3350    0.5140   17.2960 C   0  0  0  0  0  0  0  0  0  0  0  0
    6.5520    1.3480   16.5280 C   0  0  0  0  0  0  0  0  0  0  0  0
    5.4360    1.6570   17.2100 N   0  0  0  0  0  0  0  0  0  0  0  0
    5.2170    1.1330   18.5420 C   0  0  0  0  0  0  0  0  0  0  0  0
   10.4020   -0.8240   22.7860 C   0  0  0  0  0  0  0  0  0  0  0  0
   11.4700   -1.4980   22.0540 C   0  0  0  0  0  0  0  0  0  0  0  0
   12.8620   -0.9040   22.1820 C   0  0  0  0  0  0  0  0  0  0  0  0
   13.0450    0.3140   23.0320 C   0  0  0  0  0  0  0  0  0  0  0  0
   11.9340    0.8800   23.6990 C   0  0  0  0  0  0  0  0  0  0  0  0
   10.6790    0.3240   23.5720 C   0  0  0  0  0  0  0  0  0  0  0  0
    8.0310    0.3580   25.7810 N   0  0  0  0  0  0  0  0  0  0  0  0
  1  2  1  0
  2  3  2  0
  3  4  1  0
  4  5  1  0
  5  6  1  0
  7  6  1  1
  7  8  1  0
  8  9  1  0
  9 10  2  0
  9 11  1  0
 11 12  1  1
 11 13  1  0
 13 14  1  0
 14 15  1  0
 15 16  2  0
 16 17  1  0
 14 18  1  0
 17 18  2  0
  7 19  1  0
 19 20  2  0
 20 21  1  0
 21 22  2  0
 22 23  1  0
 19 24  1  0
 23 24  2  0
  2 25  1  0
  5 25  2  0
M  END
