BAR-COM-5694a99d-2
     RDKit          3D

 23 24  0  0  0  0  0  0  0  0999 V2000
   15.0250   -5.6070   20.4780 C   0  0  0  0  0  0  0  0  0  0  0  0
   14.2670   -4.2900   20.3310 C   0  0  0  0  0  0  0  0  0  0  0  0
   14.7260   -3.4280   19.7490 O   0  0  0  0  0  0  0  0  0  0  0  0
   13.0830   -4.0220   20.8380 N   0  0  0  0  0  0  0  0  0  0  0  0
   12.8610   -2.7780   21.5230 C   0  0  0  0  0  0  0  0  0  0  0  0
   11.4030   -2.3860   21.4390 C   0  0  0  0  0  0  0  0  0  0  0  0
   10.9380   -2.0840   22.7060 O   0  0  0  0  0  0  0  0  0  0  0  0
   11.3110   -0.8130   22.8850 C   0  0  0  0  0  0  0  0  0  0  0  0
   12.6350   -0.4280   23.0150 C   0  0  0  0  0  0  0  0  0  0  0  0
   12.9280    0.8950   23.1730 C   0  0  0  0  0  0  0  0  0  0  0  0
   11.9210    1.8360   23.2240 C   0  0  0  0  0  0  0  0  0  0  0  0
   10.6080    1.4610   23.0940 C   0  0  0  0  0  0  0  0  0  0  0  0
   10.2840    0.1340   22.9070 C   0  0  0  0  0  0  0  0  0  0  0  0
    8.9610   -0.2750   22.7100 N   0  0  0  0  0  0  0  0  0  0  0  0
    8.2920    0.3300   21.6680 C   0  0  0  0  0  0  0  0  0  0  0  0
    8.6540    1.4190   21.1960 O   0  0  0  0  0  0  0  0  0  0  0  0
    7.1970   -0.3720   21.1950 N   0  0  0  0  0  0  0  0  0  0  0  0
    6.4140    0.1660   20.1700 C   0  0  0  0  0  0  0  0  0  0  0  0
    5.2150    0.8530   20.3620 C   0  0  0  0  0  0  0  0  0  0  0  0
    4.5610    1.3580   19.2530 C   0  0  0  0  0  0  0  0  0  0  0  0
    5.1120    1.1640   17.9960 C   0  0  0  0  0  0  0  0  0  0  0  0
    6.2510    0.5010   17.7850 N   0  0  0  0  0  0  0  0  0  0  0  0
    6.8690    0.0190   18.8720 C   0  0  0  0  0  0  0  0  0  0  0  0
  1  2  1  0
  2  3  2  0
  2  4  1  0
  4  5  1  0
  5  6  1  0
  6  7  1  0
  7  8  1  0
  8  9  2  0
  9 10  1  0
 10 11  2  0
 11 12  1  0
  8 13  1  0
 12 13  2  0
 13 14  1  0
 14 15  1  0
 15 16  2  0
 15 17  1  0
 17 18  1  0
 18 19  2  0
 19 20  1  0
 20 21  2  0
 21 22  1  0
 18 23  1  0
 22 23  2  0
M  END
