BAR-COM-4e090d3a-5
     RDKit          3D

 26 28  0  0  0  0  0  0  0  0999 V2000
    4.9110    2.0370   18.0240 N   0  0  0  0  0  0  0  0  0  0  0  0
    4.2950    1.6850   19.1800 C   0  0  0  0  0  0  0  0  0  0  0  0
    3.0860    2.1420   19.4850 N   0  0  0  0  0  0  0  0  0  0  0  0
    2.5140    1.7600   20.6360 C   0  0  0  0  0  0  0  0  0  0  0  0
    3.0600    0.9340   21.5540 N   0  0  0  0  0  0  0  0  0  0  0  0
    4.2760    0.5040   21.2000 C   0  0  0  0  0  0  0  0  0  0  0  0
    4.9610    0.8300   20.0410 C   0  0  0  0  0  0  0  0  0  0  0  0
    6.2350    0.2970   19.8210 C   0  0  0  0  0  0  0  0  0  0  0  0
    6.8550    0.0780   21.1150 N   0  0  0  0  0  0  0  0  0  0  0  0
    7.9810    0.7980   21.4900 C   0  0  0  0  0  0  0  0  0  0  0  0
    8.3310    1.8390   20.9400 O   0  0  0  0  0  0  0  0  0  0  0  0
    8.6380    0.1840   22.5230 N   0  0  0  0  0  0  0  0  0  0  0  0
   10.0320    0.1450   22.6280 C   0  0  0  0  0  0  0  0  0  0  0  0
   10.8500    1.4170   22.8610 C   0  0  0  0  0  0  0  0  0  0  0  0
   12.3510    1.3480   22.9540 C   0  0  0  0  0  0  0  0  0  0  0  0
   12.9820   -0.0090   22.8000 C   0  0  0  0  0  0  0  0  0  0  0  0
   12.0940   -1.2180   22.5740 C   0  0  0  0  0  0  0  0  0  0  0  0
   10.6930   -1.1100   22.5060 C   0  0  0  0  0  0  0  0  0  0  0  0
    9.8620   -2.2050   22.3280 O   0  0  0  0  0  0  0  0  0  0  0  0
    8.7070   -2.2240   21.4730 C   0  0  0  0  0  0  0  0  0  0  0  0
    7.4710   -2.3700   22.2460 C   0  0  0  0  0  0  0  0  0  0  0  0
    7.5990   -3.2640   23.3900 N   0  0  0  0  0  0  0  0  0  0  0  0
    8.4030   -3.1070   24.4700 C   0  0  0  0  0  0  0  0  0  0  0  0
    8.1340   -4.3080   25.3310 C   0  0  0  0  0  0  0  0  0  0  0  0
    7.2010   -5.0970   24.7280 N   0  0  0  0  0  0  0  0  0  0  0  0
    6.9010   -4.4590   23.5830 C   0  0  0  0  0  0  0  0  0  0  0  0
  1  2  1  0
  2  3  2  0
  3  4  1  0
  4  5  2  0
  5  6  1  0
  2  7  1  0
  6  7  2  0
  7  8  1  0
  8  9  1  0
  9 10  1  0
 10 11  2  0
 10 12  1  0
 12 13  1  0
 13 14  2  0
 14 15  1  0
 15 16  2  0
 16 17  1  0
 13 18  1  0
 17 18  2  0
 18 19  1  0
 19 20  1  0
 20 21  1  0
 21 22  1  0
 22 23  1  0
 23 24  2  0
 24 25  1  0
 22 26  1  0
 25 26  2  0
M  END
