BAR-COM-4e090d3a-60
     RDKit          3D

 22 24  0  0  0  0  0  0  0  0999 V2000
    8.5200    0.9850   21.0370 O   0  0  0  0  0  0  0  0  0  0  0  0
    8.1990   -0.1500   21.3660 C   0  0  0  0  0  0  0  0  0  0  0  0
    7.4570   -0.9890   20.5930 N   0  0  0  0  0  0  0  0  0  0  0  0
    6.6900   -0.4620   19.5080 C   0  0  0  0  0  0  0  0  0  0  0  0
    5.4560    0.2040   19.9940 C   0  0  0  0  0  0  0  0  0  0  0  0
    4.6330    1.1450   19.6540 C   0  0  0  0  0  0  0  0  0  0  0  0
    5.1430    1.6670   18.3680 C   0  0  0  0  0  0  0  0  0  0  0  0
    4.3340    2.6270   18.0310 C   0  0  0  0  0  0  0  0  0  0  0  0
    4.2830    1.8810   19.0770 N   0  0  0  0  0  0  0  0  0  0  0  0
    5.4390    0.9900   18.9530 N   0  0  0  0  0  0  0  0  0  0  0  0
    8.4770   -0.7900   22.5180 N   0  0  0  0  0  0  0  0  0  0  0  0
    9.6140   -0.6740   23.2850 C   0  0  0  0  0  0  0  0  0  0  0  0
    9.4390   -0.3100   24.6000 C   0  0  0  0  0  0  0  0  0  0  0  0
   10.5150   -0.1870   25.4360 C   0  0  0  0  0  0  0  0  0  0  0  0
   11.7870   -0.4150   24.9770 C   0  0  0  0  0  0  0  0  0  0  0  0
   11.9300   -0.7650   23.6940 C   0  0  0  0  0  0  0  0  0  0  0  0
   13.0810   -0.9940   23.2000 N   0  0  0  0  0  0  0  0  0  0  0  0
   13.3320   -0.2440   22.0630 C   0  0  0  0  0  0  0  0  0  0  0  0
   13.2730   -1.5970   21.3060 C   0  0  0  0  0  0  0  0  0  0  0  0
   13.4960   -2.1480   22.7130 C   0  0  0  0  0  0  0  0  0  0  0  0
   13.8730   -3.1510   23.2280 O   0  0  0  0  0  0  0  0  0  0  0  0
   10.8760   -0.9030   22.8250 C   0  0  0  0  0  0  0  0  0  0  0  0
  1  2  2  0
  2  3  1  0
  3  4  1  0
  4  5  1  0
  5  6  2  0
  6  7  1  0
  7  8  2  0
  8  9  1  0
  5 10  1  0
  9 10  2  0
  2 11  1  0
 11 12  1  0
 12 13  2  0
 13 14  1  0
 14 15  2  0
 15 16  1  0
 16 17  1  0
 17 18  1  0
 18 19  1  0
 17 20  1  0
 19 20  1  0
 20 21  2  0
 12 22  1  0
 16 22  2  0
M  END
