BAR-COM-4e090d3a-37
     RDKit          3D

 25 27  0  0  0  0  0  0  0  0999 V2000
    9.3030    0.3290   25.5280 C   0  0  0  0  0  0  0  0  0  0  0  0
    9.5650    0.9360   24.2560 O   0  0  0  0  0  0  0  0  0  0  0  0
   10.5770    0.3360   23.5830 C   0  0  0  0  0  0  0  0  0  0  0  0
   11.8230    0.8990   23.7250 C   0  0  0  0  0  0  0  0  0  0  0  0
   12.9460    0.3860   23.0950 C   0  0  0  0  0  0  0  0  0  0  0  0
   12.8260   -0.7480   22.2910 C   0  0  0  0  0  0  0  0  0  0  0  0
   11.5940   -1.3830   22.0870 C   0  0  0  0  0  0  0  0  0  0  0  0
   10.3860   -0.7950   22.7780 C   0  0  0  0  0  0  0  0  0  0  0  0
    9.0360   -1.4600   22.5520 C   0  0  2  0  0  0  0  0  0  0  0  0
    8.1960   -0.4630   22.0530 N   0  0  0  0  0  0  0  0  0  0  0  0
    7.0110   -0.9170   21.3150 C   0  0  0  0  0  0  0  0  0  0  0  0
    6.0480   -1.9140   21.6400 O   0  0  0  0  0  0  0  0  0  0  0  0
    6.8410   -0.1780   20.0080 C   0  0  0  0  0  0  0  0  0  0  0  0
    5.6970    0.7950   19.8740 C   0  0  0  0  0  0  0  0  0  0  0  0
    4.7760    1.5910   19.1370 C   0  0  0  0  0  0  0  0  0  0  0  0
    4.7050    1.6660   17.8040 N   0  0  0  0  0  0  0  0  0  0  0  0
    5.6470    0.8420   17.4610 N   0  0  0  0  0  0  0  0  0  0  0  0
    6.1710    0.3710   18.5500 N   0  0  0  0  0  0  0  0  0  0  0  0
    7.2260   -0.5800   18.3240 C   0  0  0  0  0  0  0  0  0  0  0  0
    8.6320   -2.2390   23.6560 C   0  0  0  0  0  0  0  0  0  0  0  0
    7.6630   -1.9410   24.5560 N   0  0  0  0  0  0  0  0  0  0  0  0
    7.6340   -3.0280   25.5020 O   0  0  0  0  0  0  0  0  0  0  0  0
    8.5900   -3.9370   25.1280 C   0  0  0  0  0  0  0  0  0  0  0  0
    8.8790   -5.2330   25.8960 C   0  0  0  0  0  0  0  0  0  0  0  0
    9.1830   -3.4820   24.0240 N   0  0  0  0  0  0  0  0  0  0  0  0
  1  2  1  0
  2  3  1  0
  3  4  2  0
  4  5  1  0
  5  6  2  0
  6  7  1  0
  3  8  1  0
  7  8  2  0
  8  9  1  0
  9 10  1  1
 10 11  1  0
 11 12  2  0
 11 13  1  0
 13 14  1  0
 14 15  2  0
 15 16  1  0
 16 17  2  0
 14 18  1  0
 17 18  1  0
 18 19  1  0
  9 20  1  0
 20 21  2  0
 21 22  1  0
 22 23  1  0
 23 24  1  0
 20 25  1  0
 23 25  2  0
M  END
