BAR-COM-4e090d3a-49-acrylamide
     RDKit          3D

 21 22  0  0  0  0  0  0  0  0999 V2000
    7.4450   -4.2010   20.7040 C   0  0  0  0  0  0  0  0  0  0  0  0
    6.7000   -4.2570   22.0410 C   0  0  0  0  0  0  0  0  0  0  0  0
    5.9910   -2.9270   22.2950 C   0  0  0  0  0  0  0  0  0  0  0  0
    4.9940   -3.5450   21.6240 O   0  0  0  0  0  0  0  0  0  0  0  0
    7.4070   -2.6060   23.0350 C   0  0  0  0  0  0  0  0  0  0  0  0
    8.1260   -1.2680   22.8390 O   0  0  0  0  0  0  0  0  0  0  0  0
    9.1310   -0.5610   23.6940 C   0  0  0  0  0  0  0  0  0  0  0  0
   10.2650    0.0930   24.4030 C   0  0  0  0  0  0  0  0  0  0  0  0
   11.7740    0.2540   24.0830 C   0  0  0  0  0  0  0  0  0  0  0  0
   12.3730   -0.3150   22.8750 C   0  0  0  0  0  0  0  0  0  0  0  0
   11.3450   -0.9940   22.0930 C   0  0  0  0  0  0  0  0  0  0  0  0
    9.8770   -1.0370   22.5560 C   0  0  0  0  0  0  0  0  0  0  0  0
    9.0860   -1.7320   21.5330 C   0  0  0  0  0  0  0  0  0  0  0  0
    9.1650   -2.9210   21.3140 O   0  0  0  0  0  0  0  0  0  0  0  0
    8.2130   -0.7960   20.8450 N   0  0  0  0  0  0  0  0  0  0  0  0
    6.7630   -0.8500   21.0580 C   0  0  0  0  0  0  0  0  0  0  0  0
    6.0960    0.0060   20.0240 C   0  0  0  0  0  0  0  0  0  0  0  0
    6.7730    0.0030   18.7770 C   0  0  0  0  0  0  0  0  0  0  0  0
    6.2810    0.7260   17.7680 N   0  0  0  0  0  0  0  0  0  0  0  0
    4.9040    1.4510   18.3890 S   0  0  0  0  0  0  0  0  0  0  0  0
    4.9810    0.7990   19.9770 C   0  0  0  0  0  0  0  0  0  0  0  0
  1  2  1  0
  2  3  1  0
  3  4  2  0
  3  5  1  0
  5  6  1  0
  6  7  1  0
  7  8  2  0
  8  9  1  0
  9 10  2  0
 10 11  1  0
  7 12  1  0
 11 12  2  0
 12 13  1  0
 13 14  2  0
 13 15  1  0
 15 16  1  0
 16 17  1  0
 17 18  1  0
 18 19  2  0
 19 20  1  0
 17 21  2  0
 20 21  1  0
M  END
