BAR-COM-4e090d3a-49-nitrile
     RDKit          3D

 19 20  0  0  0  0  0  0  0  0999 V2000
    7.6080   -3.7230   20.1190 C   0  0  0  0  0  0  0  0  0  0  0  0
    6.3300   -4.1070   19.9130 N   0  0  0  0  0  0  0  0  0  0  0  0
    8.3770   -3.4020   21.4860 C   0  0  0  0  0  0  0  0  0  0  0  0
    8.7510   -2.1720   21.7600 O   0  0  0  0  0  0  0  0  0  0  0  0
   10.0140   -1.5970   22.2370 C   0  0  0  0  0  0  0  0  0  0  0  0
   11.2970   -2.1580   22.2750 C   0  0  0  0  0  0  0  0  0  0  0  0
   12.4870   -1.5100   22.7320 C   0  0  0  0  0  0  0  0  0  0  0  0
   12.4680   -0.2200   23.1960 C   0  0  0  0  0  0  0  0  0  0  0  0
   11.1520    0.4680   23.2140 C   0  0  0  0  0  0  0  0  0  0  0  0
    9.9480   -0.3030   22.7130 C   0  0  0  0  0  0  0  0  0  0  0  0
    8.6880    0.4300   22.7560 C   0  0  0  0  0  0  0  0  0  0  0  0
    8.1610    0.7270   24.0410 O   0  0  0  0  0  0  0  0  0  0  0  0
    8.1290    0.7560   21.5600 N   0  0  0  0  0  0  0  0  0  0  0  0
    7.2570   -0.2140   20.9150 C   0  0  0  0  0  0  0  0  0  0  0  0
    6.3700    0.2560   19.8050 C   0  0  0  0  0  0  0  0  0  0  0  0
    6.8040    0.1280   18.4950 C   0  0  0  0  0  0  0  0  0  0  0  0
    5.9490    0.5940   17.5690 N   0  0  0  0  0  0  0  0  0  0  0  0
    4.5830    1.2000   18.3810 S   0  0  0  0  0  0  0  0  0  0  0  0
    5.1270    0.8380   19.9430 C   0  0  0  0  0  0  0  0  0  0  0  0
  1  2  2  3
  1  3  1  0
  3  4  1  0
  4  5  1  0
  5  6  2  0
  6  7  1  0
  7  8  2  0
  8  9  1  0
  5 10  1  0
  9 10  2  0
 10 11  1  0
 11 12  2  0
 11 13  1  0
 13 14  1  0
 14 15  1  0
 15 16  1  0
 16 17  2  0
 17 18  1  0
 15 19  2  0
 18 19  1  0
M  END
