BAR-COM-4e090d3a-16
     RDKit          3D

 26 29  0  0  0  0  0  0  0  0999 V2000
    9.2520   -0.7760   26.2140 C   0  0  0  0  0  0  0  0  0  0  0  0
    8.1410    0.0090   25.5730 C   0  0  0  0  0  0  0  0  0  0  0  0
    8.5170    1.1480   24.8840 C   0  0  0  0  0  0  0  0  0  0  0  0
    7.7800    2.2710   25.0940 N   0  0  0  0  0  0  0  0  0  0  0  0
    8.3370    3.2260   24.3240 N   0  0  0  0  0  0  0  0  0  0  0  0
    9.4010    2.6700   23.6600 N   0  0  0  0  0  0  0  0  0  0  0  0
    9.5370    1.3950   23.9810 N   0  0  0  0  0  0  0  0  0  0  0  0
   10.5780    0.5900   23.4200 C   0  0  0  0  0  0  0  0  0  0  0  0
   11.8830    1.0010   23.6540 C   0  0  0  0  0  0  0  0  0  0  0  0
   12.9990    0.3270   23.1640 C   0  0  0  0  0  0  0  0  0  0  0  0
   12.8260   -0.9160   22.3470 C   0  0  0  0  0  0  0  0  0  0  0  0
   11.4350   -1.3940   22.0710 C   0  0  0  0  0  0  0  0  0  0  0  0
   10.3010   -0.5720   22.6450 C   0  0  0  0  0  0  0  0  0  0  0  0
    8.9790   -0.9330   22.4050 N   0  0  0  0  0  0  0  0  0  0  0  0
    8.2100   -0.2090   21.5480 C   0  0  0  0  0  0  0  0  0  0  0  0
    8.4850    0.8690   21.0220 O   0  0  0  0  0  0  0  0  0  0  0  0
    6.8440   -0.7820   21.2120 C   0  0  0  0  0  0  0  0  0  0  0  0
    6.2120   -0.0270   20.2260 C   0  0  0  0  0  0  0  0  0  0  0  0
    6.8110   -0.0370   18.8400 C   0  0  0  0  0  0  0  0  0  0  0  0
    6.3590    0.6440   17.7370 N   0  0  0  0  0  0  0  0  0  0  0  0
    5.2500    1.3970   17.9500 C   0  0  0  0  0  0  0  0  0  0  0  0
    4.4820    1.5480   19.2780 C   0  0  0  0  0  0  0  0  0  0  0  0
    2.9470    2.6170   19.5160 Br  0  0  0  0  0  0  0  0  0  0  0  0
    5.0750    0.7460   20.4330 C   0  0  0  0  0  0  0  0  0  0  0  0
    5.9990   -1.2710   22.3780 C   0  0  0  0  0  0  0  0  0  0  0  0
    6.4800   -2.2300   21.4880 C   0  0  0  0  0  0  0  0  0  0  0  0
  1  2  1  0
  2  3  1  0
  3  4  2  0
  4  5  1  0
  5  6  2  0
  3  7  1  0
  6  7  1  0
  7  8  1  0
  8  9  2  0
  9 10  1  0
 10 11  2  0
 11 12  1  0
  8 13  1  0
 12 13  2  0
 13 14  1  0
 14 15  1  0
 15 16  2  0
 17 15  1  0
 17 18  1  0
 18 19  2  0
 19 20  1  0
 20 21  2  0
 21 22  1  0
 22 23  1  0
 18 24  1  0
 22 24  2  0
 17 25  1  0
 17 26  1  0
 25 26  1  0
M  END
