BAR-COM-4e090d3a-21
     RDKit          3D

 23 25  0  0  0  0  0  0  0  0999 V2000
    9.5440    0.1210   26.2600 N   0  0  0  0  0  0  0  0  0  0  0  0
   10.5450   -0.1320   25.3700 C   0  0  0  0  0  0  0  0  0  0  0  0
   11.3260   -1.3200   25.3690 O   0  0  0  0  0  0  0  0  0  0  0  0
   10.8360    0.8730   24.3000 C   0  0  1  0  0  0  0  0  0  0  0  0
   12.0980    0.7150   23.7690 C   0  0  0  0  0  0  0  0  0  0  0  0
   12.1800   -0.2600   22.8180 C   0  0  0  0  0  0  0  0  0  0  0  0
   13.3570   -0.4120   22.1420 C   0  0  0  0  0  0  0  0  0  0  0  0
   13.5190   -1.3970   21.1640 C   0  0  0  0  0  0  0  0  0  0  0  0
   12.4180   -2.3190   20.8570 C   0  0  0  0  0  0  0  0  0  0  0  0
   11.1430   -2.1660   21.5630 C   0  0  0  0  0  0  0  0  0  0  0  0
   11.0770   -1.0770   22.5520 C   0  0  0  0  0  0  0  0  0  0  0  0
    9.9210   -0.8430   23.2090 N   0  0  0  0  0  0  0  0  0  0  0  0
    8.7310   -1.3390   22.5540 C   0  0  0  0  0  0  0  0  0  0  0  0
    8.0040   -0.5190   21.5100 C   0  0  0  0  0  0  0  0  0  0  0  0
    8.5710    0.7490   21.1860 O   0  0  0  0  0  0  0  0  0  0  0  0
    6.8710   -0.9070   20.9210 N   0  0  0  0  0  0  0  0  0  0  0  0
    6.2040   -0.0610   19.9750 C   0  0  0  0  0  0  0  0  0  0  0  0
    6.8640   -0.0190   18.6460 C   0  0  0  0  0  0  0  0  0  0  0  0
    6.3700    0.7360   17.6490 N   0  0  0  0  0  0  0  0  0  0  0  0
    5.1640    1.5340   17.8410 C   0  0  0  0  0  0  0  0  0  0  0  0
    4.5110    1.4550   19.2350 C   0  0  0  0  0  0  0  0  0  0  0  0
    5.0270    0.6880   20.2450 N   0  0  0  0  0  0  0  0  0  0  0  0
    9.8250    0.5300   23.3000 C   0  0  0  0  0  0  0  0  0  0  0  0
  1  2  1  0
  2  3  2  0
  4  2  1  1
  4  5  1  0
  5  6  1  0
  6  7  1  0
  7  8  2  0
  8  9  1  0
  9 10  2  0
  6 11  2  0
 10 11  1  0
 11 12  1  0
 12 13  1  0
 13 14  1  0
 14 15  2  0
 14 16  1  0
 16 17  1  0
 17 18  2  0
 18 19  1  0
 19 20  2  0
 20 21  1  0
 17 22  1  0
 21 22  2  0
  4 23  1  0
 12 23  1  0
M  END
