BAR-COM-4e090d3a-33
     RDKit          3D

 27 30  0  0  0  0  0  0  0  0999 V2000
   11.8170    2.1250   23.0610 C   0  0  0  0  0  0  0  0  0  0  0  0
   12.5760    0.7150   23.9060 S   0  0  0  0  0  0  0  0  0  0  0  0
   12.5730   -0.4860   22.5960 C   0  0  0  0  0  0  0  0  0  0  0  0
   11.2440   -0.6380   22.3170 C   0  0  0  0  0  0  0  0  0  0  0  0
   11.4180   -0.3750   23.6530 N   0  0  0  0  0  0  0  0  0  0  0  0
   10.3940   -0.3090   24.5180 C   0  0  0  0  0  0  0  0  0  0  0  0
   10.4300   -0.0730   26.0040 C   0  0  0  0  0  0  0  0  0  0  0  0
    9.3030    0.0140   26.9810 C   0  0  0  0  0  0  0  0  0  0  0  0
    8.1740   -0.1760   26.1530 C   0  0  0  0  0  0  0  0  0  0  0  0
    9.1700   -0.2830   25.1440 C   0  0  0  0  0  0  0  0  0  0  0  0
    9.2290   -0.5130   23.8100 C   0  0  0  0  0  0  0  0  0  0  0  0
    9.9020   -0.6770   22.6340 N   0  0  0  0  0  0  0  0  0  0  0  0
    9.1890   -0.9380   21.4730 C   0  0  0  0  0  0  0  0  0  0  0  0
    8.0740   -0.0760   20.9660 C   0  0  0  0  0  0  0  0  0  0  0  0
    8.2200    1.1380   20.9220 O   0  0  0  0  0  0  0  0  0  0  0  0
    6.9670   -0.7080   20.5710 N   0  0  0  0  0  0  0  0  0  0  0  0
    5.7170   -0.0860   20.2100 C   0  0  1  0  0  0  0  0  0  0  0  0
    5.7050    1.4290   20.2960 C   0  0  0  0  0  0  0  0  0  0  0  0
    4.6480    1.7330   19.3520 C   0  0  0  0  0  0  0  0  0  0  0  0
    4.3630    0.8240   18.6080 O   0  0  0  0  0  0  0  0  0  0  0  0
    5.2540   -0.2580   18.7540 C   0  0  1  0  0  0  0  0  0  0  0  0
    6.3070   -0.3130   17.6750 C   0  0  0  0  0  0  0  0  0  0  0  0
    6.5340    0.8920   17.0000 C   0  0  0  0  0  0  0  0  0  0  0  0
    7.5000    0.8440   16.0140 C   0  0  0  0  0  0  0  0  0  0  0  0
    8.1930   -0.2600   15.6920 N   0  0  0  0  0  0  0  0  0  0  0  0
    7.9150   -1.3760   16.3750 C   0  0  0  0  0  0  0  0  0  0  0  0
    6.9900   -1.4510   17.3620 C   0  0  0  0  0  0  0  0  0  0  0  0
  1  2  1  0
  2  3  1  0
  3  4  1  0
  4  5  2  0
  5  6  1  0
  6  7  2  0
  7  8  1  0
  8  9  2  0
  9 10  1  0
  6 11  1  0
 10 11  2  0
  4 12  1  0
 11 12  1  0
 12 13  1  0
 13 14  1  0
 14 15  2  0
 14 16  1  0
 17 16  1  6
 17 18  1  0
 18 19  1  0
 19 20  1  0
 17 21  1  0
 20 21  1  0
 21 22  1  6
 22 23  2  0
 23 24  1  0
 24 25  2  0
 25 26  1  0
 22 27  1  0
 26 27  2  0
M  END
