BAR-COM-4e090d3a-17
     RDKit          3D

 27 29  0  0  0  0  0  0  0  0999 V2000
   15.8880   -4.3980   18.9390 C   0  0  0  0  0  0  0  0  0  0  0  0
   14.8520   -5.2370   19.1780 C   0  0  1  0  0  0  0  0  0  0  0  0
   15.0640   -5.9900   20.1550 C   0  0  0  0  0  0  0  0  0  0  0  0
   15.2910   -5.0820   20.9910 C   0  0  2  0  0  0  0  0  0  0  0  0
   16.0550   -5.4040   22.1280 C   0  0  0  0  0  0  0  0  0  0  0  0
   14.0960   -4.2580   21.1830 C   0  0  0  0  0  0  0  0  0  0  0  0
   13.6600   -3.5070   20.3310 N   0  0  0  0  0  0  0  0  0  0  0  0
   12.2730   -3.1170   20.6560 C   0  0  0  0  0  0  0  0  0  0  0  0
   11.2010   -3.8280   20.1230 O   0  0  0  0  0  0  0  0  0  0  0  0
   12.0390   -1.8820   21.5120 C   0  0  0  0  0  0  0  0  0  0  0  0
   13.3210   -1.1910   21.6930 C   0  0  0  0  0  0  0  0  0  0  0  0
   13.3200    0.0840   22.4860 C   0  0  0  0  0  0  0  0  0  0  0  0
   12.0820    0.6550   23.0800 C   0  0  0  0  0  0  0  0  0  0  0  0
   10.8820   -0.0440   22.8920 C   0  0  0  0  0  0  0  0  0  0  0  0
   10.8440   -1.3430   22.0900 C   0  0  0  0  0  0  0  0  0  0  0  0
    9.6130   -1.8990   21.9720 N   0  0  0  0  0  0  0  0  0  0  0  0
    8.4680   -1.0150   21.7770 C   0  0  0  0  0  0  0  0  0  0  0  0
    8.5160    0.1400   21.3650 O   0  0  0  0  0  0  0  0  0  0  0  0
    7.1930   -1.6390   22.1460 N   0  0  0  0  0  0  0  0  0  0  0  0
    6.0100   -1.7070   21.2680 C   0  0  0  0  0  0  0  0  0  0  0  0
    5.2010   -0.4120   21.0690 C   0  0  0  0  0  0  0  0  0  0  0  0
    4.6330    0.8140   20.4800 C   0  0  0  0  0  0  0  0  0  0  0  0
    4.8410    1.3950   19.2580 C   0  0  0  0  0  0  0  0  0  0  0  0
    5.6310    0.9470   18.3240 N   0  0  0  0  0  0  0  0  0  0  0  0
    6.1820   -0.1510   18.7660 C   0  0  0  0  0  0  0  0  0  0  0  0
    5.9910   -0.7440   19.9680 N   0  0  0  0  0  0  0  0  0  0  0  0
   13.6070   -4.6270   19.5210 C   0  0  0  0  0  0  0  0  0  0  0  0
  2  1  1  1
  2  3  1  0
  3  4  1  0
  4  5  1  1
  4  6  1  0
  6  7  1  0
  7  8  1  0
  8  9  2  0
  8 10  1  0
 10 11  2  0
 11 12  1  0
 12 13  2  0
 13 14  1  0
 10 15  1  0
 14 15  2  0
 15 16  1  0
 16 17  1  0
 17 18  2  0
 17 19  1  0
 19 20  1  0
 20 21  1  0
 21 22  2  0
 22 23  1  0
 23 24  2  0
 24 25  1  0
 21 26  1  0
 25 26  2  0
  2 27  1  0
  7 27  1  0
M  END
