BAR-COM-4e090d3a-46
     RDKit          3D

 29 32  0  0  0  0  0  0  0  0999 V2000
    5.7210   -5.8500   21.8130 C   0  0  0  0  0  0  0  0  0  0  0  0
    6.7340   -4.9950   22.5350 C   0  0  0  0  0  0  0  0  0  0  0  0
    7.5860   -5.5770   23.4250 N   0  0  0  0  0  0  0  0  0  0  0  0
    8.3340   -4.5000   23.8430 O   0  0  0  0  0  0  0  0  0  0  0  0
    7.9140   -3.3690   23.2210 C   0  0  0  0  0  0  0  0  0  0  0  0
    8.5390   -2.1460   23.4980 C   0  0  0  0  0  0  0  0  0  0  0  0
    9.1470   -1.6440   22.3360 C   0  0  1  0  0  0  0  0  0  0  0  0
    8.4930   -0.6500   21.6300 N   0  0  0  0  0  0  0  0  0  0  0  0
    7.2450   -1.0310   21.0010 C   0  0  0  0  0  0  0  0  0  0  0  0
    6.7100   -2.1280   21.0540 O   0  0  0  0  0  0  0  0  0  0  0  0
    6.6420   -0.0060   20.3420 N   0  0  0  0  0  0  0  0  0  0  0  0
    5.3220    0.2810   20.8610 C   0  0  2  0  0  0  0  0  0  0  0  0
    4.7310    1.2340   19.9050 C   0  0  0  0  0  0  0  0  0  0  0  0
    5.0840    1.4950   18.6080 C   0  0  0  0  0  0  0  0  0  0  0  0
    5.7720    1.3360   17.5680 N   0  0  0  0  0  0  0  0  0  0  0  0
    4.8400    2.3530   17.2770 C   0  0  0  0  0  0  0  0  0  0  0  0
    3.7320    2.7980   18.4790 C   0  0  0  0  0  0  0  0  0  0  0  0
    2.3800    4.1130   18.2540 Br  0  0  0  0  0  0  0  0  0  0  0  0
    3.7610    2.1500   19.8080 C   0  0  0  0  0  0  0  0  0  0  0  0
    5.4390    0.6670   22.2160 C   0  0  0  0  0  0  0  0  0  0  0  0
    4.5620    1.4870   22.8070 C   0  0  0  0  0  0  0  0  0  0  0  0
    4.7290   -0.0230   23.2660 C   0  0  0  0  0  0  0  0  0  0  0  0
   10.4370   -0.9370   22.6670 C   0  0  0  0  0  0  0  0  0  0  0  0
   11.6730   -1.3780   22.0840 C   0  0  0  0  0  0  0  0  0  0  0  0
   12.8240   -0.6950   22.3880 C   0  0  0  0  0  0  0  0  0  0  0  0
   12.9120    0.3920   23.2130 C   0  0  0  0  0  0  0  0  0  0  0  0
   11.7700    0.8510   23.8060 C   0  0  0  0  0  0  0  0  0  0  0  0
   10.4440    0.1560   23.5280 C   0  0  0  0  0  0  0  0  0  0  0  0
    6.9070   -3.6400   22.3950 N   0  0  0  0  0  0  0  0  0  0  0  0
  1  2  1  0
  2  3  2  0
  3  4  1  0
  4  5  1  0
  5  6  1  0
  7  6  1  1
  7  8  1  0
  8  9  1  0
  9 10  2  0
  9 11  1  0
 12 11  1  6
 12 13  1  0
 13 14  2  0
 14 15  1  0
 15 16  2  0
 16 17  1  0
 17 18  1  0
 13 19  1  0
 17 19  2  0
 12 20  1  0
 20 21  1  0
 20 22  1  0
 21 22  1  0
  7 23  1  0
 23 24  2  0
 24 25  1  0
 25 26  2  0
 26 27  1  0
 23 28  1  0
 27 28  2  0
  2 29  1  0
  5 29  2  0
M  END
