BAR-COM-4e090d3a-56
     RDKit          3D

 25 27  0  0  0  0  0  0  0  0999 V2000
    7.9320    2.6990   20.9410 O   0  0  0  0  0  0  0  0  0  0  0  0
    7.1630    2.1500   21.7230 C   0  0  0  0  0  0  0  0  0  0  0  0
    5.7870    1.8710   21.4340 N   0  0  0  0  0  0  0  0  0  0  0  0
    5.5310    0.9870   20.3210 C   0  0  0  0  0  0  0  0  0  0  0  0
    5.3100    1.5240   19.0810 C   0  0  0  0  0  0  0  0  0  0  0  0
    5.0760    0.6960   17.9860 C   0  0  0  0  0  0  0  0  0  0  0  0
    5.0450   -0.6910   18.0420 N   0  0  0  0  0  0  0  0  0  0  0  0
    5.2650   -1.1880   19.3040 N   0  0  0  0  0  0  0  0  0  0  0  0
    5.5120   -0.3920   20.4730 C   0  0  0  0  0  0  0  0  0  0  0  0
    7.5140    1.6880   22.9450 N   0  0  0  0  0  0  0  0  0  0  0  0
    8.7690    1.1590   23.0020 C   0  0  2  0  0  0  0  0  0  0  0  0
    8.8080   -0.2220   22.3800 C   0  0  0  0  0  0  0  0  0  0  0  0
   10.2470   -0.6590   22.2220 C   0  0  0  0  0  0  0  0  0  0  0  0
   11.2730    0.3920   22.6310 C   0  0  0  0  0  0  0  0  0  0  0  0
   12.7390    0.0110   22.5040 C   0  0  0  0  0  0  0  0  0  0  0  0
   13.0920   -1.3630   21.9810 C   0  0  0  0  0  0  0  0  0  0  0  0
   12.1120   -2.2790   21.6170 C   0  0  0  0  0  0  0  0  0  0  0  0
   10.6470   -1.9190   21.7440 C   0  0  0  0  0  0  0  0  0  0  0  0
    9.3890    1.1040   24.3960 C   0  0  0  0  0  0  0  0  0  0  0  0
    8.8710    1.7620   25.2780 O   0  0  0  0  0  0  0  0  0  0  0  0
   10.4540    0.3400   24.6010 N   0  0  0  0  0  0  0  0  0  0  0  0
   11.7440    0.6980   24.0460 C   0  0  0  0  0  0  0  0  0  0  0  0
   12.5270   -0.4880   24.5730 C   0  0  0  0  0  0  0  0  0  0  0  0
   11.5620   -1.5060   24.6440 C   0  0  0  0  0  0  0  0  0  0  0  0
   10.4550   -0.8330   25.1580 C   0  0  0  0  0  0  0  0  0  0  0  0
  1  2  2  0
  2  3  1  0
  3  4  1  0
  4  5  2  0
  5  6  1  0
  6  7  2  0
  7  8  1  0
  4  9  1  0
  8  9  2  0
  2 10  1  0
 10 11  1  0
 11 12  1  1
 12 13  1  0
 13 14  2  0
 14 15  1  0
 15 16  2  0
 16 17  1  0
 13 18  1  0
 17 18  2  0
 11 19  1  0
 19 20  2  0
 19 21  1  0
 21 22  1  0
 22 23  1  0
 23 24  1  0
 21 25  1  0
 24 25  1  0
M  END
