BAR-COM-4e090d3a-67
     RDKit          3D

 25 27  0  0  0  0  0  0  0  0999 V2000
    8.2960   -1.8440   25.5330 O   0  0  0  0  0  0  0  0  0  0  0  0
    8.6100   -2.5550   24.5850 C   0  0  0  0  0  0  0  0  0  0  0  0
    8.8310   -4.0560   24.7480 C   0  0  0  0  0  0  0  0  0  0  0  0
    7.5710   -4.7550   25.1560 C   0  0  0  0  0  0  0  0  0  0  0  0
    6.8370   -5.3250   24.1430 C   0  0  0  0  0  0  0  0  0  0  0  0
    5.4600   -5.1960   24.0800 C   0  0  0  0  0  0  0  0  0  0  0  0
    4.7180   -5.7400   23.1010 N   0  0  0  0  0  0  0  0  0  0  0  0
    5.4200   -6.4230   22.1780 C   0  0  0  0  0  0  0  0  0  0  0  0
    6.7480   -6.6120   22.1450 N   0  0  0  0  0  0  0  0  0  0  0  0
    7.4270   -6.0500   23.1420 C   0  0  0  0  0  0  0  0  0  0  0  0
    8.8020   -2.1170   23.2830 N   0  0  0  0  0  0  0  0  0  0  0  0
    8.8900   -0.6980   22.9200 C   0  0  2  0  0  0  0  0  0  0  0  0
    8.5420   -0.3710   21.6130 C   0  0  0  0  0  0  0  0  0  0  0  0
    7.2880   -0.8480   21.1030 N   0  0  0  0  0  0  0  0  0  0  0  0
    7.3070   -1.9930   20.4030 C   0  0  0  0  0  0  0  0  0  0  0  0
    7.7450   -3.0880   20.7080 O   0  0  0  0  0  0  0  0  0  0  0  0
    6.7230   -1.9740   19.1510 C   0  0  0  0  0  0  0  0  0  0  0  0
    5.4530   -2.2620   19.0970 C   0  0  0  0  0  0  0  0  0  0  0  0
    5.5190   -0.8910   18.7140 C   0  0  0  0  0  0  0  0  0  0  0  0
   10.3320   -0.2880   22.9470 C   0  0  0  0  0  0  0  0  0  0  0  0
   10.7020    1.0230   23.5130 C   0  0  0  0  0  0  0  0  0  0  0  0
   12.1700    1.3690   23.4650 C   0  0  0  0  0  0  0  0  0  0  0  0
   13.0930    0.4900   22.9320 C   0  0  0  0  0  0  0  0  0  0  0  0
   12.6640   -0.7420   22.4250 C   0  0  0  0  0  0  0  0  0  0  0  0
   11.3340   -1.0980   22.4370 C   0  0  0  0  0  0  0  0  0  0  0  0
  1  2  2  0
  2  3  1  0
  3  4  1  0
  4  5  1  0
  5  6  2  0
  6  7  1  0
  7  8  2  0
  8  9  1  0
  5 10  1  0
  9 10  2  0
  2 11  1  0
 11 12  1  0
 12 13  1  6
 13 14  1  0
 14 15  1  0
 15 16  2  0
 15 17  1  0
 17 18  1  0
 17 19  1  0
 18 19  1  0
 12 20  1  0
 20 21  2  0
 21 22  1  0
 22 23  2  0
 23 24  1  0
 20 25  1  0
 24 25  2  0
M  END
