BAR-COM-4e090d3a-40
     RDKit          3D

 23 25  0  0  0  0  0  0  0  0999 V2000
    5.0540    0.6970   23.2470 O   0  0  0  0  0  0  0  0  0  0  0  0
    5.8880    0.6360   22.3470 C   0  0  0  0  0  0  0  0  0  0  0  0
    7.2490    0.2260   22.5800 N   0  0  0  0  0  0  0  0  0  0  0  0
    7.5870   -0.8970   23.4380 C   0  0  0  0  0  0  0  0  0  0  0  0
    8.9000   -0.7650   23.8460 C   0  0  0  0  0  0  0  0  0  0  0  0
    9.3740   -0.3720   25.0630 C   0  0  0  0  0  0  0  0  0  0  0  0
   10.6920   -0.3470   25.1410 N   0  0  0  0  0  0  0  0  0  0  0  0
   11.1390   -0.7410   23.9150 N   0  0  0  0  0  0  0  0  0  0  0  0
   12.6720   -0.8660   23.5820 C   0  0  0  0  0  0  0  0  0  0  0  0
   13.3010   -0.0170   22.5730 C   0  0  0  0  0  0  0  0  0  0  0  0
   11.9470    0.0820   22.7850 C   0  0  0  0  0  0  0  0  0  0  0  0
   11.3140   -1.2030   22.3950 C   0  0  0  0  0  0  0  0  0  0  0  0
   10.0190   -1.0690   22.8650 C   0  0  0  0  0  0  0  0  0  0  0  0
    5.5460    0.9990   20.9440 C   0  0  0  0  0  0  0  0  0  0  0  0
    4.1790    1.6150   20.5970 C   0  0  0  0  0  0  0  0  0  0  0  0
    3.8700    1.9560   19.2710 C   0  0  0  0  0  0  0  0  0  0  0  0
    4.9170    1.7000   18.2140 C   0  0  0  0  0  0  0  0  0  0  0  0
    6.1180    1.1510   18.5270 N   0  0  0  0  0  0  0  0  0  0  0  0
    6.4250    0.8020   19.9070 C   0  0  0  0  0  0  0  0  0  0  0  0
    7.4930    0.3110   20.1710 O   0  0  0  0  0  0  0  0  0  0  0  0
    7.5150   -1.0720   19.9000 C   0  0  0  0  0  0  0  0  0  0  0  0
    7.2320   -1.2030   18.4090 C   0  0  0  0  0  0  0  0  0  0  0  0
    7.3590    0.0710   17.9750 O   0  0  0  0  0  0  0  0  0  0  0  0
  1  2  2  0
  2  3  1  0
  3  4  1  0
  4  5  1  0
  5  6  1  0
  6  7  2  0
  7  8  1  0
  8  9  1  0
  9 10  2  0
 10 11  1  0
 11 12  2  0
  5 13  2  0
  8 13  1  0
 12 13  1  0
  2 14  1  0
 14 15  2  0
 15 16  1  0
 16 17  2  0
 17 18  1  0
 14 19  1  0
 18 19  2  0
 19 20  1  0
 20 21  1  0
 21 22  1  0
 22 23  1  0
M  END
