BAR-COM-4e090d3a-44
     RDKit          3D

 26 28  0  0  0  0  0  0  0  0999 V2000
    6.1950    1.9630   27.7340 C   0  0  0  0  0  0  0  0  0  0  0  0
    6.9070    0.9960   26.8230 C   0  0  2  0  0  0  0  0  0  0  0  0
    7.2660   -0.2010   27.4130 C   0  0  0  0  0  0  0  0  0  0  0  0
    8.0630   -1.0520   26.6760 C   0  0  2  0  0  0  0  0  0  0  0  0
    8.2540   -2.2650   27.3410 C   0  0  0  0  0  0  0  0  0  0  0  0
    9.2010   -0.4160   26.1360 C   0  0  0  0  0  0  0  0  0  0  0  0
    8.9070    0.8250   25.5330 N   0  0  0  0  0  0  0  0  0  0  0  0
    9.1560    1.0600   24.0940 C   0  0  0  0  0  0  0  0  0  0  0  0
    8.3130    1.8670   23.2780 O   0  0  0  0  0  0  0  0  0  0  0  0
   10.3890    0.3950   23.4610 C   0  0  0  0  0  0  0  0  0  0  0  0
   11.7220    0.9960   23.7850 C   0  0  0  0  0  0  0  0  0  0  0  0
   12.9210    0.3310   23.1410 C   0  0  0  0  0  0  0  0  0  0  0  0
   12.8230   -0.8730   22.2310 C   0  0  0  0  0  0  0  0  0  0  0  0
   11.5410   -1.3710   21.9760 C   0  0  0  0  0  0  0  0  0  0  0  0
   10.3180   -0.7100   22.6010 C   0  0  0  0  0  0  0  0  0  0  0  0
    9.1060   -1.1910   22.3010 N   0  0  0  0  0  0  0  0  0  0  0  0
    8.2780   -0.3120   21.5060 C   0  0  0  0  0  0  0  0  0  0  0  0
    8.5650    0.8280   21.1580 O   0  0  0  0  0  0  0  0  0  0  0  0
    7.0150   -0.9130   21.1210 N   0  0  0  0  0  0  0  0  0  0  0  0
    6.4790   -0.7540   19.7750 C   0  0  0  0  0  0  0  0  0  0  0  0
    5.4000    0.3100   19.5740 C   0  0  0  0  0  0  0  0  0  0  0  0
    4.6190    1.3680   18.9820 C   0  0  0  0  0  0  0  0  0  0  0  0
    5.0560    1.7250   17.8520 C   0  0  0  0  0  0  0  0  0  0  0  0
    6.0270    1.2790   17.2590 O   0  0  0  0  0  0  0  0  0  0  0  0
    6.2570    0.3860   18.3290 C   0  0  0  0  0  0  0  0  0  0  0  0
    7.9600    1.7040   26.2290 C   0  0  0  0  0  0  0  0  0  0  0  0
  2  1  1  1
  2  3  1  0
  3  4  1  0
  4  5  1  1
  4  6  1  0
  6  7  1  0
  7  8  1  0
  8  9  2  0
  8 10  1  0
 10 11  2  0
 11 12  1  0
 12 13  2  0
 13 14  1  0
 10 15  1  0
 14 15  2  0
 15 16  1  0
 16 17  1  0
 17 18  2  0
 17 19  1  0
 19 20  1  0
 20 21  1  0
 21 22  1  0
 22 23  2  0
 23 24  1  0
 21 25  2  0
 24 25  1  0
  2 26  1  0
  7 26  1  0
M  END
