BAR-COM-4e090d3a-25
     RDKit          3D

 25 27  0  0  0  0  0  0  0  0999 V2000
    6.7890    0.7410   22.4500 O   0  0  0  0  0  0  0  0  0  0  0  0
    7.2260    0.0360   21.5410 C   0  0  0  0  0  0  0  0  0  0  0  0
    6.3550   -0.2820   20.3610 C   0  0  0  0  0  0  0  0  0  0  0  0
    5.0920    0.3240   20.3500 C   0  0  0  0  0  0  0  0  0  0  0  0
    4.9170    1.0540   19.2040 C   0  0  0  0  0  0  0  0  0  0  0  0
    5.1500    1.5530   17.9030 C   0  0  0  0  0  0  0  0  0  0  0  0
    6.1430    1.1930   17.1340 N   0  0  0  0  0  0  0  0  0  0  0  0
    6.7700    0.3450   17.8460 N   0  0  0  0  0  0  0  0  0  0  0  0
    6.0870    0.2710   18.9880 N   0  0  0  0  0  0  0  0  0  0  0  0
    8.4760   -0.5180   21.4780 N   0  0  0  0  0  0  0  0  0  0  0  0
    9.0050   -1.1750   22.5700 C   0  0  1  0  0  0  0  0  0  0  0  0
    9.0970   -2.6770   22.3670 C   0  0  0  0  0  0  0  0  0  0  0  0
    7.9190   -3.3870   22.8420 N   0  0  0  0  0  0  0  0  0  0  0  0
    7.9970   -4.6230   23.4450 C   0  0  0  0  0  0  0  0  0  0  0  0
    9.1610   -5.0710   24.1180 O   0  0  0  0  0  0  0  0  0  0  0  0
    6.7100   -5.4170   23.3050 C   0  0  0  0  0  0  0  0  0  0  0  0
    6.8720   -6.4210   22.2310 C   0  0  0  0  0  0  0  0  0  0  0  0
    5.6100   -5.8660   21.7010 C   0  0  0  0  0  0  0  0  0  0  0  0
    5.4950   -4.8770   22.7490 C   0  0  0  0  0  0  0  0  0  0  0  0
   10.3510   -0.5870   22.8040 C   0  0  0  0  0  0  0  0  0  0  0  0
   10.4330    0.5850   23.6200 C   0  0  0  0  0  0  0  0  0  0  0  0
   11.8420    1.0650   23.7590 C   0  0  0  0  0  0  0  0  0  0  0  0
   13.0140    0.3730   23.1080 C   0  0  0  0  0  0  0  0  0  0  0  0
   12.7670   -0.7970   22.3300 C   0  0  0  0  0  0  0  0  0  0  0  0
   11.4600   -1.2270   22.2070 C   0  0  0  0  0  0  0  0  0  0  0  0
  1  2  2  0
  2  3  1  0
  3  4  1  0
  4  5  1  0
  5  6  2  0
  6  7  1  0
  7  8  2  0
  5  9  1  0
  8  9  1  0
  2 10  1  0
 10 11  1  0
 11 12  1  6
 12 13  1  0
 13 14  1  0
 14 15  2  0
 14 16  1  0
 16 17  1  0
 17 18  1  0
 16 19  1  0
 18 19  1  0
 11 20  1  0
 20 21  2  0
 21 22  1  0
 22 23  2  0
 23 24  1  0
 20 25  1  0
 24 25  2  0
M  END
