BAR-COM-4e090d3a-7
     RDKit          3D

 26 28  0  0  0  0  0  0  0  0999 V2000
    7.9980    3.5490   23.4250 C   0  0  0  0  0  0  0  0  0  0  0  0
    7.4470    3.2900   22.0460 C   0  0  1  0  0  0  0  0  0  0  0  0
    7.3190    1.9520   21.6900 N   0  0  0  0  0  0  0  0  0  0  0  0
    8.4970    1.0830   21.6310 C   0  0  0  0  0  0  0  0  0  0  0  0
    9.6230    1.5520   21.7130 O   0  0  0  0  0  0  0  0  0  0  0  0
    8.2410   -0.2760   21.5030 C   0  0  1  0  0  0  0  0  0  0  0  0
    8.8750   -1.0320   22.4790 C   0  0  0  0  0  0  0  0  0  0  0  0
   10.1640   -0.6150   22.7550 C   0  0  0  0  0  0  0  0  0  0  0  0
   11.2940   -1.4160   22.1200 C   0  0  0  0  0  0  0  0  0  0  0  0
   12.7280   -0.9970   22.3490 C   0  0  0  0  0  0  0  0  0  0  0  0
   12.9940    0.2130   23.2070 C   0  0  0  0  0  0  0  0  0  0  0  0
   11.8250    0.9570   23.8210 C   0  0  0  0  0  0  0  0  0  0  0  0
   10.4250    0.4820   23.5530 C   0  0  0  0  0  0  0  0  0  0  0  0
    6.9450   -0.4680   21.2420 N   0  0  0  0  0  0  0  0  0  0  0  0
    6.6160   -1.5060   20.4350 C   0  0  0  0  0  0  0  0  0  0  0  0
    6.5480   -1.3990   19.0620 O   0  0  0  0  0  0  0  0  0  0  0  0
    6.3670   -2.8320   21.1430 C   0  0  0  0  0  0  0  0  0  0  0  0
    5.4730   -3.7440   20.4550 C   0  0  0  0  0  0  0  0  0  0  0  0
    5.4660   -4.9370   21.3960 C   0  0  0  0  0  0  0  0  0  0  0  0
    6.3760   -4.5430   22.5370 C   0  0  0  0  0  0  0  0  0  0  0  0
    6.8940   -3.2910   22.3620 O   0  0  0  0  0  0  0  0  0  0  0  0
    6.1200    3.9630   21.8770 C   0  0  0  0  0  0  0  0  0  0  0  0
    4.9050    3.4960   22.1580 N   0  0  0  0  0  0  0  0  0  0  0  0
    4.0530    4.6220   21.7590 C   0  0  0  0  0  0  0  0  0  0  0  0
    4.8520    5.6250   21.2920 C   0  0  0  0  0  0  0  0  0  0  0  0
    6.1520    5.2410   21.3580 O   0  0  0  0  0  0  0  0  0  0  0  0
  2  1  1  1
  2  3  1  0
  3  4  1  0
  4  5  2  0
  4  6  1  0
  6  7  1  1
  7  8  1  0
  8  9  2  0
  9 10  1  0
 10 11  2  0
 11 12  1  0
  8 13  1  0
 12 13  2  0
  6 14  1  0
 14 15  1  0
 15 16  2  0
 15 17  1  0
 17 18  2  0
 18 19  1  0
 19 20  2  0
 17 21  1  0
 20 21  1  0
  2 22  1  0
 22 23  2  0
 23 24  1  0
 24 25  2  0
 22 26  1  0
 25 26  1  0
M  END
