BAR-COM-4e090d3a-59
     RDKit          3D

 28 30  0  0  0  0  0  0  0  0999 V2000
   16.7380    1.1550   16.4480 C   0  0  0  0  0  0  0  0  0  0  0  0
   15.6340    0.5260   17.1180 C   0  0  0  0  0  0  0  0  0  0  0  0
   15.5800   -0.6600   16.9870 O   0  0  0  0  0  0  0  0  0  0  0  0
   14.7640    1.3000   17.8910 N   0  0  0  0  0  0  0  0  0  0  0  0
   14.9220    2.7740   18.2000 C   0  0  0  0  0  0  0  0  0  0  0  0
   15.4580    2.8230   19.3620 C   0  0  0  0  0  0  0  0  0  0  0  0
   15.6110    1.5270   19.5740 C   0  0  0  0  0  0  0  0  0  0  0  0
   14.7190    0.8050   19.1420 C   0  0  2  0  0  0  0  0  0  0  0  0
   14.6790   -0.6180   19.4520 C   0  0  0  0  0  0  0  0  0  0  0  0
   15.3680   -1.3270   18.7490 O   0  0  0  0  0  0  0  0  0  0  0  0
   13.8300   -1.0430   20.6510 N   0  0  0  0  0  0  0  0  0  0  0  0
   12.9680   -2.1980   20.8850 C   0  0  0  0  0  0  0  0  0  0  0  0
   11.9280   -2.2470   22.0110 C   0  0  2  0  0  0  0  0  0  0  0  0
   10.6100   -2.6430   21.5770 N   0  0  0  0  0  0  0  0  0  0  0  0
    9.5390   -2.8280   22.4280 C   0  0  0  0  0  0  0  0  0  0  0  0
    8.1440   -2.9500   22.1760 O   0  0  0  0  0  0  0  0  0  0  0  0
    9.9910   -2.8940   23.8870 C   0  0  0  0  0  0  0  0  0  0  0  0
    9.3860   -3.7610   24.8500 N   0  0  0  0  0  0  0  0  0  0  0  0
   10.1200   -4.4850   25.8620 C   0  0  0  0  0  0  0  0  0  0  0  0
    9.0980   -5.1530   26.5170 N   0  0  0  0  0  0  0  0  0  0  0  0
    7.8740   -4.8840   25.9850 C   0  0  0  0  0  0  0  0  0  0  0  0
    8.0250   -3.9940   24.9120 N   0  0  0  0  0  0  0  0  0  0  0  0
   11.5130   -1.1880   22.7200 C   0  0  0  0  0  0  0  0  0  0  0  0
   10.1300   -0.6190   22.4870 C   0  0  0  0  0  0  0  0  0  0  0  0
    9.6750    0.5460   23.3060 C   0  0  0  0  0  0  0  0  0  0  0  0
   10.6380    1.0200   24.2520 C   0  0  0  0  0  0  0  0  0  0  0  0
   11.9090    0.4090   24.3820 C   0  0  0  0  0  0  0  0  0  0  0  0
   12.3100   -0.6480   23.6400 C   0  0  0  0  0  0  0  0  0  0  0  0
  1  2  1  0
  2  3  2  0
  2  4  1  0
  4  5  1  0
  5  6  1  0
  6  7  1  0
  4  8  1  0
  7  8  1  0
  8  9  1  6
  9 10  2  0
  9 11  1  0
 11 12  1  0
 13 12  1  6
 13 14  1  0
 14 15  1  0
 15 16  2  0
 15 17  1  0
 17 18  1  0
 18 19  1  0
 19 20  2  0
 20 21  1  0
 18 22  1  0
 21 22  2  0
 13 23  1  0
 23 24  2  0
 24 25  1  0
 25 26  2  0
 26 27  1  0
 23 28  1  0
 27 28  2  0
M  END
