BAR-COM-5694a99d-5
     RDKit          3D

 23 25  0  0  0  0  0  0  0  0999 V2000
    8.6190    1.4860   21.1390 O   0  0  0  0  0  0  0  0  0  0  0  0
    8.3320    0.4250   21.7120 C   0  0  0  0  0  0  0  0  0  0  0  0
    7.2300   -0.4320   21.3200 N   0  0  0  0  0  0  0  0  0  0  0  0
    6.5140    0.1530   20.1950 C   0  0  0  0  0  0  0  0  0  0  0  0
    5.2710    0.9940   20.5020 C   0  0  0  0  0  0  0  0  0  0  0  0
    4.5550    1.6220   19.3190 C   0  0  0  0  0  0  0  0  0  0  0  0
    5.1190    1.3710   17.9560 C   0  0  0  0  0  0  0  0  0  0  0  0
    6.2690    0.5760   17.7030 N   0  0  0  0  0  0  0  0  0  0  0  0
    6.9180   -0.0070   18.8780 C   0  0  0  0  0  0  0  0  0  0  0  0
    9.0630   -0.0660   22.7850 N   0  0  0  0  0  0  0  0  0  0  0  0
   10.4060    0.3260   22.8800 C   0  0  0  0  0  0  0  0  0  0  0  0
   10.7410    1.6710   22.9900 C   0  0  0  0  0  0  0  0  0  0  0  0
   12.0490    2.0700   23.0420 C   0  0  0  0  0  0  0  0  0  0  0  0
   13.0370    1.1310   22.9830 C   0  0  0  0  0  0  0  0  0  0  0  0
   12.7730   -0.2010   22.8960 C   0  0  0  0  0  0  0  0  0  0  0  0
   11.4540   -0.6290   22.8460 C   0  0  0  0  0  0  0  0  0  0  0  0
   11.2070   -1.9560   22.7640 C   0  0  0  0  0  0  0  0  0  0  0  0
   12.3060   -2.6820   22.3550 C   0  0  0  0  0  0  0  0  0  0  0  0
   11.8820   -3.5440   21.3490 C   0  0  0  0  0  0  0  0  0  0  0  0
   10.4370   -3.4670   21.1360 O   0  0  0  0  0  0  0  0  0  0  0  0
   12.4320   -3.0110   20.3700 C   0  0  0  0  0  0  0  0  0  0  0  0
   13.6560   -3.7440   20.6740 N   0  0  0  0  0  0  0  0  0  0  0  0
   12.6080   -4.6800   20.4740 C   0  0  0  0  0  0  0  0  0  0  0  0
  1  2  2  0
  2  3  1  0
  3  4  1  0
  4  5  2  0
  5  6  1  0
  6  7  2  0
  7  8  1  0
  4  9  1  0
  8  9  2  0
  2 10  1  0
 10 11  1  0
 11 12  2  0
 12 13  1  0
 13 14  2  0
 14 15  1  0
 11 16  1  0
 15 16  2  0
 16 17  1  0
 17 18  1  0
 18 19  1  0
 19 20  1  0
 19 21  1  0
 21 22  1  0
 19 23  1  0
 22 23  1  0
M  END
