BAR-COM-21d20d65-7-nitrile
     RDKit          3D

 24 26  0  0  0  0  0  0  0  0999 V2000
    6.8010   -4.0730   20.1640 C   0  0  0  0  0  0  0  0  0  0  0  0
    5.8420   -3.5590   19.4730 N   0  0  0  0  0  0  0  0  0  0  0  0
    7.1370   -3.4970   21.6190 C   0  0  0  0  0  0  0  0  0  0  0  0
    8.3070   -2.4390   21.5330 C   0  0  0  0  0  0  0  0  0  0  0  0
    8.7700   -1.6660   22.8420 C   0  0  0  0  0  0  0  0  0  0  0  0
    8.2950   -2.3660   24.0690 C   0  0  0  0  0  0  0  0  0  0  0  0
    9.2280   -3.1580   23.4930 C   0  0  0  0  0  0  0  0  0  0  0  0
    9.7280   -2.5040   22.4130 C   0  0  0  0  0  0  0  0  0  0  0  0
    9.1670   -1.2280   22.1890 C   0  0  0  0  0  0  0  0  0  0  0  0
    8.1360   -0.6440   23.0240 C   0  0  0  0  0  0  0  0  0  0  0  0
    7.6180    0.6560   22.7420 N   0  0  0  0  0  0  0  0  0  0  0  0
    8.0550    1.6070   21.8190 C   0  0  0  0  0  0  0  0  0  0  0  0
    9.2100    1.9370   21.5720 O   0  0  0  0  0  0  0  0  0  0  0  0
    6.9700    2.1760   21.1900 N   0  0  0  0  0  0  0  0  0  0  0  0
    6.2600    1.6160   20.1230 C   0  0  0  0  0  0  0  0  0  0  0  0
    5.0060    2.1430   19.8280 C   0  0  0  0  0  0  0  0  0  0  0  0
    4.2730    1.6060   18.7830 C   0  0  0  0  0  0  0  0  0  0  0  0
    4.8240    0.5600   18.0650 C   0  0  0  0  0  0  0  0  0  0  0  0
    6.0250    0.0290   18.3090 N   0  0  0  0  0  0  0  0  0  0  0  0
    6.7160    0.5670   19.3370 C   0  0  0  0  0  0  0  0  0  0  0  0
    7.5040   -1.2220   24.2030 C   0  0  0  0  0  0  0  0  0  0  0  0
    7.2700   -4.5480   22.8040 C   0  0  0  0  0  0  0  0  0  0  0  0
    5.7490   -4.4520   22.9810 C   0  0  0  0  0  0  0  0  0  0  0  0
    5.8510   -3.0320   22.3980 C   0  0  0  0  0  0  0  0  0  0  0  0
  1  2  2  3
  3  1  1  0
  3  4  1  0
  4  5  1  0
  5  6  1  0
  6  7  2  0
  7  8  1  0
  8  9  2  0
  9 10  1  0
 10 11  1  0
 11 12  1  0
 12 13  2  0
 12 14  1  0
 14 15  1  0
 15 16  2  0
 16 17  1  0
 17 18  2  0
 18 19  1  0
 15 20  1  0
 19 20  2  0
  6 21  1  0
 10 21  2  0
  3 22  1  0
 22 23  1  0
  3 24  1  0
 23 24  1  0
M  END
