BAR-COM-4e090d3a-58
     RDKit          3D

 22 24  0  0  0  0  0  0  0  0999 V2000
    8.3710    1.4510   20.8250 O   0  0  0  0  0  0  0  0  0  0  0  0
    7.8850    0.4370   21.3410 C   0  0  0  0  0  0  0  0  0  0  0  0
    7.0000   -0.4610   20.6740 N   0  0  0  0  0  0  0  0  0  0  0  0
    6.4360   -0.0230   19.4270 C   0  0  0  0  0  0  0  0  0  0  0  0
    5.2340    0.6390   19.6360 C   0  0  0  0  0  0  0  0  0  0  0  0
    4.8480    1.5750   18.6060 C   0  0  0  0  0  0  0  0  0  0  0  0
    3.6740    1.9530   19.2260 N   0  0  0  0  0  0  0  0  0  0  0  0
    3.2530    1.3950   20.5030 C   0  0  0  0  0  0  0  0  0  0  0  0
    4.3380    0.2920   21.0710 S   0  0  0  0  0  0  0  0  0  0  0  0
    8.1350    0.0300   22.6070 N   0  0  0  0  0  0  0  0  0  0  0  0
    9.4750    0.1760   23.0330 C   0  0  0  0  0  0  0  0  0  0  0  0
    9.9560    1.5400   23.4070 C   0  0  0  0  0  0  0  0  0  0  0  0
   11.3850    1.6760   23.8130 C   0  0  0  0  0  0  0  0  0  0  0  0
   12.2180    0.4520   23.8290 C   0  0  0  0  0  0  0  0  0  0  0  0
   11.5530   -0.8440   23.4210 C   0  0  0  0  0  0  0  0  0  0  0  0
   12.1760   -1.9550   23.3620 N   0  0  0  0  0  0  0  0  0  0  0  0
   13.5120   -1.5910   23.4170 C   0  0  0  0  0  0  0  0  0  0  0  0
   13.4840   -0.7270   22.3180 C   0  0  0  0  0  0  0  0  0  0  0  0
   13.6310   -1.3210   21.1220 O   0  0  0  0  0  0  0  0  0  0  0  0
   13.0140   -2.5910   21.2340 C   0  0  0  0  0  0  0  0  0  0  0  0
   11.8190   -2.4080   22.0260 C   0  0  0  0  0  0  0  0  0  0  0  0
   10.2680   -0.9080   23.0600 C   0  0  0  0  0  0  0  0  0  0  0  0
  1  2  2  0
  2  3  1  0
  3  4  1  0
  4  5  1  0
  5  6  2  0
  6  7  1  0
  7  8  2  0
  5  9  1  0
  8  9  1  0
  2 10  1  0
 10 11  1  0
 11 12  2  0
 12 13  1  0
 13 14  2  0
 14 15  1  0
 15 16  1  0
 16 17  1  0
 17 18  1  0
 18 19  1  0
 19 20  1  0
 16 21  1  0
 20 21  1  0
 11 22  1  0
 15 22  2  0
M  END
