BAR-COM-4e090d3a-20
     RDKit          3D

 23 25  0  0  0  0  0  0  0  0999 V2000
    6.0510   -1.8860   21.5350 C   0  0  0  0  0  0  0  0  0  0  0  0
    6.5120   -0.4460   21.5480 C   0  0  1  0  0  0  0  0  0  0  0  0
    7.8840   -0.1770   21.5910 C   0  0  0  0  0  0  0  0  0  0  0  0
    8.3460    0.8730   21.1360 O   0  0  0  0  0  0  0  0  0  0  0  0
    8.5930   -1.1830   22.1800 N   0  0  0  0  0  0  0  0  0  0  0  0
    9.5850   -0.8460   23.0600 C   0  0  0  0  0  0  0  0  0  0  0  0
    9.4980   -1.0430   24.4310 C   0  0  0  0  0  0  0  0  0  0  0  0
   10.5440   -0.6890   25.2730 C   0  0  0  0  0  0  0  0  0  0  0  0
   11.7820   -0.0910   24.6830 C   0  0  0  0  0  0  0  0  0  0  0  0
   11.8970    0.1510   23.2250 C   0  0  0  0  0  0  0  0  0  0  0  0
   13.1310    0.7890   22.6060 N   0  0  0  0  0  0  0  0  0  0  0  0
   13.2840    2.2150   22.2510 C   0  0  0  0  0  0  0  0  0  0  0  0
   14.6370    2.8640   21.9610 C   0  0  0  0  0  0  0  0  0  0  0  0
   14.5750    4.3260   22.5020 C   0  0  0  0  0  0  0  0  0  0  0  0
   13.2860    4.5280   23.0620 C   0  0  0  0  0  0  0  0  0  0  0  0
   12.4110    3.2480   22.9480 C   0  0  0  0  0  0  0  0  0  0  0  0
   10.7420   -0.2670   22.4980 C   0  0  0  0  0  0  0  0  0  0  0  0
    6.0670    0.1970   20.4010 C   0  0  0  0  0  0  0  0  0  0  0  0
    6.6680   -0.0930   19.0340 C   0  0  0  0  0  0  0  0  0  0  0  0
    6.3180    0.4530   17.8980 N   0  0  0  0  0  0  0  0  0  0  0  0
    5.2340    1.4170   18.0530 C   0  0  0  0  0  0  0  0  0  0  0  0
    4.7110    1.6590   19.3100 C   0  0  0  0  0  0  0  0  0  0  0  0
    5.0810    1.0930   20.4890 N   0  0  0  0  0  0  0  0  0  0  0  0
  2  1  1  6
  2  3  1  0
  3  4  2  0
  3  5  1  0
  5  6  1  0
  6  7  2  0
  7  8  1  0
  8  9  2  0
  9 10  1  0
 10 11  1  0
 11 12  1  0
 12 13  1  0
 13 14  1  0
 14 15  1  0
 12 16  1  0
 15 16  1  0
  6 17  1  0
 10 17  2  0
  2 18  1  0
 18 19  2  0
 19 20  1  0
 20 21  2  0
 21 22  1  0
 18 23  1  0
 22 23  2  0
M  END
