BAR-COM-21d20d65-7-acrylamide
     RDKit          3D

 26 28  0  0  0  0  0  0  0  0999 V2000
    8.3730   -3.8270   20.3470 C   0  0  0  0  0  0  0  0  0  0  0  0
    7.2090   -2.8460   20.3190 C   0  0  0  0  0  0  0  0  0  0  0  0
    5.9350   -3.4280   20.8920 C   0  0  0  0  0  0  0  0  0  0  0  0
    5.0840   -3.9500   21.6370 O   0  0  0  0  0  0  0  0  0  0  0  0
    6.8800   -3.6390   22.1910 C   0  0  0  0  0  0  0  0  0  0  0  0
    7.5660   -2.3690   22.7550 C   0  0  0  0  0  0  0  0  0  0  0  0
    8.9180   -1.9240   22.4330 C   0  0  0  0  0  0  0  0  0  0  0  0
   10.0200   -2.3370   23.2190 C   0  0  0  0  0  0  0  0  0  0  0  0
   11.1340   -2.4780   23.8910 C   0  0  0  0  0  0  0  0  0  0  0  0
   10.1140   -3.3560   23.7210 C   0  0  0  0  0  0  0  0  0  0  0  0
    8.9340   -2.9440   22.8730 C   0  0  0  0  0  0  0  0  0  0  0  0
    9.3690   -1.5350   22.4760 C   0  0  0  0  0  0  0  0  0  0  0  0
    8.5500   -0.7050   21.6230 N   0  0  0  0  0  0  0  0  0  0  0  0
    8.4060    0.6900   21.5380 C   0  0  0  0  0  0  0  0  0  0  0  0
    9.2850    1.5410   21.4800 O   0  0  0  0  0  0  0  0  0  0  0  0
    7.0690    1.0000   21.4860 N   0  0  0  0  0  0  0  0  0  0  0  0
    6.4050    1.1550   20.2670 C   0  0  0  0  0  0  0  0  0  0  0  0
    5.3910    2.0840   20.1800 C   0  0  0  0  0  0  0  0  0  0  0  0
    4.7260    2.2600   18.9740 C   0  0  0  0  0  0  0  0  0  0  0  0
    5.1220    1.4820   17.9040 C   0  0  0  0  0  0  0  0  0  0  0  0
    6.0960    0.5670   17.9470 N   0  0  0  0  0  0  0  0  0  0  0  0
    6.7190    0.4190   19.1310 C   0  0  0  0  0  0  0  0  0  0  0  0
   10.5410   -1.1280   22.9520 C   0  0  0  0  0  0  0  0  0  0  0  0
    6.0510   -4.2610   23.3860 C   0  0  0  0  0  0  0  0  0  0  0  0
    7.3470   -4.9470   23.8240 C   0  0  0  0  0  0  0  0  0  0  0  0
    7.6960   -4.9860   22.3380 C   0  0  0  0  0  0  0  0  0  0  0  0
  1  2  1  0
  2  3  1  0
  3  4  2  0
  5  3  1  0
  5  6  1  0
  6  7  1  0
  7  8  1  0
  8  9  2  0
  9 10  1  0
 10 11  2  0
 11 12  1  0
 12 13  1  0
 13 14  1  0
 14 15  2  0
 14 16  1  0
 16 17  1  0
 17 18  2  0
 18 19  1  0
 19 20  2  0
 20 21  1  0
 17 22  1  0
 21 22  2  0
  8 23  1  0
 12 23  2  0
  5 24  1  0
 24 25  1  0
  5 26  1  0
 25 26  1  0
M  END
