BEN-VAN-c986b20b-17
     RDKit          3D

 25 27  0  0  0  0  0  0  0  0999 V2000
    6.3640   -2.1620   18.8310 C   0  0  0  0  0  0  0  0  0  0  0  0
    5.9880   -3.0650   19.9820 C   0  0  0  0  0  0  0  0  0  0  0  0
    5.4380   -4.1600   19.8060 O   0  0  0  0  0  0  0  0  0  0  0  0
    6.3210   -2.5600   21.2170 N   0  0  0  0  0  0  0  0  0  0  0  0
    7.1820   -1.4130   21.3380 C   0  0  0  0  0  0  0  0  0  0  0  0
    8.5300   -1.8630   21.8600 C   0  0  0  0  0  0  0  0  0  0  0  0
    8.4550   -2.5890   23.1710 N   0  0  0  0  0  0  0  0  0  0  0  0
    9.5610   -2.7130   24.0520 C   0  0  0  0  0  0  0  0  0  0  0  0
   10.3320   -1.6310   23.7820 C   0  0  0  0  0  0  0  0  0  0  0  0
    9.8810   -0.4380   24.2830 C   0  0  0  0  0  0  0  0  0  0  0  0
   10.5820    0.6930   23.9630 C   0  0  0  0  0  0  0  0  0  0  0  0
   11.7970    0.6360   23.1130 C   0  0  0  0  0  0  0  0  0  0  0  0
   12.2580    2.0390   22.8750 C   0  0  0  0  0  0  0  0  0  0  0  0
   11.1250    3.0260   23.1740 C   0  0  0  0  0  0  0  0  0  0  0  0
   11.3620    4.3690   23.0020 C   0  0  0  0  0  0  0  0  0  0  0  0
   10.3650    5.2430   23.2690 F   0  0  0  0  0  0  0  0  0  0  0  0
   12.5080    4.8700   22.5920 N   0  0  0  0  0  0  0  0  0  0  0  0
   13.4500    3.9360   22.3470 C   0  0  0  0  0  0  0  0  0  0  0  0
   14.6520    4.3880   21.9490 C   0  0  0  0  0  0  0  0  0  0  0  0
   13.3940    2.6020   22.4530 N   0  0  0  0  0  0  0  0  0  0  0  0
   12.3510   -0.5600   22.6160 C   0  0  0  0  0  0  0  0  0  0  0  0
   13.4480   -0.7450   21.8600 F   0  0  0  0  0  0  0  0  0  0  0  0
   11.5240   -1.6020   23.0150 C   0  0  0  0  0  0  0  0  0  0  0  0
    7.5250   -3.7380   23.1050 C   0  0  0  0  0  0  0  0  0  0  0  0
    6.1780   -3.3160   22.4910 C   0  0  0  0  0  0  0  0  0  0  0  0
  1  2  1  0
  2  3  2  0
  2  4  1  0
  4  5  1  0
  5  6  1  0
  6  7  1  0
  7  8  1  0
  8  9  1  0
  9 10  2  0
 10 11  1  0
 11 12  2  0
 12 13  1  0
 13 14  2  0
 14 15  1  0
 15 16  1  0
 15 17  2  0
 17 18  1  0
 18 19  1  0
 13 20  1  0
 18 20  2  0
 12 21  1  0
 21 22  1  0
  9 23  1  0
 21 23  2  0
  7 24  1  0
  4 25  1  0
 24 25  1  0
M  END
