BEN-DND-031a96cc-8
     RDKit          3D

 17 18  0  0  0  0  0  0  0  0999 V2000
    7.6430   -2.8210   23.2520 C   0  0  0  0  0  0  0  0  0  0  0  0
    6.4510   -3.5780   23.7890 C   0  0  0  0  0  0  0  0  0  0  0  0
    5.9520   -3.1340   25.1670 C   0  0  0  0  0  0  0  0  0  0  0  0
    4.5560   -3.3380   25.3560 O   0  0  0  0  0  0  0  0  0  0  0  0
    6.8840   -2.6250   26.0130 N   0  0  0  0  0  0  0  0  0  0  0  0
    6.6720   -1.5180   26.7870 C   0  0  0  0  0  0  0  0  0  0  0  0
    5.9750   -0.3490   26.4030 C   0  0  0  0  0  0  0  0  0  0  0  0
    5.8440    0.7320   27.3050 C   0  0  0  0  0  0  0  0  0  0  0  0
    6.3630    0.7440   28.5950 C   0  0  0  0  0  0  0  0  0  0  0  0
    7.1240   -0.4600   29.1080 C   0  0  0  0  0  0  0  0  0  0  0  0
    7.2340   -1.6000   28.0860 C   0  0  0  0  0  0  0  0  0  0  0  0
    5.9620   -4.5790   22.9430 C   0  0  0  0  0  0  0  0  0  0  0  0
    5.7000   -4.7240   21.5750 C   0  0  0  0  0  0  0  0  0  0  0  0
    6.1290   -3.2560   21.0120 C   0  0  0  0  0  0  0  0  0  0  0  0
    5.8920   -3.2960   19.6310 C   0  0  0  0  0  0  0  0  0  0  0  0
    5.5690   -4.4850   20.2150 N   0  0  0  0  0  0  0  0  0  0  0  0
    5.9990   -3.9090   21.6680 C   0  0  0  0  0  0  0  0  0  0  0  0
  1  2  2  3
  2  3  1  0
  3  4  2  0
  3  5  1  0
  5  6  1  0
  6  7  2  0
  7  8  1  0
  8  9  2  0
  9 10  1  0
  6 11  1  0
 10 11  2  0
  2 12  1  0
 12 13  2  0
 13 14  1  0
 14 15  2  0
 15 16  1  0
 12 17  1  0
 16 17  2  0
M  END
