BEN-VAN-ed886787-3
     RDKit          3D

 29 31  0  0  0  0  0  0  0  0999 V2000
   16.6720    4.2190   20.1740 C   0  0  0  0  0  0  0  0  0  0  0  0
   15.6670    4.9760   19.4260 C   0  0  0  0  0  0  0  0  0  0  0  0
   14.4130    4.6010   19.7020 N   0  0  0  0  0  0  0  0  0  0  0  0
   13.5860    4.6630   20.9230 C   0  0  0  0  0  0  0  0  0  0  0  0
   13.1340    6.0170   21.3810 C   0  0  0  0  0  0  0  0  0  0  0  0
   12.3270    6.1100   22.4780 C   0  0  0  0  0  0  0  0  0  0  0  0
   11.9200    4.9420   23.1740 C   0  0  0  0  0  0  0  0  0  0  0  0
   11.1220    5.0470   24.2430 F   0  0  0  0  0  0  0  0  0  0  0  0
   12.4040    3.7380   22.6760 C   0  0  0  0  0  0  0  0  0  0  0  0
   11.9790    2.6330   23.4570 C   0  0  0  0  0  0  0  0  0  0  0  0
   11.7310    1.2290   23.0080 C   0  0  0  0  0  0  0  0  0  0  0  0
   12.8120    0.3890   22.4260 C   0  0  0  0  0  0  0  0  0  0  0  0
   12.2740   -0.9340   22.1190 C   0  0  0  0  0  0  0  0  0  0  0  0
   13.1510   -2.2100   21.4290 Cl  0  0  0  0  0  0  0  0  0  0  0  0
   10.9520   -1.1750   22.4000 C   0  0  0  0  0  0  0  0  0  0  0  0
    9.8410   -0.4850   22.9450 C   0  0  0  0  0  0  0  0  0  0  0  0
    9.5270   -1.7660   22.5870 N   0  0  0  0  0  0  0  0  0  0  0  0
    8.1420   -1.8980   22.2010 C   0  0  0  0  0  0  0  0  0  0  0  0
    7.7740   -0.7950   21.4500 C   0  0  0  0  0  0  0  0  0  0  0  0
    8.5120    0.1850   21.3170 O   0  0  0  0  0  0  0  0  0  0  0  0
    6.5220   -0.9350   20.9100 N   0  0  0  0  0  0  0  0  0  0  0  0
    5.9860   -0.1030   19.9370 C   0  0  0  0  0  0  0  0  0  0  0  0
    4.8330    0.6620   20.0780 C   0  0  0  0  0  0  0  0  0  0  0  0
    4.4170    1.4580   19.0180 C   0  0  0  0  0  0  0  0  0  0  0  0
    5.1670    1.4630   17.8500 C   0  0  0  0  0  0  0  0  0  0  0  0
    6.2860    0.7290   17.6890 N   0  0  0  0  0  0  0  0  0  0  0  0
    6.6660   -0.0310   18.7290 C   0  0  0  0  0  0  0  0  0  0  0  0
   10.4550    0.7570   23.2030 C   0  0  0  0  0  0  0  0  0  0  0  0
   13.1980    3.5820   21.6190 N   0  0  0  0  0  0  0  0  0  0  0  0
  1  2  1  0
  2  3  1  0
  3  4  1  0
  4  5  2  0
  5  6  1  0
  6  7  2  0
  7  8  1  0
  7  9  1  0
  9 10  1  0
 10 11  1  0
 11 12  2  0
 12 13  1  0
 13 14  1  0
 13 15  2  0
 15 16  1  0
 16 17  1  0
 17 18  1  0
 18 19  1  0
 19 20  2  0
 19 21  1  0
 21 22  1  0
 22 23  2  0
 23 24  1  0
 24 25  2  0
 25 26  1  0
 22 27  1  0
 26 27  2  0
 11 28  1  0
 16 28  2  0
  4 29  1  0
  9 29  2  0
M  END
