BEN-VAN-ed886787-4-vinylsulfonamide
     RDKit          3D

 28 29  0  0  0  0  0  0  0  0999 V2000
    7.3270   -4.0670   20.3570 C   0  0  0  0  0  0  0  0  0  0  0  0
    6.0820   -3.2830   20.0590 C   0  0  0  0  0  0  0  0  0  0  0  0
    5.6330   -2.5780   21.5950 S   0  0  0  0  0  0  0  0  0  0  0  0
    4.3760   -3.1510   22.0110 O   0  0  0  0  0  0  0  0  0  0  0  0
    6.7840   -2.6350   22.4700 O   0  0  0  0  0  0  0  0  0  0  0  0
    5.4750   -0.9810   21.0540 N   0  0  0  0  0  0  0  0  0  0  0  0
    6.7500   -0.4340   20.5500 C   0  0  0  0  0  0  0  0  0  0  0  0
    6.9310   -0.0630   19.4010 O   0  0  0  0  0  0  0  0  0  0  0  0
    7.7870   -0.3940   21.6670 C   0  0  0  0  0  0  0  0  0  0  0  0
    8.9700   -1.3240   21.5850 N   0  0  0  0  0  0  0  0  0  0  0  0
   10.0510   -0.7250   22.1710 C   0  0  0  0  0  0  0  0  0  0  0  0
   11.3710   -1.2850   22.2400 C   0  0  0  0  0  0  0  0  0  0  0  0
   12.3790   -0.5290   22.8720 C   0  0  0  0  0  0  0  0  0  0  0  0
   13.5800   -1.0830   22.9160 F   0  0  0  0  0  0  0  0  0  0  0  0
   12.1950    0.7940   23.4700 C   0  0  0  0  0  0  0  0  0  0  0  0
   10.7630    1.3170   23.3600 C   0  0  0  0  0  0  0  0  0  0  0  0
   10.1730    2.6370   23.8570 C   0  0  0  0  0  0  0  0  0  0  0  0
   11.0260    3.8580   23.7150 C   0  0  0  0  0  0  0  0  0  0  0  0
   12.3210    3.6850   23.3290 N   0  0  0  0  0  0  0  0  0  0  0  0
   13.1510    4.7540   23.2340 C   0  0  0  0  0  0  0  0  0  0  0  0
   14.4730    4.3480   22.8480 N   0  0  0  0  0  0  0  0  0  0  0  0
   15.8450    4.8510   23.2480 C   0  0  0  0  0  0  0  0  0  0  0  0
   16.9120    4.2120   22.6710 C   0  0  0  0  0  0  0  0  0  0  0  0
   12.6410    6.0430   23.5080 C   0  0  0  0  0  0  0  0  0  0  0  0
   11.3210    6.1660   23.8740 C   0  0  0  0  0  0  0  0  0  0  0  0
   10.4780    5.0940   23.9940 C   0  0  0  0  0  0  0  0  0  0  0  0
    9.2020    5.2580   24.3680 F   0  0  0  0  0  0  0  0  0  0  0  0
    9.7600    0.4900   22.6960 C   0  0  0  0  0  0  0  0  0  0  0  0
  1  2  1  0
  2  3  1  0
  3  4  2  0
  3  5  2  0
  3  6  1  0
  6  7  1  0
  7  8  2  0
  7  9  1  0
  9 10  1  0
 10 11  1  0
 11 12  2  0
 12 13  1  0
 13 14  1  0
 13 15  2  0
 15 16  1  0
 16 17  1  0
 17 18  1  0
 18 19  2  0
 19 20  1  0
 20 21  1  0
 21 22  1  0
 22 23  1  0
 20 24  2  0
 24 25  1  0
 18 26  1  0
 25 26  2  0
 26 27  1  0
 11 28  1  0
 16 28  2  0
M  END
