BEN-VAN-77cef4f8-13-nitrile
     RDKit          3D

 31 34  0  0  0  0  0  0  0  0999 V2000
    6.6760   -3.2370   19.1570 C   0  0  0  0  0  0  0  0  0  0  0  0
    5.6740   -3.9380   19.5870 N   0  0  0  0  0  0  0  0  0  0  0  0
    6.6580   -1.7970   19.4590 C   0  0  0  0  0  0  0  0  0  0  0  0
    5.9860   -0.8370   18.6850 C   0  0  0  0  0  0  0  0  0  0  0  0
    6.0200    0.5120   19.0700 C   0  0  0  0  0  0  0  0  0  0  0  0
    6.7310    0.8570   20.2290 C   0  0  0  0  0  0  0  0  0  0  0  0
    6.8810    2.1090   20.7830 N   0  0  0  0  0  0  0  0  0  0  0  0
    7.6370    2.2110   22.0600 C   0  0  2  0  0  0  0  0  0  0  0  0
    7.6070    3.6370   22.6080 C   0  0  0  0  0  0  0  0  0  0  0  0
    9.0690    1.6950   21.7640 C   0  0  0  0  0  0  0  0  0  0  0  0
   10.0220    1.0530   22.7960 C   0  0  0  0  0  0  0  0  0  0  0  0
   11.4110    1.6840   22.9590 C   0  0  0  0  0  0  0  0  0  0  0  0
   12.2440    1.0800   23.8860 C   0  0  0  0  0  0  0  0  0  0  0  0
   11.0950    0.3500   23.9050 C   0  0  0  0  0  0  0  0  0  0  0  0
   10.6410   -0.6680   24.5490 C   0  0  0  0  0  0  0  0  0  0  0  0
    9.7000   -0.1240   23.6200 C   0  0  0  0  0  0  0  0  0  0  0  0
    9.7740   -1.4700   24.7690 O   0  0  0  0  0  0  0  0  0  0  0  0
    9.3970   -1.8550   23.4440 C   0  0  1  0  0  0  0  0  0  0  0  0
    8.2170   -2.8330   23.4430 C   0  0  2  0  0  0  0  0  0  0  0  0
    6.8760   -2.3480   24.0460 C   0  0  0  0  0  0  0  0  0  0  0  0
    5.8520   -3.3650   23.7970 N   0  0  0  0  0  0  0  0  0  0  0  0
    5.1270   -3.2910   22.6170 C   0  0  0  0  0  0  0  0  0  0  0  0
    5.2670   -2.0280   21.8160 C   0  0  0  0  0  0  0  0  0  0  0  0
    4.4020   -4.2080   22.2290 O   0  0  0  0  0  0  0  0  0  0  0  0
    6.1810   -4.6450   24.4270 C   0  0  0  0  0  0  0  0  0  0  0  0
    7.5630   -5.1110   23.9590 C   0  0  0  0  0  0  0  0  0  0  0  0
    8.5730   -4.0970   24.0380 O   0  0  0  0  0  0  0  0  0  0  0  0
    9.3490   -0.5900   22.5260 C   0  0  0  0  0  0  0  0  0  0  0  0
    9.9990    0.6540   23.0160 O   0  0  0  0  0  0  0  0  0  0  0  0
    7.3660   -0.0570   20.9450 N   0  0  0  0  0  0  0  0  0  0  0  0
    7.3290   -1.3380   20.5670 C   0  0  0  0  0  0  0  0  0  0  0  0
  1  2  2  3
  1  3  1  0
  3  4  2  0
  4  5  1  0
  5  6  2  0
  6  7  1  0
  7  8  1  0
  8  9  1  6
  8 10  1  0
 10 11  1  0
 11 12  2  0
 12 13  1  0
 13 14  2  0
 14 15  1  0
 11 16  1  0
 15 16  2  0
 15 17  1  0
 17 18  1  0
 18 19  1  0
 19 20  1  1
 20 21  1  0
 21 22  1  0
 22 23  1  0
 22 24  2  0
 21 25  1  0
 25 26  1  0
 19 27  1  0
 26 27  1  0
 18 28  1  6
 14 29  1  0
 28 29  1  0
  6 30  1  0
  3 31  1  0
 30 31  2  0
M  END
