BEN-VAN-ed886787-10-chloroacetamide
     RDKit          3D

 26 27  0  0  0  0  0  0  0  0999 V2000
    7.3950   -3.5060   19.9730 C   0  0  0  0  0  0  0  0  0  0  0  0
    6.1060   -2.7910   19.6710 C   0  0  0  0  0  0  0  0  0  0  0  0
    5.1580   -3.3830   19.1450 O   0  0  0  0  0  0  0  0  0  0  0  0
    6.0480   -1.4440   19.9870 N   0  0  0  0  0  0  0  0  0  0  0  0
    7.0430   -0.3870   19.5810 C   0  0  0  0  0  0  0  0  0  0  0  0
    6.4440   -0.3630   18.3460 O   0  0  0  0  0  0  0  0  0  0  0  0
    7.2810   -0.8380   21.0690 C   0  0  0  0  0  0  0  0  0  0  0  0
    8.7010   -1.2750   21.1580 N   0  0  0  0  0  0  0  0  0  0  0  0
    9.4670   -1.0430   22.3980 C   0  0  0  0  0  0  0  0  0  0  0  0
    8.7910   -0.6020   23.6850 C   0  0  0  0  0  0  0  0  0  0  0  0
    9.8230   -0.4180   24.8150 C   0  0  0  0  0  0  0  0  0  0  0  0
    9.1840    0.0240   26.1160 C   0  0  0  0  0  0  0  0  0  0  0  0
   11.3280   -0.6510   24.6460 C   0  0  0  0  0  0  0  0  0  0  0  0
   11.8590   -1.0590   23.4110 C   0  0  0  0  0  0  0  0  0  0  0  0
   13.2280   -1.2540   23.2260 C   0  0  0  0  0  0  0  0  0  0  0  0
   13.7440   -0.4760   22.1570 C   0  0  0  0  0  0  0  0  0  0  0  0
   14.2700    0.8650   22.2570 N   0  0  0  0  0  0  0  0  0  0  0  0
   14.7260    1.7350   21.0320 C   0  0  0  0  0  0  0  0  0  0  0  0
   15.1450    3.1040   20.9090 N   0  0  0  0  0  0  0  0  0  0  0  0
   15.1660    4.0480   22.0110 C   0  0  0  0  0  0  0  0  0  0  0  0
   16.4530    3.9970   22.5660 C   0  0  0  0  0  0  0  0  0  0  0  0
   14.7240    1.0850   19.8550 C   0  0  0  0  0  0  0  0  0  0  0  0
   14.2240   -0.3380   19.7930 C   0  0  0  0  0  0  0  0  0  0  0  0
   13.7180   -1.1120   20.8910 C   0  0  0  0  0  0  0  0  0  0  0  0
   13.2530   -2.3560   20.7670 F   0  0  0  0  0  0  0  0  0  0  0  0
   11.0010   -1.2670   22.3030 C   0  0  0  0  0  0  0  0  0  0  0  0
  1  2  1  0
  2  3  2  0
  2  4  1  0
  4  5  1  0
  5  6  2  0
  5  7  1  0
  7  8  1  0
  8  9  1  0
  9 10  2  0
 10 11  1  0
 11 12  1  0
 11 13  2  0
 13 14  1  0
 14 15  1  0
 15 16  1  0
 16 17  2  0
 17 18  1  0
 18 19  1  0
 19 20  1  0
 20 21  1  0
 18 22  2  0
 22 23  1  0
 16 24  1  0
 23 24  2  0
 24 25  1  0
  9 26  1  0
 14 26  2  0
M  END
