BEN-VAN-c986b20b-7
     RDKit          3D

 27 29  0  0  0  0  0  0  0  0999 V2000
    7.2100    1.7150   24.4730 C   0  0  0  0  0  0  0  0  0  0  0  0
    8.3170    2.4720   23.7980 C   0  0  0  0  0  0  0  0  0  0  0  0
    9.4840    2.2790   24.1270 O   0  0  0  0  0  0  0  0  0  0  0  0
   10.0660    1.0620   23.8400 C   0  0  0  0  0  0  0  0  0  0  0  0
    9.4160   -0.2550   24.1000 C   0  0  0  0  0  0  0  0  0  0  0  0
   10.0430   -1.5280   23.7560 C   0  0  0  0  0  0  0  0  0  0  0  0
    9.3620   -2.6770   23.9680 C   0  0  0  0  0  0  0  0  0  0  0  0
    8.4660   -3.0050   22.9740 N   0  0  0  0  0  0  0  0  0  0  0  0
    7.1860   -3.5000   23.5060 C   0  0  0  0  0  0  0  0  0  0  0  0
    6.3130   -3.6390   22.3890 C   0  0  0  0  0  0  0  0  0  0  0  0
    6.3430   -2.5240   21.3860 N   0  0  0  0  0  0  0  0  0  0  0  0
    6.0240   -3.0230   20.0160 C   0  0  0  0  0  0  0  0  0  0  0  0
    6.4520   -2.0730   18.8820 C   0  0  0  0  0  0  0  0  0  0  0  0
    5.3990   -4.2900   19.7580 O   0  0  0  0  0  0  0  0  0  0  0  0
    7.2830   -1.5390   21.5540 C   0  0  0  0  0  0  0  0  0  0  0  0
    8.5210   -2.1030   21.8150 C   0  0  0  0  0  0  0  0  0  0  0  0
   11.2950   -1.5480   23.1960 C   0  0  0  0  0  0  0  0  0  0  0  0
   11.9420   -0.3420   22.9370 C   0  0  0  0  0  0  0  0  0  0  0  0
   13.4420   -0.6050   22.2320 Cl  0  0  0  0  0  0  0  0  0  0  0  0
   11.4200    0.9720   23.2080 C   0  0  0  0  0  0  0  0  0  0  0  0
   12.0360    2.2010   22.9240 C   0  0  0  0  0  0  0  0  0  0  0  0
   11.1480    3.2900   22.9680 C   0  0  0  0  0  0  0  0  0  0  0  0
   11.7410    4.6680   22.6670 C   0  0  0  0  0  0  0  0  0  0  0  0
   10.6950    5.7500   22.7510 C   0  0  0  0  0  0  0  0  0  0  0  0
   13.0500    4.8780   22.3630 N   0  0  0  0  0  0  0  0  0  0  0  0
   13.7810    3.7460   22.3570 C   0  0  0  0  0  0  0  0  0  0  0  0
   13.2870    2.3930   22.6370 N   0  0  0  0  0  0  0  0  0  0  0  0
  1  2  1  0
  2  3  1  0
  3  4  1  0
  4  5  2  0
  5  6  1  0
  6  7  1  0
  7  8  1  0
  8  9  1  0
  9 10  1  0
 10 11  1  0
 11 12  1  0
 12 13  1  0
 12 14  2  0
 11 15  1  0
  8 16  1  0
 15 16  1  0
  6 17  2  0
 17 18  1  0
 18 19  1  0
  4 20  1  0
 18 20  2  0
 20 21  1  0
 21 22  2  0
 22 23  1  0
 23 24  1  0
 23 25  2  0
 25 26  1  0
 21 27  1  0
 26 27  2  0
M  END
