BEN-VAN-ed886787-13-chloroacetamide
     RDKit          3D

 31 33  0  0  0  0  0  0  0  0999 V2000
    8.8060   -3.3400   19.8810 C   0  0  0  0  0  0  0  0  0  0  0  0
    7.6410   -2.3920   19.8260 C   0  0  0  0  0  0  0  0  0  0  0  0
    7.1040   -3.5180   19.2670 O   0  0  0  0  0  0  0  0  0  0  0  0
    8.4580   -1.1350   20.5190 C   0  0  0  0  0  0  0  0  0  0  0  0
    7.6460    0.0670   19.9800 C   0  0  0  0  0  0  0  0  0  0  0  0
    7.8840    1.4070   20.2930 C   0  0  0  0  0  0  0  0  0  0  0  0
    8.9270    1.7930   21.1690 C   0  0  0  0  0  0  0  0  0  0  0  0
    9.2130    3.0810   21.5510 N   0  0  0  0  0  0  0  0  0  0  0  0
    9.6050    3.3470   22.9440 C   0  0  0  0  0  0  0  0  0  0  0  0
   10.6140    2.4350   23.3860 C   0  0  0  0  0  0  0  0  0  0  0  0
    9.7110    0.8100   21.6770 N   0  0  0  0  0  0  0  0  0  0  0  0
    9.6160   -0.6730   21.4410 C   0  0  0  0  0  0  0  0  0  0  0  0
   10.8470   -1.2520   22.3460 C   0  0  0  0  0  0  0  0  0  0  0  0
   12.1320   -0.3130   22.7240 C   0  0  0  0  0  0  0  0  0  0  0  0
   11.2500   -0.1390   23.5290 C   0  0  0  0  0  0  0  0  0  0  0  0
   10.2040   -0.9870   23.0590 C   0  0  0  0  0  0  0  0  0  0  0  0
    9.3690   -1.8220   22.4690 N   0  0  0  0  0  0  0  0  0  0  0  0
    8.0350   -1.7360   22.6790 C   0  0  0  0  0  0  0  0  0  0  0  0
    7.4810   -0.6340   22.0100 C   0  0  0  0  0  0  0  0  0  0  0  0
    7.8670    0.4980   22.2400 O   0  0  0  0  0  0  0  0  0  0  0  0
    6.4360   -0.9860   21.1090 N   0  0  0  0  0  0  0  0  0  0  0  0
    6.1020   -0.1420   19.9370 C   0  0  0  0  0  0  0  0  0  0  0  0
    4.9900    0.6730   20.0850 C   0  0  0  0  0  0  0  0  0  0  0  0
    4.6120    1.4860   19.0180 C   0  0  0  0  0  0  0  0  0  0  0  0
    5.3630    1.4690   17.8390 C   0  0  0  0  0  0  0  0  0  0  0  0
    6.4530    0.6960   17.6670 N   0  0  0  0  0  0  0  0  0  0  0  0
    6.8070   -0.1030   18.7140 C   0  0  0  0  0  0  0  0  0  0  0  0
   10.8190   -1.7120   21.6950 C   0  0  0  0  0  0  0  0  0  0  0  0
   12.1190   -1.7620   20.7970 C   0  0  0  0  0  0  0  0  0  0  0  0
   12.1260   -1.0000   21.8100 C   0  0  0  0  0  0  0  0  0  0  0  0
   13.7040   -0.5700   21.3540 Cl  0  0  0  0  0  0  0  0  0  0  0  0
  1  2  1  0
  2  3  2  0
  2  4  1  0
  4  5  2  0
  5  6  1  0
  6  7  2  0
  7  8  1  0
  8  9  1  0
  9 10  1  0
  7 11  1  0
  4 12  1  0
 11 12  2  0
 12 13  1  0
 13 14  1  0
 14 15  2  0
 15 16  1  0
 16 17  1  0
 17 18  1  0
 18 19  1  0
 19 20  2  0
 19 21  1  0
 21 22  1  0
 22 23  2  0
 23 24  1  0
 24 25  2  0
 25 26  1  0
 22 27  1  0
 26 27  2  0
 16 28  2  0
 28 29  1  0
 14 30  1  0
 29 30  2  0
 30 31  1  0
M  END
