BEN-VAN-77cef4f8-4-acrylamide
     RDKit          3D

 29 31  0  0  0  0  0  0  0  0999 V2000
    6.2490   -3.9280   19.8900 C   0  0  0  0  0  0  0  0  0  0  0  0
    6.1380   -3.2730   21.2690 C   0  0  0  0  0  0  0  0  0  0  0  0
    4.7350   -3.4070   21.8420 C   0  0  0  0  0  0  0  0  0  0  0  0
    3.8180   -3.6730   22.6170 O   0  0  0  0  0  0  0  0  0  0  0  0
    5.4490   -3.9240   22.9120 N   0  0  0  0  0  0  0  0  0  0  0  0
    5.9560   -5.2800   22.8240 C   0  0  0  0  0  0  0  0  0  0  0  0
    7.0200   -5.6480   23.6680 C   0  0  0  0  0  0  0  0  0  0  0  0
    8.0460   -4.6580   23.8460 O   0  0  0  0  0  0  0  0  0  0  0  0
    7.6360   -3.3750   23.3860 C   0  0  2  0  0  0  0  0  0  0  0  0
    8.5330   -2.4090   23.7450 C   0  0  0  0  0  0  0  0  0  0  0  0
    8.2980   -1.5400   24.8380 C   0  0  0  0  0  0  0  0  0  0  0  0
    9.2650   -0.5590   25.1650 C   0  0  0  0  0  0  0  0  0  0  0  0
   10.5130   -0.5320   24.2690 C   0  0  0  0  0  0  0  0  0  0  0  0
   11.4710    0.3630   24.5060 F   0  0  0  0  0  0  0  0  0  0  0  0
   10.6540   -1.5270   23.0940 C   0  0  0  0  0  0  0  0  0  0  0  0
   11.7460   -1.5420   22.2310 C   0  0  0  0  0  0  0  0  0  0  0  0
   12.1740   -0.4300   21.9880 O   0  0  0  0  0  0  0  0  0  0  0  0
   13.4870   -0.3460   22.3320 C   0  0  2  0  0  0  0  0  0  0  0  0
   13.3480   -0.7950   23.6700 C   0  0  0  0  0  0  0  0  0  0  0  0
   14.0040    1.0880   22.2970 N   0  0  0  0  0  0  0  0  0  0  0  0
   14.4230    1.9210   21.1350 C   0  0  0  0  0  0  0  0  0  0  0  0
   14.8810    1.4410   19.8940 C   0  0  0  0  0  0  0  0  0  0  0  0
   15.2580    2.2560   18.8310 C   0  0  0  0  0  0  0  0  0  0  0  0
   15.1800    3.7350   18.9760 C   0  0  0  0  0  0  0  0  0  0  0  0
   14.7530    4.3160   20.0870 N   0  0  0  0  0  0  0  0  0  0  0  0
   14.3710    3.3870   21.1650 C   0  0  0  0  0  0  0  0  0  0  0  0
   13.8150    4.3040   22.5130 Cl  0  0  0  0  0  0  0  0  0  0  0  0
    9.6380   -2.3970   22.9280 C   0  0  0  0  0  0  0  0  0  0  0  0
    6.2140   -3.0810   23.8050 C   0  0  0  0  0  0  0  0  0  0  0  0
  1  2  1  0
  2  3  1  0
  3  4  2  0
  3  5  1  0
  5  6  1  0
  6  7  1  0
  7  8  1  0
  8  9  1  0
  9 10  1  1
 10 11  2  0
 11 12  1  0
 12 13  2  0
 13 14  1  0
 13 15  1  0
 15 16  1  0
 16 17  1  0
 17 18  1  0
 18 19  1  1
 18 20  1  0
 20 21  1  0
 21 22  2  0
 22 23  1  0
 23 24  2  0
 24 25  1  0
 21 26  1  0
 25 26  2  0
 26 27  1  0
 10 28  1  0
 15 28  2  0
  5 29  1  0
  9 29  1  0
M  END
