BEN-VAN-77cef4f8-5-chloroacetamide
     RDKit          3D

 29 31  0  0  0  0  0  0  0  0999 V2000
    6.1190   -5.2810   20.1280 C   0  0  0  0  0  0  0  0  0  0  0  0
    6.1240   -3.7890   20.1390 C   0  0  0  0  0  0  0  0  0  0  0  0
    5.7660   -3.1790   19.1440 O   0  0  0  0  0  0  0  0  0  0  0  0
    6.5290   -3.1390   21.3200 N   0  0  0  0  0  0  0  0  0  0  0  0
    5.4960   -2.8190   22.3550 C   0  0  0  0  0  0  0  0  0  0  0  0
    6.0460   -2.7970   23.7680 C   0  0  0  0  0  0  0  0  0  0  0  0
    7.2420   -2.0210   23.8170 O   0  0  0  0  0  0  0  0  0  0  0  0
    8.2420   -2.4490   22.8690 C   0  0  2  0  0  0  0  0  0  0  0  0
    9.3500   -1.6150   23.0390 C   0  0  0  0  0  0  0  0  0  0  0  0
    9.1590   -0.2470   23.3060 C   0  0  0  0  0  0  0  0  0  0  0  0
   10.2370    0.6360   23.4840 C   0  0  0  0  0  0  0  0  0  0  0  0
    9.9840    1.9310   23.7350 F   0  0  0  0  0  0  0  0  0  0  0  0
   11.5630    0.1800   23.4030 C   0  0  0  0  0  0  0  0  0  0  0  0
   12.5800    1.0190   23.5740 F   0  0  0  0  0  0  0  0  0  0  0  0
   11.7810   -1.2910   23.1190 C   0  0  0  0  0  0  0  0  0  0  0  0
   13.1940   -1.8660   23.0200 C   0  0  0  0  0  0  0  0  0  0  0  0
   14.0580   -1.0920   22.1520 O   0  0  0  0  0  0  0  0  0  0  0  0
   13.6590   -0.8190   20.8110 C   0  0  2  0  0  0  0  0  0  0  0  0
   12.6380   -1.7780   20.8900 C   0  0  0  0  0  0  0  0  0  0  0  0
   14.6040   -1.0730   19.7130 N   0  0  0  0  0  0  0  0  0  0  0  0
   15.6280   -0.4830   18.7020 C   0  0  0  0  0  0  0  0  0  0  0  0
   17.0610   -0.6500   18.5520 C   0  0  0  0  0  0  0  0  0  0  0  0
   17.8470   -0.1280   17.6130 C   0  0  0  0  0  0  0  0  0  0  0  0
   17.4930    0.6680   16.5750 C   0  0  0  0  0  0  0  0  0  0  0  0
   16.1570    0.9000   16.6360 N   0  0  0  0  0  0  0  0  0  0  0  0
   15.4090    0.3480   17.6160 C   0  0  0  0  0  0  0  0  0  0  0  0
   14.0380    0.9100   17.2080 Cl  0  0  0  0  0  0  0  0  0  0  0  0
   10.6520   -2.1350   22.9480 C   0  0  0  0  0  0  0  0  0  0  0  0
    7.7930   -2.3540   21.5410 C   0  0  0  0  0  0  0  0  0  0  0  0
  1  2  1  0
  2  3  2  0
  2  4  1  0
  4  5  1  0
  5  6  1  0
  6  7  1  0
  7  8  1  0
  8  9  1  6
  9 10  2  0
 10 11  1  0
 11 12  1  0
 11 13  2  0
 13 14  1  0
 13 15  1  0
 15 16  1  0
 16 17  1  0
 17 18  1  0
 18 19  1  6
 18 20  1  0
 20 21  1  0
 21 22  2  0
 22 23  1  0
 23 24  2  0
 24 25  1  0
 21 26  1  0
 25 26  2  0
 26 27  1  0
  9 28  1  0
 15 28  2  0
  4 29  1  0
  8 29  1  0
M  END
