BEN-VAN-77cef4f8-13-vinylsulfonamide
     RDKit          3D

 34 37  0  0  0  0  0  0  0  0999 V2000
    7.9810   -3.5310   20.1330 C   0  0  0  0  0  0  0  0  0  0  0  0
    6.5390   -3.1830   19.7410 C   0  0  0  0  0  0  0  0  0  0  0  0
    5.5960   -4.0400   20.9570 S   0  0  0  0  0  0  0  0  0  0  0  0
    5.1250   -5.2270   20.3200 O   0  0  0  0  0  0  0  0  0  0  0  0
    4.6330   -3.1970   21.5880 O   0  0  0  0  0  0  0  0  0  0  0  0
    6.9990   -4.1550   21.9820 C   0  0  0  0  0  0  0  0  0  0  0  0
    7.4210   -2.9470   22.4930 C   0  0  0  0  0  0  0  0  0  0  0  0
    8.5540   -2.8900   23.2580 C   0  0  0  0  0  0  0  0  0  0  0  0
    9.2570   -4.0330   23.5120 C   0  0  0  0  0  0  0  0  0  0  0  0
   10.4340   -3.9390   24.2340 N   0  0  0  0  0  0  0  0  0  0  0  0
   11.3820   -2.9080   23.7190 C   0  0  2  0  0  0  0  0  0  0  0  0
   12.0860   -2.1270   24.8280 C   0  0  0  0  0  0  0  0  0  0  0  0
   10.6260   -1.9440   22.7670 C   0  0  0  0  0  0  0  0  0  0  0  0
   11.0310   -0.4870   22.9570 C   0  0  0  0  0  0  0  0  0  0  0  0
   12.5140    0.0050   22.7430 C   0  0  0  0  0  0  0  0  0  0  0  0
   12.9310    1.4640   22.9430 C   0  0  0  0  0  0  0  0  0  0  0  0
   11.7940    1.9900   23.2930 C   0  0  0  0  0  0  0  0  0  0  0  0
   11.5240    0.8810   23.1200 C   0  0  0  0  0  0  0  0  0  0  0  0
   10.3250    0.6880   23.3340 C   0  0  0  0  0  0  0  0  0  0  0  0
   10.8440   -0.0370   23.0640 O   0  0  0  0  0  0  0  0  0  0  0  0
    9.6820    0.8850   22.8590 C   0  0  1  0  0  0  0  0  0  0  0  0
    8.3190    0.1580   23.0050 C   0  0  2  0  0  0  0  0  0  0  0  0
    7.8620   -0.4330   21.8200 C   0  0  0  0  0  0  0  0  0  0  0  0
    6.8090    0.3790   21.1970 N   0  0  0  0  0  0  0  0  0  0  0  0
    6.6510    0.5270   19.8320 C   0  0  0  0  0  0  0  0  0  0  0  0
    7.0930   -0.5020   19.0160 C   0  0  0  0  0  0  0  0  0  0  0  0
    6.1440    1.5290   19.3380 O   0  0  0  0  0  0  0  0  0  0  0  0
    5.6330    0.5910   22.0450 C   0  0  0  0  0  0  0  0  0  0  0  0
    6.0160    0.8410   23.3550 C   0  0  0  0  0  0  0  0  0  0  0  0
    7.3990    1.1930   23.4360 O   0  0  0  0  0  0  0  0  0  0  0  0
    9.7660    2.2370   23.7360 C   0  0  0  0  0  0  0  0  0  0  0  0
   11.0360    2.9960   23.6570 O   0  0  0  0  0  0  0  0  0  0  0  0
    8.8480   -5.2470   23.0640 N   0  0  0  0  0  0  0  0  0  0  0  0
    7.7210   -5.2970   22.2970 C   0  0  0  0  0  0  0  0  0  0  0  0
  1  2  1  0
  3  2  1  0
  3  4  2  0
  3  5  2  0
  3  6  1  0
  6  7  2  0
  7  8  1  0
  8  9  2  0
  9 10  1  0
 10 11  1  0
 11 12  1  1
 11 13  1  0
 13 14  1  0
 14 15  2  0
 15 16  1  0
 16 17  2  0
 17 18  1  0
 14 19  1  0
 18 19  2  0
 18 20  1  0
 20 21  1  0
 21 22  1  0
 22 23  1  6
 23 24  1  0
 24 25  1  0
 25 26  1  0
 25 27  2  0
 24 28  1  0
 28 29  1  0
 22 30  1  0
 29 30  1  0
 21 31  1  1
 17 32  1  0
 31 32  1  0
  9 33  1  0
  6 34  1  0
 33 34  2  0
M  END
