BEN-VAN-ed886787-13-acrylamide
     RDKit          3D

 32 34  0  0  0  0  0  0  0  0999 V2000
    6.2510   -5.2500   20.3050 C   0  0  0  0  0  0  0  0  0  0  0  0
    6.5260   -5.3470   21.8020 C   0  0  0  0  0  0  0  0  0  0  0  0
    6.0740   -4.0610   22.5380 C   0  0  0  0  0  0  0  0  0  0  0  0
    5.0390   -4.2370   21.8020 O   0  0  0  0  0  0  0  0  0  0  0  0
    7.4460   -4.2810   23.1770 C   0  0  0  0  0  0  0  0  0  0  0  0
    6.2450   -5.1460   23.2940 C   0  0  0  0  0  0  0  0  0  0  0  0
    4.8230   -4.7970   22.6290 C   0  0  0  0  0  0  0  0  0  0  0  0
    4.8290   -3.3520   21.7640 C   0  0  0  0  0  0  0  0  0  0  0  0
    5.4930   -2.1660   21.2610 N   0  0  0  0  0  0  0  0  0  0  0  0
    5.1610   -1.9090   19.7810 C   0  0  0  0  0  0  0  0  0  0  0  0
    6.3530   -1.5440   18.9200 C   0  0  0  0  0  0  0  0  0  0  0  0
    6.0620   -3.6320   22.3440 N   0  0  0  0  0  0  0  0  0  0  0  0
    7.4110   -3.1640   22.5200 C   0  0  0  0  0  0  0  0  0  0  0  0
    8.0300   -1.9930   22.0580 C   0  0  0  0  0  0  0  0  0  0  0  0
    9.3920   -1.6850   22.2350 C   0  0  0  0  0  0  0  0  0  0  0  0
    9.7090   -2.6500   23.2840 C   0  0  0  0  0  0  0  0  0  0  0  0
   10.9360   -1.8850   22.9880 C   0  0  0  0  0  0  0  0  0  0  0  0
   10.7940   -0.8780   21.9980 N   0  0  0  0  0  0  0  0  0  0  0  0
   10.0300    0.1660   22.4270 C   0  0  0  0  0  0  0  0  0  0  0  0
    9.0820    0.7550   21.5680 C   0  0  0  0  0  0  0  0  0  0  0  0
    9.1480    1.9770   21.4710 O   0  0  0  0  0  0  0  0  0  0  0  0
    8.2140   -0.0810   20.8890 N   0  0  0  0  0  0  0  0  0  0  0  0
    7.0210    0.5070   20.2470 C   0  0  0  0  0  0  0  0  0  0  0  0
    5.6400    0.5530   20.7880 C   0  0  0  0  0  0  0  0  0  0  0  0
    4.4410    1.1990   20.0110 C   0  0  0  0  0  0  0  0  0  0  0  0
    4.5370    1.8950   18.5370 C   0  0  0  0  0  0  0  0  0  0  0  0
    5.5140    1.4320   19.0420 N   0  0  0  0  0  0  0  0  0  0  0  0
    6.6830    1.0980   19.1940 C   0  0  0  0  0  0  0  0  0  0  0  0
   12.5490   -1.9020   23.5630 C   0  0  0  0  0  0  0  0  0  0  0  0
   11.8960   -1.2280   22.6820 C   0  0  0  0  0  0  0  0  0  0  0  0
   10.5670   -1.7870   22.7490 C   0  0  0  0  0  0  0  0  0  0  0  0
   10.6570   -3.0050   23.9640 Cl  0  0  0  0  0  0  0  0  0  0  0  0
  1  2  1  0
  2  3  1  0
  3  4  2  0
  3  5  1  0
  5  6  2  0
  6  7  1  0
  7  8  2  0
  8  9  1  0
  9 10  1  0
 10 11  1  0
  8 12  1  0
  5 13  1  0
 12 13  2  0
 13 14  1  0
 14 15  1  0
 15 16  2  0
 16 17  1  0
 17 18  1  0
 18 19  1  0
 19 20  1  0
 20 21  2  0
 20 22  1  0
 22 23  1  0
 23 24  2  0
 24 25  1  0
 25 26  2  0
 26 27  1  0
 23 28  1  0
 27 28  2  0
 17 29  2  0
 29 30  1  0
 15 31  1  0
 30 31  2  0
 31 32  1  0
M  END
