BEN-VAN-ed886787-10-nitrile
     RDKit          3D

 25 26  0  0  0  0  0  0  0  0999 V2000
    6.9460   -3.4000   19.6790 C   0  0  0  0  0  0  0  0  0  0  0  0
    5.9330   -4.1890   19.8100 N   0  0  0  0  0  0  0  0  0  0  0  0
    7.1000   -2.2320   20.3980 N   0  0  0  0  0  0  0  0  0  0  0  0
    7.1990   -0.9120   19.7460 C   0  0  0  0  0  0  0  0  0  0  0  0
    7.3830    0.2840   19.5480 O   0  0  0  0  0  0  0  0  0  0  0  0
    7.6320   -0.5990   21.1970 C   0  0  0  0  0  0  0  0  0  0  0  0
    8.7930   -1.4030   21.6850 N   0  0  0  0  0  0  0  0  0  0  0  0
    9.9830   -0.7570   22.0280 C   0  0  0  0  0  0  0  0  0  0  0  0
   11.1610   -1.4760   21.9880 C   0  0  0  0  0  0  0  0  0  0  0  0
   12.3770   -0.7840   22.3400 C   0  0  0  0  0  0  0  0  0  0  0  0
   13.3730   -1.6630   22.2180 C   0  0  0  0  0  0  0  0  0  0  0  0
   12.5320    0.5740   22.7380 C   0  0  0  0  0  0  0  0  0  0  0  0
   11.2190    1.3370   22.7690 C   0  0  0  0  0  0  0  0  0  0  0  0
   10.8910    2.7810   23.1430 C   0  0  0  0  0  0  0  0  0  0  0  0
    9.8710    2.1180   23.9590 C   0  0  0  0  0  0  0  0  0  0  0  0
   10.4870    1.0020   24.3410 N   0  0  0  0  0  0  0  0  0  0  0  0
    9.9070    0.1000   25.0680 C   0  0  0  0  0  0  0  0  0  0  0  0
   10.6890   -1.0060   25.3730 N   0  0  0  0  0  0  0  0  0  0  0  0
   12.0740   -0.9860   24.8800 C   0  0  0  0  0  0  0  0  0  0  0  0
   12.5660   -2.2950   24.8390 C   0  0  0  0  0  0  0  0  0  0  0  0
    8.5930    0.2550   25.4950 C   0  0  0  0  0  0  0  0  0  0  0  0
    7.9530    1.4380   25.0900 C   0  0  0  0  0  0  0  0  0  0  0  0
    8.5680    2.4260   24.3030 C   0  0  0  0  0  0  0  0  0  0  0  0
    7.9330    3.5450   23.9270 F   0  0  0  0  0  0  0  0  0  0  0  0
    9.9630    0.5710   22.3910 C   0  0  0  0  0  0  0  0  0  0  0  0
  1  2  2  3
  1  3  1  0
  3  4  1  0
  4  5  2  0
  4  6  1  0
  6  7  1  0
  7  8  1  0
  8  9  2  0
  9 10  1  0
 10 11  1  0
 10 12  2  0
 12 13  1  0
 13 14  1  0
 14 15  1  0
 15 16  2  0
 16 17  1  0
 17 18  1  0
 18 19  1  0
 19 20  1  0
 17 21  2  0
 21 22  1  0
 15 23  1  0
 22 23  2  0
 23 24  1  0
  8 25  1  0
 13 25  2  0
M  END
