BEN-VAN-ed886787-16
     RDKit          3D

 30 32  0  0  0  0  0  0  0  0999 V2000
   16.0300    2.2320   19.1260 C   0  0  0  0  0  0  0  0  0  0  0  0
   15.8540    3.5290   19.9540 C   0  0  0  0  0  0  0  0  0  0  0  0
   15.3950    3.5080   21.3090 N   0  0  0  0  0  0  0  0  0  0  0  0
   14.2830    2.6730   21.9400 C   0  0  0  0  0  0  0  0  0  0  0  0
   13.1280    3.4560   22.5980 C   0  0  0  0  0  0  0  0  0  0  0  0
   12.0860    2.7780   23.1790 C   0  0  0  0  0  0  0  0  0  0  0  0
   12.0530    1.3560   23.2190 C   0  0  0  0  0  0  0  0  0  0  0  0
   11.0340    0.7270   23.8060 F   0  0  0  0  0  0  0  0  0  0  0  0
   13.1350    0.7250   22.6230 C   0  0  0  0  0  0  0  0  0  0  0  0
   13.1410   -0.7090   22.6800 C   0  0  0  0  0  0  0  0  0  0  0  0
   11.7130   -1.2400   22.8090 C   0  0  0  0  0  0  0  0  0  0  0  0
   10.8400   -1.2420   24.0820 C   0  0  0  0  0  0  0  0  0  0  0  0
    9.3400   -1.7860   24.2770 C   0  0  0  0  0  0  0  0  0  0  0  0
    8.0220   -2.3140   24.2660 N   0  0  0  0  0  0  0  0  0  0  0  0
    6.7880   -1.4240   24.1700 C   0  0  0  0  0  0  0  0  0  0  0  0
    6.8430   -0.7060   22.9650 C   0  0  0  0  0  0  0  0  0  0  0  0
    7.0430    0.5060   23.0120 O   0  0  0  0  0  0  0  0  0  0  0  0
    6.6570   -1.4130   21.8040 N   0  0  0  0  0  0  0  0  0  0  0  0
    6.3180   -0.7150   20.6940 C   0  0  0  0  0  0  0  0  0  0  0  0
    5.1680    0.0490   20.8180 C   0  0  0  0  0  0  0  0  0  0  0  0
    4.7200    0.8200   19.7370 C   0  0  0  0  0  0  0  0  0  0  0  0
    5.4090    0.8430   18.5190 C   0  0  0  0  0  0  0  0  0  0  0  0
    5.0210    1.5670   17.4780 F   0  0  0  0  0  0  0  0  0  0  0  0
    6.6090    0.0300   18.4120 N   0  0  0  0  0  0  0  0  0  0  0  0
    7.0130   -0.7080   19.4920 C   0  0  0  0  0  0  0  0  0  0  0  0
    8.9980   -2.2910   22.9360 C   0  0  0  0  0  0  0  0  0  0  0  0
    9.6990   -2.3400   21.7260 C   0  0  0  0  0  0  0  0  0  0  0  0
   10.9940   -1.7760   21.8980 C   0  0  0  0  0  0  0  0  0  0  0  0
   10.1080   -1.7430   23.3530 Cl  0  0  0  0  0  0  0  0  0  0  0  0
   14.2010    1.3340   21.9940 N   0  0  0  0  0  0  0  0  0  0  0  0
  1  2  1  0
  2  3  1  0
  3  4  1  0
  4  5  2  0
  5  6  1  0
  6  7  2  0
  7  8  1  0
  7  9  1  0
  9 10  1  0
 10 11  1  0
 11 12  2  0
 12 13  1  0
 13 14  1  0
 14 15  1  0
 15 16  1  0
 16 17  2  0
 16 18  1  0
 18 19  1  0
 19 20  2  0
 20 21  1  0
 21 22  2  0
 22 23  1  0
 22 24  1  0
 19 25  1  0
 24 25  2  0
 13 26  2  0
 26 27  1  0
 11 28  1  0
 27 28  2  0
 28 29  1  0
  4 30  1  0
  9 30  2  0
M  END
