BEN-DND-031a96cc-7
     RDKit          3D

 27 29  0  0  0  0  0  0  0  0999 V2000
    6.7930   -2.4170   25.9760 N   0  0  0  0  0  0  0  0  0  0  0  0
    5.9820   -3.2060   25.1680 C   0  0  0  0  0  0  0  0  0  0  0  0
    4.6340   -3.4190   25.5530 O   0  0  0  0  0  0  0  0  0  0  0  0
    6.5870   -3.7970   23.9170 C   0  0  0  0  0  0  0  0  0  0  0  0
    5.6960   -4.7890   23.1870 C   0  0  0  0  0  0  0  0  0  0  0  0
    6.2360   -5.2390   21.9850 C   0  0  0  0  0  0  0  0  0  0  0  0
    6.7180   -4.1050   21.1720 N   0  0  0  0  0  0  0  0  0  0  0  0
    5.9790   -3.4140   20.2270 C   0  0  0  0  0  0  0  0  0  0  0  0
    6.2490   -2.0530   20.0640 C   0  0  0  0  0  0  0  0  0  0  0  0
    7.2090   -1.3080   20.7730 C   0  0  0  0  0  0  0  0  0  0  0  0
    8.1370   -0.2050   21.3460 C   0  0  0  0  0  0  0  0  0  0  0  0
    8.1780    1.0820   20.7200 O   0  0  0  0  0  0  0  0  0  0  0  0
    8.8780   -0.6870   22.5290 N   0  0  0  0  0  0  0  0  0  0  0  0
   10.2900   -0.2510   22.6190 C   0  0  0  0  0  0  0  0  0  0  0  0
   11.3900   -1.2930   22.4120 C   0  0  0  0  0  0  0  0  0  0  0  0
   12.8570   -0.9150   22.4960 C   0  0  0  0  0  0  0  0  0  0  0  0
   13.1640    0.5390   22.7910 C   0  0  0  0  0  0  0  0  0  0  0  0
   12.0490    1.5480   22.9890 C   0  0  0  0  0  0  0  0  0  0  0  0
   10.5860    1.0870   22.8920 C   0  0  0  0  0  0  0  0  0  0  0  0
    6.5760   -0.3720   19.9170 C   0  0  0  0  0  0  0  0  0  0  0  0
    5.4190    0.3670   20.3040 C   0  0  0  0  0  0  0  0  0  0  0  0
    4.7940    1.2720   19.4170 C   0  0  0  0  0  0  0  0  0  0  0  0
    5.3250    1.4390   18.1510 C   0  0  0  0  0  0  0  0  0  0  0  0
    6.4580    0.7210   17.7780 N   0  0  0  0  0  0  0  0  0  0  0  0
    7.0540   -0.1550   18.6440 C   0  0  0  0  0  0  0  0  0  0  0  0
    7.5930   -3.2890   21.8590 C   0  0  0  0  0  0  0  0  0  0  0  0
    6.9790   -2.6880   22.9550 C   0  0  0  0  0  0  0  0  0  0  0  0
  1  2  1  0
  2  3  2  0
  2  4  1  0
  4  5  1  0
  5  6  1  0
  6  7  1  0
  7  8  1  0
  8  9  1  0
  9 10  2  3
 10 11  1  0
 11 12  2  0
 11 13  1  0
 13 14  1  0
 14 15  2  0
 15 16  1  0
 16 17  2  0
 17 18  1  0
 14 19  1  0
 18 19  2  0
 10 20  1  0
 20 21  2  0
 21 22  1  0
 22 23  2  0
 23 24  1  0
 20 25  1  0
 24 25  2  0
  7 26  1  0
  4 27  1  0
 26 27  1  0
M  END
