BEN-VAN-c986b20b-8
     RDKit          3D

 27 29  0  0  0  0  0  0  0  0999 V2000
   12.6150    5.8350   23.5700 C   0  0  0  0  0  0  0  0  0  0  0  0
   13.3400    4.6310   23.0410 C   0  0  0  0  0  0  0  0  0  0  0  0
   12.6490    3.2620   23.1070 C   0  0  0  0  0  0  0  0  0  0  0  0
   13.3200    1.9940   22.5740 C   0  0  0  0  0  0  0  0  0  0  0  0
   12.5320    0.7180   22.7690 C   0  0  0  0  0  0  0  0  0  0  0  0
   12.8190   -0.5650   22.3320 C   0  0  0  0  0  0  0  0  0  0  0  0
   11.9550   -1.6430   22.6000 C   0  0  0  0  0  0  0  0  0  0  0  0
   10.7560   -1.4440   23.3380 C   0  0  0  0  0  0  0  0  0  0  0  0
    9.7850   -2.5610   23.6310 C   0  0  0  0  0  0  0  0  0  0  0  0
    8.4320   -2.3800   23.4460 N   0  0  0  0  0  0  0  0  0  0  0  0
    7.6770   -3.6460   23.3600 C   0  0  0  0  0  0  0  0  0  0  0  0
    6.4930   -3.7740   22.3950 C   0  0  0  0  0  0  0  0  0  0  0  0
    6.2480   -2.6640   21.6550 N   0  0  0  0  0  0  0  0  0  0  0  0
    5.7750   -2.8170   20.2780 C   0  0  0  0  0  0  0  0  0  0  0  0
    5.3410   -3.8910   19.8340 O   0  0  0  0  0  0  0  0  0  0  0  0
    5.8870   -1.6280   19.5520 C   0  0  0  0  0  0  0  0  0  0  0  0
    4.9640   -0.6780   19.7550 F   0  0  0  0  0  0  0  0  0  0  0  0
    5.8930   -1.8560   18.2240 F   0  0  0  0  0  0  0  0  0  0  0  0
    7.0720   -0.9960   19.7940 F   0  0  0  0  0  0  0  0  0  0  0  0
    6.7660   -1.5090   22.1660 C   0  0  0  0  0  0  0  0  0  0  0  0
    8.1690   -1.6350   22.3110 C   0  0  0  0  0  0  0  0  0  0  0  0
   10.4360   -0.1580   23.8150 C   0  0  0  0  0  0  0  0  0  0  0  0
   11.3400    0.8240   23.4970 C   0  0  0  0  0  0  0  0  0  0  0  0
   10.9810    2.0250   23.9660 F   0  0  0  0  0  0  0  0  0  0  0  0
   14.5710    2.2190   22.0020 N   0  0  0  0  0  0  0  0  0  0  0  0
   15.1380    3.6120   22.0210 C   0  0  0  0  0  0  0  0  0  0  0  0
   14.5820    4.7600   22.5050 N   0  0  0  0  0  0  0  0  0  0  0  0
  1  2  1  0
  2  3  2  0
  3  4  1  0
  4  5  1  0
  5  6  2  0
  6  7  1  0
  7  8  2  0
  8  9  1  0
  9 10  1  0
 10 11  1  0
 11 12  1  0
 12 13  1  0
 13 14  1  0
 14 15  2  0
 14 16  1  0
 16 17  1  0
 16 18  1  0
 16 19  1  0
 13 20  1  0
 10 21  1  0
 20 21  1  0
  8 22  1  0
  5 23  1  0
 22 23  2  0
 23 24  1  0
  4 25  2  0
 25 26  1  0
  2 27  1  0
 26 27  2  0
M  END
