BEN-VAN-ed886787-18
     RDKit          3D

 30 32  0  0  0  0  0  0  0  0999 V2000
    9.7330   -5.7750   25.6990 C   0  0  0  0  0  0  0  0  0  0  0  0
    8.9770   -5.8260   24.4070 C   0  0  0  0  0  0  0  0  0  0  0  0
    8.5860   -4.6230   23.9410 N   0  0  0  0  0  0  0  0  0  0  0  0
    7.3420   -4.1270   24.5320 C   0  0  0  0  0  0  0  0  0  0  0  0
    6.2620   -5.1760   24.7690 C   0  0  0  0  0  0  0  0  0  0  0  0
    5.0750   -4.7820   25.3270 C   0  0  0  0  0  0  0  0  0  0  0  0
    4.8460   -3.4160   25.6770 C   0  0  0  0  0  0  0  0  0  0  0  0
    3.6870   -3.0170   26.2250 F   0  0  0  0  0  0  0  0  0  0  0  0
    5.8940   -2.5430   25.4120 C   0  0  0  0  0  0  0  0  0  0  0  0
    5.6160   -1.1900   25.7660 C   0  0  0  0  0  0  0  0  0  0  0  0
    4.9350   -0.6090   24.5090 C   0  0  0  0  0  0  0  0  0  0  0  0
    5.8100   -0.5630   23.2500 C   0  0  0  0  0  0  0  0  0  0  0  0
    5.2130   -0.0090   21.9900 C   0  0  0  0  0  0  0  0  0  0  0  0
    5.8830    0.1010   20.7560 N   0  0  0  0  0  0  0  0  0  0  0  0
    7.3210   -0.3360   20.4810 C   0  0  0  0  0  0  0  0  0  0  0  0
    8.2200    0.3350   21.3340 C   0  0  0  0  0  0  0  0  0  0  0  0
    8.6220    1.4660   21.0320 O   0  0  0  0  0  0  0  0  0  0  0  0
    8.6400   -0.3260   22.4540 N   0  0  0  0  0  0  0  0  0  0  0  0
    9.9560   -0.2220   22.6900 C   0  0  0  0  0  0  0  0  0  0  0  0
   10.3130    0.7170   23.6460 C   0  0  0  0  0  0  0  0  0  0  0  0
   11.6610    0.9000   23.9350 C   0  0  0  0  0  0  0  0  0  0  0  0
   12.6370    0.1620   23.2880 C   0  0  0  0  0  0  0  0  0  0  0  0
   12.2370   -0.7650   22.3500 C   0  0  0  0  0  0  0  0  0  0  0  0
   13.3190   -1.7330   21.4860 Cl  0  0  0  0  0  0  0  0  0  0  0  0
   10.9190   -0.9540   22.0540 C   0  0  0  0  0  0  0  0  0  0  0  0
    3.7520    0.4800   22.0300 C   0  0  0  0  0  0  0  0  0  0  0  0
    2.9810    0.3810   23.3500 C   0  0  0  0  0  0  0  0  0  0  0  0
    3.5960   -0.1500   24.5100 C   0  0  0  0  0  0  0  0  0  0  0  0
    2.6090   -0.2030   25.9270 Cl  0  0  0  0  0  0  0  0  0  0  0  0
    7.1110   -2.8520   24.8640 N   0  0  0  0  0  0  0  0  0  0  0  0
  1  2  1  0
  2  3  1  0
  3  4  1  0
  4  5  2  0
  5  6  1  0
  6  7  2  0
  7  8  1  0
  7  9  1  0
  9 10  1  0
 10 11  1  0
 11 12  2  0
 12 13  1  0
 13 14  1  0
 14 15  1  0
 15 16  1  0
 16 17  2  0
 16 18  1  0
 18 19  1  0
 19 20  2  0
 20 21  1  0
 21 22  2  0
 22 23  1  0
 23 24  1  0
 19 25  1  0
 23 25  2  0
 13 26  2  0
 26 27  1  0
 11 28  1  0
 27 28  2  0
 28 29  1  0
  4 30  1  0
  9 30  2  0
M  END
