BEN-DND-362d364a-6-nitrile
     RDKit          3D

 18 18  0  0  0  0  0  0  0  0999 V2000
    8.7360   -3.5900   19.6420 C   0  0  0  0  0  0  0  0  0  0  0  0
    7.3210   -3.5660   19.5090 N   0  0  0  0  0  0  0  0  0  0  0  0
   10.0770   -2.8480   20.4350 C   0  0  0  0  0  0  0  0  0  0  0  0
   11.2660   -2.1890   21.1380 C   0  0  0  0  0  0  0  0  0  0  0  0
   11.5560   -1.4550   22.4090 N   0  0  0  0  0  0  0  0  0  0  0  0
   10.4790   -1.3100   23.2360 C   0  0  0  0  0  0  0  0  0  0  0  0
   10.5950   -0.6350   24.4370 N   0  0  0  0  0  0  0  0  0  0  0  0
   10.9340    0.7590   24.1920 C   0  0  0  0  0  0  0  0  0  0  0  0
   12.4590    0.8870   24.0960 C   0  0  0  0  0  0  0  0  0  0  0  0
    9.3370   -1.8630   22.7810 C   0  0  0  0  0  0  0  0  0  0  0  0
    8.1330   -1.7700   23.6560 C   0  0  0  0  0  0  0  0  0  0  0  0
    8.4350   -2.5180   24.9450 C   0  0  0  0  0  0  0  0  0  0  0  0
    7.9470   -3.8120   24.9500 N   0  0  0  0  0  0  0  0  0  0  0  0
    8.2680   -4.6340   26.3640 S   0  0  0  0  0  0  0  0  0  0  0  0
    6.6920   -5.3870   26.7430 C   0  0  0  0  0  0  0  0  0  0  0  0
    9.2430   -5.6530   26.0750 O   0  0  0  0  0  0  0  0  0  0  0  0
    8.5380   -3.6040   27.3460 O   0  0  0  0  0  0  0  0  0  0  0  0
    9.1790   -2.5440   21.5200 C   0  0  0  0  0  0  0  0  0  0  0  0
  1  2  2  3
  1  3  1  0
  3  4  2  0
  4  5  1  0
  5  6  2  0
  6  7  1  0
  7  8  1  0
  8  9  1  0
  6 10  1  0
 10 11  1  0
 11 12  1  0
 12 13  1  0
 14 13  1  0
 14 15  1  0
 14 16  2  0
 14 17  2  0
  3 18  1  0
 10 18  2  0
M  END
