BEN-DND-362d364a-6-chloroacetamide
     RDKit          3D

 19 19  0  0  0  0  0  0  0  0999 V2000
    7.3080   -3.7930   20.7310 C   0  0  0  0  0  0  0  0  0  0  0  0
    7.9610   -2.6300   19.9010 C   0  0  0  0  0  0  0  0  0  0  0  0
    7.1210   -3.1700   19.0130 O   0  0  0  0  0  0  0  0  0  0  0  0
    8.8800   -2.1860   21.2570 C   0  0  0  0  0  0  0  0  0  0  0  0
   10.1540   -1.9910   21.6600 C   0  0  0  0  0  0  0  0  0  0  0  0
   11.3710   -2.0000   21.3900 N   0  0  0  0  0  0  0  0  0  0  0  0
   11.1650   -1.6300   22.6410 C   0  0  0  0  0  0  0  0  0  0  0  0
   12.1840   -1.3250   23.4600 N   0  0  0  0  0  0  0  0  0  0  0  0
   13.1630   -2.4320   23.6210 C   0  0  0  0  0  0  0  0  0  0  0  0
   13.2850   -2.7040   25.1220 C   0  0  0  0  0  0  0  0  0  0  0  0
    9.7460   -1.5750   23.1070 C   0  0  0  0  0  0  0  0  0  0  0  0
    9.5020   -1.1930   24.5330 C   0  0  0  0  0  0  0  0  0  0  0  0
    9.6800   -2.5330   25.2220 C   0  0  0  0  0  0  0  0  0  0  0  0
    8.4490   -3.3170   25.1570 N   0  0  0  0  0  0  0  0  0  0  0  0
    8.2360   -4.5240   26.3360 S   0  0  0  0  0  0  0  0  0  0  0  0
    6.5120   -4.9420   26.2010 C   0  0  0  0  0  0  0  0  0  0  0  0
    8.4310   -3.8530   27.5930 O   0  0  0  0  0  0  0  0  0  0  0  0
    9.0240   -5.6780   25.9910 O   0  0  0  0  0  0  0  0  0  0  0  0
    8.3660   -1.8360   22.5050 C   0  0  0  0  0  0  0  0  0  0  0  0
  1  2  1  0
  2  3  2  0
  2  4  1  0
  4  5  2  0
  5  6  1  0
  6  7  2  0
  7  8  1  0
  8  9  1  0
  9 10  1  0
  7 11  1  0
 11 12  1  0
 12 13  1  0
 13 14  1  0
 15 14  1  0
 15 16  1  0
 15 17  2  0
 15 18  2  0
  4 19  1  0
 11 19  2  0
M  END
