BEN-VAN-ed886787-4-acrylamide
     RDKit          3D

 27 28  0  0  0  0  0  0  0  0999 V2000
    7.2380   -3.3080   19.5490 C   0  0  0  0  0  0  0  0  0  0  0  0
    5.9650   -2.7710   20.1920 C   0  0  0  0  0  0  0  0  0  0  0  0
    5.8270   -3.2100   21.6360 C   0  0  0  0  0  0  0  0  0  0  0  0
    4.8090   -3.8140   22.0030 O   0  0  0  0  0  0  0  0  0  0  0  0
    6.9000   -2.9170   22.5060 N   0  0  0  0  0  0  0  0  0  0  0  0
    7.8070   -1.7740   22.2990 C   0  0  0  0  0  0  0  0  0  0  0  0
    8.8200   -1.0750   22.3520 O   0  0  0  0  0  0  0  0  0  0  0  0
    8.5930   -2.6650   23.0350 C   0  0  0  0  0  0  0  0  0  0  0  0
    9.8960   -2.9220   22.2960 N   0  0  0  0  0  0  0  0  0  0  0  0
   11.0490   -2.1680   22.5330 C   0  0  0  0  0  0  0  0  0  0  0  0
   11.2400   -1.6970   23.8150 C   0  0  0  0  0  0  0  0  0  0  0  0
   12.3930   -0.8870   24.0980 C   0  0  0  0  0  0  0  0  0  0  0  0
   12.5870   -0.4280   25.3270 F   0  0  0  0  0  0  0  0  0  0  0  0
   13.3850   -0.5460   22.9660 C   0  0  0  0  0  0  0  0  0  0  0  0
   13.1980   -1.0610   21.5820 C   0  0  0  0  0  0  0  0  0  0  0  0
   14.0560   -0.8130   20.2730 C   0  0  0  0  0  0  0  0  0  0  0  0
   14.6440    0.4210   19.6600 C   0  0  0  0  0  0  0  0  0  0  0  0
   14.5670    1.5750   20.3740 N   0  0  0  0  0  0  0  0  0  0  0  0
   14.9540    2.7690   19.8990 C   0  0  0  0  0  0  0  0  0  0  0  0
   14.8720    4.0080   20.5740 N   0  0  0  0  0  0  0  0  0  0  0  0
   15.0610    4.0940   22.0170 C   0  0  0  0  0  0  0  0  0  0  0  0
   16.3610    4.0880   22.4200 C   0  0  0  0  0  0  0  0  0  0  0  0
   15.4570    2.8370   18.6740 C   0  0  0  0  0  0  0  0  0  0  0  0
   15.6310    1.6960   17.9100 C   0  0  0  0  0  0  0  0  0  0  0  0
   15.2310    0.4760   18.4030 C   0  0  0  0  0  0  0  0  0  0  0  0
   15.4220   -0.5550   17.6270 F   0  0  0  0  0  0  0  0  0  0  0  0
   11.9410   -1.9170   21.4660 C   0  0  0  0  0  0  0  0  0  0  0  0
  1  2  1  0
  2  3  1  0
  3  4  2  0
  3  5  1  0
  5  6  1  0
  6  7  2  0
  6  8  1  0
  8  9  1  0
  9 10  1  0
 10 11  2  0
 11 12  1  0
 12 13  1  0
 12 14  2  0
 14 15  1  0
 15 16  1  0
 16 17  1  0
 17 18  2  0
 18 19  1  0
 19 20  1  0
 20 21  1  0
 21 22  1  0
 19 23  2  0
 23 24  1  0
 17 25  1  0
 24 25  2  0
 25 26  1  0
 10 27  1  0
 15 27  2  0
M  END
