BEN-DND-031a96cc-6
     RDKit          3D

 29 31  0  0  0  0  0  0  0  0999 V2000
    6.6070   -2.3650   26.0850 N   0  0  0  0  0  0  0  0  0  0  0  0
    5.7630   -3.1430   25.3480 C   0  0  0  0  0  0  0  0  0  0  0  0
    4.4100   -3.3660   25.7010 O   0  0  0  0  0  0  0  0  0  0  0  0
    6.3180   -3.7780   24.1010 C   0  0  0  0  0  0  0  0  0  0  0  0
    5.3290   -4.5030   23.1490 C   0  0  0  0  0  0  0  0  0  0  0  0
    6.1730   -5.1850   22.2500 C   0  0  0  0  0  0  0  0  0  0  0  0
    7.0640   -4.2930   21.4910 N   0  0  0  0  0  0  0  0  0  0  0  0
    6.4610   -3.5730   20.3750 C   0  0  0  0  0  0  0  0  0  0  0  0
    5.4680   -4.0030   19.7430 O   0  0  0  0  0  0  0  0  0  0  0  0
    7.1830   -2.3460   20.0420 C   0  0  1  0  0  0  0  0  0  0  0  0
    6.5730   -1.9730   18.4250 Cl  0  0  0  0  0  0  0  0  0  0  0  0
    6.9310   -1.1710   20.8200 C   0  0  1  0  0  0  0  0  0  0  0  0
    8.0350   -0.4070   21.3130 C   0  0  0  0  0  0  0  0  0  0  0  0
    8.3070    0.8820   20.9100 O   0  0  0  0  0  0  0  0  0  0  0  0
    8.8430   -1.0000   22.2820 N   0  0  0  0  0  0  0  0  0  0  0  0
   10.1880   -0.6650   22.5430 C   0  0  0  0  0  0  0  0  0  0  0  0
   10.6060    0.4280   23.3650 C   0  0  0  0  0  0  0  0  0  0  0  0
   11.6270    0.7880   23.6230 C   0  0  0  0  0  0  0  0  0  0  0  0
   12.8570    0.3420   23.2680 C   0  0  0  0  0  0  0  0  0  0  0  0
   12.7310   -0.7840   22.4360 C   0  0  0  0  0  0  0  0  0  0  0  0
   11.4120   -1.2980   22.0670 C   0  0  0  0  0  0  0  0  0  0  0  0
    6.3160   -0.1930   19.7890 C   0  0  0  0  0  0  0  0  0  0  0  0
    4.9970    0.4560   20.1750 C   0  0  0  0  0  0  0  0  0  0  0  0
    4.5300    1.2960   19.1850 C   0  0  0  0  0  0  0  0  0  0  0  0
    5.1600    1.5440   17.9740 C   0  0  0  0  0  0  0  0  0  0  0  0
    6.3390    0.9610   17.6400 N   0  0  0  0  0  0  0  0  0  0  0  0
    6.8880    0.1160   18.5450 C   0  0  0  0  0  0  0  0  0  0  0  0
    7.9130   -3.4530   22.3140 C   0  0  0  0  0  0  0  0  0  0  0  0
    7.0860   -2.7150   23.3390 C   0  0  0  0  0  0  0  0  0  0  0  0
  1  2  1  0
  2  3  2  0
  2  4  1  0
  4  5  1  0
  5  6  1  0
  6  7  1  0
  7  8  1  0
  8  9  2  0
  8 10  1  0
 10 11  1  6
 10 12  1  0
 12 13  1  6
 13 14  2  0
 13 15  1  0
 15 16  1  0
 16 17  2  0
 17 18  1  0
 18 19  2  0
 19 20  1  0
 16 21  1  0
 20 21  2  0
 12 22  1  0
 22 23  2  0
 23 24  1  0
 24 25  2  0
 25 26  1  0
 22 27  1  0
 26 27  2  0
  7 28  1  0
  4 29  1  0
 28 29  1  0
M  END
