BEN-VAN-c986b20b-14
     RDKit          3D

 26 28  0  0  0  0  0  0  0  0999 V2000
    6.3310   -2.1680   18.9330 C   0  0  0  0  0  0  0  0  0  0  0  0
    5.9610   -3.1040   20.0610 C   0  0  0  0  0  0  0  0  0  0  0  0
    5.4320   -4.2000   19.8490 O   0  0  0  0  0  0  0  0  0  0  0  0
    6.2690   -2.6260   21.3240 N   0  0  0  0  0  0  0  0  0  0  0  0
    7.0440   -1.4140   21.5010 C   0  0  0  0  0  0  0  0  0  0  0  0
    8.4600   -1.7040   22.0110 C   0  0  0  0  0  0  0  0  0  0  0  0
    8.5090   -2.5370   23.2620 N   0  0  0  0  0  0  0  0  0  0  0  0
    9.7040   -2.6630   24.0370 C   0  0  0  0  0  0  0  0  0  0  0  0
   10.4480   -1.5440   23.7710 C   0  0  0  0  0  0  0  0  0  0  0  0
   11.6410   -1.5310   23.0300 C   0  0  0  0  0  0  0  0  0  0  0  0
   12.2650   -0.2880   22.7820 C   0  0  0  0  0  0  0  0  0  0  0  0
   13.3950   -0.3030   22.0590 F   0  0  0  0  0  0  0  0  0  0  0  0
   11.6300    0.9970   23.3180 C   0  0  0  0  0  0  0  0  0  0  0  0
   12.1020    2.4400   23.0860 C   0  0  0  0  0  0  0  0  0  0  0  0
   11.0300    3.4660   23.4990 C   0  0  0  0  0  0  0  0  0  0  0  0
   11.2010    4.8370   23.3760 C   0  0  0  0  0  0  0  0  0  0  0  0
   10.1980    5.7090   23.7710 C   0  0  0  0  0  0  0  0  0  0  0  0
   12.3000    5.3760   22.8880 N   0  0  0  0  0  0  0  0  0  0  0  0
   13.2420    4.4120   22.5230 C   0  0  0  0  0  0  0  0  0  0  0  0
   13.2060    3.0590   22.5930 N   0  0  0  0  0  0  0  0  0  0  0  0
   10.4800    0.9590   24.0850 C   0  0  0  0  0  0  0  0  0  0  0  0
    9.8740    2.0250   24.6090 F   0  0  0  0  0  0  0  0  0  0  0  0
   10.0000   -0.3120   24.2320 C   0  0  0  0  0  0  0  0  0  0  0  0
    7.7910   -3.7800   22.9460 C   0  0  1  0  0  0  0  0  0  0  0  0
    7.7620   -4.6400   24.2060 C   0  0  0  0  0  0  0  0  0  0  0  0
    6.3270   -3.5370   22.4750 C   0  0  0  0  0  0  0  0  0  0  0  0
  1  2  1  0
  2  3  2  0
  2  4  1  0
  4  5  1  0
  5  6  1  0
  6  7  1  0
  7  8  1  0
  8  9  1  0
  9 10  2  0
 10 11  1  0
 11 12  1  0
 11 13  2  0
 13 14  1  0
 14 15  2  0
 15 16  1  0
 16 17  1  0
 16 18  2  0
 18 19  1  0
 14 20  1  0
 19 20  2  0
 13 21  1  0
 21 22  1  0
  9 23  1  0
 21 23  2  0
  7 24  1  0
 24 25  1  1
  4 26  1  0
 24 26  1  0
M  END
