BEN-VAN-77cef4f8-5-vinylsulfonamide
     RDKit          3D

 31 33  0  0  0  0  0  0  0  0999 V2000
    7.6090   -3.0630   18.9350 C   0  0  0  0  0  0  0  0  0  0  0  0
    7.2040   -2.6980   20.3390 C   0  0  0  0  0  0  0  0  0  0  0  0
    5.4710   -2.9490   20.5190 S   0  0  0  0  0  0  0  0  0  0  0  0
    5.0490   -4.0600   19.6810 O   0  0  0  0  0  0  0  0  0  0  0  0
    4.9650   -1.6100   20.3110 O   0  0  0  0  0  0  0  0  0  0  0  0
    5.3540   -3.3390   22.1710 N   0  0  0  0  0  0  0  0  0  0  0  0
    5.8290   -4.6630   22.5510 C   0  0  0  0  0  0  0  0  0  0  0  0
    6.7040   -4.8010   23.6540 C   0  0  0  0  0  0  0  0  0  0  0  0
    7.8100   -3.8750   23.6260 O   0  0  0  0  0  0  0  0  0  0  0  0
    7.4490   -2.6290   22.9920 C   0  0  2  0  0  0  0  0  0  0  0  0
    8.3060   -1.4570   23.3930 C   0  0  0  0  0  0  0  0  0  0  0  0
    7.7540   -0.3010   23.9710 C   0  0  0  0  0  0  0  0  0  0  0  0
    8.5540    0.8160   24.3190 C   0  0  0  0  0  0  0  0  0  0  0  0
    7.9750    1.8970   24.8590 F   0  0  0  0  0  0  0  0  0  0  0  0
    9.9420    0.7870   24.0880 C   0  0  0  0  0  0  0  0  0  0  0  0
   10.7170    1.8300   24.3910 F   0  0  0  0  0  0  0  0  0  0  0  0
   10.5170   -0.4950   23.4670 C   0  0  0  0  0  0  0  0  0  0  0  0
   12.0270   -0.6720   23.1540 C   0  0  0  0  0  0  0  0  0  0  0  0
   12.0930   -1.3010   21.8740 O   0  0  0  0  0  0  0  0  0  0  0  0
   13.3820   -1.6680   21.4200 C   0  0  2  0  0  0  0  0  0  0  0  0
   13.8840   -0.7820   20.3770 C   0  0  0  0  0  0  0  0  0  0  0  0
   13.2640   -2.7150   20.5840 N   0  0  0  0  0  0  0  0  0  0  0  0
   14.2130   -3.7780   20.1800 C   0  0  0  0  0  0  0  0  0  0  0  0
   13.6630   -4.6450   20.6650 C   0  0  0  0  0  0  0  0  0  0  0  0
   14.1910   -5.7600   20.5260 C   0  0  0  0  0  0  0  0  0  0  0  0
   15.2810   -6.0730   19.9560 C   0  0  0  0  0  0  0  0  0  0  0  0
   15.9750   -5.3780   19.3940 N   0  0  0  0  0  0  0  0  0  0  0  0
   15.4300   -4.2650   19.4570 C   0  0  0  0  0  0  0  0  0  0  0  0
   16.5870   -3.7320   18.3730 Cl  0  0  0  0  0  0  0  0  0  0  0  0
    9.6610   -1.5370   23.1560 C   0  0  0  0  0  0  0  0  0  0  0  0
    5.9470   -2.3370   23.0370 C   0  0  0  0  0  0  0  0  0  0  0  0
  1  2  1  0
  3  2  1  0
  3  4  2  0
  3  5  2  0
  3  6  1  0
  6  7  1  0
  7  8  1  0
  8  9  1  0
  9 10  1  0
 10 11  1  1
 11 12  2  0
 12 13  1  0
 13 14  1  0
 13 15  2  0
 15 16  1  0
 15 17  1  0
 17 18  1  0
 18 19  1  0
 19 20  1  0
 20 21  1  6
 20 22  1  0
 22 23  1  0
 23 24  2  0
 24 25  1  0
 25 26  2  0
 26 27  1  0
 23 28  1  0
 27 28  2  0
 28 29  1  0
 11 30  1  0
 17 30  2  0
  6 31  1  0
 10 31  1  0
M  END
