BEN-VAN-ed886787-1
     RDKit          3D

 28 30  0  0  0  0  0  0  0  0999 V2000
   16.3720    4.1330   20.1430 C   0  0  0  0  0  0  0  0  0  0  0  0
   15.2020    4.0890   21.0460 C   0  0  0  0  0  0  0  0  0  0  0  0
   15.1610    4.5180   22.3350 N   0  0  0  0  0  0  0  0  0  0  0  0
   13.7580    4.6910   22.7520 C   0  0  0  0  0  0  0  0  0  0  0  0
   13.2080    6.1070   22.8740 C   0  0  0  0  0  0  0  0  0  0  0  0
   11.9100    6.2930   23.2330 C   0  0  0  0  0  0  0  0  0  0  0  0
   11.0620    5.1770   23.4820 C   0  0  0  0  0  0  0  0  0  0  0  0
    9.7690    5.3380   23.8270 F   0  0  0  0  0  0  0  0  0  0  0  0
   11.6540    3.9330   23.3400 C   0  0  0  0  0  0  0  0  0  0  0  0
   10.7330    2.8870   23.5890 C   0  0  0  0  0  0  0  0  0  0  0  0
   11.1940    1.5170   23.1580 C   0  0  0  0  0  0  0  0  0  0  0  0
   12.5100    0.9390   23.0350 C   0  0  0  0  0  0  0  0  0  0  0  0
   12.7510   -0.4010   22.6160 C   0  0  0  0  0  0  0  0  0  0  0  0
   11.5830   -1.1500   22.3120 C   0  0  0  0  0  0  0  0  0  0  0  0
   10.1560   -0.7270   22.3710 C   0  0  0  0  0  0  0  0  0  0  0  0
   10.1050   -2.0140   21.9400 N   0  0  0  0  0  0  0  0  0  0  0  0
    8.6730   -2.3040   22.0180 C   0  0  0  0  0  0  0  0  0  0  0  0
    8.0270   -1.1990   21.4290 C   0  0  0  0  0  0  0  0  0  0  0  0
    8.5530   -0.0870   21.4090 O   0  0  0  0  0  0  0  0  0  0  0  0
    6.7830   -1.4400   20.8860 N   0  0  0  0  0  0  0  0  0  0  0  0
    6.1390   -0.5460   20.0060 C   0  0  0  0  0  0  0  0  0  0  0  0
    4.9510    0.1410   20.2590 C   0  0  0  0  0  0  0  0  0  0  0  0
    4.4320    1.0010   19.2910 C   0  0  0  0  0  0  0  0  0  0  0  0
    5.1140    1.1570   18.0890 C   0  0  0  0  0  0  0  0  0  0  0  0
    6.2610    0.5070   17.8200 N   0  0  0  0  0  0  0  0  0  0  0  0
    6.7360   -0.3210   18.7770 C   0  0  0  0  0  0  0  0  0  0  0  0
   10.2100    0.6300   22.8250 C   0  0  0  0  0  0  0  0  0  0  0  0
   12.9380    3.6490   23.0000 N   0  0  0  0  0  0  0  0  0  0  0  0
  1  2  1  0
  2  3  1  0
  3  4  1  0
  4  5  2  0
  5  6  1  0
  6  7  2  0
  7  8  1  0
  7  9  1  0
  9 10  1  0
 10 11  1  0
 11 12  2  0
 12 13  1  0
 13 14  2  0
 14 15  1  0
 15 16  1  0
 16 17  1  0
 17 18  1  0
 18 19  2  0
 18 20  1  0
 20 21  1  0
 21 22  2  0
 22 23  1  0
 23 24  2  0
 24 25  1  0
 21 26  1  0
 25 26  2  0
 11 27  1  0
 15 27  2  0
  4 28  1  0
  9 28  2  0
M  END
