BEN-VAN-77cef4f8-5-nitrile
     RDKit          3D

 28 30  0  0  0  0  0  0  0  0999 V2000
    6.7190   -3.9890   20.1930 C   0  0  0  0  0  0  0  0  0  0  0  0
    5.6070   -3.7710   19.5980 N   0  0  0  0  0  0  0  0  0  0  0  0
    6.9070   -3.6430   21.5280 N   0  0  0  0  0  0  0  0  0  0  0  0
    6.4620   -4.5060   22.5800 C   0  0  0  0  0  0  0  0  0  0  0  0
    6.8750   -4.3160   23.9230 C   0  0  0  0  0  0  0  0  0  0  0  0
    7.8360   -3.2660   24.1330 O   0  0  0  0  0  0  0  0  0  0  0  0
    8.5350   -3.0040   22.9170 C   0  0  2  0  0  0  0  0  0  0  0  0
    9.7190   -2.2920   23.1410 C   0  0  0  0  0  0  0  0  0  0  0  0
    9.8400   -0.8600   22.7260 C   0  0  0  0  0  0  0  0  0  0  0  0
   11.0470   -0.2090   22.9630 C   0  0  0  0  0  0  0  0  0  0  0  0
   11.1580    1.0740   22.6020 F   0  0  0  0  0  0  0  0  0  0  0  0
   12.1430   -0.8380   23.5620 C   0  0  0  0  0  0  0  0  0  0  0  0
   13.2660   -0.1630   23.7510 F   0  0  0  0  0  0  0  0  0  0  0  0
   12.0160   -2.1800   23.9510 C   0  0  0  0  0  0  0  0  0  0  0  0
   13.2900   -2.7810   24.6180 C   0  0  0  0  0  0  0  0  0  0  0  0
   14.1700   -3.3710   23.9510 O   0  0  0  0  0  0  0  0  0  0  0  0
   15.1760   -4.0280   24.7840 C   0  0  2  0  0  0  0  0  0  0  0  0
   15.0120   -3.1020   25.8130 C   0  0  0  0  0  0  0  0  0  0  0  0
   16.4980   -4.4890   24.2370 N   0  0  0  0  0  0  0  0  0  0  0  0
   17.8350   -4.1940   24.7960 C   0  0  0  0  0  0  0  0  0  0  0  0
   18.7730   -3.0570   24.6680 C   0  0  0  0  0  0  0  0  0  0  0  0
   19.9280   -2.8530   25.2930 C   0  0  0  0  0  0  0  0  0  0  0  0
   20.2640   -3.8030   26.1180 C   0  0  0  0  0  0  0  0  0  0  0  0
   19.5210   -4.9260   26.2820 N   0  0  0  0  0  0  0  0  0  0  0  0
   18.3220   -5.1240   25.6090 C   0  0  0  0  0  0  0  0  0  0  0  0
   17.3740   -6.5610   25.8600 Cl  0  0  0  0  0  0  0  0  0  0  0  0
   10.8310   -2.8900   23.7470 C   0  0  0  0  0  0  0  0  0  0  0  0
    7.6420   -2.5450   21.9600 C   0  0  0  0  0  0  0  0  0  0  0  0
  1  2  2  3
  1  3  1  0
  3  4  1  0
  4  5  1  0
  5  6  1  0
  6  7  1  0
  7  8  1  1
  8  9  2  0
  9 10  1  0
 10 11  1  0
 10 12  2  0
 12 13  1  0
 12 14  1  0
 14 15  1  0
 15 16  1  0
 16 17  1  0
 17 18  1  1
 17 19  1  0
 19 20  1  0
 20 21  2  0
 21 22  1  0
 22 23  2  0
 23 24  1  0
 20 25  1  0
 24 25  2  0
 25 26  1  0
  8 27  1  0
 14 27  2  0
  3 28  1  0
  7 28  1  0
M  END
