BEN-VAN-d8fd1356-9
     RDKit          3D

 26 29  0  0  0  0  0  0  0  0999 V2000
    9.4040    4.1820   25.0120 C   0  0  0  0  0  0  0  0  0  0  0  0
   10.3200    4.6140   23.8560 C   0  0  0  0  0  0  0  0  0  0  0  0
   10.8690    3.4600   22.9570 C   0  0  0  0  0  0  0  0  0  0  0  0
    9.8070    2.5190   22.3770 C   0  0  0  0  0  0  0  0  0  0  0  0
    8.5450    3.0900   21.8330 C   0  0  0  0  0  0  0  0  0  0  0  0
    7.7610    2.0970   21.3660 N   0  0  0  0  0  0  0  0  0  0  0  0
    8.4010    0.8710   21.5600 C   0  0  0  0  0  0  0  0  0  0  0  0
    7.9250   -0.4030   21.2160 C   0  0  0  0  0  0  0  0  0  0  0  0
    6.6700   -0.5950   20.5910 O   0  0  0  0  0  0  0  0  0  0  0  0
    6.1520    0.4140   19.7660 C   0  0  0  0  0  0  0  0  0  0  0  0
    5.4010    1.0470   20.5980 C   0  0  0  0  0  0  0  0  0  0  0  0
    5.8280   -0.0040   21.5840 C   0  0  0  0  0  0  0  0  0  0  0  0
    5.3980   -0.1380   23.1140 C   0  0  0  0  0  0  0  0  0  0  0  0
    5.5710    0.8330   24.1780 C   0  0  0  0  0  0  0  0  0  0  0  0
    5.0950    0.4340   25.3730 N   0  0  0  0  0  0  0  0  0  0  0  0
    4.6050   -0.8150   25.1130 C   0  0  0  0  0  0  0  0  0  0  0  0
    4.7400   -1.2560   23.7810 N   0  0  0  0  0  0  0  0  0  0  0  0
    6.8160   -0.9990   20.7570 C   0  0  0  0  0  0  0  0  0  0  0  0
    7.1380   -0.7690   19.3260 C   0  0  0  0  0  0  0  0  0  0  0  0
    6.6350    0.2730   18.6070 N   0  0  0  0  0  0  0  0  0  0  0  0
    8.7310   -1.5100   21.5100 C   0  0  0  0  0  0  0  0  0  0  0  0
   10.0910   -1.2990   22.1690 C   0  0  0  0  0  0  0  0  0  0  0  0
   10.8850   -2.3400   22.4520 F   0  0  0  0  0  0  0  0  0  0  0  0
   10.5110   -0.0140   22.4750 C   0  0  0  0  0  0  0  0  0  0  0  0
   12.0430    0.2330   23.1950 Cl  0  0  0  0  0  0  0  0  0  0  0  0
    9.6890    1.0980   22.1910 C   0  0  0  0  0  0  0  0  0  0  0  0
  1  2  1  0
  2  3  1  0
  3  4  1  0
  4  5  2  0
  5  6  1  0
  6  7  1  0
  7  8  1  0
  8  9  1  0
  9 10  1  0
 10 11  2  0
 11 12  1  0
 12 13  1  0
 13 14  2  0
 14 15  1  0
 15 16  2  0
 13 17  1  0
 16 17  1  0
 12 18  2  0
 18 19  1  0
 10 20  1  0
 19 20  2  0
  8 21  2  0
 21 22  1  0
 22 23  1  0
 22 24  2  0
 24 25  1  0
  4 26  1  0
  7 26  2  0
 24 26  1  0
M  END
