BEN-VAN-77cef4f8-13-acrylamide
     RDKit          3D

 33 36  0  0  0  0  0  0  0  0999 V2000
    6.2920   -4.3680   19.9670 C   0  0  0  0  0  0  0  0  0  0  0  0
    6.3800   -3.9070   21.3920 C   0  0  0  0  0  0  0  0  0  0  0  0
    5.2170   -3.0010   21.6810 C   0  0  0  0  0  0  0  0  0  0  0  0
    4.2510   -3.4270   22.3030 O   0  0  0  0  0  0  0  0  0  0  0  0
    5.2220   -1.6020   21.1570 C   0  0  0  0  0  0  0  0  0  0  0  0
    5.2950   -0.2020   20.8040 C   0  0  0  0  0  0  0  0  0  0  0  0
    5.7430    0.9100   21.5040 C   0  0  0  0  0  0  0  0  0  0  0  0
    6.2560    0.7240   22.8720 C   0  0  0  0  0  0  0  0  0  0  0  0
    6.7640    1.7090   23.7040 N   0  0  0  0  0  0  0  0  0  0  0  0
    8.1990    2.0360   23.5860 C   0  0  2  0  0  0  0  0  0  0  0  0
    8.5210    2.6350   22.2200 C   0  0  0  0  0  0  0  0  0  0  0  0
    9.0840    0.7870   23.9070 C   0  0  0  0  0  0  0  0  0  0  0  0
   10.3790    0.7940   23.2850 C   0  0  0  0  0  0  0  0  0  0  0  0
   11.8790    0.6890   22.8080 C   0  0  0  0  0  0  0  0  0  0  0  0
   13.0640    0.1570   23.3900 C   0  0  0  0  0  0  0  0  0  0  0  0
   12.4490   -0.1650   24.3290 C   0  0  0  0  0  0  0  0  0  0  0  0
   11.5420    0.3590   23.5920 C   0  0  0  0  0  0  0  0  0  0  0  0
   10.6510    0.1050   24.5720 C   0  0  0  0  0  0  0  0  0  0  0  0
   10.4620    0.6230   23.4080 O   0  0  0  0  0  0  0  0  0  0  0  0
   10.1950   -0.7310   24.0130 C   0  0  1  0  0  0  0  0  0  0  0  0
   10.7470   -1.7510   23.2100 C   0  0  2  0  0  0  0  0  0  0  0  0
   10.3070   -1.9210   21.8070 C   0  0  0  0  0  0  0  0  0  0  0  0
    8.9100   -2.3120   21.7440 N   0  0  0  0  0  0  0  0  0  0  0  0
    8.0580   -1.5320   20.8530 C   0  0  0  0  0  0  0  0  0  0  0  0
    8.1540   -0.0370   21.1460 C   0  0  0  0  0  0  0  0  0  0  0  0
    7.3410   -2.0000   19.9630 O   0  0  0  0  0  0  0  0  0  0  0  0
    8.4560   -3.3700   22.6710 C   0  0  0  0  0  0  0  0  0  0  0  0
    9.2390   -3.4430   23.9790 C   0  0  0  0  0  0  0  0  0  0  0  0
   10.5920   -2.9970   23.9120 O   0  0  0  0  0  0  0  0  0  0  0  0
   10.9050   -0.9750   25.4030 C   0  0  0  0  0  0  0  0  0  0  0  0
   12.3610   -0.7110   25.4780 O   0  0  0  0  0  0  0  0  0  0  0  0
    6.2240   -0.5020   23.3050 N   0  0  0  0  0  0  0  0  0  0  0  0
    5.7510   -1.4970   22.4890 C   0  0  0  0  0  0  0  0  0  0  0  0
  1  2  1  0
  2  3  1  0
  3  4  2  0
  3  5  1  0
  5  6  2  0
  6  7  1  0
  7  8  2  0
  8  9  1  0
  9 10  1  0
 10 11  1  6
 10 12  1  0
 12 13  1  0
 13 14  2  0
 14 15  1  0
 15 16  2  0
 16 17  1  0
 13 18  1  0
 17 18  2  0
 17 19  1  0
 19 20  1  0
 20 21  1  0
 21 22  1  6
 22 23  1  0
 23 24  1  0
 24 25  1  0
 24 26  2  0
 23 27  1  0
 27 28  1  0
 21 29  1  0
 28 29  1  0
 20 30  1  1
 16 31  1  0
 30 31  1  0
  8 32  1  0
  5 33  1  0
 32 33  2  0
M  END
