BEN-VAN-77cef4f8-8-acrylamide
     RDKit          3D

 31 33  0  0  0  0  0  0  0  0999 V2000
    7.0700   -3.3960   19.4600 C   0  0  0  0  0  0  0  0  0  0  0  0
    5.8560   -4.1370   20.0710 C   0  0  0  0  0  0  0  0  0  0  0  0
    5.8960   -4.4390   21.5460 C   0  0  0  0  0  0  0  0  0  0  0  0
    4.8100   -4.7290   22.0640 O   0  0  0  0  0  0  0  0  0  0  0  0
    7.2030   -4.3630   22.2670 C   0  0  0  0  0  0  0  0  0  0  0  0
    7.8750   -5.4850   22.8780 C   0  0  0  0  0  0  0  0  0  0  0  0
    9.1940   -5.1910   23.5250 C   0  0  0  0  0  0  0  0  0  0  0  0
    9.4000   -3.8700   23.3450 C   0  0  0  0  0  0  0  0  0  0  0  0
   10.7200   -3.7380   24.0020 N   0  0  0  0  0  0  0  0  0  0  0  0
   11.2900   -2.4050   24.2880 C   0  0  1  0  0  0  0  0  0  0  0  0
   12.6760   -2.6010   24.5090 C   0  0  0  0  0  0  0  0  0  0  0  0
   10.8830   -1.2140   23.2890 C   0  0  0  0  0  0  0  0  0  0  0  0
   10.0620   -1.6070   22.0250 C   0  0  0  0  0  0  0  0  0  0  0  0
   11.3740   -1.8520   21.7250 C   0  0  0  0  0  0  0  0  0  0  0  0
   12.2100   -1.4170   22.8110 C   0  0  0  0  0  0  0  0  0  0  0  0
   13.5400   -1.5090   22.8070 F   0  0  0  0  0  0  0  0  0  0  0  0
   11.4380   -0.8720   23.8760 C   0  0  0  0  0  0  0  0  0  0  0  0
   12.0870   -0.4150   24.9680 F   0  0  0  0  0  0  0  0  0  0  0  0
    9.9850   -0.7780   23.8540 C   0  0  0  0  0  0  0  0  0  0  0  0
    8.9980   -1.1580   22.8420 C   0  0  0  0  0  0  0  0  0  0  0  0
    8.1060   -0.6520   23.8330 C   0  0  1  0  0  0  0  0  0  0  0  0
    6.8100   -0.2880   23.1050 C   0  0  0  0  0  0  0  0  0  0  0  0
    5.7810   -1.3330   23.2680 N   0  0  0  0  0  0  0  0  0  0  0  0
    5.1480   -1.9000   22.1490 C   0  0  0  0  0  0  0  0  0  0  0  0
    5.3680   -1.2090   20.8100 C   0  0  0  0  0  0  0  0  0  0  0  0
    4.4310   -2.9170   22.2260 O   0  0  0  0  0  0  0  0  0  0  0  0
    5.4360   -1.5720   24.6610 C   0  0  0  0  0  0  0  0  0  0  0  0
    6.4710   -1.0950   25.4780 C   0  0  0  0  0  0  0  0  0  0  0  0
    7.7190   -1.4800   24.8730 O   0  0  0  0  0  0  0  0  0  0  0  0
    8.9740   -2.7520   22.8760 N   0  0  0  0  0  0  0  0  0  0  0  0
    7.7880   -3.0590   22.3030 C   0  0  0  0  0  0  0  0  0  0  0  0
  1  2  1  0
  2  3  1  0
  3  4  2  0
  3  5  1  0
  5  6  2  0
  6  7  1  0
  7  8  2  0
  8  9  1  0
  9 10  1  0
 10 11  1  6
 10 12  1  0
 12 13  1  0
 13 14  2  0
 14 15  1  0
 15 16  1  0
 15 17  2  0
 17 18  1  0
 17 19  1  0
 13 20  1  0
 19 20  2  0
 21 20  1  6
 21 22  1  0
 22 23  1  0
 23 24  1  0
 24 25  1  0
 24 26  2  0
 23 27  1  0
 27 28  1  0
 21 29  1  0
 28 29  1  0
  8 30  1  0
  5 31  1  0
 30 31  2  0
M  END
