BEN-VAN-ed886787-8
     RDKit          3D

 31 33  0  0  0  0  0  0  0  0999 V2000
   10.7630   -2.2890   21.5110 C   0  0  0  0  0  0  0  0  0  0  0  0
   11.9200   -2.9890   20.7930 C   0  0  0  0  0  0  0  0  0  0  0  0
   12.8810   -2.0950   20.7060 N   0  0  0  0  0  0  0  0  0  0  0  0
   12.9260   -1.8370   22.0610 C   0  0  0  0  0  0  0  0  0  0  0  0
   13.6060   -2.9460   22.7160 C   0  0  0  0  0  0  0  0  0  0  0  0
   13.7560   -2.9390   24.0160 C   0  0  0  0  0  0  0  0  0  0  0  0
   13.2910   -1.9540   24.7360 C   0  0  0  0  0  0  0  0  0  0  0  0
   13.4780   -2.0010   26.0190 F   0  0  0  0  0  0  0  0  0  0  0  0
   12.6630   -1.0070   24.0430 C   0  0  0  0  0  0  0  0  0  0  0  0
   12.2080   -0.1420   24.9020 C   0  0  0  0  0  0  0  0  0  0  0  0
   11.4950    0.8820   24.0610 C   0  0  0  0  0  0  0  0  0  0  0  0
   12.2570    1.9160   23.3730 C   0  0  0  0  0  0  0  0  0  0  0  0
   11.4250    2.8310   22.6440 C   0  0  0  0  0  0  0  0  0  0  0  0
   12.0340    3.9030   21.9530 C   0  0  0  0  0  0  0  0  0  0  0  0
   11.8980    5.1660   22.5350 C   0  0  0  0  0  0  0  0  0  0  0  0
   10.0270    2.6170   22.6480 C   0  0  0  0  0  0  0  0  0  0  0  0
    9.1790    1.6100   23.2750 C   0  0  0  0  0  0  0  0  0  0  0  0
    8.6250    0.5230   23.9910 N   0  0  0  0  0  0  0  0  0  0  0  0
    8.1610   -0.6970   23.2910 C   0  0  0  0  0  0  0  0  0  0  0  0
    8.0980   -0.4090   21.9440 C   0  0  0  0  0  0  0  0  0  0  0  0
    9.0040    0.1650   21.3630 O   0  0  0  0  0  0  0  0  0  0  0  0
    6.9130   -0.8090   21.3620 N   0  0  0  0  0  0  0  0  0  0  0  0
    6.3900   -0.1050   20.2950 C   0  0  0  0  0  0  0  0  0  0  0  0
    5.2800    0.7010   20.4980 C   0  0  0  0  0  0  0  0  0  0  0  0
    4.6780    1.4720   19.5280 C   0  0  0  0  0  0  0  0  0  0  0  0
    5.3760    1.3460   18.1810 C   0  0  0  0  0  0  0  0  0  0  0  0
    4.9170    2.0530   17.1730 F   0  0  0  0  0  0  0  0  0  0  0  0
    6.4610    0.5580   17.9230 N   0  0  0  0  0  0  0  0  0  0  0  0
    6.9260   -0.1440   19.0050 C   0  0  0  0  0  0  0  0  0  0  0  0
   10.1370    0.8230   23.9570 C   0  0  0  0  0  0  0  0  0  0  0  0
   12.4440   -0.8460   22.7300 N   0  0  0  0  0  0  0  0  0  0  0  0
  1  2  1  0
  2  3  1  0
  3  4  1  0
  4  5  2  0
  5  6  1  0
  6  7  2  0
  7  8  1  0
  7  9  1  0
  9 10  1  0
 10 11  1  0
 11 12  2  0
 12 13  1  0
 13 14  1  0
 14 15  1  0
 13 16  2  0
 16 17  1  0
 17 18  1  0
 18 19  1  0
 19 20  1  0
 20 21  2  0
 20 22  1  0
 22 23  1  0
 23 24  2  0
 24 25  1  0
 25 26  2  0
 26 27  1  0
 26 28  1  0
 23 29  1  0
 28 29  2  0
 11 30  1  0
 17 30  2  0
  4 31  1  0
  9 31  2  0
M  END
