BEN-VAN-77cef4f8-6-nitrile
     RDKit          3D

 28 30  0  0  0  0  0  0  0  0999 V2000
    6.7650   -3.5660   19.8120 C   0  0  0  0  0  0  0  0  0  0  0  0
    5.7460   -3.2790   19.1100 N   0  0  0  0  0  0  0  0  0  0  0  0
    6.8470   -3.1940   21.1410 N   0  0  0  0  0  0  0  0  0  0  0  0
    6.4070   -4.1310   22.1770 C   0  0  0  0  0  0  0  0  0  0  0  0
    7.2450   -4.0880   23.4490 C   0  0  0  0  0  0  0  0  0  0  0  0
    8.6360   -3.8070   23.2290 O   0  0  0  0  0  0  0  0  0  0  0  0
    8.9200   -2.7880   22.2490 C   0  0  2  0  0  0  0  0  0  0  0  0
    9.7640   -1.8200   22.7590 C   0  0  0  0  0  0  0  0  0  0  0  0
    9.2540   -0.9700   23.6760 C   0  0  0  0  0  0  0  0  0  0  0  0
   10.0140    0.0040   24.2010 C   0  0  0  0  0  0  0  0  0  0  0  0
    9.4310    0.8380   25.0920 C   0  0  0  0  0  0  0  0  0  0  0  0
    9.1060    0.3750   26.2050 O   0  0  0  0  0  0  0  0  0  0  0  0
    7.6910    0.4790   26.4190 C   0  0  1  0  0  0  0  0  0  0  0  0
    7.2070   -0.9420   26.6570 C   0  0  0  0  0  0  0  0  0  0  0  0
    7.3970    1.2570   27.6220 N   0  0  0  0  0  0  0  0  0  0  0  0
    8.3540    1.5020   28.7080 C   0  0  0  0  0  0  0  0  0  0  0  0
    9.3620    0.6040   29.0990 C   0  0  0  0  0  0  0  0  0  0  0  0
   10.2630    0.8490   30.1270 C   0  0  0  0  0  0  0  0  0  0  0  0
   10.1550    2.0590   30.8050 C   0  0  0  0  0  0  0  0  0  0  0  0
    9.2120    2.9870   30.4990 N   0  0  0  0  0  0  0  0  0  0  0  0
    8.3430    2.6930   29.4710 C   0  0  0  0  0  0  0  0  0  0  0  0
    7.1910    3.9410   29.1680 Cl  0  0  0  0  0  0  0  0  0  0  0  0
   11.4830    0.0810   23.7090 C   0  0  0  0  0  0  0  0  0  0  0  0
   12.3230    1.0050   24.1590 F   0  0  0  0  0  0  0  0  0  0  0  0
   12.0080   -0.8040   22.7630 C   0  0  0  0  0  0  0  0  0  0  0  0
   11.1060   -1.7230   22.3260 C   0  0  0  0  0  0  0  0  0  0  0  0
   11.5980   -2.5480   21.4300 F   0  0  0  0  0  0  0  0  0  0  0  0
    7.6570   -2.1760   21.6140 C   0  0  0  0  0  0  0  0  0  0  0  0
  1  2  2  3
  1  3  1  0
  3  4  1  0
  4  5  1  0
  5  6  1  0
  6  7  1  0
  7  8  1  1
  8  9  2  0
  9 10  1  0
 10 11  1  0
 11 12  1  0
 12 13  1  0
 13 14  1  1
 13 15  1  0
 15 16  1  0
 16 17  2  0
 17 18  1  0
 18 19  2  0
 19 20  1  0
 16 21  1  0
 20 21  2  0
 21 22  1  0
 10 23  2  0
 23 24  1  0
 23 25  1  0
  8 26  1  0
 25 26  2  0
 26 27  1  0
  3 28  1  0
  7 28  1  0
M  END
