BEN-DND-362d364a-2
     RDKit          3D

 30 32  0  0  0  0  0  0  0  0999 V2000
    8.0920   -0.1480   21.0580 C   0  0  0  0  0  0  0  0  0  0  0  0
    8.6360   -0.1200   22.3850 N   0  0  0  0  0  0  0  0  0  0  0  0
   10.0080   -0.5480   22.5670 C   0  0  0  0  0  0  0  0  0  0  0  0
   10.8440    0.6230   22.8490 N   0  0  0  0  0  0  0  0  0  0  0  0
   12.1760    0.9710   23.1050 C   0  0  0  0  0  0  0  0  0  0  0  0
   12.5500   -0.4890   22.9890 C   0  0  0  0  0  0  0  0  0  0  0  0
   11.7030   -1.7160   22.6980 C   0  0  0  0  0  0  0  0  0  0  0  0
   10.1830   -1.9390   22.4210 C   0  0  0  0  0  0  0  0  0  0  0  0
    8.7340   -1.9330   22.1840 C   0  0  0  0  0  0  0  0  0  0  0  0
    7.8050   -2.8150   23.2040 C   0  0  0  0  0  0  0  0  0  0  0  0
    6.4190   -3.0620   22.7270 N   0  0  0  0  0  0  0  0  0  0  0  0
    5.3920   -3.9720   23.4350 C   0  0  1  0  0  0  0  0  0  0  0  0
    5.1140   -5.1800   22.5140 C   0  0  0  0  0  0  0  0  0  0  0  0
    6.2180   -5.2850   21.7540 N   0  0  0  0  0  0  0  0  0  0  0  0
    6.2960   -4.4220   20.7130 C   0  0  0  0  0  0  0  0  0  0  0  0
    7.2930   -3.2820   20.6540 C   0  0  0  0  0  0  0  0  0  0  0  0
    5.5000   -4.5440   19.7750 O   0  0  0  0  0  0  0  0  0  0  0  0
    7.2370   -5.4970   22.6430 C   0  0  0  0  0  0  0  0  0  0  0  0
    6.7460   -5.1530   23.9210 C   0  0  0  0  0  0  0  0  0  0  0  0
    5.9910   -4.5520   24.4970 N   0  0  0  0  0  0  0  0  0  0  0  0
    5.0010   -5.2660   25.6850 S   0  0  0  0  0  0  0  0  0  0  0  0
    5.6810   -5.1430   26.9510 O   0  0  0  0  0  0  0  0  0  0  0  0
    4.4740   -6.5300   25.2220 O   0  0  0  0  0  0  0  0  0  0  0  0
    3.6180   -4.1490   25.7420 C   0  0  0  0  0  0  0  0  0  0  0  0
    2.1810   -4.6190   25.6430 C   0  0  0  0  0  0  0  0  0  0  0  0
    1.0300   -3.6330   25.6960 C   0  0  0  0  0  0  0  0  0  0  0  0
    1.3730   -2.2810   25.8400 C   0  0  0  0  0  0  0  0  0  0  0  0
    2.7350   -1.8770   25.9280 C   0  0  0  0  0  0  0  0  0  0  0  0
    3.1110   -0.2230   26.1020 Cl  0  0  0  0  0  0  0  0  0  0  0  0
    3.8280   -2.7740   25.8810 C   0  0  0  0  0  0  0  0  0  0  0  0
  1  2  1  0
  2  3  1  0
  3  4  2  0
  4  5  1  0
  5  6  2  0
  6  7  1  0
  3  8  1  0
  7  8  2  0
  8  9  1  0
  9 10  1  0
 10 11  1  0
 12 11  1  6
 12 13  1  0
 13 14  1  0
 14 15  1  0
 15 16  1  0
 15 17  2  0
 14 18  1  0
 18 19  1  0
 12 20  1  0
 19 20  1  0
 20 21  1  0
 21 22  2  0
 21 23  2  0
 21 24  1  0
 24 25  2  0
 25 26  1  0
 26 27  2  0
 27 28  1  0
 28 29  1  0
 24 30  1  0
 28 30  2  0
M  END
