BEN-VAN-ed886787-13-nitrile
     RDKit          3D

 30 32  0  0  0  0  0  0  0  0999 V2000
    7.2180   -3.8300   20.2410 C   0  0  0  0  0  0  0  0  0  0  0  0
    6.0120   -4.1030   19.8210 N   0  0  0  0  0  0  0  0  0  0  0  0
    7.6820   -4.0760   21.6460 C   0  0  0  0  0  0  0  0  0  0  0  0
    7.8080   -5.5480   21.9990 C   0  0  0  0  0  0  0  0  0  0  0  0
    8.2930   -6.0070   23.3660 C   0  0  0  0  0  0  0  0  0  0  0  0
    8.5980   -5.0340   24.2860 C   0  0  0  0  0  0  0  0  0  0  0  0
    9.0540   -5.5940   25.6020 N   0  0  0  0  0  0  0  0  0  0  0  0
    8.2200   -5.3400   26.6920 C   0  0  0  0  0  0  0  0  0  0  0  0
    8.8000   -5.6070   27.8930 C   0  0  0  0  0  0  0  0  0  0  0  0
    8.4980   -3.6560   24.0540 N   0  0  0  0  0  0  0  0  0  0  0  0
    8.0390   -3.1700   22.7050 C   0  0  0  0  0  0  0  0  0  0  0  0
    8.0570   -1.6210   22.7940 C   0  0  0  0  0  0  0  0  0  0  0  0
    9.5000   -0.9760   22.8990 C   0  0  0  0  0  0  0  0  0  0  0  0
   10.4890   -1.8210   22.0980 C   0  0  0  0  0  0  0  0  0  0  0  0
   11.6940   -1.3230   22.1550 C   0  0  0  0  0  0  0  0  0  0  0  0
   10.6760   -0.6060   22.7650 N   0  0  0  0  0  0  0  0  0  0  0  0
    9.4280   -0.7730   21.9590 C   0  0  0  0  0  0  0  0  0  0  0  0
    8.7370    0.3880   21.5130 C   0  0  0  0  0  0  0  0  0  0  0  0
    9.2580    1.4960   21.3770 O   0  0  0  0  0  0  0  0  0  0  0  0
    7.4000    0.1180   21.2450 N   0  0  0  0  0  0  0  0  0  0  0  0
    6.6710    0.5160   20.1210 C   0  0  0  0  0  0  0  0  0  0  0  0
    5.6250    1.4120   20.3210 C   0  0  0  0  0  0  0  0  0  0  0  0
    4.8750    1.8460   19.2350 C   0  0  0  0  0  0  0  0  0  0  0  0
    5.1980    1.3680   17.9790 C   0  0  0  0  0  0  0  0  0  0  0  0
    6.1930    0.5010   17.7530 N   0  0  0  0  0  0  0  0  0  0  0  0
    6.9100    0.0890   18.8220 C   0  0  0  0  0  0  0  0  0  0  0  0
   12.3190   -0.3160   22.6750 C   0  0  0  0  0  0  0  0  0  0  0  0
   11.2930    0.5080   23.4710 C   0  0  0  0  0  0  0  0  0  0  0  0
    9.8170    0.3100   23.7000 C   0  0  0  0  0  0  0  0  0  0  0  0
    8.1290   -0.0220   23.8900 Cl  0  0  0  0  0  0  0  0  0  0  0  0
  1  2  2  3
  1  3  1  0
  3  4  2  0
  4  5  1  0
  5  6  2  0
  6  7  1  0
  7  8  1  0
  8  9  1  0
  6 10  1  0
  3 11  1  0
 10 11  2  0
 11 12  1  0
 12 13  1  0
 13 14  2  0
 14 15  1  0
 15 16  1  0
 16 17  1  0
 17 18  1  0
 18 19  2  0
 18 20  1  0
 20 21  1  0
 21 22  2  0
 22 23  1  0
 23 24  2  0
 24 25  1  0
 21 26  1  0
 25 26  2  0
 15 27  2  0
 27 28  1  0
 13 29  1  0
 28 29  2  0
 29 30  1  0
M  END
