BEN-VAN-d8fd1356-28
     RDKit          3D

 24 26  0  0  0  0  0  0  0  0999 V2000
   11.5270    5.4850   24.6250 C   0  0  0  0  0  0  0  0  0  0  0  0
   12.2150    5.3550   23.2770 C   0  0  0  0  0  0  0  0  0  0  0  0
   12.6890    3.9260   22.9100 C   0  0  0  0  0  0  0  0  0  0  0  0
   11.6230    2.8140   22.8270 C   0  0  0  0  0  0  0  0  0  0  0  0
   10.1930    3.2480   22.8590 C   0  0  0  0  0  0  0  0  0  0  0  0
    9.4120    4.7490   23.0250 Cl  0  0  0  0  0  0  0  0  0  0  0  0
    9.4210    2.1330   22.6890 N   0  0  0  0  0  0  0  0  0  0  0  0
   10.1160    0.9480   22.5510 C   0  0  0  0  0  0  0  0  0  0  0  0
    9.4540   -0.3490   22.3210 C   0  0  0  0  0  0  0  0  0  0  0  0
    8.2770    0.5330   22.3200 O   0  0  0  0  0  0  0  0  0  0  0  0
    7.1080    0.3240   21.3840 C   0  0  0  0  0  0  0  0  0  0  0  0
    6.7120    1.4140   20.5690 C   0  0  0  0  0  0  0  0  0  0  0  0
    6.0480    1.0100   19.2190 C   0  0  0  0  0  0  0  0  0  0  0  0
    6.9170    0.1090   18.5210 N   0  0  0  0  0  0  0  0  0  0  0  0
    7.1530    0.0350   17.0580 C   0  0  0  0  0  0  0  0  0  0  0  0
    7.3720   -1.3450   16.4680 C   0  0  0  0  0  0  0  0  0  0  0  0
    7.1840    1.0040   16.3420 O   0  0  0  0  0  0  0  0  0  0  0  0
    7.1400   -0.9690   19.1700 C   0  0  0  0  0  0  0  0  0  0  0  0
    7.6300   -0.8170   20.5180 C   0  0  0  0  0  0  0  0  0  0  0  0
   10.6780   -1.1920   22.3300 C   0  0  0  0  0  0  0  0  0  0  0  0
   12.1930   -0.9430   22.4690 C   0  0  0  0  0  0  0  0  0  0  0  0
   13.0940   -1.9350   22.4140 F   0  0  0  0  0  0  0  0  0  0  0  0
   12.6250    0.4550   22.6530 C   0  0  0  0  0  0  0  0  0  0  0  0
   11.6330    1.3880   22.6960 C   0  0  0  0  0  0  0  0  0  0  0  0
  1  2  1  0
  2  3  1  0
  3  4  1  0
  4  5  2  0
  5  6  1  0
  5  7  1  0
  7  8  1  0
  8  9  1  0
  9 10  1  0
 10 11  1  0
 11 12  1  0
 12 13  1  0
 13 14  1  0
 14 15  1  0
 15 16  1  0
 15 17  2  0
 14 18  1  0
 11 19  1  0
 18 19  1  0
  9 20  2  0
 20 21  1  0
 21 22  1  0
 21 23  2  0
  4 24  1  0
  8 24  2  0
 23 24  1  0
M  END
