BEN-VAN-ed886787-15
     RDKit          3D

 29 31  0  0  0  0  0  0  0  0999 V2000
   16.0160    1.3440   17.4050 C   0  0  0  0  0  0  0  0  0  0  0  0
   16.2830    1.5050   18.8510 C   0  0  0  0  0  0  0  0  0  0  0  0
   15.9750    2.7490   19.4790 N   0  0  0  0  0  0  0  0  0  0  0  0
   15.0910    3.0290   20.7290 C   0  0  0  0  0  0  0  0  0  0  0  0
   15.0590    4.4960   21.0690 C   0  0  0  0  0  0  0  0  0  0  0  0
   14.2570    4.9560   22.1140 C   0  0  0  0  0  0  0  0  0  0  0  0
   13.4180    4.0680   22.8700 C   0  0  0  0  0  0  0  0  0  0  0  0
   12.6380    4.6210   23.8060 F   0  0  0  0  0  0  0  0  0  0  0  0
   13.4830    2.6750   22.5290 C   0  0  0  0  0  0  0  0  0  0  0  0
   12.6030    1.8270   23.3300 C   0  0  0  0  0  0  0  0  0  0  0  0
   11.4200    1.0540   22.7380 C   0  0  0  0  0  0  0  0  0  0  0  0
   10.1690    1.8270   22.3480 C   0  0  0  0  0  0  0  0  0  0  0  0
    8.8240    1.3450   21.7520 C   0  0  0  0  0  0  0  0  0  0  0  0
    7.6880    0.6990   21.2190 N   0  0  0  0  0  0  0  0  0  0  0  0
    7.3450   -0.7550   21.5640 C   0  0  0  0  0  0  0  0  0  0  0  0
    6.0400   -0.7800   22.0640 C   0  0  0  0  0  0  0  0  0  0  0  0
    5.8670   -0.7300   23.2800 O   0  0  0  0  0  0  0  0  0  0  0  0
    5.0320   -0.8650   21.1480 N   0  0  0  0  0  0  0  0  0  0  0  0
    5.1290   -0.1330   20.0230 C   0  0  0  0  0  0  0  0  0  0  0  0
    4.2310    0.9280   19.9500 C   0  0  0  0  0  0  0  0  0  0  0  0
    4.2380    1.7580   18.8300 C   0  0  0  0  0  0  0  0  0  0  0  0
    5.1290    1.5460   17.7770 C   0  0  0  0  0  0  0  0  0  0  0  0
    6.0560    0.4310   17.8770 N   0  0  0  0  0  0  0  0  0  0  0  0
    6.0220   -0.3610   18.9890 C   0  0  0  0  0  0  0  0  0  0  0  0
    9.1090   -0.0700   21.6830 C   0  0  0  0  0  0  0  0  0  0  0  0
   10.2080   -0.8940   22.0170 C   0  0  0  0  0  0  0  0  0  0  0  0
   11.4490   -0.2930   22.5860 C   0  0  0  0  0  0  0  0  0  0  0  0
   12.7760   -1.3200   22.9960 Cl  0  0  0  0  0  0  0  0  0  0  0  0
   14.3120    2.1640   21.5230 N   0  0  0  0  0  0  0  0  0  0  0  0
  1  2  1  0
  2  3  1  0
  3  4  1  0
  4  5  2  0
  5  6  1  0
  6  7  2  0
  7  8  1  0
  7  9  1  0
  9 10  1  0
 10 11  1  0
 11 12  2  0
 12 13  1  0
 13 14  1  0
 14 15  1  0
 15 16  1  0
 16 17  2  0
 16 18  1  0
 18 19  1  0
 19 20  2  0
 20 21  1  0
 21 22  2  0
 22 23  1  0
 19 24  1  0
 23 24  2  0
 13 25  2  0
 25 26  1  0
 11 27  1  0
 26 27  2  0
 27 28  1  0
  4 29  1  0
  9 29  2  0
M  END
