BEN-VAN-ed886787-12-acrylamide
     RDKit          3D

 28 29  0  0  0  0  0  0  0  0999 V2000
    7.1820   -3.1760   19.3350 C   0  0  0  0  0  0  0  0  0  0  0  0
    5.7650   -2.6880   19.5540 C   0  0  0  0  0  0  0  0  0  0  0  0
    5.4690   -2.5290   21.0270 C   0  0  0  0  0  0  0  0  0  0  0  0
    4.8270   -3.3710   21.6720 O   0  0  0  0  0  0  0  0  0  0  0  0
    5.9420   -1.3920   21.6090 N   0  0  0  0  0  0  0  0  0  0  0  0
    6.3500   -0.1830   20.9140 C   0  0  0  0  0  0  0  0  0  0  0  0
    5.6490    0.7870   20.5870 O   0  0  0  0  0  0  0  0  0  0  0  0
    7.8180   -0.3580   20.6690 C   0  0  0  0  0  0  0  0  0  0  0  0
    8.3330   -1.1950   21.7850 N   0  0  0  0  0  0  0  0  0  0  0  0
    9.5810   -0.7200   22.0830 C   0  0  0  0  0  0  0  0  0  0  0  0
   10.8860   -1.4760   22.0100 C   0  0  0  0  0  0  0  0  0  0  0  0
   12.0690   -0.6470   22.4090 C   0  0  0  0  0  0  0  0  0  0  0  0
   13.3300   -1.3610   22.3240 C   0  0  0  0  0  0  0  0  0  0  0  0
   13.2870   -2.0410   21.1100 C   0  0  0  0  0  0  0  0  0  0  0  0
   11.9830    0.7140   22.8190 C   0  0  0  0  0  0  0  0  0  0  0  0
   10.7180    1.3140   22.8460 C   0  0  0  0  0  0  0  0  0  0  0  0
   10.3820    2.6100   23.2310 C   0  0  0  0  0  0  0  0  0  0  0  0
    9.4850    2.0540   24.0920 C   0  0  0  0  0  0  0  0  0  0  0  0
    9.9930    0.9020   24.6230 N   0  0  0  0  0  0  0  0  0  0  0  0
    9.2810    0.1990   25.4390 C   0  0  0  0  0  0  0  0  0  0  0  0
   10.0160   -0.8750   25.7840 N   0  0  0  0  0  0  0  0  0  0  0  0
   10.8970   -1.6480   24.8400 C   0  0  0  0  0  0  0  0  0  0  0  0
   12.3560   -1.1920   24.9820 C   0  0  0  0  0  0  0  0  0  0  0  0
    7.9930    0.5090   25.8600 C   0  0  0  0  0  0  0  0  0  0  0  0
    7.4330    1.6730   25.3540 C   0  0  0  0  0  0  0  0  0  0  0  0
    8.2150    2.5480   24.3850 C   0  0  0  0  0  0  0  0  0  0  0  0
    7.7060    3.6760   23.8720 F   0  0  0  0  0  0  0  0  0  0  0  0
    9.5490    0.6010   22.4830 C   0  0  0  0  0  0  0  0  0  0  0  0
  1  2  1  0
  2  3  1  0
  3  4  2  0
  3  5  1  0
  5  6  1  0
  6  7  2  0
  6  8  1  0
  8  9  1  0
  9 10  1  0
 10 11  2  0
 11 12  1  0
 12 13  1  0
 13 14  1  0
 12 15  2  0
 15 16  1  0
 16 17  1  0
 17 18  1  0
 18 19  2  0
 19 20  1  0
 20 21  1  0
 21 22  1  0
 22 23  1  0
 20 24  2  0
 24 25  1  0
 18 26  1  0
 25 26  2  0
 26 27  1  0
 10 28  1  0
 16 28  2  0
M  END
