BEN-DND-362d364a-12
     RDKit          3D

 22 23  0  0  0  0  0  0  0  0999 V2000
    8.9990   -5.7650   27.2990 C   0  0  0  0  0  0  0  0  0  0  0  0
    7.7340   -4.8820   28.1900 S   0  0  0  0  0  0  0  0  0  0  0  0
    8.2090   -3.5570   28.5000 O   0  0  0  0  0  0  0  0  0  0  0  0
    7.1690   -5.7560   29.1910 O   0  0  0  0  0  0  0  0  0  0  0  0
    6.5380   -4.7090   27.0500 N   0  0  0  0  0  0  0  0  0  0  0  0
    5.3510   -5.5610   27.0980 C   0  0  0  0  0  0  0  0  0  0  0  0
    4.6660   -5.4990   25.7390 C   0  0  2  0  0  0  0  0  0  0  0  0
    5.7730   -5.2770   24.7040 C   0  0  0  0  0  0  0  0  0  0  0  0
    6.5960   -4.3810   24.8530 O   0  0  0  0  0  0  0  0  0  0  0  0
    5.7810   -6.1730   23.5250 N   0  0  0  0  0  0  0  0  0  0  0  0
    5.8480   -5.5340   22.3060 C   0  0  0  0  0  0  0  0  0  0  0  0
    6.4960   -4.3410   22.3120 C   0  0  0  0  0  0  0  0  0  0  0  0
    6.5830   -3.5750   21.1660 C   0  0  0  0  0  0  0  0  0  0  0  0
    5.9840   -4.0620   20.0280 C   0  0  0  0  0  0  0  0  0  0  0  0
    5.3850   -5.2380   19.9830 N   0  0  0  0  0  0  0  0  0  0  0  0
    5.3390   -5.9580   21.1370 C   0  0  0  0  0  0  0  0  0  0  0  0
    3.5770   -4.4100   25.7160 C   0  0  0  0  0  0  0  0  0  0  0  0
    3.9850   -2.9290   25.7750 C   0  0  0  0  0  0  0  0  0  0  0  0
    2.9540   -1.9820   25.7610 C   0  0  0  0  0  0  0  0  0  0  0  0
    1.6140   -2.3620   25.6950 C   0  0  0  0  0  0  0  0  0  0  0  0
    1.2350   -3.7030   25.6360 C   0  0  0  0  0  0  0  0  0  0  0  0
    2.2100   -4.7140   25.6470 C   0  0  0  0  0  0  0  0  0  0  0  0
  1  2  1  0
  2  3  2  0
  2  4  2  0
  2  5  1  0
  5  6  1  0
  7  6  1  1
  7  8  1  0
  8  9  2  0
  8 10  1  0
 10 11  1  0
 11 12  2  0
 12 13  1  0
 13 14  2  0
 14 15  1  0
 11 16  1  0
 15 16  2  0
  7 17  1  0
 17 18  2  0
 18 19  1  0
 19 20  2  0
 20 21  1  0
 17 22  1  0
 21 22  2  0
M  END
