BEN-DND-031a96cc-5
     RDKit          3D

 21 22  0  0  0  0  0  0  0  0999 V2000
    5.2290    0.9250   18.1020 C   0  0  0  0  0  0  0  0  0  0  0  0
    6.1680   -0.2070   18.4470 C   0  0  0  0  0  0  0  0  0  0  0  0
    7.2810   -0.2330   17.9450 O   0  0  0  0  0  0  0  0  0  0  0  0
    5.6520   -1.2990   19.4090 C   0  0  0  0  0  0  0  0  0  0  0  0
    6.3970   -2.4880   19.4270 C   0  0  0  0  0  0  0  0  0  0  0  0
    5.9920   -3.5330   20.2660 C   0  0  0  0  0  0  0  0  0  0  0  0
    6.8450   -3.9580   21.2740 N   0  0  0  0  0  0  0  0  0  0  0  0
    7.7730   -3.1080   22.0290 C   0  0  0  0  0  0  0  0  0  0  0  0
    7.0770   -2.5100   23.0810 C   0  0  0  0  0  0  0  0  0  0  0  0
    6.0240   -3.2540   23.6400 C   0  0  0  0  0  0  0  0  0  0  0  0
    5.8450   -2.9700   25.0960 C   0  0  0  0  0  0  0  0  0  0  0  0
    4.7020   -3.2750   25.8000 O   0  0  0  0  0  0  0  0  0  0  0  0
    6.9830   -2.3680   25.6170 N   0  0  0  0  0  0  0  0  0  0  0  0
    6.7890   -1.4160   26.7230 C   0  0  0  0  0  0  0  0  0  0  0  0
    6.1880   -0.4040   26.6220 C   0  0  0  0  0  0  0  0  0  0  0  0
    5.7730    0.7340   27.3180 C   0  0  0  0  0  0  0  0  0  0  0  0
    6.2350    0.6640   28.6210 C   0  0  0  0  0  0  0  0  0  0  0  0
    6.9860   -0.4730   28.9870 C   0  0  0  0  0  0  0  0  0  0  0  0
    7.2660   -1.5080   28.0620 C   0  0  0  0  0  0  0  0  0  0  0  0
    6.3320   -4.7710   23.4370 C   0  0  0  0  0  0  0  0  0  0  0  0
    6.2660   -5.0380   22.0700 C   0  0  0  0  0  0  0  0  0  0  0  0
  1  2  1  0
  2  3  2  0
  2  4  1  0
  4  5  2  3
  5  6  1  0
  6  7  1  0
  7  8  1  0
  8  9  1  0
  9 10  1  0
 10 11  1  0
 11 12  2  0
 11 13  1  0
 13 14  1  0
 14 15  2  0
 15 16  1  0
 16 17  2  0
 17 18  1  0
 14 19  1  0
 18 19  2  0
 10 20  1  0
  7 21  1  0
 20 21  1  0
M  END
