BEN-VAN-5787f7d3-3
     RDKit          3D

 23 25  0  0  0  0  0  0  0  0999 V2000
    4.9430    0.8220   21.8800 C   0  0  0  0  0  0  0  0  0  0  0  0
    5.4810    0.6360   20.4930 C   0  0  0  0  0  0  0  0  0  0  0  0
    4.8290    1.3890   19.3460 C   0  0  0  0  0  0  0  0  0  0  0  0
    3.4820    2.4560   19.5090 Cl  0  0  0  0  0  0  0  0  0  0  0  0
    5.4790    1.1170   18.0080 C   0  0  0  0  0  0  0  0  0  0  0  0
    6.5260    0.2900   17.8700 N   0  0  0  0  0  0  0  0  0  0  0  0
    7.0330   -0.3430   18.9680 C   0  0  0  0  0  0  0  0  0  0  0  0
    6.5640   -0.2080   20.2540 C   0  0  0  0  0  0  0  0  0  0  0  0
    7.0430   -0.8240   21.3990 C   0  0  0  0  0  0  0  0  0  0  0  0
    8.2470   -0.5470   21.9870 C   0  0  0  0  0  0  0  0  0  0  0  0
    9.3350   -0.8210   22.9160 C   0  0  0  0  0  0  0  0  0  0  0  0
    8.4750   -2.1360   23.3270 C   0  0  0  0  0  0  0  0  0  0  0  0
    9.1770   -3.0760   23.6980 O   0  0  0  0  0  0  0  0  0  0  0  0
    6.9630   -2.1710   23.2620 N   0  0  0  0  0  0  0  0  0  0  0  0
    6.2000   -3.0810   24.0850 C   0  0  0  0  0  0  0  0  0  0  0  0
    4.9260   -2.6570   24.7970 N   0  0  0  0  0  0  0  0  0  0  0  0
    3.6370   -3.4210   24.7660 C   0  0  0  0  0  0  0  0  0  0  0  0
    2.8530   -2.8230   25.7790 C   0  0  0  0  0  0  0  0  0  0  0  0
    3.6980   -2.1050   26.6130 C   0  0  0  0  0  0  0  0  0  0  0  0
    4.9600   -1.9780   26.0010 C   0  0  0  0  0  0  0  0  0  0  0  0
    5.9020   -1.3840   26.4620 O   0  0  0  0  0  0  0  0  0  0  0  0
    6.3640   -1.7330   22.0950 C   0  0  0  0  0  0  0  0  0  0  0  0
    5.1600   -2.1920   21.7080 F   0  0  0  0  0  0  0  0  0  0  0  0
  1  2  1  0
  2  3  2  0
  3  4  1  0
  3  5  1  0
  5  6  2  0
  6  7  1  0
  2  8  1  0
  7  8  2  0
  8  9  1  0
  9 10  1  0
 10 11  2  0
 11 12  1  0
 12 13  2  0
 12 14  1  0
 14 15  1  0
 15 16  1  0
 16 17  1  0
 17 18  1  0
 18 19  1  0
 16 20  1  0
 19 20  1  0
 20 21  2  0
  9 22  2  0
 14 22  1  0
 22 23  1  0
M  END
