BEN-VAN-77cef4f8-10-chloroacetamide
     RDKit          3D

 28 30  0  0  0  0  0  0  0  0999 V2000
    7.1300   -3.1470   19.1140 C   0  0  0  0  0  0  0  0  0  0  0  0
    6.2960   -3.7720   20.1880 C   0  0  0  0  0  0  0  0  0  0  0  0
    5.3720   -4.5320   19.9130 O   0  0  0  0  0  0  0  0  0  0  0  0
    6.6260   -3.4820   21.5180 N   0  0  0  0  0  0  0  0  0  0  0  0
    6.1580   -4.2050   22.7000 C   0  0  0  0  0  0  0  0  0  0  0  0
    7.1960   -4.5700   23.5660 C   0  0  0  0  0  0  0  0  0  0  0  0
    8.3070   -3.6510   23.5660 O   0  0  0  0  0  0  0  0  0  0  0  0
    8.0260   -2.2880   23.1940 C   0  0  1  0  0  0  0  0  0  0  0  0
    9.2130   -1.5530   23.3070 C   0  0  0  0  0  0  0  0  0  0  0  0
   10.3910   -2.1680   24.0480 C   0  0  0  0  0  0  0  0  0  0  0  0
   11.6830   -1.4190   24.1910 C   0  0  0  0  0  0  0  0  0  0  0  0
   11.8020   -0.0680   23.5940 C   0  0  0  0  0  0  0  0  0  0  0  0
   12.9240    0.6290   23.6850 F   0  0  0  0  0  0  0  0  0  0  0  0
   10.6050    0.5090   22.8720 C   0  0  0  0  0  0  0  0  0  0  0  0
    9.3790   -0.2230   22.7510 C   0  0  0  0  0  0  0  0  0  0  0  0
    8.3530    0.4290   22.0660 C   0  0  0  0  0  0  0  0  0  0  0  0
    7.3160    1.0500   22.7720 C   0  0  2  0  0  0  0  0  0  0  0  0
    6.9360    0.4960   23.9940 C   0  0  0  0  0  0  0  0  0  0  0  0
    6.1420    1.1860   21.8780 N   0  0  0  0  0  0  0  0  0  0  0  0
    6.2690    0.8980   20.5320 C   0  0  0  0  0  0  0  0  0  0  0  0
    7.1640   -0.2470   20.2080 C   0  0  0  0  0  0  0  0  0  0  0  0
    7.3890   -0.6260   18.7760 C   0  0  0  0  0  0  0  0  0  0  0  0
    6.7650    0.0950   17.8140 C   0  0  0  0  0  0  0  0  0  0  0  0
    7.0850   -0.3460   16.4320 C   0  0  0  0  0  0  0  0  0  0  0  0
    7.4040   -0.7240   15.3990 N   0  0  0  0  0  0  0  0  0  0  0  0
    5.9220    1.1510   18.1940 C   0  0  0  0  0  0  0  0  0  0  0  0
    5.6710    1.5510   19.5010 N   0  0  0  0  0  0  0  0  0  0  0  0
    7.3050   -2.2200   21.8300 C   0  0  0  0  0  0  0  0  0  0  0  0
  1  2  1  0
  2  3  2  0
  2  4  1  0
  4  5  1  0
  5  6  1  0
  6  7  1  0
  7  8  1  0
  8  9  1  6
  9 10  2  0
 10 11  1  0
 11 12  2  0
 12 13  1  0
 12 14  1  0
  9 15  1  0
 14 15  2  0
 15 16  1  0
 16 17  1  0
 17 18  1  1
 17 19  1  0
 19 20  1  0
 20 21  2  0
 21 22  1  0
 22 23  2  0
 23 24  1  0
 24 25  3  0
 23 26  1  0
 20 27  1  0
 26 27  2  0
  4 28  1  0
  8 28  1  0
M  END
