BEN-VAN-ed886787-2
     RDKit          3D

 29 31  0  0  0  0  0  0  0  0999 V2000
   15.6980    2.3560   17.7020 C   0  0  0  0  0  0  0  0  0  0  0  0
   16.1920    2.0850   19.0280 C   0  0  0  0  0  0  0  0  0  0  0  0
   16.0250    3.1870   19.8360 N   0  0  0  0  0  0  0  0  0  0  0  0
   15.0580    3.2480   20.9770 C   0  0  0  0  0  0  0  0  0  0  0  0
   14.9560    4.6700   21.3710 C   0  0  0  0  0  0  0  0  0  0  0  0
   14.0980    5.1070   22.3450 C   0  0  0  0  0  0  0  0  0  0  0  0
   13.2310    4.1760   22.9830 C   0  0  0  0  0  0  0  0  0  0  0  0
   12.3500    4.6430   23.8820 F   0  0  0  0  0  0  0  0  0  0  0  0
   13.3560    2.8110   22.5860 C   0  0  0  0  0  0  0  0  0  0  0  0
   12.3840    2.0350   23.2920 C   0  0  0  0  0  0  0  0  0  0  0  0
   11.9490    0.6710   22.7740 C   0  0  0  0  0  0  0  0  0  0  0  0
   12.9830   -0.3260   22.4720 C   0  0  0  0  0  0  0  0  0  0  0  0
   12.3970   -1.5790   22.0180 C   0  0  0  0  0  0  0  0  0  0  0  0
   13.1620   -2.6170   21.6890 F   0  0  0  0  0  0  0  0  0  0  0  0
   10.9970   -1.6580   21.9380 C   0  0  0  0  0  0  0  0  0  0  0  0
    9.8630   -0.8020   22.1890 C   0  0  0  0  0  0  0  0  0  0  0  0
    9.3760   -2.0270   21.7520 N   0  0  0  0  0  0  0  0  0  0  0  0
    8.0120   -2.3690   22.2060 C   0  0  0  0  0  0  0  0  0  0  0  0
    7.1250   -1.3140   22.0050 C   0  0  0  0  0  0  0  0  0  0  0  0
    7.1380   -0.3280   22.7420 O   0  0  0  0  0  0  0  0  0  0  0  0
    6.2730   -1.5080   20.9330 N   0  0  0  0  0  0  0  0  0  0  0  0
    5.8380   -0.5450   20.0060 C   0  0  0  0  0  0  0  0  0  0  0  0
    4.7520    0.3100   20.1900 C   0  0  0  0  0  0  0  0  0  0  0  0
    4.4120    1.2270   19.2000 C   0  0  0  0  0  0  0  0  0  0  0  0
    5.1720    1.2730   18.0410 C   0  0  0  0  0  0  0  0  0  0  0  0
    6.2320    0.4650   17.8290 N   0  0  0  0  0  0  0  0  0  0  0  0
    6.5370   -0.4190   18.8070 C   0  0  0  0  0  0  0  0  0  0  0  0
   10.5870    0.3700   22.6170 C   0  0  0  0  0  0  0  0  0  0  0  0
   14.2630    2.3100   21.6380 N   0  0  0  0  0  0  0  0  0  0  0  0
  1  2  1  0
  2  3  1  0
  3  4  1  0
  4  5  2  0
  5  6  1  0
  6  7  2  0
  7  8  1  0
  7  9  1  0
  9 10  1  0
 10 11  1  0
 11 12  2  0
 12 13  1  0
 13 14  1  0
 13 15  2  0
 15 16  1  0
 16 17  1  0
 17 18  1  0
 18 19  1  0
 19 20  2  0
 19 21  1  0
 21 22  1  0
 22 23  2  0
 23 24  1  0
 24 25  2  0
 25 26  1  0
 22 27  1  0
 26 27  2  0
 11 28  1  0
 16 28  2  0
  4 29  1  0
  9 29  2  0
M  END
