BEN-VAN-77cef4f8-5-acrylamide
     RDKit          3D

 30 32  0  0  0  0  0  0  0  0999 V2000
    7.8930   -3.1970   19.3730 C   0  0  0  0  0  0  0  0  0  0  0  0
    6.6030   -2.4350   19.0960 C   0  0  0  0  0  0  0  0  0  0  0  0
    5.4530   -2.9530   19.9060 C   0  0  0  0  0  0  0  0  0  0  0  0
    4.7780   -3.8270   19.3890 O   0  0  0  0  0  0  0  0  0  0  0  0
    5.2650   -2.4470   21.2040 N   0  0  0  0  0  0  0  0  0  0  0  0
    5.0380   -3.4260   22.2570 C   0  0  0  0  0  0  0  0  0  0  0  0
    5.9870   -3.6370   23.2880 C   0  0  0  0  0  0  0  0  0  0  0  0
    6.8750   -2.5440   23.5570 O   0  0  0  0  0  0  0  0  0  0  0  0
    7.2650   -1.8680   22.3610 C   0  0  2  0  0  0  0  0  0  0  0  0
    8.2430   -0.9300   22.6570 C   0  0  0  0  0  0  0  0  0  0  0  0
    8.1570    0.3760   22.1140 C   0  0  0  0  0  0  0  0  0  0  0  0
    9.1630    1.3170   22.4240 C   0  0  0  0  0  0  0  0  0  0  0  0
    9.1030    2.5570   21.9240 F   0  0  0  0  0  0  0  0  0  0  0  0
   10.3160    0.8770   23.3450 C   0  0  0  0  0  0  0  0  0  0  0  0
   11.2940    1.7380   23.6670 F   0  0  0  0  0  0  0  0  0  0  0  0
   10.3260   -0.5750   23.8890 C   0  0  0  0  0  0  0  0  0  0  0  0
   11.3340   -1.0690   24.7310 C   0  0  0  0  0  0  0  0  0  0  0  0
   11.9900   -2.0500   24.3680 O   0  0  0  0  0  0  0  0  0  0  0  0
   13.2940   -1.6400   24.0130 C   0  0  2  0  0  0  0  0  0  0  0  0
   13.1310   -0.5250   23.1390 C   0  0  0  0  0  0  0  0  0  0  0  0
   13.9570   -2.6630   23.2010 N   0  0  0  0  0  0  0  0  0  0  0  0
   13.2370   -3.1120   22.0880 C   0  0  0  0  0  0  0  0  0  0  0  0
   12.0150   -2.5210   22.1060 C   0  0  0  0  0  0  0  0  0  0  0  0
   11.1470   -2.8470   21.1530 C   0  0  0  0  0  0  0  0  0  0  0  0
   11.5290   -3.8250   20.0860 C   0  0  0  0  0  0  0  0  0  0  0  0
   12.6530   -4.4270   19.9530 N   0  0  0  0  0  0  0  0  0  0  0  0
   13.5580   -4.0740   20.9840 C   0  0  0  0  0  0  0  0  0  0  0  0
   14.9610   -5.0520   20.6040 Cl  0  0  0  0  0  0  0  0  0  0  0  0
    9.2710   -1.3750   23.4960 C   0  0  0  0  0  0  0  0  0  0  0  0
    6.0270   -1.2920   21.6680 C   0  0  0  0  0  0  0  0  0  0  0  0
  1  2  1  0
  2  3  1  0
  3  4  2  0
  3  5  1  0
  5  6  1  0
  6  7  1  0
  7  8  1  0
  8  9  1  0
  9 10  1  1
 10 11  2  0
 11 12  1  0
 12 13  1  0
 12 14  2  0
 14 15  1  0
 14 16  1  0
 16 17  1  0
 17 18  1  0
 18 19  1  0
 19 20  1  6
 19 21  1  0
 21 22  1  0
 22 23  2  0
 23 24  1  0
 24 25  2  0
 25 26  1  0
 22 27  1  0
 26 27  2  0
 27 28  1  0
 10 29  1  0
 16 29  2  0
  5 30  1  0
  9 30  1  0
M  END
