BEN-VAN-d2b455e2-20
     RDKit          3D

 28 30  0  0  0  0  0  0  0  0999 V2000
    2.5810    3.0140   19.0560 C   0  0  0  0  0  0  0  0  0  0  0  0
    2.8660    1.6520   19.4620 N   0  0  0  0  0  0  0  0  0  0  0  0
    4.1840    1.2560   19.4990 C   0  0  0  0  0  0  0  0  0  0  0  0
    5.1420    1.5920   20.5380 C   0  0  0  0  0  0  0  0  0  0  0  0
    6.4050    1.1870   20.5310 N   0  0  0  0  0  0  0  0  0  0  0  0
    7.1170    0.4170   19.6530 C   0  0  0  0  0  0  0  0  0  0  0  0
    7.8440    0.9520   20.8820 C   0  0  0  0  0  0  0  0  0  0  0  0
    7.4550    2.6000   21.2980 S   0  0  0  0  0  0  0  0  0  0  0  0
    8.4670    2.7110   22.6400 C   0  0  0  0  0  0  0  0  0  0  0  0
    9.1810    1.3960   22.8230 C   0  0  0  0  0  0  0  0  0  0  0  0
    8.7840    0.3820   21.7660 C   0  0  0  0  0  0  0  0  0  0  0  0
    9.3240   -0.9470   21.7240 C   0  0  2  0  0  0  0  0  0  0  0  0
    8.7200   -1.7690   22.6040 C   0  0  0  0  0  0  0  0  0  0  0  0
    9.1970   -1.5710   23.9120 C   0  0  0  0  0  0  0  0  0  0  0  0
   10.4740   -0.8820   23.7560 C   0  0  0  0  0  0  0  0  0  0  0  0
   10.7550   -0.8760   22.3220 C   0  0  1  0  0  0  0  0  0  0  0  0
   11.6720   -1.8530   21.9540 C   0  0  0  0  0  0  0  0  0  0  0  0
   12.1820   -1.9610   20.8480 O   0  0  0  0  0  0  0  0  0  0  0  0
   12.0970   -2.7430   22.8800 N   0  0  0  0  0  0  0  0  0  0  0  0
   11.3720   -3.0700   23.9830 C   0  0  0  0  0  0  0  0  0  0  0  0
   10.1900   -3.3570   23.9140 O   0  0  0  0  0  0  0  0  0  0  0  0
   12.1230   -3.0550   25.0820 O   0  0  0  0  0  0  0  0  0  0  0  0
   13.3570   -2.4530   24.8410 C   0  0  0  0  0  0  0  0  0  0  0  0
   14.1330   -2.6570   25.9240 F   0  0  0  0  0  0  0  0  0  0  0  0
   13.9540   -3.0090   23.7850 F   0  0  0  0  0  0  0  0  0  0  0  0
   13.2180   -1.1350   24.6370 F   0  0  0  0  0  0  0  0  0  0  0  0
    6.1580    0.1160   18.6750 N   0  0  0  0  0  0  0  0  0  0  0  0
    4.8420    0.4880   18.5940 C   0  0  0  0  0  0  0  0  0  0  0  0
  1  2  1  0
  2  3  1  0
  3  4  2  0
  4  5  1  0
  5  6  2  0
  6  7  1  0
  7  8  1  0
  8  9  1  0
  9 10  2  0
  7 11  2  0
 10 11  1  0
 12 11  1  1
 12 13  1  0
 13 14  1  0
 14 15  1  0
 12 16  1  0
 15 16  1  0
 16 17  1  1
 17 18  2  0
 17 19  1  0
 19 20  1  0
 20 21  2  0
 20 22  1  0
 22 23  1  0
 23 24  1  0
 23 25  1  0
 23 26  1  0
  6 27  1  0
  3 28  1  0
 27 28  2  0
M  END
