BEN-VAN-ed886787-13-chloroacetamide
     RDKit          3D

 31 33  0  0  0  0  0  0  0  0999 V2000
    7.5150   -4.4650   20.7830 C   0  0  0  0  0  0  0  0  0  0  0  0
    6.8770   -3.2380   20.2130 C   0  0  0  0  0  0  0  0  0  0  0  0
    5.9300   -3.3780   19.3970 O   0  0  0  0  0  0  0  0  0  0  0  0
    7.3360   -1.8220   20.6010 C   0  0  0  0  0  0  0  0  0  0  0  0
    6.8840   -0.7050   19.6020 C   0  0  0  0  0  0  0  0  0  0  0  0
    7.2650    0.7710   19.9030 C   0  0  0  0  0  0  0  0  0  0  0  0
    8.0770    0.9180   21.1890 C   0  0  0  0  0  0  0  0  0  0  0  0
    8.5020    2.1930   21.6100 N   0  0  0  0  0  0  0  0  0  0  0  0
    7.5170    3.2010   22.0240 C   0  0  0  0  0  0  0  0  0  0  0  0
    8.2620    4.4520   22.4330 C   0  0  0  0  0  0  0  0  0  0  0  0
    8.4710   -0.1080   22.0420 N   0  0  0  0  0  0  0  0  0  0  0  0
    8.1110   -1.4870   21.7700 C   0  0  0  0  0  0  0  0  0  0  0  0
    8.6470   -2.3290   22.8250 C   0  0  0  0  0  0  0  0  0  0  0  0
    9.7580   -1.7200   23.4820 C   0  0  0  0  0  0  0  0  0  0  0  0
    8.6250   -1.5790   24.2250 C   0  0  0  0  0  0  0  0  0  0  0  0
    7.2740   -2.0550   23.9310 C   0  0  0  0  0  0  0  0  0  0  0  0
    6.0700   -2.5560   23.5300 N   0  0  0  0  0  0  0  0  0  0  0  0
    5.0660   -1.6790   23.2750 C   0  0  0  0  0  0  0  0  0  0  0  0
    5.2430   -0.5310   22.4870 C   0  0  0  0  0  0  0  0  0  0  0  0
    5.9410    0.4160   22.8390 O   0  0  0  0  0  0  0  0  0  0  0  0
    4.5370   -0.5820   21.3130 N   0  0  0  0  0  0  0  0  0  0  0  0
    4.7590    0.1460   20.0320 C   0  0  0  0  0  0  0  0  0  0  0  0
    4.3400    1.5980   20.0360 C   0  0  0  0  0  0  0  0  0  0  0  0
    4.5210    2.3440   18.8690 C   0  0  0  0  0  0  0  0  0  0  0  0
    5.0820    1.7750   17.7050 C   0  0  0  0  0  0  0  0  0  0  0  0
    5.4790    0.3710   17.7400 N   0  0  0  0  0  0  0  0  0  0  0  0
    5.3010   -0.3830   18.8770 C   0  0  0  0  0  0  0  0  0  0  0  0
    7.6340   -2.7860   22.4540 C   0  0  0  0  0  0  0  0  0  0  0  0
    9.0000   -2.9310   21.6000 C   0  0  0  0  0  0  0  0  0  0  0  0
    9.9850   -2.3420   22.2510 C   0  0  0  0  0  0  0  0  0  0  0  0
    8.4170   -2.3840   22.9160 Cl  0  0  0  0  0  0  0  0  0  0  0  0
  1  2  1  0
  2  3  2  0
  2  4  1  0
  4  5  2  0
  5  6  1  0
  6  7  2  0
  7  8  1  0
  8  9  1  0
  9 10  1  0
  7 11  1  0
  4 12  1  0
 11 12  2  0
 12 13  1  0
 13 14  1  0
 14 15  2  0
 15 16  1  0
 16 17  1  0
 17 18  1  0
 18 19  1  0
 19 20  2  0
 19 21  1  0
 21 22  1  0
 22 23  2  0
 23 24  1  0
 24 25  2  0
 25 26  1  0
 22 27  1  0
 26 27  2  0
 16 28  2  0
 28 29  1  0
 14 30  1  0
 29 30  2  0
 30 31  1  0
M  END
