BEN-VAN-77cef4f8-4-chloroacetamide
     RDKit          3D

 28 30  0  0  0  0  0  0  0  0999 V2000
    7.1270   -3.0310   18.9190 C   0  0  0  0  0  0  0  0  0  0  0  0
    6.2170   -3.4510   20.0600 C   0  0  0  0  0  0  0  0  0  0  0  0
    5.3520   -4.2980   19.8050 O   0  0  0  0  0  0  0  0  0  0  0  0
    6.3620   -2.9090   21.3650 N   0  0  0  0  0  0  0  0  0  0  0  0
    6.0860   -3.7790   22.4860 C   0  0  0  0  0  0  0  0  0  0  0  0
    7.1360   -4.4190   23.1560 C   0  0  0  0  0  0  0  0  0  0  0  0
    8.2760   -3.5700   23.3590 O   0  0  0  0  0  0  0  0  0  0  0  0
    8.6050   -2.6500   22.2960 C   0  0  2  0  0  0  0  0  0  0  0  0
    9.5820   -1.7000   22.8660 C   0  0  0  0  0  0  0  0  0  0  0  0
   10.7770   -1.4050   22.2290 C   0  0  0  0  0  0  0  0  0  0  0  0
   11.7630   -0.5280   22.6650 C   0  0  0  0  0  0  0  0  0  0  0  0
   11.5010    0.1220   23.8870 C   0  0  0  0  0  0  0  0  0  0  0  0
   12.4000    0.9650   24.3340 F   0  0  0  0  0  0  0  0  0  0  0  0
   10.1550   -0.2080   24.6280 C   0  0  0  0  0  0  0  0  0  0  0  0
    9.6480    0.3740   25.9970 C   0  0  0  0  0  0  0  0  0  0  0  0
    8.5370   -0.0340   26.3680 O   0  0  0  0  0  0  0  0  0  0  0  0
    8.0310    0.4520   27.6100 C   0  0  2  0  0  0  0  0  0  0  0  0
    9.0950    0.3690   28.6710 C   0  0  0  0  0  0  0  0  0  0  0  0
    6.9420   -0.3400   28.0070 N   0  0  0  0  0  0  0  0  0  0  0  0
    6.9550   -1.8110   28.1960 C   0  0  0  0  0  0  0  0  0  0  0  0
    8.0300   -2.5280   27.6870 C   0  0  0  0  0  0  0  0  0  0  0  0
    8.0480   -3.9070   27.8580 C   0  0  0  0  0  0  0  0  0  0  0  0
    6.9780   -4.5090   28.5360 C   0  0  0  0  0  0  0  0  0  0  0  0
    5.9110   -3.8800   29.0530 N   0  0  0  0  0  0  0  0  0  0  0  0
    5.9350   -2.5350   28.8640 C   0  0  0  0  0  0  0  0  0  0  0  0
    4.5580   -1.7350   29.5350 Cl  0  0  0  0  0  0  0  0  0  0  0  0
    9.2920   -1.1000   24.0560 C   0  0  0  0  0  0  0  0  0  0  0  0
    7.4090   -1.9260   21.6500 C   0  0  0  0  0  0  0  0  0  0  0  0
  1  2  1  0
  2  3  2  0
  2  4  1  0
  4  5  1  0
  5  6  1  0
  6  7  1  0
  7  8  1  0
  8  9  1  1
  9 10  2  0
 10 11  1  0
 11 12  2  0
 12 13  1  0
 12 14  1  0
 14 15  1  0
 15 16  1  0
 16 17  1  0
 17 18  1  1
 17 19  1  0
 19 20  1  0
 20 21  2  0
 21 22  1  0
 22 23  2  0
 23 24  1  0
 20 25  1  0
 24 25  2  0
 25 26  1  0
  9 27  1  0
 14 27  2  0
  4 28  1  0
  8 28  1  0
M  END
