BEN-VAN-d8fd1356-21
     RDKit          3D

 22 24  0  0  0  0  0  0  0  0999 V2000
   12.3290    5.1470   23.5040 C   0  0  0  0  0  0  0  0  0  0  0  0
   12.6070    3.8160   22.8100 C   0  0  0  0  0  0  0  0  0  0  0  0
   11.7680    2.5600   23.2470 C   0  0  0  0  0  0  0  0  0  0  0  0
   10.4840    2.6740   24.0300 C   0  0  0  0  0  0  0  0  0  0  0  0
    9.8860    1.4870   24.2930 N   0  0  0  0  0  0  0  0  0  0  0  0
   10.6760    0.4890   23.7310 C   0  0  0  0  0  0  0  0  0  0  0  0
   10.5850   -1.0770   23.6300 C   0  0  0  0  0  0  0  0  0  0  0  0
    9.6470   -2.0010   24.0920 C   0  0  0  0  0  0  0  0  0  0  0  0
    8.4450   -1.5550   24.5260 N   0  0  0  0  0  0  0  0  0  0  0  0
    8.4070   -1.4240   26.0040 C   0  0  0  0  0  0  0  0  0  0  0  0
    8.7300   -2.6290   26.6040 C   0  0  0  0  0  0  0  0  0  0  0  0
    7.9040   -3.5240   26.1510 N   0  0  0  0  0  0  0  0  0  0  0  0
    8.1230   -4.8130   26.7080 C   0  0  0  0  0  0  0  0  0  0  0  0
    9.6160   -5.3730   26.7700 C   0  0  0  0  0  0  0  0  0  0  0  0
    7.1960   -5.4950   27.1420 O   0  0  0  0  0  0  0  0  0  0  0  0
    7.7420   -3.6410   24.6920 C   0  0  0  0  0  0  0  0  0  0  0  0
    7.5530   -2.4020   24.0680 C   0  0  0  0  0  0  0  0  0  0  0  0
   11.5820   -1.8130   22.9580 C   0  0  0  0  0  0  0  0  0  0  0  0
   12.6870   -1.2970   22.3650 C   0  0  0  0  0  0  0  0  0  0  0  0
   13.5330   -2.0970   21.7670 F   0  0  0  0  0  0  0  0  0  0  0  0
   12.8650    0.1820   22.4280 C   0  0  0  0  0  0  0  0  0  0  0  0
   11.9030    1.1380   23.0670 C   0  0  0  0  0  0  0  0  0  0  0  0
  1  2  1  0
  2  3  1  0
  3  4  2  0
  4  5  1  0
  5  6  1  0
  6  7  1  0
  7  8  1  0
  8  9  1  0
  9 10  1  0
 10 11  1  0
 11 12  1  0
 12 13  1  0
 13 14  1  0
 13 15  2  0
 12 16  1  0
  9 17  1  0
 16 17  1  0
  7 18  2  0
 18 19  1  0
 19 20  1  0
 19 21  2  0
  3 22  1  0
  6 22  2  0
 21 22  1  0
M  END
