BEN-VAN-5787f7d3-15
     RDKit          3D

 33 36  0  0  0  0  0  0  0  0999 V2000
   11.7820   -2.1060   23.8860 C   0  0  0  0  0  0  0  0  0  0  0  0
   10.3480   -2.4530   23.5920 C   0  0  0  0  0  0  0  0  0  0  0  0
    9.8800   -2.2960   22.4650 O   0  0  0  0  0  0  0  0  0  0  0  0
    9.2690   -1.0800   22.2600 C   0  0  0  0  0  0  0  0  0  0  0  0
    9.7340    0.2550   22.7020 C   0  0  0  0  0  0  0  0  0  0  0  0
    9.1270    1.4310   22.5050 N   0  0  0  0  0  0  0  0  0  0  0  0
    7.9180    1.7050   21.8610 C   0  0  0  0  0  0  0  0  0  0  0  0
    6.6880    1.7780   21.1800 C   0  0  0  0  0  0  0  0  0  0  0  0
    5.5750    2.1440   21.9150 C   0  0  0  0  0  0  0  0  0  0  0  0
    5.7170    2.4100   23.2840 C   0  0  0  0  0  0  0  0  0  0  0  0
    4.3140    2.2510   21.3210 C   0  0  0  0  0  0  0  0  0  0  0  0
    4.0700    1.9800   19.8490 C   0  0  0  0  0  0  0  0  0  0  0  0
    2.8650    2.0900   19.2820 F   0  0  0  0  0  0  0  0  0  0  0  0
    5.2600    1.5960   19.1560 N   0  0  0  0  0  0  0  0  0  0  0  0
    6.4580    1.5060   19.8060 C   0  0  0  0  0  0  0  0  0  0  0  0
    7.4330    1.1190   19.0100 F   0  0  0  0  0  0  0  0  0  0  0  0
    7.5610    0.3800   21.4670 C   0  0  0  0  0  0  0  0  0  0  0  0
    8.0910   -0.8970   21.5890 C   0  0  0  0  0  0  0  0  0  0  0  0
    7.2140   -1.7180   20.9350 C   0  0  0  0  0  0  0  0  0  0  0  0
    6.7090   -0.9720   19.9640 C   0  0  0  0  0  0  0  0  0  0  0  0
    5.8180   -1.4670   19.1810 C   0  0  0  0  0  0  0  0  0  0  0  0
    5.2330   -0.4030   17.9830 Cl  0  0  0  0  0  0  0  0  0  0  0  0
    5.3810   -2.7560   19.3190 C   0  0  0  0  0  0  0  0  0  0  0  0
    5.8220   -3.8400   20.3660 C   0  0  0  0  0  0  0  0  0  0  0  0
    6.5170   -4.5150   21.4980 C   0  0  0  0  0  0  0  0  0  0  0  0
    7.6960   -4.3480   21.6800 O   0  0  0  0  0  0  0  0  0  0  0  0
    5.6980   -5.2970   22.2400 N   0  0  0  0  0  0  0  0  0  0  0  0
    4.8040   -4.7700   23.1040 C   0  0  0  0  0  0  0  0  0  0  0  0
    4.5580   -3.4380   23.7190 C   0  0  0  0  0  0  0  0  0  0  0  0
    3.4630   -3.6730   24.5030 C   0  0  0  0  0  0  0  0  0  0  0  0
    3.1260   -5.0110   24.3380 C   0  0  0  0  0  0  0  0  0  0  0  0
    3.8730   -5.6200   23.5560 O   0  0  0  0  0  0  0  0  0  0  0  0
    6.7980   -3.0400   21.1070 C   0  0  0  0  0  0  0  0  0  0  0  0
  1  2  1  0
  2  3  1  0
  3  4  1  0
  4  5  2  0
  5  6  1  0
  6  7  2  0
  7  8  1  0
  8  9  2  0
  9 10  1  0
  9 11  1  0
 11 12  2  0
 12 13  1  0
 12 14  1  0
  8 15  1  0
 14 15  2  0
 15 16  1  0
  7 17  1  0
  4 18  1  0
 17 18  2  0
 18 19  1  0
 19 20  2  0
 20 21  1  0
 21 22  1  0
 21 23  2  0
 23 24  1  0
 24 25  1  0
 25 26  2  0
 25 27  1  0
 27 28  1  0
 28 29  2  0
 29 30  1  0
 30 31  2  0
 28 32  1  0
 31 32  1  0
 19 33  1  0
 24 33  2  0
M  END
