BEN-DND-362d364a-3-acrylamide
     RDKit          3D

 35 37  0  0  0  0  0  0  0  0999 V2000
    6.6630   -3.5130   19.7050 C   0  0  0  0  0  0  0  0  0  0  0  0
    6.3800   -4.0550   21.1020 C   0  0  0  0  0  0  0  0  0  0  0  0
    5.9550   -2.9190   22.0030 C   0  0  0  0  0  0  0  0  0  0  0  0
    4.8450   -3.2860   21.5620 O   0  0  0  0  0  0  0  0  0  0  0  0
    7.4490   -2.8610   22.2350 C   0  0  0  0  0  0  0  0  0  0  0  0
    8.4850   -2.3610   23.1240 C   0  0  0  0  0  0  0  0  0  0  0  0
    9.5540   -2.7880   22.5380 N   0  0  0  0  0  0  0  0  0  0  0  0
    9.4380   -2.0740   23.6970 C   0  0  0  0  0  0  0  0  0  0  0  0
    8.2080   -2.2300   23.1340 N   0  0  0  0  0  0  0  0  0  0  0  0
    8.1410   -1.3130   22.0570 C   0  0  0  0  0  0  0  0  0  0  0  0
    7.2770   -0.0130   21.9510 C   0  0  0  0  0  0  0  0  0  0  0  0
    8.4620   -1.4530   24.5740 C   0  0  0  0  0  0  0  0  0  0  0  0
    7.1490   -0.9420   25.2140 C   0  0  0  0  0  0  0  0  0  0  0  0
    5.9780   -2.0210   25.3390 C   0  0  0  0  0  0  0  0  0  0  0  0
    5.9930   -2.9500   26.5110 N   0  0  0  0  0  0  0  0  0  0  0  0
    5.6100   -4.3410   26.2070 C   0  0  2  0  0  0  0  0  0  0  0  0
    5.6260   -4.5510   24.8310 C   0  0  0  0  0  0  0  0  0  0  0  0
    5.3130   -5.9290   24.4240 N   0  0  0  0  0  0  0  0  0  0  0  0
    5.4700   -6.2090   23.0770 C   0  0  0  0  0  0  0  0  0  0  0  0
    6.7090   -6.6250   22.6360 C   0  0  0  0  0  0  0  0  0  0  0  0
    4.4340   -6.0720   22.1970 O   0  0  0  0  0  0  0  0  0  0  0  0
    4.2730   -6.5650   25.2370 C   0  0  0  0  0  0  0  0  0  0  0  0
    4.2420   -6.0450   26.6810 C   0  0  0  0  0  0  0  0  0  0  0  0
    4.5780   -4.5980   26.7000 N   0  0  0  0  0  0  0  0  0  0  0  0
    3.8670   -3.6090   27.8810 S   0  0  0  0  0  0  0  0  0  0  0  0
    4.6730   -2.4240   28.0500 O   0  0  0  0  0  0  0  0  0  0  0  0
    3.5440   -4.4440   29.0220 O   0  0  0  0  0  0  0  0  0  0  0  0
    2.3240   -3.0990   27.1480 C   0  0  0  0  0  0  0  0  0  0  0  0
    1.7780   -3.9560   26.1790 C   0  0  0  0  0  0  0  0  0  0  0  0
    0.5660   -3.6240   25.5630 C   0  0  0  0  0  0  0  0  0  0  0  0
   -0.0990   -2.4490   25.9090 C   0  0  0  0  0  0  0  0  0  0  0  0
    0.4470   -1.5930   26.8740 C   0  0  0  0  0  0  0  0  0  0  0  0
   -0.3750   -0.1410   27.2930 Cl  0  0  0  0  0  0  0  0  0  0  0  0
    1.6580   -1.9120   27.4970 C   0  0  0  0  0  0  0  0  0  0  0  0
    7.5360   -2.0280   23.5580 C   0  0  0  0  0  0  0  0  0  0  0  0
  1  2  1  0
  2  3  1  0
  3  4  2  0
  3  5  1  0
  5  6  2  0
  6  7  1  0
  7  8  2  0
  8  9  1  0
  9 10  1  0
 10 11  1  0
  8 12  1  0
 12 13  1  0
 13 14  1  0
 14 15  1  0
 16 15  1  6
 16 17  1  0
 17 18  1  0
 18 19  1  0
 19 20  1  0
 19 21  2  0
 18 22  1  0
 22 23  1  0
 16 24  1  0
 23 24  1  0
 24 25  1  0
 25 26  2  0
 25 27  2  0
 25 28  1  0
 28 29  2  0
 29 30  1  0
 30 31  2  0
 31 32  1  0
 32 33  1  0
 28 34  1  0
 32 34  2  0
  5 35  1  0
 12 35  2  0
M  END
