BEN-VAN-ed886787-11-acrylamide
     RDKit          3D

 32 34  0  0  0  0  0  0  0  0999 V2000
    7.3270   -4.0540   20.1840 C   0  0  0  0  0  0  0  0  0  0  0  0
    7.0820   -3.7870   21.6420 C   0  0  0  0  0  0  0  0  0  0  0  0
    6.1000   -2.6550   21.9780 C   0  0  0  0  0  0  0  0  0  0  0  0
    5.0550   -3.4140   21.3910 O   0  0  0  0  0  0  0  0  0  0  0  0
    7.6070   -2.1210   22.5700 C   0  0  0  0  0  0  0  0  0  0  0  0
    6.6060   -2.6250   23.6050 C   0  0  0  0  0  0  0  0  0  0  0  0
    6.7960   -2.7110   25.1200 C   0  0  0  0  0  0  0  0  0  0  0  0
    8.1320   -2.2540   25.8280 C   0  0  0  0  0  0  0  0  0  0  0  0
    8.4280   -2.2410   27.2410 N   0  0  0  0  0  0  0  0  0  0  0  0
    7.7170   -1.0760   27.9840 C   0  0  0  0  0  0  0  0  0  0  0  0
    6.2550   -1.0580   27.9040 C   0  0  0  0  0  0  0  0  0  0  0  0
    9.0920   -1.7490   24.8570 N   0  0  0  0  0  0  0  0  0  0  0  0
    8.8900   -1.6990   23.4130 C   0  0  0  0  0  0  0  0  0  0  0  0
   10.2090   -1.0210   22.8750 C   0  0  0  0  0  0  0  0  0  0  0  0
   11.6490   -1.3190   23.4230 C   0  0  0  0  0  0  0  0  0  0  0  0
   11.0570   -0.2630   23.3030 C   0  0  0  0  0  0  0  0  0  0  0  0
   10.5090    0.7180   23.1930 C   0  0  0  0  0  0  0  0  0  0  0  0
    9.6070    1.4580   22.9310 O   0  0  0  0  0  0  0  0  0  0  0  0
    8.2970    0.9660   22.7170 C   0  0  0  0  0  0  0  0  0  0  0  0
    8.3240    0.6660   21.3870 C   0  0  0  0  0  0  0  0  0  0  0  0
    9.0720    1.3800   20.7280 O   0  0  0  0  0  0  0  0  0  0  0  0
    7.5140   -0.3990   20.8060 N   0  0  0  0  0  0  0  0  0  0  0  0
    6.6890    0.1190   19.6940 C   0  0  0  0  0  0  0  0  0  0  0  0
    5.5740    0.7690   20.1910 C   0  0  0  0  0  0  0  0  0  0  0  0
    4.6660    1.3790   19.3530 C   0  0  0  0  0  0  0  0  0  0  0  0
    4.9940    1.2850   17.8240 C   0  0  0  0  0  0  0  0  0  0  0  0
    6.0810    0.6430   17.4260 N   0  0  0  0  0  0  0  0  0  0  0  0
    6.9870    0.0210   18.3720 C   0  0  0  0  0  0  0  0  0  0  0  0
    9.5080   -0.7400   22.6760 C   0  0  0  0  0  0  0  0  0  0  0  0
    9.7020   -2.4250   22.5830 C   0  0  0  0  0  0  0  0  0  0  0  0
   10.7730   -1.8200   23.0450 C   0  0  0  0  0  0  0  0  0  0  0  0
   11.5840   -3.3330   23.2680 Cl  0  0  0  0  0  0  0  0  0  0  0  0
  1  2  1  0
  2  3  1  0
  3  4  2  0
  3  5  1  0
  5  6  2  0
  6  7  1  0
  7  8  2  0
  8  9  1  0
  9 10  1  0
 10 11  1  0
  8 12  1  0
  5 13  1  0
 12 13  2  0
 13 14  1  0
 14 15  1  0
 15 16  2  0
 16 17  1  0
 17 18  1  0
 18 19  1  0
 19 20  1  0
 20 21  2  0
 20 22  1  0
 22 23  1  0
 23 24  2  0
 24 25  1  0
 25 26  2  0
 26 27  1  0
 23 28  1  0
 27 28  2  0
 17 29  2  0
 29 30  1  0
 15 31  1  0
 30 31  2  0
 31 32  1  0
M  END
