BEN-VAN-5787f7d3-9
     RDKit          3D

 32 35  0  0  0  0  0  0  0  0999 V2000
    7.9260   -0.4300   26.1360 C   0  0  0  0  0  0  0  0  0  0  0  0
    6.7740   -0.3190   27.1040 C   0  0  0  0  0  0  0  0  0  0  0  0
    5.6780   -0.0490   26.6440 O   0  0  0  0  0  0  0  0  0  0  0  0
    5.6630    0.0740   25.2750 C   0  0  0  0  0  0  0  0  0  0  0  0
    5.3300   -0.1900   23.8810 C   0  0  0  0  0  0  0  0  0  0  0  0
    5.1420   -0.2750   22.4520 C   0  0  0  0  0  0  0  0  0  0  0  0
    5.5120    0.1350   21.1650 C   0  0  0  0  0  0  0  0  0  0  0  0
    4.5570    0.9920   20.5920 C   0  0  0  0  0  0  0  0  0  0  0  0
    4.6270    1.5580   19.3020 N   0  0  0  0  0  0  0  0  0  0  0  0
    5.6880    1.2180   18.6140 C   0  0  0  0  0  0  0  0  0  0  0  0
    6.6980    0.3080   19.2380 C   0  0  0  0  0  0  0  0  0  0  0  0
    6.7880   -0.3940   20.6290 C   0  0  0  0  0  0  0  0  0  0  0  0
    6.6160   -0.9420   22.0330 C   0  0  0  0  0  0  0  0  0  0  0  0
    4.2590   -1.1550   22.9390 C   0  0  0  0  0  0  0  0  0  0  0  0
    3.8370   -1.6810   24.1990 N   0  0  0  0  0  0  0  0  0  0  0  0
    3.7610   -3.1010   23.9320 C   0  0  0  0  0  0  0  0  0  0  0  0
    4.6050   -3.3880   22.8600 C   0  0  0  0  0  0  0  0  0  0  0  0
    4.7160   -4.6790   22.3700 C   0  0  0  0  0  0  0  0  0  0  0  0
    5.7400   -5.0480   21.0590 Cl  0  0  0  0  0  0  0  0  0  0  0  0
    3.9950   -5.6860   22.9350 C   0  0  0  0  0  0  0  0  0  0  0  0
    3.1690   -5.4040   23.9960 C   0  0  0  0  0  0  0  0  0  0  0  0
    2.6140   -6.7670   24.3090 C   0  0  0  0  0  0  0  0  0  0  0  0
    1.4730   -6.9650   24.7230 O   0  0  0  0  0  0  0  0  0  0  0  0
    3.6550   -7.6100   24.0200 N   0  0  0  0  0  0  0  0  0  0  0  0
    4.8580   -6.8660   23.9040 C   0  0  0  0  0  0  0  0  0  0  0  0
    5.8900   -6.7870   23.0220 C   0  0  0  0  0  0  0  0  0  0  0  0
    6.8000   -5.7240   23.5830 C   0  0  0  0  0  0  0  0  0  0  0  0
    6.1890   -5.3030   24.7360 C   0  0  0  0  0  0  0  0  0  0  0  0
    5.0360   -5.9830   24.9380 O   0  0  0  0  0  0  0  0  0  0  0  0
    3.0130   -4.1240   24.5380 C   0  0  0  0  0  0  0  0  0  0  0  0
    4.6330   -1.1630   25.3770 C   0  0  0  0  0  0  0  0  0  0  0  0
    4.5300   -1.6680   26.5000 O   0  0  0  0  0  0  0  0  0  0  0  0
  1  2  1  0
  2  3  1  0
  3  4  1  0
  4  5  2  0
  5  6  1  0
  6  7  1  0
  7  8  2  0
  8  9  1  0
  9 10  2  0
 10 11  1  0
  7 12  1  0
 11 12  2  0
 12 13  1  0
  6 14  2  0
 14 15  1  0
 15 16  1  0
 16 17  2  0
 17 18  1  0
 18 19  1  0
 18 20  2  0
 20 21  1  0
 21 22  1  0
 22 23  2  0
 22 24  1  0
 24 25  1  0
 25 26  2  0
 26 27  1  0
 27 28  2  0
 25 29  1  0
 28 29  1  0
 16 30  1  0
 21 30  2  0
  4 31  1  0
 15 31  1  0
 31 32  2  0
M  END
