BEN-VAN-77cef4f8-7-acrylamide
     RDKit          3D

 30 32  0  0  0  0  0  0  0  0999 V2000
    7.0200   -5.6970   20.5630 C   0  0  0  0  0  0  0  0  0  0  0  0
    5.6440   -6.2980   20.8420 C   0  0  0  0  0  0  0  0  0  0  0  0
    4.8410   -5.2770   21.5730 C   0  0  0  0  0  0  0  0  0  0  0  0
    4.5210   -4.4740   22.4210 O   0  0  0  0  0  0  0  0  0  0  0  0
    6.0380   -5.4760   22.3910 C   0  0  0  0  0  0  0  0  0  0  0  0
    5.1030   -4.5830   23.1540 C   0  0  0  0  0  0  0  0  0  0  0  0
    5.3210   -3.9120   24.5350 C   0  0  0  0  0  0  0  0  0  0  0  0
    6.5020   -4.3210   24.8770 C   0  0  0  0  0  0  0  0  0  0  0  0
    6.7180   -3.6210   26.1060 N   0  0  0  0  0  0  0  0  0  0  0  0
    8.0590   -3.0880   25.9660 C   0  0  1  0  0  0  0  0  0  0  0  0
    8.8560   -4.1840   25.5830 C   0  0  0  0  0  0  0  0  0  0  0  0
    8.1960   -1.8550   24.9600 C   0  0  0  0  0  0  0  0  0  0  0  0
    9.6000   -1.0820   24.8780 C   0  0  0  0  0  0  0  0  0  0  0  0
   10.8590   -0.3900   24.8040 C   0  0  0  0  0  0  0  0  0  0  0  0
   11.8370   -0.0380   23.7370 C   0  0  0  0  0  0  0  0  0  0  0  0
   12.9470    0.6350   23.9910 F   0  0  0  0  0  0  0  0  0  0  0  0
   11.5330   -0.4290   22.5150 C   0  0  0  0  0  0  0  0  0  0  0  0
   10.3540   -1.0840   22.3220 C   0  0  0  0  0  0  0  0  0  0  0  0
    9.4890   -1.3730   23.3930 C   0  0  0  0  0  0  0  0  0  0  0  0
    8.3510   -2.0080   22.8810 C   0  0  1  0  0  0  0  0  0  0  0  0
    8.3030   -2.1330   21.3550 C   0  0  0  0  0  0  0  0  0  0  0  0
    6.9540   -2.7070   21.0530 N   0  0  0  0  0  0  0  0  0  0  0  0
    6.5310   -3.0140   19.7640 C   0  0  0  0  0  0  0  0  0  0  0  0
    6.9900   -2.1430   18.6240 C   0  0  0  0  0  0  0  0  0  0  0  0
    5.8060   -3.9950   19.5380 O   0  0  0  0  0  0  0  0  0  0  0  0
    6.0630   -2.5820   22.1920 C   0  0  0  0  0  0  0  0  0  0  0  0
    6.6120   -3.2990   23.2700 C   0  0  0  0  0  0  0  0  0  0  0  0
    8.0490   -3.2800   23.2440 O   0  0  0  0  0  0  0  0  0  0  0  0
    7.4990   -5.0580   24.5360 N   0  0  0  0  0  0  0  0  0  0  0  0
    7.1630   -5.5630   23.3270 C   0  0  0  0  0  0  0  0  0  0  0  0
  1  2  1  0
  2  3  1  0
  3  4  2  0
  3  5  1  0
  5  6  2  0
  6  7  1  0
  7  8  2  0
  8  9  1  0
  9 10  1  0
 10 11  1  6
 10 12  1  0
 12 13  1  0
 13 14  2  0
 14 15  1  0
 15 16  1  0
 15 17  2  0
 17 18  1  0
 13 19  1  0
 18 19  2  0
 20 19  1  6
 20 21  1  0
 21 22  1  0
 22 23  1  0
 23 24  1  0
 23 25  2  0
 22 26  1  0
 26 27  1  0
 20 28  1  0
 27 28  1  0
  8 29  1  0
  5 30  1  0
 29 30  2  0
M  END
