BEN-VAN-d8fd1356-13
     RDKit          3D

 23 25  0  0  0  0  0  0  0  0999 V2000
   13.3370    6.1500   22.4340 C   0  0  0  0  0  0  0  0  0  0  0  0
   12.4660    5.0810   23.0620 C   0  0  0  0  0  0  0  0  0  0  0  0
   12.9640    3.7170   22.9450 N   0  0  0  0  0  0  0  0  0  0  0  0
   11.9710    2.6960   23.2350 C   0  0  0  0  0  0  0  0  0  0  0  0
   10.6670    3.1480   23.8300 C   0  0  0  0  0  0  0  0  0  0  0  0
    9.9040    1.9530   23.9980 N   0  0  0  0  0  0  0  0  0  0  0  0
   10.7290    0.8400   23.5190 C   0  0  0  0  0  0  0  0  0  0  0  0
   10.2840   -0.5750   23.5150 C   0  0  0  0  0  0  0  0  0  0  0  0
    9.1800   -0.9630   23.8950 O   0  0  0  0  0  0  0  0  0  0  0  0
    8.1400   -0.5530   23.0650 C   0  0  0  0  0  0  0  0  0  0  0  0
    8.1240   -0.7530   21.4870 C   0  0  0  0  0  0  0  0  0  0  0  0
    7.0810   -0.3330   20.6620 C   0  0  0  0  0  0  0  0  0  0  0  0
    7.1510   -0.5680   19.1420 C   0  0  0  0  0  0  0  0  0  0  0  0
    5.9560    0.3070   21.1750 C   0  0  0  0  0  0  0  0  0  0  0  0
    4.5490    0.8840   20.0480 Br  0  0  0  0  0  0  0  0  0  0  0  0
    5.8390    0.5540   22.6460 C   0  0  0  0  0  0  0  0  0  0  0  0
    6.9130    0.1290   23.5700 N   0  0  0  0  0  0  0  0  0  0  0  0
   11.1930   -1.4890   23.0370 C   0  0  0  0  0  0  0  0  0  0  0  0
   10.6380   -3.1020   23.0630 Cl  0  0  0  0  0  0  0  0  0  0  0  0
   12.5170   -1.1370   22.5470 C   0  0  0  0  0  0  0  0  0  0  0  0
   13.3670   -2.0560   22.0830 F   0  0  0  0  0  0  0  0  0  0  0  0
   12.9270    0.2010   22.5510 C   0  0  0  0  0  0  0  0  0  0  0  0
   11.9810    1.2850   23.0650 C   0  0  0  0  0  0  0  0  0  0  0  0
  1  2  1  0
  2  3  1  0
  3  4  1  0
  4  5  2  0
  5  6  1  0
  6  7  1  0
  7  8  1  0
  8  9  1  0
  9 10  1  0
 10 11  2  0
 11 12  1  0
 12 13  1  0
 12 14  2  0
 14 15  1  0
 14 16  1  0
 10 17  1  0
 16 17  2  0
  8 18  2  0
 18 19  1  0
 18 20  1  0
 20 21  1  0
 20 22  2  0
  4 23  1  0
  7 23  2  0
 22 23  1  0
M  END
