BEN-DND-362d364a-8
     RDKit          3D

 23 24  0  0  0  0  0  0  0  0999 V2000
    8.9780    6.6510   22.5300 C   0  0  0  0  0  0  0  0  0  0  0  0
   10.1650    6.2970   23.3870 C   0  0  0  0  0  0  0  0  0  0  0  0
   10.2080    6.5280   24.5900 O   0  0  0  0  0  0  0  0  0  0  0  0
   11.1730    5.6920   22.6920 N   0  0  0  0  0  0  0  0  0  0  0  0
   12.2460    5.0310   23.4180 C   0  0  0  0  0  0  0  0  0  0  0  0
   12.5080    3.6180   22.9020 C   0  0  0  0  0  0  0  0  0  0  0  0
   11.4690    2.5880   23.2620 C   0  0  0  0  0  0  0  0  0  0  0  0
   10.2520    2.8190   23.8560 C   0  0  0  0  0  0  0  0  0  0  0  0
    9.5810    1.6240   23.9590 N   0  0  0  0  0  0  0  0  0  0  0  0
   10.3290    0.5910   23.4440 C   0  0  0  0  0  0  0  0  0  0  0  0
   10.0550   -0.8070   23.2900 C   0  0  0  0  0  0  0  0  0  0  0  0
    8.8030   -1.5790   23.6330 C   0  0  0  0  0  0  0  0  0  0  0  0
    9.0970   -2.9870   24.1820 C   0  0  0  0  0  0  0  0  0  0  0  0
    7.9230   -3.5430   24.8920 N   0  0  0  0  0  0  0  0  0  0  0  0
    8.2240   -4.6240   26.1560 S   0  0  0  0  0  0  0  0  0  0  0  0
    6.5840   -5.1990   26.5450 C   0  0  0  0  0  0  0  0  0  0  0  0
    9.0190   -5.7150   25.6620 O   0  0  0  0  0  0  0  0  0  0  0  0
    8.6690   -3.8350   27.2620 O   0  0  0  0  0  0  0  0  0  0  0  0
   11.0590   -1.5630   22.7280 C   0  0  0  0  0  0  0  0  0  0  0  0
   12.2300   -1.0000   22.3480 C   0  0  0  0  0  0  0  0  0  0  0  0
   13.3370   -2.0410   21.6530 Cl  0  0  0  0  0  0  0  0  0  0  0  0
   12.5100    0.3440   22.4900 C   0  0  0  0  0  0  0  0  0  0  0  0
   11.5330    1.1770   23.0320 C   0  0  0  0  0  0  0  0  0  0  0  0
  1  2  1  0
  2  3  2  0
  2  4  1  0
  4  5  1  0
  5  6  1  0
  6  7  1  0
  7  8  2  0
  8  9  1  0
  9 10  1  0
 10 11  1  0
 11 12  1  0
 12 13  1  0
 13 14  1  0
 15 14  1  0
 15 16  1  0
 15 17  2  0
 15 18  2  0
 11 19  2  0
 19 20  1  0
 20 21  1  0
 20 22  2  0
  7 23  1  0
 10 23  2  0
 22 23  1  0
M  END
