BEN-VAN-ed886787-20-acrylamide
     RDKit          3D

 27 28  0  0  0  0  0  0  0  0999 V2000
    6.5850   -4.0390   20.0850 C   0  0  0  0  0  0  0  0  0  0  0  0
    6.6120   -3.7430   21.5940 C   0  0  0  0  0  0  0  0  0  0  0  0
    5.3100   -3.1440   22.1020 C   0  0  0  0  0  0  0  0  0  0  0  0
    4.9230   -4.2960   21.9590 O   0  0  0  0  0  0  0  0  0  0  0  0
    6.1350   -2.0270   22.1120 N   0  0  0  0  0  0  0  0  0  0  0  0
    5.6750   -0.7010   21.7200 C   0  0  0  0  0  0  0  0  0  0  0  0
    5.1970    0.0830   22.5460 O   0  0  0  0  0  0  0  0  0  0  0  0
    5.8320   -0.4230   20.3770 C   0  0  0  0  0  0  0  0  0  0  0  0
    7.0440   -0.4170   20.1220 O   0  0  0  0  0  0  0  0  0  0  0  0
    7.8480    0.3570   20.9080 C   0  0  0  0  0  0  0  0  0  0  0  0
    7.6840    1.7240   21.0540 C   0  0  0  0  0  0  0  0  0  0  0  0
    8.5940    2.4440   21.9080 C   0  0  0  0  0  0  0  0  0  0  0  0
    9.7700    1.8420   22.7060 C   0  0  0  0  0  0  0  0  0  0  0  0
   10.8080    2.7600   23.7010 Cl  0  0  0  0  0  0  0  0  0  0  0  0
    9.9030    0.3250   22.5070 C   0  0  0  0  0  0  0  0  0  0  0  0
   10.9980   -0.5550   23.1920 C   0  0  0  0  0  0  0  0  0  0  0  0
   12.3060   -0.0580   23.1240 C   0  0  0  0  0  0  0  0  0  0  0  0
   11.6300    0.5950   24.0430 N   0  0  0  0  0  0  0  0  0  0  0  0
   10.4150   -0.0110   24.0740 C   0  0  0  0  0  0  0  0  0  0  0  0
    9.5110    0.4830   24.9820 N   0  0  0  0  0  0  0  0  0  0  0  0
    8.7240   -0.4090   25.6160 C   0  0  0  0  0  0  0  0  0  0  0  0
    9.0440   -0.4530   26.9680 C   0  0  0  0  0  0  0  0  0  0  0  0
   10.0970   -1.1230   23.1990 C   0  0  0  0  0  0  0  0  0  0  0  0
   11.0500   -1.6500   22.2500 C   0  0  0  0  0  0  0  0  0  0  0  0
   12.2960   -1.0480   22.2160 C   0  0  0  0  0  0  0  0  0  0  0  0
   13.3050   -1.4180   21.4170 F   0  0  0  0  0  0  0  0  0  0  0  0
    8.8800   -0.3490   21.5700 C   0  0  0  0  0  0  0  0  0  0  0  0
  1  2  1  0
  2  3  1  0
  3  4  2  0
  3  5  1  0
  5  6  1  0
  6  7  2  0
  6  8  1  0
  8  9  1  0
  9 10  1  0
 10 11  2  0
 11 12  1  0
 12 13  2  0
 13 14  1  0
 13 15  1  0
 15 16  1  0
 16 17  1  0
 17 18  2  0
 18 19  1  0
 19 20  1  0
 20 21  1  0
 21 22  1  0
 19 23  2  0
 23 24  1  0
 17 25  1  0
 24 25  2  0
 25 26  1  0
 10 27  1  0
 15 27  2  0
M  END
