BEN-VAN-ed886787-12-vinylsulfonamide
     RDKit          3D

 29 30  0  0  0  0  0  0  0  0999 V2000
    7.8180   -3.5960   20.3300 C   0  0  0  0  0  0  0  0  0  0  0  0
    6.3280   -3.8050   20.3740 C   0  0  0  0  0  0  0  0  0  0  0  0
    5.5360   -2.6430   19.3350 S   0  0  0  0  0  0  0  0  0  0  0  0
    4.2850   -3.2650   19.2360 O   0  0  0  0  0  0  0  0  0  0  0  0
    6.3020   -2.3490   18.1590 O   0  0  0  0  0  0  0  0  0  0  0  0
    5.3860   -1.2110   20.2310 N   0  0  0  0  0  0  0  0  0  0  0  0
    6.6400   -0.6850   20.7670 C   0  0  0  0  0  0  0  0  0  0  0  0
    7.1320    0.3770   20.4100 O   0  0  0  0  0  0  0  0  0  0  0  0
    7.2370   -1.6270   21.8220 C   0  0  0  0  0  0  0  0  0  0  0  0
    8.6810   -2.0040   21.6050 N   0  0  0  0  0  0  0  0  0  0  0  0
    9.5660   -1.3840   22.4170 C   0  0  0  0  0  0  0  0  0  0  0  0
    9.0070   -0.8590   23.6380 C   0  0  0  0  0  0  0  0  0  0  0  0
    9.8580   -0.2090   24.4920 C   0  0  0  0  0  0  0  0  0  0  0  0
    9.1960    0.2470   25.6620 C   0  0  0  0  0  0  0  0  0  0  0  0
    8.4940   -0.9970   26.2290 C   0  0  0  0  0  0  0  0  0  0  0  0
   11.2080   -0.0290   24.2320 C   0  0  0  0  0  0  0  0  0  0  0  0
   11.8250   -0.5590   22.9960 C   0  0  0  0  0  0  0  0  0  0  0  0
   13.1760   -0.4120   22.7040 C   0  0  0  0  0  0  0  0  0  0  0  0
   13.7160   -0.2340   21.4010 C   0  0  0  0  0  0  0  0  0  0  0  0
   14.2930    0.7250   20.6270 N   0  0  0  0  0  0  0  0  0  0  0  0
   14.7920    1.7920   20.1150 C   0  0  0  0  0  0  0  0  0  0  0  0
   14.9540    3.1720   20.5290 N   0  0  0  0  0  0  0  0  0  0  0  0
   15.9600    3.8290   19.9530 C   0  0  0  0  0  0  0  0  0  0  0  0
   15.4500    4.8230   19.1610 C   0  0  0  0  0  0  0  0  0  0  0  0
   15.1530    0.9620   18.9480 C   0  0  0  0  0  0  0  0  0  0  0  0
   14.6920   -0.4270   19.1910 C   0  0  0  0  0  0  0  0  0  0  0  0
   13.9300   -1.0970   20.4110 C   0  0  0  0  0  0  0  0  0  0  0  0
   13.5390   -2.3760   20.5800 F   0  0  0  0  0  0  0  0  0  0  0  0
   10.9000   -1.2860   22.0510 C   0  0  0  0  0  0  0  0  0  0  0  0
  1  2  1  0
  2  3  1  0
  3  4  2  0
  3  5  2  0
  3  6  1  0
  6  7  1  0
  7  8  2  0
  7  9  1  0
  9 10  1  0
 10 11  1  0
 11 12  2  0
 12 13  1  0
 13 14  1  0
 14 15  1  0
 13 16  2  0
 16 17  1  0
 17 18  1  0
 18 19  1  0
 19 20  2  0
 20 21  1  0
 21 22  1  0
 22 23  1  0
 23 24  1  0
 21 25  2  0
 25 26  1  0
 19 27  1  0
 26 27  2  0
 27 28  1  0
 11 29  1  0
 17 29  2  0
M  END
