BEN-VAN-d8fd1356-14
     RDKit          3D

 24 26  0  0  0  0  0  0  0  0999 V2000
   12.1820    5.3230   23.4140 C   0  0  0  0  0  0  0  0  0  0  0  0
   12.7830    3.9890   23.0120 C   0  0  0  0  0  0  0  0  0  0  0  0
   11.7670    2.8100   22.8740 C   0  0  0  0  0  0  0  0  0  0  0  0
   10.3470    3.2050   22.9030 C   0  0  0  0  0  0  0  0  0  0  0  0
    9.5870    2.1430   22.7040 N   0  0  0  0  0  0  0  0  0  0  0  0
   10.4300    1.0410   22.5380 C   0  0  0  0  0  0  0  0  0  0  0  0
   10.0150   -0.3840   22.2140 C   0  0  0  0  0  0  0  0  0  0  0  0
    8.6310   -0.5740   22.0070 N   0  0  0  0  0  0  0  0  0  0  0  0
    8.0830   -0.2720   20.7020 C   0  0  0  0  0  0  0  0  0  0  0  0
    7.0030    0.1710   21.7430 C   0  0  0  0  0  0  0  0  0  0  0  0
    5.7650    0.7500   21.6460 C   0  0  0  0  0  0  0  0  0  0  0  0
    5.0160    1.0280   22.9380 C   0  0  0  0  0  0  0  0  0  0  0  0
    5.2010    1.0780   20.4800 C   0  0  0  0  0  0  0  0  0  0  0  0
    5.9870    0.7700   19.3280 C   0  0  0  0  0  0  0  0  0  0  0  0
    5.3650    1.1310   17.8430 S   0  0  0  0  0  0  0  0  0  0  0  0
    4.6870   -0.3640   17.6420 N   0  0  0  0  0  0  0  0  0  0  0  0
    4.3370    2.1160   18.0590 O   0  0  0  0  0  0  0  0  0  0  0  0
    6.4540    1.2950   16.9350 O   0  0  0  0  0  0  0  0  0  0  0  0
    7.2840    0.1480   19.4640 N   0  0  0  0  0  0  0  0  0  0  0  0
   11.0530   -1.3400   22.1420 C   0  0  0  0  0  0  0  0  0  0  0  0
   12.4600   -1.0430   22.3260 C   0  0  0  0  0  0  0  0  0  0  0  0
   13.3940   -1.9910   22.2350 F   0  0  0  0  0  0  0  0  0  0  0  0
   12.8430    0.2820   22.5810 C   0  0  0  0  0  0  0  0  0  0  0  0
   11.8090    1.4100   22.6880 C   0  0  0  0  0  0  0  0  0  0  0  0
  1  2  1  0
  2  3  1  0
  3  4  2  0
  4  5  1  0
  5  6  1  0
  6  7  1  0
  7  8  1  0
  8  9  1  0
  9 10  2  0
 10 11  1  0
 11 12  1  0
 11 13  2  0
 13 14  1  0
 14 15  1  0
 15 16  1  0
 15 17  2  0
 15 18  2  0
  9 19  1  0
 14 19  2  0
  7 20  2  0
 20 21  1  0
 21 22  1  0
 21 23  2  0
  3 24  1  0
  6 24  2  0
 23 24  1  0
M  END
