BEN-VAN-3ef6186a-2
     RDKit          3D

 28 31  0  0  0  0  0  0  0  0999 V2000
   12.4870   -2.5240   21.3520 C   0  0  0  0  0  0  0  0  0  0  0  0
   11.7300   -2.3310   22.5450 O   0  0  0  0  0  0  0  0  0  0  0  0
   11.5300   -1.0340   22.8570 C   0  0  0  0  0  0  0  0  0  0  0  0
   12.6130   -0.1920   22.5780 C   0  0  0  0  0  0  0  0  0  0  0  0
   12.5520    1.1790   22.8390 C   0  0  0  0  0  0  0  0  0  0  0  0
   13.4880    2.1200   22.6190 N   0  0  0  0  0  0  0  0  0  0  0  0
   13.1870    3.4720   22.6390 C   0  0  0  0  0  0  0  0  0  0  0  0
   14.3400    1.6390   21.7200 C   0  0  0  0  0  0  0  0  0  0  0  0
   11.4100    1.6050   23.3680 C   0  0  0  0  0  0  0  0  0  0  0  0
   11.1290    2.9790   23.7120 C   0  0  0  0  0  0  0  0  0  0  0  0
    9.7690    2.9150   24.2500 C   0  0  0  0  0  0  0  0  0  0  0  0
    9.0780    4.3970   24.7840 S   0  0  0  0  0  0  0  0  0  0  0  0
   10.5060    5.4670   24.3870 C   0  0  0  0  0  0  0  0  0  0  0  0
    9.1790    1.5990   24.2610 N   0  0  0  0  0  0  0  0  0  0  0  0
   10.3410    0.7890   23.6540 C   0  0  0  0  0  0  0  0  0  0  0  0
   10.2920   -0.6030   23.4280 C   0  0  0  0  0  0  0  0  0  0  0  0
    9.2750   -1.5110   23.6670 O   0  0  0  0  0  0  0  0  0  0  0  0
    8.8380   -1.7990   24.9990 C   0  0  0  0  0  0  0  0  0  0  0  0
    8.2670   -3.1330   25.2590 C   0  0  0  0  0  0  0  0  0  0  0  0
    7.8400   -3.2770   26.7320 C   0  0  0  0  0  0  0  0  0  0  0  0
    7.2210   -4.5930   27.1980 C   0  0  0  0  0  0  0  0  0  0  0  0
    7.8040   -5.3330   28.2400 C   0  0  0  0  0  0  0  0  0  0  0  0
    7.0820   -6.4140   28.4710 N   0  0  0  0  0  0  0  0  0  0  0  0
    6.0010   -6.2490   27.4420 C   0  0  0  0  0  0  0  0  0  0  0  0
    6.1320   -5.1200   26.6910 N   0  0  0  0  0  0  0  0  0  0  0  0
    7.9810   -2.2900   27.6700 C   0  0  0  0  0  0  0  0  0  0  0  0
    8.5270   -1.1370   27.2490 C   0  0  0  0  0  0  0  0  0  0  0  0
    8.9340   -0.9000   25.9820 N   0  0  0  0  0  0  0  0  0  0  0  0
  1  2  1  0
  2  3  1  0
  3  4  2  0
  4  5  1  0
  5  6  1  0
  6  7  1  0
  6  8  1  0
  5  9  2  0
  9 10  1  0
 10 11  2  0
 11 12  1  0
 12 13  1  0
 11 14  1  0
  9 15  1  0
 14 15  1  0
  3 16  1  0
 15 16  2  0
 16 17  1  0
 17 18  1  0
 18 19  2  0
 19 20  1  0
 20 21  1  0
 21 22  2  0
 22 23  1  0
 23 24  2  0
 21 25  1  0
 24 25  1  0
 20 26  2  0
 26 27  1  0
 18 28  1  0
 27 28  2  0
M  END
