BEN-VAN-ed886787-11-vinylsulfonamide
     RDKit          3D

 33 35  0  0  0  0  0  0  0  0999 V2000
    7.6540   -3.4330   19.6810 C   0  0  0  0  0  0  0  0  0  0  0  0
    6.6070   -4.0990   20.5440 C   0  0  0  0  0  0  0  0  0  0  0  0
    5.7810   -2.8430   21.4600 S   0  0  0  0  0  0  0  0  0  0  0  0
    4.6130   -3.4800   22.0440 O   0  0  0  0  0  0  0  0  0  0  0  0
    5.6120   -1.7300   20.5540 O   0  0  0  0  0  0  0  0  0  0  0  0
    6.9570   -2.3540   22.7270 C   0  0  0  0  0  0  0  0  0  0  0  0
    5.6600   -1.6590   22.5720 C   0  0  0  0  0  0  0  0  0  0  0  0
    5.4930   -1.4450   24.0880 C   0  0  0  0  0  0  0  0  0  0  0  0
    6.7320   -1.8810   24.9950 C   0  0  0  0  0  0  0  0  0  0  0  0
    6.5430   -2.1430   26.3690 N   0  0  0  0  0  0  0  0  0  0  0  0
    6.7610   -1.1410   27.4160 C   0  0  0  0  0  0  0  0  0  0  0  0
    7.6960   -0.0700   26.9110 C   0  0  0  0  0  0  0  0  0  0  0  0
    8.1060   -1.9050   24.6350 N   0  0  0  0  0  0  0  0  0  0  0  0
    7.6820   -1.2850   23.5060 C   0  0  0  0  0  0  0  0  0  0  0  0
    8.7780   -0.9690   24.3520 C   0  0  0  0  0  0  0  0  0  0  0  0
    9.4020    0.2620   24.1210 C   0  0  0  0  0  0  0  0  0  0  0  0
   10.5370    0.3370   23.3900 C   0  0  0  0  0  0  0  0  0  0  0  0
   11.6270    0.8400   22.7540 C   0  0  0  0  0  0  0  0  0  0  0  0
   11.5540   -0.5080   22.5610 O   0  0  0  0  0  0  0  0  0  0  0  0
   10.2860   -1.0180   22.0380 C   0  0  0  0  0  0  0  0  0  0  0  0
    9.2780   -0.0890   21.6000 C   0  0  0  0  0  0  0  0  0  0  0  0
    9.4210    1.1320   21.6600 O   0  0  0  0  0  0  0  0  0  0  0  0
    8.0390   -0.7260   21.0490 N   0  0  0  0  0  0  0  0  0  0  0  0
    7.1110   -0.0430   20.1310 C   0  0  0  0  0  0  0  0  0  0  0  0
    6.0820    0.9730   20.5940 C   0  0  0  0  0  0  0  0  0  0  0  0
    5.2080    1.6100   19.7020 C   0  0  0  0  0  0  0  0  0  0  0  0
    5.3010    1.2870   18.3330 C   0  0  0  0  0  0  0  0  0  0  0  0
    6.1900    0.3910   17.8310 N   0  0  0  0  0  0  0  0  0  0  0  0
    7.1060   -0.2800   18.7740 C   0  0  0  0  0  0  0  0  0  0  0  0
   11.2470    2.3020   23.2460 C   0  0  0  0  0  0  0  0  0  0  0  0
    9.9820    2.6020   24.0870 C   0  0  0  0  0  0  0  0  0  0  0  0
    9.0300    1.6760   24.5500 C   0  0  0  0  0  0  0  0  0  0  0  0
    7.6660    2.1980   25.4710 Cl  0  0  0  0  0  0  0  0  0  0  0  0
  1  2  1  0
  3  2  1  0
  3  4  2  0
  3  5  2  0
  3  6  1  0
  6  7  2  0
  7  8  1  0
  8  9  2  0
  9 10  1  0
 10 11  1  0
 11 12  1  0
  9 13  1  0
  6 14  1  0
 13 14  2  0
 14 15  1  0
 15 16  1  0
 16 17  2  0
 17 18  1  0
 18 19  1  0
 19 20  1  0
 20 21  1  0
 21 22  2  0
 21 23  1  0
 23 24  1  0
 24 25  2  0
 25 26  1  0
 26 27  2  0
 27 28  1  0
 24 29  1  0
 28 29  2  0
 18 30  2  0
 30 31  1  0
 16 32  1  0
 31 32  2  0
 32 33  1  0
M  END
