BEN-DND-362d364a-10
     RDKit          3D

 23 24  0  0  0  0  0  0  0  0999 V2000
    6.5810   -5.3020   26.6820 C   0  0  0  0  0  0  0  0  0  0  0  0
    8.1990   -4.6440   26.3430 S   0  0  0  0  0  0  0  0  0  0  0  0
    9.0880   -5.7220   26.0020 O   0  0  0  0  0  0  0  0  0  0  0  0
    8.5120   -3.7090   27.3860 O   0  0  0  0  0  0  0  0  0  0  0  0
    7.9380   -3.7290   24.9720 N   0  0  0  0  0  0  0  0  0  0  0  0
    9.0770   -3.1040   24.2960 C   0  0  0  0  0  0  0  0  0  0  0  0
    8.9270   -1.5800   24.3160 C   0  0  0  0  0  0  0  0  0  0  0  0
   10.1380   -0.8720   23.7340 C   0  0  1  0  0  0  0  0  0  0  0  0
   11.0380   -0.2300   24.6840 C   0  0  0  0  0  0  0  0  0  0  0  0
   12.2770    0.1790   24.2950 C   0  0  0  0  0  0  0  0  0  0  0  0
   12.7600   -0.2850   23.0880 C   0  0  0  0  0  0  0  0  0  0  0  0
   12.2810   -1.5330   22.6690 C   0  0  0  0  0  0  0  0  0  0  0  0
   10.8010   -1.7490   22.7960 N   0  0  0  0  0  0  0  0  0  0  0  0
   10.1190   -1.5140   21.5310 C   0  0  0  0  0  0  0  0  0  0  0  0
    9.0260   -0.3920   21.4900 C   0  0  0  0  0  0  0  0  0  0  0  0
    9.3020    0.7990   21.6210 O   0  0  0  0  0  0  0  0  0  0  0  0
    7.6480   -0.9050   21.2560 N   0  0  0  0  0  0  0  0  0  0  0  0
    6.9010   -0.2810   20.2580 C   0  0  0  0  0  0  0  0  0  0  0  0
    5.8080    0.5090   20.6410 C   0  0  0  0  0  0  0  0  0  0  0  0
    5.0350    1.1520   19.6720 C   0  0  0  0  0  0  0  0  0  0  0  0
    5.3600    1.0030   18.3290 C   0  0  0  0  0  0  0  0  0  0  0  0
    6.3950    0.2550   17.9260 N   0  0  0  0  0  0  0  0  0  0  0  0
    7.1390   -0.3690   18.8830 C   0  0  0  0  0  0  0  0  0  0  0  0
  1  2  1  0
  2  3  2  0
  2  4  2  0
  2  5  1  0
  5  6  1  0
  6  7  1  0
  8  7  1  1
  8  9  1  0
  9 10  1  0
 10 11  1  0
 11 12  1  0
  8 13  1  0
 12 13  1  0
 13 14  1  0
 14 15  1  0
 15 16  2  0
 15 17  1  0
 17 18  1  0
 18 19  2  0
 19 20  1  0
 20 21  2  0
 21 22  1  0
 18 23  1  0
 22 23  2  0
M  END
