BEN-VAN-ed886787-20-chloroacetamide
     RDKit          3D

 26 27  0  0  0  0  0  0  0  0999 V2000
    7.2640   -3.8720   20.2660 C   0  0  0  0  0  0  0  0  0  0  0  0
    5.8740   -3.3160   20.2820 C   0  0  0  0  0  0  0  0  0  0  0  0
    5.0560   -3.6740   19.4310 O   0  0  0  0  0  0  0  0  0  0  0  0
    5.5490   -2.4120   21.2690 N   0  0  0  0  0  0  0  0  0  0  0  0
    5.3430   -0.9370   21.0760 C   0  0  0  0  0  0  0  0  0  0  0  0
    4.7650   -0.3210   20.0110 O   0  0  0  0  0  0  0  0  0  0  0  0
    5.9340   -0.2250   22.3240 C   0  0  0  0  0  0  0  0  0  0  0  0
    6.3300    1.0740   21.8900 O   0  0  0  0  0  0  0  0  0  0  0  0
    7.6080    1.5060   22.1160 C   0  0  0  0  0  0  0  0  0  0  0  0
    8.0850    2.9790   21.9990 C   0  0  0  0  0  0  0  0  0  0  0  0
    9.5810    3.3610   22.2820 C   0  0  0  0  0  0  0  0  0  0  0  0
   10.5230    2.2510   22.6680 C   0  0  0  0  0  0  0  0  0  0  0  0
   12.1230    2.9590   22.9110 Cl  0  0  0  0  0  0  0  0  0  0  0  0
   10.1450    0.8060   22.8090 C   0  0  0  0  0  0  0  0  0  0  0  0
   10.9710   -0.3230   23.1870 C   0  0  0  0  0  0  0  0  0  0  0  0
   12.3430   -0.1350   22.9960 C   0  0  0  0  0  0  0  0  0  0  0  0
   11.7770    0.7660   23.9370 N   0  0  0  0  0  0  0  0  0  0  0  0
   10.3730    0.2850   24.0140 C   0  0  0  0  0  0  0  0  0  0  0  0
    9.5660    0.9660   24.8690 N   0  0  0  0  0  0  0  0  0  0  0  0
    8.5420    0.2170   25.5920 C   0  0  0  0  0  0  0  0  0  0  0  0
    9.1250   -0.5990   26.5520 C   0  0  0  0  0  0  0  0  0  0  0  0
    9.8500   -0.8320   23.2510 C   0  0  0  0  0  0  0  0  0  0  0  0
   10.6190   -1.6150   22.3240 C   0  0  0  0  0  0  0  0  0  0  0  0
   12.0950   -1.2820   22.1130 C   0  0  0  0  0  0  0  0  0  0  0  0
   12.9620   -1.9120   21.3090 F   0  0  0  0  0  0  0  0  0  0  0  0
    8.6560    0.4500   22.5180 C   0  0  0  0  0  0  0  0  0  0  0  0
  1  2  1  0
  2  3  2  0
  2  4  1  0
  4  5  1  0
  5  6  2  0
  5  7  1  0
  7  8  1  0
  8  9  1  0
  9 10  2  0
 10 11  1  0
 11 12  2  0
 12 13  1  0
 12 14  1  0
 14 15  1  0
 15 16  1  0
 16 17  2  0
 17 18  1  0
 18 19  1  0
 19 20  1  0
 20 21  1  0
 18 22  2  0
 22 23  1  0
 16 24  1  0
 23 24  2  0
 24 25  1  0
  9 26  1  0
 14 26  2  0
M  END
