BEN-VAN-ed886787-13-acrylamide
     RDKit          3D

 32 34  0  0  0  0  0  0  0  0999 V2000
    6.2410   -4.4320   20.1500 C   0  0  0  0  0  0  0  0  0  0  0  0
    6.3220   -4.3110   21.6910 C   0  0  0  0  0  0  0  0  0  0  0  0
    5.4660   -3.2010   22.3520 C   0  0  0  0  0  0  0  0  0  0  0  0
    4.6100   -4.1140   22.2970 O   0  0  0  0  0  0  0  0  0  0  0  0
    6.7750   -2.5120   22.1440 C   0  0  0  0  0  0  0  0  0  0  0  0
    6.8040   -1.9210   20.8940 C   0  0  0  0  0  0  0  0  0  0  0  0
    7.9990   -1.2500   20.4890 C   0  0  0  0  0  0  0  0  0  0  0  0
    9.0670   -1.2060   21.3430 C   0  0  0  0  0  0  0  0  0  0  0  0
   10.2760   -0.7110   21.2560 N   0  0  0  0  0  0  0  0  0  0  0  0
   11.3360   -1.3700   22.0520 C   0  0  0  0  0  0  0  0  0  0  0  0
   12.3510   -2.2170   21.2470 C   0  0  0  0  0  0  0  0  0  0  0  0
    9.0880   -1.6710   22.4390 N   0  0  0  0  0  0  0  0  0  0  0  0
    7.9690   -2.3340   22.9200 C   0  0  0  0  0  0  0  0  0  0  0  0
    8.6630   -2.5750   24.1880 C   0  0  0  0  0  0  0  0  0  0  0  0
   10.1570   -2.2870   24.2830 C   0  0  0  0  0  0  0  0  0  0  0  0
   10.1760   -0.8590   24.1040 C   0  0  0  0  0  0  0  0  0  0  0  0
    9.7670    0.4860   23.8880 C   0  0  0  0  0  0  0  0  0  0  0  0
    8.6060   -0.1080   23.8080 N   0  0  0  0  0  0  0  0  0  0  0  0
    7.6430    0.6760   23.3010 C   0  0  0  0  0  0  0  0  0  0  0  0
    7.8490    0.9020   21.9290 C   0  0  0  0  0  0  0  0  0  0  0  0
    8.7580    1.6250   21.4680 O   0  0  0  0  0  0  0  0  0  0  0  0
    6.8980    0.2370   21.2070 N   0  0  0  0  0  0  0  0  0  0  0  0
    6.3190    0.6700   20.0330 C   0  0  0  0  0  0  0  0  0  0  0  0
    5.2360    1.5180   20.1600 C   0  0  0  0  0  0  0  0  0  0  0  0
    4.6340    1.9890   19.0180 C   0  0  0  0  0  0  0  0  0  0  0  0
    5.1300    1.6010   17.7880 C   0  0  0  0  0  0  0  0  0  0  0  0
    6.1870    0.7620   17.6000 N   0  0  0  0  0  0  0  0  0  0  0  0
    6.7470    0.3230   18.7650 C   0  0  0  0  0  0  0  0  0  0  0  0
   11.1240    0.6980   24.0280 C   0  0  0  0  0  0  0  0  0  0  0  0
   11.9920   -0.4800   24.2470 C   0  0  0  0  0  0  0  0  0  0  0  0
   11.5410   -1.8140   24.3490 C   0  0  0  0  0  0  0  0  0  0  0  0
   12.8740   -2.8580   24.5910 Cl  0  0  0  0  0  0  0  0  0  0  0  0
  1  2  1  0
  2  3  1  0
  3  4  2  0
  3  5  1  0
  5  6  2  0
  6  7  1  0
  7  8  2  0
  8  9  1  0
  9 10  1  0
 10 11  1  0
  8 12  1  0
  5 13  1  0
 12 13  2  0
 13 14  1  0
 14 15  1  0
 15 16  2  0
 16 17  1  0
 17 18  1  0
 18 19  1  0
 19 20  1  0
 20 21  2  0
 20 22  1  0
 22 23  1  0
 23 24  2  0
 24 25  1  0
 25 26  2  0
 26 27  1  0
 23 28  1  0
 27 28  2  0
 17 29  2  0
 29 30  1  0
 15 31  1  0
 30 31  2  0
 31 32  1  0
M  END
