BEN-VAN-77cef4f8-7-nitrile
     RDKit          3D

 28 30  0  0  0  0  0  0  0  0999 V2000
    7.9170   -3.3090   19.3220 C   0  0  0  0  0  0  0  0  0  0  0  0
    6.8550   -3.3430   18.5790 N   0  0  0  0  0  0  0  0  0  0  0  0
    8.0830   -2.1600   20.2570 C   0  0  0  0  0  0  0  0  0  0  0  0
    8.9940   -2.1610   21.3150 C   0  0  0  0  0  0  0  0  0  0  0  0
    9.0780   -1.0530   22.1370 C   0  0  0  0  0  0  0  0  0  0  0  0
    8.2610    0.0320   21.9070 C   0  0  0  0  0  0  0  0  0  0  0  0
    8.4010    1.1430   22.8640 N   0  0  0  0  0  0  0  0  0  0  0  0
    7.4920    0.9170   24.0020 C   0  0  1  0  0  0  0  0  0  0  0  0
    6.1610    0.7740   23.5880 C   0  0  0  0  0  0  0  0  0  0  0  0
    8.0180   -0.1320   24.7950 C   0  0  0  0  0  0  0  0  0  0  0  0
    9.1550   -0.7680   24.2710 C   0  0  0  0  0  0  0  0  0  0  0  0
   10.4490    0.0640   24.2900 C   0  0  0  0  0  0  0  0  0  0  0  0
   11.7910   -0.4690   23.7540 C   0  0  0  0  0  0  0  0  0  0  0  0
   12.8360    0.3950   23.8340 F   0  0  0  0  0  0  0  0  0  0  0  0
   11.8040   -1.7730   23.2420 C   0  0  0  0  0  0  0  0  0  0  0  0
   10.5040   -2.5570   23.2460 C   0  0  0  0  0  0  0  0  0  0  0  0
    9.2140   -2.1040   23.7280 C   0  0  0  0  0  0  0  0  0  0  0  0
    8.0900   -2.9460   23.6540 C   0  0  1  0  0  0  0  0  0  0  0  0
    7.2400   -2.6270   22.5720 C   0  0  0  0  0  0  0  0  0  0  0  0
    6.3580   -3.7360   22.1430 N   0  0  0  0  0  0  0  0  0  0  0  0
    5.7990   -3.7360   20.7640 C   0  0  0  0  0  0  0  0  0  0  0  0
    5.4410   -2.3660   20.2450 C   0  0  0  0  0  0  0  0  0  0  0  0
    5.6120   -4.7440   20.0710 O   0  0  0  0  0  0  0  0  0  0  0  0
    6.4320   -4.9230   22.9840 C   0  0  0  0  0  0  0  0  0  0  0  0
    7.8600   -5.3590   23.1940 C   0  0  0  0  0  0  0  0  0  0  0  0
    8.7100   -4.2480   23.4850 O   0  0  0  0  0  0  0  0  0  0  0  0
    7.3720    0.0990   20.8930 N   0  0  0  0  0  0  0  0  0  0  0  0
    7.3090   -1.0010   20.0920 C   0  0  0  0  0  0  0  0  0  0  0  0
  1  2  2  3
  1  3  1  0
  3  4  2  0
  4  5  1  0
  5  6  2  0
  6  7  1  0
  7  8  1  0
  8  9  1  6
  8 10  1  0
 10 11  1  0
 11 12  2  0
 12 13  1  0
 13 14  1  0
 13 15  2  0
 15 16  1  0
 11 17  1  0
 16 17  2  0
 18 17  1  6
 18 19  1  0
 19 20  1  0
 20 21  1  0
 21 22  1  0
 21 23  2  0
 20 24  1  0
 24 25  1  0
 18 26  1  0
 25 26  1  0
  6 27  1  0
  3 28  1  0
 27 28  2  0
M  END
