BEN-VAN-77cef4f8-13-chloroacetamide
     RDKit          3D

 32 35  0  0  0  0  0  0  0  0999 V2000
    8.4010   -3.7900   19.5520 C   0  0  0  0  0  0  0  0  0  0  0  0
    7.3870   -4.3900   20.4520 C   0  0  0  0  0  0  0  0  0  0  0  0
    6.2350   -4.8310   20.1470 O   0  0  0  0  0  0  0  0  0  0  0  0
    8.1840   -4.3310   21.7000 C   0  0  0  0  0  0  0  0  0  0  0  0
    8.9600   -3.1990   21.6510 C   0  0  0  0  0  0  0  0  0  0  0  0
    9.8450   -2.9000   22.6130 C   0  0  0  0  0  0  0  0  0  0  0  0
    9.9960   -3.7170   23.6720 C   0  0  0  0  0  0  0  0  0  0  0  0
   10.9690   -3.3290   24.5730 N   0  0  0  0  0  0  0  0  0  0  0  0
   12.0600   -2.5160   23.9510 C   0  0  2  0  0  0  0  0  0  0  0  0
   12.7750   -1.5950   24.9330 C   0  0  0  0  0  0  0  0  0  0  0  0
   11.5140   -1.7140   22.7210 C   0  0  0  0  0  0  0  0  0  0  0  0
   11.2980   -0.2020   22.9140 C   0  0  0  0  0  0  0  0  0  0  0  0
   12.5750    0.6780   22.9440 C   0  0  0  0  0  0  0  0  0  0  0  0
   12.3870    2.0920   23.1290 C   0  0  0  0  0  0  0  0  0  0  0  0
   11.1230    2.0980   23.2110 C   0  0  0  0  0  0  0  0  0  0  0  0
   11.1910    0.8510   23.0430 C   0  0  0  0  0  0  0  0  0  0  0  0
    9.9880    0.5660   23.0840 C   0  0  0  0  0  0  0  0  0  0  0  0
   10.6680   -0.1980   22.9250 O   0  0  0  0  0  0  0  0  0  0  0  0
    9.3520    0.4170   22.5130 C   0  0  1  0  0  0  0  0  0  0  0  0
    8.1190   -0.5440   22.3430 C   0  0  2  0  0  0  0  0  0  0  0  0
    7.6470   -0.8140   21.0420 C   0  0  0  0  0  0  0  0  0  0  0  0
    6.4170   -1.6440   20.9850 N   0  0  0  0  0  0  0  0  0  0  0  0
    6.0370   -2.3610   19.8430 C   0  0  0  0  0  0  0  0  0  0  0  0
    6.3880   -1.8100   18.6250 C   0  0  0  0  0  0  0  0  0  0  0  0
    5.4180   -3.4420   19.8600 O   0  0  0  0  0  0  0  0  0  0  0  0
    5.3680   -1.2260   21.9200 C   0  0  0  0  0  0  0  0  0  0  0  0
    5.8810   -0.8880   23.1710 C   0  0  0  0  0  0  0  0  0  0  0  0
    7.0210   -0.0320   23.1230 O   0  0  0  0  0  0  0  0  0  0  0  0
    8.9850    1.7840   23.2690 C   0  0  0  0  0  0  0  0  0  0  0  0
   10.0240    2.8240   23.3690 O   0  0  0  0  0  0  0  0  0  0  0  0
    9.2480   -4.8560   23.8300 N   0  0  0  0  0  0  0  0  0  0  0  0
    8.3360   -5.1530   22.8220 C   0  0  0  0  0  0  0  0  0  0  0  0
  1  2  1  0
  2  3  2  0
  2  4  1  0
  4  5  2  0
  5  6  1  0
  6  7  2  0
  7  8  1  0
  8  9  1  0
  9 10  1  1
  9 11  1  0
 11 12  1  0
 12 13  2  0
 13 14  1  0
 14 15  2  0
 15 16  1  0
 12 17  1  0
 16 17  2  0
 16 18  1  0
 18 19  1  0
 19 20  1  0
 20 21  1  6
 21 22  1  0
 22 23  1  0
 23 24  1  0
 23 25  2  0
 22 26  1  0
 26 27  1  0
 20 28  1  0
 27 28  1  0
 19 29  1  1
 15 30  1  0
 29 30  1  0
  7 31  1  0
  4 32  1  0
 31 32  2  0
M  END
