BEN-VAN-ed886787-7
     RDKit          3D

 30 32  0  0  0  0  0  0  0  0999 V2000
   11.9290    6.9390   26.7330 C   0  0  0  0  0  0  0  0  0  0  0  0
   10.9050    7.5840   25.8570 C   0  0  0  0  0  0  0  0  0  0  0  0
   11.1860    7.4770   24.5370 N   0  0  0  0  0  0  0  0  0  0  0  0
   10.9180    6.1750   23.9180 C   0  0  0  0  0  0  0  0  0  0  0  0
    9.4620    5.8740   23.6010 C   0  0  0  0  0  0  0  0  0  0  0  0
    9.1590    4.6680   23.0170 C   0  0  0  0  0  0  0  0  0  0  0  0
   10.1840    3.7120   22.7100 C   0  0  0  0  0  0  0  0  0  0  0  0
    9.8620    2.5460   22.1350 F   0  0  0  0  0  0  0  0  0  0  0  0
   11.4830    4.0830   23.0440 C   0  0  0  0  0  0  0  0  0  0  0  0
   12.5250    3.1390   22.7400 C   0  0  0  0  0  0  0  0  0  0  0  0
   12.0130    1.6790   22.9620 C   0  0  0  0  0  0  0  0  0  0  0  0
   12.9300    0.5400   22.5450 C   0  0  0  0  0  0  0  0  0  0  0  0
   12.4480   -0.8480   22.6420 C   0  0  0  0  0  0  0  0  0  0  0  0
   13.2160   -1.9210   22.2270 C   0  0  0  0  0  0  0  0  0  0  0  0
   11.1930   -1.0270   23.1600 C   0  0  0  0  0  0  0  0  0  0  0  0
   10.3720   -0.0140   23.5940 C   0  0  0  0  0  0  0  0  0  0  0  0
    9.1440   -0.2800   24.1380 N   0  0  0  0  0  0  0  0  0  0  0  0
    7.9050   -0.2810   23.3310 C   0  0  0  0  0  0  0  0  0  0  0  0
    8.2520   -0.3560   21.9850 C   0  0  0  0  0  0  0  0  0  0  0  0
    9.3470   -0.0180   21.5610 O   0  0  0  0  0  0  0  0  0  0  0  0
    7.1970   -0.8280   21.2230 N   0  0  0  0  0  0  0  0  0  0  0  0
    6.5900   -0.1120   20.1990 C   0  0  0  0  0  0  0  0  0  0  0  0
    5.5040    0.7060   20.5120 C   0  0  0  0  0  0  0  0  0  0  0  0
    4.9070    1.4440   19.5010 C   0  0  0  0  0  0  0  0  0  0  0  0
    5.4160    1.3350   18.2200 C   0  0  0  0  0  0  0  0  0  0  0  0
    4.8740    2.0450   17.2570 F   0  0  0  0  0  0  0  0  0  0  0  0
    6.4420    0.5500   17.8910 N   0  0  0  0  0  0  0  0  0  0  0  0
    7.0070   -0.1570   18.8810 C   0  0  0  0  0  0  0  0  0  0  0  0
   10.7730    1.3250   23.4890 C   0  0  0  0  0  0  0  0  0  0  0  0
   11.8620    5.2690   23.6280 N   0  0  0  0  0  0  0  0  0  0  0  0
  1  2  1  0
  2  3  1  0
  3  4  1  0
  4  5  2  0
  5  6  1  0
  6  7  2  0
  7  8  1  0
  7  9  1  0
  9 10  1  0
 10 11  1  0
 11 12  2  0
 12 13  1  0
 13 14  1  0
 13 15  2  0
 15 16  1  0
 16 17  1  0
 17 18  1  0
 18 19  1  0
 19 20  2  0
 19 21  1  0
 21 22  1  0
 22 23  2  0
 23 24  1  0
 24 25  2  0
 25 26  1  0
 25 27  1  0
 22 28  1  0
 27 28  2  0
 11 29  1  0
 16 29  2  0
  4 30  1  0
  9 30  2  0
M  END
