BEN-VAN-5787f7d3-17
     RDKit          3D

 32 35  0  0  0  0  0  0  0  0999 V2000
   12.9080   -1.9110   21.6520 C   0  0  0  0  0  0  0  0  0  0  0  0
   11.8850   -1.5030   22.6730 C   0  0  0  0  0  0  0  0  0  0  0  0
   10.7850   -2.0450   22.8870 O   0  0  0  0  0  0  0  0  0  0  0  0
    9.7090   -1.4430   22.2440 C   0  0  0  0  0  0  0  0  0  0  0  0
    9.7110   -0.0630   21.7280 C   0  0  0  0  0  0  0  0  0  0  0  0
    8.7710    0.5710   21.1030 N   0  0  0  0  0  0  0  0  0  0  0  0
    7.6760   -0.1340   20.8540 C   0  0  0  0  0  0  0  0  0  0  0  0
    6.7720    0.4550   20.1340 C   0  0  0  0  0  0  0  0  0  0  0  0
    7.0190    0.3140   18.7760 C   0  0  0  0  0  0  0  0  0  0  0  0
    6.3040    0.8640   17.7990 N   0  0  0  0  0  0  0  0  0  0  0  0
    5.2790    1.6040   18.1760 C   0  0  0  0  0  0  0  0  0  0  0  0
    4.6460    2.1830   17.2230 F   0  0  0  0  0  0  0  0  0  0  0  0
    4.8490    1.8160   19.5860 C   0  0  0  0  0  0  0  0  0  0  0  0
    5.7010    1.1590   20.6210 C   0  0  0  0  0  0  0  0  0  0  0  0
    5.3310    1.3390   22.0890 C   0  0  0  0  0  0  0  0  0  0  0  0
    7.5150   -1.4120   21.3070 C   0  0  0  0  0  0  0  0  0  0  0  0
    8.4890   -2.0690   22.0100 C   0  0  0  0  0  0  0  0  0  0  0  0
    8.1710   -3.3000   22.4500 C   0  0  0  0  0  0  0  0  0  0  0  0
    8.7500   -3.6130   23.6170 C   0  0  0  0  0  0  0  0  0  0  0  0
    8.4290   -4.8070   24.1080 C   0  0  0  0  0  0  0  0  0  0  0  0
    9.1140   -5.3180   25.6090 Cl  0  0  0  0  0  0  0  0  0  0  0  0
    7.5480   -5.6300   23.4110 C   0  0  0  0  0  0  0  0  0  0  0  0
    6.7700   -5.4560   22.0510 C   0  0  0  0  0  0  0  0  0  0  0  0
    6.2290   -4.9010   20.7490 C   0  0  0  0  0  0  0  0  0  0  0  0
    5.7000   -4.2080   19.8780 O   0  0  0  0  0  0  0  0  0  0  0  0
    5.9300   -3.9010   21.6350 N   0  0  0  0  0  0  0  0  0  0  0  0
    5.1550   -4.0840   22.7250 C   0  0  0  0  0  0  0  0  0  0  0  0
    4.8730   -3.2970   23.9450 C   0  0  0  0  0  0  0  0  0  0  0  0
    3.9880   -4.0840   24.6220 C   0  0  0  0  0  0  0  0  0  0  0  0
    3.7820   -5.2260   23.8540 C   0  0  0  0  0  0  0  0  0  0  0  0
    4.4370   -5.2280   22.7840 O   0  0  0  0  0  0  0  0  0  0  0  0
    7.2910   -4.1390   21.7570 C   0  0  0  0  0  0  0  0  0  0  0  0
  1  2  1  0
  2  3  1  0
  3  4  1  0
  4  5  2  0
  5  6  1  0
  6  7  2  0
  7  8  1  0
  8  9  2  0
  9 10  1  0
 10 11  2  0
 11 12  1  0
 11 13  1  0
  8 14  1  0
 13 14  2  0
 14 15  1  0
  7 16  1  0
  4 17  1  0
 16 17  2  0
 17 18  1  0
 18 19  2  0
 19 20  1  0
 20 21  1  0
 20 22  2  0
 22 23  1  0
 23 24  1  0
 24 25  2  0
 24 26  1  0
 26 27  1  0
 27 28  2  0
 28 29  1  0
 29 30  2  0
 27 31  1  0
 30 31  1  0
 18 32  1  0
 23 32  2  0
M  END
