BEN-VAN-d8fd1356-27
     RDKit          3D

 23 25  0  0  0  0  0  0  0  0999 V2000
   11.8560    6.0340   24.4540 C   0  0  0  0  0  0  0  0  0  0  0  0
   12.3630    5.5660   23.0780 C   0  0  0  0  0  0  0  0  0  0  0  0
   12.9220    4.1140   22.9800 C   0  0  0  0  0  0  0  0  0  0  0  0
   11.8420    3.0000   22.9570 C   0  0  0  0  0  0  0  0  0  0  0  0
   10.4390    3.4690   23.1000 C   0  0  0  0  0  0  0  0  0  0  0  0
    9.5480    2.4620   23.0090 N   0  0  0  0  0  0  0  0  0  0  0  0
   10.2080    1.2740   22.8080 C   0  0  0  0  0  0  0  0  0  0  0  0
    9.6200    0.0110   22.6200 C   0  0  0  0  0  0  0  0  0  0  0  0
    8.1540   -0.0120   22.5890 O   0  0  0  0  0  0  0  0  0  0  0  0
    7.4520    0.4300   21.3620 C   0  0  0  0  0  0  0  0  0  0  0  0
    6.0760    0.5580   21.2550 C   0  0  0  0  0  0  0  0  0  0  0  0
    5.7420    0.9850   19.8010 C   0  0  0  0  0  0  0  0  0  0  0  0
    6.7210    0.4660   18.8590 N   0  0  0  0  0  0  0  0  0  0  0  0
    6.3070    0.4500   17.4770 C   0  0  0  0  0  0  0  0  0  0  0  0
    7.3740    0.3820   16.3950 C   0  0  0  0  0  0  0  0  0  0  0  0
    5.1260    0.4700   17.2440 O   0  0  0  0  0  0  0  0  0  0  0  0
    7.1910   -0.6950   19.1830 C   0  0  0  0  0  0  0  0  0  0  0  0
    7.7820   -0.7390   20.4730 C   0  0  0  0  0  0  0  0  0  0  0  0
   10.5560   -1.0930   22.4550 C   0  0  0  0  0  0  0  0  0  0  0  0
   12.1000   -0.9190   22.4650 C   0  0  0  0  0  0  0  0  0  0  0  0
   12.9460   -1.9470   22.3040 F   0  0  0  0  0  0  0  0  0  0  0  0
   12.6430    0.4980   22.6500 C   0  0  0  0  0  0  0  0  0  0  0  0
   11.7530    1.5640   22.8060 C   0  0  0  0  0  0  0  0  0  0  0  0
  1  2  1  0
  2  3  1  0
  3  4  1  0
  4  5  2  0
  5  6  1  0
  6  7  1  0
  7  8  1  0
  8  9  1  0
  9 10  1  0
 10 11  1  0
 11 12  1  0
 12 13  1  0
 13 14  1  0
 14 15  1  0
 14 16  2  0
 13 17  1  0
 10 18  1  0
 17 18  1  0
  8 19  2  0
 19 20  1  0
 20 21  1  0
 20 22  2  0
  4 23  1  0
  7 23  2  0
 22 23  1  0
M  END
