BEN-DND-362d364a-6-chloroacetamide
     RDKit          3D

 19 19  0  0  0  0  0  0  0  0999 V2000
    6.2950   -5.1660   20.1930 C   0  0  0  0  0  0  0  0  0  0  0  0
    6.7460   -3.8030   20.8540 C   0  0  0  0  0  0  0  0  0  0  0  0
    6.7500   -3.6360   19.5670 O   0  0  0  0  0  0  0  0  0  0  0  0
    6.3610   -4.6660   22.0730 C   0  0  0  0  0  0  0  0  0  0  0  0
    7.2760   -5.2550   22.9580 C   0  0  0  0  0  0  0  0  0  0  0  0
    8.1960   -4.5510   22.3620 N   0  0  0  0  0  0  0  0  0  0  0  0
    7.4550   -3.6970   21.3640 C   0  0  0  0  0  0  0  0  0  0  0  0
    8.3910   -2.7970   20.6920 N   0  0  0  0  0  0  0  0  0  0  0  0
    9.4310   -2.3340   21.6400 C   0  0  0  0  0  0  0  0  0  0  0  0
    9.3540   -0.9680   21.8250 C   0  0  0  0  0  0  0  0  0  0  0  0
    5.9490   -3.6180   20.9770 C   0  0  0  0  0  0  0  0  0  0  0  0
    5.4510   -2.7220   20.0390 C   0  0  0  0  0  0  0  0  0  0  0  0
    5.1810   -1.3360   20.6780 C   0  0  0  0  0  0  0  0  0  0  0  0
    6.3760   -0.5850   21.0760 N   0  0  0  0  0  0  0  0  0  0  0  0
    6.2360    0.3890   22.4460 S   0  0  0  0  0  0  0  0  0  0  0  0
    5.5170   -0.7270   23.6390 C   0  0  0  0  0  0  0  0  0  0  0  0
    5.3180    1.4560   22.1150 O   0  0  0  0  0  0  0  0  0  0  0  0
    7.5900    0.6660   22.8660 O   0  0  0  0  0  0  0  0  0  0  0  0
    5.2090   -4.5560   21.7730 C   0  0  0  0  0  0  0  0  0  0  0  0
  1  2  1  0
  2  3  2  0
  2  4  1  0
  4  5  2  0
  5  6  1  0
  6  7  2  0
  7  8  1  0
  8  9  1  0
  9 10  1  0
  7 11  1  0
 11 12  1  0
 12 13  1  0
 13 14  1  0
 15 14  1  0
 15 16  1  0
 15 17  2  0
 15 18  2  0
  4 19  1  0
 11 19  2  0
M  END
