BEN-VAN-ed886787-12-chloroacetamide
     RDKit          3D

 27 28  0  0  0  0  0  0  0  0999 V2000
    7.3850   -3.1920   19.5780 C   0  0  0  0  0  0  0  0  0  0  0  0
    5.9860   -2.6540   19.6160 C   0  0  0  0  0  0  0  0  0  0  0  0
    5.0750   -3.3370   19.1200 O   0  0  0  0  0  0  0  0  0  0  0  0
    5.7600   -1.4090   20.2050 N   0  0  0  0  0  0  0  0  0  0  0  0
    6.7320   -0.2500   20.3180 C   0  0  0  0  0  0  0  0  0  0  0  0
    6.8190   -0.2460   18.9650 O   0  0  0  0  0  0  0  0  0  0  0  0
    6.2520   -0.6990   21.7300 C   0  0  0  0  0  0  0  0  0  0  0  0
    6.5960    0.4260   22.6380 N   0  0  0  0  0  0  0  0  0  0  0  0
    8.0040    0.7710   22.7900 C   0  0  0  0  0  0  0  0  0  0  0  0
    8.4850    2.0840   23.3420 C   0  0  0  0  0  0  0  0  0  0  0  0
   10.0200    2.1160   23.3480 C   0  0  0  0  0  0  0  0  0  0  0  0
   10.3570    3.4680   23.8940 C   0  0  0  0  0  0  0  0  0  0  0  0
   10.2210    4.5730   22.8820 C   0  0  0  0  0  0  0  0  0  0  0  0
   10.8340    1.0610   22.9090 C   0  0  0  0  0  0  0  0  0  0  0  0
   10.1780   -0.0830   22.4240 C   0  0  0  0  0  0  0  0  0  0  0  0
   10.7170   -1.2120   21.9230 C   0  0  0  0  0  0  0  0  0  0  0  0
   11.8530   -1.7890   22.3080 C   0  0  0  0  0  0  0  0  0  0  0  0
   12.3370   -2.6930   21.4450 N   0  0  0  0  0  0  0  0  0  0  0  0
   13.4340   -3.3950   21.6750 C   0  0  0  0  0  0  0  0  0  0  0  0
   13.9410   -4.4000   20.6010 N   0  0  0  0  0  0  0  0  0  0  0  0
   15.0320   -5.2830   20.5670 C   0  0  0  0  0  0  0  0  0  0  0  0
   15.8910   -5.2490   21.6110 C   0  0  0  0  0  0  0  0  0  0  0  0
   14.0160   -3.0960   22.9270 C   0  0  0  0  0  0  0  0  0  0  0  0
   13.5490   -2.1600   23.8190 C   0  0  0  0  0  0  0  0  0  0  0  0
   12.4530   -1.4050   23.6040 C   0  0  0  0  0  0  0  0  0  0  0  0
   11.9990   -0.4770   24.4450 F   0  0  0  0  0  0  0  0  0  0  0  0
    8.8180   -0.2090   22.3740 C   0  0  0  0  0  0  0  0  0  0  0  0
  1  2  1  0
  2  3  2  0
  2  4  1  0
  4  5  1  0
  5  6  2  0
  5  7  1  0
  7  8  1  0
  8  9  1  0
  9 10  2  0
 10 11  1  0
 11 12  1  0
 12 13  1  0
 11 14  2  0
 14 15  1  0
 15 16  1  0
 16 17  1  0
 17 18  2  0
 18 19  1  0
 19 20  1  0
 20 21  1  0
 21 22  1  0
 19 23  2  0
 23 24  1  0
 17 25  1  0
 24 25  2  0
 25 26  1  0
  9 27  1  0
 15 27  2  0
M  END
