BEN-VAN-ed886787-19-vinylsulfonamide
     RDKit          3D

 28 29  0  0  0  0  0  0  0  0999 V2000
    7.4870   -3.0360   19.1920 C   0  0  0  0  0  0  0  0  0  0  0  0
    6.1600   -2.3990   18.8750 C   0  0  0  0  0  0  0  0  0  0  0  0
    5.3970   -1.8770   20.3730 S   0  0  0  0  0  0  0  0  0  0  0  0
    4.8670   -3.0560   21.0750 O   0  0  0  0  0  0  0  0  0  0  0  0
    4.5420   -0.7680   20.0090 O   0  0  0  0  0  0  0  0  0  0  0  0
    6.6470   -1.1390   21.2060 N   0  0  0  0  0  0  0  0  0  0  0  0
    6.5130   -1.0260   22.6950 C   0  0  0  0  0  0  0  0  0  0  0  0
    5.9930    0.0160   23.4430 O   0  0  0  0  0  0  0  0  0  0  0  0
    7.0960   -2.3570   23.2130 C   0  0  0  0  0  0  0  0  0  0  0  0
    8.2040   -2.5790   22.2670 N   0  0  0  0  0  0  0  0  0  0  0  0
    9.5810   -2.4680   22.7150 C   0  0  0  0  0  0  0  0  0  0  0  0
    9.8010   -2.3890   24.1920 C   0  0  0  0  0  0  0  0  0  0  0  0
   11.2560   -2.2970   24.6850 C   0  0  0  0  0  0  0  0  0  0  0  0
   12.3960   -2.2780   23.7310 C   0  0  0  0  0  0  0  0  0  0  0  0
   13.7520   -2.2220   24.7890 Cl  0  0  0  0  0  0  0  0  0  0  0  0
   12.2740   -2.3170   22.2440 C   0  0  0  0  0  0  0  0  0  0  0  0
   13.1770   -2.3030   21.1100 C   0  0  0  0  0  0  0  0  0  0  0  0
   13.8440   -1.0480   20.6760 C   0  0  0  0  0  0  0  0  0  0  0  0
   13.6490    0.0610   21.4530 N   0  0  0  0  0  0  0  0  0  0  0  0
   14.3570    1.2100   20.7780 C   0  0  0  0  0  0  0  0  0  0  0  0
   14.4030    2.3050   21.0920 N   0  0  0  0  0  0  0  0  0  0  0  0
   14.9370    2.6020   22.1010 C   0  0  0  0  0  0  0  0  0  0  0  0
   16.0690    3.6390   22.4100 C   0  0  0  0  0  0  0  0  0  0  0  0
   15.1230    1.4700   19.6820 C   0  0  0  0  0  0  0  0  0  0  0  0
   15.3700    0.4970   18.9980 C   0  0  0  0  0  0  0  0  0  0  0  0
   14.8100   -0.7560   19.4080 C   0  0  0  0  0  0  0  0  0  0  0  0
   15.2760   -1.4910   18.5800 F   0  0  0  0  0  0  0  0  0  0  0  0
   10.8000   -2.4290   21.8150 C   0  0  0  0  0  0  0  0  0  0  0  0
  1  2  1  0
  2  3  1  0
  3  4  2  0
  3  5  2  0
  3  6  1  0
  6  7  1  0
  7  8  2  0
  7  9  1  0
  9 10  1  0
 10 11  1  0
 11 12  2  0
 12 13  1  0
 13 14  2  0
 14 15  1  0
 14 16  1  0
 16 17  1  0
 17 18  1  0
 18 19  2  0
 19 20  1  0
 20 21  1  0
 21 22  1  0
 22 23  1  0
 20 24  2  0
 24 25  1  0
 18 26  1  0
 25 26  2  0
 26 27  1  0
 11 28  1  0
 16 28  2  0
M  END
