BEN-VAN-ed886787-12-acrylamide
     RDKit          3D

 28 29  0  0  0  0  0  0  0  0999 V2000
    7.6060   -3.5790   19.9450 C   0  0  0  0  0  0  0  0  0  0  0  0
    6.7010   -3.0140   21.0230 C   0  0  0  0  0  0  0  0  0  0  0  0
    5.5250   -2.3190   20.3920 C   0  0  0  0  0  0  0  0  0  0  0  0
    4.9120   -3.1380   21.1150 O   0  0  0  0  0  0  0  0  0  0  0  0
    6.6020   -1.6280   19.7770 N   0  0  0  0  0  0  0  0  0  0  0  0
    7.2040   -0.3430   20.1880 C   0  0  0  0  0  0  0  0  0  0  0  0
    7.2390    0.6320   19.4320 O   0  0  0  0  0  0  0  0  0  0  0  0
    7.6710   -0.3330   21.4680 C   0  0  0  0  0  0  0  0  0  0  0  0
    8.9140   -1.1610   21.5910 N   0  0  0  0  0  0  0  0  0  0  0  0
    9.9580   -0.4880   22.1580 C   0  0  0  0  0  0  0  0  0  0  0  0
   11.1730   -1.0580   22.1140 C   0  0  0  0  0  0  0  0  0  0  0  0
   12.2130   -0.2990   22.6920 C   0  0  0  0  0  0  0  0  0  0  0  0
   13.4500   -1.0590   22.5180 C   0  0  0  0  0  0  0  0  0  0  0  0
   13.2180   -2.1000   21.4190 C   0  0  0  0  0  0  0  0  0  0  0  0
   12.1130    0.9460   23.2990 C   0  0  0  0  0  0  0  0  0  0  0  0
   10.8560    1.5320   23.3490 C   0  0  0  0  0  0  0  0  0  0  0  0
   10.3960    2.7400   23.8600 C   0  0  0  0  0  0  0  0  0  0  0  0
    9.2690    2.4540   24.6270 C   0  0  0  0  0  0  0  0  0  0  0  0
    8.2880    1.8020   25.4040 N   0  0  0  0  0  0  0  0  0  0  0  0
    8.1400    0.5100   25.8460 C   0  0  0  0  0  0  0  0  0  0  0  0
    7.0500    0.1190   26.6300 N   0  0  0  0  0  0  0  0  0  0  0  0
    7.2740   -1.0210   27.5250 C   0  0  0  0  0  0  0  0  0  0  0  0
    8.4450   -0.8500   28.2750 C   0  0  0  0  0  0  0  0  0  0  0  0
    9.0440   -0.4370   25.5510 C   0  0  0  0  0  0  0  0  0  0  0  0
   10.0490    0.0300   24.8130 C   0  0  0  0  0  0  0  0  0  0  0  0
   10.1320    1.3530   24.4030 C   0  0  0  0  0  0  0  0  0  0  0  0
   11.2150    1.6340   23.6750 F   0  0  0  0  0  0  0  0  0  0  0  0
    9.7300    0.7440   22.7350 C   0  0  0  0  0  0  0  0  0  0  0  0
  1  2  1  0
  2  3  1  0
  3  4  2  0
  3  5  1  0
  5  6  1  0
  6  7  2  0
  6  8  1  0
  8  9  1  0
  9 10  1  0
 10 11  2  0
 11 12  1  0
 12 13  1  0
 13 14  1  0
 12 15  2  0
 15 16  1  0
 16 17  1  0
 17 18  1  0
 18 19  2  0
 19 20  1  0
 20 21  1  0
 21 22  1  0
 22 23  1  0
 20 24  2  0
 24 25  1  0
 18 26  1  0
 25 26  2  0
 26 27  1  0
 10 28  1  0
 16 28  2  0
M  END
