BEN-VAN-77cef4f8-8-acrylamide
     RDKit          3D

 31 33  0  0  0  0  0  0  0  0999 V2000
    7.0760   -3.6120   19.8510 C   0  0  0  0  0  0  0  0  0  0  0  0
    5.6960   -3.1350   19.5190 C   0  0  0  0  0  0  0  0  0  0  0  0
    5.1800   -2.1790   20.5620 C   0  0  0  0  0  0  0  0  0  0  0  0
    4.9570   -3.2390   21.1490 O   0  0  0  0  0  0  0  0  0  0  0  0
    5.6170   -1.2230   19.5380 C   0  0  0  0  0  0  0  0  0  0  0  0
    6.1760   -0.1280   18.8070 C   0  0  0  0  0  0  0  0  0  0  0  0
    6.8960    0.9710   19.2560 C   0  0  0  0  0  0  0  0  0  0  0  0
    7.1510    1.1220   20.5760 C   0  0  0  0  0  0  0  0  0  0  0  0
    7.8800    2.1600   21.1600 N   0  0  0  0  0  0  0  0  0  0  0  0
    8.6230    2.0720   22.3230 C   0  0  2  0  0  0  0  0  0  0  0  0
    9.6590    3.0190   22.3890 C   0  0  0  0  0  0  0  0  0  0  0  0
    8.7860    0.6500   22.5150 C   0  0  0  0  0  0  0  0  0  0  0  0
   10.0190   -0.0800   23.0540 C   0  0  0  0  0  0  0  0  0  0  0  0
   11.2850    0.5320   22.8360 C   0  0  0  0  0  0  0  0  0  0  0  0
   12.4770   -0.0350   23.2560 C   0  0  0  0  0  0  0  0  0  0  0  0
   13.6150    0.5860   23.0030 F   0  0  0  0  0  0  0  0  0  0  0  0
   12.4220   -1.2300   23.9210 C   0  0  0  0  0  0  0  0  0  0  0  0
   13.5330   -1.8250   24.3570 F   0  0  0  0  0  0  0  0  0  0  0  0
   11.2180   -1.8500   24.1550 C   0  0  0  0  0  0  0  0  0  0  0  0
    9.9750   -1.3380   23.7480 C   0  0  0  0  0  0  0  0  0  0  0  0
    8.7330   -1.9770   23.9530 C   0  0  1  0  0  0  0  0  0  0  0  0
    9.0260   -3.2760   23.7190 C   0  0  0  0  0  0  0  0  0  0  0  0
    7.8250   -3.6800   23.3090 N   0  0  0  0  0  0  0  0  0  0  0  0
    7.4480   -2.8280   22.3050 C   0  0  0  0  0  0  0  0  0  0  0  0
    8.5310   -2.3560   21.3450 C   0  0  0  0  0  0  0  0  0  0  0  0
    6.2890   -2.4700   22.2250 O   0  0  0  0  0  0  0  0  0  0  0  0
    6.9660   -3.6900   24.3720 C   0  0  0  0  0  0  0  0  0  0  0  0
    7.0830   -2.3850   25.1460 C   0  0  0  0  0  0  0  0  0  0  0  0
    8.1790   -1.7940   25.0320 O   0  0  0  0  0  0  0  0  0  0  0  0
    6.6820    0.2130   21.3930 N   0  0  0  0  0  0  0  0  0  0  0  0
    5.9950   -0.8290   20.8440 C   0  0  0  0  0  0  0  0  0  0  0  0
  1  2  1  0
  2  3  1  0
  3  4  2  0
  3  5  1  0
  5  6  2  0
  6  7  1  0
  7  8  2  0
  8  9  1  0
  9 10  1  0
 10 11  1  6
 10 12  1  0
 12 13  1  0
 13 14  2  0
 14 15  1  0
 15 16  1  0
 15 17  2  0
 17 18  1  0
 17 19  1  0
 13 20  1  0
 19 20  2  0
 21 20  1  1
 21 22  1  0
 22 23  1  0
 23 24  1  0
 24 25  1  0
 24 26  2  0
 23 27  1  0
 27 28  1  0
 21 29  1  0
 28 29  1  0
  8 30  1  0
  5 31  1  0
 30 31  2  0
M  END
