BEN-VAN-d8fd1356-24
     RDKit          3D

 24 26  0  0  0  0  0  0  0  0999 V2000
    6.5680   -5.0980   28.7780 C   0  0  0  0  0  0  0  0  0  0  0  0
    7.8030   -5.2700   27.8930 C   0  0  0  0  0  0  0  0  0  0  0  0
    8.4730   -6.2790   27.9770 O   0  0  0  0  0  0  0  0  0  0  0  0
    8.1020   -4.1870   26.9590 N   0  0  0  0  0  0  0  0  0  0  0  0
    7.8760   -2.8310   27.4540 C   0  0  0  0  0  0  0  0  0  0  0  0
    8.0330   -1.7470   26.3790 C   0  0  0  0  0  0  0  0  0  0  0  0
    9.0510   -2.0460   25.3300 N   0  0  0  0  0  0  0  0  0  0  0  0
    9.0130   -1.0430   24.2590 C   0  0  0  0  0  0  0  0  0  0  0  0
   10.3650   -0.6900   23.6330 C   0  0  0  0  0  0  0  0  0  0  0  0
   11.3130   -1.5770   23.0880 C   0  0  0  0  0  0  0  0  0  0  0  0
   12.6580   -0.9940   22.4770 C   0  0  0  0  0  0  0  0  0  0  0  0
   13.5550   -1.8180   21.9610 F   0  0  0  0  0  0  0  0  0  0  0  0
   12.8760    0.3660   22.4820 C   0  0  0  0  0  0  0  0  0  0  0  0
   11.8170    1.2550   23.0510 C   0  0  0  0  0  0  0  0  0  0  0  0
   11.6830    2.7770   23.1800 C   0  0  0  0  0  0  0  0  0  0  0  0
   12.7000    3.7590   22.6590 C   0  0  0  0  0  0  0  0  0  0  0  0
   12.9410    4.8020   23.4900 F   0  0  0  0  0  0  0  0  0  0  0  0
   13.8510    3.1720   22.3110 F   0  0  0  0  0  0  0  0  0  0  0  0
   12.2520    4.3250   21.5140 F   0  0  0  0  0  0  0  0  0  0  0  0
   10.4870    3.0440   23.8240 C   0  0  0  0  0  0  0  0  0  0  0  0
    9.8620    1.8020   24.0750 N   0  0  0  0  0  0  0  0  0  0  0  0
   10.5980    0.6810   23.6230 C   0  0  0  0  0  0  0  0  0  0  0  0
    8.9470   -3.4060   24.7510 C   0  0  0  0  0  0  0  0  0  0  0  0
    8.0050   -4.3440   25.5080 C   0  0  0  0  0  0  0  0  0  0  0  0
  1  2  1  0
  2  3  2  0
  2  4  1  0
  4  5  1  0
  5  6  1  0
  6  7  1  0
  7  8  1  0
  8  9  1  0
  9 10  2  0
 10 11  1  0
 11 12  1  0
 11 13  2  0
 13 14  1  0
 14 15  1  0
 15 16  1  0
 16 17  1  0
 16 18  1  0
 16 19  1  0
 15 20  2  0
 20 21  1  0
  9 22  1  0
 14 22  2  0
 21 22  1  0
  7 23  1  0
  4 24  1  0
 23 24  1  0
M  END
