BEN-VAN-77cef4f8-10-nitrile
     RDKit          3D

 27 29  0  0  0  0  0  0  0  0999 V2000
    6.7630   -3.6330   19.8200 C   0  0  0  0  0  0  0  0  0  0  0  0
    5.7910   -3.2780   19.0760 N   0  0  0  0  0  0  0  0  0  0  0  0
    6.8640   -3.2380   21.1320 N   0  0  0  0  0  0  0  0  0  0  0  0
    6.3030   -4.0360   22.2410 C   0  0  0  0  0  0  0  0  0  0  0  0
    7.2920   -4.5220   23.1060 C   0  0  0  0  0  0  0  0  0  0  0  0
    8.5020   -3.7550   23.0680 O   0  0  0  0  0  0  0  0  0  0  0  0
    8.2340   -2.3570   22.9100 C   0  0  1  0  0  0  0  0  0  0  0  0
    9.3840   -1.6220   23.1000 C   0  0  0  0  0  0  0  0  0  0  0  0
   10.4810   -1.9050   22.2640 C   0  0  0  0  0  0  0  0  0  0  0  0
   11.7830   -1.1330   22.4150 C   0  0  0  0  0  0  0  0  0  0  0  0
   11.9250   -0.0580   23.4530 C   0  0  0  0  0  0  0  0  0  0  0  0
   13.0450    0.6260   23.5960 F   0  0  0  0  0  0  0  0  0  0  0  0
   10.7090    0.1710   24.2960 C   0  0  0  0  0  0  0  0  0  0  0  0
    9.4370   -0.6200   24.1070 C   0  0  0  0  0  0  0  0  0  0  0  0
    8.3360   -0.3220   24.9520 C   0  0  0  0  0  0  0  0  0  0  0  0
    8.5650    0.1890   26.2070 C   0  0  2  0  0  0  0  0  0  0  0  0
    9.5390   -0.4550   26.9100 C   0  0  0  0  0  0  0  0  0  0  0  0
    7.3290    0.1500   27.0000 N   0  0  0  0  0  0  0  0  0  0  0  0
    7.4180    0.1930   28.4090 C   0  0  0  0  0  0  0  0  0  0  0  0
    8.6580    0.4270   29.0380 C   0  0  0  0  0  0  0  0  0  0  0  0
    8.7710    0.4760   30.5360 C   0  0  0  0  0  0  0  0  0  0  0  0
    7.4830    0.2630   31.3400 C   0  0  0  0  0  0  0  0  0  0  0  0
    7.4350    0.2850   32.7390 C   0  0  0  0  0  0  0  0  0  0  0  0
    7.3830    0.3000   33.8990 N   0  0  0  0  0  0  0  0  0  0  0  0
    6.3470    0.0440   30.5620 C   0  0  0  0  0  0  0  0  0  0  0  0
    6.3060    0.0090   29.1810 N   0  0  0  0  0  0  0  0  0  0  0  0
    7.5780   -2.0430   21.5600 C   0  0  0  0  0  0  0  0  0  0  0  0
  1  2  2  3
  1  3  1  0
  3  4  1  0
  4  5  1  0
  5  6  1  0
  6  7  1  0
  7  8  1  6
  8  9  2  0
  9 10  1  0
 10 11  2  0
 11 12  1  0
 11 13  1  0
  8 14  1  0
 13 14  2  0
 14 15  1  0
 15 16  1  0
 16 17  1  1
 16 18  1  0
 18 19  1  0
 19 20  2  0
 20 21  1  0
 21 22  2  0
 22 23  1  0
 23 24  3  0
 22 25  1  0
 19 26  1  0
 25 26  2  0
  3 27  1  0
  7 27  1  0
M  END
