BEN-DND-031a96cc-2
     RDKit          3D

 25 27  0  0  0  0  0  0  0  0999 V2000
    7.0080   -3.5090   26.4210 O   0  0  0  0  0  0  0  0  0  0  0  0
    6.1460   -2.7120   26.0580 C   0  0  0  0  0  0  0  0  0  0  0  0
    5.1030   -2.9550   25.0560 N   0  0  0  0  0  0  0  0  0  0  0  0
    5.5960   -3.8980   24.0310 C   0  0  0  0  0  0  0  0  0  0  0  0
    4.4650   -4.7540   23.5000 C   0  0  0  0  0  0  0  0  0  0  0  0
    5.0170   -5.5810   22.5750 C   0  0  0  0  0  0  0  0  0  0  0  0
    6.3480   -5.6220   22.2020 C   0  0  0  0  0  0  0  0  0  0  0  0
    7.5460   -4.8690   22.6210 C   0  0  0  0  0  0  0  0  0  0  0  0
    6.9230   -4.0130   23.5900 C   0  0  0  0  0  0  0  0  0  0  0  0
    6.1090   -1.3190   26.6870 C   0  0  0  0  0  0  0  0  0  0  0  0
    5.4840   -0.3040   25.7990 C   0  0  0  0  0  0  0  0  0  0  0  0
    6.2550   -0.2590   24.5430 C   0  0  0  0  0  0  0  0  0  0  0  0
    7.6310    0.2090   24.8270 N   0  0  0  0  0  0  0  0  0  0  0  0
    7.8300    1.5890   24.3540 C   0  0  0  0  0  0  0  0  0  0  0  0
    8.2560    2.6520   23.5790 O   0  0  0  0  0  0  0  0  0  0  0  0
    8.5860    0.9060   23.3050 C   0  0  2  0  0  0  0  0  0  0  0  0
    8.6170   -0.8230   23.3370 Cl  0  0  0  0  0  0  0  0  0  0  0  0
    9.8130    1.5120   22.9900 C   0  0  0  0  0  0  0  0  0  0  0  0
    9.8880    0.4080   23.9070 C   0  0  0  0  0  0  0  0  0  0  0  0
   10.7870   -0.3820   24.6850 C   0  0  0  0  0  0  0  0  0  0  0  0
   12.0670    0.3150   24.2860 C   0  0  0  0  0  0  0  0  0  0  0  0
   12.3350    1.3140   23.5090 N   0  0  0  0  0  0  0  0  0  0  0  0
   11.1890    1.8520   22.9140 C   0  0  0  0  0  0  0  0  0  0  0  0
    7.8590    0.1940   26.2910 C   0  0  0  0  0  0  0  0  0  0  0  0
    7.5310   -0.8960   27.0710 C   0  0  0  0  0  0  0  0  0  0  0  0
  1  2  2  0
  2  3  1  0
  3  4  1  0
  4  5  2  0
  5  6  1  0
  6  7  2  0
  7  8  1  0
  4  9  1  0
  8  9  2  0
  2 10  1  0
 10 11  1  0
 11 12  1  0
 12 13  1  0
 13 14  1  0
 14 15  2  0
 14 16  1  0
 16 17  1  1
 16 18  1  0
 18 19  2  0
 19 20  1  0
 20 21  2  0
 21 22  1  0
 18 23  1  0
 22 23  2  0
 13 24  1  0
 10 25  1  0
 24 25  1  0
M  END
