BEN-VAN-d8fd1356-23
     RDKit          3D

 24 26  0  0  0  0  0  0  0  0999 V2000
    6.4490   -6.2300   28.6350 C   0  0  0  0  0  0  0  0  0  0  0  0
    6.8290   -5.5440   27.3180 C   0  0  0  0  0  0  0  0  0  0  0  0
    8.3410   -5.1730   27.1980 C   0  0  0  0  0  0  0  0  0  0  0  0
    9.0570   -5.2430   28.4200 O   0  0  0  0  0  0  0  0  0  0  0  0
    8.9230   -4.8010   26.0100 N   0  0  0  0  0  0  0  0  0  0  0  0
   10.3340   -4.3730   25.9050 C   0  0  0  0  0  0  0  0  0  0  0  0
   10.5460   -3.1560   25.0200 C   0  0  0  0  0  0  0  0  0  0  0  0
    9.2470   -2.5260   24.8360 N   0  0  0  0  0  0  0  0  0  0  0  0
    9.2370   -1.1520   24.3160 C   0  0  0  0  0  0  0  0  0  0  0  0
   10.3920   -0.6450   23.7270 C   0  0  0  0  0  0  0  0  0  0  0  0
   11.4700   -1.6120   23.0630 C   0  0  0  0  0  0  0  0  0  0  0  0
   12.5860   -0.9820   22.4980 C   0  0  0  0  0  0  0  0  0  0  0  0
   13.5130   -1.7430   21.9220 F   0  0  0  0  0  0  0  0  0  0  0  0
   12.7900    0.5450   22.5030 C   0  0  0  0  0  0  0  0  0  0  0  0
   14.0630    1.4440   21.8830 Cl  0  0  0  0  0  0  0  0  0  0  0  0
   11.6550    1.3270   23.1640 C   0  0  0  0  0  0  0  0  0  0  0  0
   11.6440    2.8300   23.2410 C   0  0  0  0  0  0  0  0  0  0  0  0
   12.5910    3.7230   22.7390 C   0  0  0  0  0  0  0  0  0  0  0  0
   12.5510    5.0320   23.2980 C   0  0  0  0  0  0  0  0  0  0  0  0
   10.4740    3.1240   23.9130 C   0  0  0  0  0  0  0  0  0  0  0  0
    9.7930    1.8430   24.2200 N   0  0  0  0  0  0  0  0  0  0  0  0
   10.5860    0.7270   23.7130 C   0  0  0  0  0  0  0  0  0  0  0  0
    8.3010   -3.3910   24.1230 C   0  0  0  0  0  0  0  0  0  0  0  0
    8.0320   -4.5640   24.8600 C   0  0  0  0  0  0  0  0  0  0  0  0
  1  2  1  0
  2  3  1  0
  3  4  2  0
  3  5  1  0
  5  6  1  0
  6  7  1  0
  7  8  1  0
  8  9  1  0
  9 10  1  0
 10 11  2  0
 11 12  1  0
 12 13  1  0
 12 14  2  0
 14 15  1  0
 14 16  1  0
 16 17  1  0
 17 18  1  0
 18 19  1  0
 17 20  2  0
 20 21  1  0
 10 22  1  0
 16 22  2  0
 21 22  1  0
  8 23  1  0
  5 24  1  0
 23 24  1  0
M  END
