BEN-VAN-ed886787-4-chloroacetamide
     RDKit          3D

 26 27  0  0  0  0  0  0  0  0999 V2000
    7.3310   -3.1470   19.3960 C   0  0  0  0  0  0  0  0  0  0  0  0
    5.9220   -2.6530   19.5210 C   0  0  0  0  0  0  0  0  0  0  0  0
    5.0130   -3.3890   19.1180 O   0  0  0  0  0  0  0  0  0  0  0  0
    5.6650   -1.4100   20.0780 N   0  0  0  0  0  0  0  0  0  0  0  0
    6.6370   -0.3640   20.5770 C   0  0  0  0  0  0  0  0  0  0  0  0
    6.6910    0.9500   20.2150 O   0  0  0  0  0  0  0  0  0  0  0  0
    7.5810   -1.0530   21.6070 C   0  0  0  0  0  0  0  0  0  0  0  0
    8.2840    0.0710   22.2800 N   0  0  0  0  0  0  0  0  0  0  0  0
    9.7480    0.0060   22.4070 C   0  0  0  0  0  0  0  0  0  0  0  0
   10.5600    1.2570   22.7510 C   0  0  0  0  0  0  0  0  0  0  0  0
   12.1310    1.2360   22.8890 C   0  0  0  0  0  0  0  0  0  0  0  0
   12.7840    2.3500   23.1770 F   0  0  0  0  0  0  0  0  0  0  0  0
   12.8370   -0.1080   22.6720 C   0  0  0  0  0  0  0  0  0  0  0  0
   12.0550   -1.3300   22.3370 C   0  0  0  0  0  0  0  0  0  0  0  0
   12.3640   -2.6540   22.0770 C   0  0  0  0  0  0  0  0  0  0  0  0
   13.5640   -3.3740   22.2240 C   0  0  0  0  0  0  0  0  0  0  0  0
   14.3700   -3.3750   23.4600 N   0  0  0  0  0  0  0  0  0  0  0  0
   15.6970   -4.2870   23.4980 C   0  0  0  0  0  0  0  0  0  0  0  0
   16.4970   -4.4120   24.6380 N   0  0  0  0  0  0  0  0  0  0  0  0
   17.2500   -5.4660   24.5240 C   0  0  0  0  0  0  0  0  0  0  0  0
   17.0810   -6.5790   25.3460 C   0  0  0  0  0  0  0  0  0  0  0  0
   16.1320   -5.0710   22.3310 C   0  0  0  0  0  0  0  0  0  0  0  0
   15.3420   -5.0940   21.0840 C   0  0  0  0  0  0  0  0  0  0  0  0
   13.9790   -4.2380   20.9650 C   0  0  0  0  0  0  0  0  0  0  0  0
   13.2230   -4.2370   19.8850 F   0  0  0  0  0  0  0  0  0  0  0  0
   10.5180   -1.2700   22.2050 C   0  0  0  0  0  0  0  0  0  0  0  0
  1  2  1  0
  2  3  2  0
  2  4  1  0
  4  5  1  0
  5  6  2  0
  5  7  1  0
  7  8  1  0
  8  9  1  0
  9 10  2  0
 10 11  1  0
 11 12  1  0
 11 13  2  0
 13 14  1  0
 14 15  1  0
 15 16  1  0
 16 17  2  0
 17 18  1  0
 18 19  1  0
 19 20  1  0
 20 21  1  0
 18 22  2  0
 22 23  1  0
 16 24  1  0
 23 24  2  0
 24 25  1  0
  9 26  1  0
 14 26  2  0
M  END
