BEN-VAN-ed886787-9
     RDKit          3D

 30 32  0  0  0  0  0  0  0  0999 V2000
   15.1430    3.8340   21.8320 C   0  0  0  0  0  0  0  0  0  0  0  0
   14.5860    4.8320   20.9060 C   0  0  0  0  0  0  0  0  0  0  0  0
   13.6210    5.5960   21.4890 N   0  0  0  0  0  0  0  0  0  0  0  0
   12.6750    4.7050   22.1000 C   0  0  0  0  0  0  0  0  0  0  0  0
   11.3240    5.1940   22.5760 C   0  0  0  0  0  0  0  0  0  0  0  0
   10.4870    4.2540   23.1380 C   0  0  0  0  0  0  0  0  0  0  0  0
   10.8870    2.8760   23.2590 C   0  0  0  0  0  0  0  0  0  0  0  0
   10.0490    1.9880   23.8040 F   0  0  0  0  0  0  0  0  0  0  0  0
   12.1660    2.5720   22.7810 C   0  0  0  0  0  0  0  0  0  0  0  0
   12.6960    1.2410   22.8460 C   0  0  0  0  0  0  0  0  0  0  0  0
   11.5780    0.2880   23.1670 C   0  0  0  0  0  0  0  0  0  0  0  0
   10.6830    0.7070   24.2340 C   0  0  0  0  0  0  0  0  0  0  0  0
    9.6450   -0.2480   24.5010 C   0  0  0  0  0  0  0  0  0  0  0  0
    8.6990   -0.0040   25.5030 C   0  0  0  0  0  0  0  0  0  0  0  0
    8.0640    1.2340   25.4080 C   0  0  0  0  0  0  0  0  0  0  0  0
    9.6030   -1.4090   23.7400 C   0  0  0  0  0  0  0  0  0  0  0  0
   10.3960   -1.9560   22.6580 C   0  0  0  0  0  0  0  0  0  0  0  0
    9.3430   -2.7770   23.0130 N   0  0  0  0  0  0  0  0  0  0  0  0
    7.9720   -2.4980   22.5010 C   0  0  0  0  0  0  0  0  0  0  0  0
    7.9210   -1.3560   21.6790 C   0  0  0  0  0  0  0  0  0  0  0  0
    8.8900   -0.6630   21.3950 O   0  0  0  0  0  0  0  0  0  0  0  0
    6.6170   -1.1390   21.2420 N   0  0  0  0  0  0  0  0  0  0  0  0
    6.1770   -0.3460   20.1700 C   0  0  0  0  0  0  0  0  0  0  0  0
    5.0230    0.4020   20.3420 C   0  0  0  0  0  0  0  0  0  0  0  0
    4.4490    1.2350   19.3930 C   0  0  0  0  0  0  0  0  0  0  0  0
    5.2330    1.2620   18.0880 C   0  0  0  0  0  0  0  0  0  0  0  0
    6.3800    0.5440   17.8580 N   0  0  0  0  0  0  0  0  0  0  0  0
    6.8090   -0.2380   18.9190 C   0  0  0  0  0  0  0  0  0  0  0  0
   11.3840   -0.9180   22.5110 C   0  0  0  0  0  0  0  0  0  0  0  0
   13.0090    3.4480   22.2320 N   0  0  0  0  0  0  0  0  0  0  0  0
  1  2  1  0
  2  3  1  0
  3  4  1  0
  4  5  2  0
  5  6  1  0
  6  7  2  0
  7  8  1  0
  7  9  1  0
  9 10  1  0
 10 11  1  0
 11 12  2  0
 12 13  1  0
 13 14  1  0
 14 15  1  0
 13 16  2  0
 16 17  1  0
 17 18  1  0
 18 19  1  0
 19 20  1  0
 20 21  2  0
 20 22  1  0
 22 23  1  0
 23 24  2  0
 24 25  1  0
 25 26  2  0
 26 27  1  0
 23 28  1  0
 27 28  2  0
 11 29  1  0
 17 29  2  0
  4 30  1  0
  9 30  2  0
M  END
