BEN-VAN-ed886787-11-acrylamide
     RDKit          3D

 32 34  0  0  0  0  0  0  0  0999 V2000
    8.3810   -3.9390   20.4960 C   0  0  0  0  0  0  0  0  0  0  0  0
    7.4820   -4.8560   21.2100 C   0  0  0  0  0  0  0  0  0  0  0  0
    6.4840   -3.8420   21.8360 C   0  0  0  0  0  0  0  0  0  0  0  0
    5.1430   -3.9950   21.6300 O   0  0  0  0  0  0  0  0  0  0  0  0
    7.4120   -2.8380   22.8600 C   0  0  0  0  0  0  0  0  0  0  0  0
    8.0840   -3.2370   21.7220 C   0  0  0  0  0  0  0  0  0  0  0  0
    9.3300   -2.9520   21.2540 C   0  0  0  0  0  0  0  0  0  0  0  0
   10.0180   -2.2390   21.8190 C   0  0  0  0  0  0  0  0  0  0  0  0
   11.2840   -1.9990   21.2760 N   0  0  0  0  0  0  0  0  0  0  0  0
   11.7590   -0.9640   22.2030 C   0  0  0  0  0  0  0  0  0  0  0  0
   11.0630    0.5640   21.9900 C   0  0  0  0  0  0  0  0  0  0  0  0
    9.7170   -1.5930   23.0440 N   0  0  0  0  0  0  0  0  0  0  0  0
    8.3590   -1.9380   23.6780 C   0  0  0  0  0  0  0  0  0  0  0  0
    9.5260   -0.9940   24.3820 C   0  0  0  0  0  0  0  0  0  0  0  0
   10.4560    0.0560   23.7080 C   0  0  0  0  0  0  0  0  0  0  0  0
   10.3800    1.2080   23.1340 C   0  0  0  0  0  0  0  0  0  0  0  0
    9.7700    0.7940   23.4560 C   0  0  0  0  0  0  0  0  0  0  0  0
    8.6870    1.2900   23.3620 O   0  0  0  0  0  0  0  0  0  0  0  0
    7.7770    0.4440   22.6760 C   0  0  0  0  0  0  0  0  0  0  0  0
    8.0900    0.4730   21.2820 C   0  0  0  0  0  0  0  0  0  0  0  0
    8.8000    1.6240   20.6050 O   0  0  0  0  0  0  0  0  0  0  0  0
    7.5330   -0.5550   20.5720 N   0  0  0  0  0  0  0  0  0  0  0  0
    6.6810   -0.1090   19.6490 C   0  0  0  0  0  0  0  0  0  0  0  0
    5.3540   -0.5060   19.4120 C   0  0  0  0  0  0  0  0  0  0  0  0
    4.5100    0.2220   18.4210 C   0  0  0  0  0  0  0  0  0  0  0  0
    5.2590    1.1870   17.7440 C   0  0  0  0  0  0  0  0  0  0  0  0
    6.5630    1.5680   17.9920 N   0  0  0  0  0  0  0  0  0  0  0  0
    7.1590    0.8860   18.9380 C   0  0  0  0  0  0  0  0  0  0  0  0
   11.1220    1.7110   22.7430 C   0  0  0  0  0  0  0  0  0  0  0  0
   12.5260    0.8410   23.0240 C   0  0  0  0  0  0  0  0  0  0  0  0
   11.5650    0.3930   23.3870 C   0  0  0  0  0  0  0  0  0  0  0  0
   12.7140   -0.7570   23.8400 Cl  0  0  0  0  0  0  0  0  0  0  0  0
  1  2  1  0
  2  3  1  0
  3  4  2  0
  3  5  1  0
  5  6  2  0
  6  7  1  0
  7  8  2  0
  8  9  1  0
  9 10  1  0
 10 11  1  0
  8 12  1  0
  5 13  1  0
 12 13  2  0
 13 14  1  0
 14 15  1  0
 15 16  2  0
 16 17  1  0
 17 18  1  0
 18 19  1  0
 19 20  1  0
 20 21  2  0
 20 22  1  0
 22 23  1  0
 23 24  2  0
 24 25  1  0
 25 26  2  0
 26 27  1  0
 23 28  1  0
 27 28  2  0
 17 29  2  0
 29 30  1  0
 15 31  1  0
 30 31  2  0
 31 32  1  0
M  END
