BEN-VAN-ed886787-20-nitrile
     RDKit          3D

 25 26  0  0  0  0  0  0  0  0999 V2000
    6.9870   -3.4910   19.9910 C   0  0  0  0  0  0  0  0  0  0  0  0
    5.8530   -4.1090   19.8710 N   0  0  0  0  0  0  0  0  0  0  0  0
    7.2270   -2.2550   19.4590 N   0  0  0  0  0  0  0  0  0  0  0  0
    6.2740   -1.1480   19.5920 C   0  0  0  0  0  0  0  0  0  0  0  0
    5.1080   -1.2980   19.9390 O   0  0  0  0  0  0  0  0  0  0  0  0
    6.8680    0.2330   19.2550 C   0  0  0  0  0  0  0  0  0  0  0  0
    7.5120    0.8220   20.1460 O   0  0  0  0  0  0  0  0  0  0  0  0
    7.8020    0.0920   21.2730 C   0  0  0  0  0  0  0  0  0  0  0  0
    6.7910   -0.6060   21.9280 C   0  0  0  0  0  0  0  0  0  0  0  0
    7.0720   -1.3810   23.1080 C   0  0  0  0  0  0  0  0  0  0  0  0
    8.3150   -1.5090   23.6970 C   0  0  0  0  0  0  0  0  0  0  0  0
    8.5480   -2.4590   25.1120 Cl  0  0  0  0  0  0  0  0  0  0  0  0
    9.3940   -0.7910   23.0440 C   0  0  0  0  0  0  0  0  0  0  0  0
   10.8830   -0.8460   23.6140 C   0  0  0  0  0  0  0  0  0  0  0  0
   11.9530    0.0690   22.9180 C   0  0  0  0  0  0  0  0  0  0  0  0
   11.1410    0.7830   23.8350 N   0  0  0  0  0  0  0  0  0  0  0  0
   10.3260   -0.1710   24.3350 C   0  0  0  0  0  0  0  0  0  0  0  0
    9.4280    0.2740   25.2760 N   0  0  0  0  0  0  0  0  0  0  0  0
    9.3710   -0.2740   26.5040 C   0  0  0  0  0  0  0  0  0  0  0  0
    8.2940    0.2070   27.2410 C   0  0  0  0  0  0  0  0  0  0  0  0
   10.4190   -1.5520   23.8800 C   0  0  0  0  0  0  0  0  0  0  0  0
   11.3670   -2.0100   22.8890 C   0  0  0  0  0  0  0  0  0  0  0  0
   12.2310   -1.1050   22.3600 C   0  0  0  0  0  0  0  0  0  0  0  0
   13.1740   -1.3870   21.4490 F   0  0  0  0  0  0  0  0  0  0  0  0
    9.1070    0.0320   21.7950 C   0  0  0  0  0  0  0  0  0  0  0  0
  1  2  2  3
  1  3  1  0
  3  4  1  0
  4  5  2  0
  4  6  1  0
  6  7  1  0
  7  8  1  0
  8  9  2  0
  9 10  1  0
 10 11  2  0
 11 12  1  0
 11 13  1  0
 13 14  1  0
 14 15  1  0
 15 16  2  0
 16 17  1  0
 17 18  1  0
 18 19  1  0
 19 20  1  0
 17 21  2  0
 21 22  1  0
 15 23  1  0
 22 23  2  0
 23 24  1  0
  8 25  1  0
 13 25  2  0
M  END
