BEN-DND-031a96cc-3
     RDKit          3D

 26 29  0  0  0  0  0  0  0  0999 V2000
    7.7620   -2.6180   26.5920 O   0  0  0  0  0  0  0  0  0  0  0  0
    6.6810   -2.2540   26.1390 C   0  0  0  0  0  0  0  0  0  0  0  0
    5.6110   -3.0770   25.5920 N   0  0  0  0  0  0  0  0  0  0  0  0
    6.0090   -3.7350   24.3420 C   0  0  0  0  0  0  0  0  0  0  0  0
    7.2130   -3.0030   23.5900 C   0  0  0  0  0  0  0  0  0  0  0  0
    7.6220   -3.6380   22.3750 C   0  0  0  0  0  0  0  0  0  0  0  0
    7.0280   -4.7950   21.8800 C   0  0  0  0  0  0  0  0  0  0  0  0
    6.0000   -5.2620   22.6760 C   0  0  0  0  0  0  0  0  0  0  0  0
    5.4120   -4.8980   23.8250 C   0  0  0  0  0  0  0  0  0  0  0  0
    6.3160   -0.7830   26.0990 C   0  0  0  0  0  0  0  0  0  0  0  0
    4.8870   -0.5430   26.4310 C   0  0  0  0  0  0  0  0  0  0  0  0
    4.4640    0.6970   25.7540 C   0  0  0  0  0  0  0  0  0  0  0  0
    5.6720    1.4840   25.5520 N   0  0  0  0  0  0  0  0  0  0  0  0
    5.7530    2.1410   24.1520 C   0  0  0  0  0  0  0  0  0  0  0  0
    6.3110    3.3970   24.0050 O   0  0  0  0  0  0  0  0  0  0  0  0
    5.2220    1.4440   22.9290 C   0  0  1  0  0  0  0  0  0  0  0  0
    3.9250    1.6820   22.5300 O   0  0  0  0  0  0  0  0  0  0  0  0
    5.0940    1.8950   21.6980 C   0  0  2  0  0  0  0  0  0  0  0  0
    5.3830    0.9930   20.6150 C   0  0  0  0  0  0  0  0  0  0  0  0
    5.5300   -0.3420   20.8750 C   0  0  0  0  0  0  0  0  0  0  0  0
    5.8570   -1.1990   19.6890 C   0  0  0  0  0  0  0  0  0  0  0  0
    5.9840   -0.6310   18.4450 C   0  0  0  0  0  0  0  0  0  0  0  0
    5.8420    0.7060   18.1440 N   0  0  0  0  0  0  0  0  0  0  0  0
    5.5360    1.4880   19.2660 C   0  0  0  0  0  0  0  0  0  0  0  0
    6.5990    1.4510   26.7740 C   0  0  0  0  0  0  0  0  0  0  0  0
    7.2290    0.1000   26.9220 C   0  0  0  0  0  0  0  0  0  0  0  0
  1  2  2  0
  2  3  1  0
  3  4  1  0
  4  5  2  0
  5  6  1  0
  6  7  2  0
  7  8  1  0
  4  9  1  0
  8  9  2  0
  2 10  1  0
 10 11  1  0
 11 12  1  0
 12 13  1  0
 13 14  1  0
 14 15  2  0
 16 14  1  1
 16 17  1  0
 16 18  1  0
 17 18  1  0
 18 19  1  6
 19 20  2  0
 20 21  1  0
 21 22  2  0
 22 23  1  0
 19 24  1  0
 23 24  2  0
 13 25  1  0
 10 26  1  0
 25 26  1  0
M  END
