BEN-DND-362d364a-3-chloroacetamide
     RDKit          3D

 34 36  0  0  0  0  0  0  0  0999 V2000
    8.9680   -3.6250   19.9020 C   0  0  0  0  0  0  0  0  0  0  0  0
    8.2090   -2.3090   19.7270 C   0  0  0  0  0  0  0  0  0  0  0  0
    7.6040   -3.0310   18.6830 O   0  0  0  0  0  0  0  0  0  0  0  0
    9.0330   -1.6270   21.0470 C   0  0  0  0  0  0  0  0  0  0  0  0
    8.7320   -0.5300   22.0150 C   0  0  0  0  0  0  0  0  0  0  0  0
    9.6230   -0.2750   22.8820 N   0  0  0  0  0  0  0  0  0  0  0  0
    9.8990   -1.4310   22.4430 C   0  0  0  0  0  0  0  0  0  0  0  0
   10.1730   -1.9460   23.6340 N   0  0  0  0  0  0  0  0  0  0  0  0
    9.8590   -0.6000   24.2900 C   0  0  0  0  0  0  0  0  0  0  0  0
    8.4860   -0.8090   24.9400 C   0  0  0  0  0  0  0  0  0  0  0  0
    9.1910   -1.5590   21.1630 C   0  0  0  0  0  0  0  0  0  0  0  0
    8.0000   -1.8520   22.2480 C   0  0  0  0  0  0  0  0  0  0  0  0
    8.2230   -3.2740   22.8630 C   0  0  0  0  0  0  0  0  0  0  0  0
    7.2950   -3.5650   23.9670 N   0  0  0  0  0  0  0  0  0  0  0  0
    6.2250   -4.2280   23.4640 C   0  0  1  0  0  0  0  0  0  0  0  0
    6.9880   -4.7580   22.3830 C   0  0  0  0  0  0  0  0  0  0  0  0
    6.3530   -5.5660   21.5010 N   0  0  0  0  0  0  0  0  0  0  0  0
    5.8680   -4.8240   20.3520 C   0  0  0  0  0  0  0  0  0  0  0  0
    6.4230   -3.5450   20.2350 C   0  0  0  0  0  0  0  0  0  0  0  0
    5.0080   -5.1910   19.5740 O   0  0  0  0  0  0  0  0  0  0  0  0
    5.4990   -6.5790   22.0040 C   0  0  0  0  0  0  0  0  0  0  0  0
    4.7640   -6.0880   23.2000 C   0  0  0  0  0  0  0  0  0  0  0  0
    5.6560   -5.3270   24.1340 N   0  0  0  0  0  0  0  0  0  0  0  0
    5.0610   -5.4080   25.7720 S   0  0  0  0  0  0  0  0  0  0  0  0
    6.0890   -4.8370   26.6220 O   0  0  0  0  0  0  0  0  0  0  0  0
    4.5040   -6.6930   26.0420 O   0  0  0  0  0  0  0  0  0  0  0  0
    3.6930   -4.2480   25.6810 C   0  0  0  0  0  0  0  0  0  0  0  0
    2.2590   -4.6840   25.5590 C   0  0  0  0  0  0  0  0  0  0  0  0
    1.2000   -3.7600   25.5420 C   0  0  0  0  0  0  0  0  0  0  0  0
    1.4690   -2.2980   25.6150 C   0  0  0  0  0  0  0  0  0  0  0  0
    2.9170   -1.7660   25.7410 C   0  0  0  0  0  0  0  0  0  0  0  0
    3.2930   -0.1090   25.8660 Cl  0  0  0  0  0  0  0  0  0  0  0  0
    4.0690   -2.8040   25.7700 C   0  0  0  0  0  0  0  0  0  0  0  0
    8.0770   -2.0430   20.3380 C   0  0  0  0  0  0  0  0  0  0  0  0
  1  2  1  0
  2  3  2  0
  2  4  1  0
  4  5  2  0
  5  6  1  0
  6  7  2  0
  7  8  1  0
  8  9  1  0
  9 10  1  0
  7 11  1  0
 11 12  1  0
 12 13  1  0
 13 14  1  0
 15 14  1  1
 15 16  1  0
 16 17  1  0
 17 18  1  0
 18 19  1  0
 18 20  2  0
 17 21  1  0
 21 22  1  0
 15 23  1  0
 22 23  1  0
 23 24  1  0
 24 25  2  0
 24 26  2  0
 24 27  1  0
 27 28  2  0
 28 29  1  0
 29 30  2  0
 30 31  1  0
 31 32  1  0
 27 33  1  0
 31 33  2  0
  4 34  1  0
 11 34  2  0
M  END
