BEN-VAN-77cef4f8-7-chloroacetamide
     RDKit          3D

 29 31  0  0  0  0  0  0  0  0999 V2000
    6.1580   -4.5210   20.0820 C   0  0  0  0  0  0  0  0  0  0  0  0
    6.4350   -3.2000   19.4240 C   0  0  0  0  0  0  0  0  0  0  0  0
    5.9710   -2.9250   18.3210 O   0  0  0  0  0  0  0  0  0  0  0  0
    7.2640   -2.2100   20.1550 C   0  0  0  0  0  0  0  0  0  0  0  0
    8.4190   -2.7030   20.9570 C   0  0  0  0  0  0  0  0  0  0  0  0
    9.1760   -1.7910   21.6400 C   0  0  0  0  0  0  0  0  0  0  0  0
    8.8870   -0.4420   21.6060 C   0  0  0  0  0  0  0  0  0  0  0  0
    9.6820    0.4300   22.3270 N   0  0  0  0  0  0  0  0  0  0  0  0
   10.8630    0.3080   23.0170 C   0  0  1  0  0  0  0  0  0  0  0  0
   11.2240    1.4820   23.6930 C   0  0  0  0  0  0  0  0  0  0  0  0
   10.8970   -1.1040   23.5040 C   0  0  0  0  0  0  0  0  0  0  0  0
   10.6930   -2.2780   22.5220 C   0  0  0  0  0  0  0  0  0  0  0  0
   12.0120   -1.6340   22.2110 C   0  0  0  0  0  0  0  0  0  0  0  0
   12.2290   -0.6470   23.1350 C   0  0  0  0  0  0  0  0  0  0  0  0
   13.3150    0.1280   23.1590 F   0  0  0  0  0  0  0  0  0  0  0  0
   11.1700   -0.5650   24.0480 C   0  0  0  0  0  0  0  0  0  0  0  0
   10.0010   -1.3850   24.0300 C   0  0  0  0  0  0  0  0  0  0  0  0
    9.4710   -2.4800   23.2280 C   0  0  0  0  0  0  0  0  0  0  0  0
    8.3200   -2.5140   24.0580 C   0  0  1  0  0  0  0  0  0  0  0  0
    6.9550   -2.1450   23.8240 C   0  0  0  0  0  0  0  0  0  0  0  0
    6.2160   -3.2780   23.2330 N   0  0  0  0  0  0  0  0  0  0  0  0
    5.1800   -3.1570   22.3320 C   0  0  0  0  0  0  0  0  0  0  0  0
    5.1710   -1.7830   21.7520 C   0  0  0  0  0  0  0  0  0  0  0  0
    4.3900   -4.0550   22.0570 O   0  0  0  0  0  0  0  0  0  0  0  0
    6.4280   -4.5160   23.7810 C   0  0  0  0  0  0  0  0  0  0  0  0
    7.8870   -4.7460   23.8980 C   0  0  0  0  0  0  0  0  0  0  0  0
    8.3850   -3.8690   24.5700 O   0  0  0  0  0  0  0  0  0  0  0  0
    7.8260    0.0450   20.8710 N   0  0  0  0  0  0  0  0  0  0  0  0
    7.0270   -0.8420   20.1510 C   0  0  0  0  0  0  0  0  0  0  0  0
  1  2  1  0
  2  3  2  0
  2  4  1  0
  4  5  2  0
  5  6  1  0
  6  7  2  0
  7  8  1  0
  8  9  1  0
  9 10  1  1
  9 11  1  0
 11 12  1  0
 12 13  2  0
 13 14  1  0
 14 15  1  0
 14 16  2  0
 16 17  1  0
 12 18  1  0
 17 18  2  0
 19 18  1  6
 19 20  1  0
 20 21  1  0
 21 22  1  0
 22 23  1  0
 22 24  2  0
 21 25  1  0
 25 26  1  0
 19 27  1  0
 26 27  1  0
  7 28  1  0
  4 29  1  0
 28 29  2  0
M  END
