BEN-VAN-ed886787-11-chloroacetamide
     RDKit          3D

 31 33  0  0  0  0  0  0  0  0999 V2000
    7.1360   -3.0520   19.2370 C   0  0  0  0  0  0  0  0  0  0  0  0
    6.3860   -3.6860   20.3690 C   0  0  0  0  0  0  0  0  0  0  0  0
    5.7100   -4.6960   20.0460 O   0  0  0  0  0  0  0  0  0  0  0  0
    6.3380   -3.1310   21.8230 C   0  0  0  0  0  0  0  0  0  0  0  0
    4.8820   -3.1120   22.4420 C   0  0  0  0  0  0  0  0  0  0  0  0
    4.6500   -2.5860   23.8860 C   0  0  0  0  0  0  0  0  0  0  0  0
    5.9380   -2.1360   24.5530 C   0  0  0  0  0  0  0  0  0  0  0  0
    5.9440   -1.6270   25.8680 N   0  0  0  0  0  0  0  0  0  0  0  0
    6.4430   -0.2780   26.1820 C   0  0  0  0  0  0  0  0  0  0  0  0
    7.9630   -0.2780   26.1030 C   0  0  0  0  0  0  0  0  0  0  0  0
    7.1950   -2.1660   23.9860 N   0  0  0  0  0  0  0  0  0  0  0  0
    7.4360   -2.6510   22.6390 C   0  0  0  0  0  0  0  0  0  0  0  0
    8.8600   -2.5270   22.4270 C   0  0  0  0  0  0  0  0  0  0  0  0
    9.5090   -3.0730   23.5820 C   0  0  0  0  0  0  0  0  0  0  0  0
    8.3290   -3.5310   23.2020 C   0  0  0  0  0  0  0  0  0  0  0  0
    8.4040   -2.1950   22.8700 C   0  0  0  0  0  0  0  0  0  0  0  0
    8.9990   -1.1190   22.5840 O   0  0  0  0  0  0  0  0  0  0  0  0
    8.5130    0.1460   23.0560 C   0  0  0  0  0  0  0  0  0  0  0  0
    8.2770    1.0720   22.0260 C   0  0  0  0  0  0  0  0  0  0  0  0
    9.1550    1.6580   21.3830 O   0  0  0  0  0  0  0  0  0  0  0  0
    6.8290    1.2570   21.8210 N   0  0  0  0  0  0  0  0  0  0  0  0
    6.2790    1.2810   20.4900 C   0  0  0  0  0  0  0  0  0  0  0  0
    5.1440    2.2100   20.1390 C   0  0  0  0  0  0  0  0  0  0  0  0
    4.6380    2.2210   18.8630 C   0  0  0  0  0  0  0  0  0  0  0  0
    5.1560    1.3830   17.8740 C   0  0  0  0  0  0  0  0  0  0  0  0
    6.1750    0.5080   18.0900 N   0  0  0  0  0  0  0  0  0  0  0  0
    6.7400    0.4740   19.4520 C   0  0  0  0  0  0  0  0  0  0  0  0
    9.7160   -2.5990   21.8820 C   0  0  0  0  0  0  0  0  0  0  0  0
   10.8630   -1.6080   22.0850 C   0  0  0  0  0  0  0  0  0  0  0  0
   10.6390   -2.0350   23.3570 C   0  0  0  0  0  0  0  0  0  0  0  0
   11.8250   -1.5050   24.4960 Cl  0  0  0  0  0  0  0  0  0  0  0  0
  1  2  1  0
  2  3  2  0
  2  4  1  0
  4  5  2  0
  5  6  1  0
  6  7  2  0
  7  8  1  0
  8  9  1  0
  9 10  1  0
  7 11  1  0
  4 12  1  0
 11 12  2  0
 12 13  1  0
 13 14  1  0
 14 15  2  0
 15 16  1  0
 16 17  1  0
 17 18  1  0
 18 19  1  0
 19 20  2  0
 19 21  1  0
 21 22  1  0
 22 23  2  0
 23 24  1  0
 24 25  2  0
 25 26  1  0
 22 27  1  0
 26 27  2  0
 16 28  2  0
 28 29  1  0
 14 30  1  0
 29 30  2  0
 30 31  1  0
M  END
