BEN-DND-362d364a-5
     RDKit          3D

 31 33  0  0  0  0  0  0  0  0999 V2000
    7.1810   -2.9770   20.6800 C   0  0  0  0  0  0  0  0  0  0  0  0
    6.2630   -4.2100   20.6500 C   0  0  0  0  0  0  0  0  0  0  0  0
    5.3670   -4.3320   19.8090 O   0  0  0  0  0  0  0  0  0  0  0  0
    6.5650   -5.2090   21.6600 N   0  0  0  0  0  0  0  0  0  0  0  0
    5.5590   -6.1690   22.0590 C   0  0  0  0  0  0  0  0  0  0  0  0
    4.7850   -5.6930   23.2820 C   0  0  0  0  0  0  0  0  0  0  0  0
    5.6730   -5.2500   24.3980 N   0  0  0  0  0  0  0  0  0  0  0  0
    4.9520   -5.3490   25.9320 S   0  0  0  0  0  0  0  0  0  0  0  0
    5.9650   -4.9000   26.8600 O   0  0  0  0  0  0  0  0  0  0  0  0
    4.3420   -6.6600   25.9830 O   0  0  0  0  0  0  0  0  0  0  0  0
    3.6370   -4.1610   25.8780 C   0  0  0  0  0  0  0  0  0  0  0  0
    2.1860   -4.5910   25.7350 C   0  0  0  0  0  0  0  0  0  0  0  0
    1.1180   -3.7110   25.6940 C   0  0  0  0  0  0  0  0  0  0  0  0
    1.4510   -2.1720   25.8040 C   0  0  0  0  0  0  0  0  0  0  0  0
    2.7860   -1.8200   25.9280 C   0  0  0  0  0  0  0  0  0  0  0  0
    3.1870   -0.1580   26.0470 Cl  0  0  0  0  0  0  0  0  0  0  0  0
    3.9370   -2.8180   25.9690 C   0  0  0  0  0  0  0  0  0  0  0  0
    6.7090   -4.2470   23.9400 C   0  0  1  0  0  0  0  0  0  0  0  0
    7.8410   -3.9130   24.8620 N   0  0  0  0  0  0  0  0  0  0  0  0
    8.5120   -2.5840   24.7290 C   0  0  0  0  0  0  0  0  0  0  0  0
    8.9650   -2.1710   23.4700 C   0  0  0  0  0  0  0  0  0  0  0  0
   10.2750   -1.5340   23.4440 C   0  0  0  0  0  0  0  0  0  0  0  0
   11.0000   -1.7920   22.3010 C   0  0  0  0  0  0  0  0  0  0  0  0
   12.3920   -1.2140   22.1370 C   0  0  0  0  0  0  0  0  0  0  0  0
   12.9200   -0.3520   23.2510 C   0  0  0  0  0  0  0  0  0  0  0  0
   12.1280   -0.1340   24.3660 C   0  0  0  0  0  0  0  0  0  0  0  0
   10.8340   -0.7160   24.4550 C   0  0  0  0  0  0  0  0  0  0  0  0
    8.6410   -4.8680   25.6580 C   0  0  0  0  0  0  0  0  0  0  0  0
   10.0030   -4.5820   25.6810 C   0  0  0  0  0  0  0  0  0  0  0  0
    8.0670   -5.9070   26.3080 O   0  0  0  0  0  0  0  0  0  0  0  0
    7.4310   -4.8110   22.7400 C   0  0  0  0  0  0  0  0  0  0  0  0
  1  2  1  0
  2  3  2  0
  2  4  1  0
  4  5  1  0
  5  6  1  0
  6  7  1  0
  7  8  1  0
  8  9  2  0
  8 10  2  0
  8 11  1  0
 11 12  2  0
 12 13  1  0
 13 14  2  0
 14 15  1  0
 15 16  1  0
 11 17  1  0
 15 17  2  0
  7 18  1  0
 18 19  1  1
 19 20  1  0
 20 21  1  0
 21 22  1  0
 22 23  2  0
 23 24  1  0
 24 25  2  0
 25 26  1  0
 22 27  1  0
 26 27  2  0
 19 28  1  0
 28 29  1  0
 28 30  2  0
  4 31  1  0
 18 31  1  0
M  END
