BEN-VAN-5787f7d3-12
     RDKit          3D

 28 31  0  0  0  0  0  0  0  0999 V2000
    5.2900   -2.5170   18.8690 C   0  0  0  0  0  0  0  0  0  0  0  0
    6.7170   -2.7760   19.1950 C   0  0  0  0  0  0  0  0  0  0  0  0
    7.0140   -3.4850   20.1620 O   0  0  0  0  0  0  0  0  0  0  0  0
    7.5990   -2.7110   21.0940 C   0  0  0  0  0  0  0  0  0  0  0  0
    8.8210   -2.2290   21.4940 C   0  0  0  0  0  0  0  0  0  0  0  0
    8.3310   -1.0670   21.0650 N   0  0  0  0  0  0  0  0  0  0  0  0
    6.8860   -1.1060   20.8090 C   0  0  0  0  0  0  0  0  0  0  0  0
    6.3110   -0.1390   20.0720 C   0  0  0  0  0  0  0  0  0  0  0  0
    6.6480   -0.1450   18.7040 C   0  0  0  0  0  0  0  0  0  0  0  0
    6.1640    0.7090   17.7530 N   0  0  0  0  0  0  0  0  0  0  0  0
    5.2890    1.6300   18.1720 C   0  0  0  0  0  0  0  0  0  0  0  0
    4.8430    1.7750   19.5880 C   0  0  0  0  0  0  0  0  0  0  0  0
    5.4300    0.7930   20.5750 C   0  0  0  0  0  0  0  0  0  0  0  0
    5.0100    0.8910   22.0330 C   0  0  0  0  0  0  0  0  0  0  0  0
    5.9290   -2.1260   21.3460 C   0  0  0  0  0  0  0  0  0  0  0  0
    6.6500   -2.9610   22.0520 C   0  0  0  0  0  0  0  0  0  0  0  0
    5.7250   -3.8240   22.6470 C   0  0  0  0  0  0  0  0  0  0  0  0
    5.3900   -5.1120   22.1910 C   0  0  0  0  0  0  0  0  0  0  0  0
    4.4580   -5.9330   22.8510 C   0  0  0  0  0  0  0  0  0  0  0  0
    3.7880   -5.5340   24.0220 C   0  0  0  0  0  0  0  0  0  0  0  0
    4.1800   -4.1270   24.4890 C   0  0  0  0  0  0  0  0  0  0  0  0
    3.6150   -3.6110   25.6290 N   0  0  0  0  0  0  0  0  0  0  0  0
    2.2580   -3.5180   25.8590 C   0  0  0  0  0  0  0  0  0  0  0  0
    1.7770   -2.5930   26.6740 C   0  0  0  0  0  0  0  0  0  0  0  0
    3.0950   -1.9760   27.1290 C   0  0  0  0  0  0  0  0  0  0  0  0
    4.1170   -2.4930   26.3180 C   0  0  0  0  0  0  0  0  0  0  0  0
    5.2310   -1.9920   26.2670 O   0  0  0  0  0  0  0  0  0  0  0  0
    5.1040   -3.3660   23.7910 C   0  0  0  0  0  0  0  0  0  0  0  0
  1  2  1  0
  2  3  1  0
  3  4  1  0
  4  5  2  0
  5  6  1  0
  6  7  2  0
  7  8  1  0
  8  9  2  0
  9 10  1  0
 10 11  2  0
 11 12  1  0
  8 13  1  0
 12 13  2  0
 13 14  1  0
  7 15  1  0
  4 16  1  0
 15 16  2  0
 16 17  1  0
 17 18  2  0
 18 19  1  0
 19 20  2  0
 20 21  1  0
 21 22  1  0
 22 23  1  0
 23 24  1  0
 24 25  1  0
 22 26  1  0
 25 26  1  0
 26 27  2  0
 17 28  1  0
 21 28  2  0
M  END
