BEN-DND-362d364a-9
     RDKit          3D

 21 22  0  0  0  0  0  0  0  0999 V2000
    8.9950   -5.1540   28.0100 C   0  0  0  0  0  0  0  0  0  0  0  0
    8.5200   -5.0560   26.2920 S   0  0  0  0  0  0  0  0  0  0  0  0
    9.5550   -5.6830   25.5060 O   0  0  0  0  0  0  0  0  0  0  0  0
    7.1300   -5.4510   26.1830 O   0  0  0  0  0  0  0  0  0  0  0  0
    8.5340   -3.4120   25.9890 N   0  0  0  0  0  0  0  0  0  0  0  0
    9.7100   -2.7670   25.3810 C   0  0  0  0  0  0  0  0  0  0  0  0
    9.2970   -1.4890   24.6520 C   0  0  0  0  0  0  0  0  0  0  0  0
   10.4070   -0.7090   23.9190 C   0  0  0  0  0  0  0  0  0  0  0  0
   10.3590    0.7640   24.1390 C   0  0  0  0  0  0  0  0  0  0  0  0
   11.2490    1.6280   23.5520 C   0  0  0  0  0  0  0  0  0  0  0  0
   11.1000    3.3250   23.7750 Cl  0  0  0  0  0  0  0  0  0  0  0  0
   12.2660    1.1470   22.7430 C   0  0  0  0  0  0  0  0  0  0  0  0
   12.3260   -0.2410   22.4850 C   0  0  0  0  0  0  0  0  0  0  0  0
   13.2340   -1.0390   21.6070 C   0  0  0  0  0  0  0  0  0  0  0  0
   12.8930   -2.4740   21.5500 C   0  0  0  0  0  0  0  0  0  0  0  0
   13.4970   -3.9060   20.5850 S   0  0  0  0  0  0  0  0  0  0  0  0
   14.6170   -5.0970   20.9070 N   0  0  0  0  0  0  0  0  0  0  0  0
   14.4630   -3.2510   19.8860 O   0  0  0  0  0  0  0  0  0  0  0  0
   12.3560   -4.4420   19.8970 O   0  0  0  0  0  0  0  0  0  0  0  0
   11.7690   -2.4150   22.5380 N   0  0  0  0  0  0  0  0  0  0  0  0
   11.4360   -1.1470   23.0380 C   0  0  0  0  0  0  0  0  0  0  0  0
  1  2  1  0
  2  3  2  0
  2  4  2  0
  2  5  1  0
  5  6  1  0
  6  7  1  0
  7  8  1  0
  8  9  2  0
  9 10  1  0
 10 11  1  0
 10 12  2  0
 12 13  1  0
 13 14  1  0
 14 15  2  0
 15 16  1  0
 16 17  1  0
 16 18  2  0
 16 19  2  0
 15 20  1  0
  8 21  1  0
 13 21  2  0
 20 21  1  0
M  END
