BEN-VAN-5787f7d3-19
     RDKit          3D

 33 36  0  0  0  0  0  0  0  0999 V2000
    4.8590   -2.2720   26.0590 C   0  0  0  0  0  0  0  0  0  0  0  0
    5.8700   -3.3610   25.8100 C   0  0  0  0  0  0  0  0  0  0  0  0
    6.7620   -3.1550   25.0000 O   0  0  0  0  0  0  0  0  0  0  0  0
    6.9080   -1.8390   24.6320 C   0  0  0  0  0  0  0  0  0  0  0  0
    7.2570   -0.6830   25.4940 C   0  0  0  0  0  0  0  0  0  0  0  0
    7.3760    0.5950   25.1160 N   0  0  0  0  0  0  0  0  0  0  0  0
    7.2140    1.1370   23.8250 C   0  0  0  0  0  0  0  0  0  0  0  0
    7.0030    1.4090   22.4760 C   0  0  0  0  0  0  0  0  0  0  0  0
    5.6220    1.5220   22.9540 C   0  0  0  0  0  0  0  0  0  0  0  0
    5.3470    1.3210   24.3240 C   0  0  0  0  0  0  0  0  0  0  0  0
    4.4300    1.8140   22.2640 C   0  0  0  0  0  0  0  0  0  0  0  0
    4.3370    2.0850   20.8080 C   0  0  0  0  0  0  0  0  0  0  0  0
    2.9390    2.4510   19.8670 Cl  0  0  0  0  0  0  0  0  0  0  0  0
    5.6250    1.9970   20.2900 N   0  0  0  0  0  0  0  0  0  0  0  0
    6.7000    1.7000   21.0970 C   0  0  0  0  0  0  0  0  0  0  0  0
    7.8020    1.6680   20.3660 F   0  0  0  0  0  0  0  0  0  0  0  0
    6.8850   -0.0540   23.0770 C   0  0  0  0  0  0  0  0  0  0  0  0
    6.7230   -1.4020   23.3480 C   0  0  0  0  0  0  0  0  0  0  0  0
    6.3660   -2.1130   22.2050 C   0  0  0  0  0  0  0  0  0  0  0  0
    6.0330   -1.3000   21.1810 C   0  0  0  0  0  0  0  0  0  0  0  0
    5.6670   -1.8470   20.0370 C   0  0  0  0  0  0  0  0  0  0  0  0
    5.2670   -0.7820   18.7450 Cl  0  0  0  0  0  0  0  0  0  0  0  0
    5.6100   -3.2090   19.8730 C   0  0  0  0  0  0  0  0  0  0  0  0
    5.9620   -4.3470   20.9090 C   0  0  0  0  0  0  0  0  0  0  0  0
    6.3940   -5.0510   22.1630 C   0  0  0  0  0  0  0  0  0  0  0  0
    7.4740   -4.5540   21.8840 O   0  0  0  0  0  0  0  0  0  0  0  0
    5.0800   -5.4150   22.1330 N   0  0  0  0  0  0  0  0  0  0  0  0
    4.2380   -4.8550   23.0370 C   0  0  0  0  0  0  0  0  0  0  0  0
    4.0680   -3.5140   23.6580 C   0  0  0  0  0  0  0  0  0  0  0  0
    3.0040   -3.6990   24.4930 C   0  0  0  0  0  0  0  0  0  0  0  0
    2.6060   -5.0250   24.3540 C   0  0  0  0  0  0  0  0  0  0  0  0
    3.2940   -5.6680   23.5400 O   0  0  0  0  0  0  0  0  0  0  0  0
    6.3250   -3.5000   22.0380 C   0  0  0  0  0  0  0  0  0  0  0  0
  1  2  1  0
  2  3  1  0
  3  4  1  0
  4  5  2  0
  5  6  1  0
  6  7  2  0
  7  8  1  0
  8  9  2  0
  9 10  1  0
  9 11  1  0
 11 12  2  0
 12 13  1  0
 12 14  1  0
  8 15  1  0
 14 15  2  0
 15 16  1  0
  7 17  1  0
  4 18  1  0
 17 18  2  0
 18 19  1  0
 19 20  2  0
 20 21  1  0
 21 22  1  0
 21 23  2  0
 23 24  1  0
 24 25  1  0
 25 26  2  0
 25 27  1  0
 27 28  1  0
 28 29  2  0
 29 30  1  0
 30 31  2  0
 28 32  1  0
 31 32  1  0
 19 33  1  0
 24 33  2  0
M  END
