BEN-VAN-ed886787-17
     RDKit          3D

 33 35  0  0  0  0  0  0  0  0999 V2000
    3.3570   -3.0460   12.4220 C   0  0  0  0  0  0  0  0  0  0  0  0
    4.7000   -3.7780   12.6240 C   0  0  0  0  0  0  0  0  0  0  0  0
    6.0740   -3.4590   13.6180 N   0  0  0  0  0  0  0  0  0  0  0  0
    6.4650   -2.8950   15.2160 C   0  0  0  0  0  0  0  0  0  0  0  0
    7.5880   -3.4250   16.1450 C   0  0  0  0  0  0  0  0  0  0  0  0
    7.9330   -2.9420   17.4160 C   0  0  0  0  0  0  0  0  0  0  0  0
    7.2870   -1.8810   18.0530 C   0  0  0  0  0  0  0  0  0  0  0  0
    7.6040   -1.4040   19.2640 F   0  0  0  0  0  0  0  0  0  0  0  0
    6.3230   -1.4150   17.2800 C   0  0  0  0  0  0  0  0  0  0  0  0
    5.5780   -0.2890   17.8140 C   0  0  0  0  0  0  0  0  0  0  0  0
    5.3070   -0.4500   19.3370 C   0  0  0  0  0  0  0  0  0  0  0  0
    5.7950   -1.7010   20.0540 C   0  0  0  0  0  0  0  0  0  0  0  0
    5.5510   -1.8640   21.5360 C   0  0  0  0  0  0  0  0  0  0  0  0
    6.0160   -3.0290   22.1740 N   0  0  0  0  0  0  0  0  0  0  0  0
    7.2560   -3.0380   23.0810 C   0  0  0  0  0  0  0  0  0  0  0  0
    8.2240   -2.1770   22.5430 C   0  0  0  0  0  0  0  0  0  0  0  0
    7.8980   -1.3770   21.6780 O   0  0  0  0  0  0  0  0  0  0  0  0
    9.4940   -2.3020   23.0480 N   0  0  0  0  0  0  0  0  0  0  0  0
   10.3190   -1.2240   23.0290 C   0  0  0  0  0  0  0  0  0  0  0  0
   11.6650   -1.5580   23.1700 C   0  0  0  0  0  0  0  0  0  0  0  0
   12.6220   -0.5370   23.1680 C   0  0  0  0  0  0  0  0  0  0  0  0
   12.2420    0.8050   23.0270 C   0  0  0  0  0  0  0  0  0  0  0  0
   10.8840    1.1400   22.8880 C   0  0  0  0  0  0  0  0  0  0  0  0
   10.4820    2.4810   22.7490 C   0  0  0  0  0  0  0  0  0  0  0  0
    9.5400    2.7140   21.8260 F   0  0  0  0  0  0  0  0  0  0  0  0
    9.9830    3.1020   23.8270 F   0  0  0  0  0  0  0  0  0  0  0  0
   11.5260    3.2810   22.3880 F   0  0  0  0  0  0  0  0  0  0  0  0
    9.9250    0.1020   22.8890 C   0  0  0  0  0  0  0  0  0  0  0  0
    4.8680   -0.8440   22.2040 C   0  0  0  0  0  0  0  0  0  0  0  0
    4.3990    0.3210   21.5610 C   0  0  0  0  0  0  0  0  0  0  0  0
    4.6270    0.5210   20.0870 C   0  0  0  0  0  0  0  0  0  0  0  0
    4.0130    1.9840   19.4110 Cl  0  0  0  0  0  0  0  0  0  0  0  0
    6.0080   -1.9120   16.0200 N   0  0  0  0  0  0  0  0  0  0  0  0
  1  2  1  0
  2  3  1  0
  3  4  1  0
  4  5  2  0
  5  6  1  0
  6  7  2  0
  7  8  1  0
  7  9  1  0
  9 10  1  0
 10 11  1  0
 11 12  2  0
 12 13  1  0
 13 14  1  0
 14 15  1  0
 15 16  1  0
 16 17  2  0
 16 18  1  0
 18 19  1  0
 19 20  2  0
 20 21  1  0
 21 22  2  0
 22 23  1  0
 23 24  1  0
 24 25  1  0
 24 26  1  0
 24 27  1  0
 19 28  1  0
 23 28  2  0
 13 29  2  0
 29 30  1  0
 11 31  1  0
 30 31  2  0
 31 32  1  0
  4 33  1  0
  9 33  2  0
M  END
