BEN-VAN-77cef4f8-14-nitrile
     RDKit          3D

 31 34  0  0  0  0  0  0  0  0999 V2000
    7.1420   -5.1410   20.2970 C   0  0  0  0  0  0  0  0  0  0  0  0
    5.9090   -4.8780   20.0380 N   0  0  0  0  0  0  0  0  0  0  0  0
    7.9550   -4.7450   21.4430 C   0  0  0  0  0  0  0  0  0  0  0  0
    7.9070   -5.4320   22.6560 C   0  0  0  0  0  0  0  0  0  0  0  0
    8.7380   -5.0350   23.6980 C   0  0  0  0  0  0  0  0  0  0  0  0
    9.6060   -3.9520   23.4960 C   0  0  0  0  0  0  0  0  0  0  0  0
   10.4900   -3.4630   24.4250 N   0  0  0  0  0  0  0  0  0  0  0  0
   11.0010   -2.0870   24.3090 C   0  0  1  0  0  0  0  0  0  0  0  0
   12.4460   -2.0670   23.7940 C   0  0  0  0  0  0  0  0  0  0  0  0
    9.9820   -1.2540   23.4630 C   0  0  0  0  0  0  0  0  0  0  0  0
    9.7470    0.2080   23.8670 C   0  0  0  0  0  0  0  0  0  0  0  0
   10.7140    1.4680   23.1840 C   0  0  0  0  0  0  0  0  0  0  0  0
   10.5770    2.9500   23.5400 C   0  0  0  0  0  0  0  0  0  0  0  0
    9.8950    2.0740   24.0070 C   0  0  0  0  0  0  0  0  0  0  0  0
    8.9520    1.7050   24.8320 C   0  0  0  0  0  0  0  0  0  0  0  0
    8.6670    0.5140   24.8800 C   0  0  0  0  0  0  0  0  0  0  0  0
    9.3190    0.7450   24.2310 O   0  0  0  0  0  0  0  0  0  0  0  0
    8.4100    0.6010   23.0700 C   0  0  2  0  0  0  0  0  0  0  0  0
    7.4390   -0.6010   23.0270 C   0  0  2  0  0  0  0  0  0  0  0  0
    7.3840   -1.4030   21.6730 C   0  0  0  0  0  0  0  0  0  0  0  0
    6.0720   -1.4310   20.9940 N   0  0  0  0  0  0  0  0  0  0  0  0
    5.9340   -2.2060   19.8400 C   0  0  0  0  0  0  0  0  0  0  0  0
    6.5900   -1.6780   18.6010 C   0  0  0  0  0  0  0  0  0  0  0  0
    5.3060   -3.2770   19.7760 O   0  0  0  0  0  0  0  0  0  0  0  0
    5.2830   -0.2370   21.2570 C   0  0  0  0  0  0  0  0  0  0  0  0
    4.9970   -0.1400   22.7490 C   0  0  0  0  0  0  0  0  0  0  0  0
    6.1550   -0.2120   23.5900 O   0  0  0  0  0  0  0  0  0  0  0  0
    9.5250    0.7130   22.1400 C   0  0  0  0  0  0  0  0  0  0  0  0
   10.4730    0.9800   23.1850 O   0  0  0  0  0  0  0  0  0  0  0  0
    9.6410   -3.2910   22.3340 N   0  0  0  0  0  0  0  0  0  0  0  0
    8.8270   -3.6850   21.3410 C   0  0  0  0  0  0  0  0  0  0  0  0
  1  2  2  3
  1  3  1  0
  3  4  2  0
  4  5  1  0
  5  6  2  0
  6  7  1  0
  7  8  1  0
  8  9  1  6
  8 10  1  0
 10 11  1  0
 11 12  2  0
 12 13  1  0
 13 14  2  0
 14 15  1  0
 11 16  1  0
 15 16  2  0
 15 17  1  0
 17 18  1  0
 18 19  1  0
 19 20  1  6
 20 21  1  0
 21 22  1  0
 22 23  1  0
 22 24  2  0
 21 25  1  0
 25 26  1  0
 19 27  1  0
 26 27  1  0
 18 28  1  6
 14 29  1  0
 28 29  1  0
  6 30  1  0
  3 31  1  0
 30 31  2  0
M  END
