BEN-VAN-ed886787-19-chloroacetamide
     RDKit          3D

 26 27  0  0  0  0  0  0  0  0999 V2000
    7.4670   -3.3200   19.6290 C   0  0  0  0  0  0  0  0  0  0  0  0
    6.1060   -2.6680   19.6710 C   0  0  0  0  0  0  0  0  0  0  0  0
    5.1670   -3.2800   19.1150 O   0  0  0  0  0  0  0  0  0  0  0  0
    5.9480   -1.4240   20.3230 N   0  0  0  0  0  0  0  0  0  0  0  0
    6.7150   -0.1900   20.0390 C   0  0  0  0  0  0  0  0  0  0  0  0
    6.1250   -0.1740   18.9680 O   0  0  0  0  0  0  0  0  0  0  0  0
    7.1770   -0.6190   21.4470 C   0  0  0  0  0  0  0  0  0  0  0  0
    8.3480   -1.5530   21.4050 N   0  0  0  0  0  0  0  0  0  0  0  0
    9.3540   -1.5070   22.3520 C   0  0  0  0  0  0  0  0  0  0  0  0
    9.1810   -1.0960   23.7260 C   0  0  0  0  0  0  0  0  0  0  0  0
   10.3010   -1.1030   24.6020 C   0  0  0  0  0  0  0  0  0  0  0  0
   11.6300   -1.5110   24.1700 C   0  0  0  0  0  0  0  0  0  0  0  0
   13.0470   -1.5970   25.0980 Cl  0  0  0  0  0  0  0  0  0  0  0  0
   11.7370   -1.8990   22.7270 C   0  0  0  0  0  0  0  0  0  0  0  0
   13.0050   -2.3080   22.0130 C   0  0  0  0  0  0  0  0  0  0  0  0
   13.5370   -0.9840   21.5130 C   0  0  0  0  0  0  0  0  0  0  0  0
   14.0070   -0.8040   20.2020 N   0  0  0  0  0  0  0  0  0  0  0  0
   14.4800    0.4680   19.8500 C   0  0  0  0  0  0  0  0  0  0  0  0
   14.9100    0.6920   18.5830 N   0  0  0  0  0  0  0  0  0  0  0  0
   15.6640    1.9080   18.3370 C   0  0  0  0  0  0  0  0  0  0  0  0
   15.0410    3.0910   18.7180 C   0  0  0  0  0  0  0  0  0  0  0  0
   14.5050    1.5200   20.7600 C   0  0  0  0  0  0  0  0  0  0  0  0
   14.0240    1.2980   22.0430 C   0  0  0  0  0  0  0  0  0  0  0  0
   13.5340    0.0650   22.4220 C   0  0  0  0  0  0  0  0  0  0  0  0
   13.0740   -0.0820   23.6570 F   0  0  0  0  0  0  0  0  0  0  0  0
   10.5650   -1.8830   21.8960 C   0  0  0  0  0  0  0  0  0  0  0  0
  1  2  1  0
  2  3  2  0
  2  4  1  0
  4  5  1  0
  5  6  2  0
  5  7  1  0
  7  8  1  0
  8  9  1  0
  9 10  2  0
 10 11  1  0
 11 12  2  0
 12 13  1  0
 12 14  1  0
 14 15  1  0
 15 16  1  0
 16 17  2  0
 17 18  1  0
 18 19  1  0
 19 20  1  0
 20 21  1  0
 18 22  2  0
 22 23  1  0
 16 24  1  0
 23 24  2  0
 24 25  1  0
  9 26  1  0
 14 26  2  0
M  END
