BEN-VAN-ed886787-12-chloroacetamide
     RDKit          3D

 27 28  0  0  0  0  0  0  0  0999 V2000
    7.5810   -3.8340   20.3540 C   0  0  0  0  0  0  0  0  0  0  0  0
    6.2440   -3.1760   20.0120 C   0  0  0  0  0  0  0  0  0  0  0  0
    5.3090   -3.8820   19.6020 O   0  0  0  0  0  0  0  0  0  0  0  0
    6.0730   -1.7880   20.1470 N   0  0  0  0  0  0  0  0  0  0  0  0
    6.9490   -0.7510   19.5750 C   0  0  0  0  0  0  0  0  0  0  0  0
    6.4170   -0.9830   18.4920 O   0  0  0  0  0  0  0  0  0  0  0  0
    7.2700   -0.8370   21.0770 C   0  0  0  0  0  0  0  0  0  0  0  0
    8.4660   -1.6840   21.3870 N   0  0  0  0  0  0  0  0  0  0  0  0
    9.3250   -1.1950   22.3310 C   0  0  0  0  0  0  0  0  0  0  0  0
    8.7070   -0.5800   23.4840 C   0  0  0  0  0  0  0  0  0  0  0  0
    9.5550   -0.0660   24.4450 C   0  0  0  0  0  0  0  0  0  0  0  0
    8.8730    0.5140   25.5340 C   0  0  0  0  0  0  0  0  0  0  0  0
    9.1390   -0.3410   26.7830 C   0  0  0  0  0  0  0  0  0  0  0  0
   10.9400   -0.1030   24.3660 C   0  0  0  0  0  0  0  0  0  0  0  0
   11.6210   -0.7120   23.2300 C   0  0  0  0  0  0  0  0  0  0  0  0
   12.9930   -0.7870   23.0860 C   0  0  0  0  0  0  0  0  0  0  0  0
   13.5630   -0.1620   22.0320 C   0  0  0  0  0  0  0  0  0  0  0  0
   13.9710    1.1600   22.1700 N   0  0  0  0  0  0  0  0  0  0  0  0
   14.5570    1.8120   21.1170 C   0  0  0  0  0  0  0  0  0  0  0  0
   14.9520    3.1960   21.3070 N   0  0  0  0  0  0  0  0  0  0  0  0
   15.4840    3.9030   20.2560 C   0  0  0  0  0  0  0  0  0  0  0  0
   15.1140    3.2210   19.0970 C   0  0  0  0  0  0  0  0  0  0  0  0
   14.7490    1.0690   19.8090 C   0  0  0  0  0  0  0  0  0  0  0  0
   14.2900   -0.2500   19.7700 C   0  0  0  0  0  0  0  0  0  0  0  0
   13.6970   -0.9170   20.8720 C   0  0  0  0  0  0  0  0  0  0  0  0
   13.2730   -2.1770   20.8230 F   0  0  0  0  0  0  0  0  0  0  0  0
   10.7080   -1.2880   22.1630 C   0  0  0  0  0  0  0  0  0  0  0  0
  1  2  1  0
  2  3  2  0
  2  4  1  0
  4  5  1  0
  5  6  2  0
  5  7  1  0
  7  8  1  0
  8  9  1  0
  9 10  2  0
 10 11  1  0
 11 12  1  0
 12 13  1  0
 11 14  2  0
 14 15  1  0
 15 16  1  0
 16 17  1  0
 17 18  2  0
 18 19  1  0
 19 20  1  0
 20 21  1  0
 21 22  1  0
 19 23  2  0
 23 24  1  0
 17 25  1  0
 24 25  2  0
 25 26  1  0
  9 27  1  0
 15 27  2  0
M  END
