BEN-VAN-d8fd1356-25
     RDKit          3D

 22 24  0  0  0  0  0  0  0  0999 V2000
   12.5580    5.2180   22.1810 C   0  0  0  0  0  0  0  0  0  0  0  0
   12.6250    4.0960   23.2010 C   0  0  0  0  0  0  0  0  0  0  0  0
   11.6060    2.9320   22.9860 C   0  0  0  0  0  0  0  0  0  0  0  0
   10.1640    3.2880   22.9610 C   0  0  0  0  0  0  0  0  0  0  0  0
    9.3420    2.2680   22.7270 N   0  0  0  0  0  0  0  0  0  0  0  0
   10.0730    1.1060   22.5630 C   0  0  0  0  0  0  0  0  0  0  0  0
    9.4120   -0.3190   22.2190 C   0  0  0  0  0  0  0  0  0  0  0  0
    8.3400    0.4680   22.2350 O   0  0  0  0  0  0  0  0  0  0  0  0
    7.1970    0.3040   21.2740 C   0  0  0  0  0  0  0  0  0  0  0  0
    6.6300    1.5400   20.4160 C   0  0  0  0  0  0  0  0  0  0  0  0
    5.9850    1.0790   19.2520 C   0  0  0  0  0  0  0  0  0  0  0  0
    6.9360    0.2650   18.5500 N   0  0  0  0  0  0  0  0  0  0  0  0
    7.1770    0.3240   17.0630 C   0  0  0  0  0  0  0  0  0  0  0  0
    7.7020   -0.9600   16.2820 C   0  0  0  0  0  0  0  0  0  0  0  0
    6.9840    1.3400   16.4270 O   0  0  0  0  0  0  0  0  0  0  0  0
    7.1130   -0.8740   19.1030 C   0  0  0  0  0  0  0  0  0  0  0  0
    7.6250   -0.8490   20.3930 C   0  0  0  0  0  0  0  0  0  0  0  0
   10.6710   -1.1400   22.2190 C   0  0  0  0  0  0  0  0  0  0  0  0
   12.0710   -0.9880   22.3910 C   0  0  0  0  0  0  0  0  0  0  0  0
   12.9240   -2.0240   22.2930 F   0  0  0  0  0  0  0  0  0  0  0  0
   12.5530    0.3790   22.6690 C   0  0  0  0  0  0  0  0  0  0  0  0
   11.5850    1.4950   22.7660 C   0  0  0  0  0  0  0  0  0  0  0  0
  1  2  1  0
  2  3  1  0
  3  4  2  0
  4  5  1  0
  5  6  1  0
  6  7  1  0
  7  8  1  0
  8  9  1  0
  9 10  1  0
 10 11  1  0
 11 12  1  0
 12 13  1  0
 13 14  1  0
 13 15  2  0
 12 16  1  0
  9 17  1  0
 16 17  1  0
  7 18  2  0
 18 19  1  0
 19 20  1  0
 19 21  2  0
  3 22  1  0
  6 22  2  0
 21 22  1  0
M  END
