BEN-VAN-d8fd1356-16
     RDKit          3D

 25 27  0  0  0  0  0  0  0  0999 V2000
   12.9340    5.0010   21.4240 C   0  0  0  0  0  0  0  0  0  0  0  0
   12.3130    4.8930   22.8410 C   0  0  0  0  0  0  0  0  0  0  0  0
   12.0900    3.4390   23.4340 C   0  0  0  0  0  0  0  0  0  0  0  0
   11.0090    2.5440   22.8240 C   0  0  0  0  0  0  0  0  0  0  0  0
    9.7020    3.1180   22.6090 C   0  0  0  0  0  0  0  0  0  0  0  0
    8.9070    2.1690   22.0580 N   0  0  0  0  0  0  0  0  0  0  0  0
    9.5820    0.9330   21.8560 C   0  0  0  0  0  0  0  0  0  0  0  0
    8.9310   -0.3360   21.2210 C   0  0  0  0  0  0  0  0  0  0  0  0
    7.5880    0.4760   21.0290 O   0  0  0  0  0  0  0  0  0  0  0  0
    7.0470    1.4130   19.9160 C   0  0  0  0  0  0  0  0  0  0  0  0
    7.1610    1.9730   21.0680 C   0  0  0  0  0  0  0  0  0  0  0  0
    7.4020    0.4500   21.4270 C   0  0  0  0  0  0  0  0  0  0  0  0
    7.6030    0.3000   22.9930 C   0  0  0  0  0  0  0  0  0  0  0  0
    7.4050   -0.7070   20.5570 C   0  0  0  0  0  0  0  0  0  0  0  0
    7.1840   -0.6190   19.2170 C   0  0  0  0  0  0  0  0  0  0  0  0
    7.0610   -1.8700   17.9670 S   0  0  0  0  0  0  0  0  0  0  0  0
    6.2680   -1.0170   16.7420 N   0  0  0  0  0  0  0  0  0  0  0  0
    8.3480   -2.2290   17.4220 O   0  0  0  0  0  0  0  0  0  0  0  0
    6.0330   -2.8070   18.3590 O   0  0  0  0  0  0  0  0  0  0  0  0
    6.9830    0.5470   18.7840 N   0  0  0  0  0  0  0  0  0  0  0  0
   10.2260   -1.1190   21.4050 C   0  0  0  0  0  0  0  0  0  0  0  0
   11.5690   -1.0520   21.8710 C   0  0  0  0  0  0  0  0  0  0  0  0
   12.4330   -2.0790   21.8060 F   0  0  0  0  0  0  0  0  0  0  0  0
   12.0100    0.2190   22.4140 C   0  0  0  0  0  0  0  0  0  0  0  0
   10.9560    1.2450   22.4030 C   0  0  0  0  0  0  0  0  0  0  0  0
  1  2  1  0
  2  3  1  0
  3  4  1  0
  4  5  2  0
  5  6  1  0
  6  7  1  0
  7  8  1  0
  8  9  1  0
  9 10  1  0
 10 11  2  0
 11 12  1  0
 12 13  1  0
 12 14  2  0
 14 15  1  0
 15 16  1  0
 16 17  1  0
 16 18  2  0
 16 19  2  0
 10 20  1  0
 15 20  2  0
  8 21  2  0
 21 22  1  0
 22 23  1  0
 22 24  2  0
  4 25  1  0
  7 25  2  0
 24 25  1  0
M  END
