BEN-DND-362d364a-6-nitrile
     RDKit          3D

 18 18  0  0  0  0  0  0  0  0999 V2000
    7.9730   -3.5560   19.9090 C   0  0  0  0  0  0  0  0  0  0  0  0
    6.6380   -3.7200   19.6870 N   0  0  0  0  0  0  0  0  0  0  0  0
    8.7210   -2.7500   21.1620 C   0  0  0  0  0  0  0  0  0  0  0  0
   10.3140   -2.3520   21.4100 C   0  0  0  0  0  0  0  0  0  0  0  0
   10.7690   -1.6200   22.5030 N   0  0  0  0  0  0  0  0  0  0  0  0
    9.8470   -1.2630   23.4320 C   0  0  0  0  0  0  0  0  0  0  0  0
   10.2780   -0.5270   24.5510 N   0  0  0  0  0  0  0  0  0  0  0  0
    9.3840    0.4690   25.1280 C   0  0  0  0  0  0  0  0  0  0  0  0
    9.1170    0.0030   26.5650 C   0  0  0  0  0  0  0  0  0  0  0  0
    8.5120   -1.6170   23.3020 C   0  0  0  0  0  0  0  0  0  0  0  0
    7.4420   -1.3040   24.3530 C   0  0  0  0  0  0  0  0  0  0  0  0
    7.4940   -2.4960   25.0510 C   0  0  0  0  0  0  0  0  0  0  0  0
    7.4130   -3.6600   25.1080 N   0  0  0  0  0  0  0  0  0  0  0  0
    7.9510   -4.4890   26.4660 S   0  0  0  0  0  0  0  0  0  0  0  0
    6.6160   -5.4880   26.8650 C   0  0  0  0  0  0  0  0  0  0  0  0
    9.0380   -5.3600   26.0850 O   0  0  0  0  0  0  0  0  0  0  0  0
    8.0890   -3.4670   27.4800 O   0  0  0  0  0  0  0  0  0  0  0  0
    7.9540   -2.3110   22.2280 C   0  0  0  0  0  0  0  0  0  0  0  0
  1  2  2  3
  1  3  1  0
  3  4  2  0
  4  5  1  0
  5  6  2  0
  6  7  1  0
  7  8  1  0
  8  9  1  0
  6 10  1  0
 10 11  1  0
 11 12  1  0
 12 13  1  0
 14 13  1  0
 14 15  1  0
 14 16  2  0
 14 17  2  0
  3 18  1  0
 10 18  2  0
M  END
