BEN-VAN-77cef4f8-5-chloroacetamide
     RDKit          3D

 29 31  0  0  0  0  0  0  0  0999 V2000
    6.3690   -4.7790   20.4330 C   0  0  0  0  0  0  0  0  0  0  0  0
    6.6580   -3.3520   20.3000 C   0  0  0  0  0  0  0  0  0  0  0  0
    6.1290   -2.9890   19.1980 O   0  0  0  0  0  0  0  0  0  0  0  0
    7.5510   -2.6700   21.3250 N   0  0  0  0  0  0  0  0  0  0  0  0
    7.2800   -2.7740   22.7510 C   0  0  0  0  0  0  0  0  0  0  0  0
    8.3280   -2.9580   23.6940 C   0  0  0  0  0  0  0  0  0  0  0  0
    9.5570   -2.2230   23.4340 O   0  0  0  0  0  0  0  0  0  0  0  0
   10.1910   -2.6100   22.1980 C   0  0  2  0  0  0  0  0  0  0  0  0
   11.5100   -1.7150   21.9300 C   0  0  0  0  0  0  0  0  0  0  0  0
   11.6890   -0.6630   22.7950 C   0  0  0  0  0  0  0  0  0  0  0  0
   12.6720    0.3030   22.7720 C   0  0  0  0  0  0  0  0  0  0  0  0
   12.6520    1.2540   23.6870 F   0  0  0  0  0  0  0  0  0  0  0  0
   13.6640    0.3250   21.7880 C   0  0  0  0  0  0  0  0  0  0  0  0
   14.5020    1.3660   21.8550 F   0  0  0  0  0  0  0  0  0  0  0  0
   13.7330   -0.8150   20.6320 C   0  0  0  0  0  0  0  0  0  0  0  0
   14.9090   -0.6380   19.3090 C   0  0  0  0  0  0  0  0  0  0  0  0
   15.6850   -1.4400   18.6810 O   0  0  0  0  0  0  0  0  0  0  0  0
   16.9950   -0.9510   18.1340 C   0  0  2  0  0  0  0  0  0  0  0  0
   16.7800   -0.4800   16.7190 C   0  0  0  0  0  0  0  0  0  0  0  0
   18.1170   -1.9110   18.1960 N   0  0  0  0  0  0  0  0  0  0  0  0
   19.5390   -1.8200   18.8050 C   0  0  0  0  0  0  0  0  0  0  0  0
   20.3970   -0.9300   18.3730 C   0  0  0  0  0  0  0  0  0  0  0  0
   21.6920   -0.8060   18.8950 C   0  0  0  0  0  0  0  0  0  0  0  0
   22.1600   -1.6110   19.8880 C   0  0  0  0  0  0  0  0  0  0  0  0
   21.3860   -2.5190   20.3830 N   0  0  0  0  0  0  0  0  0  0  0  0
   20.1590   -2.5520   19.8160 C   0  0  0  0  0  0  0  0  0  0  0  0
   19.3560   -3.7100   20.5570 Cl  0  0  0  0  0  0  0  0  0  0  0  0
   12.5520   -1.8210   20.8550 C   0  0  0  0  0  0  0  0  0  0  0  0
    9.0360   -2.5180   21.0780 C   0  0  0  0  0  0  0  0  0  0  0  0
  1  2  1  0
  2  3  2  0
  2  4  1  0
  4  5  1  0
  5  6  1  0
  6  7  1  0
  7  8  1  0
  8  9  1  6
  9 10  2  0
 10 11  1  0
 11 12  1  0
 11 13  2  0
 13 14  1  0
 13 15  1  0
 15 16  1  0
 16 17  1  0
 17 18  1  0
 18 19  1  6
 18 20  1  0
 20 21  1  0
 21 22  2  0
 22 23  1  0
 23 24  2  0
 24 25  1  0
 21 26  1  0
 25 26  2  0
 26 27  1  0
  9 28  1  0
 15 28  2  0
  4 29  1  0
  8 29  1  0
M  END
