BEN-VAN-77cef4f8-12-acrylamide
     RDKit          3D

 30 32  0  0  0  0  0  0  0  0999 V2000
    8.0930   -3.6170   19.9480 C   0  0  0  0  0  0  0  0  0  0  0  0
    6.8390   -2.9560   19.4860 C   0  0  0  0  0  0  0  0  0  0  0  0
    5.8220   -3.6220   20.3320 C   0  0  0  0  0  0  0  0  0  0  0  0
    5.1550   -4.5350   19.8720 O   0  0  0  0  0  0  0  0  0  0  0  0
    5.7280   -3.1830   21.6460 N   0  0  0  0  0  0  0  0  0  0  0  0
    5.4780   -4.0800   22.7690 C   0  0  0  0  0  0  0  0  0  0  0  0
    6.7090   -4.3690   23.3330 C   0  0  0  0  0  0  0  0  0  0  0  0
    7.1490   -3.2850   24.1570 O   0  0  0  0  0  0  0  0  0  0  0  0
    6.9850   -1.9710   23.5560 C   0  0  1  0  0  0  0  0  0  0  0  0
    8.3250   -1.2610   23.7620 C   0  0  0  0  0  0  0  0  0  0  0  0
    8.8570   -1.1220   25.1480 C   0  0  0  0  0  0  0  0  0  0  0  0
   10.1710   -0.4880   25.4040 C   0  0  0  0  0  0  0  0  0  0  0  0
   10.9880    0.0230   24.2810 C   0  0  0  0  0  0  0  0  0  0  0  0
   12.1940    0.5930   24.4000 F   0  0  0  0  0  0  0  0  0  0  0  0
   10.3920   -0.1250   23.0290 C   0  0  0  0  0  0  0  0  0  0  0  0
   11.1370    0.3550   22.0970 F   0  0  0  0  0  0  0  0  0  0  0  0
    9.1270   -0.7160   22.7450 C   0  0  0  0  0  0  0  0  0  0  0  0
    8.6470   -0.7520   21.4650 C   0  0  0  0  0  0  0  0  0  0  0  0
    7.6940    0.2760   21.1780 C   0  0  2  0  0  0  0  0  0  0  0  0
    7.0530    0.9110   22.2600 C   0  0  0  0  0  0  0  0  0  0  0  0
    6.6220   -0.1520   20.2480 N   0  0  0  0  0  0  0  0  0  0  0  0
    6.9190   -0.0480   18.8330 C   0  0  0  0  0  0  0  0  0  0  0  0
    7.5500   -1.2970   18.2700 C   0  0  0  0  0  0  0  0  0  0  0  0
    7.9610   -1.2960   16.9660 C   0  0  0  0  0  0  0  0  0  0  0  0
    7.7450   -0.0260   16.2270 C   0  0  0  0  0  0  0  0  0  0  0  0
    8.1910    0.1200   14.9620 C   0  0  0  0  0  0  0  0  0  0  0  0
    8.7130    0.2800   13.9550 N   0  0  0  0  0  0  0  0  0  0  0  0
    7.1150    1.0200   16.8450 C   0  0  0  0  0  0  0  0  0  0  0  0
    6.6880    1.0470   18.1320 N   0  0  0  0  0  0  0  0  0  0  0  0
    6.5610   -2.0250   22.0500 C   0  0  0  0  0  0  0  0  0  0  0  0
  1  2  1  0
  2  3  1  0
  3  4  2  0
  3  5  1  0
  5  6  1  0
  6  7  1  0
  7  8  1  0
  8  9  1  0
  9 10  1  6
 10 11  2  0
 11 12  1  0
 12 13  2  0
 13 14  1  0
 13 15  1  0
 15 16  1  0
 10 17  1  0
 15 17  2  0
 17 18  1  0
 18 19  1  0
 19 20  1  1
 19 21  1  0
 21 22  1  0
 22 23  2  0
 23 24  1  0
 24 25  2  0
 25 26  1  0
 26 27  3  0
 25 28  1  0
 22 29  1  0
 28 29  2  0
  5 30  1  0
  9 30  1  0
M  END
