BEN-VAN-ed886787-20-nitrile
     RDKit          3D

 25 26  0  0  0  0  0  0  0  0999 V2000
    6.3290   -4.1660   19.8950 C   0  0  0  0  0  0  0  0  0  0  0  0
    5.6980   -5.2730   20.0440 N   0  0  0  0  0  0  0  0  0  0  0  0
    5.7690   -2.9540   20.0420 N   0  0  0  0  0  0  0  0  0  0  0  0
    5.2640   -2.5430   21.3470 C   0  0  0  0  0  0  0  0  0  0  0  0
    4.4960   -3.2670   21.9760 O   0  0  0  0  0  0  0  0  0  0  0  0
    5.8980   -1.1460   21.6220 C   0  0  0  0  0  0  0  0  0  0  0  0
    6.8450   -0.9560   20.6580 O   0  0  0  0  0  0  0  0  0  0  0  0
    7.7990   -0.1660   21.2290 C   0  0  0  0  0  0  0  0  0  0  0  0
    7.6420    1.3720   21.2380 C   0  0  0  0  0  0  0  0  0  0  0  0
    8.7620    2.2430   21.8940 C   0  0  0  0  0  0  0  0  0  0  0  0
   10.0490    1.6450   22.5590 C   0  0  0  0  0  0  0  0  0  0  0  0
   11.2360    2.6770   23.2600 Cl  0  0  0  0  0  0  0  0  0  0  0  0
   10.1510    0.1400   22.5250 C   0  0  0  0  0  0  0  0  0  0  0  0
   11.3400   -0.6660   23.1220 C   0  0  0  0  0  0  0  0  0  0  0  0
   12.6380   -0.2550   22.8270 C   0  0  0  0  0  0  0  0  0  0  0  0
   12.1150    0.5070   23.7990 N   0  0  0  0  0  0  0  0  0  0  0  0
   10.7900   -0.1570   24.0190 C   0  0  0  0  0  0  0  0  0  0  0  0
    9.9440    0.3160   24.9670 N   0  0  0  0  0  0  0  0  0  0  0  0
    9.1220   -0.5720   25.5730 C   0  0  0  0  0  0  0  0  0  0  0  0
    9.1820   -0.4600   26.9690 C   0  0  0  0  0  0  0  0  0  0  0  0
   10.4010   -1.2920   23.2430 C   0  0  0  0  0  0  0  0  0  0  0  0
   11.1970   -1.9000   22.2210 C   0  0  0  0  0  0  0  0  0  0  0  0
   12.4260   -1.3330   22.0030 C   0  0  0  0  0  0  0  0  0  0  0  0
   13.2710   -1.8460   21.0750 F   0  0  0  0  0  0  0  0  0  0  0  0
    9.0540   -0.7150   21.8750 C   0  0  0  0  0  0  0  0  0  0  0  0
  1  2  2  3
  1  3  1  0
  3  4  1  0
  4  5  2  0
  4  6  1  0
  6  7  1  0
  7  8  1  0
  8  9  2  0
  9 10  1  0
 10 11  2  0
 11 12  1  0
 11 13  1  0
 13 14  1  0
 14 15  1  0
 15 16  2  0
 16 17  1  0
 17 18  1  0
 18 19  1  0
 19 20  1  0
 17 21  2  0
 21 22  1  0
 15 23  1  0
 22 23  2  0
 23 24  1  0
  8 25  1  0
 13 25  2  0
M  END
