BEN-VAN-d8fd1356-3
     RDKit          3D

 23 25  0  0  0  0  0  0  0  0999 V2000
   10.8440    5.9840   22.7170 C   0  0  0  0  0  0  0  0  0  0  0  0
   12.1580    5.2700   22.9190 C   0  0  0  0  0  0  0  0  0  0  0  0
   12.0530    3.7860   23.3770 C   0  0  0  0  0  0  0  0  0  0  0  0
   11.0410    2.6770   23.0130 C   0  0  0  0  0  0  0  0  0  0  0  0
    9.6310    3.0340   23.0370 C   0  0  0  0  0  0  0  0  0  0  0  0
    8.9370    1.9170   22.6810 N   0  0  0  0  0  0  0  0  0  0  0  0
    9.8230    0.8520   22.4350 C   0  0  0  0  0  0  0  0  0  0  0  0
    9.5510   -0.4770   22.0150 C   0  0  0  0  0  0  0  0  0  0  0  0
    8.2150   -0.8490   21.7030 O   0  0  0  0  0  0  0  0  0  0  0  0
    7.7830   -0.6930   20.2960 C   0  0  0  0  0  0  0  0  0  0  0  0
    7.1440   -0.3910   19.0050 N   0  0  0  0  0  0  0  0  0  0  0  0
    5.9460    0.3540   18.5540 C   0  0  0  0  0  0  0  0  0  0  0  0
    5.0930    0.9940   19.5760 C   0  0  0  0  0  0  0  0  0  0  0  0
    5.7180    0.7010   20.9650 C   0  0  0  0  0  0  0  0  0  0  0  0
    4.9680    1.2770   22.1260 C   0  0  0  0  0  0  0  0  0  0  0  0
    6.8880   -0.0400   21.1690 C   0  0  0  0  0  0  0  0  0  0  0  0
    7.2380   -0.1640   22.4430 F   0  0  0  0  0  0  0  0  0  0  0  0
   10.6250   -1.4190   21.8770 C   0  0  0  0  0  0  0  0  0  0  0  0
   11.9640   -1.1330   22.0730 C   0  0  0  0  0  0  0  0  0  0  0  0
   12.9650   -2.0190   21.9110 F   0  0  0  0  0  0  0  0  0  0  0  0
   12.2110    0.3130   22.4470 C   0  0  0  0  0  0  0  0  0  0  0  0
   13.7590    0.9680   22.6130 Cl  0  0  0  0  0  0  0  0  0  0  0  0
   11.1310    1.3220   22.6590 C   0  0  0  0  0  0  0  0  0  0  0  0
  1  2  1  0
  2  3  1  0
  3  4  1  0
  4  5  2  0
  5  6  1  0
  6  7  1  0
  7  8  1  0
  8  9  1  0
  9 10  1  0
 10 11  2  0
 11 12  1  0
 12 13  2  0
 13 14  1  0
 14 15  1  0
 10 16  1  0
 14 16  2  0
 16 17  1  0
  8 18  2  0
 18 19  1  0
 19 20  1  0
 19 21  2  0
 21 22  1  0
  4 23  1  0
  7 23  2  0
 21 23  1  0
M  END
