BEN-BAS-c3742787-1-acrylamide
     RDKit          3D

 26 28  0  0  0  0  0  0  0  0999 V2000
    9.0400   -4.0240   20.4640 C   0  0  0  0  0  0  0  0  0  0  0  0
    7.8490   -4.6330   21.2820 C   0  0  0  0  0  0  0  0  0  0  0  0
    6.5070   -3.9280   20.9250 C   0  0  0  0  0  0  0  0  0  0  0  0
    5.3350   -4.4400   20.9890 O   0  0  0  0  0  0  0  0  0  0  0  0
    6.7160   -2.6300   20.5060 N   0  0  0  0  0  0  0  0  0  0  0  0
    5.5850   -1.7600   20.3310 C   0  0  0  0  0  0  0  0  0  0  0  0
    5.2420   -1.3110   21.7040 C   0  0  0  0  0  0  0  0  0  0  0  0
    6.1770   -1.3890   22.7010 N   0  0  0  0  0  0  0  0  0  0  0  0
    5.6740   -0.9600   23.9100 C   0  0  0  0  0  0  0  0  0  0  0  0
    5.3410    0.3410   24.0980 O   0  0  0  0  0  0  0  0  0  0  0  0
    5.5780   -2.0250   24.8670 C   0  0  0  0  0  0  0  0  0  0  0  0
    6.3910   -3.1050   24.4530 C   0  0  0  0  0  0  0  0  0  0  0  0
    7.7550   -2.7280   24.3180 C   0  0  0  0  0  0  0  0  0  0  0  0
    6.6640   -1.7090   24.8320 C   0  0  0  0  0  0  0  0  0  0  0  0
    5.1130   -2.1720   24.9990 C   0  0  0  0  0  0  0  0  0  0  0  0
    4.1620   -1.2450   25.4720 C   0  0  0  0  0  0  0  0  0  0  0  0
    2.8190   -1.6210   25.6280 C   0  0  0  0  0  0  0  0  0  0  0  0
    2.4210   -2.9350   25.3070 C   0  0  0  0  0  0  0  0  0  0  0  0
    1.0700   -3.3090   25.4640 C   0  0  0  0  0  0  0  0  0  0  0  0
    0.8140   -4.6650   24.9600 N   0  0  0  0  0  0  0  0  0  0  0  0
    0.1720   -2.6320   25.9550 O   0  0  0  0  0  0  0  0  0  0  0  0
    3.3520   -3.8850   24.8310 C   0  0  0  0  0  0  0  0  0  0  0  0
    4.6700   -3.5000   24.6860 C   0  0  0  0  0  0  0  0  0  0  0  0
    5.6920   -4.1920   24.2820 N   0  0  0  0  0  0  0  0  0  0  0  0
    7.4850   -1.0060   22.1590 C   0  0  0  0  0  0  0  0  0  0  0  0
    7.8950   -1.9060   21.0080 C   0  0  0  0  0  0  0  0  0  0  0  0
  1  2  1  0
  2  3  1  0
  3  4  2  0
  3  5  1  0
  5  6  1  0
  6  7  1  0
  7  8  1  0
  8  9  1  0
  9 10  2  0
  9 11  1  0
 11 12  1  0
 12 13  2  0
 13 14  1  0
 14 15  2  0
 15 16  1  0
 16 17  2  0
 17 18  1  0
 18 19  1  0
 19 20  1  0
 19 21  2  0
 18 22  2  0
 15 23  1  0
 22 23  1  0
 12 24  1  0
 23 24  2  0
  8 25  1  0
  5 26  1  0
 25 26  1  0
M  END
