BEN-VAN-d8fd1356-26
     RDKit          3D

 23 25  0  0  0  0  0  0  0  0999 V2000
   12.3670    5.4800   23.1070 C   0  0  0  0  0  0  0  0  0  0  0  0
   12.7610    4.0160   23.0700 C   0  0  0  0  0  0  0  0  0  0  0  0
   11.5390    3.0210   23.0380 C   0  0  0  0  0  0  0  0  0  0  0  0
   10.1630    3.5600   23.2910 C   0  0  0  0  0  0  0  0  0  0  0  0
    9.1850    2.6510   23.1740 N   0  0  0  0  0  0  0  0  0  0  0  0
    9.7640    1.4490   22.8470 C   0  0  0  0  0  0  0  0  0  0  0  0
    9.1410    0.0680   22.5320 C   0  0  0  0  0  0  0  0  0  0  0  0
    7.8280    0.0240   22.5280 O   0  0  0  0  0  0  0  0  0  0  0  0
    6.9480    0.1090   21.3230 C   0  0  0  0  0  0  0  0  0  0  0  0
    6.6240    1.4490   20.5110 C   0  0  0  0  0  0  0  0  0  0  0  0
    5.9780    1.0920   19.3130 C   0  0  0  0  0  0  0  0  0  0  0  0
    6.9100    0.2720   18.5740 N   0  0  0  0  0  0  0  0  0  0  0  0
    7.1660    0.3750   17.0940 C   0  0  0  0  0  0  0  0  0  0  0  0
    7.8010   -0.8570   16.3120 C   0  0  0  0  0  0  0  0  0  0  0  0
    6.9000    1.3800   16.4660 O   0  0  0  0  0  0  0  0  0  0  0  0
    7.0940   -0.8900   19.0890 C   0  0  0  0  0  0  0  0  0  0  0  0
    7.5480   -0.9180   20.4020 C   0  0  0  0  0  0  0  0  0  0  0  0
   10.0770   -1.0280   22.2690 C   0  0  0  0  0  0  0  0  0  0  0  0
   11.4880   -0.9650   22.2360 C   0  0  0  0  0  0  0  0  0  0  0  0
   12.2910   -2.0200   21.9740 F   0  0  0  0  0  0  0  0  0  0  0  0
   12.0730    0.4080   22.4870 C   0  0  0  0  0  0  0  0  0  0  0  0
   13.7510    0.7560   22.4180 Cl  0  0  0  0  0  0  0  0  0  0  0  0
   11.2770    1.6210   22.7910 C   0  0  0  0  0  0  0  0  0  0  0  0
  1  2  1  0
  2  3  1  0
  3  4  2  0
  4  5  1  0
  5  6  1  0
  6  7  1  0
  7  8  1  0
  8  9  1  0
  9 10  1  0
 10 11  1  0
 11 12  1  0
 12 13  1  0
 13 14  1  0
 13 15  2  0
 12 16  1  0
  9 17  1  0
 16 17  1  0
  7 18  2  0
 18 19  1  0
 19 20  1  0
 19 21  2  0
 21 22  1  0
  3 23  1  0
  6 23  2  0
 21 23  1  0
M  END
