BEN-VAN-d8fd1356-29
     RDKit          3D

 25 27  0  0  0  0  0  0  0  0999 V2000
   12.1130    6.1360   24.4440 C   0  0  0  0  0  0  0  0  0  0  0  0
   12.1460    5.4240   23.0900 C   0  0  0  0  0  0  0  0  0  0  0  0
   12.6630    3.9540   23.0400 C   0  0  0  0  0  0  0  0  0  0  0  0
   11.5130    2.9120   23.0430 C   0  0  0  0  0  0  0  0  0  0  0  0
   10.1350    3.4320   23.3490 C   0  0  0  0  0  0  0  0  0  0  0  0
    9.4960    4.9560   23.7600 Cl  0  0  0  0  0  0  0  0  0  0  0  0
    9.2620    2.3920   23.2240 N   0  0  0  0  0  0  0  0  0  0  0  0
    9.8710    1.2130   22.8810 C   0  0  0  0  0  0  0  0  0  0  0  0
    9.2970   -0.0460   22.6220 C   0  0  0  0  0  0  0  0  0  0  0  0
    7.8490   -0.0780   22.6380 O   0  0  0  0  0  0  0  0  0  0  0  0
    7.1870    0.3640   21.3840 C   0  0  0  0  0  0  0  0  0  0  0  0
    5.8040    0.4350   21.2180 C   0  0  0  0  0  0  0  0  0  0  0  0
    5.4900    0.8030   19.7340 C   0  0  0  0  0  0  0  0  0  0  0  0
    6.5630    0.4140   18.8370 N   0  0  0  0  0  0  0  0  0  0  0  0
    6.5110    0.7790   17.4260 C   0  0  0  0  0  0  0  0  0  0  0  0
    7.4230    0.0520   16.4540 C   0  0  0  0  0  0  0  0  0  0  0  0
    5.7470    1.6410   17.0720 O   0  0  0  0  0  0  0  0  0  0  0  0
    7.1120   -0.7140   19.1250 C   0  0  0  0  0  0  0  0  0  0  0  0
    7.6020   -0.7640   20.4660 C   0  0  0  0  0  0  0  0  0  0  0  0
   10.2270   -1.1320   22.3380 C   0  0  0  0  0  0  0  0  0  0  0  0
   11.7530   -0.9280   22.2690 C   0  0  0  0  0  0  0  0  0  0  0  0
   12.6380   -1.9080   21.9910 F   0  0  0  0  0  0  0  0  0  0  0  0
   12.2340    0.4960   22.4990 C   0  0  0  0  0  0  0  0  0  0  0  0
   13.8030    0.9750   22.3850 Cl  0  0  0  0  0  0  0  0  0  0  0  0
   11.3710    1.5060   22.7960 C   0  0  0  0  0  0  0  0  0  0  0  0
  1  2  1  0
  2  3  1  0
  3  4  1  0
  4  5  2  0
  5  6  1  0
  5  7  1  0
  7  8  1  0
  8  9  1  0
  9 10  1  0
 10 11  1  0
 11 12  1  0
 12 13  1  0
 13 14  1  0
 14 15  1  0
 15 16  1  0
 15 17  2  0
 14 18  1  0
 11 19  1  0
 18 19  1  0
  9 20  2  0
 20 21  1  0
 21 22  1  0
 21 23  2  0
 23 24  1  0
  4 25  1  0
  8 25  2  0
 23 25  1  0
M  END
