BER-UNK-c44c38d5-1
     RDKit          3D

 29 33  0  0  0  0  0  0  0  0999 V2000
    5.7930   -3.0340   28.1350 C   0  0  0  0  0  0  0  0  0  0  0  0
    6.1550   -4.2600   27.4260 N   0  0  0  0  0  0  0  0  0  0  0  0
    5.2870   -4.5160   26.2370 C   0  0  0  0  0  0  0  0  0  0  0  0
    4.0080   -5.3280   26.3180 C   0  0  0  0  0  0  0  0  0  0  0  0
    3.1900   -5.5900   25.0460 C   0  0  0  0  0  0  0  0  0  0  0  0
    3.7230   -5.0260   23.7230 C   0  0  0  0  0  0  0  0  0  0  0  0
    4.9950   -4.2370   23.7550 C   0  0  0  0  0  0  0  0  0  0  0  0
    5.6480   -3.6580   22.5010 C   0  0  0  0  0  0  0  0  0  0  0  0
    5.8040   -4.5670   21.4980 N   0  0  0  0  0  0  0  0  0  0  0  0
    6.0950   -2.3620   22.4000 O   0  0  0  0  0  0  0  0  0  0  0  0
    5.6290   -4.0320   24.9470 C   0  0  0  0  0  0  0  0  0  0  0  0
    6.6900   -3.2640   24.6720 N   0  0  0  0  0  0  0  0  0  0  0  0
    7.5240   -3.3150   25.5860 C   0  0  0  0  0  0  0  0  0  0  0  0
    8.4240   -2.7630   24.8670 C   0  0  0  0  0  0  0  0  0  0  0  0
    9.5930   -3.2710   25.0450 C   0  0  0  0  0  0  0  0  0  0  0  0
    9.8420   -4.1930   26.0980 C   0  0  0  0  0  0  0  0  0  0  0  0
    8.8560   -4.6890   26.9580 C   0  0  0  0  0  0  0  0  0  0  0  0
    9.0370   -5.5420   27.9580 C   0  0  0  0  0  0  0  0  0  0  0  0
    7.9410   -6.4380   28.2390 N   0  0  0  0  0  0  0  0  0  0  0  0
   10.1120   -5.4450   28.4610 O   0  0  0  0  0  0  0  0  0  0  0  0
    7.4750   -4.1150   26.7660 C   0  0  0  0  0  0  0  0  0  0  0  0
   11.2020   -4.4510   26.3390 N   0  0  0  0  0  0  0  0  0  0  0  0
   11.9630   -3.6130   25.6150 C   0  0  0  0  0  0  0  0  0  0  0  0
   13.3650   -3.5650   26.1090 C   0  0  0  0  0  0  0  0  0  0  0  0
   14.1810   -2.5780   25.3610 C   0  0  0  0  0  0  0  0  0  0  0  0
   13.6300   -1.7430   24.1840 C   0  0  0  0  0  0  0  0  0  0  0  0
   12.2420   -1.8820   23.7550 C   0  0  0  0  0  0  0  0  0  0  0  0
   11.5180   -2.8500   24.5820 C   0  0  0  0  0  0  0  0  0  0  0  0
   10.3260   -2.9020   24.2280 O   0  0  0  0  0  0  0  0  0  0  0  0
  1  2  1  0
  2  3  1  0
  3  4  1  0
  4  5  2  0
  5  6  1  0
  6  7  2  0
  7  8  1  0
  8  9  1  0
  8 10  2  0
  3 11  2  0
  7 11  1  0
 11 12  1  0
 12 13  2  0
 13 14  1  0
 14 15  2  0
 15 16  1  0
 16 17  1  0
 17 18  1  0
 18 19  1  0
 18 20  2  0
  2 21  1  0
 13 21  1  0
 17 21  2  0
 16 22  2  0
 22 23  1  0
 23 24  2  0
 24 25  1  0
 25 26  2  0
 26 27  1  0
 23 28  1  0
 27 28  2  0
 15 29  1  0
 28 29  1  0
M  END
