BER-UNK-c44c38d5-2
     RDKit          3D

 30 34  0  0  0  0  0  0  0  0999 V2000
    9.0070    0.8930   21.8810 C   0  0  0  0  0  0  0  0  0  0  0  0
    9.3840   -0.4690   22.1920 N   0  0  0  0  0  0  0  0  0  0  0  0
   10.8380   -0.6890   21.9690 C   0  0  0  0  0  0  0  0  0  0  0  0
   12.3950   -1.0680   22.1510 C   0  0  0  0  0  0  0  0  0  0  0  0
   13.2070   -1.6270   23.3420 C   0  0  0  0  0  0  0  0  0  0  0  0
   12.5420   -1.8980   24.6640 C   0  0  0  0  0  0  0  0  0  0  0  0
   11.1490   -1.5330   24.5480 C   0  0  0  0  0  0  0  0  0  0  0  0
   10.0780   -1.6040   25.5810 C   0  0  0  0  0  0  0  0  0  0  0  0
    9.2470   -0.5850   25.9670 O   0  0  0  0  0  0  0  0  0  0  0  0
   10.0110   -2.8440   26.1130 O   0  0  0  0  0  0  0  0  0  0  0  0
   11.0740   -1.1370   23.2820 C   0  0  0  0  0  0  0  0  0  0  0  0
    9.8120   -0.9380   23.8770 N   0  0  0  0  0  0  0  0  0  0  0  0
    8.5430   -1.0900   23.2910 C   0  0  0  0  0  0  0  0  0  0  0  0
    7.5280   -0.7310   24.1630 C   0  0  0  0  0  0  0  0  0  0  0  0
    6.6030   -1.6730   24.3520 C   0  0  0  0  0  0  0  0  0  0  0  0
    6.9070   -2.7680   23.6010 C   0  0  0  0  0  0  0  0  0  0  0  0
    6.9950   -4.0010   24.0950 C   0  0  0  0  0  0  0  0  0  0  0  0
    6.8880   -4.2640   25.4490 C   0  0  0  0  0  0  0  0  0  0  0  0
    8.1600   -4.3590   26.0490 C   0  0  0  0  0  0  0  0  0  0  0  0
    8.4080   -4.6020   27.4200 C   0  0  0  0  0  0  0  0  0  0  0  0
    7.2130   -4.7790   28.3620 C   0  0  0  0  0  0  0  0  0  0  0  0
    5.8340   -4.6760   27.7000 C   0  0  0  0  0  0  0  0  0  0  0  0
    5.7120   -4.4110   26.1930 C   0  0  0  0  0  0  0  0  0  0  0  0
    7.2990   -4.9970   23.0750 C   0  0  0  0  0  0  0  0  0  0  0  0
    7.5490   -6.1340   23.3420 O   0  0  0  0  0  0  0  0  0  0  0  0
    7.2980   -4.5550   21.7760 N   0  0  0  0  0  0  0  0  0  0  0  0
    6.5150   -3.5490   21.1890 C   0  0  0  0  0  0  0  0  0  0  0  0
    6.0900   -4.5110   20.5390 O   0  0  0  0  0  0  0  0  0  0  0  0
    7.2680   -2.6090   22.1860 C   0  0  0  0  0  0  0  0  0  0  0  0
    8.4120   -1.5040   21.8790 C   0  0  0  0  0  0  0  0  0  0  0  0
  1  2  1  0
  2  3  1  0
  3  4  2  0
  4  5  1  0
  5  6  2  0
  6  7  1  0
  7  8  1  0
  8  9  2  0
  8 10  1  0
  3 11  1  0
  7 11  2  0
 11 12  1  0
 12 13  2  0
 13 14  1  0
 14 15  2  0
 15 16  1  0
 16 17  2  0
 17 18  1  0
 18 19  2  0
 19 20  1  0
 20 21  2  0
 21 22  1  0
 18 23  1  0
 22 23  2  0
 17 24  1  0
 24 25  2  0
 24 26  1  0
 26 27  1  0
 27 28  2  0
 16 29  1  0
 27 29  1  0
  2 30  1  0
 13 30  1  0
 29 30  2  0
M  END
