BOG-INS-da52c1c2-1-vinylsulfonamide
     RDKit          3D

 32 35  0  0  0  0  0  0  0  0999 V2000
    7.3660   -3.5850   19.9880 C   0  0  0  0  0  0  0  0  0  0  0  0
    6.0880   -3.0750   20.6360 C   0  0  0  0  0  0  0  0  0  0  0  0
    5.9100   -3.7280   22.2770 S   0  0  0  0  0  0  0  0  0  0  0  0
    4.5770   -4.3040   22.3280 O   0  0  0  0  0  0  0  0  0  0  0  0
    7.0730   -4.5290   22.6590 O   0  0  0  0  0  0  0  0  0  0  0  0
    5.9070   -2.3690   23.2880 N   0  0  0  0  0  0  0  0  0  0  0  0
    5.2430   -2.4960   24.5810 C   0  0  0  0  0  0  0  0  0  0  0  0
    4.3870   -1.4320   24.8250 C   0  0  0  0  0  0  0  0  0  0  0  0
    4.6880   -0.2540   24.5950 O   0  0  0  0  0  0  0  0  0  0  0  0
    5.8100   -0.0660   23.6890 C   0  0  1  0  0  0  0  0  0  0  0  0
    6.9500   -0.0140   24.5130 C   0  0  0  0  0  0  0  0  0  0  0  0
    6.6900   -0.2620   25.9900 C   0  0  0  0  0  0  0  0  0  0  0  0
    7.8520   -0.2340   26.9860 C   0  0  0  0  0  0  0  0  0  0  0  0
    7.6450   -0.4490   28.2950 F   0  0  0  0  0  0  0  0  0  0  0  0
    9.2490    0.0460   26.4260 C   0  0  0  0  0  0  0  0  0  0  0  0
    9.4870    0.2940   24.9360 C   0  0  0  0  0  0  0  0  0  0  0  0
    8.2340    0.2420   24.0480 C   0  0  0  0  0  0  0  0  0  0  0  0
    8.8580    0.5090   22.8420 N   0  0  0  0  0  0  0  0  0  0  0  0
    8.2480    1.2050   21.8230 C   0  0  0  0  0  0  0  0  0  0  0  0
   10.2990    0.3380   23.0160 C   0  0  0  0  0  0  0  0  0  0  0  0
   11.1690    0.0510   22.2350 O   0  0  0  0  0  0  0  0  0  0  0  0
   10.7400    0.5560   24.3630 C   0  0  2  0  0  0  0  0  0  0  0  0
   11.7400   -0.5980   24.6760 C   0  0  0  0  0  0  0  0  0  0  0  0
   12.4200   -1.0340   23.3720 C   0  0  0  0  0  0  0  0  0  0  0  0
   12.4240   -2.4500   23.1140 C   0  0  0  0  0  0  0  0  0  0  0  0
   13.0290   -2.8490   21.9200 C   0  0  0  0  0  0  0  0  0  0  0  0
   13.1900   -4.0460   21.4490 O   0  0  0  0  0  0  0  0  0  0  0  0
   13.5510   -2.1060   21.0640 C   0  0  0  0  0  0  0  0  0  0  0  0
   13.5970   -0.8730   21.2100 C   0  0  0  0  0  0  0  0  0  0  0  0
   14.2130   -0.3690   20.1250 F   0  0  0  0  0  0  0  0  0  0  0  0
   13.0100   -0.1790   22.4500 C   0  0  0  0  0  0  0  0  0  0  0  0
    5.8020   -1.0500   22.6810 C   0  0  0  0  0  0  0  0  0  0  0  0
  1  2  1  0
  3  2  1  0
  3  4  2  0
  3  5  2  0
  3  6  1  0
  6  7  1  0
  7  8  1  0
  8  9  1  0
  9 10  1  0
 10 11  1  1
 11 12  2  0
 12 13  1  0
 13 14  1  0
 13 15  2  0
 15 16  1  0
 11 17  1  0
 16 17  2  0
 17 18  1  0
 18 19  1  0
 18 20  1  0
 20 21  2  0
 16 22  1  0
 20 22  1  0
 22 23  1  1
 23 24  1  0
 24 25  2  0
 25 26  1  0
 26 27  1  0
 26 28  2  0
 28 29  1  0
 29 30  1  0
 24 31  1  0
 29 31  2  0
  6 32  1  0
 10 32  1  0
M  END
