BOG-INS-177e97e6-1-nitrile
     RDKit          3D

 34 38  0  0  0  0  0  0  0  0999 V2000
    6.7680   -3.5790   19.8820 C   0  0  0  0  0  0  0  0  0  0  0  0
    5.7670   -3.3090   19.1370 N   0  0  0  0  0  0  0  0  0  0  0  0
    6.8140   -3.1810   21.2080 N   0  0  0  0  0  0  0  0  0  0  0  0
    6.2920   -3.9470   22.1820 C   0  0  0  0  0  0  0  0  0  0  0  0
    7.2820   -4.2600   23.1160 C   0  0  0  0  0  0  0  0  0  0  0  0
    7.9360   -3.3270   23.5850 O   0  0  0  0  0  0  0  0  0  0  0  0
    8.4810   -2.4750   22.5770 C   0  0  2  0  0  0  0  0  0  0  0  0
    9.5010   -1.5950   22.9140 C   0  0  0  0  0  0  0  0  0  0  0  0
   10.7170   -1.8460   22.2670 C   0  0  0  0  0  0  0  0  0  0  0  0
   11.9430   -1.0020   22.4800 C   0  0  0  0  0  0  0  0  0  0  0  0
   13.2180   -1.3310   21.7540 C   0  0  0  0  0  0  0  0  0  0  0  0
   11.8630    0.1620   23.4260 C   0  0  0  0  0  0  0  0  0  0  0  0
   12.9020    0.9410   23.6490 F   0  0  0  0  0  0  0  0  0  0  0  0
   10.5360    0.3920   24.1100 C   0  0  0  0  0  0  0  0  0  0  0  0
    9.3530   -0.5130   23.8330 C   0  0  0  0  0  0  0  0  0  0  0  0
    8.2410   -0.0650   24.5830 C   0  0  0  0  0  0  0  0  0  0  0  0
    7.7870    1.2840   24.0620 C   0  0  0  0  0  0  0  0  0  0  0  0
    8.4420    1.8550   23.0040 F   0  0  0  0  0  0  0  0  0  0  0  0
    6.6590    1.9030   24.7360 C   0  0  0  0  0  0  0  0  0  0  0  0
    5.9520    1.2260   25.9330 C   0  0  0  0  0  0  0  0  0  0  0  0
    6.5020   -0.1380   26.3720 C   0  0  0  0  0  0  0  0  0  0  0  0
    7.6250   -0.7190   25.6640 C   0  0  0  0  0  0  0  0  0  0  0  0
    8.0290   -1.9600   26.1480 C   0  0  0  0  0  0  0  0  0  0  0  0
    6.8790   -2.4870   26.7240 C   0  0  1  0  0  0  0  0  0  0  0  0
    7.0600   -3.8490   26.7330 C   0  0  0  0  0  0  0  0  0  0  0  0
    6.4610   -4.6020   25.9710 O   0  0  0  0  0  0  0  0  0  0  0  0
    8.0250   -4.4860   27.7510 C   0  0  1  0  0  0  0  0  0  0  0  0
    8.1770   -5.8100   27.6510 C   0  0  0  0  0  0  0  0  0  0  0  0
    9.2740   -4.9600   27.2560 C   0  0  2  0  0  0  0  0  0  0  0  0
   10.3350   -4.8180   28.1970 O   0  0  0  0  0  0  0  0  0  0  0  0
    6.5940   -1.9040   27.9080 N   0  0  0  0  0  0  0  0  0  0  0  0
    7.7090   -1.6150   28.6630 C   0  0  0  0  0  0  0  0  0  0  0  0
    5.8440   -0.8300   27.5460 C   0  0  0  0  0  0  0  0  0  0  0  0
    7.5060   -2.0740   21.6710 C   0  0  0  0  0  0  0  0  0  0  0  0
  1  2  2  3
  1  3  1  0
  3  4  1  0
  4  5  1  0
  5  6  1  0
  6  7  1  0
  7  8  1  1
  8  9  2  0
  9 10  1  0
 10 11  1  0
 10 12  2  0
 12 13  1  0
 12 14  1  0
  8 15  1  0
 14 15  2  0
 15 16  1  0
 16 17  2  0
 17 18  1  0
 17 19  1  0
 19 20  2  0
 20 21  1  0
 16 22  1  0
 21 22  2  0
 22 23  1  0
 23 24  1  0
 24 25  1  1
 25 26  2  0
 27 25  1  6
 27 28  1  0
 27 29  1  0
 28 29  1  0
 29 30  1  1
 24 31  1  0
 31 32  1  0
 21 33  1  0
 31 33  1  0
  3 34  1  0
  7 34  1  0
M  END
