BOG-INS-29936cf2-1-acrylamide
     RDKit          3D

 33 38  0  0  0  0  0  0  0  0999 V2000
    7.8660   -3.4870   19.9840 C   0  0  0  0  0  0  0  0  0  0  0  0
    6.5900   -2.8160   19.5560 C   0  0  0  0  0  0  0  0  0  0  0  0
    5.5420   -3.6230   20.2510 C   0  0  0  0  0  0  0  0  0  0  0  0
    5.0650   -4.5870   19.6980 O   0  0  0  0  0  0  0  0  0  0  0  0
    5.1740   -3.2630   21.5440 N   0  0  0  0  0  0  0  0  0  0  0  0
    5.6250   -2.1100   22.0820 C   0  0  0  0  0  0  0  0  0  0  0  0
    6.6790   -2.1640   22.9970 C   0  0  0  0  0  0  0  0  0  0  0  0
    6.7010   -3.0430   24.0930 N   0  0  0  0  0  0  0  0  0  0  0  0
    8.0050   -3.3440   24.6990 C   0  0  0  0  0  0  0  0  0  0  0  0
    8.9670   -2.1650   24.5910 C   0  0  0  0  0  0  0  0  0  0  0  0
   10.3690   -2.3700   24.4590 C   0  0  0  0  0  0  0  0  0  0  0  0
   11.2630   -1.2070   24.3510 C   0  0  0  0  0  0  0  0  0  0  0  0
   11.7540    0.2450   24.2770 C   0  0  0  0  0  0  0  0  0  0  0  0
   12.4490    0.6390   22.9660 C   0  0  0  0  0  0  0  0  0  0  0  0
   12.4880    2.0300   22.7400 C   0  0  0  0  0  0  0  0  0  0  0  0
   11.2470    2.7810   23.1970 C   0  0  0  0  0  0  0  0  0  0  0  0
   11.2710    4.2410   22.9670 C   0  0  0  0  0  0  0  0  0  0  0  0
   12.5510    4.8100   22.2910 C   0  0  0  0  0  0  0  0  0  0  0  0
   12.6130    6.1280   22.0670 F   0  0  0  0  0  0  0  0  0  0  0  0
   13.7270    3.9420   21.8770 C   0  0  0  0  0  0  0  0  0  0  0  0
   13.5940    2.5670   22.1490 C   0  0  0  0  0  0  0  0  0  0  0  0
   14.7280    1.7960   21.7480 O   0  0  0  0  0  0  0  0  0  0  0  0
   10.0020   -0.4400   24.4610 C   0  0  0  0  0  0  0  0  0  0  0  0
   10.1160    1.0060   24.4350 C   0  0  0  0  0  0  0  0  0  0  0  0
    8.9760    1.8710   24.4790 C   0  0  0  0  0  0  0  0  0  0  0  0
    7.5820    1.2470   24.5490 C   0  0  0  0  0  0  0  0  0  0  0  0
    8.7900    0.3850   24.5560 C   0  0  0  0  0  0  0  0  0  0  0  0
    8.6280   -0.9070   24.5990 N   0  0  0  0  0  0  0  0  0  0  0  0
    8.5280   -4.5320   24.6440 C   0  0  0  0  0  0  0  0  0  0  0  0
    7.9960   -4.4320   25.8510 C   0  0  0  0  0  0  0  0  0  0  0  0
    5.8660   -4.1410   23.9430 C   0  0  1  0  0  0  0  0  0  0  0  0
    4.5790   -3.9790   23.7540 C   0  0  0  0  0  0  0  0  0  0  0  0
    4.9920   -4.2730   22.5500 C   0  0  1  0  0  0  0  0  0  0  0  0
  1  2  1  0
  2  3  1  0
  3  4  2  0
  3  5  1  0
  5  6  1  0
  6  7  1  0
  7  8  1  0
  8  9  1  0
  9 10  1  0
 10 11  2  0
 11 12  1  0
 12 13  1  0
 13 14  3  0
 14 15  1  0
 15 16  2  0
 16 17  1  0
 17 18  2  0
 18 19  1  0
 18 20  1  0
 15 21  1  0
 20 21  2  0
 21 22  1  0
 12 23  2  0
 23 24  1  0
 24 25  2  0
 25 26  1  0
 26 27  2  0
 10 28  1  0
 23 28  1  0
 27 28  1  0
  9 29  1  0
  9 30  1  0
 29 30  1  0
  8 31  1  0
 31 32  1  1
  5 33  1  0
 31 33  1  0
 33 32  1  1
M  END
