BOG-INS-01af3fef-1-vinylsulfonamide
     RDKit          3D

 34 38  0  0  0  0  0  0  0  0999 V2000
    7.1910   -4.9550   20.5280 C   0  0  0  0  0  0  0  0  0  0  0  0
    5.7330   -4.7330   20.4030 C   0  0  0  0  0  0  0  0  0  0  0  0
    5.5500   -3.0060   20.4580 S   0  0  0  0  0  0  0  0  0  0  0  0
    4.5410   -2.8770   21.4420 O   0  0  0  0  0  0  0  0  0  0  0  0
    5.6220   -2.3920   19.1390 O   0  0  0  0  0  0  0  0  0  0  0  0
    6.7890   -2.5580   21.4030 N   0  0  0  0  0  0  0  0  0  0  0  0
    7.5810   -1.3860   21.1350 C   0  0  0  0  0  0  0  0  0  0  0  0
    8.6920   -1.4910   21.9360 C   0  0  0  0  0  0  0  0  0  0  0  0
    8.4690   -1.8550   23.2390 N   0  0  0  0  0  0  0  0  0  0  0  0
    9.7380   -2.0450   23.9330 C   0  0  0  0  0  0  0  0  0  0  0  0
   10.6210   -1.0310   23.6410 C   0  0  0  0  0  0  0  0  0  0  0  0
   11.9160   -1.5550   23.0390 C   0  0  0  0  0  0  0  0  0  0  0  0
   12.9680   -0.5430   22.6950 C   0  0  0  0  0  0  0  0  0  0  0  0
   12.6940    0.9170   22.9490 C   0  0  0  0  0  0  0  0  0  0  0  0
   11.3350    1.2730   23.5430 C   0  0  0  0  0  0  0  0  0  0  0  0
   11.0650    2.7490   23.7790 C   0  0  0  0  0  0  0  0  0  0  0  0
    9.8320    3.0870   24.3150 C   0  0  0  0  0  0  0  0  0  0  0  0
    9.5530    4.5740   24.5540 C   0  0  1  0  0  0  0  0  0  0  0  0
   10.7550    5.1240   24.7600 C   0  0  0  0  0  0  0  0  0  0  0  0
    9.7800    5.6920   23.6510 C   0  0  2  0  0  0  0  0  0  0  0  0
    9.0530    6.8780   23.8570 N   0  0  0  0  0  0  0  0  0  0  0  0
    8.8720    2.1090   24.6300 C   0  0  0  0  0  0  0  0  0  0  0  0
    7.6880    2.4960   25.1430 N   0  0  0  0  0  0  0  0  0  0  0  0
    6.5490    2.5680   24.2270 C   0  0  0  0  0  0  0  0  0  0  0  0
    5.4640    3.1050   24.8870 C   0  0  0  0  0  0  0  0  0  0  0  0
    4.9940    2.4440   25.9740 N   0  0  0  0  0  0  0  0  0  0  0  0
    3.7070    2.0240   25.9030 C   0  0  0  0  0  0  0  0  0  0  0  0
    5.8890    1.5380   26.4490 C   0  0  0  0  0  0  0  0  0  0  0  0
    7.3710    1.9900   26.3580 C   0  0  0  0  0  0  0  0  0  0  0  0
    9.1400    0.7550   24.4090 N   0  0  0  0  0  0  0  0  0  0  0  0
   10.3380    0.3340   23.8760 C   0  0  0  0  0  0  0  0  0  0  0  0
    7.6960   -2.9470   23.4250 C   0  0  0  0  0  0  0  0  0  0  0  0
    6.4470   -2.7760   22.7770 C   0  0  1  0  0  0  0  0  0  0  0  0
    5.6580   -1.7720   23.2050 C   0  0  0  0  0  0  0  0  0  0  0  0
  1  2  1  0
  3  2  1  0
  3  4  2  0
  3  5  2  0
  3  6  1  0
  6  7  1  0
  7  8  1  0
  8  9  1  0
  9 10  1  0
 10 11  1  0
 11 12  2  0
 12 13  1  0
 13 14  2  0
 14 15  1  0
 15 16  1  0
 16 17  2  0
 18 17  1  6
 18 19  1  0
 18 20  1  0
 19 20  1  0
 20 21  1  1
 17 22  1  0
 22 23  1  0
 23 24  1  0
 24 25  1  0
 25 26  1  0
 26 27  1  0
 26 28  1  0
 23 29  1  0
 28 29  1  0
 22 30  2  0
 11 31  1  0
 15 31  2  0
 30 31  1  0
  9 32  1  0
  6 33  1  0
 32 33  1  0
 33 34  1  1
M  END
