BOG-INS-29936cf2-1-chloroacetamide
     RDKit          3D

 32 37  0  0  0  0  0  0  0  0999 V2000
    6.8300   -3.1470   19.2280 C   0  0  0  0  0  0  0  0  0  0  0  0
    5.9680   -3.8540   20.2530 C   0  0  0  0  0  0  0  0  0  0  0  0
    5.2310   -4.7730   19.9390 O   0  0  0  0  0  0  0  0  0  0  0  0
    6.0300   -3.4220   21.5920 N   0  0  0  0  0  0  0  0  0  0  0  0
    6.1670   -4.3500   22.7270 C   0  0  0  0  0  0  0  0  0  0  0  0
    7.4450   -4.3510   23.2890 C   0  0  0  0  0  0  0  0  0  0  0  0
    7.7530   -3.1700   23.8960 N   0  0  0  0  0  0  0  0  0  0  0  0
    9.0870   -3.2040   24.5920 C   0  0  0  0  0  0  0  0  0  0  0  0
    9.9760   -2.1660   24.2210 C   0  0  0  0  0  0  0  0  0  0  0  0
   11.3180   -2.4510   23.6660 C   0  0  0  0  0  0  0  0  0  0  0  0
   11.8450   -1.1370   23.4580 C   0  0  0  0  0  0  0  0  0  0  0  0
   13.2550   -0.8980   22.8960 C   0  0  0  0  0  0  0  0  0  0  0  0
   13.4190   -0.9170   21.3570 C   0  0  0  0  0  0  0  0  0  0  0  0
   14.1990    0.3410   20.7910 C   0  0  0  0  0  0  0  0  0  0  0  0
   15.0070    0.2860   19.4340 C   0  0  0  0  0  0  0  0  0  0  0  0
   15.8170    1.6330   18.9510 C   0  0  0  0  0  0  0  0  0  0  0  0
   15.6820    2.9040   19.8810 C   0  0  0  0  0  0  0  0  0  0  0  0
   16.2960    4.1130   19.5300 F   0  0  0  0  0  0  0  0  0  0  0  0
   14.8690    2.8140   21.2420 C   0  0  0  0  0  0  0  0  0  0  0  0
   14.1860    1.4800   21.5990 C   0  0  0  0  0  0  0  0  0  0  0  0
   13.5110    1.4800   22.8540 O   0  0  0  0  0  0  0  0  0  0  0  0
   10.8890   -0.2050   23.8600 C   0  0  0  0  0  0  0  0  0  0  0  0
   10.8960    1.2480   23.9090 C   0  0  0  0  0  0  0  0  0  0  0  0
    9.6880    2.0430   23.9910 C   0  0  0  0  0  0  0  0  0  0  0  0
    8.5510    1.2980   23.9630 C   0  0  0  0  0  0  0  0  0  0  0  0
    9.7960    0.5540   24.2820 C   0  0  0  0  0  0  0  0  0  0  0  0
    9.6770   -0.7440   24.3390 N   0  0  0  0  0  0  0  0  0  0  0  0
    9.2250   -3.6890   25.7830 C   0  0  0  0  0  0  0  0  0  0  0  0
    9.7610   -4.5420   25.0680 C   0  0  0  0  0  0  0  0  0  0  0  0
    7.4660   -1.9210   23.1840 C   0  0  1  0  0  0  0  0  0  0  0  0
    7.7500   -1.7690   21.9610 C   0  0  0  0  0  0  0  0  0  0  0  0
    6.4860   -2.0790   21.8820 C   0  0  1  0  0  0  0  0  0  0  0  0
  1  2  1  0
  2  3  2  0
  2  4  1  0
  4  5  1  0
  5  6  1  0
  6  7  1  0
  7  8  1  0
  8  9  1  0
  9 10  2  0
 10 11  1  0
 11 12  1  0
 12 13  3  0
 13 14  1  0
 14 15  2  0
 15 16  1  0
 16 17  2  0
 17 18  1  0
 17 19  1  0
 14 20  1  0
 19 20  2  0
 20 21  1  0
 11 22  2  0
 22 23  1  0
 23 24  2  0
 24 25  1  0
 25 26  2  0
  9 27  1  0
 22 27  1  0
 26 27  1  0
  8 28  1  0
  8 29  1  0
 28 29  1  0
  7 30  1  0
 30 31  1  6
  4 32  1  0
 30 32  1  0
 32 31  1  6
M  END
