BOG-INS-29936cf2-1-vinylsulfonamide
     RDKit          3D

 34 39  0  0  0  0  0  0  0  0999 V2000
    6.2360   -5.8450   19.8570 C   0  0  0  0  0  0  0  0  0  0  0  0
    6.1080   -5.9240   21.3480 C   0  0  0  0  0  0  0  0  0  0  0  0
    5.2840   -4.4240   21.4860 S   0  0  0  0  0  0  0  0  0  0  0  0
    4.2850   -4.4590   22.5350 O   0  0  0  0  0  0  0  0  0  0  0  0
    4.8980   -4.1330   20.1070 O   0  0  0  0  0  0  0  0  0  0  0  0
    6.4530   -3.2960   21.7380 N   0  0  0  0  0  0  0  0  0  0  0  0
    7.7590   -3.7120   22.2920 C   0  0  0  0  0  0  0  0  0  0  0  0
    8.8130   -2.8720   21.9220 C   0  0  0  0  0  0  0  0  0  0  0  0
    8.4840   -1.5990   21.5720 N   0  0  0  0  0  0  0  0  0  0  0  0
    7.9180   -0.8400   22.7210 C   0  0  0  0  0  0  0  0  0  0  0  0
    8.0010    0.5400   22.5430 C   0  0  0  0  0  0  0  0  0  0  0  0
    9.2880    1.2080   22.6550 C   0  0  0  0  0  0  0  0  0  0  0  0
    8.9760    2.6010   22.4300 C   0  0  0  0  0  0  0  0  0  0  0  0
   10.1100    3.5900   22.5020 C   0  0  0  0  0  0  0  0  0  0  0  0
   10.9560    3.2000   23.7150 C   0  0  0  0  0  0  0  0  0  0  0  0
   11.2710    1.6980   23.8260 C   0  0  0  0  0  0  0  0  0  0  0  0
   10.3610    0.8440   24.4500 C   0  0  0  0  0  0  0  0  0  0  0  0
   10.6280   -0.6530   24.5840 C   0  0  0  0  0  0  0  0  0  0  0  0
   11.8610   -1.2400   24.0540 C   0  0  0  0  0  0  0  0  0  0  0  0
   12.0160   -2.6300   24.2270 F   0  0  0  0  0  0  0  0  0  0  0  0
   12.8440   -0.2680   23.3690 C   0  0  0  0  0  0  0  0  0  0  0  0
   12.4440    1.2010   23.3120 C   0  0  0  0  0  0  0  0  0  0  0  0
   13.3340    2.0030   22.7160 O   0  0  0  0  0  0  0  0  0  0  0  0
    7.6130    2.8000   22.1800 C   0  0  0  0  0  0  0  0  0  0  0  0
    6.8840    3.9450   21.9130 C   0  0  0  0  0  0  0  0  0  0  0  0
    5.5180    3.8650   21.7040 C   0  0  0  0  0  0  0  0  0  0  0  0
    4.9030    2.6360   21.7650 C   0  0  0  0  0  0  0  0  0  0  0  0
    5.6690    1.3290   22.0580 C   0  0  0  0  0  0  0  0  0  0  0  0
    7.0120    1.5420   22.2480 N   0  0  0  0  0  0  0  0  0  0  0  0
    7.9680   -1.2750   23.9420 C   0  0  0  0  0  0  0  0  0  0  0  0
    6.7560   -1.3510   23.6440 C   0  0  0  0  0  0  0  0  0  0  0  0
    7.6420   -1.4490   20.4000 C   0  0  2  0  0  0  0  0  0  0  0  0
    6.3920   -1.2860   20.4500 C   0  0  0  0  0  0  0  0  0  0  0  0
    6.4970   -2.5680   20.4950 C   0  0  2  0  0  0  0  0  0  0  0  0
  1  2  1  0
  3  2  1  0
  3  4  2  0
  3  5  2  0
  3  6  1  0
  6  7  1  0
  7  8  1  0
  8  9  1  0
  9 10  1  0
 10 11  1  0
 11 12  2  0
 12 13  1  0
 13 14  1  0
 14 15  3  0
 15 16  1  0
 16 17  2  0
 17 18  1  0
 18 19  2  0
 19 20  1  0
 19 21  1  0
 16 22  1  0
 21 22  2  0
 22 23  1  0
 13 24  2  0
 24 25  1  0
 25 26  2  0
 26 27  1  0
 27 28  2  0
 11 29  1  0
 24 29  1  0
 28 29  1  0
 10 30  1  0
 10 31  1  0
 30 31  1  0
  9 32  1  0
 32 33  1  1
  6 34  1  0
 32 34  1  0
 34 33  1  1
M  END
