BOG-INS-8ebd826b-1-acrylamide
     RDKit          3D

 29 32  0  0  0  0  0  0  0  0999 V2000
    7.9670   -3.3680   19.2020 C   0  0  0  0  0  0  0  0  0  0  0  0
    6.8100   -2.4220   19.1160 C   0  0  0  0  0  0  0  0  0  0  0  0
    5.8770   -2.9180   20.1520 C   0  0  0  0  0  0  0  0  0  0  0  0
    4.9560   -3.6180   19.7710 O   0  0  0  0  0  0  0  0  0  0  0  0
    6.1980   -2.6280   21.4760 N   0  0  0  0  0  0  0  0  0  0  0  0
    6.0900   -3.6460   22.3900 C   0  0  0  0  0  0  0  0  0  0  0  0
    7.2050   -4.1320   23.0980 C   0  0  0  0  0  0  0  0  0  0  0  0
    8.1510   -3.3710   23.3560 O   0  0  0  0  0  0  0  0  0  0  0  0
    8.5100   -2.4720   22.3630 C   0  0  2  0  0  0  0  0  0  0  0  0
    9.5130   -1.6110   22.7950 C   0  0  0  0  0  0  0  0  0  0  0  0
   10.9660   -1.7320   22.2870 C   0  0  0  0  0  0  0  0  0  0  0  0
   12.1190   -0.7790   22.7350 C   0  0  0  0  0  0  0  0  0  0  0  0
   13.3860   -0.8580   22.3150 F   0  0  0  0  0  0  0  0  0  0  0  0
   11.6440    0.2890   23.7350 C   0  0  0  0  0  0  0  0  0  0  0  0
   10.1750    0.3850   24.2200 C   0  0  0  0  0  0  0  0  0  0  0  0
    9.2020   -0.6110   23.6930 C   0  0  0  0  0  0  0  0  0  0  0  0
    7.8550   -0.3250   24.2960 C   0  0  0  0  0  0  0  0  0  0  0  0
    8.0900    0.6630   24.9850 O   0  0  0  0  0  0  0  0  0  0  0  0
    9.4320    1.2200   25.0790 C   0  0  2  0  0  0  0  0  0  0  0  0
    9.5600    2.5500   24.6660 C   0  0  0  0  0  0  0  0  0  0  0  0
    9.2580    3.4360   25.7020 C   0  0  0  0  0  0  0  0  0  0  0  0
    9.6930    4.7600   25.6470 C   0  0  0  0  0  0  0  0  0  0  0  0
    9.3950    5.6280   26.6840 C   0  0  0  0  0  0  0  0  0  0  0  0
    9.8090    6.7800   26.5730 O   0  0  0  0  0  0  0  0  0  0  0  0
    8.6620    5.2270   27.8010 C   0  0  0  0  0  0  0  0  0  0  0  0
    8.2260    3.9040   27.8550 C   0  0  0  0  0  0  0  0  0  0  0  0
    7.5190    3.4890   28.9190 F   0  0  0  0  0  0  0  0  0  0  0  0
    8.5180    3.0110   26.8160 C   0  0  0  0  0  0  0  0  0  0  0  0
    7.3000   -1.7220   21.7720 C   0  0  0  0  0  0  0  0  0  0  0  0
  1  2  1  0
  2  3  1  0
  3  4  2  0
  3  5  1  0
  5  6  1  0
  6  7  1  0
  7  8  1  0
  8  9  1  0
  9 10  1  1
 10 11  2  0
 11 12  1  0
 12 13  1  0
 12 14  2  0
 14 15  1  0
 10 16  1  0
 15 16  2  0
 16 17  1  0
 17 18  1  0
 15 19  1  0
 18 19  1  0
 19 20  1  6
 20 21  1  0
 21 22  2  0
 22 23  1  0
 23 24  1  0
 23 25  2  0
 25 26  1  0
 26 27  1  0
 21 28  1  0
 26 28  2  0
  5 29  1  0
  9 29  1  0
M  END
