BOG-INS-699b5a3a-1-acrylamide
     RDKit          3D

 32 36  0  0  0  0  0  0  0  0999 V2000
    7.9890   -3.4210   19.7820 C   0  0  0  0  0  0  0  0  0  0  0  0
    6.8220   -2.6790   19.2090 C   0  0  0  0  0  0  0  0  0  0  0  0
    5.7320   -3.2130   20.0620 C   0  0  0  0  0  0  0  0  0  0  0  0
    5.0390   -4.1310   19.6520 O   0  0  0  0  0  0  0  0  0  0  0  0
    5.6470   -2.6430   21.3350 N   0  0  0  0  0  0  0  0  0  0  0  0
    6.4310   -1.5690   21.6230 C   0  0  0  0  0  0  0  0  0  0  0  0
    7.5300   -1.7520   22.4720 C   0  0  0  0  0  0  0  0  0  0  0  0
    7.5110   -2.7390   23.4570 N   0  0  0  0  0  0  0  0  0  0  0  0
    8.7200   -3.0300   24.2540 C   0  0  0  0  0  0  0  0  0  0  0  0
    9.8130   -1.9720   24.1320 C   0  0  0  0  0  0  0  0  0  0  0  0
   11.1610   -2.3490   23.8790 C   0  0  0  0  0  0  0  0  0  0  0  0
   12.1860   -1.3030   23.7800 C   0  0  0  0  0  0  0  0  0  0  0  0
   12.8150    0.0960   23.7740 C   0  0  0  0  0  0  0  0  0  0  0  0
   13.1070    0.7280   22.4080 C   0  0  0  0  0  0  0  0  0  0  0  0
   12.7900    2.1050   22.3240 C   0  0  0  0  0  0  0  0  0  0  0  0
   11.3560    2.4470   22.6950 C   0  0  0  0  0  0  0  0  0  0  0  0
   11.0080    3.8820   22.6230 C   0  0  0  0  0  0  0  0  0  0  0  0
   12.1400    4.8420   22.1780 C   0  0  0  0  0  0  0  0  0  0  0  0
   11.8560    6.1450   22.1140 F   0  0  0  0  0  0  0  0  0  0  0  0
   13.5360    4.3700   21.8190 C   0  0  0  0  0  0  0  0  0  0  0  0
   13.7520    2.9800   21.9280 C   0  0  0  0  0  0  0  0  0  0  0  0
   15.0730    2.5580   21.5840 O   0  0  0  0  0  0  0  0  0  0  0  0
   11.0510   -0.4010   24.0290 C   0  0  0  0  0  0  0  0  0  0  0  0
   11.3680    0.9960   24.0830 C   0  0  0  0  0  0  0  0  0  0  0  0
   10.3640    2.0040   24.2160 C   0  0  0  0  0  0  0  0  0  0  0  0
    8.9070    1.5780   24.2990 C   0  0  0  0  0  0  0  0  0  0  0  0
    9.9870    0.5620   24.2540 C   0  0  0  0  0  0  0  0  0  0  0  0
    9.6410   -0.6940   24.2390 N   0  0  0  0  0  0  0  0  0  0  0  0
    9.0590   -4.2460   24.5750 C   0  0  0  0  0  0  0  0  0  0  0  0
    8.4500   -3.7420   25.6410 C   0  0  0  0  0  0  0  0  0  0  0  0
    6.8570   -3.8710   22.9960 C   0  0  0  0  0  0  0  0  0  0  0  0
    5.5970   -3.5560   22.4620 C   0  0  0  0  0  0  0  0  0  0  0  0
  1  2  1  0
  2  3  1  0
  3  4  2  0
  3  5  1  0
  5  6  1  0
  6  7  1  0
  7  8  1  0
  8  9  1  0
  9 10  1  0
 10 11  2  0
 11 12  1  0
 12 13  1  0
 13 14  3  0
 14 15  1  0
 15 16  2  0
 16 17  1  0
 17 18  2  0
 18 19  1  0
 18 20  1  0
 15 21  1  0
 20 21  2  0
 21 22  1  0
 12 23  2  0
 23 24  1  0
 24 25  2  0
 25 26  1  0
 26 27  2  0
 10 28  1  0
 23 28  1  0
 27 28  1  0
  9 29  1  0
  9 30  1  0
 29 30  1  0
  8 31  1  0
  5 32  1  0
 31 32  1  0
M  END
