BOG-INS-da52c1c2-1-chloroacetamide
     RDKit          3D

 30 33  0  0  0  0  0  0  0  0999 V2000
    7.1600   -3.0240   18.9840 C   0  0  0  0  0  0  0  0  0  0  0  0
    6.2330   -3.5190   20.0640 C   0  0  0  0  0  0  0  0  0  0  0  0
    5.3140   -4.2900   19.8090 O   0  0  0  0  0  0  0  0  0  0  0  0
    6.4690   -3.0960   21.3890 N   0  0  0  0  0  0  0  0  0  0  0  0
    6.0240   -3.9030   22.5210 C   0  0  0  0  0  0  0  0  0  0  0  0
    7.0800   -4.5000   23.1940 C   0  0  0  0  0  0  0  0  0  0  0  0
    8.0590   -3.5000   23.4550 O   0  0  0  0  0  0  0  0  0  0  0  0
    8.4820   -2.6570   22.4630 C   0  0  2  0  0  0  0  0  0  0  0  0
    9.5130   -1.7840   22.7460 C   0  0  0  0  0  0  0  0  0  0  0  0
   10.8250   -2.0200   22.0200 C   0  0  0  0  0  0  0  0  0  0  0  0
   12.0560   -1.1510   22.2280 C   0  0  0  0  0  0  0  0  0  0  0  0
   13.2110   -1.3840   21.5880 F   0  0  0  0  0  0  0  0  0  0  0  0
   11.8760   -0.0060   23.2060 C   0  0  0  0  0  0  0  0  0  0  0  0
   10.5280    0.1930   23.9030 C   0  0  0  0  0  0  0  0  0  0  0  0
    9.4040   -0.7620   23.6230 C   0  0  0  0  0  0  0  0  0  0  0  0
    8.4760   -0.2150   24.4830 N   0  0  0  0  0  0  0  0  0  0  0  0
    7.3310   -0.9140   24.7830 C   0  0  0  0  0  0  0  0  0  0  0  0
    9.2730    0.5510   25.4550 C   0  0  0  0  0  0  0  0  0  0  0  0
    9.0990    0.6970   26.8110 O   0  0  0  0  0  0  0  0  0  0  0  0
   10.3640    1.1970   24.7650 C   0  0  2  0  0  0  0  0  0  0  0  0
    9.4940    2.3680   24.2250 C   0  0  0  0  0  0  0  0  0  0  0  0
   10.4870    3.4720   23.8010 C   0  0  0  0  0  0  0  0  0  0  0  0
   10.7780    4.5680   24.7020 C   0  0  0  0  0  0  0  0  0  0  0  0
   11.6920    5.5550   24.2890 C   0  0  0  0  0  0  0  0  0  0  0  0
   11.9330    6.5410   25.1790 O   0  0  0  0  0  0  0  0  0  0  0  0
   12.3240    5.5360   23.0550 C   0  0  0  0  0  0  0  0  0  0  0  0
   12.0580    4.5180   22.1960 C   0  0  0  0  0  0  0  0  0  0  0  0
   12.6700    4.5180   21.0170 F   0  0  0  0  0  0  0  0  0  0  0  0
   11.0840    3.4130   22.5830 C   0  0  0  0  0  0  0  0  0  0  0  0
    7.4060   -2.0530   21.7920 C   0  0  0  0  0  0  0  0  0  0  0  0
  1  2  1  0
  2  3  2  0
  2  4  1  0
  4  5  1  0
  5  6  1  0
  6  7  1  0
  7  8  1  0
  8  9  1  1
  9 10  2  0
 10 11  1  0
 11 12  1  0
 11 13  2  0
 13 14  1  0
  9 15  1  0
 14 15  2  0
 15 16  1  0
 16 17  1  0
 16 18  1  0
 18 19  2  0
 14 20  1  0
 18 20  1  0
 20 21  1  6
 21 22  1  0
 22 23  2  0
 23 24  1  0
 24 25  1  0
 24 26  2  0
 26 27  1  0
 27 28  1  0
 22 29  1  0
 27 29  2  0
  4 30  1  0
  8 30  1  0
M  END
