BOG-INS-01af3fef-1-acrylamide
     RDKit          3D

 33 37  0  0  0  0  0  0  0  0999 V2000
    7.4660   -2.8490   18.3170 C   0  0  0  0  0  0  0  0  0  0  0  0
    6.4210   -2.0010   18.9720 C   0  0  0  0  0  0  0  0  0  0  0  0
    5.7650   -2.7920   20.0600 C   0  0  0  0  0  0  0  0  0  0  0  0
    5.0530   -3.7830   19.8150 O   0  0  0  0  0  0  0  0  0  0  0  0
    6.1150   -2.3290   21.3150 N   0  0  0  0  0  0  0  0  0  0  0  0
    7.0200   -1.2980   21.3530 C   0  0  0  0  0  0  0  0  0  0  0  0
    8.2260   -1.4730   22.0090 C   0  0  0  0  0  0  0  0  0  0  0  0
    8.2190   -2.1810   23.1850 N   0  0  0  0  0  0  0  0  0  0  0  0
    9.4850   -2.4450   23.8860 C   0  0  0  0  0  0  0  0  0  0  0  0
   10.5460   -1.3890   23.5750 C   0  0  0  0  0  0  0  0  0  0  0  0
   11.8690   -1.8400   22.9720 C   0  0  0  0  0  0  0  0  0  0  0  0
   12.8850   -0.7520   22.6810 C   0  0  0  0  0  0  0  0  0  0  0  0
   12.5290    0.6970   22.9980 C   0  0  0  0  0  0  0  0  0  0  0  0
   11.1740    1.0570   23.6020 C   0  0  0  0  0  0  0  0  0  0  0  0
   10.9370    2.4060   23.8580 C   0  0  0  0  0  0  0  0  0  0  0  0
    9.6130    2.7670   24.4730 C   0  0  0  0  0  0  0  0  0  0  0  0
    9.4390    4.1960   24.7230 C   0  0  1  0  0  0  0  0  0  0  0  0
   10.7080    4.7930   24.5750 C   0  0  0  0  0  0  0  0  0  0  0  0
    9.5640    5.2540   23.5790 C   0  0  2  0  0  0  0  0  0  0  0  0
    9.0700    6.4760   23.5650 N   0  0  0  0  0  0  0  0  0  0  0  0
    8.6930    1.7710   24.7560 C   0  0  0  0  0  0  0  0  0  0  0  0
    7.4390    1.9070   25.3400 N   0  0  0  0  0  0  0  0  0  0  0  0
    7.3400    2.4970   26.5560 C   0  0  0  0  0  0  0  0  0  0  0  0
    6.4680    1.7210   27.2910 C   0  0  0  0  0  0  0  0  0  0  0  0
    5.6710    0.8760   26.5960 N   0  0  0  0  0  0  0  0  0  0  0  0
    6.1220   -0.4010   26.4710 C   0  0  0  0  0  0  0  0  0  0  0  0
    5.1710    1.5120   25.3820 C   0  0  0  0  0  0  0  0  0  0  0  0
    6.3590    2.0100   24.5370 C   0  0  0  0  0  0  0  0  0  0  0  0
    8.9830    0.4340   24.4610 N   0  0  0  0  0  0  0  0  0  0  0  0
   10.1880    0.0800   23.9020 C   0  0  0  0  0  0  0  0  0  0  0  0
    7.3120   -3.3300   23.1380 C   0  0  0  0  0  0  0  0  0  0  0  0
    6.1030   -3.2300   22.5160 C   0  0  1  0  0  0  0  0  0  0  0  0
    4.9930   -2.9400   23.3110 C   0  0  0  0  0  0  0  0  0  0  0  0
  1  2  1  0
  2  3  1  0
  3  4  2  0
  3  5  1  0
  5  6  1  0
  6  7  1  0
  7  8  1  0
  8  9  1  0
  9 10  1  0
 10 11  2  0
 11 12  1  0
 12 13  2  0
 13 14  1  0
 14 15  1  0
 15 16  2  0
 17 16  1  6
 17 18  1  0
 17 19  1  0
 18 19  1  0
 19 20  1  1
 16 21  1  0
 21 22  1  0
 22 23  1  0
 23 24  1  0
 24 25  1  0
 25 26  1  0
 25 27  1  0
 22 28  1  0
 27 28  1  0
 21 29  2  0
 10 30  1  0
 14 30  2  0
 29 30  1  0
  8 31  1  0
  5 32  1  0
 31 32  1  0
 32 33  1  1
M  END
