BOG-INS-177e97e6-1-vinylsulfonamide
     RDKit          3D

 37 41  0  0  0  0  0  0  0  0999 V2000
    7.5890   -3.0920   18.5490 C   0  0  0  0  0  0  0  0  0  0  0  0
    7.1030   -2.0840   19.4830 C   0  0  0  0  0  0  0  0  0  0  0  0
    5.6410   -2.5970   20.2740 S   0  0  0  0  0  0  0  0  0  0  0  0
    5.1010   -3.8790   19.8280 O   0  0  0  0  0  0  0  0  0  0  0  0
    4.8330   -1.3980   20.3000 O   0  0  0  0  0  0  0  0  0  0  0  0
    6.3370   -2.7420   21.7810 N   0  0  0  0  0  0  0  0  0  0  0  0
    6.1160   -3.8990   22.6380 C   0  0  0  0  0  0  0  0  0  0  0  0
    7.0450   -3.8800   23.6640 C   0  0  0  0  0  0  0  0  0  0  0  0
    8.1150   -3.2900   23.4980 O   0  0  0  0  0  0  0  0  0  0  0  0
    7.8610   -1.8440   23.4660 C   0  0  1  0  0  0  0  0  0  0  0  0
    9.0730   -1.1010   23.4340 C   0  0  0  0  0  0  0  0  0  0  0  0
   10.1630   -1.7380   24.1920 C   0  0  0  0  0  0  0  0  0  0  0  0
   11.4400   -0.9960   24.1830 C   0  0  0  0  0  0  0  0  0  0  0  0
   12.8530   -1.1080   24.7270 C   0  0  0  0  0  0  0  0  0  0  0  0
   11.7390    0.2810   23.5160 C   0  0  0  0  0  0  0  0  0  0  0  0
   12.9190    0.8850   23.5490 F   0  0  0  0  0  0  0  0  0  0  0  0
   10.5430    0.8550   22.7720 C   0  0  0  0  0  0  0  0  0  0  0  0
    9.2880    0.1550   22.7660 C   0  0  0  0  0  0  0  0  0  0  0  0
    8.1740    0.8620   21.9830 C   0  0  0  0  0  0  0  0  0  0  0  0
    7.9310   -0.0020   20.8740 C   0  0  0  0  0  0  0  0  0  0  0  0
    8.6990   -1.1570   20.8070 F   0  0  0  0  0  0  0  0  0  0  0  0
    6.8380    0.4590   19.8840 C   0  0  0  0  0  0  0  0  0  0  0  0
    6.1570    1.7800   20.2380 C   0  0  0  0  0  0  0  0  0  0  0  0
    6.4900    2.5580   21.3940 C   0  0  0  0  0  0  0  0  0  0  0  0
    7.4940    2.0760   22.2330 C   0  0  0  0  0  0  0  0  0  0  0  0
    7.7820    2.8760   23.3400 C   0  0  0  0  0  0  0  0  0  0  0  0
    6.5870    3.4620   23.7250 C   0  0  1  0  0  0  0  0  0  0  0  0
    6.6380    4.1880   25.0880 C   0  0  0  0  0  0  0  0  0  0  0  0
    7.6630    4.7390   25.4820 O   0  0  0  0  0  0  0  0  0  0  0  0
    5.3610    4.1770   25.9560 C   0  0  1  0  0  0  0  0  0  0  0  0
    5.2610    5.0150   26.9060 C   0  0  0  0  0  0  0  0  0  0  0  0
    4.4310    5.5510   25.9930 C   0  0  2  0  0  0  0  0  0  0  0  0
    3.0250    5.3560   26.2360 O   0  0  0  0  0  0  0  0  0  0  0  0
    6.2620    4.4790   22.7020 N   0  0  0  0  0  0  0  0  0  0  0  0
    7.3490    5.2280   22.2920 C   0  0  0  0  0  0  0  0  0  0  0  0
    5.7370    3.8450   21.6340 C   0  0  0  0  0  0  0  0  0  0  0  0
    6.8230   -1.5370   22.3900 C   0  0  0  0  0  0  0  0  0  0  0  0
  1  2  1  0
  3  2  1  0
  3  4  2  0
  3  5  2  0
  3  6  1  0
  6  7  1  0
  7  8  1  0
  8  9  1  0
  9 10  1  0
 10 11  1  6
 11 12  2  0
 12 13  1  0
 13 14  1  0
 13 15  2  0
 15 16  1  0
 15 17  1  0
 11 18  1  0
 17 18  2  0
 18 19  1  0
 19 20  2  0
 20 21  1  0
 20 22  1  0
 22 23  2  0
 23 24  1  0
 19 25  1  0
 24 25  2  0
 25 26  1  0
 26 27  1  0
 27 28  1  1
 28 29  2  0
 30 28  1  6
 30 31  1  0
 30 32  1  0
 31 32  1  0
 32 33  1  1
 27 34  1  0
 34 35  1  0
 24 36  1  0
 34 36  1  0
  6 37  1  0
 10 37  1  0
M  END
