BOG-INS-29936cf2-1-nitrile
     RDKit          3D

 31 36  0  0  0  0  0  0  0  0999 V2000
    6.9060   -4.3220   20.3460 C   0  0  0  0  0  0  0  0  0  0  0  0
    5.9760   -3.6880   19.6950 N   0  0  0  0  0  0  0  0  0  0  0  0
    7.4940   -3.9560   21.6000 N   0  0  0  0  0  0  0  0  0  0  0  0
    8.2580   -2.8360   21.8120 C   0  0  0  0  0  0  0  0  0  0  0  0
    9.3460   -2.9650   22.7660 C   0  0  0  0  0  0  0  0  0  0  0  0
    9.0970   -3.4460   24.0500 N   0  0  0  0  0  0  0  0  0  0  0  0
   10.1690   -3.8130   25.0380 C   0  0  0  0  0  0  0  0  0  0  0  0
   11.4950   -3.1750   25.0330 C   0  0  0  0  0  0  0  0  0  0  0  0
   12.7140   -3.5240   25.6300 C   0  0  0  0  0  0  0  0  0  0  0  0
   13.8160   -2.5810   25.3080 C   0  0  0  0  0  0  0  0  0  0  0  0
   15.3460   -2.8940   25.9150 C   0  0  0  0  0  0  0  0  0  0  0  0
   16.9060   -2.1360   26.1630 C   0  0  0  0  0  0  0  0  0  0  0  0
   18.6800   -2.1480   25.7490 C   0  0  0  0  0  0  0  0  0  0  0  0
   19.2850   -2.1980   24.3610 C   0  0  0  0  0  0  0  0  0  0  0  0
   20.6370   -2.1590   24.0180 C   0  0  0  0  0  0  0  0  0  0  0  0
   21.7170   -2.0360   25.0390 C   0  0  0  0  0  0  0  0  0  0  0  0
   23.0150   -2.0130   24.6130 F   0  0  0  0  0  0  0  0  0  0  0  0
   21.2970   -1.9340   26.3990 C   0  0  0  0  0  0  0  0  0  0  0  0
   19.7800   -1.9850   26.6480 C   0  0  0  0  0  0  0  0  0  0  0  0
   19.7100   -1.8310   27.7910 O   0  0  0  0  0  0  0  0  0  0  0  0
   13.0080   -1.6490   24.4520 C   0  0  0  0  0  0  0  0  0  0  0  0
   13.2220   -0.4050   23.6100 C   0  0  0  0  0  0  0  0  0  0  0  0
   12.1860    0.5200   23.3240 C   0  0  0  0  0  0  0  0  0  0  0  0
   11.0660    0.1540   23.9290 C   0  0  0  0  0  0  0  0  0  0  0  0
   11.9730   -0.8170   23.6820 C   0  0  0  0  0  0  0  0  0  0  0  0
   11.6040   -1.9270   24.2740 N   0  0  0  0  0  0  0  0  0  0  0  0
   10.1340   -5.0620   25.4890 C   0  0  0  0  0  0  0  0  0  0  0  0
    9.5450   -4.3290   26.5290 C   0  0  0  0  0  0  0  0  0  0  0  0
    8.0250   -4.3280   24.1310 C   0  0  1  0  0  0  0  0  0  0  0  0
    6.7820   -3.9260   23.7810 C   0  0  0  0  0  0  0  0  0  0  0  0
    7.1420   -4.5980   22.7650 C   0  0  1  0  0  0  0  0  0  0  0  0
  1  2  2  3
  1  3  1  0
  3  4  1  0
  4  5  1  0
  5  6  1  0
  6  7  1  0
  7  8  1  0
  8  9  2  0
  9 10  1  0
 10 11  1  0
 11 12  3  0
 12 13  1  0
 13 14  2  0
 14 15  1  0
 15 16  2  0
 16 17  1  0
 16 18  1  0
 13 19  1  0
 18 19  2  0
 19 20  1  0
 10 21  2  0
 21 22  1  0
 22 23  2  0
 23 24  1  0
 24 25  2  0
  8 26  1  0
 21 26  1  0
 25 26  1  0
  7 27  1  0
  7 28  1  0
 27 28  1  0
  6 29  1  0
 29 30  1  1
  3 31  1  0
 29 31  1  0
 31 30  1  1
M  END
