BOG-INS-699b5a3a-1-chloroacetamide
     RDKit          3D

 31 35  0  0  0  0  0  0  0  0999 V2000
    7.0410   -3.0300   18.9620 C   0  0  0  0  0  0  0  0  0  0  0  0
    6.0670   -3.4590   20.0320 C   0  0  0  0  0  0  0  0  0  0  0  0
    5.2650   -4.3720   19.8340 O   0  0  0  0  0  0  0  0  0  0  0  0
    6.1320   -2.7530   21.2570 N   0  0  0  0  0  0  0  0  0  0  0  0
    7.2660   -1.9000   21.6350 C   0  0  0  0  0  0  0  0  0  0  0  0
    8.0820   -2.4940   22.5880 C   0  0  0  0  0  0  0  0  0  0  0  0
    7.3400   -2.9730   23.6170 N   0  0  0  0  0  0  0  0  0  0  0  0
    8.1240   -3.5190   24.7850 C   0  0  0  0  0  0  0  0  0  0  0  0
    9.5230   -3.3070   24.8230 C   0  0  0  0  0  0  0  0  0  0  0  0
   10.2880   -4.0640   25.7610 C   0  0  0  0  0  0  0  0  0  0  0  0
   11.7400   -3.8540   25.7760 C   0  0  0  0  0  0  0  0  0  0  0  0
   13.1700   -3.3750   25.4990 C   0  0  0  0  0  0  0  0  0  0  0  0
   14.0180   -4.4670   26.1940 C   0  0  0  0  0  0  0  0  0  0  0  0
   15.3970   -5.0050   25.6900 C   0  0  0  0  0  0  0  0  0  0  0  0
   15.9400   -6.3090   25.6440 C   0  0  0  0  0  0  0  0  0  0  0  0
   17.3240   -6.5860   25.1340 C   0  0  0  0  0  0  0  0  0  0  0  0
   18.0560   -5.4000   24.7340 C   0  0  0  0  0  0  0  0  0  0  0  0
   19.3180   -5.4210   24.2680 F   0  0  0  0  0  0  0  0  0  0  0  0
   17.4630   -4.1180   24.8290 C   0  0  0  0  0  0  0  0  0  0  0  0
   16.0670   -4.0410   25.3310 C   0  0  0  0  0  0  0  0  0  0  0  0
   15.3920   -2.8070   25.4770 O   0  0  0  0  0  0  0  0  0  0  0  0
   11.5660   -2.8580   24.6970 C   0  0  0  0  0  0  0  0  0  0  0  0
   12.6500   -2.1170   24.0270 C   0  0  0  0  0  0  0  0  0  0  0  0
   12.4900   -0.7650   23.5760 C   0  0  0  0  0  0  0  0  0  0  0  0
   11.2800   -0.3610   23.9330 C   0  0  0  0  0  0  0  0  0  0  0  0
   11.4020   -1.8530   23.6740 C   0  0  0  0  0  0  0  0  0  0  0  0
   10.3340   -2.4580   24.0940 N   0  0  0  0  0  0  0  0  0  0  0  0
    7.7100   -4.5940   25.3830 C   0  0  0  0  0  0  0  0  0  0  0  0
    7.5020   -3.6880   26.2150 C   0  0  0  0  0  0  0  0  0  0  0  0
    6.1170   -3.7480   23.3450 C   0  0  0  0  0  0  0  0  0  0  0  0
    5.3080   -3.2230   22.4080 C   0  0  0  0  0  0  0  0  0  0  0  0
  1  2  1  0
  2  3  2  0
  2  4  1  0
  4  5  1  0
  5  6  1  0
  6  7  1  0
  7  8  1  0
  8  9  1  0
  9 10  2  0
 10 11  1  0
 11 12  1  0
 12 13  3  0
 13 14  1  0
 14 15  2  0
 15 16  1  0
 16 17  2  0
 17 18  1  0
 17 19  1  0
 14 20  1  0
 19 20  2  0
 20 21  1  0
 11 22  2  0
 22 23  1  0
 23 24  2  0
 24 25  1  0
 25 26  2  0
  9 27  1  0
 22 27  1  0
 26 27  1  0
  8 28  1  0
  8 29  1  0
 28 29  1  0
  7 30  1  0
  4 31  1  0
 30 31  1  0
M  END
