BOG-INS-15b226b5-1-nitrile
     RDKit          3D

 25 29  0  0  0  0  0  0  0  0999 V2000
    6.6550   -3.4270   19.6700 C   0  0  0  0  0  0  0  0  0  0  0  0
    5.8140   -3.1260   18.7670 N   0  0  0  0  0  0  0  0  0  0  0  0
    6.5880   -2.7810   20.8870 N   0  0  0  0  0  0  0  0  0  0  0  0
    6.3430   -3.3620   22.0670 C   0  0  0  0  0  0  0  0  0  0  0  0
    7.5320   -3.4470   22.8020 C   0  0  0  0  0  0  0  0  0  0  0  0
    8.2020   -2.2700   23.0200 N   0  0  0  0  0  0  0  0  0  0  0  0
    9.4370   -2.3920   23.7340 C   0  0  0  0  0  0  0  0  0  0  0  0
   10.4640   -1.4820   23.4820 C   0  0  0  0  0  0  0  0  0  0  0  0
   11.7320   -1.8140   22.9440 C   0  0  0  0  0  0  0  0  0  0  0  0
   12.8440   -0.8080   22.6880 C   0  0  0  0  0  0  0  0  0  0  0  0
   12.6370    0.6540   23.0030 C   0  0  0  0  0  0  0  0  0  0  0  0
   11.3080    1.0650   23.5650 C   0  0  0  0  0  0  0  0  0  0  0  0
   10.9520    2.4860   23.9200 C   0  0  0  0  0  0  0  0  0  0  0  0
    9.5670    2.7560   24.4870 C   0  0  0  0  0  0  0  0  0  0  0  0
    9.2840    4.0950   24.8050 C   0  0  1  0  0  0  0  0  0  0  0  0
   10.3600    4.9550   24.7190 C   0  0  0  0  0  0  0  0  0  0  0  0
    9.1040    5.2270   23.9100 C   0  0  2  0  0  0  0  0  0  0  0  0
    8.3930    6.4230   24.3590 N   0  0  0  0  0  0  0  0  0  0  0  0
    8.6800    1.6750   24.6550 C   0  0  0  0  0  0  0  0  0  0  0  0
    8.9760    0.3690   24.3380 N   0  0  0  0  0  0  0  0  0  0  0  0
   10.1860   -0.0090   23.8200 C   0  0  0  0  0  0  0  0  0  0  0  0
    8.2940   -1.3950   21.8460 C   0  0  0  0  0  0  0  0  0  0  0  0
    7.1430   -1.4440   21.1090 C   0  0  0  0  0  0  0  0  0  0  0  0
    6.9700   -0.5110   20.2010 C   0  0  0  0  0  0  0  0  0  0  0  0
    6.1270   -0.1790   21.1390 C   0  0  0  0  0  0  0  0  0  0  0  0
  1  2  2  3
  1  3  1  0
  3  4  1  0
  4  5  1  0
  5  6  1  0
  6  7  1  0
  7  8  1  0
  8  9  2  0
  9 10  1  0
 10 11  2  0
 11 12  1  0
 12 13  1  0
 13 14  2  0
 15 14  1  6
 15 16  1  0
 15 17  1  0
 16 17  1  0
 17 18  1  1
 14 19  1  0
 19 20  2  0
  8 21  1  0
 12 21  2  0
 20 21  1  0
  6 22  1  0
 23  3  1  0
 22 23  1  0
 23 24  1  0
 23 25  1  0
 24 25  1  0
M  END
