BOG-INS-01af3fef-1-chloroacetamide
     RDKit          3D

 32 36  0  0  0  0  0  0  0  0999 V2000
    7.0910   -2.9650   18.7270 C   0  0  0  0  0  0  0  0  0  0  0  0
    6.1670   -3.2980   19.8550 C   0  0  0  0  0  0  0  0  0  0  0  0
    5.3010   -4.1640   19.7410 O   0  0  0  0  0  0  0  0  0  0  0  0
    6.3720   -2.5780   21.0440 N   0  0  0  0  0  0  0  0  0  0  0  0
    7.2980   -1.4440   21.1030 C   0  0  0  0  0  0  0  0  0  0  0  0
    8.4630   -1.7690   21.7810 C   0  0  0  0  0  0  0  0  0  0  0  0
    8.1900   -2.1920   23.0420 N   0  0  0  0  0  0  0  0  0  0  0  0
    9.4340   -2.3220   23.8750 C   0  0  0  0  0  0  0  0  0  0  0  0
   10.3820   -1.3100   23.6440 C   0  0  0  0  0  0  0  0  0  0  0  0
   11.7120   -1.8120   23.1110 C   0  0  0  0  0  0  0  0  0  0  0  0
   12.8000   -0.8140   22.8240 C   0  0  0  0  0  0  0  0  0  0  0  0
   12.5070    0.6430   23.0800 C   0  0  0  0  0  0  0  0  0  0  0  0
   11.1230    1.0560   23.6210 C   0  0  0  0  0  0  0  0  0  0  0  0
   11.1050    2.6190   23.7880 C   0  0  0  0  0  0  0  0  0  0  0  0
    9.7620    2.6800   24.2940 C   0  0  0  0  0  0  0  0  0  0  0  0
    9.3710    4.1320   24.5930 C   0  0  1  0  0  0  0  0  0  0  0  0
   10.5200    4.8190   24.6420 C   0  0  0  0  0  0  0  0  0  0  0  0
    9.3280    5.2700   23.6970 C   0  0  2  0  0  0  0  0  0  0  0  0
    8.5380    6.3760   24.0560 N   0  0  0  0  0  0  0  0  0  0  0  0
    8.7590    1.7360   24.5690 C   0  0  0  0  0  0  0  0  0  0  0  0
    7.5740    2.1530   25.0680 N   0  0  0  0  0  0  0  0  0  0  0  0
    7.5010    2.2620   26.5330 C   0  0  0  0  0  0  0  0  0  0  0  0
    6.2650    2.6700   26.9850 C   0  0  0  0  0  0  0  0  0  0  0  0
    5.1740    2.0360   26.5000 N   0  0  0  0  0  0  0  0  0  0  0  0
    3.9930    2.2790   27.1190 C   0  0  0  0  0  0  0  0  0  0  0  0
    5.1670    2.0560   25.1440 C   0  0  0  0  0  0  0  0  0  0  0  0
    6.4960    1.5390   24.5150 C   0  0  0  0  0  0  0  0  0  0  0  0
    8.9330    0.4220   24.3610 N   0  0  0  0  0  0  0  0  0  0  0  0
   10.1190    0.0690   23.8860 C   0  0  0  0  0  0  0  0  0  0  0  0
    7.4500   -3.3310   23.0380 C   0  0  0  0  0  0  0  0  0  0  0  0
    6.1660   -3.1610   22.3590 C   0  0  1  0  0  0  0  0  0  0  0  0
    5.1950   -2.4740   22.9900 C   0  0  0  0  0  0  0  0  0  0  0  0
  1  2  1  0
  2  3  2  0
  2  4  1  0
  4  5  1  0
  5  6  1  0
  6  7  1  0
  7  8  1  0
  8  9  1  0
  9 10  2  0
 10 11  1  0
 11 12  2  0
 12 13  1  0
 13 14  1  0
 14 15  2  0
 16 15  1  6
 16 17  1  0
 16 18  1  0
 17 18  1  0
 18 19  1  1
 15 20  1  0
 20 21  1  0
 21 22  1  0
 22 23  1  0
 23 24  1  0
 24 25  1  0
 24 26  1  0
 21 27  1  0
 26 27  1  0
 20 28  2  0
  9 29  1  0
 13 29  2  0
 28 29  1  0
  7 30  1  0
  4 31  1  0
 30 31  1  0
 31 32  1  1
M  END
