BOG-INS-01af3fef-1-nitrile
     RDKit          3D

 31 35  0  0  0  0  0  0  0  0999 V2000
    6.8270   -3.3220   19.5960 C   0  0  0  0  0  0  0  0  0  0  0  0
    5.9110   -3.1110   18.7280 N   0  0  0  0  0  0  0  0  0  0  0  0
    6.8100   -2.6930   20.8280 N   0  0  0  0  0  0  0  0  0  0  0  0
    7.3270   -1.4640   20.9710 C   0  0  0  0  0  0  0  0  0  0  0  0
    8.4600   -1.5790   21.7550 C   0  0  0  0  0  0  0  0  0  0  0  0
    8.2110   -2.1600   22.9510 N   0  0  0  0  0  0  0  0  0  0  0  0
    9.3510   -2.2500   23.8210 C   0  0  0  0  0  0  0  0  0  0  0  0
   10.3930   -1.3370   23.5940 C   0  0  0  0  0  0  0  0  0  0  0  0
   11.6440   -1.8250   23.1300 C   0  0  0  0  0  0  0  0  0  0  0  0
   12.8080   -0.8920   22.8600 C   0  0  0  0  0  0  0  0  0  0  0  0
   12.5940    0.5740   23.1010 C   0  0  0  0  0  0  0  0  0  0  0  0
   11.2250    0.9790   23.5940 C   0  0  0  0  0  0  0  0  0  0  0  0
   10.9890    2.4520   23.8440 C   0  0  0  0  0  0  0  0  0  0  0  0
    9.6210    2.8800   24.3450 C   0  0  0  0  0  0  0  0  0  0  0  0
    9.4530    4.2640   24.5730 C   0  0  1  0  0  0  0  0  0  0  0  0
   10.6410    4.9640   24.6050 C   0  0  0  0  0  0  0  0  0  0  0  0
    9.5440    5.3810   23.6470 C   0  0  2  0  0  0  0  0  0  0  0  0
    8.9740    6.6880   23.9910 N   0  0  0  0  0  0  0  0  0  0  0  0
    8.6700    1.8590   24.5300 C   0  0  0  0  0  0  0  0  0  0  0  0
    7.4140    2.1840   24.9700 N   0  0  0  0  0  0  0  0  0  0  0  0
    6.4690    2.4240   24.0370 C   0  0  0  0  0  0  0  0  0  0  0  0
    5.2490    2.7370   24.7290 C   0  0  0  0  0  0  0  0  0  0  0  0
    4.9190    1.7160   25.6210 N   0  0  0  0  0  0  0  0  0  0  0  0
    4.1500    0.6750   24.9350 C   0  0  0  0  0  0  0  0  0  0  0  0
    6.1140    1.1680   26.3200 C   0  0  0  0  0  0  0  0  0  0  0  0
    7.2020    2.0100   26.2980 C   0  0  0  0  0  0  0  0  0  0  0  0
    8.9590    0.5210   24.2780 N   0  0  0  0  0  0  0  0  0  0  0  0
   10.1730    0.0610   23.8290 C   0  0  0  0  0  0  0  0  0  0  0  0
    7.5220   -3.3540   22.8300 C   0  0  0  0  0  0  0  0  0  0  0  0
    6.4590   -3.3370   21.9710 C   0  0  1  0  0  0  0  0  0  0  0  0
    5.2000   -2.7500   22.4140 C   0  0  0  0  0  0  0  0  0  0  0  0
  1  2  2  3
  1  3  1  0
  3  4  1  0
  4  5  1  0
  5  6  1  0
  6  7  1  0
  7  8  1  0
  8  9  2  0
  9 10  1  0
 10 11  2  0
 11 12  1  0
 12 13  1  0
 13 14  2  0
 15 14  1  6
 15 16  1  0
 15 17  1  0
 16 17  1  0
 17 18  1  1
 14 19  1  0
 19 20  1  0
 20 21  1  0
 21 22  1  0
 22 23  1  0
 23 24  1  0
 23 25  1  0
 20 26  1  0
 25 26  1  0
 19 27  2  0
  8 28  1  0
 12 28  2  0
 27 28  1  0
  6 29  1  0
  3 30  1  0
 29 30  1  0
 30 31  1  1
M  END
