CAM-WAB-d3b4be56-1
     RDKit          3D

 27 29  0  0  0  0  0  0  0  0999 V2000
   10.9110   -2.7110   25.5900 N   0  0  0  0  0  0  0  0  0  0  0  0
   10.1780   -3.6810   24.8280 C   0  0  1  0  0  0  0  0  0  0  0  0
    9.8750   -4.8080   25.5860 C   0  0  0  0  0  0  0  0  0  0  0  0
    8.8350   -4.5200   26.6830 C   0  0  0  0  0  0  0  0  0  0  0  0
    9.0430   -4.7670   27.8680 O   0  0  0  0  0  0  0  0  0  0  0  0
    7.5430   -3.8720   26.1620 C   0  0  2  0  0  0  0  0  0  0  0  0
    6.5990   -5.1300   25.3160 S   0  0  0  0  0  0  0  0  0  0  0  0
    5.9500   -6.0460   26.5710 N   0  0  0  0  0  0  0  0  0  0  0  0
    5.4340   -4.5540   24.6750 O   0  0  0  0  0  0  0  0  0  0  0  0
    7.4830   -6.0010   24.5760 O   0  0  0  0  0  0  0  0  0  0  0  0
    7.9290   -2.7390   25.2090 C   0  0  0  0  0  0  0  0  0  0  0  0
    8.9970   -3.0500   24.2500 N   0  0  0  0  0  0  0  0  0  0  0  0
    9.2900   -1.8910   23.3910 C   0  0  0  0  0  0  0  0  0  0  0  0
   10.6580   -1.3850   23.5890 N   0  0  0  0  0  0  0  0  0  0  0  0
   11.6280   -2.4280   23.2460 C   0  0  0  0  0  0  0  0  0  0  0  0
   12.8960   -1.8990   23.3680 C   0  0  0  0  0  0  0  0  0  0  0  0
   12.9460   -0.5540   23.6570 C   0  0  0  0  0  0  0  0  0  0  0  0
   12.2570    0.2780   22.8180 C   0  0  2  0  0  0  0  0  0  0  0  0
   12.2240    1.7850   23.1150 C   0  0  0  0  0  0  0  0  0  0  0  0
   11.0260    2.7050   23.1060 C   0  0  0  0  0  0  0  0  0  0  0  0
    9.9120    2.0140   22.7630 C   0  0  0  0  0  0  0  0  0  0  0  0
    8.2400    2.3480   22.3450 S   0  0  0  0  0  0  0  0  0  0  0  0
    7.3060    1.0720   22.9350 N   0  0  0  0  0  0  0  0  0  0  0  0
    7.7480    3.4840   23.0980 O   0  0  0  0  0  0  0  0  0  0  0  0
    8.0560    2.2790   20.9080 O   0  0  0  0  0  0  0  0  0  0  0  0
   10.7720    0.9270   22.8100 C   0  0  0  0  0  0  0  0  0  0  0  0
   10.9690   -0.3160   22.6250 C   0  0  2  0  0  0  0  0  0  0  0  0
  2  1  1  1
  2  3  1  0
  3  4  1  0
  4  5  2  0
  4  6  1  0
  6  7  1  6
  7  8  1  0
  7  9  2  0
  7 10  2  0
  6 11  1  0
  2 12  1  0
 11 12  1  0
 12 13  1  0
 13 14  1  0
 14 15  1  0
 15 16  1  0
 16 17  1  0
 18 17  1  1
 18 19  1  0
 19 20  2  0
 20 21  1  0
 21 22  1  0
 22 23  1  0
 22 24  2  0
 22 25  2  0
 21 26  2  0
 14 27  1  0
 18 27  1  0
 27 26  1  1
M  END
