CAS-DEP-751a2458-2
     RDKit          3D

 17 19  0  0  0  0  0  0  0  0999 V2000
   12.1170    7.0670   24.6160 C   0  0  0  0  0  0  0  0  0  0  0  0
   12.3000    5.7590   23.8650 C   0  0  0  0  0  0  0  0  0  0  0  0
   12.6170    4.5640   23.0320 C   0  0  0  0  0  0  0  0  0  0  0  0
   11.8770    3.3860   23.2700 C   0  0  0  0  0  0  0  0  0  0  0  0
   10.7430    2.4950   23.6750 C   0  0  0  0  0  0  0  0  0  0  0  0
   10.1760    1.2230   23.8240 N   0  0  0  0  0  0  0  0  0  0  0  0
   10.8480    0.1130   23.4600 C   0  0  0  0  0  0  0  0  0  0  0  0
   10.5900   -1.3650   23.4610 C   0  0  0  0  0  0  0  0  0  0  0  0
   11.6100   -2.1700   22.9550 C   0  0  0  0  0  0  0  0  0  0  0  0
   12.8220   -1.6420   22.4710 C   0  0  0  0  0  0  0  0  0  0  0  0
   13.0360   -0.2690   22.4940 C   0  0  0  0  0  0  0  0  0  0  0  0
   12.0410    0.5420   22.9830 C   0  0  0  0  0  0  0  0  0  0  0  0
   11.9710    1.8650   23.1130 N   0  0  0  0  0  0  0  0  0  0  0  0
   11.0830    4.3640   22.7900 C   0  0  0  0  0  0  0  0  0  0  0  0
   11.7580    5.6210   22.3640 C   0  0  0  0  0  0  0  0  0  0  0  0
   12.8490    6.3820   22.9450 C   0  0  0  0  0  0  0  0  0  0  0  0
   13.4130    7.4010   22.6160 O   0  0  0  0  0  0  0  0  0  0  0  0
  1  2  1  0
  2  3  2  0
  3  4  1  0
  4  5  1  0
  5  6  2  0
  6  7  1  0
  7  8  2  0
  8  9  1  0
  9 10  2  0
 10 11  1  0
  7 12  1  0
 11 12  2  0
  5 13  1  0
 12 13  1  0
  4 14  2  0
 14 15  1  0
  2 16  1  0
 15 16  2  0
 16 17  1  0
M  END
