CAS-DEP-751a2458-6
     RDKit          3D

 18 19  0  0  0  0  0  0  0  0999 V2000
    7.0890    4.5320   26.0470 C   0  0  0  0  0  0  0  0  0  0  0  0
    6.7620    3.2450   26.7710 C   0  0  0  0  0  0  0  0  0  0  0  0
    5.7100    3.5230   27.8310 N   0  0  0  0  0  0  0  0  0  0  0  0
    5.3470    2.4740   28.5300 C   0  0  0  0  0  0  0  0  0  0  0  0
    5.9080    1.0550   28.3340 C   0  0  0  0  0  0  0  0  0  0  0  0
    6.9570    0.8290   27.2630 C   0  0  0  0  0  0  0  0  0  0  0  0
    7.3880    2.0210   26.4430 C   0  0  0  0  0  0  0  0  0  0  0  0
    8.3480    1.9830   25.4080 N   0  0  0  0  0  0  0  0  0  0  0  0
    9.3070    1.0120   25.1980 C   0  0  0  0  0  0  0  0  0  0  0  0
    9.3530   -0.0870   25.7340 O   0  0  0  0  0  0  0  0  0  0  0  0
   10.0830    1.3930   24.4230 N   0  0  0  0  0  0  0  0  0  0  0  0
   11.0110    0.6190   23.7150 C   0  0  0  0  0  0  0  0  0  0  0  0
   12.2290    1.1180   23.2500 C   0  0  0  0  0  0  0  0  0  0  0  0
   13.0350    0.2230   22.5640 C   0  0  0  0  0  0  0  0  0  0  0  0
   12.7110   -1.0980   22.3090 C   0  0  0  0  0  0  0  0  0  0  0  0
   13.5280   -1.8880   21.6310 F   0  0  0  0  0  0  0  0  0  0  0  0
   11.5080   -1.5870   22.7750 C   0  0  0  0  0  0  0  0  0  0  0  0
   10.6570   -0.7270   23.4800 C   0  0  0  0  0  0  0  0  0  0  0  0
  1  2  1  0
  2  3  2  0
  3  4  1  0
  4  5  2  0
  5  6  1  0
  2  7  1  0
  6  7  2  0
  7  8  1  0
  8  9  1  0
  9 10  2  0
  9 11  1  0
 11 12  1  0
 12 13  2  0
 13 14  1  0
 14 15  2  0
 15 16  1  0
 15 17  1  0
 12 18  1  0
 17 18  2  0
M  END
