CAS-DEP-751a2458-1
     RDKit          3D

 18 20  0  0  0  0  0  0  0  0999 V2000
   13.0350    3.1200   22.6220 C   0  0  0  0  0  0  0  0  0  0  0  0
   12.6620    1.6390   22.8550 C   0  0  0  0  0  0  0  0  0  0  0  0
   12.9730    0.2030   22.7710 C   0  0  0  0  0  0  0  0  0  0  0  0
   12.0350   -0.9260   23.2480 C   0  0  0  0  0  0  0  0  0  0  0  0
   10.7100   -0.4850   23.8340 C   0  0  0  0  0  0  0  0  0  0  0  0
   10.4560    1.0120   23.8740 C   0  0  0  0  0  0  0  0  0  0  0  0
    9.3820    1.7740   24.3160 N   0  0  0  0  0  0  0  0  0  0  0  0
    9.7080    3.0560   24.0890 C   0  0  0  0  0  0  0  0  0  0  0  0
    9.0180    4.2570   24.2990 C   0  0  0  0  0  0  0  0  0  0  0  0
    7.8120    4.3220   25.0050 C   0  0  0  0  0  0  0  0  0  0  0  0
    7.1710    5.5680   25.1730 C   0  0  0  0  0  0  0  0  0  0  0  0
    7.7600    6.7180   24.6240 C   0  0  0  0  0  0  0  0  0  0  0  0
    7.1810    7.9460   24.7580 O   0  0  0  0  0  0  0  0  0  0  0  0
    8.9540    6.6520   23.9220 C   0  0  0  0  0  0  0  0  0  0  0  0
    9.5880    5.4250   23.7560 C   0  0  0  0  0  0  0  0  0  0  0  0
   10.7790    5.3740   23.0500 O   0  0  0  0  0  0  0  0  0  0  0  0
   10.8910    3.1500   23.5640 N   0  0  0  0  0  0  0  0  0  0  0  0
   11.4420    1.8510   23.3900 C   0  0  0  0  0  0  0  0  0  0  0  0
  1  2  1  0
  2  3  2  0
  3  4  1  0
  4  5  2  0
  5  6  1  0
  6  7  1  0
  7  8  2  0
  8  9  1  0
  9 10  2  0
 10 11  1  0
 11 12  2  0
 12 13  1  0
 12 14  1  0
  9 15  1  0
 14 15  2  0
 15 16  1  0
  8 17  1  0
  2 18  1  0
  6 18  2  0
 17 18  1  0
M  END
