CAS-DEP-e179b1f5-1
     RDKit          3D

 24 26  0  0  0  0  0  0  0  0999 V2000
   13.8770   -2.6140   20.3920 O   0  0  0  0  0  0  0  0  0  0  0  0
   13.9100   -1.4080   20.5720 C   0  0  0  0  0  0  0  0  0  0  0  0
   14.3720   -0.3090   19.6700 N   0  0  0  0  0  0  0  0  0  0  0  0
   15.2470    0.2210   18.5160 C   0  0  0  0  0  0  0  0  0  0  0  0
   15.1130    0.3560   17.0030 C   0  0  0  0  0  0  0  0  0  0  0  0
   16.1700    0.7750   16.2430 C   0  0  0  0  0  0  0  0  0  0  0  0
   17.3570    0.7450   16.7770 C   0  0  0  0  0  0  0  0  0  0  0  0
   17.4370    0.3600   18.0320 C   0  0  0  0  0  0  0  0  0  0  0  0
   16.3970    0.8390   18.8090 C   0  0  1  0  0  0  0  0  0  0  0  0
   16.1360    2.4190   19.5000 C   0  0  0  0  0  0  0  0  0  0  0  0
   15.1680    2.3500   20.5720 O   0  0  0  0  0  0  0  0  0  0  0  0
   17.0540    3.7030   19.9190 N   0  0  0  0  0  0  0  0  0  0  0  0
   17.7780    4.3380   21.3190 C   0  0  0  0  0  0  0  0  0  0  0  0
   18.8240    5.4600   21.0040 C   0  0  0  0  0  0  0  0  0  0  0  0
   19.5100    5.9050   22.2520 C   0  0  0  0  0  0  0  0  0  0  0  0
   18.8340    5.0610   23.2780 C   0  0  0  0  0  0  0  0  0  0  0  0
   17.7160    4.1000   22.7950 C   0  0  0  0  0  0  0  0  0  0  0  0
   13.4890   -1.0440   21.8610 N   0  0  0  0  0  0  0  0  0  0  0  0
   12.9310    0.1190   22.4300 C   0  0  0  0  0  0  0  0  0  0  0  0
   11.9500    0.5710   23.1100 C   0  0  0  0  0  0  0  0  0  0  0  0
   11.5150    1.6960   23.6080 C   0  0  0  0  0  0  0  0  0  0  0  0
   10.4700    1.0470   24.0920 C   0  0  0  0  0  0  0  0  0  0  0  0
   10.6720   -0.2950   23.6850 N   0  0  0  0  0  0  0  0  0  0  0  0
   11.8370   -0.7220   22.9040 C   0  0  0  0  0  0  0  0  0  0  0  0
  1  2  2  0
  2  3  1  0
  3  4  1  0
  4  5  2  0
  5  6  1  0
  6  7  2  0
  7  8  1  0
  4  9  1  0
  8  9  1  0
  9 10  1  6
 10 11  2  0
 10 12  1  0
 12 13  1  0
 13 14  2  0
 14 15  1  0
 15 16  2  0
 13 17  1  0
 16 17  1  0
  2 18  1  0
 18 19  1  0
 19 20  2  0
 20 21  1  0
 21 22  2  0
 22 23  1  0
 19 24  1  0
 23 24  2  0
M  END
