CAS-DEP-751a2458-5
     RDKit          3D

 17 18  0  0  0  0  0  0  0  0999 V2000
    9.4670    0.0030   25.1400 C   0  0  0  0  0  0  0  0  0  0  0  0
   10.6450    0.4460   24.2940 C   0  0  0  0  0  0  0  0  0  0  0  0
   11.9410   -0.0560   23.6290 C   0  0  0  0  0  0  0  0  0  0  0  0
   12.9800    0.7970   22.7710 C   0  0  0  0  0  0  0  0  0  0  0  0
   12.4110    2.1460   22.7780 C   0  0  0  0  0  0  0  0  0  0  0  0
   12.6700    3.4630   22.2860 N   0  0  0  0  0  0  0  0  0  0  0  0
   12.3790    4.7150   22.8650 C   0  0  0  0  0  0  0  0  0  0  0  0
   11.2790    5.1880   23.1520 O   0  0  0  0  0  0  0  0  0  0  0  0
   13.6000    5.3920   23.0560 N   0  0  0  0  0  0  0  0  0  0  0  0
   14.7810    4.9220   22.5580 C   0  0  0  0  0  0  0  0  0  0  0  0
   14.7520    4.4970   21.2880 C   0  0  0  0  0  0  0  0  0  0  0  0
   16.0950    4.0420   21.0030 N   0  0  0  0  0  0  0  0  0  0  0  0
   16.7780    4.2580   22.1560 N   0  0  0  0  0  0  0  0  0  0  0  0
   16.0350    4.7970   23.1390 C   0  0  0  0  0  0  0  0  0  0  0  0
   11.4520    1.5560   23.5090 C   0  0  0  0  0  0  0  0  0  0  0  0
   10.3560    1.8770   24.0860 C   0  0  0  0  0  0  0  0  0  0  0  0
   10.5890    3.1530   23.6000 C   0  0  0  0  0  0  0  0  0  0  0  0
  1  2  1  0
  2  3  2  0
  3  4  1  0
  4  5  2  0
  5  6  1  0
  6  7  1  0
  7  8  2  0
  7  9  1  0
  9 10  1  0
 10 11  1  0
 11 12  2  0
 12 13  1  0
 10 14  2  0
 13 14  1  0
  5 15  1  0
  2 16  1  0
 15 16  2  0
 16 17  1  0
M  END
