CHA-KIN-ceadbd93-5-vinylsulfonamide
     RDKit          3D

 23 24  0  0  0  0  0  0  0  0999 V2000
    7.4920   -3.5670   19.8840 C   0  0  0  0  0  0  0  0  0  0  0  0
    6.9150   -4.5930   20.8850 C   0  0  0  0  0  0  0  0  0  0  0  0
    6.1570   -3.9060   22.3110 S   0  0  0  0  0  0  0  0  0  0  0  0
    4.8150   -3.4810   21.8250 O   0  0  0  0  0  0  0  0  0  0  0  0
    6.1600   -4.9930   23.2670 O   0  0  0  0  0  0  0  0  0  0  0  0
    7.2860   -2.5920   23.1210 C   0  0  0  0  0  0  0  0  0  0  0  0
    8.5550   -2.0870   22.3150 C   0  0  0  0  0  0  0  0  0  0  0  0
    8.4420   -0.6680   21.7500 C   0  0  0  0  0  0  0  0  0  0  0  0
    9.3840    0.1190   21.6090 O   0  0  0  0  0  0  0  0  0  0  0  0
    7.1320   -0.4430   21.4510 N   0  0  0  0  0  0  0  0  0  0  0  0
    6.5580    0.1050   20.3060 C   0  0  0  0  0  0  0  0  0  0  0  0
    7.0350   -0.1460   18.8800 C   0  0  0  0  0  0  0  0  0  0  0  0
    6.4210    0.4380   17.7580 N   0  0  0  0  0  0  0  0  0  0  0  0
    5.3240    1.2780   17.9300 C   0  0  0  0  0  0  0  0  0  0  0  0
    4.8690    1.5030   19.3490 C   0  0  0  0  0  0  0  0  0  0  0  0
    5.4530    0.9460   20.4860 C   0  0  0  0  0  0  0  0  0  0  0  0
    4.8990    1.2480   21.8590 C   0  0  0  0  0  0  0  0  0  0  0  0
    3.6530    0.5640   21.9700 O   0  0  0  0  0  0  0  0  0  0  0  0
    7.8960   -3.3030   24.3790 C   0  0  0  0  0  0  0  0  0  0  0  0
    8.2260   -2.4020   25.3980 C   0  0  0  0  0  0  0  0  0  0  0  0
    7.0940   -1.7920   25.9540 C   0  0  0  0  0  0  0  0  0  0  0  0
    5.9870   -1.6670   25.1120 C   0  0  0  0  0  0  0  0  0  0  0  0
    6.3550   -1.4930   23.6540 C   0  0  0  0  0  0  0  0  0  0  0  0
  1  2  1  0
  3  2  1  0
  3  4  2  0
  3  5  2  0
  3  6  1  0
  6  7  1  0
  7  8  1  0
  8  9  2  0
  8 10  1  0
 10 11  1  0
 11 12  2  0
 12 13  1  0
 13 14  2  0
 14 15  1  0
 11 16  1  0
 15 16  2  0
 16 17  1  0
 17 18  1  0
  6 19  1  0
 19 20  1  0
 20 21  1  0
 21 22  1  0
  6 23  1  0
 22 23  1  0
M  END
