CHA-KIN-cd2ef30b-1
     RDKit          3D

 29 30  0  0  0  0  0  0  0  0999 V2000
    5.4080    1.4380   22.0020 C   0  0  0  0  0  0  0  0  0  0  0  0
    5.7670    1.0160   20.6020 C   0  0  0  0  0  0  0  0  0  0  0  0
    4.8920    1.5810   19.5060 C   0  0  0  0  0  0  0  0  0  0  0  0
    5.1450    1.2520   18.1890 C   0  0  0  0  0  0  0  0  0  0  0  0
    6.1850    0.4120   17.9070 N   0  0  0  0  0  0  0  0  0  0  0  0
    6.9640   -0.0920   18.9010 C   0  0  0  0  0  0  0  0  0  0  0  0
    6.8200    0.1670   20.2560 C   0  0  0  0  0  0  0  0  0  0  0  0
    7.6390   -0.3580   21.2480 N   0  0  0  0  0  0  0  0  0  0  0  0
    8.6180    0.5620   21.8820 C   0  0  0  0  0  0  0  0  0  0  0  0
    8.9020    1.6690   21.3740 O   0  0  0  0  0  0  0  0  0  0  0  0
    9.2130    0.0380   23.1390 N   0  0  0  0  0  0  0  0  0  0  0  0
    8.2590   -0.1620   24.2800 C   0  0  0  0  0  0  0  0  0  0  0  0
    8.1260   -1.6630   24.7180 C   0  0  0  0  0  0  0  0  0  0  0  0
    6.9500   -1.8780   25.7080 C   0  0  0  0  0  0  0  0  0  0  0  0
    7.0680   -3.3260   26.6340 S   0  0  0  0  0  0  0  0  0  0  0  0
    6.0980   -4.2760   26.1380 O   0  0  0  0  0  0  0  0  0  0  0  0
    7.1410   -3.0160   28.0410 O   0  0  0  0  0  0  0  0  0  0  0  0
    8.5580   -3.9510   26.2010 N   0  0  0  0  0  0  0  0  0  0  0  0
    8.5950   -4.6710   25.0500 C   0  0  0  0  0  0  0  0  0  0  0  0
    7.3800   -4.7700   24.1150 C   0  0  0  0  0  0  0  0  0  0  0  0
    7.7730   -4.8050   22.6550 C   0  0  0  0  0  0  0  0  0  0  0  0
    8.6110   -3.8150   22.2250 N   0  0  0  0  0  0  0  0  0  0  0  0
    7.3240   -5.7000   21.9350 O   0  0  0  0  0  0  0  0  0  0  0  0
   10.5350   -0.4660   23.2480 C   0  0  0  0  0  0  0  0  0  0  0  0
   10.7210   -1.4560   22.2700 C   0  0  0  0  0  0  0  0  0  0  0  0
   12.0260   -1.9470   22.1220 C   0  0  0  0  0  0  0  0  0  0  0  0
   13.1100   -1.1440   22.4280 C   0  0  0  0  0  0  0  0  0  0  0  0
   12.8930   -0.0120   23.1960 C   0  0  0  0  0  0  0  0  0  0  0  0
   11.5920    0.4560   23.3130 C   0  0  0  0  0  0  0  0  0  0  0  0
  1  2  1  0
  2  3  2  0
  3  4  1  0
  4  5  2  0
  5  6  1  0
  2  7  1  0
  6  7  2  0
  7  8  1  0
  8  9  1  0
  9 10  2  0
  9 11  1  0
 11 12  1  0
 12 13  1  0
 13 14  1  0
 14 15  1  0
 15 16  2  0
 15 17  2  0
 15 18  1  0
 18 19  1  0
 19 20  1  0
 20 21  1  0
 21 22  1  0
 21 23  2  0
 11 24  1  0
 24 25  1  0
 25 26  1  0
 26 27  1  0
 27 28  1  0
 24 29  1  0
 28 29  1  0
M  END
