CHA-KIN-bfe9b535-4
     RDKit          3D

 36 38  0  0  0  0  0  0  0  0999 V2000
    5.8150    9.0230   23.5150 C   0  0  0  0  0  0  0  0  0  0  0  0
    6.7740    8.0580   23.3170 N   0  0  0  0  0  0  0  0  0  0  0  0
    8.1140    8.2320   23.5000 C   0  0  0  0  0  0  0  0  0  0  0  0
    8.7140    7.0440   23.1960 C   0  0  0  0  0  0  0  0  0  0  0  0
   10.3710    6.6900   23.2490 Cl  0  0  0  0  0  0  0  0  0  0  0  0
    7.6710    6.1640   22.8240 C   0  0  0  0  0  0  0  0  0  0  0  0
    8.0640    4.7620   22.4240 N   0  0  0  0  0  0  0  0  0  0  0  0
    7.3640    3.6400   22.8020 C   0  0  0  0  0  0  0  0  0  0  0  0
    6.3220    3.5400   23.6870 O   0  0  0  0  0  0  0  0  0  0  0  0
    7.8510    2.5320   22.1470 N   0  0  0  0  0  0  0  0  0  0  0  0
    7.7110    1.3970   22.9140 C   0  0  1  0  0  0  0  0  0  0  0  0
    6.5220    0.7470   22.5770 C   0  0  0  0  0  0  0  0  0  0  0  0
    6.2570    0.7290   21.0730 C   0  0  0  0  0  0  0  0  0  0  0  0
    5.3310    1.6070   20.5260 C   0  0  0  0  0  0  0  0  0  0  0  0
    5.0870    1.5950   19.0900 C   0  0  0  0  0  0  0  0  0  0  0  0
    5.7960    0.7010   18.3260 C   0  0  0  0  0  0  0  0  0  0  0  0
    5.6160    0.6800   17.1470 O   0  0  0  0  0  0  0  0  0  0  0  0
    6.7120   -0.1790   18.8530 C   0  0  0  0  0  0  0  0  0  0  0  0
    6.9480   -0.1680   20.2310 C   0  0  0  0  0  0  0  0  0  0  0  0
    8.8850    0.6830   22.6150 C   0  0  0  0  0  0  0  0  0  0  0  0
    9.7570    1.1750   21.9250 O   0  0  0  0  0  0  0  0  0  0  0  0
    8.9800   -0.6080   23.1630 N   0  0  0  0  0  0  0  0  0  0  0  0
    9.4880   -1.6150   22.2350 C   0  0  1  0  0  0  0  0  0  0  0  0
   10.6330   -2.5330   22.7400 C   0  0  0  0  0  0  0  0  0  0  0  0
   11.8430   -1.9630   22.4420 N   0  0  0  0  0  0  0  0  0  0  0  0
   12.8680   -1.6040   23.6880 S   0  0  0  0  0  0  0  0  0  0  0  0
   13.8700   -2.9070   23.5880 N   0  0  0  0  0  0  0  0  0  0  0  0
   13.5480   -0.4000   23.2720 O   0  0  0  0  0  0  0  0  0  0  0  0
   12.1310   -1.7020   24.9180 O   0  0  0  0  0  0  0  0  0  0  0  0
    8.8760   -2.9850   22.5100 C   0  0  0  0  0  0  0  0  0  0  0  0
    9.3980   -3.9850   23.3510 C   0  0  0  0  0  0  0  0  0  0  0  0
    8.7620   -5.2160   23.5530 C   0  0  0  0  0  0  0  0  0  0  0  0
    7.5660   -5.5770   22.9600 C   0  0  0  0  0  0  0  0  0  0  0  0
    6.9920   -4.6370   22.1200 C   0  0  0  0  0  0  0  0  0  0  0  0
    7.6570   -3.2850   21.8700 C   0  0  0  0  0  0  0  0  0  0  0  0
    6.4710    6.7920   22.9020 N   0  0  0  0  0  0  0  0  0  0  0  0
  1  2  1  0
  2  3  1  0
  3  4  2  0
  4  5  1  0
  4  6  1  0
  6  7  1  0
  7  8  1  0
  8  9  2  0
  8 10  1  0
 10 11  1  0
 11 12  1  6
 12 13  1  0
 13 14  2  0
 14 15  1  0
 15 16  2  0
 16 17  1  0
 16 18  1  0
 13 19  1  0
 18 19  2  0
 11 20  1  0
 20 21  2  0
 20 22  1  0
 22 23  1  0
 23 24  1  1
 24 25  1  0
 26 25  1  0
 26 27  1  0
 26 28  2  0
 26 29  2  0
 23 30  1  0
 30 31  2  0
 31 32  1  0
 32 33  2  0
 33 34  1  0
 30 35  1  0
 34 35  2  0
  2 36  1  0
  6 36  2  0
M  END
