CHA-KIN-bfe9b535-1
     RDKit          3D

 34 36  0  0  0  0  0  0  0  0999 V2000
    4.7770    7.6080   21.2640 N   0  0  0  0  0  0  0  0  0  0  0  0
    5.7150    8.1250   22.5550 S   0  0  0  0  0  0  0  0  0  0  0  0
    6.2380    9.4390   22.2500 O   0  0  0  0  0  0  0  0  0  0  0  0
    4.9400    7.8830   23.7530 O   0  0  0  0  0  0  0  0  0  0  0  0
    6.9540    7.0030   22.5420 N   0  0  0  0  0  0  0  0  0  0  0  0
    6.6400    5.5800   22.8440 C   0  0  0  0  0  0  0  0  0  0  0  0
    7.9380    4.8200   22.9920 C   0  0  2  0  0  0  0  0  0  0  0  0
    7.6600    3.3800   23.1170 N   0  0  0  0  0  0  0  0  0  0  0  0
    8.2680    2.4940   22.3240 C   0  0  0  0  0  0  0  0  0  0  0  0
    9.1010    2.7870   21.4750 O   0  0  0  0  0  0  0  0  0  0  0  0
    8.0940    1.0790   22.2320 C   0  0  2  0  0  0  0  0  0  0  0  0
    6.7950    0.6730   22.4050 C   0  0  0  0  0  0  0  0  0  0  0  0
    6.3410    0.7020   21.1240 C   0  0  0  0  0  0  0  0  0  0  0  0
    6.9200   -0.2100   20.2480 C   0  0  0  0  0  0  0  0  0  0  0  0
    6.5250   -0.2170   18.8080 C   0  0  0  0  0  0  0  0  0  0  0  0
    5.5960    0.6750   18.3570 C   0  0  0  0  0  0  0  0  0  0  0  0
    5.2900    0.6610   17.0860 O   0  0  0  0  0  0  0  0  0  0  0  0
    5.0040    1.6000   19.3190 C   0  0  0  0  0  0  0  0  0  0  0  0
    5.3660    1.6100   20.6590 C   0  0  0  0  0  0  0  0  0  0  0  0
    9.0520    0.3930   22.9220 N   0  0  0  0  0  0  0  0  0  0  0  0
    8.9170   -1.0210   23.0200 C   0  0  0  0  0  0  0  0  0  0  0  0
    8.0760   -1.5280   23.7550 O   0  0  0  0  0  0  0  0  0  0  0  0
    9.8580   -1.7630   22.1680 N   0  0  0  0  0  0  0  0  0  0  0  0
   11.2790   -1.4050   22.2970 C   0  0  0  0  0  0  0  0  0  0  0  0
   12.6330   -1.3470   22.7790 C   0  0  0  0  0  0  0  0  0  0  0  0
   13.4710   -1.8990   23.8260 C   0  0  0  0  0  0  0  0  0  0  0  0
   12.1580   -2.7700   24.4050 S   0  0  0  0  0  0  0  0  0  0  0  0
   10.9950   -2.2940   23.3120 C   0  0  0  0  0  0  0  0  0  0  0  0
    8.9590    5.1000   23.9040 C   0  0  0  0  0  0  0  0  0  0  0  0
    8.8320    4.9190   25.2960 C   0  0  0  0  0  0  0  0  0  0  0  0
    9.8960    5.2240   26.1630 C   0  0  0  0  0  0  0  0  0  0  0  0
   11.1280    5.7160   25.7300 C   0  0  0  0  0  0  0  0  0  0  0  0
   11.3010    5.9090   24.3730 C   0  0  0  0  0  0  0  0  0  0  0  0
   10.1790    5.5940   23.4010 C   0  0  0  0  0  0  0  0  0  0  0  0
  2  1  1  0
  2  3  2  0
  2  4  2  0
  2  5  1  0
  5  6  1  0
  7  6  1  1
  7  8  1  0
  8  9  1  0
  9 10  2  0
  9 11  1  0
 11 12  1  1
 12 13  1  0
 13 14  2  0
 14 15  1  0
 15 16  2  0
 16 17  1  0
 16 18  1  0
 13 19  1  0
 18 19  2  0
 11 20  1  0
 20 21  1  0
 21 22  2  0
 21 23  1  0
 23 24  1  0
 24 25  1  0
 25 26  2  0
 26 27  1  0
 24 28  2  0
 27 28  1  0
  7 29  1  0
 29 30  2  0
 30 31  1  0
 31 32  2  0
 32 33  1  0
 29 34  1  0
 33 34  2  0
M  END
