CHA-KIN-cd2ef30b-2
     RDKit          3D

 30 32  0  0  0  0  0  0  0  0999 V2000
    1.7980    1.7190   20.5340 C   0  0  0  0  0  0  0  0  0  0  0  0
    1.6820    1.3130   21.9870 C   0  0  0  0  0  0  0  0  0  0  0  0
    0.3490    1.6230   22.6310 C   0  0  0  0  0  0  0  0  0  0  0  0
    0.1300    1.2940   23.9590 C   0  0  0  0  0  0  0  0  0  0  0  0
    1.1350    0.6920   24.6710 N   0  0  0  0  0  0  0  0  0  0  0  0
    2.3340    0.4170   24.0780 C   0  0  0  0  0  0  0  0  0  0  0  0
    2.6760    0.6950   22.7500 C   0  0  0  0  0  0  0  0  0  0  0  0
    3.9030    0.3970   22.1610 N   0  0  0  0  0  0  0  0  0  0  0  0
    5.1290    0.6810   22.9490 C   0  0  0  0  0  0  0  0  0  0  0  0
    5.0610    0.9670   24.1460 O   0  0  0  0  0  0  0  0  0  0  0  0
    6.4020    0.5940   22.1990 N   0  0  0  0  0  0  0  0  0  0  0  0
    7.5010    1.2780   22.9120 C   0  0  0  0  0  0  0  0  0  0  0  0
    8.8400    0.4960   22.7950 C   0  0  0  0  0  0  0  0  0  0  0  0
    8.7260   -1.0000   23.1440 C   0  0  0  0  0  0  0  0  0  0  0  0
    9.8420   -1.9040   22.2470 S   0  0  0  0  0  0  0  0  0  0  0  0
    9.2870   -3.2120   22.0170 O   0  0  0  0  0  0  0  0  0  0  0  0
   10.2830   -1.0140   21.2290 O   0  0  0  0  0  0  0  0  0  0  0  0
   11.2120   -2.1000   23.1920 N   0  0  0  0  0  0  0  0  0  0  0  0
   12.2780   -1.2990   22.9010 C   0  0  0  0  0  0  0  0  0  0  0  0
   12.1210    0.2300   22.8840 C   0  0  0  0  0  0  0  0  0  0  0  0
   13.2220    1.2070   22.8080 C   0  0  0  0  0  0  0  0  0  0  0  0
   12.6100    2.5550   22.8100 C   0  0  0  0  0  0  0  0  0  0  0  0
   11.1760    2.4280   22.8850 N   0  0  0  0  0  0  0  0  0  0  0  0
   10.9780    1.0240   22.9250 N   0  0  0  0  0  0  0  0  0  0  0  0
    6.3830    0.6440   20.7810 C   0  0  0  0  0  0  0  0  0  0  0  0
    5.4990    1.6450   20.3090 C   0  0  0  0  0  0  0  0  0  0  0  0
    5.0710    1.4450   18.9880 C   0  0  0  0  0  0  0  0  0  0  0  0
    6.0230    0.7900   18.2210 C   0  0  0  0  0  0  0  0  0  0  0  0
    6.3700   -0.4580   18.7170 C   0  0  0  0  0  0  0  0  0  0  0  0
    6.3180   -0.5690   20.0940 C   0  0  0  0  0  0  0  0  0  0  0  0
  1  2  1  0
  2  3  2  0
  3  4  1  0
  4  5  2  0
  5  6  1  0
  2  7  1  0
  6  7  2  0
  7  8  1  0
  8  9  1  0
  9 10  2  0
  9 11  1  0
 11 12  1  0
 12 13  1  0
 13 14  1  0
 14 15  1  0
 15 16  2  0
 15 17  2  0
 15 18  1  0
 18 19  1  0
 19 20  1  0
 20 21  2  0
 21 22  1  0
 22 23  2  0
 20 24  1  0
 23 24  1  0
 11 25  1  0
 25 26  1  0
 26 27  1  0
 27 28  1  0
 28 29  1  0
 25 30  1  0
 29 30  1  0
M  END
