CHA-KIN-f512e507-3
     RDKit          3D

 27 28  0  0  0  0  0  0  0  0999 V2000
   13.6140   -2.8240   24.2240 C   0  0  0  0  0  0  0  0  0  0  0  0
   13.5020   -1.5130   23.8800 N   0  0  0  0  0  0  0  0  0  0  0  0
   12.6150   -1.1320   22.5110 S   0  0  0  0  0  0  0  0  0  0  0  0
   13.2250   -1.8080   21.3880 O   0  0  0  0  0  0  0  0  0  0  0  0
   12.3090    0.2800   22.5150 O   0  0  0  0  0  0  0  0  0  0  0  0
   11.1900   -1.9380   22.8550 N   0  0  0  0  0  0  0  0  0  0  0  0
   10.0470   -1.6910   21.9800 C   0  0  0  0  0  0  0  0  0  0  0  0
    9.0420   -0.8120   22.6880 C   0  0  0  0  0  0  0  0  0  0  0  0
    8.7820    0.4400   22.1630 C   0  0  0  0  0  0  0  0  0  0  0  0
    7.7320    1.1480   22.7290 C   0  0  0  0  0  0  0  0  0  0  0  0
    6.5080    0.7730   22.2450 N   0  0  0  0  0  0  0  0  0  0  0  0
    5.6580   -0.1010   23.1020 C   0  0  0  0  0  0  0  0  0  0  0  0
    5.4010   -1.2070   22.6420 O   0  0  0  0  0  0  0  0  0  0  0  0
    5.2110    0.4480   24.3990 N   0  0  0  0  0  0  0  0  0  0  0  0
    5.5370   -0.4750   25.5190 C   0  0  0  0  0  0  0  0  0  0  0  0
    5.3000   -1.9850   25.3560 C   0  0  0  0  0  0  0  0  0  0  0  0
    5.5470   -2.8870   26.2670 N   0  0  0  0  0  0  0  0  0  0  0  0
    6.0940   -2.5180   27.5950 C   0  0  0  0  0  0  0  0  0  0  0  0
    6.3710   -1.0340   27.8820 C   0  0  0  0  0  0  0  0  0  0  0  0
    6.0950    0.0470   26.8250 C   0  0  0  0  0  0  0  0  0  0  0  0
    6.3790    1.5370   27.1070 C   0  0  0  0  0  0  0  0  0  0  0  0
    6.3780    0.7420   20.8330 C   0  0  0  0  0  0  0  0  0  0  0  0
    5.1680    1.5320   20.3220 C   0  0  0  0  0  0  0  0  0  0  0  0
    5.0100    1.4880   18.9340 C   0  0  0  0  0  0  0  0  0  0  0  0
    5.9410    0.7630   18.1820 C   0  0  0  0  0  0  0  0  0  0  0  0
    6.4720   -0.3970   18.7400 C   0  0  0  0  0  0  0  0  0  0  0  0
    6.5800   -0.4500   20.1210 C   0  0  0  0  0  0  0  0  0  0  0  0
  1  2  1  0
  3  2  1  0
  3  4  2  0
  3  5  2  0
  3  6  1  0
  6  7  1  0
  7  8  1  0
  8  9  1  0
  9 10  1  0
 10 11  1  0
 11 12  1  0
 12 13  2  0
 12 14  1  0
 14 15  1  0
 15 16  2  0
 16 17  1  0
 17 18  2  0
 18 19  1  0
 15 20  1  0
 19 20  2  0
 20 21  1  0
 11 22  1  0
 22 23  1  0
 23 24  1  0
 24 25  1  0
 25 26  1  0
 22 27  1  0
 26 27  1  0
M  END
