CHA-KIN-ceadbd93-5-chloroacetamide
     RDKit          3D

 21 22  0  0  0  0  0  0  0  0999 V2000
    7.6490   -4.3690   20.5220 C   0  0  0  0  0  0  0  0  0  0  0  0
    6.5960   -3.3830   20.4850 C   0  0  0  0  0  0  0  0  0  0  0  0
    5.7390   -3.4300   19.5370 O   0  0  0  0  0  0  0  0  0  0  0  0
    6.8160   -2.4550   21.7390 C   0  0  0  0  0  0  0  0  0  0  0  0
    8.3240   -1.9490   21.6490 C   0  0  0  0  0  0  0  0  0  0  0  0
    8.4380   -0.4320   21.6360 C   0  0  0  0  0  0  0  0  0  0  0  0
    9.7360    0.1710   21.7110 O   0  0  0  0  0  0  0  0  0  0  0  0
    7.2500    0.1740   21.5430 N   0  0  0  0  0  0  0  0  0  0  0  0
    6.5930    0.4930   20.3570 C   0  0  0  0  0  0  0  0  0  0  0  0
    7.0140    0.0150   18.9750 C   0  0  0  0  0  0  0  0  0  0  0  0
    6.3610    0.3520   17.7870 N   0  0  0  0  0  0  0  0  0  0  0  0
    5.2490    1.1720   17.8940 C   0  0  0  0  0  0  0  0  0  0  0  0
    4.8110    1.6400   19.2630 C   0  0  0  0  0  0  0  0  0  0  0  0
    5.4680    1.3070   20.4510 C   0  0  0  0  0  0  0  0  0  0  0  0
    4.9820    1.8060   21.7930 C   0  0  0  0  0  0  0  0  0  0  0  0
    5.1080    2.9230   22.2410 O   0  0  0  0  0  0  0  0  0  0  0  0
    5.6800   -1.3900   21.7830 C   0  0  0  0  0  0  0  0  0  0  0  0
    5.3270   -1.1100   23.1160 C   0  0  0  0  0  0  0  0  0  0  0  0
    4.6190   -2.2470   23.5390 C   0  0  0  0  0  0  0  0  0  0  0  0
    5.3160   -3.4400   23.5550 C   0  0  0  0  0  0  0  0  0  0  0  0
    6.7080   -3.3030   23.0200 C   0  0  0  0  0  0  0  0  0  0  0  0
  1  2  1  0
  2  3  2  0
  4  2  1  0
  4  5  1  0
  5  6  1  0
  6  7  2  0
  6  8  1  0
  8  9  1  0
  9 10  2  0
 10 11  1  0
 11 12  2  0
 12 13  1  0
  9 14  1  0
 13 14  2  0
 14 15  1  0
 15 16  1  0
  4 17  1  0
 17 18  1  0
 18 19  1  0
 19 20  1  0
  4 21  1  0
 20 21  1  0
M  END
