CHA-KIN-f512e507-2
     RDKit          3D

 26 27  0  0  0  0  0  0  0  0999 V2000
    4.2060   -3.4630   23.8620 C   0  0  0  0  0  0  0  0  0  0  0  0
    3.5860   -2.2270   24.4700 C   0  0  0  0  0  0  0  0  0  0  0  0
    2.4820   -2.4770   25.4730 C   0  0  0  0  0  0  0  0  0  0  0  0
    1.8460   -1.4080   26.0820 C   0  0  0  0  0  0  0  0  0  0  0  0
    2.2330   -0.1330   25.7620 N   0  0  0  0  0  0  0  0  0  0  0  0
    3.2350    0.0810   24.8530 C   0  0  0  0  0  0  0  0  0  0  0  0
    3.9490   -0.9110   24.1750 C   0  0  0  0  0  0  0  0  0  0  0  0
    4.9730   -0.7030   23.2450 N   0  0  0  0  0  0  0  0  0  0  0  0
    5.5250    0.6660   23.0670 C   0  0  0  0  0  0  0  0  0  0  0  0
    5.0910    1.6310   23.7010 O   0  0  0  0  0  0  0  0  0  0  0  0
    6.6210    0.7440   22.0830 N   0  0  0  0  0  0  0  0  0  0  0  0
    7.8230    1.4600   22.5270 C   0  0  0  0  0  0  0  0  0  0  0  0
    9.0410    0.6160   22.0750 C   0  0  0  0  0  0  0  0  0  0  0  0
    9.1330   -0.7620   22.7350 C   0  0  0  0  0  0  0  0  0  0  0  0
   10.1800   -1.7160   22.1380 C   0  0  0  0  0  0  0  0  0  0  0  0
   11.2090   -2.0290   22.9910 N   0  0  0  0  0  0  0  0  0  0  0  0
   12.7730   -1.5440   22.6580 S   0  0  0  0  0  0  0  0  0  0  0  0
   13.5560   -2.3840   23.8670 N   0  0  0  0  0  0  0  0  0  0  0  0
   12.8510   -0.1380   22.9850 O   0  0  0  0  0  0  0  0  0  0  0  0
   13.1170   -2.0790   21.3580 O   0  0  0  0  0  0  0  0  0  0  0  0
    6.3810    0.8000   20.7550 C   0  0  0  0  0  0  0  0  0  0  0  0
    5.0500    1.4580   20.3970 C   0  0  0  0  0  0  0  0  0  0  0  0
    4.8680    1.4440   18.8720 C   0  0  0  0  0  0  0  0  0  0  0  0
    5.8470    0.7150   18.1840 C   0  0  0  0  0  0  0  0  0  0  0  0
    6.3560   -0.4540   18.7670 C   0  0  0  0  0  0  0  0  0  0  0  0
    6.5610   -0.4360   20.1360 C   0  0  0  0  0  0  0  0  0  0  0  0
  1  2  1  0
  2  3  2  0
  3  4  1  0
  4  5  2  0
  5  6  1  0
  2  7  1  0
  6  7  2  0
  7  8  1  0
  8  9  1  0
  9 10  2  0
  9 11  1  0
 11 12  1  0
 12 13  1  0
 13 14  1  0
 14 15  1  0
 15 16  1  0
 17 16  1  0
 17 18  1  0
 17 19  2  0
 17 20  2  0
 11 21  1  0
 21 22  1  0
 22 23  1  0
 23 24  1  0
 24 25  1  0
 21 26  1  0
 25 26  1  0
M  END
