CHA-MCP-85291e1d-5
     RDKit          3D

 21 22  0  0  0  0  0  0  0  0999 V2000
    9.9650   -4.8480   22.2620 N   0  0  0  0  0  0  0  0  0  0  0  0
    8.9580   -5.8770   23.0990 S   0  0  0  0  0  0  0  0  0  0  0  0
    9.6850   -7.1060   23.2120 O   0  0  0  0  0  0  0  0  0  0  0  0
    7.6860   -5.8310   22.3990 O   0  0  0  0  0  0  0  0  0  0  0  0
    8.8500   -5.0660   24.6990 C   0  0  0  0  0  0  0  0  0  0  0  0
    8.4240   -3.6200   24.4470 C   0  0  0  0  0  0  0  0  0  0  0  0
    7.1360   -3.1320   25.1040 C   0  0  0  0  0  0  0  0  0  0  0  0
    6.6910   -1.7130   24.8640 C   0  0  0  0  0  0  0  0  0  0  0  0
    7.5480   -0.8570   23.9940 C   0  0  0  0  0  0  0  0  0  0  0  0
    8.7420   -1.3510   23.4070 C   0  0  0  0  0  0  0  0  0  0  0  0
    9.5190   -0.5140   22.5980 C   0  0  0  0  0  0  0  0  0  0  0  0
    8.6940    0.0060   21.6180 C   0  0  0  0  0  0  0  0  0  0  0  0
    9.0570    1.3510   21.2090 O   0  0  0  0  0  0  0  0  0  0  0  0
    7.6720   -0.7220   21.1880 N   0  0  0  0  0  0  0  0  0  0  0  0
    6.8580   -0.0650   20.1330 C   0  0  0  0  0  0  0  0  0  0  0  0
    5.7680    0.7010   20.6300 C   0  0  0  0  0  0  0  0  0  0  0  0
    4.9440    1.3550   19.7120 C   0  0  0  0  0  0  0  0  0  0  0  0
    5.1950    1.2590   18.2190 C   0  0  0  0  0  0  0  0  0  0  0  0
    6.2710    0.4980   17.7340 N   0  0  0  0  0  0  0  0  0  0  0  0
    7.0910   -0.1630   18.7530 C   0  0  0  0  0  0  0  0  0  0  0  0
    9.1530   -2.7020   23.6350 C   0  0  0  0  0  0  0  0  0  0  0  0
  2  1  1  0
  2  3  2  0
  2  4  2  0
  2  5  1  0
  5  6  1  0
  6  7  2  0
  7  8  1  0
  8  9  2  0
  9 10  1  0
 10 11  1  0
 11 12  1  0
 12 13  2  0
 12 14  1  0
 14 15  1  0
 15 16  2  0
 16 17  1  0
 17 18  2  0
 18 19  1  0
 15 20  1  0
 19 20  2  0
  6 21  1  0
 10 21  2  0
M  END
