CHA-KIN-f512e507-1
     RDKit          3D

 25 26  0  0  0  0  0  0  0  0999 V2000
    2.7810    1.1940   20.9830 C   0  0  0  0  0  0  0  0  0  0  0  0
    2.2720    0.9610   22.3870 C   0  0  0  0  0  0  0  0  0  0  0  0
    0.9060    1.5520   22.6640 C   0  0  0  0  0  0  0  0  0  0  0  0
    0.3290    1.4010   23.9150 C   0  0  0  0  0  0  0  0  0  0  0  0
    1.0100    0.7160   24.8850 N   0  0  0  0  0  0  0  0  0  0  0  0
    2.2420    0.1880   24.6240 C   0  0  0  0  0  0  0  0  0  0  0  0
    2.9310    0.2680   23.4110 C   0  0  0  0  0  0  0  0  0  0  0  0
    4.1910   -0.2910   23.1850 N   0  0  0  0  0  0  0  0  0  0  0  0
    5.3720    0.5880   23.3890 C   0  0  0  0  0  0  0  0  0  0  0  0
    5.4600    1.3280   24.3720 O   0  0  0  0  0  0  0  0  0  0  0  0
    6.3990    0.4860   22.3390 N   0  0  0  0  0  0  0  0  0  0  0  0
    7.7030    1.0970   22.7130 C   0  0  0  0  0  0  0  0  0  0  0  0
    8.8870    0.3680   22.0160 C   0  0  0  0  0  0  0  0  0  0  0  0
    9.2690   -0.9860   22.6440 C   0  0  0  0  0  0  0  0  0  0  0  0
   10.2980   -1.6300   21.9110 N   0  0  0  0  0  0  0  0  0  0  0  0
   11.8980   -1.2180   22.2290 S   0  0  0  0  0  0  0  0  0  0  0  0
   12.3110   -2.2250   23.4720 N   0  0  0  0  0  0  0  0  0  0  0  0
   12.6860   -1.6590   21.0990 O   0  0  0  0  0  0  0  0  0  0  0  0
   11.9070    0.1480   22.7110 O   0  0  0  0  0  0  0  0  0  0  0  0
    5.9570    0.3940   21.0390 C   0  0  0  0  0  0  0  0  0  0  0  0
    6.6790   -0.6350   20.1610 C   0  0  0  0  0  0  0  0  0  0  0  0
    6.5980   -0.3450   18.6570 C   0  0  0  0  0  0  0  0  0  0  0  0
    5.4320    0.5550   18.2260 C   0  0  0  0  0  0  0  0  0  0  0  0
    5.0980    1.5630   19.1290 C   0  0  0  0  0  0  0  0  0  0  0  0
    5.7530    1.5930   20.3670 C   0  0  0  0  0  0  0  0  0  0  0  0
  1  2  1  0
  2  3  2  0
  3  4  1  0
  4  5  2  0
  5  6  1  0
  2  7  1  0
  6  7  2  0
  7  8  1  0
  8  9  1  0
  9 10  2  0
  9 11  1  0
 11 12  1  0
 12 13  1  0
 13 14  1  0
 14 15  1  0
 16 15  1  0
 16 17  1  0
 16 18  2  0
 16 19  2  0
 11 20  1  0
 20 21  1  0
 21 22  1  0
 22 23  1  0
 23 24  1  0
 20 25  1  0
 24 25  1  0
M  END
