CHA-MCP-85291e1d-2
     RDKit          3D

 20 21  0  0  0  0  0  0  0  0999 V2000
    9.4990   -6.3150   24.1970 N   0  0  0  0  0  0  0  0  0  0  0  0
    8.9900   -5.7010   22.7620 S   0  0  0  0  0  0  0  0  0  0  0  0
    7.7540   -6.3870   22.4580 O   0  0  0  0  0  0  0  0  0  0  0  0
   10.1610   -5.8120   21.9420 O   0  0  0  0  0  0  0  0  0  0  0  0
    8.6110   -4.0100   23.1760 C   0  0  0  0  0  0  0  0  0  0  0  0
    7.4110   -3.8950   24.1280 C   0  0  0  0  0  0  0  0  0  0  0  0
    7.0460   -2.4720   24.5100 C   0  0  0  0  0  0  0  0  0  0  0  0
    7.8660   -1.3390   23.9380 C   0  0  0  0  0  0  0  0  0  0  0  0
    9.0260   -1.5850   23.0090 C   0  0  0  0  0  0  0  0  0  0  0  0
    9.7330   -0.4930   22.5120 C   0  0  0  0  0  0  0  0  0  0  0  0
    8.9770    0.2840   21.6480 C   0  0  0  0  0  0  0  0  0  0  0  0
    9.2610    1.4530   21.3510 O   0  0  0  0  0  0  0  0  0  0  0  0
    7.8780   -0.4260   21.1890 N   0  0  0  0  0  0  0  0  0  0  0  0
    6.9330    0.0380   20.1630 C   0  0  0  0  0  0  0  0  0  0  0  0
    5.8000    0.7360   20.5630 C   0  0  0  0  0  0  0  0  0  0  0  0
    4.8730    1.2250   19.6400 C   0  0  0  0  0  0  0  0  0  0  0  0
    5.0440    1.0340   18.2820 C   0  0  0  0  0  0  0  0  0  0  0  0
    6.1750    0.3170   17.7650 N   0  0  0  0  0  0  0  0  0  0  0  0
    7.1140   -0.1760   18.8070 C   0  0  0  0  0  0  0  0  0  0  0  0
    9.3560   -2.9160   22.6630 C   0  0  0  0  0  0  0  0  0  0  0  0
  2  1  1  0
  2  3  2  0
  2  4  2  0
  2  5  1  0
  5  6  2  0
  6  7  1  0
  7  8  2  0
  8  9  1  0
  9 10  1  0
 10 11  1  0
 11 12  2  0
 11 13  1  0
 13 14  1  0
 14 15  2  0
 15 16  1  0
 16 17  2  0
 17 18  1  0
 14 19  1  0
 18 19  2  0
  5 20  1  0
  9 20  2  0
M  END
