CHA-KIN-ceadbd93-5-vinylsulfonamide
     RDKit          3D

 23 24  0  0  0  0  0  0  0  0999 V2000
    7.1940   -5.1680   20.8860 C   0  0  0  0  0  0  0  0  0  0  0  0
    7.5690   -4.3710   22.0970 C   0  0  0  0  0  0  0  0  0  0  0  0
    6.0760   -3.7100   22.7650 S   0  0  0  0  0  0  0  0  0  0  0  0
    4.9740   -3.6640   21.7270 O   0  0  0  0  0  0  0  0  0  0  0  0
    5.8460   -4.5310   23.9320 O   0  0  0  0  0  0  0  0  0  0  0  0
    6.6950   -2.1300   23.4400 C   0  0  0  0  0  0  0  0  0  0  0  0
    8.1490   -1.6360   22.9670 C   0  0  0  0  0  0  0  0  0  0  0  0
    8.2020   -0.6160   21.8050 C   0  0  0  0  0  0  0  0  0  0  0  0
    8.8300    0.4510   21.7750 O   0  0  0  0  0  0  0  0  0  0  0  0
    7.4490   -1.1650   20.8350 N   0  0  0  0  0  0  0  0  0  0  0  0
    6.7640   -0.3070   20.0120 C   0  0  0  0  0  0  0  0  0  0  0  0
    6.8770   -0.3570   18.6450 C   0  0  0  0  0  0  0  0  0  0  0  0
    6.2610    0.4000   17.7050 N   0  0  0  0  0  0  0  0  0  0  0  0
    5.3200    1.4370   18.1530 C   0  0  0  0  0  0  0  0  0  0  0  0
    5.1270    1.5870   19.4830 C   0  0  0  0  0  0  0  0  0  0  0  0
    5.8770    0.6860   20.4600 C   0  0  0  0  0  0  0  0  0  0  0  0
    5.4920    1.0570   21.9500 C   0  0  0  0  0  0  0  0  0  0  0  0
    5.0610    2.3370   22.1930 O   0  0  0  0  0  0  0  0  0  0  0  0
    6.7820   -2.2600   24.8280 C   0  0  0  0  0  0  0  0  0  0  0  0
    5.5620   -2.4660   25.4620 C   0  0  0  0  0  0  0  0  0  0  0  0
    4.7660   -1.2840   25.5460 C   0  0  0  0  0  0  0  0  0  0  0  0
    5.0600   -0.3990   24.5340 C   0  0  0  0  0  0  0  0  0  0  0  0
    5.7560   -1.1060   23.3660 C   0  0  0  0  0  0  0  0  0  0  0  0
  1  2  1  0
  3  2  1  0
  3  4  2  0
  3  5  2  0
  3  6  1  0
  6  7  1  0
  7  8  1  0
  8  9  2  0
  8 10  1  0
 10 11  1  0
 11 12  2  0
 12 13  1  0
 13 14  2  0
 14 15  1  0
 11 16  1  0
 15 16  2  0
 16 17  1  0
 17 18  1  0
  6 19  1  0
 19 20  1  0
 20 21  1  0
 21 22  1  0
  6 23  1  0
 22 23  1  0
M  END
