CHA-KIN-45d1307a-3
     RDKit          3D

 36 37  0  0  0  0  0  0  0  0999 V2000
    9.9550    7.8560   25.2230 N   0  0  0  0  0  0  0  0  0  0  0  0
    9.6670    6.3690   25.9090 S   0  0  0  0  0  0  0  0  0  0  0  0
    9.0650    6.5840   27.1950 O   0  0  0  0  0  0  0  0  0  0  0  0
   10.8450    5.5730   25.7050 O   0  0  0  0  0  0  0  0  0  0  0  0
    8.5000    5.8410   24.8430 N   0  0  0  0  0  0  0  0  0  0  0  0
    8.9160    5.5850   23.4410 C   0  0  0  0  0  0  0  0  0  0  0  0
    7.7420    4.9870   22.6420 C   0  0  0  0  0  0  0  0  0  0  0  0
    7.4420    3.5850   22.9610 N   0  0  0  0  0  0  0  0  0  0  0  0
    6.1700    3.3940   23.6790 C   0  0  0  0  0  0  0  0  0  0  0  0
    4.9790    3.9400   22.8680 C   0  0  0  0  0  0  0  0  0  0  0  0
    3.7330    3.2240   23.3670 C   0  0  0  0  0  0  0  0  0  0  0  0
    2.2140    4.4450   23.3300 Br  0  0  0  0  0  0  0  0  0  0  0  0
    8.0250    2.4420   22.4010 C   0  0  0  0  0  0  0  0  0  0  0  0
    8.8370    2.5790   21.4580 O   0  0  0  0  0  0  0  0  0  0  0  0
    7.7250    1.0070   22.8700 C   0  0  1  0  0  0  0  0  0  0  0  0
    6.3600    0.5120   22.4590 C   0  0  0  0  0  0  0  0  0  0  0  0
    6.1460    0.5530   21.0640 C   0  0  0  0  0  0  0  0  0  0  0  0
    5.2360    1.4430   20.6310 C   0  0  0  0  0  0  0  0  0  0  0  0
    4.9560    1.5990   19.2450 C   0  0  0  0  0  0  0  0  0  0  0  0
    5.7050    0.7450   18.3320 C   0  0  0  0  0  0  0  0  0  0  0  0
    5.5470    0.8040   17.0250 O   0  0  0  0  0  0  0  0  0  0  0  0
    6.6770   -0.2150   18.8610 C   0  0  0  0  0  0  0  0  0  0  0  0
    6.8560   -0.2690   20.2100 C   0  0  0  0  0  0  0  0  0  0  0  0
    8.7680    0.1320   22.2480 N   0  0  0  0  0  0  0  0  0  0  0  0
    8.8300   -1.3280   22.4590 C   0  0  0  0  0  0  0  0  0  0  0  0
    7.9930   -2.0940   22.0080 O   0  0  0  0  0  0  0  0  0  0  0  0
    9.9090   -1.7390   23.2290 N   0  0  0  0  0  0  0  0  0  0  0  0
   11.2920   -1.5550   23.0310 C   0  0  0  0  0  0  0  0  0  0  0  0
   10.6760   -0.2790   23.0800 C   0  0  0  0  0  0  0  0  0  0  0  0
    9.3580   -0.3020   23.2920 F   0  0  0  0  0  0  0  0  0  0  0  0
   11.1540    1.0210   22.9590 C   0  0  0  0  0  0  0  0  0  0  0  0
   12.4320    1.2690   22.7610 C   0  0  0  0  0  0  0  0  0  0  0  0
   12.9180    2.5110   22.6370 F   0  0  0  0  0  0  0  0  0  0  0  0
   13.1940    0.1910   22.6960 C   0  0  0  0  0  0  0  0  0  0  0  0
   12.6320   -1.0810   22.8280 C   0  0  0  0  0  0  0  0  0  0  0  0
   13.5350   -2.0650   22.7530 F   0  0  0  0  0  0  0  0  0  0  0  0
  2  1  1  0
  2  3  2  0
  2  4  2  0
  2  5  1  0
  5  6  1  0
  6  7  1  0
  7  8  1  0
  8  9  1  0
  9 10  1  0
 10 11  1  0
 11 12  1  0
  8 13  1  0
 13 14  2  0
 13 15  1  0
 15 16  1  6
 16 17  1  0
 17 18  2  0
 18 19  1  0
 19 20  2  0
 20 21  1  0
 20 22  1  0
 17 23  1  0
 22 23  2  0
 15 24  1  0
 24 25  1  0
 25 26  2  0
 25 27  1  0
 27 28  1  0
 28 29  2  0
 29 30  1  0
 29 31  1  0
 31 32  2  0
 32 33  1  0
 32 34  1  0
 28 35  1  0
 34 35  2  0
 35 36  1  0
M  END
