CHA-KIN-6d173bb5-1
     RDKit          3D

 31 32  0  0  0  0  0  0  0  0999 V2000
    5.5930   -3.5980   26.4130 N   0  0  0  0  0  0  0  0  0  0  0  0
    6.6850   -4.8390   26.1350 S   0  0  0  0  0  0  0  0  0  0  0  0
    6.8890   -5.5260   27.3930 O   0  0  0  0  0  0  0  0  0  0  0  0
    6.1840   -5.5440   24.9760 O   0  0  0  0  0  0  0  0  0  0  0  0
    8.1980   -3.9830   25.6570 C   0  0  0  0  0  0  0  0  0  0  0  0
    7.9620   -3.0500   24.4520 C   0  0  0  0  0  0  0  0  0  0  0  0
    8.8300   -2.7040   23.3770 C   0  0  0  0  0  0  0  0  0  0  0  0
    9.1220   -1.3480   22.9770 N   0  0  0  0  0  0  0  0  0  0  0  0
    8.5560   -0.6400   21.8880 C   0  0  0  0  0  0  0  0  0  0  0  0
    9.1050    0.6360   21.5280 O   0  0  0  0  0  0  0  0  0  0  0  0
    7.5180   -1.1380   21.1840 N   0  0  0  0  0  0  0  0  0  0  0  0
    6.7410   -0.2910   20.3010 C   0  0  0  0  0  0  0  0  0  0  0  0
    7.0240   -0.4770   18.9240 C   0  0  0  0  0  0  0  0  0  0  0  0
    6.4440    0.1710   17.9240 N   0  0  0  0  0  0  0  0  0  0  0  0
    5.4790    1.1030   18.3300 C   0  0  0  0  0  0  0  0  0  0  0  0
    5.1520    1.3320   19.7800 C   0  0  0  0  0  0  0  0  0  0  0  0
    5.8150    0.6080   20.7680 C   0  0  0  0  0  0  0  0  0  0  0  0
    5.4790    0.8530   22.1880 C   0  0  0  0  0  0  0  0  0  0  0  0
    5.4550    2.1650   22.6900 N   0  0  0  0  0  0  0  0  0  0  0  0
    5.4560    2.5530   24.0980 C   0  0  0  0  0  0  0  0  0  0  0  0
    4.8940    1.9390   24.9980 O   0  0  0  0  0  0  0  0  0  0  0  0
    6.1820    3.7280   24.2810 N   0  0  0  0  0  0  0  0  0  0  0  0
    7.1740    3.8050   25.3470 C   0  0  0  0  0  0  0  0  0  0  0  0
    8.4460    4.1270   24.8540 C   0  0  0  0  0  0  0  0  0  0  0  0
    8.7880    5.4690   25.1770 O   0  0  0  0  0  0  0  0  0  0  0  0
   10.5000   -0.9590   22.9520 C   0  0  0  0  0  0  0  0  0  0  0  0
   11.3960   -1.9270   22.4850 C   0  0  0  0  0  0  0  0  0  0  0  0
   12.8330   -1.3750   22.4230 C   0  0  0  0  0  0  0  0  0  0  0  0
   13.1200   -0.2580   23.2010 C   0  0  0  0  0  0  0  0  0  0  0  0
   12.1560    0.3240   24.0290 C   0  0  0  0  0  0  0  0  0  0  0  0
   10.8570   -0.1680   24.0370 C   0  0  0  0  0  0  0  0  0  0  0  0
  2  1  1  0
  2  3  2  0
  2  4  2  0
  2  5  1  0
  5  6  1  0
  6  7  1  0
  7  8  1  0
  8  9  1  0
  9 10  2  0
  9 11  1  0
 11 12  1  0
 12 13  2  0
 13 14  1  0
 14 15  2  0
 15 16  1  0
 12 17  1  0
 16 17  2  0
 17 18  1  0
 18 19  1  0
 19 20  1  0
 20 21  2  0
 20 22  1  0
 22 23  1  0
 23 24  1  0
 24 25  1  0
  8 26  1  0
 26 27  1  0
 27 28  1  0
 28 29  1  0
 29 30  1  0
 26 31  1  0
 30 31  1  0
M  END
