CHA-MCP-85291e1d-3
     RDKit          3D

 24 25  0  0  0  0  0  0  0  0999 V2000
    2.8940    2.2400   19.6460 C   0  0  0  0  0  0  0  0  0  0  0  0
    3.9740    1.8200   20.4750 O   0  0  0  0  0  0  0  0  0  0  0  0
    4.9610    1.0910   19.8630 C   0  0  0  0  0  0  0  0  0  0  0  0
    5.1640    0.8700   18.3720 C   0  0  0  0  0  0  0  0  0  0  0  0
    6.3190    0.0270   17.9300 C   0  0  0  0  0  0  0  0  0  0  0  0
    7.2450   -0.5720   18.9380 C   0  0  0  0  0  0  0  0  0  0  0  0
    7.0070   -0.3230   20.3240 C   0  0  0  0  0  0  0  0  0  0  0  0
    7.9340   -0.9030   21.2590 N   0  0  0  0  0  0  0  0  0  0  0  0
    9.0440   -0.1220   21.8280 C   0  0  0  0  0  0  0  0  0  0  0  0
    9.2470    1.0350   21.4820 O   0  0  0  0  0  0  0  0  0  0  0  0
    9.9070   -0.7300   22.8050 C   0  0  0  0  0  0  0  0  0  0  0  0
   11.0150    0.1100   22.8320 C   0  0  0  0  0  0  0  0  0  0  0  0
   12.4090   -0.3110   22.5840 C   0  0  0  0  0  0  0  0  0  0  0  0
   13.1150    0.7990   22.6430 C   0  0  0  0  0  0  0  0  0  0  0  0
   11.9380    1.6280   22.9000 C   0  0  0  0  0  0  0  0  0  0  0  0
   11.3340    2.9270   23.1170 C   0  0  0  0  0  0  0  0  0  0  0  0
   12.6350    3.6830   22.9190 C   0  0  0  0  0  0  0  0  0  0  0  0
   12.5790    5.1820   23.2590 C   0  0  0  0  0  0  0  0  0  0  0  0
   11.4030    5.7900   22.6340 N   0  0  0  0  0  0  0  0  0  0  0  0
   10.2760    6.2160   23.4430 C   0  0  0  0  0  0  0  0  0  0  0  0
    9.0260    6.5580   22.6000 C   0  0  0  0  0  0  0  0  0  0  0  0
   10.2790    6.3130   24.6680 O   0  0  0  0  0  0  0  0  0  0  0  0
   10.5400    1.5430   23.1130 C   0  0  0  0  0  0  0  0  0  0  0  0
    5.8930    0.4810   20.7450 C   0  0  0  0  0  0  0  0  0  0  0  0
  1  2  1  0
  2  3  1  0
  3  4  2  0
  4  5  1  0
  5  6  2  0
  6  7  1  0
  7  8  1  0
  8  9  1  0
  9 10  2  0
  9 11  1  0
 11 12  1  0
 12 13  2  0
 13 14  1  0
 14 15  2  0
 15 16  1  0
 16 17  1  0
 17 18  1  0
 18 19  1  0
 19 20  1  0
 20 21  1  0
 20 22  2  0
 12 23  1  0
 16 23  2  0
  3 24  1  0
  7 24  2  0
M  END
