CHA-KIN-ceadbd93-2
     RDKit          3D

 18 19  0  0  0  0  0  0  0  0999 V2000
    9.1930    1.2210   21.3140 O   0  0  0  0  0  0  0  0  0  0  0  0
    8.8690    0.0360   21.4990 C   0  0  0  0  0  0  0  0  0  0  0  0
    9.7440   -0.8930   22.2030 C   0  0  0  0  0  0  0  0  0  0  0  0
    8.9410   -1.9130   22.9950 C   0  0  0  0  0  0  0  0  0  0  0  0
    9.3330   -3.3430   22.6290 C   0  0  0  0  0  0  0  0  0  0  0  0
    9.8820   -4.0100   23.8840 C   0  0  0  0  0  0  0  0  0  0  0  0
   11.0890   -3.2100   24.3620 C   0  0  0  0  0  0  0  0  0  0  0  0
   10.5640   -1.8570   24.8230 C   0  0  0  0  0  0  0  0  0  0  0  0
    9.0860   -1.8130   24.4920 C   0  0  0  0  0  0  0  0  0  0  0  0
    7.6930   -0.5680   21.0920 N   0  0  0  0  0  0  0  0  0  0  0  0
    6.8260   -0.0320   20.1360 C   0  0  0  0  0  0  0  0  0  0  0  0
    7.0630   -0.1760   18.7820 C   0  0  0  0  0  0  0  0  0  0  0  0
    6.2180    0.3810   17.7380 N   0  0  0  0  0  0  0  0  0  0  0  0
    5.0680    1.1120   18.2250 C   0  0  0  0  0  0  0  0  0  0  0  0
    4.8430    1.2300   19.5720 C   0  0  0  0  0  0  0  0  0  0  0  0
    5.6920    0.6760   20.5370 C   0  0  0  0  0  0  0  0  0  0  0  0
    5.3150    0.8920   21.8680 C   0  0  0  0  0  0  0  0  0  0  0  0
    4.1190    0.1800   22.1880 O   0  0  0  0  0  0  0  0  0  0  0  0
  1  2  2  0
  2  3  1  0
  3  4  1  0
  4  5  1  0
  5  6  1  0
  6  7  1  0
  7  8  1  0
  4  9  1  0
  8  9  1  0
  2 10  1  0
 10 11  1  0
 11 12  2  0
 12 13  1  0
 13 14  2  0
 14 15  1  0
 11 16  1  0
 15 16  2  0
 16 17  1  0
 17 18  1  0
M  END
