CHA-KIN-ceadbd93-3
     RDKit          3D

 19 20  0  0  0  0  0  0  0  0999 V2000
    9.2730    1.3320   21.2880 O   0  0  0  0  0  0  0  0  0  0  0  0
    8.9430    0.1860   21.6240 C   0  0  0  0  0  0  0  0  0  0  0  0
    7.8700   -0.5220   21.1070 N   0  0  0  0  0  0  0  0  0  0  0  0
    6.9500   -0.0400   20.1620 C   0  0  0  0  0  0  0  0  0  0  0  0
    7.1810   -0.2270   18.6940 C   0  0  0  0  0  0  0  0  0  0  0  0
    6.2400    0.3030   17.7580 N   0  0  0  0  0  0  0  0  0  0  0  0
    5.1040    0.9830   18.1400 C   0  0  0  0  0  0  0  0  0  0  0  0
    4.8170    1.1950   19.6160 C   0  0  0  0  0  0  0  0  0  0  0  0
    5.8120    0.6360   20.6060 C   0  0  0  0  0  0  0  0  0  0  0  0
    5.4490    0.8900   22.0680 C   0  0  0  0  0  0  0  0  0  0  0  0
    5.4070   -0.3290   22.7960 O   0  0  0  0  0  0  0  0  0  0  0  0
    9.6970   -0.6450   22.7020 C   0  0  2  0  0  0  0  0  0  0  0  0
   10.0000   -1.9520   22.2000 O   0  0  0  0  0  0  0  0  0  0  0  0
    8.9810   -0.6460   24.0510 C   0  0  0  0  0  0  0  0  0  0  0  0
    8.4170   -1.8840   24.4170 C   0  0  0  0  0  0  0  0  0  0  0  0
    7.8430   -2.0350   25.8100 C   0  0  0  0  0  0  0  0  0  0  0  0
    8.4790   -1.1900   26.6740 C   0  0  0  0  0  0  0  0  0  0  0  0
    9.7190   -0.6790   26.3120 C   0  0  0  0  0  0  0  0  0  0  0  0
    9.6150    0.0210   25.1140 C   0  0  0  0  0  0  0  0  0  0  0  0
  1  2  2  0
  2  3  1  0
  3  4  1  0
  4  5  2  0
  5  6  1  0
  6  7  2  0
  7  8  1  0
  4  9  1  0
  8  9  2  0
  9 10  1  0
 10 11  1  0
  2 12  1  0
 12 13  1  6
 12 14  1  0
 14 15  1  0
 15 16  1  0
 16 17  1  0
 17 18  1  0
 14 19  1  0
 18 19  1  0
M  END
