CHA-MCP-85291e1d-1
     RDKit          3D

 22 23  0  0  0  0  0  0  0  0999 V2000
    8.9510    6.6380   22.5370 C   0  0  0  0  0  0  0  0  0  0  0  0
   10.2210    6.2800   23.3150 C   0  0  0  0  0  0  0  0  0  0  0  0
   10.2420    6.3580   24.5440 O   0  0  0  0  0  0  0  0  0  0  0  0
   11.3070    5.8680   22.5410 N   0  0  0  0  0  0  0  0  0  0  0  0
   12.2360    4.9550   23.1990 C   0  0  0  0  0  0  0  0  0  0  0  0
   11.6160    3.5500   23.3030 C   0  0  0  0  0  0  0  0  0  0  0  0
   12.4860    2.3630   23.0520 C   0  0  0  0  0  0  0  0  0  0  0  0
   12.4080    1.1010   22.8650 C   0  0  0  0  0  0  0  0  0  0  0  0
   13.1980    0.0990   22.6280 C   0  0  0  0  0  0  0  0  0  0  0  0
   12.2500   -0.7770   22.5570 C   0  0  0  0  0  0  0  0  0  0  0  0
   11.0580    0.0240   22.8010 C   0  0  0  0  0  0  0  0  0  0  0  0
    9.7880   -0.5590   22.7980 C   0  0  0  0  0  0  0  0  0  0  0  0
    8.9710    0.0040   21.7780 C   0  0  0  0  0  0  0  0  0  0  0  0
    9.2520    1.3370   21.3340 O   0  0  0  0  0  0  0  0  0  0  0  0
    7.9300   -0.7520   21.2700 N   0  0  0  0  0  0  0  0  0  0  0  0
    7.0050   -0.1750   20.2720 C   0  0  0  0  0  0  0  0  0  0  0  0
    5.8000    0.6330   20.7420 C   0  0  0  0  0  0  0  0  0  0  0  0
    4.8680    1.2320   19.7070 C   0  0  0  0  0  0  0  0  0  0  0  0
    5.1870    0.9920   18.2360 C   0  0  0  0  0  0  0  0  0  0  0  0
    6.2550    0.2660   17.8430 N   0  0  0  0  0  0  0  0  0  0  0  0
    7.1580   -0.3170   18.8870 C   0  0  0  0  0  0  0  0  0  0  0  0
   11.1280    1.5330   23.0580 C   0  0  0  0  0  0  0  0  0  0  0  0
  1  2  1  0
  2  3  2  0
  2  4  1  0
  4  5  1  0
  5  6  1  0
  6  7  1  0
  7  8  2  0
  8  9  1  0
  9 10  2  0
 10 11  1  0
 11 12  1  0
 12 13  1  0
 13 14  2  0
 13 15  1  0
 15 16  1  0
 16 17  2  0
 17 18  1  0
 18 19  2  0
 19 20  1  0
 16 21  1  0
 20 21  2  0
  7 22  1  0
 11 22  2  0
M  END
