CHA-KIN-bfe9b535-6
     RDKit          3D

 39 42  0  0  0  0  0  0  0  0999 V2000
    4.5110    9.0610   23.3520 N   0  0  0  0  0  0  0  0  0  0  0  0
    5.7980    8.5680   22.3940 S   0  0  0  0  0  0  0  0  0  0  0  0
    5.4960    8.9160   21.0230 O   0  0  0  0  0  0  0  0  0  0  0  0
    7.0030    9.0230   23.0520 O   0  0  0  0  0  0  0  0  0  0  0  0
    5.7190    6.9100   22.5900 N   0  0  0  0  0  0  0  0  0  0  0  0
    6.9350    6.1010   22.2900 C   0  0  0  0  0  0  0  0  0  0  0  0
    7.3330    5.3710   23.5550 C   0  0  1  0  0  0  0  0  0  0  0  0
    7.0880    3.9140   23.4980 N   0  0  0  0  0  0  0  0  0  0  0  0
    7.9790    2.9560   23.3420 C   0  0  0  0  0  0  0  0  0  0  0  0
    9.0640    2.8940   23.9090 O   0  0  0  0  0  0  0  0  0  0  0  0
    7.8010    1.8480   22.4730 C   0  0  2  0  0  0  0  0  0  0  0  0
    6.5220    1.3370   22.4420 C   0  0  0  0  0  0  0  0  0  0  0  0
    6.2180    1.1260   21.1170 C   0  0  0  0  0  0  0  0  0  0  0  0
    5.2080    1.8790   20.5310 C   0  0  0  0  0  0  0  0  0  0  0  0
    4.8910    1.6920   19.0700 C   0  0  0  0  0  0  0  0  0  0  0  0
    5.5930    0.7860   18.3370 C   0  0  0  0  0  0  0  0  0  0  0  0
    5.3190    0.6450   17.0710 O   0  0  0  0  0  0  0  0  0  0  0  0
    6.6280    0.0130   18.9980 C   0  0  0  0  0  0  0  0  0  0  0  0
    6.9240    0.1800   20.3320 C   0  0  0  0  0  0  0  0  0  0  0  0
    8.6600    0.8630   22.7820 N   0  0  0  0  0  0  0  0  0  0  0  0
    8.4350   -0.3310   22.1040 C   0  0  0  0  0  0  0  0  0  0  0  0
    7.4380   -1.0400   22.2300 O   0  0  0  0  0  0  0  0  0  0  0  0
    9.5900   -0.5520   21.3030 N   0  0  0  0  0  0  0  0  0  0  0  0
   10.3200   -1.2350   22.2420 C   0  0  0  0  0  0  0  0  0  0  0  0
   11.6080   -0.8600   22.5430 C   0  0  0  0  0  0  0  0  0  0  0  0
   12.1640   -1.6450   23.4880 C   0  0  0  0  0  0  0  0  0  0  0  0
   13.5220   -1.4280   23.9830 C   0  0  0  0  0  0  0  0  0  0  0  0
   14.0390   -2.2820   24.9340 C   0  0  0  0  0  0  0  0  0  0  0  0
   13.3480   -3.2730   25.3800 C   0  0  0  0  0  0  0  0  0  0  0  0
   12.0810   -3.4250   24.9040 C   0  0  0  0  0  0  0  0  0  0  0  0
   11.4770   -2.6580   24.0110 C   0  0  0  0  0  0  0  0  0  0  0  0
   10.2050   -2.8760   23.6240 C   0  0  0  0  0  0  0  0  0  0  0  0
    9.5830   -2.1970   22.7410 N   0  0  0  0  0  0  0  0  0  0  0  0
    8.7530    5.8120   23.9440 C   0  0  0  0  0  0  0  0  0  0  0  0
    9.6830    6.1070   22.9630 C   0  0  0  0  0  0  0  0  0  0  0  0
   10.9850    6.5130   23.2390 C   0  0  0  0  0  0  0  0  0  0  0  0
   11.4290    6.6550   24.5590 C   0  0  0  0  0  0  0  0  0  0  0  0
   10.4780    6.3610   25.5540 C   0  0  0  0  0  0  0  0  0  0  0  0
    9.1520    5.9410   25.2910 C   0  0  0  0  0  0  0  0  0  0  0  0
  2  1  1  0
  2  3  2  0
  2  4  2  0
  2  5  1  0
  5  6  1  0
  7  6  1  6
  7  8  1  0
  8  9  1  0
  9 10  2  0
  9 11  1  0
 11 12  1  1
 12 13  1  0
 13 14  2  0
 14 15  1  0
 15 16  2  0
 16 17  1  0
 16 18  1  0
 13 19  1  0
 18 19  2  0
 11 20  1  0
 20 21  1  0
 21 22  2  0
 21 23  1  0
 23 24  1  0
 24 25  2  0
 25 26  1  0
 26 27  2  0
 27 28  1  0
 28 29  2  0
 29 30  1  0
 26 31  1  0
 30 31  2  0
 31 32  1  0
 24 33  1  0
 32 33  2  0
  7 34  1  0
 34 35  2  0
 35 36  1  0
 36 37  2  0
 37 38  1  0
 34 39  1  0
 38 39  2  0
M  END
