CHR-SOS-6c45c019-10
     RDKit          3D

 22 24  0  0  0  0  0  0  0  0999 V2000
    5.3330    0.5890   22.0580 C   0  0  0  0  0  0  0  0  0  0  0  0
    5.7080    0.4520   20.6110 C   0  0  0  0  0  0  0  0  0  0  0  0
    4.8940    1.0810   19.6550 C   0  0  0  0  0  0  0  0  0  0  0  0
    5.2160    0.9740   18.3180 C   0  0  0  0  0  0  0  0  0  0  0  0
    6.2790    0.2890   17.8810 N   0  0  0  0  0  0  0  0  0  0  0  0
    7.0580   -0.3170   18.8090 C   0  0  0  0  0  0  0  0  0  0  0  0
    6.8380   -0.2750   20.1790 C   0  0  0  0  0  0  0  0  0  0  0  0
    7.6820   -0.9130   21.1200 N   0  0  0  0  0  0  0  0  0  0  0  0
    8.8660   -0.4140   21.6290 C   0  0  0  0  0  0  0  0  0  0  0  0
    9.1860    0.7670   21.6110 O   0  0  0  0  0  0  0  0  0  0  0  0
    9.6630   -1.4130   22.1640 N   0  0  0  0  0  0  0  0  0  0  0  0
   10.9270   -1.1110   22.8230 C   0  0  0  0  0  0  0  0  0  0  0  0
   10.8660   -0.1100   23.7570 C   0  0  0  0  0  0  0  0  0  0  0  0
   12.0700    0.4310   24.0860 C   0  0  0  0  0  0  0  0  0  0  0  0
   12.6120    1.4710   23.3650 C   0  0  0  0  0  0  0  0  0  0  0  0
   12.9160    2.7450   22.6900 C   0  0  0  0  0  0  0  0  0  0  0  0
   12.2130    3.9920   22.6060 C   0  0  0  0  0  0  0  0  0  0  0  0
   11.0290    4.0870   23.2460 C   0  0  0  0  0  0  0  0  0  0  0  0
   10.9060    2.9040   23.7680 C   0  0  0  0  0  0  0  0  0  0  0  0
   11.3900    1.7350   23.9450 N   0  0  0  0  0  0  0  0  0  0  0  0
   12.0680   -2.1140   23.1240 C   0  0  0  0  0  0  0  0  0  0  0  0
   12.2900   -1.3630   21.9400 C   0  0  0  0  0  0  0  0  0  0  0  0
  1  2  1  0
  2  3  2  0
  3  4  1  0
  4  5  2  0
  5  6  1  0
  2  7  1  0
  6  7  2  0
  7  8  1  0
  8  9  1  0
  9 10  2  0
  9 11  1  0
 11 12  1  0
 12 13  1  0
 13 14  3  0
 14 15  1  0
 15 16  2  0
 16 17  1  0
 17 18  2  0
 18 19  1  0
 15 20  1  0
 19 20  2  0
 12 21  1  0
 12 22  1  0
 21 22  1  0
M  END
