CHR-SOS-6c45c019-1
     RDKit          3D

 25 27  0  0  0  0  0  0  0  0999 V2000
    5.3880    0.9120   22.1400 C   0  0  0  0  0  0  0  0  0  0  0  0
    5.6640    0.5470   20.7110 C   0  0  0  0  0  0  0  0  0  0  0  0
    4.6440    0.7250   19.7630 C   0  0  0  0  0  0  0  0  0  0  0  0
    4.8880    0.3970   18.4460 C   0  0  0  0  0  0  0  0  0  0  0  0
    6.0560   -0.0930   18.0110 N   0  0  0  0  0  0  0  0  0  0  0  0
    7.0290   -0.2660   18.9330 C   0  0  0  0  0  0  0  0  0  0  0  0
    6.9070    0.0360   20.2840 C   0  0  0  0  0  0  0  0  0  0  0  0
    7.9510   -0.1330   21.2250 N   0  0  0  0  0  0  0  0  0  0  0  0
    8.8830    0.8480   21.5080 C   0  0  0  0  0  0  0  0  0  0  0  0
    8.7680    2.0140   21.1600 O   0  0  0  0  0  0  0  0  0  0  0  0
    9.9830    0.4090   22.2200 N   0  0  0  0  0  0  0  0  0  0  0  0
   10.6640    1.3110   23.1370 C   0  0  0  0  0  0  0  0  0  0  0  0
   11.7410    0.6270   23.7500 C   0  0  0  0  0  0  0  0  0  0  0  0
   12.3300   -0.5630   23.2750 C   0  0  0  0  0  0  0  0  0  0  0  0
   11.6960   -1.7750   23.5390 C   0  0  0  0  0  0  0  0  0  0  0  0
   12.4510   -2.0870   22.4660 C   0  0  0  0  0  0  0  0  0  0  0  0
   13.1740   -0.9800   22.1010 C   0  0  0  0  0  0  0  0  0  0  0  0
   12.9950    0.1990   22.8830 C   0  0  0  0  0  0  0  0  0  0  0  0
   12.0840    0.2110   23.9980 C   0  0  0  0  0  0  0  0  0  0  0  0
   11.3380   -0.8650   24.4010 N   0  0  0  0  0  0  0  0  0  0  0  0
   11.2240    2.6130   22.5130 C   0  0  0  0  0  0  0  0  0  0  0  0
   11.1910    3.5750   23.6390 C   0  0  0  0  0  0  0  0  0  0  0  0
    9.8110    4.1750   23.6580 C   0  0  0  0  0  0  0  0  0  0  0  0
    8.8740    3.0010   23.9640 C   0  0  0  0  0  0  0  0  0  0  0  0
    9.6310    1.6850   24.2260 C   0  0  0  0  0  0  0  0  0  0  0  0
  1  2  1  0
  2  3  2  0
  3  4  1  0
  4  5  2  0
  5  6  1  0
  2  7  1  0
  6  7  2  0
  7  8  1  0
  8  9  1  0
  9 10  2  0
  9 11  1  0
 11 12  1  0
 12 13  1  0
 13 14  3  0
 14 15  1  0
 15 16  2  0
 16 17  1  0
 17 18  2  0
 18 19  1  0
 15 20  1  0
 19 20  2  0
 12 21  1  0
 21 22  1  0
 22 23  1  0
 23 24  1  0
 12 25  1  0
 24 25  1  0
M  END
