CHR-SOS-e960e883-3
     RDKit          3D

 24 26  0  0  0  0  0  0  0  0999 V2000
    8.4020    4.7100   22.4790 N   0  0  0  0  0  0  0  0  0  0  0  0
    9.2240    4.1440   23.8370 S   0  0  0  0  0  0  0  0  0  0  0  0
    8.3230    4.4250   24.9320 O   0  0  0  0  0  0  0  0  0  0  0  0
   10.5280    4.7670   23.7750 O   0  0  0  0  0  0  0  0  0  0  0  0
    9.3820    2.3810   23.5820 C   0  0  0  0  0  0  0  0  0  0  0  0
    8.5410    1.3000   24.3020 C   0  0  0  0  0  0  0  0  0  0  0  0
    8.7840   -0.2270   23.9590 C   0  0  0  0  0  0  0  0  0  0  0  0
    9.8550   -0.6410   22.9090 C   0  0  0  0  0  0  0  0  0  0  0  0
   10.3980    0.5030   22.4750 C   0  0  0  0  0  0  0  0  0  0  0  0
    9.4010    0.4700   23.4810 C   0  0  0  0  0  0  0  0  0  0  0  0
    8.1370    0.9040   23.1190 C   0  0  0  0  0  0  0  0  0  0  0  0
    8.1250    1.0700   21.7190 C   0  0  0  0  0  0  0  0  0  0  0  0
    8.7630    1.9660   21.1630 O   0  0  0  0  0  0  0  0  0  0  0  0
    7.3210    0.1650   21.0950 N   0  0  0  0  0  0  0  0  0  0  0  0
    6.5710    0.6230   19.9310 C   0  0  0  0  0  0  0  0  0  0  0  0
    5.5930    1.7640   20.1680 C   0  0  0  0  0  0  0  0  0  0  0  0
    4.8650    2.2360   18.9560 C   0  0  0  0  0  0  0  0  0  0  0  0
    5.1210    1.6170   17.7330 C   0  0  0  0  0  0  0  0  0  0  0  0
    6.0080    0.5840   17.6140 N   0  0  0  0  0  0  0  0  0  0  0  0
    6.6820    0.1300   18.6680 C   0  0  0  0  0  0  0  0  0  0  0  0
    9.9260    1.0560   24.7890 C   0  0  0  0  0  0  0  0  0  0  0  0
    9.9710   -0.1260   25.4270 C   0  0  0  0  0  0  0  0  0  0  0  0
    9.4140   -0.9030   24.4030 C   0  0  0  0  0  0  0  0  0  0  0  0
   10.3270    1.9070   22.6570 C   0  0  0  0  0  0  0  0  0  0  0  0
  2  1  1  0
  2  3  2  0
  2  4  2  0
  2  5  1  0
  5  6  2  0
  6  7  1  0
  7  8  2  0
  8  9  1  0
  9 10  1  0
 10 11  1  0
 11 12  1  0
 12 13  2  0
 12 14  1  0
 14 15  1  0
 15 16  2  0
 16 17  1  0
 17 18  2  0
 18 19  1  0
 15 20  1  0
 19 20  2  0
 10 21  1  0
 21 22  1  0
 10 23  1  0
 22 23  1  0
  5 24  1  0
  9 24  2  0
M  END
