CHR-SOS-e960e883-1
     RDKit          3D

 26 28  0  0  0  0  0  0  0  0999 V2000
    9.0090    5.3090   22.7650 N   0  0  0  0  0  0  0  0  0  0  0  0
   10.3310    5.3020   23.7900 S   0  0  0  0  0  0  0  0  0  0  0  0
    9.7940    5.3140   25.1260 O   0  0  0  0  0  0  0  0  0  0  0  0
   11.1880    6.3790   23.3330 O   0  0  0  0  0  0  0  0  0  0  0  0
   11.1380    3.7660   23.4250 C   0  0  0  0  0  0  0  0  0  0  0  0
   12.4770    3.8080   22.9540 C   0  0  0  0  0  0  0  0  0  0  0  0
   13.1280    2.5030   22.6670 C   0  0  0  0  0  0  0  0  0  0  0  0
   12.7290    1.0070   22.7370 C   0  0  0  0  0  0  0  0  0  0  0  0
   11.3860    1.2760   23.2100 C   0  0  0  0  0  0  0  0  0  0  0  0
   10.7680   -0.0190   23.3480 C   0  0  0  0  0  0  0  0  0  0  0  0
    9.3760   -0.0460   23.2100 C   0  0  0  0  0  0  0  0  0  0  0  0
    8.9030    0.4820   21.9420 C   0  0  0  0  0  0  0  0  0  0  0  0
    9.3510    1.5120   21.4400 O   0  0  0  0  0  0  0  0  0  0  0  0
    7.8740   -0.2660   21.3800 N   0  0  0  0  0  0  0  0  0  0  0  0
    7.0120    0.1670   20.2340 C   0  0  0  0  0  0  0  0  0  0  0  0
    5.8590    1.1220   20.5190 C   0  0  0  0  0  0  0  0  0  0  0  0
    5.0310    1.5350   19.3330 C   0  0  0  0  0  0  0  0  0  0  0  0
    5.3430    1.0450   18.0610 C   0  0  0  0  0  0  0  0  0  0  0  0
    6.3900    0.1930   17.8920 N   0  0  0  0  0  0  0  0  0  0  0  0
    7.1580   -0.2120   18.9150 C   0  0  0  0  0  0  0  0  0  0  0  0
   11.1370   -0.6620   24.7050 C   0  0  0  0  0  0  0  0  0  0  0  0
   12.5270   -0.7090   24.7740 C   0  0  0  0  0  0  0  0  0  0  0  0
   13.0140   -1.7080   23.9330 C   0  0  0  0  0  0  0  0  0  0  0  0
   12.0490   -2.0990   23.0010 C   0  0  0  0  0  0  0  0  0  0  0  0
   11.5390   -0.9730   22.3630 C   0  0  0  0  0  0  0  0  0  0  0  0
   10.6290    2.4720   23.5360 C   0  0  0  0  0  0  0  0  0  0  0  0
  2  1  1  0
  2  3  2  0
  2  4  2  0
  2  5  1  0
  5  6  2  0
  6  7  1  0
  7  8  2  0
  8  9  1  0
  9 10  1  0
 10 11  1  0
 11 12  1  0
 12 13  2  0
 12 14  1  0
 14 15  1  0
 15 16  2  0
 16 17  1  0
 17 18  2  0
 18 19  1  0
 15 20  1  0
 19 20  2  0
 10 21  1  0
 21 22  1  0
 22 23  1  0
 23 24  1  0
 10 25  1  0
 24 25  1  0
  5 26  1  0
  9 26  2  0
M  END
