CHR-SOS-1f323c23-7
     RDKit          3D

 22 24  0  0  0  0  0  0  0  0999 V2000
    5.4020    0.9220   21.9660 C   0  0  0  0  0  0  0  0  0  0  0  0
    5.7340    0.6660   20.5250 C   0  0  0  0  0  0  0  0  0  0  0  0
    4.8390    1.1100   19.5430 C   0  0  0  0  0  0  0  0  0  0  0  0
    5.1380    0.8800   18.2210 C   0  0  0  0  0  0  0  0  0  0  0  0
    6.2400    0.2430   17.8160 N   0  0  0  0  0  0  0  0  0  0  0  0
    7.0910   -0.1810   18.7670 C   0  0  0  0  0  0  0  0  0  0  0  0
    6.9080    0.0020   20.1240 C   0  0  0  0  0  0  0  0  0  0  0  0
    7.8300   -0.4310   21.0840 N   0  0  0  0  0  0  0  0  0  0  0  0
    8.7400    0.4120   21.6920 C   0  0  0  0  0  0  0  0  0  0  0  0
    9.1610    1.4690   21.2280 O   0  0  0  0  0  0  0  0  0  0  0  0
    9.1110   -0.0780   22.9170 N   0  0  0  0  0  0  0  0  0  0  0  0
    8.7760    0.5470   24.1940 C   0  0  0  0  0  0  0  0  0  0  0  0
    9.1980    1.9350   24.3550 O   0  0  0  0  0  0  0  0  0  0  0  0
   10.4330    2.1700   23.8690 C   0  0  0  0  0  0  0  0  0  0  0  0
   10.8040    3.4630   23.4860 C   0  0  0  0  0  0  0  0  0  0  0  0
   12.0710    3.6720   22.9730 C   0  0  0  0  0  0  0  0  0  0  0  0
   12.9410    2.6050   22.8570 C   0  0  0  0  0  0  0  0  0  0  0  0
   12.5700    1.3170   23.2470 C   0  0  0  0  0  0  0  0  0  0  0  0
   11.3090    1.1070   23.7540 C   0  0  0  0  0  0  0  0  0  0  0  0
    7.3200    0.4380   24.6880 C   0  0  0  0  0  0  0  0  0  0  0  0
    7.7300   -0.4550   25.8060 C   0  0  0  0  0  0  0  0  0  0  0  0
    9.2000   -0.3890   25.4110 C   0  0  0  0  0  0  0  0  0  0  0  0
  1  2  1  0
  2  3  2  0
  3  4  1  0
  4  5  2  0
  5  6  1  0
  2  7  1  0
  6  7  2  0
  7  8  1  0
  8  9  1  0
  9 10  2  0
  9 11  1  0
 11 12  1  0
 12 13  1  0
 13 14  1  0
 14 15  2  0
 15 16  1  0
 16 17  2  0
 17 18  1  0
 14 19  1  0
 18 19  2  0
 12 20  1  0
 20 21  1  0
 12 22  1  0
 21 22  1  0
M  END
