CHR-SOS-e960e883-4
     RDKit          3D

 27 29  0  0  0  0  0  0  0  0999 V2000
    6.5400    2.6650   21.8150 C   0  0  0  0  0  0  0  0  0  0  0  0
    6.4590    1.6850   20.6830 C   0  0  0  0  0  0  0  0  0  0  0  0
    5.4610    1.8810   19.5550 C   0  0  0  0  0  0  0  0  0  0  0  0
    5.4180    0.8620   18.4360 C   0  0  0  0  0  0  0  0  0  0  0  0
    6.2100   -0.2110   18.3740 N   0  0  0  0  0  0  0  0  0  0  0  0
    7.1050   -0.3630   19.4100 C   0  0  0  0  0  0  0  0  0  0  0  0
    7.2590    0.5290   20.5440 C   0  0  0  0  0  0  0  0  0  0  0  0
    8.2390    0.1120   21.4180 N   0  0  0  0  0  0  0  0  0  0  0  0
    8.9770    1.1520   21.9710 C   0  0  0  0  0  0  0  0  0  0  0  0
    9.1320    2.1890   21.3330 O   0  0  0  0  0  0  0  0  0  0  0  0
    9.5950    1.1080   23.2950 C   0  0  0  0  0  0  0  0  0  0  0  0
   10.9970    0.3910   23.2780 C   0  0  0  0  0  0  0  0  0  0  0  0
   12.2840    1.1680   22.7990 C   0  0  0  0  0  0  0  0  0  0  0  0
   12.2350   -0.2800   22.8980 C   0  0  0  0  0  0  0  0  0  0  0  0
   10.8590   -0.0220   23.3880 C   0  0  0  0  0  0  0  0  0  0  0  0
   10.0930    1.2070   23.6000 C   0  0  0  0  0  0  0  0  0  0  0  0
   10.5350    2.5110   23.3580 C   0  0  0  0  0  0  0  0  0  0  0  0
    9.6640    4.0730   23.5700 S   0  0  0  0  0  0  0  0  0  0  0  0
    8.6310    4.0890   22.2440 N   0  0  0  0  0  0  0  0  0  0  0  0
    8.7960    4.0900   24.7330 O   0  0  0  0  0  0  0  0  0  0  0  0
   10.6310    5.1310   23.3750 O   0  0  0  0  0  0  0  0  0  0  0  0
   11.7770    2.4530   22.9090 C   0  0  0  0  0  0  0  0  0  0  0  0
   10.8230   -0.8910   22.3340 C   0  0  0  0  0  0  0  0  0  0  0  0
   11.9950   -1.6710   22.2220 C   0  0  0  0  0  0  0  0  0  0  0  0
   12.4580   -2.0980   23.4790 C   0  0  0  0  0  0  0  0  0  0  0  0
   11.6130   -1.6880   24.5070 C   0  0  0  0  0  0  0  0  0  0  0  0
   11.3320   -0.3190   24.6520 C   0  0  0  0  0  0  0  0  0  0  0  0
  1  2  1  0
  2  3  2  0
  3  4  1  0
  4  5  2  0
  5  6  1  0
  2  7  1  0
  6  7  2  0
  7  8  1  0
  8  9  1  0
  9 10  2  0
  9 11  1  0
 12 11  1  0
 12 13  1  0
 13 14  2  0
 14 15  1  0
 15 16  2  0
 16 17  1  0
 17 18  1  0
 18 19  1  0
 18 20  2  0
 18 21  2  0
 13 22  1  0
 17 22  2  0
 12 23  1  0
 23 24  1  0
 24 25  1  0
 25 26  1  0
 12 27  1  0
 26 27  1  0
M  END
