CHR-SOS-6c45c019-13
     RDKit          3D

 25 27  0  0  0  0  0  0  0  0999 V2000
    5.3720    1.3440   21.9450 C   0  0  0  0  0  0  0  0  0  0  0  0
    5.7470    0.8980   20.5630 C   0  0  0  0  0  0  0  0  0  0  0  0
    4.8780    1.1960   19.4990 C   0  0  0  0  0  0  0  0  0  0  0  0
    5.2150    0.7860   18.2250 C   0  0  0  0  0  0  0  0  0  0  0  0
    6.3270    0.1070   17.9490 N   0  0  0  0  0  0  0  0  0  0  0  0
    7.1540   -0.1780   18.9790 C   0  0  0  0  0  0  0  0  0  0  0  0
    6.9360    0.1940   20.3050 C   0  0  0  0  0  0  0  0  0  0  0  0
    7.8250   -0.0820   21.3840 N   0  0  0  0  0  0  0  0  0  0  0  0
    8.7790    0.8020   21.8910 C   0  0  0  0  0  0  0  0  0  0  0  0
    9.1140    1.8450   21.3380 O   0  0  0  0  0  0  0  0  0  0  0  0
    9.3250    0.3790   23.1050 N   0  0  0  0  0  0  0  0  0  0  0  0
   10.2160   -0.7750   23.2610 C   0  0  0  0  0  0  0  0  0  0  0  0
    9.3260   -1.8650   23.2330 C   0  0  0  0  0  0  0  0  0  0  0  0
    9.7480   -3.1600   22.9370 C   0  0  0  0  0  0  0  0  0  0  0  0
    9.1990   -4.2930   23.5560 C   0  0  0  0  0  0  0  0  0  0  0  0
    8.2960   -5.1550   23.0050 C   0  0  0  0  0  0  0  0  0  0  0  0
    7.9700   -6.1390   23.8090 N   0  0  0  0  0  0  0  0  0  0  0  0
    7.0990   -7.1070   23.4520 C   0  0  0  0  0  0  0  0  0  0  0  0
    8.7070   -5.8910   24.9540 C   0  0  0  0  0  0  0  0  0  0  0  0
    9.4600   -4.7700   24.8280 N   0  0  0  0  0  0  0  0  0  0  0  0
   11.2940   -0.8710   22.1810 C   0  0  0  0  0  0  0  0  0  0  0  0
   12.3230   -1.8500   22.7000 C   0  0  0  0  0  0  0  0  0  0  0  0
   13.1850   -1.0540   23.6430 C   0  0  0  0  0  0  0  0  0  0  0  0
   12.2970   -0.1930   24.5360 C   0  0  0  0  0  0  0  0  0  0  0  0
   10.8760   -0.7620   24.6570 C   0  0  0  0  0  0  0  0  0  0  0  0
  1  2  1  0
  2  3  2  0
  3  4  1  0
  4  5  2  0
  5  6  1  0
  2  7  1  0
  6  7  2  0
  7  8  1  0
  8  9  1  0
  9 10  2  0
  9 11  1  0
 11 12  1  0
 12 13  1  0
 13 14  3  0
 14 15  1  0
 15 16  2  0
 16 17  1  0
 17 18  1  0
 17 19  1  0
 15 20  1  0
 19 20  2  0
 12 21  1  0
 21 22  1  0
 22 23  1  0
 23 24  1  0
 12 25  1  0
 24 25  1  0
M  END
