CHR-SOS-6c45c019-9
     RDKit          3D

 23 25  0  0  0  0  0  0  0  0999 V2000
    5.0600    1.4410   21.7820 C   0  0  0  0  0  0  0  0  0  0  0  0
    5.5130    1.0310   20.4130 C   0  0  0  0  0  0  0  0  0  0  0  0
    4.7320    1.3600   19.2980 C   0  0  0  0  0  0  0  0  0  0  0  0
    5.1680    0.9700   18.0520 C   0  0  0  0  0  0  0  0  0  0  0  0
    6.2930    0.2840   17.8400 N   0  0  0  0  0  0  0  0  0  0  0  0
    7.0330   -0.0260   18.9180 C   0  0  0  0  0  0  0  0  0  0  0  0
    6.7030    0.3270   20.2190 C   0  0  0  0  0  0  0  0  0  0  0  0
    7.4900    0.0240   21.3340 N   0  0  0  0  0  0  0  0  0  0  0  0
    8.7670    0.5060   21.4970 C   0  0  0  0  0  0  0  0  0  0  0  0
    9.1210    1.6770   21.4170 O   0  0  0  0  0  0  0  0  0  0  0  0
    9.5930   -0.5580   21.6960 N   0  0  0  0  0  0  0  0  0  0  0  0
   10.7830   -0.6570   22.5150 C   0  0  0  0  0  0  0  0  0  0  0  0
   11.5110   -1.6090   21.8540 C   0  0  0  0  0  0  0  0  0  0  0  0
   12.8520   -1.4620   22.0090 C   0  0  0  0  0  0  0  0  0  0  0  0
   13.1760   -1.7810   23.2710 C   0  0  0  0  0  0  0  0  0  0  0  0
   13.7790   -2.9460   23.4600 C   0  0  0  0  0  0  0  0  0  0  0  0
   14.1510   -3.4080   24.6460 N   0  0  0  0  0  0  0  0  0  0  0  0
   13.8790   -2.6260   25.6520 C   0  0  0  0  0  0  0  0  0  0  0  0
   13.2720   -1.4470   25.5820 N   0  0  0  0  0  0  0  0  0  0  0  0
   12.9340   -1.0340   24.3690 C   0  0  0  0  0  0  0  0  0  0  0  0
   10.5940   -0.8870   24.0300 C   0  0  0  0  0  0  0  0  0  0  0  0
   11.3960    0.3250   24.3440 C   0  0  0  0  0  0  0  0  0  0  0  0
   11.6880    0.6300   22.8870 C   0  0  0  0  0  0  0  0  0  0  0  0
  1  2  1  0
  2  3  2  0
  3  4  1  0
  4  5  2  0
  5  6  1  0
  2  7  1  0
  6  7  2  0
  7  8  1  0
  8  9  1  0
  9 10  2  0
  9 11  1  0
 11 12  1  0
 12 13  1  0
 13 14  3  0
 14 15  1  0
 15 16  2  0
 16 17  1  0
 17 18  2  0
 18 19  1  0
 15 20  1  0
 19 20  2  0
 12 21  1  0
 21 22  1  0
 12 23  1  0
 22 23  1  0
M  END
