CHR-SOS-7098f804-4
     RDKit          3D

 18 19  0  0  0  0  0  0  0  0999 V2000
    9.1020    1.6150   21.2480 O   0  0  0  0  0  0  0  0  0  0  0  0
    8.8700    0.5100   21.7480 C   0  0  0  0  0  0  0  0  0  0  0  0
    7.9080   -0.3530   21.2360 N   0  0  0  0  0  0  0  0  0  0  0  0
    6.9700    0.0120   20.2310 C   0  0  0  0  0  0  0  0  0  0  0  0
    7.2130   -0.3870   18.9080 C   0  0  0  0  0  0  0  0  0  0  0  0
    6.3440   -0.0350   17.8790 C   0  0  0  0  0  0  0  0  0  0  0  0
    5.2180    0.7140   18.1490 C   0  0  0  0  0  0  0  0  0  0  0  0
    4.9480    1.1120   19.4490 C   0  0  0  0  0  0  0  0  0  0  0  0
    5.8210    0.7590   20.4850 C   0  0  0  0  0  0  0  0  0  0  0  0
    5.4340    1.2810   22.0860 Cl  0  0  0  0  0  0  0  0  0  0  0  0
    9.7170    0.1810   22.9760 C   0  0  0  0  0  0  0  0  0  0  0  0
   10.7400   -0.5110   22.2740 C   0  0  0  0  0  0  0  0  0  0  0  0
   11.9760   -1.0830   22.9960 C   0  0  0  0  0  0  0  0  0  0  0  0
   13.0840   -1.8700   21.9310 Cl  0  0  0  0  0  0  0  0  0  0  0  0
   12.4160   -1.1060   24.4420 C   0  0  0  0  0  0  0  0  0  0  0  0
   11.2640   -0.4550   24.6390 C   0  0  0  0  0  0  0  0  0  0  0  0
   10.7880   -0.3560   23.4580 C   0  0  0  0  0  0  0  0  0  0  0  0
   11.5750   -0.9290   22.4910 O   0  0  0  0  0  0  0  0  0  0  0  0
  1  2  2  0
  2  3  1  0
  3  4  1  0
  4  5  2  0
  5  6  1  0
  6  7  2  0
  7  8  1  0
  4  9  1  0
  8  9  2  0
  9 10  1  0
  2 11  1  0
 11 12  2  0
 12 13  1  0
 13 14  1  0
 13 15  2  0
 15 16  1  0
 11 17  1  0
 16 17  2  0
 17 18  1  0
M  END
