CHR-SOS-1f323c23-3
     RDKit          3D

 28 30  0  0  0  0  0  0  0  0999 V2000
    5.3120    0.8330   22.2260 C   0  0  0  0  0  0  0  0  0  0  0  0
    5.7650    0.5640   20.7980 C   0  0  0  0  0  0  0  0  0  0  0  0
    4.8630    1.1590   19.6990 C   0  0  0  0  0  0  0  0  0  0  0  0
    5.2840    0.9060   18.2750 C   0  0  0  0  0  0  0  0  0  0  0  0
    6.3780    0.1990   17.9630 N   0  0  0  0  0  0  0  0  0  0  0  0
    7.1050   -0.2840   19.0090 C   0  0  0  0  0  0  0  0  0  0  0  0
    6.9030   -0.1610   20.4050 C   0  0  0  0  0  0  0  0  0  0  0  0
    7.7870   -0.7340   21.3080 N   0  0  0  0  0  0  0  0  0  0  0  0
    8.9980    0.0410   21.6750 C   0  0  0  0  0  0  0  0  0  0  0  0
    9.0470    1.2670   21.7740 O   0  0  0  0  0  0  0  0  0  0  0  0
   10.0840   -0.8040   21.8400 N   0  0  0  0  0  0  0  0  0  0  0  0
   11.1870   -0.8680   22.8280 C   0  0  0  0  0  0  0  0  0  0  0  0
   12.2040    0.0150   22.5970 O   0  0  0  0  0  0  0  0  0  0  0  0
   11.8820    1.2900   22.9030 C   0  0  0  0  0  0  0  0  0  0  0  0
   12.7840    2.3270   22.7190 C   0  0  0  0  0  0  0  0  0  0  0  0
   12.4830    3.6550   22.9880 C   0  0  0  0  0  0  0  0  0  0  0  0
   11.2180    3.9630   23.4800 C   0  0  0  0  0  0  0  0  0  0  0  0
   10.7150    5.6090   23.8480 S   0  0  0  0  0  0  0  0  0  0  0  0
    9.3530    5.7130   22.8770 N   0  0  0  0  0  0  0  0  0  0  0  0
   10.2370    5.6700   25.2150 O   0  0  0  0  0  0  0  0  0  0  0  0
   11.6800    6.5420   23.3220 O   0  0  0  0  0  0  0  0  0  0  0  0
   10.3330    2.9220   23.6780 C   0  0  0  0  0  0  0  0  0  0  0  0
   10.6290    1.6150   23.4050 C   0  0  0  0  0  0  0  0  0  0  0  0
   10.9390   -0.7840   24.1970 C   0  0  0  0  0  0  0  0  0  0  0  0
   12.2130   -0.7650   24.7360 C   0  0  0  0  0  0  0  0  0  0  0  0
   12.8550   -1.9830   24.5100 C   0  0  0  0  0  0  0  0  0  0  0  0
   13.2960   -2.1710   23.0480 C   0  0  0  0  0  0  0  0  0  0  0  0
   11.8500   -2.2160   22.5910 C   0  0  0  0  0  0  0  0  0  0  0  0
  1  2  1  0
  2  3  2  0
  3  4  1  0
  4  5  2  0
  5  6  1  0
  2  7  1  0
  6  7  2  0
  7  8  1  0
  8  9  1  0
  9 10  2  0
  9 11  1  0
 11 12  1  0
 12 13  1  0
 13 14  1  0
 14 15  2  0
 15 16  1  0
 16 17  2  0
 17 18  1  0
 18 19  1  0
 18 20  2  0
 18 21  2  0
 17 22  1  0
 14 23  1  0
 22 23  2  0
 12 24  1  0
 24 25  1  0
 25 26  1  0
 26 27  1  0
 12 28  1  0
 27 28  1  0
M  END
