CHR-SOS-70e4c98a-11
     RDKit          3D

 24 26  0  0  0  0  0  0  0  0999 V2000
    9.1350    5.7680   22.8900 N   0  0  0  0  0  0  0  0  0  0  0  0
   10.4990    5.7100   23.9080 S   0  0  0  0  0  0  0  0  0  0  0  0
   11.4780    6.6430   23.4140 O   0  0  0  0  0  0  0  0  0  0  0  0
   10.0530    5.7230   25.2860 O   0  0  0  0  0  0  0  0  0  0  0  0
   11.0920    4.0870   23.5600 C   0  0  0  0  0  0  0  0  0  0  0  0
   12.4810    4.0120   22.9830 C   0  0  0  0  0  0  0  0  0  0  0  0
   12.9880    2.6240   22.6770 C   0  0  0  0  0  0  0  0  0  0  0  0
   12.0420    1.4770   22.9740 C   0  0  0  0  0  0  0  0  0  0  0  0
   12.2900    0.1950   22.7480 O   0  0  0  0  0  0  0  0  0  0  0  0
   11.1850   -0.7320   22.7090 C   0  0  0  0  0  0  0  0  0  0  0  0
    9.7930   -0.3980   22.7790 C   0  0  0  0  0  0  0  0  0  0  0  0
    9.1560    0.2370   21.6770 C   0  0  0  0  0  0  0  0  0  0  0  0
    9.3080    1.4320   21.4060 O   0  0  0  0  0  0  0  0  0  0  0  0
    8.3130   -0.6100   20.9430 N   0  0  0  0  0  0  0  0  0  0  0  0
    7.1870   -0.1290   20.2080 C   0  0  0  0  0  0  0  0  0  0  0  0
    6.0330    0.5330   20.6820 C   0  0  0  0  0  0  0  0  0  0  0  0
    5.0090    0.9710   19.8370 C   0  0  0  0  0  0  0  0  0  0  0  0
    5.0640    0.7780   18.4670 C   0  0  0  0  0  0  0  0  0  0  0  0
    6.1660    0.1300   17.9700 N   0  0  0  0  0  0  0  0  0  0  0  0
    7.1940   -0.3130   18.8200 C   0  0  0  0  0  0  0  0  0  0  0  0
   11.3740   -1.4200   23.8010 C   0  0  0  0  0  0  0  0  0  0  0  0
   11.6800   -2.1840   22.8000 C   0  0  0  0  0  0  0  0  0  0  0  0
   10.7780    1.6970   23.5210 C   0  0  0  0  0  0  0  0  0  0  0  0
   10.3120    2.9590   23.8070 C   0  0  0  0  0  0  0  0  0  0  0  0
  2  1  1  0
  2  3  2  0
  2  4  2  0
  2  5  1  0
  5  6  2  0
  6  7  1  0
  7  8  2  0
  8  9  1  0
 10  9  1  0
 10 11  1  0
 11 12  1  0
 12 13  2  0
 12 14  1  0
 14 15  1  0
 15 16  2  0
 16 17  1  0
 17 18  2  0
 18 19  1  0
 15 20  1  0
 19 20  2  0
 10 21  1  0
 10 22  1  0
 21 22  1  0
  8 23  1  0
  5 24  1  0
 23 24  2  0
M  END
