CHR-SOS-e960e883-5
     RDKit          3D

 26 28  0  0  0  0  0  0  0  0999 V2000
    5.5320    1.2730   22.1060 C   0  0  0  0  0  0  0  0  0  0  0  0
    5.8530    0.9560   20.6740 C   0  0  0  0  0  0  0  0  0  0  0  0
    5.0470    1.5480   19.5350 C   0  0  0  0  0  0  0  0  0  0  0  0
    5.4200    1.1910   18.1220 C   0  0  0  0  0  0  0  0  0  0  0  0
    6.4210    0.3780   17.8050 N   0  0  0  0  0  0  0  0  0  0  0  0
    7.1350   -0.1500   18.8500 C   0  0  0  0  0  0  0  0  0  0  0  0
    6.8980    0.1040   20.2460 C   0  0  0  0  0  0  0  0  0  0  0  0
    7.7770   -0.5640   21.0590 N   0  0  0  0  0  0  0  0  0  0  0  0
    8.6180    0.2470   21.8020 C   0  0  0  0  0  0  0  0  0  0  0  0
    9.0720    1.3000   21.3230 O   0  0  0  0  0  0  0  0  0  0  0  0
    8.9820   -0.1050   23.1570 C   0  0  0  0  0  0  0  0  0  0  0  0
   10.5090   -0.0650   23.3740 C   0  0  0  0  0  0  0  0  0  0  0  0
   11.0880    1.3460   23.2890 C   0  0  0  0  0  0  0  0  0  0  0  0
   12.5190    1.3880   22.8820 C   0  0  0  0  0  0  0  0  0  0  0  0
   13.0730    2.6520   22.7810 C   0  0  0  0  0  0  0  0  0  0  0  0
   12.3660    3.7920   23.0400 C   0  0  0  0  0  0  0  0  0  0  0  0
   11.0500    3.7990   23.4290 C   0  0  0  0  0  0  0  0  0  0  0  0
   10.3300    5.4000   23.7290 S   0  0  0  0  0  0  0  0  0  0  0  0
    9.0000    5.3970   22.7060 N   0  0  0  0  0  0  0  0  0  0  0  0
   11.2670    6.3870   23.2290 O   0  0  0  0  0  0  0  0  0  0  0  0
    9.8180    5.4840   25.0740 O   0  0  0  0  0  0  0  0  0  0  0  0
   10.3810    2.5590   23.5600 C   0  0  0  0  0  0  0  0  0  0  0  0
   10.9660   -0.6830   24.7230 C   0  0  0  0  0  0  0  0  0  0  0  0
   12.3200   -0.9860   24.5620 C   0  0  0  0  0  0  0  0  0  0  0  0
   12.4760   -1.4000   23.2320 C   0  0  0  0  0  0  0  0  0  0  0  0
   11.2580   -1.1820   22.5660 C   0  0  0  0  0  0  0  0  0  0  0  0
  1  2  1  0
  2  3  2  0
  3  4  1  0
  4  5  2  0
  5  6  1  0
  2  7  1  0
  6  7  2  0
  7  8  1  0
  8  9  1  0
  9 10  2  0
  9 11  1  0
 12 11  1  0
 12 13  1  0
 13 14  2  0
 14 15  1  0
 15 16  2  0
 16 17  1  0
 17 18  1  0
 18 19  1  0
 18 20  2  0
 18 21  2  0
 13 22  1  0
 17 22  2  0
 12 23  1  0
 23 24  1  0
 24 25  1  0
 12 26  1  0
 25 26  1  0
M  END
