CHR-SOS-e960e883-2
     RDKit          3D

 25 27  0  0  0  0  0  0  0  0999 V2000
    8.4590    4.9950   22.5720 N   0  0  0  0  0  0  0  0  0  0  0  0
    9.2440    4.3750   23.9310 S   0  0  0  0  0  0  0  0  0  0  0  0
    8.3040    4.5730   25.0070 O   0  0  0  0  0  0  0  0  0  0  0  0
   10.5430    5.0160   23.9440 O   0  0  0  0  0  0  0  0  0  0  0  0
    9.4420    2.6230   23.5930 C   0  0  0  0  0  0  0  0  0  0  0  0
    8.6500    1.4860   24.2760 C   0  0  0  0  0  0  0  0  0  0  0  0
    8.9280   -0.0160   23.8530 C   0  0  0  0  0  0  0  0  0  0  0  0
    9.9910   -0.3430   22.7590 C   0  0  0  0  0  0  0  0  0  0  0  0
   10.4900    0.8360   22.3850 C   0  0  0  0  0  0  0  0  0  0  0  0
    9.5010    0.6970   23.3720 C   0  0  0  0  0  0  0  0  0  0  0  0
    8.3490    1.4000   23.1310 C   0  0  0  0  0  0  0  0  0  0  0  0
    8.3220    1.4780   21.7300 C   0  0  0  0  0  0  0  0  0  0  0  0
    8.7480    2.4520   21.1300 O   0  0  0  0  0  0  0  0  0  0  0  0
    7.7810    0.3680   21.1840 N   0  0  0  0  0  0  0  0  0  0  0  0
    6.8380    0.4470   20.0790 C   0  0  0  0  0  0  0  0  0  0  0  0
    5.8710    1.6180   20.1100 C   0  0  0  0  0  0  0  0  0  0  0  0
    4.9210    1.6810   18.9630 C   0  0  0  0  0  0  0  0  0  0  0  0
    4.9940    0.6910   17.9850 C   0  0  0  0  0  0  0  0  0  0  0  0
    5.8980   -0.3260   18.0390 N   0  0  0  0  0  0  0  0  0  0  0  0
    6.7610   -0.4240   19.0390 C   0  0  0  0  0  0  0  0  0  0  0  0
   10.1230    0.8220   24.7750 C   0  0  0  0  0  0  0  0  0  0  0  0
   10.7520   -0.3870   25.0790 C   0  0  0  0  0  0  0  0  0  0  0  0
   10.3550   -1.3240   24.1270 C   0  0  0  0  0  0  0  0  0  0  0  0
    9.2020   -0.8460   23.4700 C   0  0  0  0  0  0  0  0  0  0  0  0
   10.3810    2.2230   22.6340 C   0  0  0  0  0  0  0  0  0  0  0  0
  2  1  1  0
  2  3  2  0
  2  4  2  0
  2  5  1  0
  5  6  2  0
  6  7  1  0
  7  8  2  0
  8  9  1  0
  9 10  1  0
 10 11  1  0
 11 12  1  0
 12 13  2  0
 12 14  1  0
 14 15  1  0
 15 16  2  0
 16 17  1  0
 17 18  2  0
 18 19  1  0
 15 20  1  0
 19 20  2  0
 10 21  1  0
 21 22  1  0
 22 23  1  0
 10 24  1  0
 23 24  1  0
  5 25  1  0
  9 25  2  0
M  END
