CHR-SOS-7098f804-8
     RDKit          3D

 16 17  0  0  0  0  0  0  0  0999 V2000
    9.2010    1.6390   21.3040 O   0  0  0  0  0  0  0  0  0  0  0  0
    9.0060    0.6080   21.9600 C   0  0  0  0  0  0  0  0  0  0  0  0
    7.9900   -0.2910   21.5930 N   0  0  0  0  0  0  0  0  0  0  0  0
    7.0810    0.0140   20.4960 C   0  0  0  0  0  0  0  0  0  0  0  0
    5.9420    0.8130   20.6820 C   0  0  0  0  0  0  0  0  0  0  0  0
    5.0680    1.1390   19.6240 C   0  0  0  0  0  0  0  0  0  0  0  0
    5.3070    0.6670   18.3360 C   0  0  0  0  0  0  0  0  0  0  0  0
    6.4270   -0.1390   18.1360 C   0  0  0  0  0  0  0  0  0  0  0  0
    7.2910   -0.4600   19.1890 C   0  0  0  0  0  0  0  0  0  0  0  0
    9.9420    0.4730   23.1830 C   0  0  0  0  0  0  0  0  0  0  0  0
   10.6410   -0.4250   22.7570 C   0  0  0  0  0  0  0  0  0  0  0  0
   10.6600   -1.1010   21.7260 C   0  0  0  0  0  0  0  0  0  0  0  0
   11.7150   -1.7630   22.1220 C   0  0  0  0  0  0  0  0  0  0  0  0
   12.1620   -1.2760   23.5360 C   0  0  0  0  0  0  0  0  0  0  0  0
   12.4780   -0.6120   25.0550 Cl  0  0  0  0  0  0  0  0  0  0  0  0
   11.1110   -0.1420   23.8950 C   0  0  0  0  0  0  0  0  0  0  0  0
  1  2  2  0
  2  3  1  0
  3  4  1  0
  4  5  2  0
  5  6  1  0
  6  7  2  0
  7  8  1  0
  4  9  1  0
  8  9  2  0
  2 10  1  0
 10 11  2  0
 11 12  1  0
 12 13  2  0
 13 14  1  0
 14 15  1  0
 10 16  1  0
 14 16  2  0
M  END
