CHR-SOS-70e4c98a-4
     RDKit          3D

 26 28  0  0  0  0  0  0  0  0999 V2000
    8.7980    5.5920   22.7240 N   0  0  0  0  0  0  0  0  0  0  0  0
   10.1060    5.6510   23.8130 S   0  0  0  0  0  0  0  0  0  0  0  0
    9.5740    5.7120   25.1550 O   0  0  0  0  0  0  0  0  0  0  0  0
   11.0490    6.6440   23.3400 O   0  0  0  0  0  0  0  0  0  0  0  0
   10.8690    4.0580   23.5930 C   0  0  0  0  0  0  0  0  0  0  0  0
   12.2600    4.1180   23.0090 C   0  0  0  0  0  0  0  0  0  0  0  0
   12.9880    2.8070   22.7910 C   0  0  0  0  0  0  0  0  0  0  0  0
   12.2770    1.5230   23.1680 C   0  0  0  0  0  0  0  0  0  0  0  0
   10.8760    1.6240   23.7400 C   0  0  0  0  0  0  0  0  0  0  0  0
   10.2110    0.5010   24.0820 O   0  0  0  0  0  0  0  0  0  0  0  0
   10.5940   -0.7380   23.4750 C   0  0  0  0  0  0  0  0  0  0  0  0
    9.5340   -1.3870   22.8300 C   0  0  0  0  0  0  0  0  0  0  0  0
    8.8370   -0.5510   21.9160 C   0  0  0  0  0  0  0  0  0  0  0  0
    9.2390    0.5810   21.6180 O   0  0  0  0  0  0  0  0  0  0  0  0
    7.6190   -0.9360   21.2940 N   0  0  0  0  0  0  0  0  0  0  0  0
    6.8750   -0.2920   20.2970 C   0  0  0  0  0  0  0  0  0  0  0  0
    5.7950    0.5110   20.6610 C   0  0  0  0  0  0  0  0  0  0  0  0
    5.0070    1.1830   19.7300 C   0  0  0  0  0  0  0  0  0  0  0  0
    5.2970    1.0590   18.3790 C   0  0  0  0  0  0  0  0  0  0  0  0
    6.3250    0.2990   17.9500 N   0  0  0  0  0  0  0  0  0  0  0  0
    7.0940   -0.3650   18.9200 C   0  0  0  0  0  0  0  0  0  0  0  0
   11.6610   -0.6880   22.3650 C   0  0  0  0  0  0  0  0  0  0  0  0
   12.8600   -1.0080   22.9790 C   0  0  0  0  0  0  0  0  0  0  0  0
   12.6030   -0.9600   24.3150 C   0  0  0  0  0  0  0  0  0  0  0  0
   11.2810   -1.3480   24.5320 C   0  0  0  0  0  0  0  0  0  0  0  0
   10.2360    2.8560   23.9310 C   0  0  0  0  0  0  0  0  0  0  0  0
  2  1  1  0
  2  3  2  0
  2  4  2  0
  2  5  1  0
  5  6  2  0
  6  7  1  0
  7  8  2  0
  8  9  1  0
  9 10  1  0
 11 10  1  0
 11 12  1  0
 12 13  1  0
 13 14  2  0
 13 15  1  0
 15 16  1  0
 16 17  2  0
 17 18  1  0
 18 19  2  0
 19 20  1  0
 16 21  1  0
 20 21  2  0
 11 22  1  0
 22 23  1  0
 23 24  1  0
 11 25  1  0
 24 25  1  0
  5 26  1  0
  9 26  2  0
M  END
