CHR-SOS-7098f804-15
     RDKit          3D

 26 28  0  0  0  0  0  0  0  0999 V2000
    9.4570    5.9390   22.7280 N   0  0  0  0  0  0  0  0  0  0  0  0
   10.8750    5.8200   23.6240 S   0  0  0  0  0  0  0  0  0  0  0  0
   10.5170    6.0220   25.0110 O   0  0  0  0  0  0  0  0  0  0  0  0
   11.8660    6.5980   22.9470 O   0  0  0  0  0  0  0  0  0  0  0  0
   11.2280    4.1100   23.4230 C   0  0  0  0  0  0  0  0  0  0  0  0
   12.4670    3.6000   22.9820 C   0  0  0  0  0  0  0  0  0  0  0  0
   12.6240    2.2060   22.8900 C   0  0  0  0  0  0  0  0  0  0  0  0
   11.5510    1.3840   23.2230 C   0  0  0  0  0  0  0  0  0  0  0  0
   11.4630    0.0120   23.2170 C   0  0  0  0  0  0  0  0  0  0  0  0
   12.5330   -0.7870   23.8580 C   0  0  0  0  0  0  0  0  0  0  0  0
   12.1430   -2.0440   23.7490 C   0  0  0  0  0  0  0  0  0  0  0  0
   11.1030   -1.5490   23.1460 C   0  0  0  0  0  0  0  0  0  0  0  0
   11.2600    0.1560   23.0820 Cl  0  0  0  0  0  0  0  0  0  0  0  0
   10.0290   -2.0000   22.6050 C   0  0  0  0  0  0  0  0  0  0  0  0
   10.1940   -0.6030   22.5550 C   0  0  0  0  0  0  0  0  0  0  0  0
    9.1330    0.1340   21.8750 C   0  0  0  0  0  0  0  0  0  0  0  0
    9.2860    1.3350   21.7290 O   0  0  0  0  0  0  0  0  0  0  0  0
    8.0050   -0.5650   21.3780 N   0  0  0  0  0  0  0  0  0  0  0  0
    7.0920   -0.1140   20.3560 C   0  0  0  0  0  0  0  0  0  0  0  0
    5.9650    0.6390   20.7370 C   0  0  0  0  0  0  0  0  0  0  0  0
    5.0650    1.1010   19.7720 C   0  0  0  0  0  0  0  0  0  0  0  0
    5.2900    0.8110   18.4340 C   0  0  0  0  0  0  0  0  0  0  0  0
    6.3430    0.0950   18.0280 N   0  0  0  0  0  0  0  0  0  0  0  0
    7.2130   -0.3550   18.9800 C   0  0  0  0  0  0  0  0  0  0  0  0
   10.3520    1.9370   23.6450 C   0  0  0  0  0  0  0  0  0  0  0  0
   10.1840    3.2770   23.7440 C   0  0  0  0  0  0  0  0  0  0  0  0
  2  1  1  0
  2  3  2  0
  2  4  2  0
  2  5  1  0
  5  6  2  0
  6  7  1  0
  7  8  2  0
  8  9  1  0
  9 10  2  0
 10 11  1  0
 11 12  2  0
 12 13  1  0
 12 14  1  0
  9 15  1  0
 14 15  2  0
 15 16  1  0
 16 17  2  0
 16 18  1  0
 18 19  1  0
 19 20  2  0
 20 21  1  0
 21 22  2  0
 22 23  1  0
 19 24  1  0
 23 24  2  0
  8 25  1  0
  5 26  1  0
 25 26  2  0
M  END
