CHR-SOS-70e4c98a-7
     RDKit          3D

 24 26  0  0  0  0  0  0  0  0999 V2000
    8.7370    5.4330   22.6750 N   0  0  0  0  0  0  0  0  0  0  0  0
   10.0720    5.5470   23.7270 S   0  0  0  0  0  0  0  0  0  0  0  0
    9.5640    5.6550   25.0730 O   0  0  0  0  0  0  0  0  0  0  0  0
   10.9870    6.5430   23.2080 O   0  0  0  0  0  0  0  0  0  0  0  0
   10.8770    3.9630   23.5720 C   0  0  0  0  0  0  0  0  0  0  0  0
   12.2210    4.0380   22.9670 C   0  0  0  0  0  0  0  0  0  0  0  0
   12.8790    2.7170   22.8660 C   0  0  0  0  0  0  0  0  0  0  0  0
   12.1380    1.4910   23.3660 C   0  0  0  0  0  0  0  0  0  0  0  0
   10.7280    1.3860   23.9990 C   0  0  0  0  0  0  0  0  0  0  0  0
   11.3170    0.1840   23.9140 O   0  0  0  0  0  0  0  0  0  0  0  0
   10.8270   -0.8480   23.0600 C   0  0  0  0  0  0  0  0  0  0  0  0
    9.4600   -1.1140   22.8950 C   0  0  0  0  0  0  0  0  0  0  0  0
    8.8030   -0.3570   21.8990 C   0  0  0  0  0  0  0  0  0  0  0  0
    9.1890    0.7580   21.5480 O   0  0  0  0  0  0  0  0  0  0  0  0
    7.6320   -0.8280   21.2470 N   0  0  0  0  0  0  0  0  0  0  0  0
    6.8650   -0.2160   20.2560 C   0  0  0  0  0  0  0  0  0  0  0  0
    5.7720    0.5610   20.6210 C   0  0  0  0  0  0  0  0  0  0  0  0
    4.9600    1.2050   19.6940 C   0  0  0  0  0  0  0  0  0  0  0  0
    5.2440    1.0740   18.3410 C   0  0  0  0  0  0  0  0  0  0  0  0
    6.2870    0.3340   17.9110 N   0  0  0  0  0  0  0  0  0  0  0  0
    7.0770   -0.3000   18.8800 C   0  0  0  0  0  0  0  0  0  0  0  0
   11.4870   -2.1130   23.3370 C   0  0  0  0  0  0  0  0  0  0  0  0
   11.8550   -1.5840   22.1740 C   0  0  0  0  0  0  0  0  0  0  0  0
   10.2740    2.7640   24.0020 C   0  0  0  0  0  0  0  0  0  0  0  0
  2  1  1  0
  2  3  2  0
  2  4  2  0
  2  5  1  0
  5  6  2  0
  6  7  1  0
  7  8  2  0
  8  9  1  0
  9 10  1  0
 11 10  1  0
 11 12  1  0
 12 13  1  0
 13 14  2  0
 13 15  1  0
 15 16  1  0
 16 17  2  0
 17 18  1  0
 18 19  2  0
 19 20  1  0
 16 21  1  0
 20 21  2  0
 11 22  1  0
 11 23  1  0
 22 23  1  0
  5 24  1  0
  9 24  2  0
M  END
