CHR-SOS-6c45c019-15
     RDKit          3D

 23 25  0  0  0  0  0  0  0  0999 V2000
    5.4110    1.8220   21.8500 C   0  0  0  0  0  0  0  0  0  0  0  0
    5.7700    1.1610   20.5560 C   0  0  0  0  0  0  0  0  0  0  0  0
    4.9070    1.3280   19.4590 C   0  0  0  0  0  0  0  0  0  0  0  0
    5.2180    0.7240   18.2590 C   0  0  0  0  0  0  0  0  0  0  0  0
    6.3130   -0.0270   18.0920 N   0  0  0  0  0  0  0  0  0  0  0  0
    7.1350   -0.1860   19.1520 C   0  0  0  0  0  0  0  0  0  0  0  0
    6.9340    0.3840   20.4110 C   0  0  0  0  0  0  0  0  0  0  0  0
    7.8180    0.2320   21.5250 N   0  0  0  0  0  0  0  0  0  0  0  0
    8.7470    1.1870   21.9460 C   0  0  0  0  0  0  0  0  0  0  0  0
    9.0970    2.1550   21.2910 O   0  0  0  0  0  0  0  0  0  0  0  0
    9.2730    0.9310   23.2150 N   0  0  0  0  0  0  0  0  0  0  0  0
   10.2800   -0.0900   23.4510 C   0  0  0  0  0  0  0  0  0  0  0  0
    9.8100   -1.1570   22.7350 C   0  0  0  0  0  0  0  0  0  0  0  0
   10.5060   -1.4970   21.6370 C   0  0  0  0  0  0  0  0  0  0  0  0
   11.6820   -2.1260   21.8350 C   0  0  0  0  0  0  0  0  0  0  0  0
   12.2850   -2.8850   20.9350 C   0  0  0  0  0  0  0  0  0  0  0  0
   13.3770   -3.3710   21.3650 N   0  0  0  0  0  0  0  0  0  0  0  0
   14.0750   -4.1550   20.5520 C   0  0  0  0  0  0  0  0  0  0  0  0
   13.4870   -2.8800   22.6600 C   0  0  0  0  0  0  0  0  0  0  0  0
   12.4470   -2.1060   22.9670 N   0  0  0  0  0  0  0  0  0  0  0  0
   10.5990   -0.5490   24.8740 C   0  0  0  0  0  0  0  0  0  0  0  0
   12.0650   -0.4750   24.6110 C   0  0  0  0  0  0  0  0  0  0  0  0
   11.8500    0.2880   23.3090 C   0  0  0  0  0  0  0  0  0  0  0  0
  1  2  1  0
  2  3  2  0
  3  4  1  0
  4  5  2  0
  5  6  1  0
  2  7  1  0
  6  7  2  0
  7  8  1  0
  8  9  1  0
  9 10  2  0
  9 11  1  0
 11 12  1  0
 12 13  1  0
 13 14  3  0
 14 15  1  0
 15 16  2  0
 16 17  1  0
 17 18  1  0
 17 19  1  0
 15 20  1  0
 19 20  2  0
 12 21  1  0
 21 22  1  0
 12 23  1  0
 22 23  1  0
M  END
