CHR-SOS-1f323c23-10
     RDKit          3D

 21 23  0  0  0  0  0  0  0  0999 V2000
    5.2780    1.4360   21.8550 C   0  0  0  0  0  0  0  0  0  0  0  0
    5.6710    0.9620   20.4900 C   0  0  0  0  0  0  0  0  0  0  0  0
    4.8060    1.2060   19.4150 C   0  0  0  0  0  0  0  0  0  0  0  0
    5.1630    0.7710   18.1610 C   0  0  0  0  0  0  0  0  0  0  0  0
    6.2960    0.1120   17.9100 N   0  0  0  0  0  0  0  0  0  0  0  0
    7.1190   -0.1200   18.9490 C   0  0  0  0  0  0  0  0  0  0  0  0
    6.8780    0.2860   20.2580 C   0  0  0  0  0  0  0  0  0  0  0  0
    7.7600    0.0740   21.3490 N   0  0  0  0  0  0  0  0  0  0  0  0
    8.6770    1.0160   21.7950 C   0  0  0  0  0  0  0  0  0  0  0  0
    9.0880    1.9650   21.1570 O   0  0  0  0  0  0  0  0  0  0  0  0
    9.1180    0.7850   23.0760 N   0  0  0  0  0  0  0  0  0  0  0  0
   10.2910   -0.0080   23.3350 C   0  0  0  0  0  0  0  0  0  0  0  0
   10.1320   -1.3670   23.0220 O   0  0  0  0  0  0  0  0  0  0  0  0
   11.3230   -1.8750   23.1160 C   0  0  0  0  0  0  0  0  0  0  0  0
   11.9380   -2.0550   21.9340 C   0  0  0  0  0  0  0  0  0  0  0  0
   13.1690   -2.5580   21.9580 C   0  0  0  0  0  0  0  0  0  0  0  0
   13.7660   -2.8810   23.1860 C   0  0  0  0  0  0  0  0  0  0  0  0
   13.1280   -2.6890   24.3850 C   0  0  0  0  0  0  0  0  0  0  0  0
   11.8750   -2.1730   24.3410 C   0  0  0  0  0  0  0  0  0  0  0  0
   10.6900   -0.0100   24.7460 C   0  0  0  0  0  0  0  0  0  0  0  0
   11.7440    0.5880   23.9350 C   0  0  0  0  0  0  0  0  0  0  0  0
  1  2  1  0
  2  3  2  0
  3  4  1  0
  4  5  2  0
  5  6  1  0
  2  7  1  0
  6  7  2  0
  7  8  1  0
  8  9  1  0
  9 10  2  0
  9 11  1  0
 11 12  1  0
 12 13  1  0
 13 14  1  0
 14 15  2  0
 15 16  1  0
 16 17  2  0
 17 18  1  0
 14 19  1  0
 18 19  2  0
 12 20  1  0
 12 21  1  0
 20 21  1  0
M  END
