CHR-SOS-7098f804-6
     RDKit          3D

 18 19  0  0  0  0  0  0  0  0999 V2000
   13.2230   -1.9130   21.6750 O   0  0  0  0  0  0  0  0  0  0  0  0
   12.8430   -1.0890   22.5010 C   0  0  0  0  0  0  0  0  0  0  0  0
   13.3620    0.1720   22.6680 N   0  0  0  0  0  0  0  0  0  0  0  0
   12.6610    1.3600   22.9450 C   0  0  0  0  0  0  0  0  0  0  0  0
   11.4460    1.2970   23.6230 C   0  0  0  0  0  0  0  0  0  0  0  0
   10.7240    2.4590   23.9080 C   0  0  0  0  0  0  0  0  0  0  0  0
   11.2150    3.7060   23.5190 C   0  0  0  0  0  0  0  0  0  0  0  0
   10.4840    4.9530   23.8190 N   0  0  0  0  0  0  0  0  0  0  0  0
    9.6330    4.9250   24.7320 O   0  0  0  0  0  0  0  0  0  0  0  0
   11.0700    6.0040   23.4980 O   0  0  0  0  0  0  0  0  0  0  0  0
   12.4230    3.7770   22.8440 C   0  0  0  0  0  0  0  0  0  0  0  0
   13.1310    2.6170   22.5660 C   0  0  0  0  0  0  0  0  0  0  0  0
   11.7190   -1.4740   23.3990 C   0  0  0  0  0  0  0  0  0  0  0  0
   10.6720   -0.5560   23.5660 C   0  0  0  0  0  0  0  0  0  0  0  0
    9.7710   -1.0940   24.3950 C   0  0  0  0  0  0  0  0  0  0  0  0
    9.4860   -2.1770   25.1250 C   0  0  0  0  0  0  0  0  0  0  0  0
   10.5310   -3.0910   24.9610 C   0  0  0  0  0  0  0  0  0  0  0  0
   11.6300   -2.7270   24.1050 C   0  0  0  0  0  0  0  0  0  0  0  0
  1  2  2  0
  2  3  1  0
  3  4  1  0
  4  5  2  0
  5  6  1  0
  6  7  2  0
  7  8  1  0
  8  9  2  0
  8 10  1  0
  7 11  1  0
  4 12  1  0
 11 12  2  0
  2 13  1  0
 13 14  2  0
 14 15  1  0
 15 16  2  0
 16 17  1  0
 13 18  1  0
 17 18  2  0
M  CHG  2   8   1  10  -1
M  END
