CHR-SOS-70e4c98a-2
     RDKit          3D

 27 29  0  0  0  0  0  0  0  0999 V2000
    9.1260    5.9370   22.8280 N   0  0  0  0  0  0  0  0  0  0  0  0
   10.4650    5.8000   23.8700 S   0  0  0  0  0  0  0  0  0  0  0  0
   11.5160    6.6610   23.3900 O   0  0  0  0  0  0  0  0  0  0  0  0
    9.9890    5.8610   25.2390 O   0  0  0  0  0  0  0  0  0  0  0  0
   10.9430    4.1370   23.5490 C   0  0  0  0  0  0  0  0  0  0  0  0
   12.3760    3.9530   23.1140 C   0  0  0  0  0  0  0  0  0  0  0  0
   12.8270    2.5380   22.8200 C   0  0  0  0  0  0  0  0  0  0  0  0
   11.8230    1.4180   22.9570 C   0  0  0  0  0  0  0  0  0  0  0  0
   12.0800    0.1510   22.6910 O   0  0  0  0  0  0  0  0  0  0  0  0
   11.1230   -0.8610   23.0340 C   0  0  0  0  0  0  0  0  0  0  0  0
    9.6940   -0.8700   22.8440 C   0  0  0  0  0  0  0  0  0  0  0  0
    9.0820   -0.1000   21.8250 C   0  0  0  0  0  0  0  0  0  0  0  0
    9.4480    1.0190   21.5060 O   0  0  0  0  0  0  0  0  0  0  0  0
    7.9760   -0.7500   21.2480 N   0  0  0  0  0  0  0  0  0  0  0  0
    7.0210   -0.1800   20.3530 C   0  0  0  0  0  0  0  0  0  0  0  0
    5.8900    0.5860   20.6960 C   0  0  0  0  0  0  0  0  0  0  0  0
    5.0090    1.1190   19.7520 C   0  0  0  0  0  0  0  0  0  0  0  0
    5.1960    0.9190   18.3930 C   0  0  0  0  0  0  0  0  0  0  0  0
    6.2830    0.1710   18.0150 N   0  0  0  0  0  0  0  0  0  0  0  0
    7.1740   -0.3700   18.9700 C   0  0  0  0  0  0  0  0  0  0  0  0
   11.3320   -1.0010   24.4030 C   0  0  0  0  0  0  0  0  0  0  0  0
   12.6840   -1.0970   24.6220 C   0  0  0  0  0  0  0  0  0  0  0  0
   13.1020   -2.3340   24.1550 C   0  0  0  0  0  0  0  0  0  0  0  0
   13.0290   -2.3160   22.7720 C   0  0  0  0  0  0  0  0  0  0  0  0
   11.7430   -2.0480   22.3050 C   0  0  0  0  0  0  0  0  0  0  0  0
   10.5240    1.6690   23.3770 C   0  0  0  0  0  0  0  0  0  0  0  0
   10.0540    3.0810   23.6890 C   0  0  0  0  0  0  0  0  0  0  0  0
  2  1  1  0
  2  3  2  0
  2  4  2  0
  2  5  1  0
  5  6  2  0
  6  7  1  0
  7  8  2  0
  8  9  1  0
 10  9  1  0
 10 11  1  0
 11 12  1  0
 12 13  2  0
 12 14  1  0
 14 15  1  0
 15 16  2  0
 16 17  1  0
 17 18  2  0
 18 19  1  0
 15 20  1  0
 19 20  2  0
 10 21  1  0
 21 22  1  0
 22 23  1  0
 23 24  1  0
 10 25  1  0
 24 25  1  0
  8 26  1  0
  5 27  1  0
 26 27  2  0
M  END
