CHR-UNK-e061132b-1
     RDKit          3D

 26 28  0  0  0  0  0  0  0  0999 V2000
    5.9970   -2.1360   18.7680 C   0  0  0  0  0  0  0  0  0  0  0  0
    5.8150   -3.0630   19.7980 C   0  0  0  0  0  0  0  0  0  0  0  0
    5.2800   -4.1580   19.6160 O   0  0  0  0  0  0  0  0  0  0  0  0
    6.3480   -2.6400   21.0850 N   0  0  0  0  0  0  0  0  0  0  0  0
    7.5530   -1.8090   21.0280 C   0  0  0  0  0  0  0  0  0  0  0  0
    7.8060   -1.1110   22.3580 C   0  0  0  0  0  0  0  0  0  0  0  0
    7.0200   -1.8060   23.4110 N   0  0  0  0  0  0  0  0  0  0  0  0
    7.4400   -1.3500   24.7640 C   0  0  0  0  0  0  0  0  0  0  0  0
    8.5260   -0.5150   24.5850 C   0  0  0  0  0  0  0  0  0  0  0  0
    9.5520   -1.2020   24.0830 N   0  0  0  0  0  0  0  0  0  0  0  0
   10.6100   -0.5470   23.5950 C   0  0  0  0  0  0  0  0  0  0  0  0
   11.3940   -1.2910   22.8990 C   0  0  0  0  0  0  0  0  0  0  0  0
   12.4660   -0.7630   22.3770 C   0  0  0  0  0  0  0  0  0  0  0  0
   13.1990   -1.9790   21.4960 S   0  0  0  0  0  0  0  0  0  0  0  0
   14.0630   -1.1520   20.3590 N   0  0  0  0  0  0  0  0  0  0  0  0
   12.2080   -2.5450   20.6660 O   0  0  0  0  0  0  0  0  0  0  0  0
   13.7900   -2.7700   22.5440 O   0  0  0  0  0  0  0  0  0  0  0  0
   12.8730    0.5500   22.5350 C   0  0  0  0  0  0  0  0  0  0  0  0
   12.0310    1.3860   23.2660 C   0  0  0  0  0  0  0  0  0  0  0  0
   10.8670    0.8010   23.7820 C   0  0  0  0  0  0  0  0  0  0  0  0
    9.9000    1.4970   24.4680 C   0  0  0  0  0  0  0  0  0  0  0  0
   10.0120    2.8170   24.6980 O   0  0  0  0  0  0  0  0  0  0  0  0
    8.6150    0.8030   24.8250 C   0  0  0  0  0  0  0  0  0  0  0  0
    7.3280    1.7550   25.4680 Cl  0  0  0  0  0  0  0  0  0  0  0  0
    7.2160   -3.2650   23.2120 C   0  0  0  0  0  0  0  0  0  0  0  0
    6.3820   -3.6520   22.1540 C   0  0  0  0  0  0  0  0  0  0  0  0
  1  2  1  0
  2  3  2  0
  2  4  1  0
  4  5  1  0
  5  6  1  0
  6  7  1  0
  7  8  1  0
  8  9  1  0
  9 10  1  0
 10 11  1  0
 11 12  2  0
 12 13  1  0
 13 14  1  0
 14 15  1  0
 14 16  2  0
 14 17  2  0
 13 18  2  0
 18 19  1  0
 11 20  1  0
 19 20  2  0
 20 21  1  0
 21 22  2  0
  9 23  2  0
 21 23  1  0
 23 24  1  0
  7 25  1  0
  4 26  1  0
 25 26  1  0
M  END
