CHR-SOS-b301fc01-5
     RDKit          3D

 24 26  0  0  0  0  0  0  0  0999 V2000
    9.2670    1.5730   21.3180 O   0  0  0  0  0  0  0  0  0  0  0  0
    8.8250    0.5420   21.8200 C   0  0  0  0  0  0  0  0  0  0  0  0
    9.3440   -0.1410   23.0970 C   0  0  0  0  0  0  0  0  0  0  0  0
   10.8730   -0.1290   23.4050 C   0  0  0  0  0  0  0  0  0  0  0  0
   11.5170    1.2660   23.4860 C   0  0  0  0  0  0  0  0  0  0  0  0
   10.5970    2.4010   23.1020 C   0  0  0  0  0  0  0  0  0  0  0  0
   11.1300    3.6820   22.9080 C   0  0  0  0  0  0  0  0  0  0  0  0
   12.2570    3.9720   22.1220 C   0  0  0  0  0  0  0  0  0  0  0  0
   12.7810    5.2770   21.9420 C   0  0  0  0  0  0  0  0  0  0  0  0
   12.0540    6.3510   22.6520 N   0  0  0  0  0  0  0  0  0  0  0  0
   10.9250    6.1020   23.4450 N   0  0  0  0  0  0  0  0  0  0  0  0
   10.4350    4.8420   23.6030 C   0  0  0  0  0  0  0  0  0  0  0  0
   11.6430   -0.9240   22.3130 C   0  0  0  0  0  0  0  0  0  0  0  0
   12.3610   -1.9750   22.8320 C   0  0  0  0  0  0  0  0  0  0  0  0
   13.1790   -1.3950   23.7740 C   0  0  0  0  0  0  0  0  0  0  0  0
   12.5030   -1.0560   24.9310 C   0  0  0  0  0  0  0  0  0  0  0  0
   11.1370   -0.8530   24.7490 C   0  0  0  0  0  0  0  0  0  0  0  0
    7.7440   -0.1640   21.3060 N   0  0  0  0  0  0  0  0  0  0  0  0
    6.9080    0.2530   20.1740 C   0  0  0  0  0  0  0  0  0  0  0  0
    5.8780    1.1250   20.4760 C   0  0  0  0  0  0  0  0  0  0  0  0
    5.0390    1.5850   19.4730 C   0  0  0  0  0  0  0  0  0  0  0  0
    5.3510    1.0640   18.0780 C   0  0  0  0  0  0  0  0  0  0  0  0
    6.3530    0.2190   17.8150 N   0  0  0  0  0  0  0  0  0  0  0  0
    7.1070   -0.1710   18.8700 C   0  0  0  0  0  0  0  0  0  0  0  0
  1  2  2  0
  2  3  1  0
  3  4  1  0
  4  5  1  0
  5  6  3  0
  6  7  1  0
  7  8  2  0
  8  9  1  0
  9 10  2  0
 10 11  1  0
  7 12  1  0
 11 12  2  0
  4 13  1  0
 13 14  1  0
 14 15  1  0
 15 16  1  0
  4 17  1  0
 16 17  1  0
  2 18  1  0
 18 19  1  0
 19 20  2  0
 20 21  1  0
 21 22  2  0
 22 23  1  0
 19 24  1  0
 23 24  2  0
M  END
