CHR-SOS-7098f804-2
     RDKit          3D

 20 21  0  0  0  0  0  0  0  0999 V2000
    9.2880    1.6850   21.4580 O   0  0  0  0  0  0  0  0  0  0  0  0
    9.1900    0.5980   22.0460 C   0  0  0  0  0  0  0  0  0  0  0  0
    8.2630   -0.3540   21.6330 N   0  0  0  0  0  0  0  0  0  0  0  0
    7.2110    0.0980   20.8070 C   0  0  0  0  0  0  0  0  0  0  0  0
    7.1730   -0.2280   19.4290 C   0  0  0  0  0  0  0  0  0  0  0  0
    6.1450    0.2710   18.6130 C   0  0  0  0  0  0  0  0  0  0  0  0
    5.1710    1.0850   19.1900 C   0  0  0  0  0  0  0  0  0  0  0  0
    4.0800    1.6920   18.4780 N   0  0  0  0  0  0  0  0  0  0  0  0
    3.0610    1.8590   19.1740 O   0  0  0  0  0  0  0  0  0  0  0  0
    4.4760    2.5370   17.6710 O   0  0  0  0  0  0  0  0  0  0  0  0
    5.1980    1.3800   20.5240 C   0  0  0  0  0  0  0  0  0  0  0  0
    6.2010    0.8940   21.3240 C   0  0  0  0  0  0  0  0  0  0  0  0
    6.1400    1.3340   22.9930 Cl  0  0  0  0  0  0  0  0  0  0  0  0
   10.1410    0.4270   23.2380 C   0  0  0  0  0  0  0  0  0  0  0  0
   10.7380   -0.5290   22.7750 C   0  0  0  0  0  0  0  0  0  0  0  0
   10.6760   -1.2100   21.7650 C   0  0  0  0  0  0  0  0  0  0  0  0
   11.6810   -1.9100   22.1920 C   0  0  0  0  0  0  0  0  0  0  0  0
   12.1890   -1.4790   23.5130 C   0  0  0  0  0  0  0  0  0  0  0  0
   12.6090   -0.8240   25.0250 Cl  0  0  0  0  0  0  0  0  0  0  0  0
   11.2700   -0.2610   23.9210 C   0  0  0  0  0  0  0  0  0  0  0  0
  1  2  2  0
  2  3  1  0
  3  4  1  0
  4  5  2  0
  5  6  1  0
  6  7  2  0
  7  8  1  0
  8  9  2  0
  8 10  1  0
  7 11  1  0
  4 12  1  0
 11 12  2  0
 12 13  1  0
  2 14  1  0
 14 15  2  0
 15 16  1  0
 16 17  2  0
 17 18  1  0
 18 19  1  0
 14 20  1  0
 18 20  2  0
M  CHG  2   8   1  10  -1
M  END
