CHR-SOS-7098f804-10
     RDKit          3D

 18 19  0  0  0  0  0  0  0  0999 V2000
    9.1600    1.6500   21.2420 O   0  0  0  0  0  0  0  0  0  0  0  0
    9.0060    0.4840   21.6220 C   0  0  0  0  0  0  0  0  0  0  0  0
    7.9720   -0.3480   21.1980 N   0  0  0  0  0  0  0  0  0  0  0  0
    7.0330    0.0550   20.2060 C   0  0  0  0  0  0  0  0  0  0  0  0
    7.1690   -0.2270   18.8540 C   0  0  0  0  0  0  0  0  0  0  0  0
    6.3020    0.1640   17.8900 N   0  0  0  0  0  0  0  0  0  0  0  0
    5.2280    0.8670   18.2610 C   0  0  0  0  0  0  0  0  0  0  0  0
    4.9670    1.2040   19.5850 C   0  0  0  0  0  0  0  0  0  0  0  0
    5.8970    0.7820   20.5590 C   0  0  0  0  0  0  0  0  0  0  0  0
    5.5780    1.1990   22.2080 Cl  0  0  0  0  0  0  0  0  0  0  0  0
   10.0370   -0.0150   22.6030 C   0  0  0  0  0  0  0  0  0  0  0  0
   11.1520   -0.8940   22.7470 C   0  0  0  0  0  0  0  0  0  0  0  0
   12.2620   -1.5200   23.5570 C   0  0  0  0  0  0  0  0  0  0  0  0
   13.5530   -2.6130   23.5710 Cl  0  0  0  0  0  0  0  0  0  0  0  0
   11.9910   -1.7250   22.4070 C   0  0  0  0  0  0  0  0  0  0  0  0
   10.9210   -0.8110   22.4540 C   0  0  0  0  0  0  0  0  0  0  0  0
   10.4120    0.1060   23.7510 C   0  0  0  0  0  0  0  0  0  0  0  0
   11.3390   -0.3270   24.6740 O   0  0  0  0  0  0  0  0  0  0  0  0
  1  2  2  0
  2  3  1  0
  3  4  1  0
  4  5  2  0
  5  6  1  0
  6  7  2  0
  7  8  1  0
  4  9  1  0
  8  9  2  0
  9 10  1  0
  2 11  1  0
 11 12  2  0
 12 13  1  0
 13 14  1  0
 13 15  2  0
 15 16  1  0
 11 17  1  0
 16 17  2  0
 17 18  1  0
M  END
