CHR-SOS-6c45c019-3
     RDKit          3D

 25 27  0  0  0  0  0  0  0  0999 V2000
    5.2520    1.0820   21.9100 C   0  0  0  0  0  0  0  0  0  0  0  0
    5.6600    0.7800   20.4980 C   0  0  0  0  0  0  0  0  0  0  0  0
    4.8220    1.2040   19.4540 C   0  0  0  0  0  0  0  0  0  0  0  0
    5.1900    0.9300   18.1570 C   0  0  0  0  0  0  0  0  0  0  0  0
    6.3020    0.2720   17.8350 N   0  0  0  0  0  0  0  0  0  0  0  0
    7.0980   -0.1340   18.8430 C   0  0  0  0  0  0  0  0  0  0  0  0
    6.8440    0.0940   20.1860 C   0  0  0  0  0  0  0  0  0  0  0  0
    7.7120   -0.3170   21.2230 N   0  0  0  0  0  0  0  0  0  0  0  0
    8.7430    0.4460   21.7380 C   0  0  0  0  0  0  0  0  0  0  0  0
    9.1060    1.5350   21.2900 O   0  0  0  0  0  0  0  0  0  0  0  0
    9.3340   -0.1680   22.8330 N   0  0  0  0  0  0  0  0  0  0  0  0
   10.7720   -0.2130   23.0950 C   0  0  0  0  0  0  0  0  0  0  0  0
   11.2640    1.0920   22.9340 C   0  0  0  0  0  0  0  0  0  0  0  0
   10.5430    2.2240   23.3270 C   0  0  0  0  0  0  0  0  0  0  0  0
   11.1160    3.4950   23.1860 C   0  0  0  0  0  0  0  0  0  0  0  0
   10.4120    4.6560   23.5080 C   0  0  0  0  0  0  0  0  0  0  0  0
   10.9260    5.9030   23.3910 N   0  0  0  0  0  0  0  0  0  0  0  0
   12.1900    5.9630   22.9330 C   0  0  0  0  0  0  0  0  0  0  0  0
   12.9580    4.9180   22.5910 N   0  0  0  0  0  0  0  0  0  0  0  0
   12.3980    3.6970   22.7290 C   0  0  0  0  0  0  0  0  0  0  0  0
   11.5590   -1.1920   22.2020 C   0  0  0  0  0  0  0  0  0  0  0  0
   12.1880   -2.2310   23.1040 C   0  0  0  0  0  0  0  0  0  0  0  0
   13.2260   -1.4660   23.8930 C   0  0  0  0  0  0  0  0  0  0  0  0
   12.5110   -0.4270   24.7410 C   0  0  0  0  0  0  0  0  0  0  0  0
   11.0090   -0.5950   24.5640 C   0  0  0  0  0  0  0  0  0  0  0  0
  1  2  1  0
  2  3  2  0
  3  4  1  0
  4  5  2  0
  5  6  1  0
  2  7  1  0
  6  7  2  0
  7  8  1  0
  8  9  1  0
  9 10  2  0
  9 11  1  0
 11 12  1  0
 12 13  1  0
 13 14  3  0
 14 15  1  0
 15 16  2  0
 16 17  1  0
 17 18  2  0
 18 19  1  0
 15 20  1  0
 19 20  2  0
 12 21  1  0
 21 22  1  0
 22 23  1  0
 23 24  1  0
 12 25  1  0
 24 25  1  0
M  END
