CHR-SOS-1f323c23-12
     RDKit          3D

 25 27  0  0  0  0  0  0  0  0999 V2000
    5.5580    0.8370   22.0830 C   0  0  0  0  0  0  0  0  0  0  0  0
    5.8700    0.5750   20.6370 C   0  0  0  0  0  0  0  0  0  0  0  0
    4.9560    1.0420   19.6750 C   0  0  0  0  0  0  0  0  0  0  0  0
    5.2070    0.8210   18.3390 C   0  0  0  0  0  0  0  0  0  0  0  0
    6.2890    0.1710   17.9060 N   0  0  0  0  0  0  0  0  0  0  0  0
    7.1640   -0.2790   18.8370 C   0  0  0  0  0  0  0  0  0  0  0  0
    7.0310   -0.1110   20.2140 C   0  0  0  0  0  0  0  0  0  0  0  0
    7.9920   -0.5840   21.1660 N   0  0  0  0  0  0  0  0  0  0  0  0
    9.0640    0.1560   21.6800 C   0  0  0  0  0  0  0  0  0  0  0  0
    9.2900    1.3260   21.3640 O   0  0  0  0  0  0  0  0  0  0  0  0
    9.8570   -0.5680   22.5930 N   0  0  0  0  0  0  0  0  0  0  0  0
   11.2930   -0.9370   22.4640 C   0  0  0  0  0  0  0  0  0  0  0  0
   12.3230   -0.0730   23.0350 O   0  0  0  0  0  0  0  0  0  0  0  0
   11.9560    1.2130   23.1960 C   0  0  0  0  0  0  0  0  0  0  0  0
   12.8190    2.2290   22.8160 C   0  0  0  0  0  0  0  0  0  0  0  0
   12.4360    3.5620   22.9690 C   0  0  0  0  0  0  0  0  0  0  0  0
   11.1860    3.8420   23.5130 C   0  0  0  0  0  0  0  0  0  0  0  0
   10.6400    5.5130   23.7520 S   0  0  0  0  0  0  0  0  0  0  0  0
    9.2330    5.5310   22.8290 N   0  0  0  0  0  0  0  0  0  0  0  0
   10.2040    5.6410   25.1260 O   0  0  0  0  0  0  0  0  0  0  0  0
   11.6160    6.3940   23.1590 O   0  0  0  0  0  0  0  0  0  0  0  0
   10.3350    2.8120   23.8880 C   0  0  0  0  0  0  0  0  0  0  0  0
   10.7210    1.4960   23.7310 C   0  0  0  0  0  0  0  0  0  0  0  0
   11.6190   -2.2770   22.9810 C   0  0  0  0  0  0  0  0  0  0  0  0
   11.6500   -2.2390   21.5310 C   0  0  0  0  0  0  0  0  0  0  0  0
  1  2  1  0
  2  3  2  0
  3  4  1  0
  4  5  2  0
  5  6  1  0
  2  7  1  0
  6  7  2  0
  7  8  1  0
  8  9  1  0
  9 10  2  0
  9 11  1  0
 11 12  1  0
 12 13  1  0
 13 14  1  0
 14 15  2  0
 15 16  1  0
 16 17  2  0
 17 18  1  0
 18 19  1  0
 18 20  2  0
 18 21  2  0
 17 22  1  0
 14 23  1  0
 22 23  2  0
 12 24  1  0
 12 25  1  0
 24 25  1  0
M  END
