CHR-SOS-1f323c23-2
     RDKit          3D

 28 30  0  0  0  0  0  0  0  0999 V2000
    6.2410    2.4910   21.7490 C   0  0  0  0  0  0  0  0  0  0  0  0
    6.2420    1.6070   20.5040 C   0  0  0  0  0  0  0  0  0  0  0  0
    5.3040    2.0570   19.3730 C   0  0  0  0  0  0  0  0  0  0  0  0
    5.2930    1.2020   18.1320 C   0  0  0  0  0  0  0  0  0  0  0  0
    6.0480    0.1000   17.9920 N   0  0  0  0  0  0  0  0  0  0  0  0
    6.8370   -0.2140   19.0490 C   0  0  0  0  0  0  0  0  0  0  0  0
    6.9980    0.4420   20.2860 C   0  0  0  0  0  0  0  0  0  0  0  0
    7.8700   -0.0710   21.2050 N   0  0  0  0  0  0  0  0  0  0  0  0
    8.7200    0.9230   21.8650 C   0  0  0  0  0  0  0  0  0  0  0  0
    9.0490    2.0100   21.3620 O   0  0  0  0  0  0  0  0  0  0  0  0
    9.1050    0.4860   23.1260 N   0  0  0  0  0  0  0  0  0  0  0  0
   10.4990    0.1930   23.5340 C   0  0  0  0  0  0  0  0  0  0  0  0
   11.2290    1.4190   23.7170 O   0  0  0  0  0  0  0  0  0  0  0  0
   12.3320    1.7430   22.9290 C   0  0  0  0  0  0  0  0  0  0  0  0
   12.2290    0.5870   23.5030 C   0  0  0  0  0  0  0  0  0  0  0  0
   11.0520    0.5900   24.2570 C   0  0  0  0  0  0  0  0  0  0  0  0
   10.2020    1.7840   24.2780 C   0  0  0  0  0  0  0  0  0  0  0  0
   10.5370    2.9770   23.5410 C   0  0  0  0  0  0  0  0  0  0  0  0
    9.5460    4.4660   23.5530 S   0  0  0  0  0  0  0  0  0  0  0  0
    8.4870    4.2630   22.2710 N   0  0  0  0  0  0  0  0  0  0  0  0
    8.7190    4.5660   24.7460 O   0  0  0  0  0  0  0  0  0  0  0  0
   10.3940    5.5800   23.1800 O   0  0  0  0  0  0  0  0  0  0  0  0
   11.7040    2.9470   22.8000 C   0  0  0  0  0  0  0  0  0  0  0  0
   10.5680   -0.6840   24.6650 C   0  0  0  0  0  0  0  0  0  0  0  0
   11.8150   -1.3430   24.7050 C   0  0  0  0  0  0  0  0  0  0  0  0
   12.1240   -2.0590   23.5460 C   0  0  0  0  0  0  0  0  0  0  0  0
   10.9570   -2.1150   22.5560 C   0  0  0  0  0  0  0  0  0  0  0  0
   11.1230   -0.6040   22.3610 C   0  0  0  0  0  0  0  0  0  0  0  0
  1  2  1  0
  2  3  2  0
  3  4  1  0
  4  5  2  0
  5  6  1  0
  2  7  1  0
  6  7  2  0
  7  8  1  0
  8  9  1  0
  9 10  2  0
  9 11  1  0
 11 12  1  0
 12 13  1  0
 13 14  1  0
 14 15  2  0
 15 16  1  0
 16 17  2  0
 17 18  1  0
 18 19  1  0
 19 20  1  0
 19 21  2  0
 19 22  2  0
 14 23  1  0
 18 23  2  0
 12 24  1  0
 24 25  1  0
 25 26  1  0
 26 27  1  0
 12 28  1  0
 27 28  1  0
M  END
