CHR-SOS-1f323c23-1
     RDKit          3D

 24 26  0  0  0  0  0  0  0  0999 V2000
    6.3880    2.7550   21.5670 C   0  0  0  0  0  0  0  0  0  0  0  0
    6.3190    1.6920   20.4700 C   0  0  0  0  0  0  0  0  0  0  0  0
    5.3570    1.9930   19.3050 C   0  0  0  0  0  0  0  0  0  0  0  0
    5.2850    0.9600   18.2080 C   0  0  0  0  0  0  0  0  0  0  0  0
    6.0090   -0.1720   18.2270 N   0  0  0  0  0  0  0  0  0  0  0  0
    6.8170   -0.3450   19.2960 C   0  0  0  0  0  0  0  0  0  0  0  0
    7.0340    0.4830   20.4130 C   0  0  0  0  0  0  0  0  0  0  0  0
    7.9150    0.0680   21.3630 N   0  0  0  0  0  0  0  0  0  0  0  0
    8.7670    1.0960   21.9570 C   0  0  0  0  0  0  0  0  0  0  0  0
    9.0420    2.1820   21.4240 O   0  0  0  0  0  0  0  0  0  0  0  0
    9.2290    0.6700   23.1900 N   0  0  0  0  0  0  0  0  0  0  0  0
   10.5510    0.0510   23.4090 C   0  0  0  0  0  0  0  0  0  0  0  0
   11.5340    1.0190   23.7370 O   0  0  0  0  0  0  0  0  0  0  0  0
   12.1080    1.8330   22.7810 C   0  0  0  0  0  0  0  0  0  0  0  0
   12.8480    0.7690   23.0150 C   0  0  0  0  0  0  0  0  0  0  0  0
   12.5600   -0.2180   23.9640 C   0  0  0  0  0  0  0  0  0  0  0  0
   11.2950    0.4540   24.4180 C   0  0  0  0  0  0  0  0  0  0  0  0
   10.5520    1.6720   24.0730 C   0  0  0  0  0  0  0  0  0  0  0  0
   11.0340    2.4710   23.1100 C   0  0  0  0  0  0  0  0  0  0  0  0
   10.8960   -0.7330   22.3040 C   0  0  0  0  0  0  0  0  0  0  0  0
   10.6590   -2.0590   22.5880 C   0  0  0  0  0  0  0  0  0  0  0  0
   11.5080   -2.6210   23.5450 C   0  0  0  0  0  0  0  0  0  0  0  0
   11.9410   -1.6630   24.6580 C   0  0  0  0  0  0  0  0  0  0  0  0
   10.5690   -0.9380   24.6180 C   0  0  0  0  0  0  0  0  0  0  0  0
  1  2  1  0
  2  3  2  0
  3  4  1  0
  4  5  2  0
  5  6  1  0
  2  7  1  0
  6  7  2  0
  7  8  1  0
  8  9  1  0
  9 10  2  0
  9 11  1  0
 11 12  1  0
 12 13  1  0
 13 14  1  0
 14 15  2  0
 15 16  1  0
 16 17  2  0
 17 18  1  0
 14 19  1  0
 18 19  2  0
 12 20  1  0
 20 21  1  0
 21 22  1  0
 22 23  1  0
 12 24  1  0
 23 24  1  0
M  END
