DAN-LON-a5fc619e-4-vinylsulfonamide
     RDKit          3D

 22 23  0  0  0  0  0  0  0  0999 V2000
    7.8080   -3.5380   19.4260 C   0  0  0  0  0  0  0  0  0  0  0  0
    6.5450   -2.7020   19.3290 C   0  0  0  0  0  0  0  0  0  0  0  0
    6.3990   -3.1710   21.0370 S   0  0  0  0  0  0  0  0  0  0  0  0
    5.2530   -4.0250   21.1960 O   0  0  0  0  0  0  0  0  0  0  0  0
    7.6830   -3.5450   21.6050 O   0  0  0  0  0  0  0  0  0  0  0  0
    6.1310   -1.7900   21.8860 N   0  0  0  0  0  0  0  0  0  0  0  0
    7.0710   -0.9070   21.7250 C   0  0  0  0  0  0  0  0  0  0  0  0
    8.3930   -1.4230   22.3420 C   0  0  0  0  0  0  0  0  0  0  0  0
    8.2130   -1.9810   23.7030 N   0  0  0  0  0  0  0  0  0  0  0  0
    9.4640   -2.5000   24.3190 C   0  0  0  0  0  0  0  0  0  0  0  0
   10.6090   -1.5900   23.9050 C   0  0  0  0  0  0  0  0  0  0  0  0
   10.8790   -0.2700   24.5990 C   0  0  0  0  0  0  0  0  0  0  0  0
   11.9440    0.5130   24.1340 C   0  0  0  0  0  0  0  0  0  0  0  0
   12.7370    0.0990   23.0800 C   0  0  0  0  0  0  0  0  0  0  0  0
   12.4660   -1.1150   22.4670 C   0  0  0  0  0  0  0  0  0  0  0  0
   13.3910   -1.6680   21.1660 Cl  0  0  0  0  0  0  0  0  0  0  0  0
   11.4390   -1.9320   22.8640 C   0  0  0  0  0  0  0  0  0  0  0  0
    7.0170   -2.8570   23.7530 C   0  0  0  0  0  0  0  0  0  0  0  0
    5.8700   -2.1670   23.2980 C   0  0  1  0  0  0  0  0  0  0  0  0
    5.4870   -1.0350   24.0520 C   0  0  0  0  0  0  0  0  0  0  0  0
    4.7250   -0.0530   23.4140 C   0  0  0  0  0  0  0  0  0  0  0  0
    6.5150   -0.3770   24.7430 C   0  0  0  0  0  0  0  0  0  0  0  0
  1  2  1  0
  3  2  1  0
  3  4  2  0
  3  5  2  0
  3  6  1  0
  6  7  1  0
  7  8  1  0
  8  9  1  0
  9 10  1  0
 10 11  1  0
 11 12  2  0
 12 13  1  0
 13 14  2  0
 14 15  1  0
 15 16  1  0
 11 17  1  0
 15 17  2  0
  9 18  1  0
  6 19  1  0
 18 19  1  0
 19 20  1  1
 20 21  1  0
 20 22  1  0
M  END
