DAN-LON-a5fc619e-4-nitrile
     RDKit          3D

 19 20  0  0  0  0  0  0  0  0999 V2000
    6.6280   -3.5960   19.9580 C   0  0  0  0  0  0  0  0  0  0  0  0
    5.6810   -4.4460   19.8670 N   0  0  0  0  0  0  0  0  0  0  0  0
    6.6960   -2.9210   21.1500 N   0  0  0  0  0  0  0  0  0  0  0  0
    6.3870   -3.5890   22.4020 C   0  0  0  0  0  0  0  0  0  0  0  0
    7.6330   -3.6360   23.3050 C   0  0  0  0  0  0  0  0  0  0  0  0
    8.2840   -2.3200   23.4040 N   0  0  0  0  0  0  0  0  0  0  0  0
    9.4620   -2.3650   24.2830 C   0  0  0  0  0  0  0  0  0  0  0  0
   10.5070   -1.5480   23.8920 C   0  0  0  0  0  0  0  0  0  0  0  0
   10.7820   -0.2800   24.5150 C   0  0  0  0  0  0  0  0  0  0  0  0
   11.8440    0.5160   24.0890 C   0  0  0  0  0  0  0  0  0  0  0  0
   12.6730    0.1210   23.0630 C   0  0  0  0  0  0  0  0  0  0  0  0
   12.4390   -1.1710   22.3890 C   0  0  0  0  0  0  0  0  0  0  0  0
   13.3870   -1.7460   21.1210 Cl  0  0  0  0  0  0  0  0  0  0  0  0
   11.3240   -1.9710   22.8560 C   0  0  0  0  0  0  0  0  0  0  0  0
    8.3850   -1.6200   22.0590 C   0  0  0  0  0  0  0  0  0  0  0  0
    7.0830   -1.5030   21.4420 C   0  0  1  0  0  0  0  0  0  0  0  0
    6.8290   -0.5650   20.4150 C   0  0  0  0  0  0  0  0  0  0  0  0
    7.0810   -0.8260   19.0660 C   0  0  0  0  0  0  0  0  0  0  0  0
    7.5300    0.7740   20.7180 C   0  0  0  0  0  0  0  0  0  0  0  0
  1  2  2  3
  1  3  1  0
  3  4  1  0
  4  5  1  0
  5  6  1  0
  6  7  1  0
  7  8  1  0
  8  9  2  0
  9 10  1  0
 10 11  2  0
 11 12  1  0
 12 13  1  0
  8 14  1  0
 12 14  2  0
  6 15  1  0
  3 16  1  0
 15 16  1  0
 16 17  1  6
 17 18  1  0
 17 19  1  0
M  END
