DAN-PUR-3907f623-1-acrylamide
     RDKit          3D

 17 17  0  0  0  0  0  0  0  0999 V2000
    8.1070   -3.5730   19.5510 C   0  0  0  0  0  0  0  0  0  0  0  0
    7.2940   -2.6760   20.4680 C   0  0  0  0  0  0  0  0  0  0  0  0
    6.1200   -3.4470   20.9870 C   0  0  0  0  0  0  0  0  0  0  0  0
    5.0790   -3.4170   20.3550 O   0  0  0  0  0  0  0  0  0  0  0  0
    6.3240   -4.1850   22.1310 N   0  0  0  0  0  0  0  0  0  0  0  0
    7.5690   -4.1770   22.8810 C   0  0  0  0  0  0  0  0  0  0  0  0
    7.2980   -4.3340   24.3600 C   0  0  0  0  0  0  0  0  0  0  0  0
    6.1490   -5.2040   24.6530 N   0  0  0  0  0  0  0  0  0  0  0  0
    6.0940   -5.6980   25.9420 C   0  0  0  0  0  0  0  0  0  0  0  0
    4.8260   -6.3870   26.4660 C   0  0  0  0  0  0  0  0  0  0  0  0
    7.0260   -5.6380   26.7320 O   0  0  0  0  0  0  0  0  0  0  0  0
    5.0350   -5.3050   23.6780 C   0  0  1  0  0  0  0  0  0  0  0  0
    4.1310   -4.2450   23.8310 C   0  0  0  0  0  0  0  0  0  0  0  0
    2.8460   -4.4530   24.3380 C   0  0  0  0  0  0  0  0  0  0  0  0
    2.3700   -3.5170   25.1670 N   0  0  0  0  0  0  0  0  0  0  0  0
    2.1530   -5.6320   23.9260 O   0  0  0  0  0  0  0  0  0  0  0  0
    5.5120   -5.3670   22.3880 C   0  0  0  0  0  0  0  0  0  0  0  0
  1  2  1  0
  2  3  1  0
  3  4  2  0
  3  5  1  0
  5  6  1  0
  6  7  1  0
  7  8  1  0
  8  9  1  0
  9 10  1  0
  9 11  2  0
  8 12  1  0
 12 13  1  6
 13 14  1  0
 14 15  1  0
 14 16  2  0
  5 17  1  0
 12 17  1  0
M  END
