DAN-RED-da448e80-4
     RDKit          3D

 25 27  0  0  0  0  0  0  0  0999 V2000
    6.6410   -4.9850   26.0800 C   0  0  0  0  0  0  0  0  0  0  0  0
    8.3070   -4.3890   25.8770 S   0  0  0  0  0  0  0  0  0  0  0  0
    8.5360   -3.4300   26.9140 O   0  0  0  0  0  0  0  0  0  0  0  0
    9.1610   -5.5410   25.7310 O   0  0  0  0  0  0  0  0  0  0  0  0
    8.2870   -3.6100   24.3720 N   0  0  0  0  0  0  0  0  0  0  0  0
    8.6580   -2.1750   24.2030 C   0  0  0  0  0  0  0  0  0  0  0  0
    9.2230   -1.8330   22.7910 C   0  0  1  0  0  0  0  0  0  0  0  0
    8.5330   -0.7180   21.9430 C   0  0  0  0  0  0  0  0  0  0  0  0
    9.1160    0.3440   21.6780 O   0  0  0  0  0  0  0  0  0  0  0  0
    7.1500   -1.0410   21.5010 N   0  0  0  0  0  0  0  0  0  0  0  0
    6.0230   -1.1070   22.3330 C   0  0  0  0  0  0  0  0  0  0  0  0
    5.6240    0.1150   22.8270 C   0  0  0  0  0  0  0  0  0  0  0  0
    5.2100    0.8620   21.9400 O   0  0  0  0  0  0  0  0  0  0  0  0
    5.6980    0.5860   20.6770 C   0  0  0  0  0  0  0  0  0  0  0  0
    5.1080    1.3520   19.6530 C   0  0  0  0  0  0  0  0  0  0  0  0
    5.5170    1.1910   18.2190 C   0  0  0  0  0  0  0  0  0  0  0  0
    6.4500    0.3220   17.9100 N   0  0  0  0  0  0  0  0  0  0  0  0
    7.0730   -0.4710   18.8830 C   0  0  0  0  0  0  0  0  0  0  0  0
    6.7130   -0.3810   20.3710 C   0  0  0  0  0  0  0  0  0  0  0  0
   10.6080   -1.2560   22.9230 C   0  0  0  0  0  0  0  0  0  0  0  0
   11.6700   -1.7730   22.1990 C   0  0  0  0  0  0  0  0  0  0  0  0
   12.9270   -1.2120   22.3050 C   0  0  0  0  0  0  0  0  0  0  0  0
   13.1030   -0.1130   23.1540 C   0  0  0  0  0  0  0  0  0  0  0  0
   12.0470    0.3920   23.8830 C   0  0  0  0  0  0  0  0  0  0  0  0
   10.7980   -0.1630   23.7840 C   0  0  0  0  0  0  0  0  0  0  0  0
  1  2  1  0
  2  3  2  0
  2  4  2  0
  2  5  1  0
  5  6  1  0
  7  6  1  1
  7  8  1  0
  8  9  2  0
  8 10  1  0
 10 11  1  0
 11 12  1  0
 12 13  1  0
 13 14  1  0
 14 15  2  0
 15 16  1  0
 16 17  2  0
 17 18  1  0
 10 19  1  0
 14 19  1  0
 18 19  2  0
  7 20  1  0
 20 21  2  0
 21 22  1  0
 22 23  2  0
 23 24  1  0
 20 25  1  0
 24 25  2  0
M  END
