DAN-LON-a5fc619e-2-acrylamide
     RDKit          3D

 20 21  0  0  0  0  0  0  0  0999 V2000
    8.0490   -3.4490   19.7470 C   0  0  0  0  0  0  0  0  0  0  0  0
    6.9410   -2.6570   19.1720 C   0  0  0  0  0  0  0  0  0  0  0  0
    5.9430   -3.0830   20.1610 C   0  0  0  0  0  0  0  0  0  0  0  0
    5.1110   -3.9430   19.8540 O   0  0  0  0  0  0  0  0  0  0  0  0
    6.1100   -2.5060   21.4190 N   0  0  0  0  0  0  0  0  0  0  0  0
    6.1010   -3.2900   22.6610 C   0  0  0  0  0  0  0  0  0  0  0  0
    7.3910   -3.4420   23.1950 C   0  0  0  0  0  0  0  0  0  0  0  0
    8.0880   -2.1870   23.5460 N   0  0  0  0  0  0  0  0  0  0  0  0
    9.3830   -2.4270   24.2570 C   0  0  0  0  0  0  0  0  0  0  0  0
   10.4670   -1.6330   23.8510 C   0  0  0  0  0  0  0  0  0  0  0  0
   10.7190   -0.3260   24.4850 C   0  0  0  0  0  0  0  0  0  0  0  0
   11.8860    0.5880   24.0740 C   0  0  0  0  0  0  0  0  0  0  0  0
   12.5010   -0.1600   23.0660 C   0  0  0  0  0  0  0  0  0  0  0  0
   12.2770   -1.1500   22.6180 C   0  0  0  0  0  0  0  0  0  0  0  0
   13.3410   -1.6310   21.3860 Cl  0  0  0  0  0  0  0  0  0  0  0  0
   11.3340   -2.0990   22.8110 C   0  0  0  0  0  0  0  0  0  0  0  0
    8.2390   -1.3590   22.3460 C   0  0  0  0  0  0  0  0  0  0  0  0
    9.1510   -1.9700   21.5260 C   0  0  0  0  0  0  0  0  0  0  0  0
    8.7300    0.0840   22.5990 C   0  0  0  0  0  0  0  0  0  0  0  0
    6.8940   -1.2450   21.5220 C   0  0  0  0  0  0  0  0  0  0  0  0
  1  2  1  0
  2  3  1  0
  3  4  2  0
  3  5  1  0
  5  6  1  0
  6  7  1  0
  7  8  1  0
  8  9  1  0
  9 10  1  0
 10 11  2  0
 11 12  1  0
 12 13  2  0
 13 14  1  0
 14 15  1  0
 10 16  1  0
 14 16  2  0
  8 17  1  0
 17 18  1  0
 17 19  1  0
  5 20  1  0
 17 20  1  0
M  END
