DAN-PUR-3907f623-1-acrylamide
     RDKit          3D

 17 17  0  0  0  0  0  0  0  0999 V2000
    8.2200   -4.1170   20.3280 C   0  0  0  0  0  0  0  0  0  0  0  0
    7.3040   -2.9540   20.3700 C   0  0  0  0  0  0  0  0  0  0  0  0
    6.0270   -3.5800   20.7870 C   0  0  0  0  0  0  0  0  0  0  0  0
    5.0370   -3.4670   20.0970 O   0  0  0  0  0  0  0  0  0  0  0  0
    6.0780   -4.3270   21.9520 N   0  0  0  0  0  0  0  0  0  0  0  0
    7.1500   -4.1010   22.7450 C   0  0  0  0  0  0  0  0  0  0  0  0
    7.0860   -4.5760   24.0150 C   0  0  0  0  0  0  0  0  0  0  0  0
    6.0020   -5.3480   24.4230 N   0  0  0  0  0  0  0  0  0  0  0  0
    5.6880   -5.5670   25.8570 C   0  0  0  0  0  0  0  0  0  0  0  0
    4.6940   -6.5160   26.1010 C   0  0  0  0  0  0  0  0  0  0  0  0
    6.2290   -4.9800   26.7800 O   0  0  0  0  0  0  0  0  0  0  0  0
    4.9440   -5.5270   23.4360 C   0  0  1  0  0  0  0  0  0  0  0  0
    3.9360   -4.3490   23.5520 C   0  0  0  0  0  0  0  0  0  0  0  0
    2.5680   -4.8460   24.0400 C   0  0  0  0  0  0  0  0  0  0  0  0
    2.1420   -6.0120   23.4740 N   0  0  0  0  0  0  0  0  0  0  0  0
    1.8730   -4.2670   24.8650 O   0  0  0  0  0  0  0  0  0  0  0  0
    5.5060   -5.5600   22.1770 C   0  0  0  0  0  0  0  0  0  0  0  0
  1  2  1  0
  2  3  1  0
  3  4  2  0
  3  5  1  0
  5  6  1  0
  6  7  1  0
  7  8  1  0
  8  9  1  0
  9 10  1  0
  9 11  2  0
  8 12  1  0
 12 13  1  6
 13 14  1  0
 14 15  1  0
 14 16  2  0
  5 17  1  0
 12 17  1  0
M  END
