DAN-LON-a5fc619e-7-nitrile
     RDKit          3D

 23 24  0  0  0  0  0  0  0  0999 V2000
    7.3150   -3.5390   19.9030 C   0  0  0  0  0  0  0  0  0  0  0  0
    6.1730   -4.0470   19.6460 N   0  0  0  0  0  0  0  0  0  0  0  0
    7.3890   -2.9110   21.0890 N   0  0  0  0  0  0  0  0  0  0  0  0
    7.6660   -1.5030   21.2100 C   0  0  0  0  0  0  0  0  0  0  0  0
    8.7630   -1.3660   22.2550 C   0  0  0  0  0  0  0  0  0  0  0  0
    8.3330   -1.8910   23.5710 N   0  0  0  0  0  0  0  0  0  0  0  0
    9.4260   -1.8640   24.5280 C   0  0  0  0  0  0  0  0  0  0  0  0
   10.5000   -1.1670   24.0300 C   0  0  0  0  0  0  0  0  0  0  0  0
   10.8080    0.1430   24.5040 C   0  0  0  0  0  0  0  0  0  0  0  0
   11.8830    0.8490   23.9880 C   0  0  0  0  0  0  0  0  0  0  0  0
   12.6960    0.3190   23.0070 C   0  0  0  0  0  0  0  0  0  0  0  0
   12.4280   -1.0300   22.4730 C   0  0  0  0  0  0  0  0  0  0  0  0
   13.3540   -1.7520   21.2570 Cl  0  0  0  0  0  0  0  0  0  0  0  0
   11.2930   -1.7360   23.0400 C   0  0  0  0  0  0  0  0  0  0  0  0
    7.5700   -3.1870   23.5540 C   0  0  2  0  0  0  0  0  0  0  0  0
    8.4280   -4.3060   23.8590 C   0  0  0  0  0  0  0  0  0  0  0  0
    9.6220   -4.1710   24.0750 O   0  0  0  0  0  0  0  0  0  0  0  0
    7.8560   -5.5450   23.9140 N   0  0  0  0  0  0  0  0  0  0  0  0
    7.8200   -6.4370   22.7580 C   0  0  0  0  0  0  0  0  0  0  0  0
    7.9840   -5.7100   21.6740 C   0  0  0  0  0  0  0  0  0  0  0  0
    9.0160   -7.4030   22.6710 C   0  0  0  0  0  0  0  0  0  0  0  0
    6.4570   -7.1410   22.5760 C   0  0  0  0  0  0  0  0  0  0  0  0
    6.7070   -3.4320   22.2860 C   0  0  0  0  0  0  0  0  0  0  0  0
  1  2  2  3
  1  3  1  0
  3  4  1  0
  4  5  1  0
  5  6  1  0
  6  7  1  0
  7  8  1  0
  8  9  2  0
  9 10  1  0
 10 11  2  0
 11 12  1  0
 12 13  1  0
  8 14  1  0
 12 14  2  0
  6 15  1  0
 15 16  1  6
 16 17  2  0
 16 18  1  0
 19 18  1  0
 19 20  1  0
 19 21  1  0
 19 22  1  0
  3 23  1  0
 15 23  1  0
M  END
