DAN-LON-a5fc619e-4-chloroacetamide
     RDKit          3D

 20 21  0  0  0  0  0  0  0  0999 V2000
    7.2350   -2.9980   18.8050 C   0  0  0  0  0  0  0  0  0  0  0  0
    6.2900   -3.3050   19.9300 C   0  0  0  0  0  0  0  0  0  0  0  0
    5.4000   -4.1560   19.7590 O   0  0  0  0  0  0  0  0  0  0  0  0
    6.4820   -2.6260   21.1240 N   0  0  0  0  0  0  0  0  0  0  0  0
    7.0990   -1.4850   21.2290 C   0  0  0  0  0  0  0  0  0  0  0  0
    8.3800   -1.6790   22.0480 C   0  0  0  0  0  0  0  0  0  0  0  0
    8.0560   -2.2190   23.3740 N   0  0  0  0  0  0  0  0  0  0  0  0
    9.2310   -2.3690   24.2680 C   0  0  0  0  0  0  0  0  0  0  0  0
   10.4220   -1.5140   23.8490 C   0  0  0  0  0  0  0  0  0  0  0  0
   10.7140   -0.1730   24.4890 C   0  0  0  0  0  0  0  0  0  0  0  0
   11.7940    0.6150   24.1020 C   0  0  0  0  0  0  0  0  0  0  0  0
   12.6360    0.1490   23.0990 C   0  0  0  0  0  0  0  0  0  0  0  0
   12.3740   -1.0910   22.5020 C   0  0  0  0  0  0  0  0  0  0  0  0
   13.3700   -1.6860   21.2650 Cl  0  0  0  0  0  0  0  0  0  0  0  0
   11.3090   -1.9040   22.8550 C   0  0  0  0  0  0  0  0  0  0  0  0
    7.2810   -3.4760   23.1950 C   0  0  0  0  0  0  0  0  0  0  0  0
    6.1120   -3.3010   22.4050 C   0  0  1  0  0  0  0  0  0  0  0  0
    5.0360   -2.6050   23.0040 C   0  0  0  0  0  0  0  0  0  0  0  0
    4.5660   -3.2000   24.1730 C   0  0  0  0  0  0  0  0  0  0  0  0
    5.3550   -1.3090   23.4250 C   0  0  0  0  0  0  0  0  0  0  0  0
  1  2  1  0
  2  3  2  0
  2  4  1  0
  4  5  1  0
  5  6  1  0
  6  7  1  0
  7  8  1  0
  8  9  1  0
  9 10  2  0
 10 11  1  0
 11 12  2  0
 12 13  1  0
 13 14  1  0
  9 15  1  0
 13 15  2  0
  7 16  1  0
  4 17  1  0
 16 17  1  0
 17 18  1  1
 18 19  1  0
 18 20  1  0
M  END
