DAN-LON-a5fc619e-8-acrylamide
     RDKit          3D

 19 21  0  0  0  0  0  0  0  0999 V2000
    8.0660   -3.4470   19.7640 C   0  0  0  0  0  0  0  0  0  0  0  0
    6.9590   -2.6790   19.1540 C   0  0  0  0  0  0  0  0  0  0  0  0
    5.9950   -3.0620   20.1830 C   0  0  0  0  0  0  0  0  0  0  0  0
    5.1540   -3.9410   19.9570 O   0  0  0  0  0  0  0  0  0  0  0  0
    6.2550   -2.3620   21.3550 N   0  0  0  0  0  0  0  0  0  0  0  0
    7.4510   -1.4730   21.5050 C   0  0  0  0  0  0  0  0  0  0  0  0
    7.3870   -1.2300   22.8450 C   0  0  1  0  0  0  0  0  0  0  0  0
    6.0490   -1.4960   23.2010 C   0  0  0  0  0  0  0  0  0  0  0  0
    5.9920   -2.7530   22.6230 C   0  0  2  0  0  0  0  0  0  0  0  0
    7.1090   -3.4920   23.0850 C   0  0  0  0  0  0  0  0  0  0  0  0
    7.9040   -2.3280   23.6880 N   0  0  0  0  0  0  0  0  0  0  0  0
    9.3460   -2.5960   23.7250 C   0  0  0  0  0  0  0  0  0  0  0  0
   10.2040   -1.4140   23.8710 C   0  0  0  0  0  0  0  0  0  0  0  0
   10.6640   -0.3740   24.2180 C   0  0  0  0  0  0  0  0  0  0  0  0
   11.6690    0.5860   24.1050 C   0  0  0  0  0  0  0  0  0  0  0  0
   12.5820    0.2120   23.1820 C   0  0  0  0  0  0  0  0  0  0  0  0
   12.3450   -1.0060   22.5510 C   0  0  0  0  0  0  0  0  0  0  0  0
   13.3590   -1.6500   21.3590 Cl  0  0  0  0  0  0  0  0  0  0  0  0
   11.2050   -1.7530   22.9040 C   0  0  0  0  0  0  0  0  0  0  0  0
  1  2  1  0
  2  3  1  0
  3  4  2  0
  3  5  1  0
  5  6  1  0
  7  6  1  6
  7  8  1  0
  5  9  1  0
  8  9  1  0
  9 10  1  1
  7 11  1  0
 10 11  1  0
 11 12  1  0
 12 13  1  0
 13 14  2  0
 14 15  1  0
 15 16  2  0
 16 17  1  0
 17 18  1  0
 13 19  1  0
 17 19  2  0
M  END
