DAN-LON-a5fc619e-3-chloroacetamide
     RDKit          3D

 21 22  0  0  0  0  0  0  0  0999 V2000
    7.1670   -2.9830   18.8010 C   0  0  0  0  0  0  0  0  0  0  0  0
    6.2760   -3.3180   19.9470 C   0  0  0  0  0  0  0  0  0  0  0  0
    5.4070   -4.1910   19.7880 O   0  0  0  0  0  0  0  0  0  0  0  0
    6.4870   -2.6340   21.1500 N   0  0  0  0  0  0  0  0  0  0  0  0
    6.3370   -3.2820   22.4510 C   0  0  0  0  0  0  0  0  0  0  0  0
    7.5760   -3.5490   23.0380 C   0  0  0  0  0  0  0  0  0  0  0  0
    8.2000   -2.2990   23.4900 N   0  0  0  0  0  0  0  0  0  0  0  0
    9.5040   -2.5120   24.1690 C   0  0  0  0  0  0  0  0  0  0  0  0
   10.5810   -1.6150   23.7940 C   0  0  0  0  0  0  0  0  0  0  0  0
   10.7750   -0.3510   24.4320 C   0  0  0  0  0  0  0  0  0  0  0  0
   11.8370    0.5400   24.0720 C   0  0  0  0  0  0  0  0  0  0  0  0
   12.7720    0.1460   23.0090 C   0  0  0  0  0  0  0  0  0  0  0  0
   12.2720   -1.1250   22.6290 C   0  0  0  0  0  0  0  0  0  0  0  0
   13.2760   -1.6950   21.3780 Cl  0  0  0  0  0  0  0  0  0  0  0  0
   11.4850   -1.9570   22.7830 C   0  0  0  0  0  0  0  0  0  0  0  0
    8.1870   -1.2000   22.4700 C   0  0  2  0  0  0  0  0  0  0  0  0
    7.8590    0.0290   23.0650 C   0  0  0  0  0  0  0  0  0  0  0  0
    8.2030    1.2120   22.4110 C   0  0  0  0  0  0  0  0  0  0  0  0
    9.5400    1.3920   22.1270 C   0  0  0  0  0  0  0  0  0  0  0  0
    7.4570    1.4160   21.0960 C   0  0  0  0  0  0  0  0  0  0  0  0
    7.2330   -1.3690   21.2280 C   0  0  0  0  0  0  0  0  0  0  0  0
  1  2  1  0
  2  3  2  0
  2  4  1  0
  4  5  1  0
  5  6  1  0
  6  7  1  0
  7  8  1  0
  8  9  1  0
  9 10  2  0
 10 11  1  0
 11 12  2  0
 12 13  1  0
 13 14  1  0
  9 15  1  0
 13 15  2  0
  7 16  1  0
 16 17  1  1
 17 18  1  0
 18 19  1  0
 18 20  1  0
  4 21  1  0
 16 21  1  0
M  END
