DAN-PUR-3907f623-2-nitrile
     RDKit          3D

 18 18  0  0  0  0  0  0  0  0999 V2000
    6.5200   -5.2950   20.6760 C   0  0  0  0  0  0  0  0  0  0  0  0
    5.5390   -4.7000   20.1370 N   0  0  0  0  0  0  0  0  0  0  0  0
    6.3870   -5.8080   22.0130 N   0  0  0  0  0  0  0  0  0  0  0  0
    7.3620   -5.5600   23.0770 C   0  0  0  0  0  0  0  0  0  0  0  0
    7.9690   -4.3000   22.7050 C   0  0  2  0  0  0  0  0  0  0  0  0
    8.8470   -3.8110   23.6760 C   0  0  0  0  0  0  0  0  0  0  0  0
    8.8330   -4.4920   24.9110 C   0  0  0  0  0  0  0  0  0  0  0  0
    9.3340   -5.7640   24.9340 N   0  0  0  0  0  0  0  0  0  0  0  0
    8.4170   -3.9980   25.9480 O   0  0  0  0  0  0  0  0  0  0  0  0
    6.7580   -3.5030   22.2500 N   0  0  0  0  0  0  0  0  0  0  0  0
    6.7410   -3.0060   20.9270 C   0  0  0  0  0  0  0  0  0  0  0  0
    7.8560   -2.2920   20.5040 C   0  0  0  0  0  0  0  0  0  0  0  0
    5.8010   -3.1870   20.1410 O   0  0  0  0  0  0  0  0  0  0  0  0
    5.3680   -3.9880   22.6890 C   0  0  2  0  0  0  0  0  0  0  0  0
    4.8570   -3.4300   24.0460 C   0  0  0  0  0  0  0  0  0  0  0  0
    4.8550   -1.9010   24.0530 C   0  0  0  0  0  0  0  0  0  0  0  0
    4.4810   -4.0730   25.0200 O   0  0  0  0  0  0  0  0  0  0  0  0
    5.1760   -5.3520   22.6290 C   0  0  0  0  0  0  0  0  0  0  0  0
  1  2  2  3
  1  3  1  0
  3  4  1  0
  4  5  1  0
  5  6  1  1
  6  7  1  0
  7  8  1  0
  7  9  2  0
  5 10  1  0
 10 11  1  0
 11 12  1  0
 11 13  2  0
 10 14  1  0
 14 15  1  1
 15 16  1  0
 15 17  2  0
  3 18  1  0
 14 18  1  0
M  END
