DAN-LON-a5fc619e-9-chloroacetamide
     RDKit          3D

 22 24  0  0  0  0  0  0  0  0999 V2000
    7.1270   -2.9940   18.8100 C   0  0  0  0  0  0  0  0  0  0  0  0
    6.2240   -3.3440   19.9470 C   0  0  0  0  0  0  0  0  0  0  0  0
    5.3800   -4.2360   19.7940 O   0  0  0  0  0  0  0  0  0  0  0  0
    6.3980   -2.6490   21.1390 N   0  0  0  0  0  0  0  0  0  0  0  0
    6.3090   -3.2980   22.4510 C   0  0  0  0  0  0  0  0  0  0  0  0
    7.5630   -3.4920   23.0420 C   0  0  0  0  0  0  0  0  0  0  0  0
    8.1880   -2.1970   23.3630 N   0  0  0  0  0  0  0  0  0  0  0  0
    9.4320   -2.3640   24.1400 C   0  0  0  0  0  0  0  0  0  0  0  0
   10.5540   -1.5230   23.7740 C   0  0  0  0  0  0  0  0  0  0  0  0
   10.7870   -0.2730   24.4300 C   0  0  0  0  0  0  0  0  0  0  0  0
   11.8760    0.5820   24.0930 C   0  0  0  0  0  0  0  0  0  0  0  0
   12.8120    0.1640   23.0360 C   0  0  0  0  0  0  0  0  0  0  0  0
   12.2740   -1.0900   22.6350 C   0  0  0  0  0  0  0  0  0  0  0  0
   13.2760   -1.6870   21.3930 Cl  0  0  0  0  0  0  0  0  0  0  0  0
   11.4540   -1.8950   22.7730 C   0  0  0  0  0  0  0  0  0  0  0  0
    8.2910   -1.2980   22.1740 C   0  0  2  0  0  0  0  0  0  0  0  0
    8.4300    0.0570   22.4810 C   0  0  0  0  0  0  0  0  0  0  0  0
    8.6470    0.5710   23.7520 C   0  0  0  0  0  0  0  0  0  0  0  0
    8.7550    1.9400   23.7980 C   0  0  0  0  0  0  0  0  0  0  0  0
    8.6000    2.5490   22.4170 C   0  0  0  0  0  0  0  0  0  0  0  0
    8.3410    1.3030   21.2810 S   0  0  0  0  0  0  0  0  0  0  0  0
    7.0700   -1.3500   21.2000 C   0  0  0  0  0  0  0  0  0  0  0  0
  1  2  1  0
  2  3  2  0
  2  4  1  0
  4  5  1  0
  5  6  1  0
  6  7  1  0
  7  8  1  0
  8  9  1  0
  9 10  2  0
 10 11  1  0
 11 12  2  0
 12 13  1  0
 13 14  1  0
  9 15  1  0
 13 15  2  0
  7 16  1  0
 16 17  1  1
 17 18  2  0
 18 19  1  0
 19 20  2  0
 17 21  1  0
 20 21  1  0
  4 22  1  0
 16 22  1  0
M  END
