DAN-RED-da448e80-16
     RDKit          3D

 27 29  0  0  0  0  0  0  0  0999 V2000
   13.0240    2.1130   22.9170 C   0  0  0  0  0  0  0  0  0  0  0  0
   13.6940    1.0710   23.0420 O   0  0  0  0  0  0  0  0  0  0  0  0
   12.7210    0.1320   22.9290 C   0  0  0  0  0  0  0  0  0  0  0  0
   12.7820   -1.1440   22.1440 C   0  0  0  0  0  0  0  0  0  0  0  0
   11.5230   -1.9540   22.1060 C   0  0  0  0  0  0  0  0  0  0  0  0
   10.3110   -1.4870   22.8280 C   0  0  0  0  0  0  0  0  0  0  0  0
    9.1040   -2.0780   22.8150 C   0  0  1  0  0  0  0  0  0  0  0  0
    8.5170   -2.2570   24.0950 C   0  0  0  0  0  0  0  0  0  0  0  0
    8.1500   -3.6560   24.3590 N   0  0  0  0  0  0  0  0  0  0  0  0
    8.2700   -4.3950   25.8750 S   0  0  0  0  0  0  0  0  0  0  0  0
    6.6290   -5.0250   26.1650 C   0  0  0  0  0  0  0  0  0  0  0  0
    9.1450   -5.5290   25.7080 O   0  0  0  0  0  0  0  0  0  0  0  0
    8.5430   -3.4060   26.8760 O   0  0  0  0  0  0  0  0  0  0  0  0
    8.4450   -0.9330   21.9470 C   0  0  0  0  0  0  0  0  0  0  0  0
    9.0830    0.1000   21.6870 O   0  0  0  0  0  0  0  0  0  0  0  0
    7.1470   -1.1260   21.4960 N   0  0  0  0  0  0  0  0  0  0  0  0
    6.0660   -1.3810   22.4550 C   0  0  0  0  0  0  0  0  0  0  0  0
    5.5210   -0.0260   22.9390 C   0  0  0  0  0  0  0  0  0  0  0  0
    5.0680    0.8600   21.9830 O   0  0  0  0  0  0  0  0  0  0  0  0
    5.6050    0.6180   20.7450 C   0  0  0  0  0  0  0  0  0  0  0  0
    5.1740    1.3130   19.5980 C   0  0  0  0  0  0  0  0  0  0  0  0
    5.6890    1.1020   18.3260 C   0  0  0  0  0  0  0  0  0  0  0  0
    6.6600    0.2250   18.0190 N   0  0  0  0  0  0  0  0  0  0  0  0
    7.1240   -0.4970   19.0970 C   0  0  0  0  0  0  0  0  0  0  0  0
    6.6840   -0.3790   20.4120 C   0  0  0  0  0  0  0  0  0  0  0  0
   10.3160   -0.3080   23.5890 C   0  0  0  0  0  0  0  0  0  0  0  0
   11.5180    0.5760   23.6900 C   0  0  0  0  0  0  0  0  0  0  0  0
  1  2  1  0
  2  3  1  0
  3  4  2  0
  4  5  1  0
  5  6  2  0
  6  7  1  0
  7  8  1  1
  8  9  1  0
 10  9  1  0
 10 11  1  0
 10 12  2  0
 10 13  2  0
  7 14  1  0
 14 15  2  0
 14 16  1  0
 16 17  1  0
 17 18  1  0
 18 19  1  0
 19 20  1  0
 20 21  2  0
 21 22  1  0
 22 23  2  0
 23 24  1  0
 16 25  1  0
 20 25  1  0
 24 25  2  0
  6 26  1  0
  3 27  1  0
 26 27  2  0
M  END
