DAN-LON-a5fc619e-4-acrylamide
     RDKit          3D

 21 22  0  0  0  0  0  0  0  0999 V2000
    7.9100   -3.2660   19.1240 C   0  0  0  0  0  0  0  0  0  0  0  0
    6.7330   -2.3830   18.9210 C   0  0  0  0  0  0  0  0  0  0  0  0
    5.8920   -2.6500   20.1100 C   0  0  0  0  0  0  0  0  0  0  0  0
    4.8760   -3.2800   19.9630 O   0  0  0  0  0  0  0  0  0  0  0  0
    6.3730   -2.2120   21.3270 N   0  0  0  0  0  0  0  0  0  0  0  0
    7.3210   -1.0870   21.4040 C   0  0  0  0  0  0  0  0  0  0  0  0
    8.4730   -1.4340   22.0960 C   0  0  0  0  0  0  0  0  0  0  0  0
    8.1880   -2.1300   23.3530 N   0  0  0  0  0  0  0  0  0  0  0  0
    9.3650   -2.3140   24.2120 C   0  0  0  0  0  0  0  0  0  0  0  0
   10.4480   -1.5450   23.8170 C   0  0  0  0  0  0  0  0  0  0  0  0
   10.6810   -0.2270   24.4390 C   0  0  0  0  0  0  0  0  0  0  0  0
   11.8530    0.6750   24.0360 C   0  0  0  0  0  0  0  0  0  0  0  0
   12.4890   -0.0930   23.0500 C   0  0  0  0  0  0  0  0  0  0  0  0
   12.2730   -1.0930   22.6120 C   0  0  0  0  0  0  0  0  0  0  0  0
   13.3580   -1.6010   21.4100 Cl  0  0  0  0  0  0  0  0  0  0  0  0
   11.3240   -2.0370   22.8030 C   0  0  0  0  0  0  0  0  0  0  0  0
    7.5320   -3.3910   23.0530 C   0  0  0  0  0  0  0  0  0  0  0  0
    6.2670   -3.1410   22.4940 C   0  0  1  0  0  0  0  0  0  0  0  0
    5.2900   -2.7150   23.3830 C   0  0  0  0  0  0  0  0  0  0  0  0
    5.5270   -3.2270   24.8060 C   0  0  0  0  0  0  0  0  0  0  0  0
    5.2190   -1.1860   23.4070 C   0  0  0  0  0  0  0  0  0  0  0  0
  1  2  1  0
  2  3  1  0
  3  4  2  0
  3  5  1  0
  5  6  1  0
  6  7  1  0
  7  8  1  0
  8  9  1  0
  9 10  1  0
 10 11  2  0
 11 12  1  0
 12 13  2  0
 13 14  1  0
 14 15  1  0
 10 16  1  0
 14 16  2  0
  8 17  1  0
  5 18  1  0
 17 18  1  0
 18 19  1  1
 19 20  1  0
 19 21  1  0
M  END
