DAN-LON-a5fc619e-6-vinylsulfonamide
     RDKit          3D

 26 28  0  0  0  0  0  0  0  0999 V2000
    7.9600   -3.1850   19.1140 C   0  0  0  0  0  0  0  0  0  0  0  0
    6.7600   -2.4460   18.5850 C   0  0  0  0  0  0  0  0  0  0  0  0
    5.4800   -2.3930   19.7450 S   0  0  0  0  0  0  0  0  0  0  0  0
    4.9230   -3.7230   19.6400 O   0  0  0  0  0  0  0  0  0  0  0  0
    4.6990   -1.1980   19.5220 O   0  0  0  0  0  0  0  0  0  0  0  0
    6.3140   -2.1550   21.1840 N   0  0  0  0  0  0  0  0  0  0  0  0
    5.7990   -2.8320   22.3690 C   0  0  0  0  0  0  0  0  0  0  0  0
    6.7870   -2.9290   23.3400 C   0  0  0  0  0  0  0  0  0  0  0  0
    7.2630   -1.6150   23.8170 N   0  0  0  0  0  0  0  0  0  0  0  0
    8.3340   -1.8160   24.8110 C   0  0  0  0  0  0  0  0  0  0  0  0
    9.6690   -1.2480   24.5940 C   0  0  0  0  0  0  0  0  0  0  0  0
    9.8860    0.1690   24.5550 C   0  0  0  0  0  0  0  0  0  0  0  0
   11.1740    0.7520   24.3450 C   0  0  0  0  0  0  0  0  0  0  0  0
   12.3470   -0.1360   24.1710 C   0  0  0  0  0  0  0  0  0  0  0  0
   11.7700   -1.4340   24.2710 C   0  0  0  0  0  0  0  0  0  0  0  0
   13.0780   -2.5340   24.0860 Cl  0  0  0  0  0  0  0  0  0  0  0  0
   10.8090   -2.0710   24.4230 C   0  0  0  0  0  0  0  0  0  0  0  0
    7.6080   -0.6410   22.7430 C   0  0  1  0  0  0  0  0  0  0  0  0
    8.9420   -0.7320   22.5130 C   0  0  0  0  0  0  0  0  0  0  0  0
    9.8200    0.3310   22.6630 C   0  0  0  0  0  0  0  0  0  0  0  0
   11.1770    0.2450   22.4620 C   0  0  0  0  0  0  0  0  0  0  0  0
   11.7230   -1.1160   22.0410 C   0  0  0  0  0  0  0  0  0  0  0  0
   13.3690   -1.3540   21.7650 Cl  0  0  0  0  0  0  0  0  0  0  0  0
   10.9050   -2.1870   21.8640 C   0  0  0  0  0  0  0  0  0  0  0  0
    9.5520   -2.0680   22.0780 C   0  0  0  0  0  0  0  0  0  0  0  0
    6.8760   -0.8250   21.3820 C   0  0  0  0  0  0  0  0  0  0  0  0
  1  2  1  0
  3  2  1  0
  3  4  2  0
  3  5  2  0
  3  6  1  0
  6  7  1  0
  7  8  1  0
  8  9  1  0
  9 10  1  0
 10 11  1  0
 11 12  2  0
 12 13  1  0
 13 14  2  0
 14 15  1  0
 15 16  1  0
 11 17  1  0
 15 17  2  0
  9 18  1  0
 18 19  1  6
 19 20  2  0
 20 21  1  0
 21 22  2  0
 22 23  1  0
 22 24  1  0
 19 25  1  0
 24 25  2  0
  6 26  1  0
 18 26  1  0
M  END
