DAN-LON-a5fc619e-10-chloroacetamide
     RDKit          3D

 24 26  0  0  0  0  0  0  0  0999 V2000
    7.1260   -2.9610   18.7990 C   0  0  0  0  0  0  0  0  0  0  0  0
    6.2410   -3.3230   19.9360 C   0  0  0  0  0  0  0  0  0  0  0  0
    5.3090   -4.1030   19.7170 O   0  0  0  0  0  0  0  0  0  0  0  0
    6.5280   -2.7990   21.2070 N   0  0  0  0  0  0  0  0  0  0  0  0
    7.2740   -1.5320   21.3840 C   0  0  0  0  0  0  0  0  0  0  0  0
    8.5070   -1.6900   22.0270 C   0  0  0  0  0  0  0  0  0  0  0  0
    8.2690   -2.3060   23.3390 N   0  0  0  0  0  0  0  0  0  0  0  0
    9.4990   -2.4870   24.1440 C   0  0  0  0  0  0  0  0  0  0  0  0
   10.5910   -1.6070   23.7800 C   0  0  0  0  0  0  0  0  0  0  0  0
   10.7990   -0.3480   24.4230 C   0  0  0  0  0  0  0  0  0  0  0  0
   11.8710    0.5280   24.0660 C   0  0  0  0  0  0  0  0  0  0  0  0
   12.8060    0.1260   23.0040 C   0  0  0  0  0  0  0  0  0  0  0  0
   12.2880   -1.1420   22.6220 C   0  0  0  0  0  0  0  0  0  0  0  0
   13.2860   -1.7240   21.3740 Cl  0  0  0  0  0  0  0  0  0  0  0  0
   11.4910   -1.9620   22.7740 C   0  0  0  0  0  0  0  0  0  0  0  0
    7.5790   -3.6120   23.1620 C   0  0  0  0  0  0  0  0  0  0  0  0
    6.3630   -3.5980   22.4620 C   0  0  2  0  0  0  0  0  0  0  0  0
    5.8740   -4.8690   22.1510 C   0  0  0  0  0  0  0  0  0  0  0  0
    4.8670   -5.3900   22.9500 C   0  0  0  0  0  0  0  0  0  0  0  0
    3.7370   -4.4320   23.3130 C   0  0  0  0  0  0  0  0  0  0  0  0
    2.6750   -4.8670   24.1100 C   0  0  0  0  0  0  0  0  0  0  0  0
    2.6230   -6.1850   24.5950 C   0  0  0  0  0  0  0  0  0  0  0  0
    3.6330   -7.0750   24.2840 C   0  0  0  0  0  0  0  0  0  0  0  0
    4.8070   -6.6920   23.4350 C   0  0  0  0  0  0  0  0  0  0  0  0
  1  2  1  0
  2  3  2  0
  2  4  1  0
  4  5  1  0
  5  6  1  0
  6  7  1  0
  7  8  1  0
  8  9  1  0
  9 10  2  0
 10 11  1  0
 11 12  2  0
 12 13  1  0
 13 14  1  0
  9 15  1  0
 13 15  2  0
  7 16  1  0
  4 17  1  0
 16 17  1  0
 17 18  1  6
 18 19  1  0
 19 20  2  0
 20 21  1  0
 21 22  2  0
 22 23  1  0
 19 24  1  0
 23 24  2  0
M  END
