DAN-LON-a5fc619e-1-acrylamide
     RDKit          3D

 21 22  0  0  0  0  0  0  0  0999 V2000
    7.9330   -3.2840   19.1830 C   0  0  0  0  0  0  0  0  0  0  0  0
    6.7700   -2.3870   18.9520 C   0  0  0  0  0  0  0  0  0  0  0  0
    5.8800   -2.6490   20.1050 C   0  0  0  0  0  0  0  0  0  0  0  0
    4.8500   -3.2590   19.9250 O   0  0  0  0  0  0  0  0  0  0  0  0
    6.3340   -2.2290   21.3430 N   0  0  0  0  0  0  0  0  0  0  0  0
    7.3160   -1.1320   21.5060 C   0  0  0  0  0  0  0  0  0  0  0  0
    8.4850   -1.5330   22.1630 C   0  0  0  0  0  0  0  0  0  0  0  0
    8.2560   -2.2070   23.4560 N   0  0  0  0  0  0  0  0  0  0  0  0
    9.4820   -2.4410   24.2480 C   0  0  0  0  0  0  0  0  0  0  0  0
   10.5300   -1.6040   23.8630 C   0  0  0  0  0  0  0  0  0  0  0  0
   10.7460   -0.2940   24.4990 C   0  0  0  0  0  0  0  0  0  0  0  0
   11.8920    0.6400   24.0810 C   0  0  0  0  0  0  0  0  0  0  0  0
   12.5250   -0.0910   23.0740 C   0  0  0  0  0  0  0  0  0  0  0  0
   12.3210   -1.0810   22.6300 C   0  0  0  0  0  0  0  0  0  0  0  0
   13.3840   -1.5510   21.3980 Cl  0  0  0  0  0  0  0  0  0  0  0  0
   11.3980   -2.0400   22.8280 C   0  0  0  0  0  0  0  0  0  0  0  0
    7.5140   -3.4370   23.2090 C   0  0  1  0  0  0  0  0  0  0  0  0
    7.2700   -4.1240   24.3990 C   0  0  0  0  0  0  0  0  0  0  0  0
    6.1540   -4.9160   24.3990 N   0  0  0  0  0  0  0  0  0  0  0  0
    7.9810   -4.0470   25.3940 O   0  0  0  0  0  0  0  0  0  0  0  0
    6.1770   -3.1630   22.4830 C   0  0  0  0  0  0  0  0  0  0  0  0
  1  2  1  0
  2  3  1  0
  3  4  2  0
  3  5  1  0
  5  6  1  0
  6  7  1  0
  7  8  1  0
  8  9  1  0
  9 10  1  0
 10 11  2  0
 11 12  1  0
 12 13  2  0
 13 14  1  0
 14 15  1  0
 10 16  1  0
 14 16  2  0
  8 17  1  0
 17 18  1  1
 18 19  1  0
 18 20  2  0
  5 21  1  0
 17 21  1  0
M  END
