DAN-RED-da448e80-13
     RDKit          3D

 25 26  0  0  0  0  0  0  0  0999 V2000
   13.1570    1.8380   22.8360 C   0  0  0  0  0  0  0  0  0  0  0  0
   13.6940    0.7170   22.7470 O   0  0  0  0  0  0  0  0  0  0  0  0
   12.5770   -0.0250   23.0220 C   0  0  0  0  0  0  0  0  0  0  0  0
   12.2050   -1.3130   22.3390 C   0  0  0  0  0  0  0  0  0  0  0  0
   10.8720   -1.8690   22.7970 C   0  0  0  0  0  0  0  0  0  0  0  0
   10.1160   -1.0870   23.8560 C   0  0  0  0  0  0  0  0  0  0  0  0
    8.9060   -1.2570   24.4580 C   0  0  2  0  0  0  0  0  0  0  0  0
    8.4190   -2.5770   24.4940 C   0  0  0  0  0  0  0  0  0  0  0  0
    7.8110   -2.8850   25.7730 N   0  0  0  0  0  0  0  0  0  0  0  0
    8.1780   -4.3060   26.5800 S   0  0  0  0  0  0  0  0  0  0  0  0
    6.6050   -5.1300   26.5940 C   0  0  0  0  0  0  0  0  0  0  0  0
    8.4820   -3.8920   27.9210 O   0  0  0  0  0  0  0  0  0  0  0  0
    9.1110   -5.0960   25.8140 O   0  0  0  0  0  0  0  0  0  0  0  0
    8.0180   -0.2190   23.6820 C   0  0  0  0  0  0  0  0  0  0  0  0
    7.3560    0.6790   24.1990 O   0  0  0  0  0  0  0  0  0  0  0  0
    8.1410   -0.5370   22.3660 N   0  0  0  0  0  0  0  0  0  0  0  0
    8.3520   -1.9010   22.5860 C   0  0  0  0  0  0  0  0  0  0  0  0
    7.0570   -1.8130   21.7660 C   0  0  0  0  0  0  0  0  0  0  0  0
    6.1430   -2.7650   21.2710 N   0  0  0  0  0  0  0  0  0  0  0  0
    6.3360   -4.1430   21.5140 C   0  0  0  0  0  0  0  0  0  0  0  0
    7.4830   -4.3900   22.2380 C   0  0  0  0  0  0  0  0  0  0  0  0
    8.3730   -3.4030   22.7020 C   0  0  0  0  0  0  0  0  0  0  0  0
    9.5000   -3.7930   23.4490 C   0  0  0  0  0  0  0  0  0  0  0  0
   10.6470    0.0530   24.3750 C   0  0  0  0  0  0  0  0  0  0  0  0
   11.8200    0.5710   23.9780 C   0  0  0  0  0  0  0  0  0  0  0  0
  1  2  1  0
  2  3  1  0
  3  4  2  0
  4  5  1  0
  5  6  2  0
  6  7  1  0
  7  8  1  6
  8  9  1  0
 10  9  1  0
 10 11  1  0
 10 12  2  0
 10 13  2  0
  7 14  1  0
 14 15  2  0
 14 16  1  0
 16 17  1  0
 17 18  2  0
 18 19  1  0
 19 20  2  0
 20 21  1  0
 17 22  1  0
 21 22  2  0
 22 23  1  0
  6 24  1  0
  3 25  1  0
 24 25  2  0
M  END
