DAN-PUR-3907f623-3-acrylamide
     RDKit          3D

 18 19  0  0  0  0  0  0  0  0999 V2000
    7.7020   -4.0260   20.4430 C   0  0  0  0  0  0  0  0  0  0  0  0
    6.4720   -3.1860   20.6020 C   0  0  0  0  0  0  0  0  0  0  0  0
    5.6360   -3.5760   21.8060 C   0  0  0  0  0  0  0  0  0  0  0  0
    4.5170   -3.1720   21.8760 O   0  0  0  0  0  0  0  0  0  0  0  0
    6.1880   -4.3410   22.7950 N   0  0  0  0  0  0  0  0  0  0  0  0
    7.4760   -3.9850   23.2030 C   0  0  0  0  0  0  0  0  0  0  0  0
    7.6250   -2.6180   23.4720 C   0  0  0  0  0  0  0  0  0  0  0  0
    8.9850   -2.0960   23.9010 C   0  0  0  0  0  0  0  0  0  0  0  0
   10.2290   -2.9270   24.0710 C   0  0  0  0  0  0  0  0  0  0  0  0
   10.0690   -4.3130   23.8130 N   0  0  0  0  0  0  0  0  0  0  0  0
    8.7400   -4.8280   23.3930 C   0  0  0  0  0  0  0  0  0  0  0  0
    5.6760   -5.5140   23.2280 C   0  0  2  0  0  0  0  0  0  0  0  0
    4.8760   -6.2120   22.1590 C   0  0  0  0  0  0  0  0  0  0  0  0
    3.5570   -6.5670   22.8650 C   0  0  0  0  0  0  0  0  0  0  0  0
    3.7190   -6.5120   24.5410 S   0  0  0  0  0  0  0  0  0  0  0  0
    4.1380   -7.8100   25.0280 O   0  0  0  0  0  0  0  0  0  0  0  0
    2.5760   -5.8200   25.0890 O   0  0  0  0  0  0  0  0  0  0  0  0
    5.1050   -5.4000   24.4710 C   0  0  0  0  0  0  0  0  0  0  0  0
  1  2  1  0
  2  3  1  0
  3  4  2  0
  3  5  1  0
  5  6  1  0
  6  7  2  0
  7  8  1  0
  8  9  2  0
  9 10  1  0
  6 11  1  0
 10 11  2  0
 12  5  1  6
 12 13  1  0
 13 14  1  0
 15 14  1  0
 15 16  2  0
 15 17  2  0
 12 18  1  0
 15 18  1  0
M  END
