DAN-RED-da448e80-5
     RDKit          3D

 24 25  0  0  0  0  0  0  0  0999 V2000
    7.3040   -5.7510   22.8710 C   0  0  0  0  0  0  0  0  0  0  0  0
    7.1980   -4.2520   22.7420 C   0  0  0  0  0  0  0  0  0  0  0  0
    8.4850   -3.4410   22.3730 C   0  0  0  0  0  0  0  0  0  0  0  0
    7.7260   -2.0070   22.3730 C   0  0  0  0  0  0  0  0  0  0  0  0
    6.4510   -1.4760   22.5920 N   0  0  0  0  0  0  0  0  0  0  0  0
    5.5360   -2.3710   22.8980 C   0  0  0  0  0  0  0  0  0  0  0  0
    6.0440   -3.5770   22.9190 C   0  0  0  0  0  0  0  0  0  0  0  0
    6.9860   -2.6230   22.6520 N   0  0  0  0  0  0  0  0  0  0  0  0
    7.7640   -2.3750   23.8120 C   0  0  0  0  0  0  0  0  0  0  0  0
    7.3060   -1.6480   24.6950 O   0  0  0  0  0  0  0  0  0  0  0  0
    9.0670   -2.8920   24.0990 C   0  0  2  0  0  0  0  0  0  0  0  0
    9.4320   -3.2270   25.5200 C   0  0  0  0  0  0  0  0  0  0  0  0
    9.9500   -4.3810   25.8750 N   0  0  0  0  0  0  0  0  0  0  0  0
    9.1710   -5.2510   27.0810 S   0  0  0  0  0  0  0  0  0  0  0  0
    7.4900   -4.6880   26.9620 C   0  0  0  0  0  0  0  0  0  0  0  0
    9.2020   -6.6250   26.6910 O   0  0  0  0  0  0  0  0  0  0  0  0
    9.7250   -4.7940   28.3210 O   0  0  0  0  0  0  0  0  0  0  0  0
   10.1730   -2.1180   23.7020 C   0  0  0  0  0  0  0  0  0  0  0  0
   10.6780   -1.0980   24.5330 C   0  0  0  0  0  0  0  0  0  0  0  0
   11.7910   -0.3530   24.1110 C   0  0  0  0  0  0  0  0  0  0  0  0
   12.3890   -0.6240   22.8790 C   0  0  0  0  0  0  0  0  0  0  0  0
   13.4450    0.0860   22.4970 F   0  0  0  0  0  0  0  0  0  0  0  0
   11.8900   -1.6320   22.0470 C   0  0  0  0  0  0  0  0  0  0  0  0
   10.7970   -2.3520   22.4720 C   0  0  0  0  0  0  0  0  0  0  0  0
  1  2  1  0
  2  3  2  0
  3  4  1  0
  4  5  2  0
  5  6  1  0
  2  7  1  0
  6  7  2  0
  7  8  1  0
  8  9  1  0
  9 10  2  0
  9 11  1  0
 11 12  1  1
 12 13  1  0
 14 13  1  0
 14 15  1  0
 14 16  2  0
 14 17  2  0
 11 18  1  0
 18 19  2  0
 19 20  1  0
 20 21  2  0
 21 22  1  0
 21 23  1  0
 18 24  1  0
 23 24  2  0
M  END
