DAN-LON-a5fc619e-1-vinylsulfonamide
     RDKit          3D

 22 23  0  0  0  0  0  0  0  0999 V2000
    7.2900   -2.8210   18.3750 C   0  0  0  0  0  0  0  0  0  0  0  0
    6.2790   -2.2790   19.3780 C   0  0  0  0  0  0  0  0  0  0  0  0
    5.6780   -3.4520   20.5470 S   0  0  0  0  0  0  0  0  0  0  0  0
    4.6400   -2.9220   21.3390 O   0  0  0  0  0  0  0  0  0  0  0  0
    5.5580   -4.7730   19.9700 O   0  0  0  0  0  0  0  0  0  0  0  0
    6.8770   -3.2700   21.6580 N   0  0  0  0  0  0  0  0  0  0  0  0
    6.4780   -3.6580   22.8040 C   0  0  0  0  0  0  0  0  0  0  0  0
    7.6350   -3.4900   23.7680 C   0  0  0  0  0  0  0  0  0  0  0  0
    8.2170   -2.1360   23.8000 N   0  0  0  0  0  0  0  0  0  0  0  0
    9.5250   -2.2280   24.3960 C   0  0  0  0  0  0  0  0  0  0  0  0
   10.6310   -1.6220   23.5860 C   0  0  0  0  0  0  0  0  0  0  0  0
   10.8780   -0.1790   23.6840 C   0  0  0  0  0  0  0  0  0  0  0  0
   11.9260    0.4430   23.0250 C   0  0  0  0  0  0  0  0  0  0  0  0
   12.7130   -0.3310   22.2330 C   0  0  0  0  0  0  0  0  0  0  0  0
   12.4260   -1.6660   22.0960 C   0  0  0  0  0  0  0  0  0  0  0  0
   13.2900   -2.6340   21.0590 Cl  0  0  0  0  0  0  0  0  0  0  0  0
   11.4340   -2.2980   22.7580 C   0  0  0  0  0  0  0  0  0  0  0  0
    8.3740   -1.4730   22.4860 C   0  0  2  0  0  0  0  0  0  0  0  0
    8.4250   -0.0640   22.6080 C   0  0  0  0  0  0  0  0  0  0  0  0
    8.6190    0.9580   23.1420 N   0  0  0  0  0  0  0  0  0  0  0  0
    8.0430    0.3500   21.5150 O   0  0  0  0  0  0  0  0  0  0  0  0
    7.2370   -1.8310   21.5550 C   0  0  0  0  0  0  0  0  0  0  0  0
  1  2  1  0
  3  2  1  0
  3  4  2  0
  3  5  2  0
  3  6  1  0
  6  7  1  0
  7  8  1  0
  8  9  1  0
  9 10  1  0
 10 11  1  0
 11 12  2  0
 12 13  1  0
 13 14  2  0
 14 15  1  0
 15 16  1  0
 11 17  1  0
 15 17  2  0
  9 18  1  0
 18 19  1  1
 19 20  1  0
 19 21  2  0
  6 22  1  0
 18 22  1  0
M  END
