DAN-RED-da448e80-18
     RDKit          3D

 23 25  0  0  0  0  0  0  0  0999 V2000
    6.6550   -4.9740   25.9720 C   0  0  0  0  0  0  0  0  0  0  0  0
    8.3260   -4.3740   25.8300 S   0  0  0  0  0  0  0  0  0  0  0  0
    8.5060   -3.4010   26.8650 O   0  0  0  0  0  0  0  0  0  0  0  0
    9.1850   -5.5270   25.7420 O   0  0  0  0  0  0  0  0  0  0  0  0
    8.3740   -3.6240   24.3080 N   0  0  0  0  0  0  0  0  0  0  0  0
    8.5510   -2.1560   24.1290 C   0  0  0  0  0  0  0  0  0  0  0  0
    9.2630   -1.7560   22.7940 C   0  0  1  0  0  0  0  0  0  0  0  0
    8.6180   -0.6230   21.9320 C   0  0  0  0  0  0  0  0  0  0  0  0
    9.2830    0.3310   21.5160 O   0  0  0  0  0  0  0  0  0  0  0  0
    7.1620   -0.7600   21.6690 N   0  0  0  0  0  0  0  0  0  0  0  0
    6.1720   -0.2680   22.5660 C   0  0  0  0  0  0  0  0  0  0  0  0
    5.4760    0.7350   21.9490 C   0  0  0  0  0  0  0  0  0  0  0  0
    5.6990    0.6800   20.6000 C   0  0  0  0  0  0  0  0  0  0  0  0
    5.0540    1.3680   19.5700 C   0  0  0  0  0  0  0  0  0  0  0  0
    5.4920    1.1280   18.1580 C   0  0  0  0  0  0  0  0  0  0  0  0
    6.4770    0.2760   17.9250 N   0  0  0  0  0  0  0  0  0  0  0  0
    7.1350   -0.4300   18.9510 C   0  0  0  0  0  0  0  0  0  0  0  0
    6.7550   -0.2510   20.4230 C   0  0  0  0  0  0  0  0  0  0  0  0
   10.6120   -1.1620   23.1210 C   0  0  0  0  0  0  0  0  0  0  0  0
   10.8710   -0.2020   23.9880 C   0  0  0  0  0  0  0  0  0  0  0  0
   12.1880    0.1250   24.0280 C   0  0  0  0  0  0  0  0  0  0  0  0
   13.2220   -0.4860   23.2340 C   0  0  0  0  0  0  0  0  0  0  0  0
   12.0940   -1.5750   22.4330 S   0  0  0  0  0  0  0  0  0  0  0  0
  1  2  1  0
  2  3  2  0
  2  4  2  0
  2  5  1  0
  5  6  1  0
  7  6  1  1
  7  8  1  0
  8  9  2  0
  8 10  1  0
 10 11  1  0
 11 12  1  0
 12 13  1  0
 13 14  1  0
 14 15  2  0
 15 16  1  0
 16 17  2  0
 10 18  1  0
 13 18  2  0
 17 18  1  0
  7 19  1  0
 19 20  2  0
 20 21  1  0
 21 22  2  0
 19 23  1  0
 22 23  1  0
M  END
