DAN-MCD-50ec7d1f-1
     RDKit          3D

 20 21  0  0  0  0  0  0  0  0999 V2000
    5.5360   -4.3690   19.9340 O   0  0  0  0  0  0  0  0  0  0  0  0
    6.3900   -4.2050   20.8330 C   0  0  0  0  0  0  0  0  0  0  0  0
    7.2780   -2.9770   20.8530 C   0  0  0  0  0  0  0  0  0  0  0  0
    6.7090   -1.8520   20.3370 F   0  0  0  0  0  0  0  0  0  0  0  0
    6.5870   -5.1810   21.9000 N   0  0  0  0  0  0  0  0  0  0  0  0
    7.3460   -4.7540   23.0570 C   0  0  0  0  0  0  0  0  0  0  0  0
    6.3990   -4.3650   24.1690 C   0  0  0  0  0  0  0  0  0  0  0  0
    5.4370   -5.4710   24.3440 N   0  0  0  0  0  0  0  0  0  0  0  0
    4.6420   -5.5790   25.8490 S   0  0  0  0  0  0  0  0  0  0  0  0
    3.9230   -6.8280   25.8320 O   0  0  0  0  0  0  0  0  0  0  0  0
    5.6110   -5.2670   26.8750 O   0  0  0  0  0  0  0  0  0  0  0  0
    3.4450   -4.2730   25.8040 C   0  0  0  0  0  0  0  0  0  0  0  0
    2.0940   -4.5430   25.6990 C   0  0  0  0  0  0  0  0  0  0  0  0
    1.0830   -3.5770   25.6680 C   0  0  0  0  0  0  0  0  0  0  0  0
    1.4360   -2.2160   25.7450 C   0  0  0  0  0  0  0  0  0  0  0  0
    2.8720   -1.7770   25.8570 C   0  0  0  0  0  0  0  0  0  0  0  0
    3.2390   -0.4930   25.9300 F   0  0  0  0  0  0  0  0  0  0  0  0
    3.8620   -2.9340   25.8820 C   0  0  0  0  0  0  0  0  0  0  0  0
    4.7140   -5.7700   23.2090 C   0  0  0  0  0  0  0  0  0  0  0  0
    5.5760   -6.2120   22.1800 C   0  0  0  0  0  0  0  0  0  0  0  0
  1  2  2  0
  2  3  1  0
  3  4  1  0
  2  5  1  0
  5  6  1  0
  6  7  1  0
  7  8  1  0
  8  9  1  0
  9 10  2  0
  9 11  2  0
  9 12  1  0
 12 13  2  0
 13 14  1  0
 14 15  2  0
 15 16  1  0
 16 17  1  0
 12 18  1  0
 16 18  2  0
  8 19  1  0
  5 20  1  0
 19 20  1  0
M  END
