DAN-LON-a5fc619e-2-chloroacetamide
     RDKit          3D

 19 20  0  0  0  0  0  0  0  0999 V2000
    7.1740   -2.9690   18.8360 C   0  0  0  0  0  0  0  0  0  0  0  0
    6.2430   -3.3140   19.9590 C   0  0  0  0  0  0  0  0  0  0  0  0
    5.3610   -4.1650   19.7610 O   0  0  0  0  0  0  0  0  0  0  0  0
    6.4290   -2.6840   21.1850 N   0  0  0  0  0  0  0  0  0  0  0  0
    7.1030   -1.5720   21.3060 C   0  0  0  0  0  0  0  0  0  0  0  0
    8.3990   -1.8100   22.1270 C   0  0  0  0  0  0  0  0  0  0  0  0
    8.1580   -2.4280   23.4590 N   0  0  0  0  0  0  0  0  0  0  0  0
    9.3900   -2.6020   24.2940 C   0  0  0  0  0  0  0  0  0  0  0  0
   10.5240   -1.6680   23.8770 C   0  0  0  0  0  0  0  0  0  0  0  0
   10.7870   -0.3300   24.5340 C   0  0  0  0  0  0  0  0  0  0  0  0
   11.8270    0.5080   24.1270 C   0  0  0  0  0  0  0  0  0  0  0  0
   12.6470    0.1000   23.0920 C   0  0  0  0  0  0  0  0  0  0  0  0
   12.4170   -1.1280   22.4770 C   0  0  0  0  0  0  0  0  0  0  0  0
   13.4070   -1.6310   21.2040 Cl  0  0  0  0  0  0  0  0  0  0  0  0
   11.3940   -1.9930   22.8460 C   0  0  0  0  0  0  0  0  0  0  0  0
    7.3880   -3.6890   23.2550 C   0  0  0  0  0  0  0  0  0  0  0  0
    6.9970   -4.3090   24.4540 C   0  0  0  0  0  0  0  0  0  0  0  0
    8.1460   -4.7490   22.4220 C   0  0  0  0  0  0  0  0  0  0  0  0
    6.0990   -3.3480   22.4500 C   0  0  0  0  0  0  0  0  0  0  0  0
  1  2  1  0
  2  3  2  0
  2  4  1  0
  4  5  1  0
  5  6  1  0
  6  7  1  0
  7  8  1  0
  8  9  1  0
  9 10  2  0
 10 11  1  0
 11 12  2  0
 12 13  1  0
 13 14  1  0
  9 15  1  0
 13 15  2  0
  7 16  1  0
 16 17  1  0
 16 18  1  0
  4 19  1  0
 16 19  1  0
M  END
