DAN-LON-a5fc619e-2-acrylamide
     RDKit          3D

 20 21  0  0  0  0  0  0  0  0999 V2000
    7.7230   -2.6970   18.6620 C   0  0  0  0  0  0  0  0  0  0  0  0
    6.2560   -2.8490   18.8970 C   0  0  0  0  0  0  0  0  0  0  0  0
    5.9190   -3.4980   20.1830 C   0  0  0  0  0  0  0  0  0  0  0  0
    5.2540   -4.5280   20.1340 O   0  0  0  0  0  0  0  0  0  0  0  0
    6.3940   -2.8790   21.3420 N   0  0  0  0  0  0  0  0  0  0  0  0
    6.1560   -3.3650   22.5760 C   0  0  0  0  0  0  0  0  0  0  0  0
    7.4340   -3.5040   23.4180 C   0  0  0  0  0  0  0  0  0  0  0  0
    8.0840   -2.2010   23.6560 N   0  0  0  0  0  0  0  0  0  0  0  0
    9.3370   -2.3410   24.4750 C   0  0  0  0  0  0  0  0  0  0  0  0
   10.5280   -1.5030   23.9810 C   0  0  0  0  0  0  0  0  0  0  0  0
   10.8060   -0.2650   24.5640 C   0  0  0  0  0  0  0  0  0  0  0  0
   11.8780    0.5080   24.1080 C   0  0  0  0  0  0  0  0  0  0  0  0
   12.6870    0.0660   23.0820 C   0  0  0  0  0  0  0  0  0  0  0  0
   12.4080   -1.1600   22.5110 C   0  0  0  0  0  0  0  0  0  0  0  0
   13.3380   -1.7740   21.2370 Cl  0  0  0  0  0  0  0  0  0  0  0  0
   11.3590   -1.9330   22.9470 C   0  0  0  0  0  0  0  0  0  0  0  0
    8.3230   -1.4810   22.3870 C   0  0  0  0  0  0  0  0  0  0  0  0
    8.5340   -0.1050   22.6230 C   0  0  0  0  0  0  0  0  0  0  0  0
    9.5840   -1.9990   21.7350 C   0  0  0  0  0  0  0  0  0  0  0  0
    7.1560   -1.6040   21.3390 C   0  0  0  0  0  0  0  0  0  0  0  0
  1  2  1  0
  2  3  1  0
  3  4  2  0
  3  5  1  0
  5  6  1  0
  6  7  1  0
  7  8  1  0
  8  9  1  0
  9 10  1  0
 10 11  2  0
 11 12  1  0
 12 13  2  0
 13 14  1  0
 14 15  1  0
 10 16  1  0
 14 16  2  0
  8 17  1  0
 17 18  1  0
 17 19  1  0
  5 20  1  0
 17 20  1  0
M  END
