DAN-MCD-5c762fbe-1
     RDKit          3D

 21 22  0  0  0  0  0  0  0  0999 V2000
    8.5650   -2.7180   21.0880 C   0  0  0  0  0  0  0  0  0  0  0  0
    7.0980   -2.6990   20.8150 C   0  0  0  0  0  0  0  0  0  0  0  0
    6.4800   -1.6630   20.5930 O   0  0  0  0  0  0  0  0  0  0  0  0
    6.2740   -4.0040   20.8080 C   0  0  0  0  0  0  0  0  0  0  0  0
    5.4990   -4.1940   19.8630 O   0  0  0  0  0  0  0  0  0  0  0  0
    6.4560   -4.9220   21.8450 N   0  0  0  0  0  0  0  0  0  0  0  0
    7.2370   -4.5250   23.0150 C   0  0  0  0  0  0  0  0  0  0  0  0
    6.2840   -4.2400   24.1640 C   0  0  0  0  0  0  0  0  0  0  0  0
    5.4210   -5.4050   24.3670 N   0  0  0  0  0  0  0  0  0  0  0  0
    4.6800   -5.5570   25.8710 S   0  0  0  0  0  0  0  0  0  0  0  0
    5.6550   -5.2040   26.8740 O   0  0  0  0  0  0  0  0  0  0  0  0
    3.9760   -6.8200   25.9070 O   0  0  0  0  0  0  0  0  0  0  0  0
    3.4570   -4.2630   25.8390 C   0  0  0  0  0  0  0  0  0  0  0  0
    1.9780   -4.5850   25.7390 C   0  0  0  0  0  0  0  0  0  0  0  0
    1.0680   -3.5070   25.7250 C   0  0  0  0  0  0  0  0  0  0  0  0
    1.5070   -2.1890   25.8000 C   0  0  0  0  0  0  0  0  0  0  0  0
    2.8650   -1.8980   25.8860 C   0  0  0  0  0  0  0  0  0  0  0  0
    3.2610   -0.6220   25.9540 F   0  0  0  0  0  0  0  0  0  0  0  0
    3.8140   -2.9230   25.9040 C   0  0  0  0  0  0  0  0  0  0  0  0
    4.7560   -5.9140   23.1500 C   0  0  0  0  0  0  0  0  0  0  0  0
    5.6220   -6.1140   22.0670 C   0  0  0  0  0  0  0  0  0  0  0  0
  1  2  1  0
  2  3  2  0
  2  4  1  0
  4  5  2  0
  4  6  1  0
  6  7  1  0
  7  8  1  0
  8  9  1  0
  9 10  1  0
 10 11  2  0
 10 12  2  0
 10 13  1  0
 13 14  2  0
 14 15  1  0
 15 16  2  0
 16 17  1  0
 17 18  1  0
 13 19  1  0
 17 19  2  0
  9 20  1  0
  6 21  1  0
 20 21  1  0
M  END
