DAN-LON-a5fc619e-2-vinylsulfonamide
     RDKit          3D

 21 22  0  0  0  0  0  0  0  0999 V2000
    7.8440   -2.8190   18.6110 C   0  0  0  0  0  0  0  0  0  0  0  0
    6.4450   -2.9860   19.0600 C   0  0  0  0  0  0  0  0  0  0  0  0
    6.2750   -3.8520   20.5700 S   0  0  0  0  0  0  0  0  0  0  0  0
    5.2330   -4.7520   20.2180 O   0  0  0  0  0  0  0  0  0  0  0  0
    7.4770   -4.3980   21.1200 O   0  0  0  0  0  0  0  0  0  0  0  0
    5.9470   -2.5830   21.6310 N   0  0  0  0  0  0  0  0  0  0  0  0
    5.8050   -2.9930   22.8380 C   0  0  0  0  0  0  0  0  0  0  0  0
    7.2040   -3.2170   23.4500 C   0  0  0  0  0  0  0  0  0  0  0  0
    7.9560   -1.9550   23.5990 N   0  0  0  0  0  0  0  0  0  0  0  0
    9.2140   -2.1560   24.3730 C   0  0  0  0  0  0  0  0  0  0  0  0
   10.4210   -1.3630   23.8970 C   0  0  0  0  0  0  0  0  0  0  0  0
   10.7170    0.0010   24.5010 C   0  0  0  0  0  0  0  0  0  0  0  0
   11.8290    0.7040   24.0350 C   0  0  0  0  0  0  0  0  0  0  0  0
   12.6500    0.1750   23.0470 C   0  0  0  0  0  0  0  0  0  0  0  0
   12.3610   -1.0760   22.5050 C   0  0  0  0  0  0  0  0  0  0  0  0
   13.3270   -1.7550   21.2870 Cl  0  0  0  0  0  0  0  0  0  0  0  0
   11.2830   -1.8270   22.9130 C   0  0  0  0  0  0  0  0  0  0  0  0
    8.1100   -1.2990   22.2730 C   0  0  0  0  0  0  0  0  0  0  0  0
    9.0720   -1.9070   21.4830 C   0  0  0  0  0  0  0  0  0  0  0  0
    8.5200    0.1980   22.3540 C   0  0  0  0  0  0  0  0  0  0  0  0
    6.7580   -1.3410   21.4550 C   0  0  0  0  0  0  0  0  0  0  0  0
  1  2  1  0
  3  2  1  0
  3  4  2  0
  3  5  2  0
  3  6  1  0
  6  7  1  0
  7  8  1  0
  8  9  1  0
  9 10  1  0
 10 11  1  0
 11 12  2  0
 12 13  1  0
 13 14  2  0
 14 15  1  0
 15 16  1  0
 11 17  1  0
 15 17  2  0
  9 18  1  0
 18 19  1  0
 18 20  1  0
  6 21  1  0
 18 21  1  0
M  END
