DAN-PUR-3907f623-2-chloroacetamide
     RDKit          3D

 19 19  0  0  0  0  0  0  0  0999 V2000
    7.4920   -4.7010   20.7000 C   0  0  0  0  0  0  0  0  0  0  0  0
    6.0570   -4.2140   20.8840 C   0  0  0  0  0  0  0  0  0  0  0  0
    5.2920   -4.3420   19.9110 O   0  0  0  0  0  0  0  0  0  0  0  0
    5.6580   -3.6400   22.1040 N   0  0  0  0  0  0  0  0  0  0  0  0
    6.7330   -3.0620   22.9250 C   0  0  0  0  0  0  0  0  0  0  0  0
    7.1580   -3.9640   24.0700 C   0  0  2  0  0  0  0  0  0  0  0  0
    8.6440   -4.3310   23.9690 C   0  0  0  0  0  0  0  0  0  0  0  0
    9.1500   -4.9380   25.2700 C   0  0  0  0  0  0  0  0  0  0  0  0
    8.4510   -4.5890   26.3980 N   0  0  0  0  0  0  0  0  0  0  0  0
   10.1140   -5.6730   25.2860 O   0  0  0  0  0  0  0  0  0  0  0  0
    6.2740   -4.9740   23.9060 N   0  0  0  0  0  0  0  0  0  0  0  0
    6.4580   -5.8520   22.8480 C   0  0  0  0  0  0  0  0  0  0  0  0
    7.6400   -6.5180   22.8050 C   0  0  0  0  0  0  0  0  0  0  0  0
    5.6010   -6.0290   21.9820 O   0  0  0  0  0  0  0  0  0  0  0  0
    4.8560   -4.7100   24.0290 C   0  0  2  0  0  0  0  0  0  0  0  0
    4.0750   -5.7700   24.4910 C   0  0  0  0  0  0  0  0  0  0  0  0
    4.1310   -7.1340   23.8930 C   0  0  0  0  0  0  0  0  0  0  0  0
    3.1960   -5.5000   25.5820 O   0  0  0  0  0  0  0  0  0  0  0  0
    4.4810   -4.1730   22.8280 C   0  0  0  0  0  0  0  0  0  0  0  0
  1  2  1  0
  2  3  2  0
  2  4  1  0
  4  5  1  0
  5  6  1  0
  6  7  1  6
  7  8  1  0
  8  9  1  0
  8 10  2  0
  6 11  1  0
 11 12  1  0
 12 13  1  0
 12 14  2  0
 11 15  1  0
 15 16  1  6
 16 17  1  0
 16 18  2  0
  4 19  1  0
 15 19  1  0
M  END
