DAN-PUR-3907f623-2-acrylamide
     RDKit          3D

 20 20  0  0  0  0  0  0  0  0999 V2000
    6.1220   -5.2710   21.0820 C   0  0  0  0  0  0  0  0  0  0  0  0
    5.5590   -6.1820   22.2050 C   0  0  0  0  0  0  0  0  0  0  0  0
    4.8880   -5.1890   23.1020 C   0  0  0  0  0  0  0  0  0  0  0  0
    3.8800   -4.6170   22.7140 O   0  0  0  0  0  0  0  0  0  0  0  0
    5.5200   -4.9000   24.2500 N   0  0  0  0  0  0  0  0  0  0  0  0
    5.7700   -3.5070   24.5250 C   0  0  0  0  0  0  0  0  0  0  0  0
    6.7620   -3.2610   23.4550 C   0  0  2  0  0  0  0  0  0  0  0  0
    6.4520   -1.8020   23.0890 C   0  0  0  0  0  0  0  0  0  0  0  0
    6.4510   -0.9050   24.3450 C   0  0  0  0  0  0  0  0  0  0  0  0
    6.5590   -0.6780   25.4840 N   0  0  0  0  0  0  0  0  0  0  0  0
    6.1840    0.2150   23.9220 O   0  0  0  0  0  0  0  0  0  0  0  0
    7.3590   -3.6800   22.6250 N   0  0  0  0  0  0  0  0  0  0  0  0
    7.1400   -3.2440   21.2780 C   0  0  0  0  0  0  0  0  0  0  0  0
    8.2510   -2.8360   20.5550 C   0  0  0  0  0  0  0  0  0  0  0  0
    6.0310   -3.1960   20.7030 O   0  0  0  0  0  0  0  0  0  0  0  0
    7.6860   -5.0340   23.1900 C   0  0  1  0  0  0  0  0  0  0  0  0
    8.9800   -4.9050   23.8610 C   0  0  0  0  0  0  0  0  0  0  0  0
    9.3750   -5.7030   24.9300 C   0  0  0  0  0  0  0  0  0  0  0  0
    9.7790   -3.8940   23.2480 O   0  0  0  0  0  0  0  0  0  0  0  0
    6.7490   -5.5770   24.0880 C   0  0  0  0  0  0  0  0  0  0  0  0
  1  2  1  0
  2  3  1  0
  3  4  2  0
  3  5  1  0
  5  6  1  0
  6  7  1  0
  7  8  1  6
  8  9  1  0
  9 10  1  0
  9 11  2  0
  7 12  1  0
 12 13  1  0
 13 14  1  0
 13 15  2  0
 12 16  1  0
 16 17  1  1
 17 18  1  0
 17 19  2  0
  5 20  1  0
 16 20  1  0
M  END
