DAN-PUR-3907f623-1-vinylsulfonamide
     RDKit          3D

 18 18  0  0  0  0  0  0  0  0999 V2000
    6.8600   -5.6520   20.6250 C   0  0  0  0  0  0  0  0  0  0  0  0
    6.8610   -5.0850   22.0440 C   0  0  0  0  0  0  0  0  0  0  0  0
    5.4800   -5.7460   22.9130 S   0  0  0  0  0  0  0  0  0  0  0  0
    4.2580   -5.2050   22.3410 O   0  0  0  0  0  0  0  0  0  0  0  0
    5.7190   -7.1600   23.0490 O   0  0  0  0  0  0  0  0  0  0  0  0
    5.7040   -5.0360   24.4340 N   0  0  0  0  0  0  0  0  0  0  0  0
    4.6040   -4.1440   24.7230 C   0  0  0  0  0  0  0  0  0  0  0  0
    4.6640   -3.0130   23.7190 C   0  0  0  0  0  0  0  0  0  0  0  0
    5.9110   -3.0840   22.9530 N   0  0  0  0  0  0  0  0  0  0  0  0
    5.8300   -2.7270   21.6030 C   0  0  0  0  0  0  0  0  0  0  0  0
    6.7590   -1.6740   20.9890 C   0  0  0  0  0  0  0  0  0  0  0  0
    5.0180   -3.2170   20.7970 O   0  0  0  0  0  0  0  0  0  0  0  0
    7.0810   -3.1540   23.7640 C   0  0  2  0  0  0  0  0  0  0  0  0
    8.3840   -3.0280   23.2790 C   0  0  0  0  0  0  0  0  0  0  0  0
    9.4420   -3.4380   24.1140 C   0  0  0  0  0  0  0  0  0  0  0  0
   10.6440   -2.6350   24.0870 N   0  0  0  0  0  0  0  0  0  0  0  0
    9.4960   -4.4950   24.9400 O   0  0  0  0  0  0  0  0  0  0  0  0
    7.0300   -4.3790   24.5160 C   0  0  0  0  0  0  0  0  0  0  0  0
  1  2  1  0
  3  2  1  0
  3  4  2  0
  3  5  2  0
  3  6  1  0
  6  7  1  0
  7  8  1  0
  8  9  1  0
  9 10  1  0
 10 11  1  0
 10 12  2  0
  9 13  1  0
 13 14  1  6
 14 15  1  0
 15 16  1  0
 15 17  2  0
  6 18  1  0
 13 18  1  0
M  END
