DAN-PUR-3907f623-1-nitrile
     RDKit          3D

 15 15  0  0  0  0  0  0  0  0999 V2000
    6.5840   -5.1690   20.5980 C   0  0  0  0  0  0  0  0  0  0  0  0
    5.6620   -4.5020   20.0610 N   0  0  0  0  0  0  0  0  0  0  0  0
    6.4050   -5.7440   21.8630 N   0  0  0  0  0  0  0  0  0  0  0  0
    5.1910   -5.3930   22.5670 C   0  0  0  0  0  0  0  0  0  0  0  0
    5.3590   -3.9170   22.8560 C   0  0  0  0  0  0  0  0  0  0  0  0
    6.5960   -3.5260   22.4110 N   0  0  0  0  0  0  0  0  0  0  0  0
    6.7520   -2.8890   21.1670 C   0  0  0  0  0  0  0  0  0  0  0  0
    8.0430   -2.5770   20.7700 C   0  0  0  0  0  0  0  0  0  0  0  0
    5.8030   -2.6030   20.4320 O   0  0  0  0  0  0  0  0  0  0  0  0
    7.7740   -4.3030   22.9110 C   0  0  1  0  0  0  0  0  0  0  0  0
    8.2730   -3.8880   24.1620 C   0  0  0  0  0  0  0  0  0  0  0  0
    8.4140   -4.9450   25.2860 C   0  0  0  0  0  0  0  0  0  0  0  0
    9.6430   -5.4920   25.5090 N   0  0  0  0  0  0  0  0  0  0  0  0
    7.2380   -5.2730   26.0380 O   0  0  0  0  0  0  0  0  0  0  0  0
    7.4300   -5.6310   22.8800 C   0  0  0  0  0  0  0  0  0  0  0  0
  1  2  2  3
  1  3  1  0
  3  4  1  0
  4  5  1  0
  5  6  1  0
  6  7  1  0
  7  8  1  0
  7  9  2  0
  6 10  1  0
 10 11  1  1
 11 12  1  0
 12 13  1  0
 12 14  2  0
  3 15  1  0
 10 15  1  0
M  END
