DAN-PUR-3907f623-2-chloroacetamide
     RDKit          3D

 19 19  0  0  0  0  0  0  0  0999 V2000
    7.5470   -4.8320   20.7110 C   0  0  0  0  0  0  0  0  0  0  0  0
    6.2080   -4.1930   20.8810 C   0  0  0  0  0  0  0  0  0  0  0  0
    5.4100   -4.1810   19.9100 O   0  0  0  0  0  0  0  0  0  0  0  0
    5.9460   -3.6400   22.1540 N   0  0  0  0  0  0  0  0  0  0  0  0
    7.0770   -3.4270   23.0760 C   0  0  0  0  0  0  0  0  0  0  0  0
    7.1720   -4.3130   24.1230 C   0  0  2  0  0  0  0  0  0  0  0  0
    8.4450   -4.8830   24.1590 C   0  0  0  0  0  0  0  0  0  0  0  0
    9.1780   -4.5670   25.3050 C   0  0  0  0  0  0  0  0  0  0  0  0
    8.6970   -3.2900   25.0370 N   0  0  0  0  0  0  0  0  0  0  0  0
    9.4340   -5.7650   25.2780 O   0  0  0  0  0  0  0  0  0  0  0  0
    6.1420   -5.1540   23.9780 N   0  0  0  0  0  0  0  0  0  0  0  0
    6.2510   -5.9150   22.8370 C   0  0  0  0  0  0  0  0  0  0  0  0
    7.5310   -6.7150   22.7080 C   0  0  0  0  0  0  0  0  0  0  0  0
    5.2440   -5.9560   21.8090 O   0  0  0  0  0  0  0  0  0  0  0  0
    4.7680   -4.6130   24.0110 C   0  0  2  0  0  0  0  0  0  0  0  0
    3.6580   -5.6700   24.1050 C   0  0  0  0  0  0  0  0  0  0  0  0
    4.0510   -7.1620   24.1760 C   0  0  0  0  0  0  0  0  0  0  0  0
    2.4670   -5.3560   24.1270 O   0  0  0  0  0  0  0  0  0  0  0  0
    4.6440   -3.8460   22.8730 C   0  0  0  0  0  0  0  0  0  0  0  0
  1  2  1  0
  2  3  2  0
  2  4  1  0
  4  5  1  0
  5  6  1  0
  6  7  1  6
  7  8  1  0
  8  9  1  0
  8 10  2  0
  6 11  1  0
 11 12  1  0
 12 13  1  0
 12 14  2  0
 11 15  1  0
 15 16  1  6
 16 17  1  0
 16 18  2  0
  4 19  1  0
 15 19  1  0
M  END
