DAN-RED-da448e80-11
     RDKit          3D

 26 28  0  0  0  0  0  0  0  0999 V2000
    6.6390   -5.2830   26.6480 C   0  0  0  0  0  0  0  0  0  0  0  0
    8.2390   -4.6310   26.2180 S   0  0  0  0  0  0  0  0  0  0  0  0
    8.5620   -3.5980   27.1570 O   0  0  0  0  0  0  0  0  0  0  0  0
    9.1290   -5.7380   25.9800 O   0  0  0  0  0  0  0  0  0  0  0  0
    7.9590   -3.9450   24.7190 N   0  0  0  0  0  0  0  0  0  0  0  0
    8.2020   -2.5180   24.4920 C   0  0  0  0  0  0  0  0  0  0  0  0
    8.7340   -2.2640   23.0860 C   0  0  1  0  0  0  0  0  0  0  0  0
    7.6420   -1.6720   22.1510 C   0  0  0  0  0  0  0  0  0  0  0  0
    6.5010   -2.1340   22.1590 O   0  0  0  0  0  0  0  0  0  0  0  0
    8.0900   -0.5300   21.2630 N   0  0  0  0  0  0  0  0  0  0  0  0
    8.4730    0.7120   21.7620 C   0  0  0  0  0  0  0  0  0  0  0  0
    7.4660    1.2680   22.5470 C   0  0  0  0  0  0  0  0  0  0  0  0
    6.1220    1.1100   22.1080 C   0  0  0  0  0  0  0  0  0  0  0  0
    6.0600    0.7900   20.7320 C   0  0  0  0  0  0  0  0  0  0  0  0
    5.0430    1.2810   19.7410 C   0  0  0  0  0  0  0  0  0  0  0  0
    5.1750    0.8260   18.2870 C   0  0  0  0  0  0  0  0  0  0  0  0
    6.3020   -0.0790   17.9560 N   0  0  0  0  0  0  0  0  0  0  0  0
    7.1540   -0.4530   18.9810 C   0  0  0  0  0  0  0  0  0  0  0  0
    7.0730   -0.0580   20.3140 C   0  0  0  0  0  0  0  0  0  0  0  0
    9.9140   -1.5650   23.0590 C   0  0  0  0  0  0  0  0  0  0  0  0
   10.1070   -0.4340   23.8080 C   0  0  0  0  0  0  0  0  0  0  0  0
   11.2650    0.2590   23.7330 C   0  0  0  0  0  0  0  0  0  0  0  0
   12.2700   -0.1520   22.9160 C   0  0  0  0  0  0  0  0  0  0  0  0
   13.5710    0.8010   22.8740 Cl  0  0  0  0  0  0  0  0  0  0  0  0
   12.2630   -1.2780   22.1240 C   0  0  0  0  0  0  0  0  0  0  0  0
   10.9500   -2.0120   22.2340 C   0  0  0  0  0  0  0  0  0  0  0  0
  1  2  1  0
  2  3  2  0
  2  4  2  0
  2  5  1  0
  5  6  1  0
  7  6  1  1
  7  8  1  0
  8  9  2  0
  8 10  1  0
 10 11  1  0
 11 12  1  0
 12 13  1  0
 13 14  1  0
 14 15  2  0
 15 16  1  0
 16 17  2  0
 17 18  1  0
 10 19  1  0
 14 19  1  0
 18 19  2  0
  7 20  1  0
 20 21  2  0
 21 22  1  0
 22 23  2  0
 23 24  1  0
 23 25  1  0
 20 26  1  0
 25 26  2  0
M  END
