DAN-PUR-3907f623-1-chloroacetamide
     RDKit          3D

 16 16  0  0  0  0  0  0  0  0999 V2000
    7.5300   -5.5740   20.9320 C   0  0  0  0  0  0  0  0  0  0  0  0
    6.1500   -5.4480   21.3200 C   0  0  0  0  0  0  0  0  0  0  0  0
    5.3780   -5.2570   20.2930 O   0  0  0  0  0  0  0  0  0  0  0  0
    5.8320   -5.5460   22.6930 N   0  0  0  0  0  0  0  0  0  0  0  0
    4.7820   -4.7030   23.0750 C   0  0  0  0  0  0  0  0  0  0  0  0
    5.0900   -3.4220   22.6990 C   0  0  0  0  0  0  0  0  0  0  0  0
    6.5010   -3.3770   22.2030 N   0  0  0  0  0  0  0  0  0  0  0  0
    6.8460   -3.1230   20.8750 C   0  0  0  0  0  0  0  0  0  0  0  0
    5.8860   -2.9720   19.8940 C   0  0  0  0  0  0  0  0  0  0  0  0
    7.9900   -3.0100   20.5290 O   0  0  0  0  0  0  0  0  0  0  0  0
    7.4870   -4.1520   23.0270 C   0  0  1  0  0  0  0  0  0  0  0  0
    8.2860   -3.4460   24.1440 C   0  0  0  0  0  0  0  0  0  0  0  0
    8.8760   -4.5190   25.1260 C   0  0  0  0  0  0  0  0  0  0  0  0
    8.1680   -4.6600   26.2910 N   0  0  0  0  0  0  0  0  0  0  0  0
    9.8710   -5.2070   24.9350 O   0  0  0  0  0  0  0  0  0  0  0  0
    6.8700   -5.2240   23.5570 C   0  0  0  0  0  0  0  0  0  0  0  0
  1  2  1  0
  2  3  2  0
  2  4  1  0
  4  5  1  0
  5  6  1  0
  6  7  1  0
  7  8  1  0
  8  9  1  0
  8 10  2  0
  7 11  1  0
 11 12  1  1
 12 13  1  0
 13 14  1  0
 13 15  2  0
  4 16  1  0
 11 16  1  0
M  END
