DAN-PUR-19f24f0c-1
     RDKit          3D

 11 11  0  0  0  0  0  0  0  0999 V2000
    9.6950   -0.7330   22.4400 C   0  0  0  0  0  0  0  0  0  0  0  0
    8.8160    0.1200   21.5550 C   0  0  0  0  0  0  0  0  0  0  0  0
    9.1380    1.2940   21.2830 O   0  0  0  0  0  0  0  0  0  0  0  0
    7.6670   -0.5360   21.1250 N   0  0  0  0  0  0  0  0  0  0  0  0
    6.7290    0.0100   20.1460 C   0  0  0  0  0  0  0  0  0  0  0  0
    7.0490   -0.2440   18.7170 C   0  0  0  0  0  0  0  0  0  0  0  0
    6.1840    0.2990   17.7150 N   0  0  0  0  0  0  0  0  0  0  0  0
    5.0730    1.0360   18.0800 C   0  0  0  0  0  0  0  0  0  0  0  0
    4.5650    1.3890   19.4890 C   0  0  0  0  0  0  0  0  0  0  0  0
    3.8910    1.8410   20.3140 N   0  0  0  0  0  0  0  0  0  0  0  0
    5.5890    0.7480   20.4770 C   0  0  0  0  0  0  0  0  0  0  0  0
  1  2  1  0
  2  3  2  0
  2  4  1  0
  4  5  1  0
  5  6  2  0
  6  7  1  0
  7  8  2  0
  8  9  1  0
  9 10  1  0
  5 11  1  0
  9 11  2  0
M  END
