DAN-RED-da448e80-17
     RDKit          3D

 22 23  0  0  0  0  0  0  0  0999 V2000
    5.6520   -2.7160   19.3140 C   0  0  0  0  0  0  0  0  0  0  0  0
    6.4380   -2.9020   20.5570 C   0  0  0  0  0  0  0  0  0  0  0  0
    6.0100   -3.9370   21.5370 C   0  0  0  0  0  0  0  0  0  0  0  0
    7.0910   -3.5220   22.2150 C   0  0  0  0  0  0  0  0  0  0  0  0
    7.8190   -3.5370   23.0900 N   0  0  0  0  0  0  0  0  0  0  0  0
    8.2420   -2.5450   22.1840 C   0  0  0  0  0  0  0  0  0  0  0  0
    7.6710   -2.0640   20.8380 C   0  0  0  0  0  0  0  0  0  0  0  0
    8.7820   -1.4650   21.3160 N   0  0  0  0  0  0  0  0  0  0  0  0
    8.7940   -1.5360   22.6870 C   0  0  0  0  0  0  0  0  0  0  0  0
    7.8480   -1.0670   23.3330 O   0  0  0  0  0  0  0  0  0  0  0  0
    9.8220   -2.0820   23.4560 C   0  0  2  0  0  0  0  0  0  0  0  0
    9.5210   -2.3500   24.8970 C   0  0  0  0  0  0  0  0  0  0  0  0
   10.3800   -2.9000   25.7000 N   0  0  0  0  0  0  0  0  0  0  0  0
   10.0710   -4.4410   26.2860 S   0  0  0  0  0  0  0  0  0  0  0  0
    8.9640   -5.1170   25.0800 C   0  0  0  0  0  0  0  0  0  0  0  0
   11.3190   -5.1090   26.1590 O   0  0  0  0  0  0  0  0  0  0  0  0
    9.3830   -4.2950   27.5510 O   0  0  0  0  0  0  0  0  0  0  0  0
   10.8730   -1.2000   23.4460 C   0  0  0  0  0  0  0  0  0  0  0  0
   12.0110   -1.2740   22.6160 C   0  0  0  0  0  0  0  0  0  0  0  0
   12.8680   -0.2170   22.8210 C   0  0  0  0  0  0  0  0  0  0  0  0
   12.3300    0.5840   23.7860 C   0  0  0  0  0  0  0  0  0  0  0  0
   10.8480    0.1450   24.4860 S   0  0  0  0  0  0  0  0  0  0  0  0
  1  2  1  0
  2  3  2  0
  3  4  1  0
  4  5  2  0
  5  6  1  0
  2  7  1  0
  6  7  2  0
  7  8  1  0
  8  9  1  0
  9 10  2  0
  9 11  1  0
 11 12  1  1
 12 13  1  0
 14 13  1  0
 14 15  1  0
 14 16  2  0
 14 17  2  0
 11 18  1  0
 18 19  2  0
 19 20  1  0
 20 21  2  0
 18 22  1  0
 21 22  1  0
M  END
