DAN-LON-a5fc619e-3-vinylsulfonamide
     RDKit          3D

 23 24  0  0  0  0  0  0  0  0999 V2000
    7.8880   -3.3650   19.6660 C   0  0  0  0  0  0  0  0  0  0  0  0
    6.9670   -2.5070   18.8720 C   0  0  0  0  0  0  0  0  0  0  0  0
    5.5750   -2.5680   19.8900 S   0  0  0  0  0  0  0  0  0  0  0  0
    5.1000   -3.9530   19.8240 O   0  0  0  0  0  0  0  0  0  0  0  0
    4.7340   -1.4420   19.5690 O   0  0  0  0  0  0  0  0  0  0  0  0
    6.2970   -2.2210   21.3830 N   0  0  0  0  0  0  0  0  0  0  0  0
    6.3780   -3.2640   22.4240 C   0  0  0  0  0  0  0  0  0  0  0  0
    7.6700   -3.4140   22.9340 C   0  0  0  0  0  0  0  0  0  0  0  0
    8.2020   -2.1750   23.5110 N   0  0  0  0  0  0  0  0  0  0  0  0
    9.4180   -2.3510   24.3370 C   0  0  0  0  0  0  0  0  0  0  0  0
   10.5850   -1.5880   23.8920 C   0  0  0  0  0  0  0  0  0  0  0  0
   10.9290   -0.3690   24.5390 C   0  0  0  0  0  0  0  0  0  0  0  0
   12.0530    0.4250   24.1440 C   0  0  0  0  0  0  0  0  0  0  0  0
   12.9040   -0.0250   23.0380 C   0  0  0  0  0  0  0  0  0  0  0  0
   12.2770   -1.2350   22.6550 C   0  0  0  0  0  0  0  0  0  0  0  0
   13.1900   -1.8560   21.3540 Cl  0  0  0  0  0  0  0  0  0  0  0  0
   11.4140   -1.9970   22.8300 C   0  0  0  0  0  0  0  0  0  0  0  0
    8.4190   -1.1900   22.4280 C   0  0  2  0  0  0  0  0  0  0  0  0
    8.5500    0.1070   22.9120 C   0  0  0  0  0  0  0  0  0  0  0  0
    9.3610    0.9580   22.1810 C   0  0  0  0  0  0  0  0  0  0  0  0
   10.5660    1.3380   22.7420 C   0  0  0  0  0  0  0  0  0  0  0  0
    8.6400    2.2250   21.7340 C   0  0  0  0  0  0  0  0  0  0  0  0
    7.3010   -1.1480   21.3400 C   0  0  0  0  0  0  0  0  0  0  0  0
  1  2  1  0
  3  2  1  0
  3  4  2  0
  3  5  2  0
  3  6  1  0
  6  7  1  0
  7  8  1  0
  8  9  1  0
  9 10  1  0
 10 11  1  0
 11 12  2  0
 12 13  1  0
 13 14  2  0
 14 15  1  0
 15 16  1  0
 11 17  1  0
 15 17  2  0
  9 18  1  0
 18 19  1  1
 19 20  1  0
 20 21  1  0
 20 22  1  0
  6 23  1  0
 18 23  1  0
M  END
