DAN-LON-a5fc619e-4-nitrile
     RDKit          3D

 19 20  0  0  0  0  0  0  0  0999 V2000
    6.8200   -3.6130   20.0790 C   0  0  0  0  0  0  0  0  0  0  0  0
    5.6840   -3.9910   19.6390 N   0  0  0  0  0  0  0  0  0  0  0  0
    6.9810   -3.0230   21.3220 N   0  0  0  0  0  0  0  0  0  0  0  0
    6.1670   -3.5100   22.4430 C   0  0  0  0  0  0  0  0  0  0  0  0
    7.5470   -3.6220   22.8330 C   0  0  0  0  0  0  0  0  0  0  0  0
    8.1520   -2.3750   23.3130 N   0  0  0  0  0  0  0  0  0  0  0  0
    9.2320   -2.4650   24.1980 C   0  0  0  0  0  0  0  0  0  0  0  0
   10.4350   -1.5990   23.8120 C   0  0  0  0  0  0  0  0  0  0  0  0
   10.7150   -0.3020   24.5180 C   0  0  0  0  0  0  0  0  0  0  0  0
   11.8990    0.5230   24.0950 C   0  0  0  0  0  0  0  0  0  0  0  0
   12.7210    0.0870   23.0760 C   0  0  0  0  0  0  0  0  0  0  0  0
   12.4140   -1.1400   22.4500 C   0  0  0  0  0  0  0  0  0  0  0  0
   13.3790   -1.7130   21.1930 Cl  0  0  0  0  0  0  0  0  0  0  0  0
   11.3220   -1.9520   22.7970 C   0  0  0  0  0  0  0  0  0  0  0  0
    8.3740   -1.4830   22.1590 C   0  0  0  0  0  0  0  0  0  0  0  0
    7.1820   -1.5340   21.4340 C   0  0  1  0  0  0  0  0  0  0  0  0
    7.2050   -0.8810   20.1800 C   0  0  0  0  0  0  0  0  0  0  0  0
    6.0290   -0.9690   19.4060 C   0  0  0  0  0  0  0  0  0  0  0  0
    7.3320    0.6170   20.4740 C   0  0  0  0  0  0  0  0  0  0  0  0
  1  2  2  3
  1  3  1  0
  3  4  1  0
  4  5  1  0
  5  6  1  0
  6  7  1  0
  7  8  1  0
  8  9  2  0
  9 10  1  0
 10 11  2  0
 11 12  1  0
 12 13  1  0
  8 14  1  0
 12 14  2  0
  6 15  1  0
  3 16  1  0
 15 16  1  0
 16 17  1  6
 17 18  1  0
 17 19  1  0
M  END
