DAN-LON-a5fc619e-1-chloroacetamide
     RDKit          3D

 20 21  0  0  0  0  0  0  0  0999 V2000
    7.1950   -2.9570   18.7860 C   0  0  0  0  0  0  0  0  0  0  0  0
    6.2860   -3.2950   19.9330 C   0  0  0  0  0  0  0  0  0  0  0  0
    5.3880   -4.1370   19.7520 O   0  0  0  0  0  0  0  0  0  0  0  0
    6.5070   -2.6650   21.1530 N   0  0  0  0  0  0  0  0  0  0  0  0
    7.1590   -1.5470   21.3130 C   0  0  0  0  0  0  0  0  0  0  0  0
    8.4390   -1.8290   22.1210 C   0  0  0  0  0  0  0  0  0  0  0  0
    8.1710   -2.3290   23.4910 N   0  0  0  0  0  0  0  0  0  0  0  0
    9.4160   -2.5630   24.2900 C   0  0  0  0  0  0  0  0  0  0  0  0
   10.5550   -1.6350   23.8630 C   0  0  0  0  0  0  0  0  0  0  0  0
   10.8240   -0.2980   24.5170 C   0  0  0  0  0  0  0  0  0  0  0  0
   11.8630    0.5390   24.1060 C   0  0  0  0  0  0  0  0  0  0  0  0
   12.6820    0.1350   23.0710 C   0  0  0  0  0  0  0  0  0  0  0  0
   12.4470   -1.0980   22.4580 C   0  0  0  0  0  0  0  0  0  0  0  0
   13.4300   -1.6030   21.1820 Cl  0  0  0  0  0  0  0  0  0  0  0  0
   11.4240   -1.9620   22.8290 C   0  0  0  0  0  0  0  0  0  0  0  0
    7.2420   -3.5050   23.4720 C   0  0  2  0  0  0  0  0  0  0  0  0
    7.9210   -4.7190   23.2430 C   0  0  0  0  0  0  0  0  0  0  0  0
    8.2210   -5.8270   23.3860 N   0  0  0  0  0  0  0  0  0  0  0  0
    8.7380   -4.3460   22.2150 O   0  0  0  0  0  0  0  0  0  0  0  0
    6.1320   -3.4090   22.3860 C   0  0  0  0  0  0  0  0  0  0  0  0
  1  2  1  0
  2  3  2  0
  2  4  1  0
  4  5  1  0
  5  6  1  0
  6  7  1  0
  7  8  1  0
  8  9  1  0
  9 10  2  0
 10 11  1  0
 11 12  2  0
 12 13  1  0
 13 14  1  0
  9 15  1  0
 13 15  2  0
  7 16  1  0
 16 17  1  6
 17 18  1  0
 17 19  2  0
  4 20  1  0
 16 20  1  0
M  END
