DAN-PUR-3907f623-2-nitrile
     RDKit          3D

 18 18  0  0  0  0  0  0  0  0999 V2000
    6.5480   -5.1340   20.5990 C   0  0  0  0  0  0  0  0  0  0  0  0
    5.6290   -4.4850   20.0670 N   0  0  0  0  0  0  0  0  0  0  0  0
    6.3340   -5.6520   21.8680 N   0  0  0  0  0  0  0  0  0  0  0  0
    7.3200   -5.6190   22.9140 C   0  0  0  0  0  0  0  0  0  0  0  0
    7.5840   -4.3120   23.2520 C   0  0  2  0  0  0  0  0  0  0  0  0
    7.8450   -4.1390   24.6150 C   0  0  0  0  0  0  0  0  0  0  0  0
    9.0990   -4.6060   25.0280 C   0  0  0  0  0  0  0  0  0  0  0  0
    9.1310   -5.6550   26.0640 N   0  0  0  0  0  0  0  0  0  0  0  0
   10.1330   -4.1860   24.5540 O   0  0  0  0  0  0  0  0  0  0  0  0
    6.4750   -3.5170   22.6270 N   0  0  0  0  0  0  0  0  0  0  0  0
    6.6440   -2.9190   21.3580 C   0  0  0  0  0  0  0  0  0  0  0  0
    8.0430   -2.6010   20.8080 C   0  0  0  0  0  0  0  0  0  0  0  0
    5.7030   -2.6160   20.6090 O   0  0  0  0  0  0  0  0  0  0  0  0
    5.1390   -4.0860   22.8480 C   0  0  2  0  0  0  0  0  0  0  0  0
    4.6470   -3.6270   24.2230 C   0  0  0  0  0  0  0  0  0  0  0  0
    3.1640   -3.9340   24.4730 C   0  0  0  0  0  0  0  0  0  0  0  0
    5.3650   -3.0660   25.0500 O   0  0  0  0  0  0  0  0  0  0  0  0
    5.1640   -5.4110   22.4910 C   0  0  0  0  0  0  0  0  0  0  0  0
  1  2  2  3
  1  3  1  0
  3  4  1  0
  4  5  1  0
  5  6  1  1
  6  7  1  0
  7  8  1  0
  7  9  2  0
  5 10  1  0
 10 11  1  0
 11 12  1  0
 11 13  2  0
 10 14  1  0
 14 15  1  1
 15 16  1  0
 15 17  2  0
  3 18  1  0
 14 18  1  0
M  END
