DAN-LON-a5fc619e-7-vinylsulfonamide
     RDKit          3D

 26 27  0  0  0  0  0  0  0  0999 V2000
    7.4280   -3.2400   18.7390 C   0  0  0  0  0  0  0  0  0  0  0  0
    7.2730   -2.3900   19.9060 C   0  0  0  0  0  0  0  0  0  0  0  0
    5.9850   -3.1390   20.8550 S   0  0  0  0  0  0  0  0  0  0  0  0
    4.8630   -3.2520   19.9730 O   0  0  0  0  0  0  0  0  0  0  0  0
    6.3500   -4.2860   21.6690 O   0  0  0  0  0  0  0  0  0  0  0  0
    5.8390   -1.9550   21.9850 N   0  0  0  0  0  0  0  0  0  0  0  0
    5.9660   -2.5250   23.3210 C   0  0  0  0  0  0  0  0  0  0  0  0
    7.2810   -2.9270   23.5920 C   0  0  0  0  0  0  0  0  0  0  0  0
    8.2500   -1.8230   23.5100 N   0  0  0  0  0  0  0  0  0  0  0  0
    9.5630   -2.3760   23.8860 C   0  0  0  0  0  0  0  0  0  0  0  0
   10.6710   -1.5140   23.6430 C   0  0  0  0  0  0  0  0  0  0  0  0
   10.9100   -0.3260   24.3890 C   0  0  0  0  0  0  0  0  0  0  0  0
   12.0240    0.5170   24.1070 C   0  0  0  0  0  0  0  0  0  0  0  0
   12.9570    0.1520   23.0320 C   0  0  0  0  0  0  0  0  0  0  0  0
   12.3930   -1.0510   22.5560 C   0  0  0  0  0  0  0  0  0  0  0  0
   13.3630   -1.6210   21.2850 Cl  0  0  0  0  0  0  0  0  0  0  0  0
   11.5650   -1.8280   22.6380 C   0  0  0  0  0  0  0  0  0  0  0  0
    8.1930   -1.1490   22.1520 C   0  0  2  0  0  0  0  0  0  0  0  0
    8.7370    0.1330   21.9950 C   0  0  0  0  0  0  0  0  0  0  0  0
    8.4390    0.8190   21.0210 O   0  0  0  0  0  0  0  0  0  0  0  0
    9.5670    0.6460   22.9250 N   0  0  0  0  0  0  0  0  0  0  0  0
    9.6840    2.0990   23.1200 C   0  0  0  0  0  0  0  0  0  0  0  0
    9.2730    2.4100   24.3870 C   0  0  0  0  0  0  0  0  0  0  0  0
   11.1300    2.5430   22.9230 C   0  0  0  0  0  0  0  0  0  0  0  0
    8.8300    2.8770   22.1170 C   0  0  0  0  0  0  0  0  0  0  0  0
    6.7370   -0.8360   21.7510 C   0  0  0  0  0  0  0  0  0  0  0  0
  1  2  1  0
  3  2  1  0
  3  4  2  0
  3  5  2  0
  3  6  1  0
  6  7  1  0
  7  8  1  0
  8  9  1  0
  9 10  1  0
 10 11  1  0
 11 12  2  0
 12 13  1  0
 13 14  2  0
 14 15  1  0
 15 16  1  0
 11 17  1  0
 15 17  2  0
  9 18  1  0
 18 19  1  1
 19 20  2  0
 19 21  1  0
 22 21  1  0
 22 23  1  0
 22 24  1  0
 22 25  1  0
  6 26  1  0
 18 26  1  0
M  END
