DAN-LON-a5fc619e-6-acrylamide
     RDKit          3D

 25 27  0  0  0  0  0  0  0  0999 V2000
    7.8830   -3.2050   19.1170 C   0  0  0  0  0  0  0  0  0  0  0  0
    6.6650   -2.3720   18.8740 C   0  0  0  0  0  0  0  0  0  0  0  0
    5.6860   -2.7630   19.9130 C   0  0  0  0  0  0  0  0  0  0  0  0
    4.8360   -3.5760   19.5970 O   0  0  0  0  0  0  0  0  0  0  0  0
    5.8810   -2.2280   21.1760 N   0  0  0  0  0  0  0  0  0  0  0  0
    5.7230   -3.0440   22.3870 C   0  0  0  0  0  0  0  0  0  0  0  0
    6.9240   -3.1460   23.0850 C   0  0  0  0  0  0  0  0  0  0  0  0
    7.4010   -1.8660   23.6330 N   0  0  0  0  0  0  0  0  0  0  0  0
    8.5080   -2.0390   24.6240 C   0  0  0  0  0  0  0  0  0  0  0  0
    9.7820   -1.4280   24.4650 C   0  0  0  0  0  0  0  0  0  0  0  0
    9.9440    0.0430   24.4810 C   0  0  0  0  0  0  0  0  0  0  0  0
   11.3080    0.7400   24.3150 C   0  0  0  0  0  0  0  0  0  0  0  0
   12.1860   -0.3560   24.1820 C   0  0  0  0  0  0  0  0  0  0  0  0
   12.0260   -1.4580   24.1800 C   0  0  0  0  0  0  0  0  0  0  0  0
   13.4500   -2.3770   23.9840 Cl  0  0  0  0  0  0  0  0  0  0  0  0
   10.9390   -2.2660   24.3000 C   0  0  0  0  0  0  0  0  0  0  0  0
    7.6230   -0.8660   22.5950 C   0  0  1  0  0  0  0  0  0  0  0  0
    8.9670   -0.8970   22.3920 C   0  0  0  0  0  0  0  0  0  0  0  0
    9.7220    0.2370   22.6180 C   0  0  0  0  0  0  0  0  0  0  0  0
   11.2130    0.0670   22.3910 C   0  0  0  0  0  0  0  0  0  0  0  0
   11.6950   -1.1630   21.9790 C   0  0  0  0  0  0  0  0  0  0  0  0
   13.3470   -1.3990   21.6990 Cl  0  0  0  0  0  0  0  0  0  0  0  0
   10.8720   -2.2240   21.7690 C   0  0  0  0  0  0  0  0  0  0  0  0
    9.5300   -2.1040   21.9710 C   0  0  0  0  0  0  0  0  0  0  0  0
    6.7000   -0.9970   21.3320 C   0  0  0  0  0  0  0  0  0  0  0  0
  1  2  1  0
  2  3  1  0
  3  4  2  0
  3  5  1  0
  5  6  1  0
  6  7  1  0
  7  8  1  0
  8  9  1  0
  9 10  1  0
 10 11  2  0
 11 12  1  0
 12 13  2  0
 13 14  1  0
 14 15  1  0
 10 16  1  0
 14 16  2  0
  8 17  1  0
 17 18  1  6
 18 19  2  0
 19 20  1  0
 20 21  2  0
 21 22  1  0
 21 23  1  0
 18 24  1  0
 23 24  2  0
  5 25  1  0
 17 25  1  0
M  END
