DAN-LON-a5fc619e-9-nitrile
     RDKit          3D

 21 23  0  0  0  0  0  0  0  0999 V2000
    7.2770   -3.5330   19.9130 C   0  0  0  0  0  0  0  0  0  0  0  0
    6.1110   -3.9410   19.5680 N   0  0  0  0  0  0  0  0  0  0  0  0
    7.3010   -2.7410   21.0060 N   0  0  0  0  0  0  0  0  0  0  0  0
    7.6930   -1.3490   21.0380 C   0  0  0  0  0  0  0  0  0  0  0  0
    8.2550   -1.0090   22.4290 C   0  0  0  0  0  0  0  0  0  0  0  0
    8.4500   -2.2290   23.2430 N   0  0  0  0  0  0  0  0  0  0  0  0
    9.3650   -2.0950   24.3640 C   0  0  0  0  0  0  0  0  0  0  0  0
   10.4260   -1.2880   23.9910 C   0  0  0  0  0  0  0  0  0  0  0  0
   10.6900    0.0000   24.5590 C   0  0  0  0  0  0  0  0  0  0  0  0
   11.7700    0.7610   24.1170 C   0  0  0  0  0  0  0  0  0  0  0  0
   12.6280    0.3080   23.1290 C   0  0  0  0  0  0  0  0  0  0  0  0
   12.4050   -1.0040   22.5120 C   0  0  0  0  0  0  0  0  0  0  0  0
   13.3720   -1.6620   21.2890 Cl  0  0  0  0  0  0  0  0  0  0  0  0
   11.2680   -1.7530   23.0000 C   0  0  0  0  0  0  0  0  0  0  0  0
    7.3140   -3.2120   23.2680 C   0  0  2  0  0  0  0  0  0  0  0  0
    7.7890   -4.5380   23.1770 C   0  0  0  0  0  0  0  0  0  0  0  0
    7.1940   -5.5690   22.4840 C   0  0  0  0  0  0  0  0  0  0  0  0
    7.8640   -6.7550   22.5280 C   0  0  0  0  0  0  0  0  0  0  0  0
    9.0110   -6.6770   23.2610 C   0  0  0  0  0  0  0  0  0  0  0  0
    9.2140   -5.1190   23.9040 S   0  0  0  0  0  0  0  0  0  0  0  0
    6.4440   -2.9900   22.0200 C   0  0  0  0  0  0  0  0  0  0  0  0
  1  2  2  3
  1  3  1  0
  3  4  1  0
  4  5  1  0
  5  6  1  0
  6  7  1  0
  7  8  1  0
  8  9  2  0
  9 10  1  0
 10 11  2  0
 11 12  1  0
 12 13  1  0
  8 14  1  0
 12 14  2  0
  6 15  1  0
 15 16  1  6
 16 17  2  0
 17 18  1  0
 18 19  2  0
 16 20  1  0
 19 20  1  0
  3 21  1  0
 15 21  1  0
M  END
