DAR-DIA-2b784ede-3-chloroacetamide
     RDKit          3D

 25 26  0  0  0  0  0  0  0  0999 V2000
    6.9060   -3.1570   19.4160 C   0  0  0  0  0  0  0  0  0  0  0  0
    6.3410   -3.6390   20.8060 C   0  0  0  0  0  0  0  0  0  0  0  0
    5.8010   -4.4030   19.9340 O   0  0  0  0  0  0  0  0  0  0  0  0
    7.1170   -2.5960   21.6020 N   0  0  0  0  0  0  0  0  0  0  0  0
    8.3350   -2.9930   22.3470 C   0  0  0  0  0  0  0  0  0  0  0  0
    8.3290   -3.9050   23.3230 C   0  0  0  0  0  0  0  0  0  0  0  0
    7.0320   -4.0690   23.2510 C   0  0  0  0  0  0  0  0  0  0  0  0
    6.6060   -3.0700   22.1570 C   0  0  0  0  0  0  0  0  0  0  0  0
    5.2100   -3.0240   21.8960 C   0  0  0  0  0  0  0  0  0  0  0  0
    4.4260   -3.8950   22.6770 C   0  0  0  0  0  0  0  0  0  0  0  0
    3.6310   -4.7090   23.4150 N   0  0  0  0  0  0  0  0  0  0  0  0
    7.6710   -2.1980   21.4450 C   0  0  0  0  0  0  0  0  0  0  0  0
    9.2440   -2.3000   21.8220 C   0  0  0  0  0  0  0  0  0  0  0  0
    6.6760   -1.1450   21.9200 C   0  0  1  0  0  0  0  0  0  0  0  0
    7.7080   -0.3870   22.5940 C   0  0  0  0  0  0  0  0  0  0  0  0
    7.8780   -0.4230   23.8200 O   0  0  0  0  0  0  0  0  0  0  0  0
    8.5140    0.3930   21.7720 N   0  0  0  0  0  0  0  0  0  0  0  0
    8.3010    1.8080   21.5980 C   0  0  0  0  0  0  0  0  0  0  0  0
    5.7450   -0.3710   20.9450 C   0  0  0  0  0  0  0  0  0  0  0  0
    6.4410   -0.1250   20.0210 C   0  0  0  0  0  0  0  0  0  0  0  0
    5.0040    0.1210   20.4470 N   0  0  0  0  0  0  0  0  0  0  0  0
    3.9480    0.7470   19.8680 C   0  0  0  0  0  0  0  0  0  0  0  0
    4.5410    1.0540   18.8700 C   0  0  0  0  0  0  0  0  0  0  0  0
    5.6830    0.3480   19.5520 C   0  0  0  0  0  0  0  0  0  0  0  0
    6.8680    0.4470   18.6180 C   0  0  0  0  0  0  0  0  0  0  0  0
  1  2  1  0
  2  3  2  0
  2  4  1  0
  4  5  1  0
  5  6  2  0
  6  7  1  0
  7  8  2  0
  8  9  1  0
  9 10  1  0
 10 11  3  0
  8 12  1  0
  5 13  1  0
 12 13  2  0
  4 14  1  0
 14 15  1  6
 15 16  2  0
 15 17  1  0
 17 18  1  0
 14 19  1  0
 19 20  2  0
 20 21  1  0
 21 22  2  0
 22 23  1  0
 19 24  1  0
 23 24  2  0
 24 25  1  0
M  END
