DAR-DIA-23aa0b97-17-vinylsulfonamide
     RDKit          3D

 21 22  0  0  0  0  0  0  0  0999 V2000
    6.7920   -5.6120   20.9370 C   0  0  0  0  0  0  0  0  0  0  0  0
    7.0420   -5.0810   22.3280 C   0  0  0  0  0  0  0  0  0  0  0  0
    5.8780   -3.8360   22.7900 S   0  0  0  0  0  0  0  0  0  0  0  0
    4.9960   -3.6100   21.6170 O   0  0  0  0  0  0  0  0  0  0  0  0
    5.2900   -4.2890   24.0490 O   0  0  0  0  0  0  0  0  0  0  0  0
    7.1000   -2.5600   23.2160 C   0  0  0  0  0  0  0  0  0  0  0  0
    8.3510   -2.2330   23.7400 C   0  0  0  0  0  0  0  0  0  0  0  0
    7.6290   -1.2720   23.3390 N   0  0  0  0  0  0  0  0  0  0  0  0
    6.4930   -1.9210   22.8930 C   0  0  0  0  0  0  0  0  0  0  0  0
    6.1070   -3.3620   22.8450 C   0  0  0  0  0  0  0  0  0  0  0  0
    5.0370   -2.5720   22.2930 C   0  0  0  0  0  0  0  0  0  0  0  0
    5.2510   -1.0500   22.3200 C   0  0  0  0  0  0  0  0  0  0  0  0
    5.4200    0.1330   21.9620 O   0  0  0  0  0  0  0  0  0  0  0  0
    5.2180   -1.3310   20.9500 N   0  0  0  0  0  0  0  0  0  0  0  0
    5.1180   -0.3510   19.9340 C   0  0  0  0  0  0  0  0  0  0  0  0
    4.1890    0.6860   19.9500 C   0  0  0  0  0  0  0  0  0  0  0  0
    4.2320    1.6350   18.7960 C   0  0  0  0  0  0  0  0  0  0  0  0
    5.1620    1.4430   17.7970 C   0  0  0  0  0  0  0  0  0  0  0  0
    6.0480    0.4290   17.8080 N   0  0  0  0  0  0  0  0  0  0  0  0
    6.0110   -0.4320   18.8520 C   0  0  0  0  0  0  0  0  0  0  0  0
    7.3720   -3.7560   23.4460 C   0  0  0  0  0  0  0  0  0  0  0  0
  1  2  1  0
  3  2  1  0
  3  4  2  0
  3  5  2  0
  3  6  1  0
  6  7  2  0
  7  8  1  0
  8  9  2  0
  9 10  1  0
 10 11  1  0
 11 12  1  0
 12 13  2  0
 12 14  1  0
 14 15  1  0
 15 16  2  0
 16 17  1  0
 17 18  2  0
 18 19  1  0
 15 20  1  0
 19 20  2  0
  6 21  1  0
 10 21  2  0
M  END
