DAR-DIA-fb20be43-17-chloroacetamide
     RDKit          3D

 28 30  0  0  0  0  0  0  0  0999 V2000
    7.5800   -3.6050   19.6430 C   0  0  0  0  0  0  0  0  0  0  0  0
    6.3180   -2.8810   19.7540 C   0  0  0  0  0  0  0  0  0  0  0  0
    5.3850   -3.1640   18.9970 O   0  0  0  0  0  0  0  0  0  0  0  0
    6.2870   -1.9760   20.7890 N   0  0  0  0  0  0  0  0  0  0  0  0
    7.3410   -0.9520   20.8670 C   0  0  0  0  0  0  0  0  0  0  0  0
    8.5610   -1.4420   21.6810 C   0  0  0  0  0  0  0  0  0  0  0  0
    8.1590   -1.9870   22.9920 N   0  0  0  0  0  0  0  0  0  0  0  0
    9.2630   -2.4250   23.8220 C   0  0  0  0  0  0  0  0  0  0  0  0
   10.4240   -1.5040   23.6410 C   0  0  0  0  0  0  0  0  0  0  0  0
   11.3960   -1.8760   22.5910 C   0  0  0  0  0  0  0  0  0  0  0  0
   12.4530   -1.0270   22.4100 C   0  0  0  0  0  0  0  0  0  0  0  0
   13.3060   -1.3510   21.4430 C   0  0  0  0  0  0  0  0  0  0  0  0
   13.9130   -1.5720   20.5420 N   0  0  0  0  0  0  0  0  0  0  0  0
   12.5980    0.1130   23.1870 C   0  0  0  0  0  0  0  0  0  0  0  0
   11.7140    0.4510   24.1460 N   0  0  0  0  0  0  0  0  0  0  0  0
   10.6230   -0.3490   24.3730 C   0  0  0  0  0  0  0  0  0  0  0  0
    9.7420    0.0770   25.3720 C   0  0  0  0  0  0  0  0  0  0  0  0
    9.4320    1.5030   25.3950 N   0  0  0  0  0  0  0  0  0  0  0  0
   10.1460    2.4800   24.7190 C   0  0  0  0  0  0  0  0  0  0  0  0
   11.1740    2.2550   24.0850 O   0  0  0  0  0  0  0  0  0  0  0  0
    9.6280    3.7620   24.8320 N   0  0  0  0  0  0  0  0  0  0  0  0
   10.4180    4.8700   24.2740 C   0  0  0  0  0  0  0  0  0  0  0  0
   10.5700    5.8710   25.2420 C   0  0  0  0  0  0  0  0  0  0  0  0
    9.5350    6.5090   25.4700 O   0  0  0  0  0  0  0  0  0  0  0  0
    8.3930    5.7070   25.7920 C   0  0  0  0  0  0  0  0  0  0  0  0
    8.6580    4.1910   25.8440 C   0  0  0  0  0  0  0  0  0  0  0  0
    7.1370   -3.0020   22.8830 C   0  0  0  0  0  0  0  0  0  0  0  0
    5.9140   -2.4890   22.1050 C   0  0  0  0  0  0  0  0  0  0  0  0
  1  2  1  0
  2  3  2  0
  2  4  1  0
  4  5  1  0
  5  6  1  0
  6  7  1  0
  7  8  1  0
  8  9  1  0
  9 10  2  0
 10 11  1  0
 11 12  1  0
 12 13  3  0
 11 14  2  0
 14 15  1  0
  9 16  1  0
 15 16  2  0
 16 17  1  0
 17 18  1  0
 18 19  1  0
 19 20  2  0
 19 21  1  0
 21 22  1  0
 22 23  1  0
 23 24  1  0
 24 25  1  0
 21 26  1  0
 25 26  1  0
  7 27  1  0
  4 28  1  0
 27 28  1  0
M  END
