DAR-DIA-2b784ede-54-vinylsulfonamide
     RDKit          3D

 42 45  0  0  0  0  0  0  0  0999 V2000
    6.8370   -5.1630   20.4850 C   0  0  0  0  0  0  0  0  0  0  0  0
    6.7960   -4.3730   21.7690 C   0  0  0  0  0  0  0  0  0  0  0  0
    5.6040   -3.0970   21.5570 S   0  0  0  0  0  0  0  0  0  0  0  0
    4.4440   -3.5800   22.2580 O   0  0  0  0  0  0  0  0  0  0  0  0
    5.3930   -2.8680   20.1420 O   0  0  0  0  0  0  0  0  0  0  0  0
    6.2500   -1.6430   22.2120 N   0  0  0  0  0  0  0  0  0  0  0  0
    7.7460   -1.4440   22.4730 C   0  0  0  0  0  0  0  0  0  0  0  0
    8.3840   -2.8910   22.4240 C   0  0  0  0  0  0  0  0  0  0  0  0
    9.8110   -2.4200   22.6920 C   0  0  0  0  0  0  0  0  0  0  0  0
   10.4320   -1.2230   22.9090 C   0  0  0  0  0  0  0  0  0  0  0  0
   11.8340   -1.1920   23.1240 C   0  0  0  0  0  0  0  0  0  0  0  0
   12.4230    0.0770   23.0250 C   0  0  0  0  0  0  0  0  0  0  0  0
   12.4550   -1.9380   21.9230 C   0  0  0  0  0  0  0  0  0  0  0  0
   12.2140   -2.0330   24.2080 C   0  0  0  0  0  0  0  0  0  0  0  0
    9.7110   -0.0620   22.9220 C   0  0  0  0  0  0  0  0  0  0  0  0
    8.3470    0.0550   22.7270 C   0  0  0  0  0  0  0  0  0  0  0  0
    7.6990    1.2950   22.7700 C   0  0  0  0  0  0  0  0  0  0  0  0
    7.4490    1.9250   23.9910 C   0  0  0  0  0  0  0  0  0  0  0  0
    6.8100    3.1610   24.1040 C   0  0  0  0  0  0  0  0  0  0  0  0
    6.3820    3.8320   22.9860 C   0  0  0  0  0  0  0  0  0  0  0  0
    6.5530    3.3450   21.7040 C   0  0  0  0  0  0  0  0  0  0  0  0
    7.2510    1.9960   21.4760 C   0  0  0  0  0  0  0  0  0  0  0  0
    5.4580   -0.5660   21.7890 C   0  0  1  0  0  0  0  0  0  0  0  0
    5.4620    0.5150   22.9150 C   0  0  0  0  0  0  0  0  0  0  0  0
    6.0250    0.0700   24.1610 O   0  0  0  0  0  0  0  0  0  0  0  0
    4.9170    1.7770   22.6770 N   0  0  0  0  0  0  0  0  0  0  0  0
    3.7100    2.2010   23.3640 C   0  0  0  0  0  0  0  0  0  0  0  0
    2.5540    1.2150   23.0620 C   0  0  0  0  0  0  0  0  0  0  0  0
    1.5790    1.7350   22.0100 C   0  0  0  0  0  0  0  0  0  0  0  0
    1.8100    2.6720   20.9710 C   0  0  0  0  0  0  0  0  0  0  0  0
    0.5560    2.1990   21.0070 C   0  0  0  0  0  0  0  0  0  0  0  0
   -0.1390    2.7800   20.0100 C   0  0  0  0  0  0  0  0  0  0  0  0
   -0.9180    1.9340   20.7010 C   0  0  0  0  0  0  0  0  0  0  0  0
   -2.2150    1.6420   20.5010 F   0  0  0  0  0  0  0  0  0  0  0  0
    0.0430    1.3610   21.8070 C   0  0  0  0  0  0  0  0  0  0  0  0
    5.7930    0.0070   20.3500 C   0  0  0  0  0  0  0  0  0  0  0  0
    6.9190   -0.2700   19.8490 C   0  0  0  0  0  0  0  0  0  0  0  0
    7.1860   -0.8850   20.8230 N   0  0  0  0  0  0  0  0  0  0  0  0
    5.8970   -0.6130   21.4640 C   0  0  0  0  0  0  0  0  0  0  0  0
    4.5580    0.1600   21.1540 C   0  0  0  0  0  0  0  0  0  0  0  0
    4.9370    0.6960   19.7670 C   0  0  0  0  0  0  0  0  0  0  0  0
    3.6910    1.3300   19.6530 C   0  0  0  0  0  0  0  0  0  0  0  0
  1  2  1  0
  2  3  1  0
  3  4  2  0
  3  5  2  0
  3  6  1  0
  6  7  1  0
  7  8  2  0
  8  9  1  0
  9 10  2  0
 10 11  1  0
 11 12  1  0
 11 13  1  0
 11 14  1  0
 10 15  1  0
  7 16  1  0
 15 16  2  0
 16 17  1  0
 17 18  2  0
 18 19  1  0
 19 20  2  0
 20 21  1  0
 17 22  1  0
 21 22  2  0
  6 23  1  0
 23 24  1  1
 24 25  2  0
 24 26  1  0
 26 27  1  0
 27 28  1  0
 28 29  1  0
 29 30  2  0
 30 31  1  0
 31 32  2  0
 32 33  1  0
 33 34  1  0
 29 35  1  0
 33 35  2  0
 23 36  1  0
 36 37  2  0
 37 38  1  0
 38 39  2  0
 39 40  1  0
 36 41  1  0
 40 41  2  0
 41 42  1  0
M  END
