DAR-DIA-caba39e3-12-nitrile
     RDKit          3D

 30 33  0  0  0  0  0  0  0  0999 V2000
    8.2190   -3.9630   20.0680 C   0  0  0  0  0  0  0  0  0  0  0  0
    6.9570   -3.9630   19.6050 N   0  0  0  0  0  0  0  0  0  0  0  0
    8.6000   -3.5620   21.3590 N   0  0  0  0  0  0  0  0  0  0  0  0
    9.4910   -2.4060   21.5520 C   0  0  0  0  0  0  0  0  0  0  0  0
    9.3510   -1.6450   22.8440 C   0  0  0  0  0  0  0  0  0  0  0  0
   10.3970   -0.6130   23.1970 C   0  0  0  0  0  0  0  0  0  0  0  0
   10.2530    0.1030   24.3890 C   0  0  0  0  0  0  0  0  0  0  0  0
    9.1620   -0.1370   25.2250 C   0  0  0  0  0  0  0  0  0  0  0  0
    8.1970   -1.0980   24.8900 C   0  0  0  0  0  0  0  0  0  0  0  0
    8.2870   -1.8520   23.7140 C   0  0  0  0  0  0  0  0  0  0  0  0
    7.3190   -2.8200   23.3880 C   0  0  2  0  0  0  0  0  0  0  0  0
    6.4380   -3.3340   24.5290 C   0  0  0  0  0  0  0  0  0  0  0  0
    6.9950   -4.4070   25.4390 C   0  0  0  0  0  0  0  0  0  0  0  0
    6.2070   -4.8720   26.5090 C   0  0  0  0  0  0  0  0  0  0  0  0
    6.6450   -5.8300   27.4110 C   0  0  0  0  0  0  0  0  0  0  0  0
    7.0180   -6.5810   28.2060 N   0  0  0  0  0  0  0  0  0  0  0  0
    4.9350   -4.3310   26.6730 C   0  0  0  0  0  0  0  0  0  0  0  0
    4.4050   -3.3790   25.8720 N   0  0  0  0  0  0  0  0  0  0  0  0
    5.1360   -2.8820   24.8230 C   0  0  0  0  0  0  0  0  0  0  0  0
    4.4590   -1.8880   24.0890 C   0  0  0  0  0  0  0  0  0  0  0  0
    5.2140   -1.3580   22.9800 N   0  0  0  0  0  0  0  0  0  0  0  0
    5.1240   -1.9770   21.7670 C   0  0  0  0  0  0  0  0  0  0  0  0
    4.7070   -3.1500   21.6760 O   0  0  0  0  0  0  0  0  0  0  0  0
    5.5180   -1.2000   20.6870 N   0  0  0  0  0  0  0  0  0  0  0  0
    5.4400   -1.5790   19.2810 C   0  0  0  0  0  0  0  0  0  0  0  0
    5.1220   -0.3570   18.4880 C   0  0  0  0  0  0  0  0  0  0  0  0
    6.0750    0.3890   18.4400 O   0  0  0  0  0  0  0  0  0  0  0  0
    6.3530    0.9520   19.7420 C   0  0  0  0  0  0  0  0  0  0  0  0
    5.5640    0.2640   20.8440 C   0  0  0  0  0  0  0  0  0  0  0  0
    7.9680   -4.0150   22.6230 C   0  0  0  0  0  0  0  0  0  0  0  0
  1  2  2  3
  1  3  1  0
  3  4  1  0
  4  5  1  0
  5  6  1  0
  6  7  2  0
  7  8  1  0
  8  9  2  0
  5 10  2  0
  9 10  1  0
 10 11  1  0
 11 12  1  1
 12 13  2  0
 13 14  1  0
 14 15  1  0
 15 16  3  0
 14 17  2  0
 17 18  1  0
 12 19  1  0
 18 19  2  0
 19 20  1  0
 20 21  1  0
 21 22  1  0
 22 23  2  0
 22 24  1  0
 24 25  1  0
 25 26  1  0
 26 27  1  0
 27 28  1  0
 24 29  1  0
 28 29  1  0
  3 30  1  0
 11 30  1  0
M  END
