DAR-DIA-2b784ede-25-acrylamide
     RDKit          3D

 26 28  0  0  0  0  0  0  0  0999 V2000
    7.8160   -3.8310   20.1670 C   0  0  0  0  0  0  0  0  0  0  0  0
    7.3390   -3.5280   21.5420 C   0  0  0  0  0  0  0  0  0  0  0  0
    6.2800   -2.5700   21.2400 C   0  0  0  0  0  0  0  0  0  0  0  0
    4.9620   -3.0640   21.0630 O   0  0  0  0  0  0  0  0  0  0  0  0
    6.8380   -1.2280   21.0900 N   0  0  0  0  0  0  0  0  0  0  0  0
    6.0110   -0.4720   20.2270 C   0  0  1  0  0  0  0  0  0  0  0  0
    5.5060    0.6860   20.6760 C   0  0  0  0  0  0  0  0  0  0  0  0
    4.7840    1.5760   19.7810 C   0  0  0  0  0  0  0  0  0  0  0  0
    5.0220    3.0330   20.1470 C   0  0  0  0  0  0  0  0  0  0  0  0
    3.9300    3.5050   21.1170 C   0  0  0  0  0  0  0  0  0  0  0  0
    2.8550    2.4350   21.0350 C   0  0  0  0  0  0  0  0  0  0  0  0
    3.2610    1.4710   19.8970 C   0  0  0  0  0  0  0  0  0  0  0  0
    5.3950    0.9930   18.4970 C   0  0  0  0  0  0  0  0  0  0  0  0
    6.3160   -0.1150   18.9350 N   0  0  0  0  0  0  0  0  0  0  0  0
    7.7520   -0.5440   22.2460 C   0  0  1  0  0  0  0  0  0  0  0  0
    7.0370   -0.4990   23.4630 C   0  0  0  0  0  0  0  0  0  0  0  0
    6.0610   -1.2090   23.7020 O   0  0  0  0  0  0  0  0  0  0  0  0
    7.5180    0.4090   24.3990 N   0  0  0  0  0  0  0  0  0  0  0  0
    8.5240    0.0850   25.4040 C   0  0  0  0  0  0  0  0  0  0  0  0
    9.3090   -0.7980   22.5430 C   0  0  0  0  0  0  0  0  0  0  0  0
   10.5540   -0.1500   22.3270 C   0  0  0  0  0  0  0  0  0  0  0  0
   11.3340   -1.3190   23.0350 N   0  0  0  0  0  0  0  0  0  0  0  0
   12.6410   -0.9520   22.9310 C   0  0  0  0  0  0  0  0  0  0  0  0
   11.3740   -0.7930   22.7310 C   0  0  0  0  0  0  0  0  0  0  0  0
   10.0680   -1.5780   23.0590 C   0  0  0  0  0  0  0  0  0  0  0  0
    9.8980   -2.8850   23.7830 C   0  0  0  0  0  0  0  0  0  0  0  0
  1  2  1  0
  2  3  1  0
  3  4  2  0
  3  5  1  0
  6  5  1  1
  6  7  1  0
  8  7  1  0
  8  9  1  0
  9 10  1  0
 10 11  1  0
  8 12  1  0
 11 12  1  0
  8 13  1  0
  6 14  1  0
 13 14  1  0
  5 15  1  0
 15 16  1  1
 16 17  2  0
 16 18  1  0
 18 19  1  0
 15 20  1  0
 20 21  2  0
 21 22  1  0
 22 23  2  0
 23 24  1  0
 20 25  1  0
 24 25  2  0
 25 26  1  0
M  END
