DAR-DIA-37454fd7-3
     RDKit          3D

 35 38  0  0  0  0  0  0  0  0999 V2000
    6.0830    1.6320   24.3610 C   0  0  0  0  0  0  0  0  0  0  0  0
    7.3040    0.9970   25.0340 C   0  0  0  0  0  0  0  0  0  0  0  0
    8.4250    0.2280   24.3430 C   0  0  0  0  0  0  0  0  0  0  0  0
    8.3200    0.0780   22.8310 C   0  0  0  0  0  0  0  0  0  0  0  0
    7.8930   -1.2910   22.3390 C   0  0  0  0  0  0  0  0  0  0  0  0
    7.8890   -1.4060   20.8380 C   0  0  0  0  0  0  0  0  0  0  0  0
    6.6910   -1.9600   20.2100 N   0  0  0  0  0  0  0  0  0  0  0  0
    6.6320   -1.6530   18.7810 C   0  0  0  0  0  0  0  0  0  0  0  0
    5.9720   -0.3120   18.5860 C   0  0  0  0  0  0  0  0  0  0  0  0
    4.9220    0.2060   19.3840 C   0  0  0  0  0  0  0  0  0  0  0  0
    4.6210    1.4110   18.8780 C   0  0  0  0  0  0  0  0  0  0  0  0
    3.6260    2.3480   19.3190 C   0  0  0  0  0  0  0  0  0  0  0  0
    5.4280    1.6530   17.8210 O   0  0  0  0  0  0  0  0  0  0  0  0
    6.2680    0.5660   17.6490 N   0  0  0  0  0  0  0  0  0  0  0  0
    6.0450   -3.1450   20.5840 C   0  0  0  0  0  0  0  0  0  0  0  0
    5.4150   -3.8520   19.7760 O   0  0  0  0  0  0  0  0  0  0  0  0
    6.1610   -3.5240   21.8700 N   0  0  0  0  0  0  0  0  0  0  0  0
    6.4400   -4.8390   22.0380 C   0  0  0  0  0  0  0  0  0  0  0  0
    5.6180   -5.7270   22.3700 C   0  0  0  0  0  0  0  0  0  0  0  0
    6.3540   -5.2380   23.5300 C   0  0  0  0  0  0  0  0  0  0  0  0
    9.6470   -0.4080   24.9910 C   0  0  0  0  0  0  0  0  0  0  0  0
   10.7810   -0.2910   24.0640 N   0  0  0  0  0  0  0  0  0  0  0  0
   11.5050   -1.4520   23.9400 C   0  0  0  0  0  0  0  0  0  0  0  0
   12.3770   -1.3860   22.8470 C   0  0  0  0  0  0  0  0  0  0  0  0
   13.1730   -0.2710   22.9220 C   0  0  0  0  0  0  0  0  0  0  0  0
   12.5390    0.9370   23.0850 C   0  0  0  0  0  0  0  0  0  0  0  0
   13.1180    2.1120   22.6790 C   0  0  0  0  0  0  0  0  0  0  0  0
   12.4970    3.3580   22.8170 C   0  0  0  0  0  0  0  0  0  0  0  0
   11.0960    3.5360   23.4480 C   0  0  0  0  0  0  0  0  0  0  0  0
   10.1980    5.0460   23.6850 S   0  0  0  0  0  0  0  0  0  0  0  0
   11.3450    6.2120   23.2620 N   0  0  0  0  0  0  0  0  0  0  0  0
    9.9500    5.2490   25.0820 O   0  0  0  0  0  0  0  0  0  0  0  0
    9.1290    5.1090   22.7350 O   0  0  0  0  0  0  0  0  0  0  0  0
   10.6280    2.1110   23.8410 C   0  0  0  0  0  0  0  0  0  0  0  0
   11.2970    0.9090   23.6730 C   0  0  0  0  0  0  0  0  0  0  0  0
  1  2  1  0
  2  3  2  3
  3  4  1  0
  4  5  2  3
  5  6  1  0
  6  7  1  0
  7  8  1  0
  8  9  1  0
  9 10  1  0
 10 11  2  0
 11 12  1  0
 11 13  1  0
  9 14  2  0
 13 14  1  0
  7 15  1  0
 15 16  2  0
 15 17  1  0
 17 18  1  0
 18 19  1  0
 18 20  1  0
 19 20  1  0
  3 21  1  0
 21 22  1  0
 22 23  1  0
 23 24  1  0
 24 25  1  0
 25 26  1  0
 26 27  2  0
 27 28  1  0
 28 29  2  0
 29 30  1  0
 30 31  1  0
 30 32  2  0
 30 33  2  0
 29 34  1  0
 22 35  1  0
 26 35  1  0
 34 35  2  0
M  END
