DAR-DIA-eace69ff-26
     RDKit          3D

 22 24  0  0  0  0  0  0  0  0999 V2000
   13.0070   -2.7530   24.6720 C   0  0  0  0  0  0  0  0  0  0  0  0
   12.9380   -2.0610   23.3420 C   0  0  0  0  0  0  0  0  0  0  0  0
   12.5340   -0.5860   23.4250 C   0  0  0  0  0  0  0  0  0  0  0  0
   13.5040    0.1950   22.7560 C   0  0  0  0  0  0  0  0  0  0  0  0
   13.5940    1.6080   22.5750 C   0  0  0  0  0  0  0  0  0  0  0  0
   14.6830    2.3580   21.7530 N   0  0  0  0  0  0  0  0  0  0  0  0
   15.4950    3.6550   21.8830 C   0  0  0  0  0  0  0  0  0  0  0  0
   16.0190    3.8370   20.5500 C   0  0  0  0  0  0  0  0  0  0  0  0
   15.6970    4.8100   19.6660 C   0  0  0  0  0  0  0  0  0  0  0  0
   15.1990    3.9480   18.6140 C   0  0  0  0  0  0  0  0  0  0  0  0
   15.0060    2.6350   19.3370 C   0  0  0  0  0  0  0  0  0  0  0  0
   14.7970    1.8440   20.3000 C   0  0  0  0  0  0  0  0  0  0  0  0
   12.2400    2.0870   23.3550 C   0  0  0  0  0  0  0  0  0  0  0  0
   11.6650    3.3520   23.5630 C   0  0  0  0  0  0  0  0  0  0  0  0
   10.4530    3.3070   24.2110 C   0  0  0  0  0  0  0  0  0  0  0  0
   10.0900    2.0270   24.5290 N   0  0  0  0  0  0  0  0  0  0  0  0
    8.8620    1.5800   25.2130 C   0  0  0  0  0  0  0  0  0  0  0  0
    9.0210    0.3190   25.6850 N   0  0  0  0  0  0  0  0  0  0  0  0
    8.4250    0.0260   26.8500 C   0  0  0  0  0  0  0  0  0  0  0  0
    8.6330   -0.6460   24.6590 C   0  0  0  0  0  0  0  0  0  0  0  0
   11.2030    1.1890   24.0220 C   0  0  0  0  0  0  0  0  0  0  0  0
   11.3970   -0.1380   24.0520 C   0  0  0  0  0  0  0  0  0  0  0  0
  1  2  1  0
  2  3  1  0
  3  4  2  0
  4  5  1  0
  5  6  1  0
  6  7  1  0
  7  8  1  0
  8  9  1  0
  9 10  1  0
 10 11  1  0
  6 12  1  0
 11 12  1  0
  5 13  2  0
 13 14  1  0
 14 15  2  0
 15 16  1  0
 16 17  1  0
 17 18  1  0
 18 19  1  0
 18 20  1  0
 13 21  1  0
 16 21  1  0
  3 22  1  0
 21 22  2  0
M  END
