DAR-DIA-2b784ede-32-chloroacetamide
     RDKit          3D

 26 27  0  0  0  0  0  0  0  0999 V2000
    8.0300   -3.4820   20.5870 C   0  0  0  0  0  0  0  0  0  0  0  0
    7.1160   -2.3080   20.5640 C   0  0  0  0  0  0  0  0  0  0  0  0
    6.3600   -2.5630   19.3820 O   0  0  0  0  0  0  0  0  0  0  0  0
    7.1570   -1.2630   21.7660 N   0  0  0  0  0  0  0  0  0  0  0  0
    6.3190   -1.5300   22.8800 C   0  0  0  0  0  0  0  0  0  0  0  0
    5.4210   -1.8920   23.9770 C   0  0  0  0  0  0  0  0  0  0  0  0
    4.6970   -3.0410   23.7880 C   0  0  0  0  0  0  0  0  0  0  0  0
    3.6940   -3.8240   24.5870 C   0  0  0  0  0  0  0  0  0  0  0  0
    3.0270   -4.9100   23.7400 C   0  0  0  0  0  0  0  0  0  0  0  0
    2.6260   -2.9210   25.2150 C   0  0  0  0  0  0  0  0  0  0  0  0
    4.4240   -4.5000   25.6830 C   0  0  0  0  0  0  0  0  0  0  0  0
    4.9850   -5.0590   26.5360 N   0  0  0  0  0  0  0  0  0  0  0  0
    5.0270   -3.4950   22.6080 O   0  0  0  0  0  0  0  0  0  0  0  0
    5.9450   -2.6210   22.1200 N   0  0  0  0  0  0  0  0  0  0  0  0
    8.2270   -0.2260   22.3890 C   0  0  1  0  0  0  0  0  0  0  0  0
    7.5980    0.4700   23.6280 C   0  0  0  0  0  0  0  0  0  0  0  0
    6.3870    0.6530   23.7460 O   0  0  0  0  0  0  0  0  0  0  0  0
    8.5050    0.8900   24.5980 N   0  0  0  0  0  0  0  0  0  0  0  0
    9.2010   -0.0440   25.4590 C   0  0  0  0  0  0  0  0  0  0  0  0
    9.7380   -0.5240   22.5850 C   0  0  0  0  0  0  0  0  0  0  0  0
   10.6970    0.5020   22.4630 C   0  0  0  0  0  0  0  0  0  0  0  0
   12.0450    0.3660   22.5620 N   0  0  0  0  0  0  0  0  0  0  0  0
   12.5300   -0.8570   22.7870 C   0  0  0  0  0  0  0  0  0  0  0  0
   11.7160   -1.9720   22.9690 C   0  0  0  0  0  0  0  0  0  0  0  0
   10.2390   -1.7970   22.8830 C   0  0  0  0  0  0  0  0  0  0  0  0
    9.4290   -2.9000   23.0960 C   0  0  0  0  0  0  0  0  0  0  0  0
  1  2  1  0
  2  3  2  0
  2  4  1  0
  4  5  1  0
  5  6  1  0
  6  7  2  0
  7  8  1  0
  8  9  1  0
  8 10  1  0
  8 11  1  0
 11 12  3  0
  7 13  1  0
  5 14  2  0
 13 14  1  0
  4 15  1  0
 15 16  1  1
 16 17  2  0
 16 18  1  0
 18 19  1  0
 15 20  1  0
 20 21  2  0
 21 22  1  0
 22 23  2  0
 23 24  1  0
 20 25  1  0
 24 25  2  0
 25 26  1  0
M  END
