DAR-DIA-2b784ede-43-chloroacetamide
     RDKit          3D

 33 35  0  0  0  0  0  0  0  0999 V2000
    6.3990   -4.3490   20.3710 C   0  0  0  0  0  0  0  0  0  0  0  0
    5.5940   -3.0620   19.9390 C   0  0  0  0  0  0  0  0  0  0  0  0
    4.9430   -3.2700   18.8960 O   0  0  0  0  0  0  0  0  0  0  0  0
    5.5880   -1.7370   20.6500 N   0  0  0  0  0  0  0  0  0  0  0  0
    4.6860   -0.7000   20.0840 C   0  0  0  0  0  0  0  0  0  0  0  0
    4.6390   -0.7040   21.5270 C   0  0  0  0  0  0  0  0  0  0  0  0
    5.5670   -1.8500   21.7310 C   0  0  0  0  0  0  0  0  0  0  0  0
    5.9620   -2.4430   23.1260 C   0  0  0  0  0  0  0  0  0  0  0  0
    7.2840   -1.9770   23.7620 C   0  0  0  0  0  0  0  0  0  0  0  0
    6.0290   -3.9810   23.0590 C   0  0  0  0  0  0  0  0  0  0  0  0
    4.8540   -2.0500   24.1240 C   0  0  0  0  0  0  0  0  0  0  0  0
    5.9970   -2.2950   20.3930 N   0  0  0  0  0  0  0  0  0  0  0  0
    5.3890   -1.5050   19.3650 N   0  0  0  0  0  0  0  0  0  0  0  0
    6.9250   -1.0430   20.5940 C   0  0  1  0  0  0  0  0  0  0  0  0
    8.0390   -1.6440   21.2650 C   0  0  0  0  0  0  0  0  0  0  0  0
    7.8500   -2.7040   21.8640 O   0  0  0  0  0  0  0  0  0  0  0  0
    9.3000   -1.0410   21.2540 N   0  0  0  0  0  0  0  0  0  0  0  0
   10.1500   -0.9110   22.4090 C   0  0  0  0  0  0  0  0  0  0  0  0
    9.6480   -0.1240   23.4600 C   0  0  0  0  0  0  0  0  0  0  0  0
    8.2650    0.5180   23.2580 C   0  0  0  0  0  0  0  0  0  0  0  0
   10.3680    0.0700   24.6330 C   0  0  0  0  0  0  0  0  0  0  0  0
   11.7280   -0.5800   24.7700 C   0  0  0  0  0  0  0  0  0  0  0  0
   12.2010   -1.3410   23.7240 C   0  0  0  0  0  0  0  0  0  0  0  0
   11.4650   -1.5310   22.5470 C   0  0  0  0  0  0  0  0  0  0  0  0
   12.1870   -2.4250   21.4960 C   0  0  0  0  0  0  0  0  0  0  0  0
   13.2790   -1.6820   20.9330 O   0  0  0  0  0  0  0  0  0  0  0  0
    7.0860   -0.5370   19.1410 C   0  0  0  0  0  0  0  0  0  0  0  0
    6.5950    0.7650   18.5240 C   0  0  0  0  0  0  0  0  0  0  0  0
    6.9450    0.9110   17.0750 C   0  0  0  0  0  0  0  0  0  0  0  0
    7.6510   -0.0410   16.3620 C   0  0  0  0  0  0  0  0  0  0  0  0
    8.0280    0.0380   15.1040 N   0  0  0  0  0  0  0  0  0  0  0  0
    8.0230   -1.1510   16.9340 N   0  0  0  0  0  0  0  0  0  0  0  0
    7.7400   -1.3400   18.2360 C   0  0  0  0  0  0  0  0  0  0  0  0
  1  2  1  0
  2  3  2  0
  2  4  1  0
  4  5  1  0
  5  6  2  0
  6  7  1  0
  7  8  1  0
  8  9  1  0
  8 10  1  0
  8 11  1  0
  7 12  2  0
  5 13  1  0
 12 13  1  0
  4 14  1  0
 14 15  1  6
 15 16  2  0
 15 17  1  0
 17 18  1  0
 18 19  2  0
 19 20  1  0
 19 21  1  0
 21 22  2  0
 22 23  1  0
 18 24  1  0
 23 24  2  0
 24 25  1  0
 25 26  1  0
 14 27  1  0
 27 28  2  0
 28 29  1  0
 29 30  2  0
 30 31  1  0
 30 32  1  0
 27 33  1  0
 32 33  2  0
M  END
