DAR-DIA-caba39e3-4-acrylamide
     RDKit          3D

 31 34  0  0  0  0  0  0  0  0999 V2000
    8.1360   -3.5150   19.8280 C   0  0  0  0  0  0  0  0  0  0  0  0
    7.0600   -2.6320   19.3060 C   0  0  0  0  0  0  0  0  0  0  0  0
    5.9900   -2.8940   20.2740 C   0  0  0  0  0  0  0  0  0  0  0  0
    4.9450   -3.4110   19.9380 O   0  0  0  0  0  0  0  0  0  0  0  0
    6.3160   -2.5450   21.5650 N   0  0  0  0  0  0  0  0  0  0  0  0
    5.9440   -3.5450   22.5730 C   0  0  0  0  0  0  0  0  0  0  0  0
    6.9350   -3.9530   23.4890 C   0  0  0  0  0  0  0  0  0  0  0  0
    6.6150   -4.8440   24.5240 C   0  0  0  0  0  0  0  0  0  0  0  0
    7.5660   -5.2730   25.4680 C   0  0  0  0  0  0  0  0  0  0  0  0
    8.8860   -4.8340   25.4230 C   0  0  0  0  0  0  0  0  0  0  0  0
    9.2710   -3.9490   24.4220 C   0  0  0  0  0  0  0  0  0  0  0  0
    8.2430   -3.4920   23.4090 C   0  0  0  0  0  0  0  0  0  0  0  0
    8.7110   -2.5230   22.3620 C   0  0  2  0  0  0  0  0  0  0  0  0
    9.5980   -1.6580   22.9520 C   0  0  0  0  0  0  0  0  0  0  0  0
   10.7700   -1.1190   22.4420 C   0  0  0  0  0  0  0  0  0  0  0  0
   11.5510   -0.2580   23.2190 C   0  0  0  0  0  0  0  0  0  0  0  0
   12.6610    0.2080   22.6170 O   0  0  0  0  0  0  0  0  0  0  0  0
   12.8660    1.5740   22.8920 C   0  0  0  0  0  0  0  0  0  0  0  0
   11.1670    0.0700   24.5310 C   0  0  0  0  0  0  0  0  0  0  0  0
    9.9460   -0.4960   25.0360 C   0  0  0  0  0  0  0  0  0  0  0  0
    9.2890   -0.3670   26.2960 C   0  0  0  0  0  0  0  0  0  0  0  0
    9.4960    0.3380   27.6010 C   0  0  0  0  0  0  0  0  0  0  0  0
    8.6090   -0.2930   28.6700 C   0  0  0  0  0  0  0  0  0  0  0  0
    9.1190   -0.1800   30.0380 N   0  0  0  0  0  0  0  0  0  0  0  0
    9.9700    0.8210   30.4090 C   0  0  0  0  0  0  0  0  0  0  0  0
    9.2840    1.9760   31.0870 C   0  0  0  0  0  0  0  0  0  0  0  0
   11.1710    0.7850   30.2150 O   0  0  0  0  0  0  0  0  0  0  0  0
    8.1600   -1.1480   26.1770 C   0  0  0  0  0  0  0  0  0  0  0  0
    8.1400   -1.7030   24.9530 N   0  0  0  0  0  0  0  0  0  0  0  0
    9.2370   -1.3140   24.2340 C   0  0  0  0  0  0  0  0  0  0  0  0
    7.5120   -1.7190   21.8240 C   0  0  0  0  0  0  0  0  0  0  0  0
  1  2  1  0
  2  3  1  0
  3  4  2  0
  3  5  1  0
  5  6  1  0
  6  7  1  0
  7  8  1  0
  8  9  2  0
  9 10  1  0
 10 11  2  0
  7 12  2  0
 11 12  1  0
 12 13  1  0
 13 14  1  1
 14 15  2  0
 15 16  1  0
 16 17  1  0
 17 18  1  0
 16 19  2  0
 19 20  1  0
 20 21  1  0
 21 22  1  0
 22 23  1  0
 23 24  1  0
 24 25  1  0
 25 26  1  0
 25 27  2  0
 21 28  2  0
 28 29  1  0
 14 30  1  0
 20 30  2  0
 29 30  1  0
  5 31  1  0
 13 31  1  0
M  END
