DAR-DIA-eace69ff-17
     RDKit          3D

 25 27  0  0  0  0  0  0  0  0999 V2000
   13.3660   -2.0130   20.8410 C   0  0  0  0  0  0  0  0  0  0  0  0
   13.2470   -1.9990   22.3040 C   0  0  0  0  0  0  0  0  0  0  0  0
   12.4220   -0.8650   22.7880 C   0  0  0  0  0  0  0  0  0  0  0  0
   11.3350   -1.4550   23.3610 C   0  0  0  0  0  0  0  0  0  0  0  0
   10.2910   -0.7850   23.9540 C   0  0  0  0  0  0  0  0  0  0  0  0
    9.2490   -1.5320   24.5020 N   0  0  0  0  0  0  0  0  0  0  0  0
    9.0100   -2.9610   24.1740 C   0  0  0  0  0  0  0  0  0  0  0  0
    8.0210   -2.9490   23.1550 C   0  0  0  0  0  0  0  0  0  0  0  0
    7.4570   -4.2090   22.7920 C   0  0  0  0  0  0  0  0  0  0  0  0
    6.9000   -4.9390   23.9640 C   0  0  0  0  0  0  0  0  0  0  0  0
    7.7720   -4.4470   24.9950 C   0  0  0  0  0  0  0  0  0  0  0  0
    8.6420   -3.7220   25.2920 C   0  0  0  0  0  0  0  0  0  0  0  0
   10.4750    0.7660   23.8910 C   0  0  0  0  0  0  0  0  0  0  0  0
   11.6160    1.2440   23.2730 C   0  0  0  0  0  0  0  0  0  0  0  0
   12.6110    0.4880   22.7230 C   0  0  0  0  0  0  0  0  0  0  0  0
   11.6440    2.7510   23.2590 C   0  0  0  0  0  0  0  0  0  0  0  0
   12.6030    3.8070   22.7070 C   0  0  0  0  0  0  0  0  0  0  0  0
   12.2930    5.1660   23.1700 N   0  0  0  0  0  0  0  0  0  0  0  0
   13.2590    6.0920   22.5790 C   0  0  0  0  0  0  0  0  0  0  0  0
   10.9050    5.4830   22.8130 C   0  0  0  0  0  0  0  0  0  0  0  0
   10.4350    3.0040   23.9420 C   0  0  0  0  0  0  0  0  0  0  0  0
    9.7150    1.8090   24.3320 N   0  0  0  0  0  0  0  0  0  0  0  0
    8.5040    1.7750   25.0040 C   0  0  0  0  0  0  0  0  0  0  0  0
    8.1250    3.0920   25.6850 C   0  0  0  0  0  0  0  0  0  0  0  0
    7.8110    0.7640   25.0320 O   0  0  0  0  0  0  0  0  0  0  0  0
  1  2  1  0
  2  3  1  0
  3  4  2  0
  4  5  1  0
  5  6  1  0
  6  7  1  0
  7  8  1  0
  8  9  1  0
  9 10  1  0
 10 11  1  0
  7 12  1  0
 11 12  1  0
  5 13  2  0
 13 14  1  0
  3 15  1  0
 14 15  2  0
 14 16  1  0
 16 17  1  0
 17 18  1  0
 18 19  1  0
 18 20  1  0
 16 21  2  0
 13 22  1  0
 21 22  1  0
 22 23  1  0
 23 24  1  0
 23 25  2  0
M  END
