DAR-DIA-2b784ede-31-nitrile
     RDKit          3D

 24 25  0  0  0  0  0  0  0  0999 V2000
    7.0430   -2.7990   20.1290 C   0  0  0  0  0  0  0  0  0  0  0  0
    5.8920   -3.0170   19.4880 N   0  0  0  0  0  0  0  0  0  0  0  0
    7.1560   -2.0650   21.5430 N   0  0  0  0  0  0  0  0  0  0  0  0
    5.8210   -2.0770   22.1790 C   0  0  0  0  0  0  0  0  0  0  0  0
    6.4450   -3.3230   22.3200 C   0  0  0  0  0  0  0  0  0  0  0  0
    5.7570   -4.2640   22.9630 C   0  0  0  0  0  0  0  0  0  0  0  0
    6.1170   -5.5640   23.2520 C   0  0  0  0  0  0  0  0  0  0  0  0
    5.0830   -6.4370   23.8170 C   0  0  0  0  0  0  0  0  0  0  0  0
    7.3430   -5.4520   24.1490 C   0  0  0  0  0  0  0  0  0  0  0  0
    6.5460   -6.3630   22.0470 C   0  0  0  0  0  0  0  0  0  0  0  0
    4.5970   -3.8100   23.3420 O   0  0  0  0  0  0  0  0  0  0  0  0
    4.6510   -2.5000   22.8750 N   0  0  0  0  0  0  0  0  0  0  0  0
    7.9310   -0.8960   22.0730 C   0  0  1  0  0  0  0  0  0  0  0  0
    7.3640   -0.2540   23.3220 C   0  0  0  0  0  0  0  0  0  0  0  0
    6.2330    0.2230   23.3290 O   0  0  0  0  0  0  0  0  0  0  0  0
    8.2280   -0.2370   24.4160 N   0  0  0  0  0  0  0  0  0  0  0  0
    8.7420   -1.3450   25.1350 C   0  0  0  0  0  0  0  0  0  0  0  0
    9.4890   -0.9430   22.3510 C   0  0  0  0  0  0  0  0  0  0  0  0
   10.4050    0.2930   22.2670 C   0  0  0  0  0  0  0  0  0  0  0  0
   11.7500    0.3580   22.4300 N   0  0  0  0  0  0  0  0  0  0  0  0
   12.3310   -0.8280   22.6630 C   0  0  0  0  0  0  0  0  0  0  0  0
   11.5040   -2.0850   22.7980 C   0  0  0  0  0  0  0  0  0  0  0  0
   10.1220   -2.0950   22.6750 C   0  0  0  0  0  0  0  0  0  0  0  0
    9.2570   -3.1370   22.8410 C   0  0  0  0  0  0  0  0  0  0  0  0
  1  2  2  3
  1  3  1  0
  3  4  1  0
  4  5  1  0
  5  6  2  0
  6  7  1  0
  7  8  1  0
  7  9  1  0
  7 10  1  0
  6 11  1  0
  4 12  2  0
 11 12  1  0
  3 13  1  0
 13 14  1  1
 14 15  2  0
 14 16  1  0
 16 17  1  0
 13 18  1  0
 18 19  2  0
 19 20  1  0
 20 21  2  0
 21 22  1  0
 18 23  1  0
 22 23  2  0
 23 24  1  0
M  END
