DAR-DIA-23aa0b97-9-chloroacetamide
     RDKit          3D

 20 21  0  0  0  0  0  0  0  0999 V2000
    7.3970   -4.6260   20.9250 C   0  0  0  0  0  0  0  0  0  0  0  0
    7.5860   -3.2410   20.3470 C   0  0  0  0  0  0  0  0  0  0  0  0
    7.0520   -3.1170   19.1580 O   0  0  0  0  0  0  0  0  0  0  0  0
    8.3280   -2.1800   21.2620 C   0  0  0  0  0  0  0  0  0  0  0  0
    9.7360   -1.8310   21.9670 C   0  0  0  0  0  0  0  0  0  0  0  0
   11.1340   -1.8540   22.4300 N   0  0  0  0  0  0  0  0  0  0  0  0
   10.5920   -0.8960   22.8870 C   0  0  0  0  0  0  0  0  0  0  0  0
    9.3660   -1.3600   22.1760 C   0  0  0  0  0  0  0  0  0  0  0  0
    8.2670   -0.5750   22.3410 N   0  0  0  0  0  0  0  0  0  0  0  0
    7.7070    0.2940   21.4410 C   0  0  0  0  0  0  0  0  0  0  0  0
    8.3170    1.2810   20.9810 O   0  0  0  0  0  0  0  0  0  0  0  0
    6.4500   -0.1160   21.1940 N   0  0  0  0  0  0  0  0  0  0  0  0
    5.9700    0.4660   20.0460 C   0  0  0  0  0  0  0  0  0  0  0  0
    6.6920    0.2960   18.8690 C   0  0  0  0  0  0  0  0  0  0  0  0
    6.2520    0.8700   17.7450 N   0  0  0  0  0  0  0  0  0  0  0  0
    5.1260    1.6040   17.7280 C   0  0  0  0  0  0  0  0  0  0  0  0
    4.3590    1.7710   18.9820 C   0  0  0  0  0  0  0  0  0  0  0  0
    3.2710    2.5160   18.8050 N   0  0  0  0  0  0  0  0  0  0  0  0
    4.8030    1.1890   20.1300 C   0  0  0  0  0  0  0  0  0  0  0  0
    9.4600   -2.6690   21.3440 C   0  0  0  0  0  0  0  0  0  0  0  0
  1  2  1  0
  2  3  2  0
  2  4  1  0
  4  5  2  0
  5  6  1  0
  6  7  2  0
  7  8  1  0
  8  9  1  0
  9 10  1  0
 10 11  2  0
 10 12  1  0
 12 13  1  0
 13 14  2  0
 14 15  1  0
 15 16  2  0
 16 17  1  0
 17 18  1  0
 13 19  1  0
 17 19  2  0
  4 20  1  0
  8 20  2  0
M  END
