DAR-DIA-23aa0b97-1-acrylamide
     RDKit          3D

 23 25  0  0  0  0  0  0  0  0999 V2000
    6.2170   -3.6670   19.4880 C   0  0  0  0  0  0  0  0  0  0  0  0
    5.9450   -2.5610   20.4820 C   0  0  0  0  0  0  0  0  0  0  0  0
    5.7090   -3.1210   21.8510 C   0  0  0  0  0  0  0  0  0  0  0  0
    4.7550   -3.8790   22.0920 O   0  0  0  0  0  0  0  0  0  0  0  0
    6.7050   -2.6940   22.8990 C   0  0  0  0  0  0  0  0  0  0  0  0
    7.2840   -3.8070   23.0490 C   0  0  0  0  0  0  0  0  0  0  0  0
    8.1880   -2.5030   23.4540 C   0  0  0  0  0  0  0  0  0  0  0  0
    7.3320   -1.2500   24.0010 C   0  0  0  0  0  0  0  0  0  0  0  0
    7.6860   -2.2020   24.5800 C   0  0  0  0  0  0  0  0  0  0  0  0
    7.3100   -1.9610   23.1710 N   0  0  0  0  0  0  0  0  0  0  0  0
    6.6610   -0.7790   22.6800 C   0  0  0  0  0  0  0  0  0  0  0  0
    5.3700   -0.4800   23.0080 O   0  0  0  0  0  0  0  0  0  0  0  0
    7.4030    0.2230   21.7760 C   0  0  0  0  0  0  0  0  0  0  0  0
    6.8350    0.3270   20.5510 C   0  0  0  0  0  0  0  0  0  0  0  0
    7.1540   -0.2730   19.3960 C   0  0  0  0  0  0  0  0  0  0  0  0
    6.4270    0.1770   18.3140 N   0  0  0  0  0  0  0  0  0  0  0  0
    5.3740    1.0260   18.6130 C   0  0  0  0  0  0  0  0  0  0  0  0
    5.0000    1.4640   19.8890 N   0  0  0  0  0  0  0  0  0  0  0  0
    5.1330    2.0330   21.2880 C   0  0  0  0  0  0  0  0  0  0  0  0
    5.5420    3.0720   21.5150 C   0  0  0  0  0  0  0  0  0  0  0  0
    5.2170    2.6390   20.2570 C   0  0  0  0  0  0  0  0  0  0  0  0
    5.8660    1.1760   19.8940 C   0  0  0  0  0  0  0  0  0  0  0  0
    7.7730   -3.2610   23.7590 C   0  0  0  0  0  0  0  0  0  0  0  0
  1  2  1  0
  2  3  1  0
  3  4  2  0
  3  5  1  0
  5  6  2  0
  6  7  1  0
  7  8  2  0
  8  9  1  0
  9 10  1  0
 10 11  1  0
 11 12  2  0
 11 13  1  0
 13 14  1  0
 14 15  2  0
 15 16  1  0
 16 17  1  0
 17 18  1  0
 18 19  2  0
 19 20  1  0
 20 21  2  0
 14 22  1  0
 17 22  2  0
 21 22  1  0
  5 23  1  0
  9 23  2  0
M  END
