DAR-DIA-eace69ff-13
     RDKit          3D

 29 32  0  0  0  0  0  0  0  0999 V2000
   13.3970   -1.9450   20.8530 C   0  0  0  0  0  0  0  0  0  0  0  0
   13.2910   -1.9560   22.3220 C   0  0  0  0  0  0  0  0  0  0  0  0
   12.4390   -0.8480   22.8130 C   0  0  0  0  0  0  0  0  0  0  0  0
   11.3470   -1.4960   23.3140 C   0  0  0  0  0  0  0  0  0  0  0  0
   10.2660   -0.8660   23.8750 C   0  0  0  0  0  0  0  0  0  0  0  0
    9.2960   -1.5070   24.3110 O   0  0  0  0  0  0  0  0  0  0  0  0
    9.1350   -2.8480   23.7630 C   0  0  0  0  0  0  0  0  0  0  0  0
    7.7960   -2.9710   23.3250 C   0  0  0  0  0  0  0  0  0  0  0  0
    7.5040   -4.2750   22.8370 C   0  0  0  0  0  0  0  0  0  0  0  0
    7.6480   -5.3170   23.8880 C   0  0  0  0  0  0  0  0  0  0  0  0
    8.7790   -4.7340   24.5640 C   0  0  0  0  0  0  0  0  0  0  0  0
    9.5180   -3.8290   24.6860 C   0  0  0  0  0  0  0  0  0  0  0  0
   10.4330    0.6820   23.8690 C   0  0  0  0  0  0  0  0  0  0  0  0
   11.5740    1.2510   23.3360 C   0  0  0  0  0  0  0  0  0  0  0  0
   12.6110    0.5240   22.8010 C   0  0  0  0  0  0  0  0  0  0  0  0
   11.5660    2.7620   23.3900 C   0  0  0  0  0  0  0  0  0  0  0  0
   12.5200    3.8880   22.9420 C   0  0  0  0  0  0  0  0  0  0  0  0
   12.0950    5.2460   23.3570 N   0  0  0  0  0  0  0  0  0  0  0  0
   10.9630    5.6920   22.5910 C   0  0  0  0  0  0  0  0  0  0  0  0
   11.7970    5.4860   24.7760 C   0  0  0  0  0  0  0  0  0  0  0  0
   10.3280    3.0100   24.0180 C   0  0  0  0  0  0  0  0  0  0  0  0
    9.6900    1.7840   24.2840 N   0  0  0  0  0  0  0  0  0  0  0  0
    8.3740    1.7290   24.9230 C   0  0  0  0  0  0  0  0  0  0  0  0
    8.3900    2.0970   26.4150 C   0  0  0  0  0  0  0  0  0  0  0  0
    7.3940    1.5040   27.1920 C   0  0  0  0  0  0  0  0  0  0  0  0
    7.1270    2.2020   28.5000 C   0  0  0  0  0  0  0  0  0  0  0  0
    8.4530    2.8320   28.8800 C   0  0  0  0  0  0  0  0  0  0  0  0
    8.5640    3.9890   28.0550 C   0  0  0  0  0  0  0  0  0  0  0  0
    8.5080    3.4820   26.6260 C   0  0  0  0  0  0  0  0  0  0  0  0
  1  2  1  0
  2  3  1  0
  3  4  2  0
  4  5  1  0
  5  6  1  0
  6  7  1  0
  7  8  1  0
  8  9  1  0
  9 10  1  0
 10 11  1  0
  7 12  1  0
 11 12  1  0
  5 13  2  0
 13 14  1  0
  3 15  1  0
 14 15  2  0
 14 16  1  0
 16 17  1  0
 17 18  1  0
 18 19  1  0
 18 20  1  0
 16 21  2  0
 13 22  1  0
 21 22  1  0
 22 23  1  0
 23 24  1  0
 24 25  1  0
 25 26  1  0
 26 27  1  0
 27 28  1  0
 24 29  1  0
 28 29  1  0
M  END
