DAR-DIA-fb20be43-7-acrylamide
     RDKit          3D

 23 25  0  0  0  0  0  0  0  0999 V2000
    7.9430   -3.3340   19.1850 C   0  0  0  0  0  0  0  0  0  0  0  0
    6.7790   -2.4400   18.8720 C   0  0  0  0  0  0  0  0  0  0  0  0
    5.9340   -2.5360   20.0850 C   0  0  0  0  0  0  0  0  0  0  0  0
    4.8770   -3.1740   20.0910 O   0  0  0  0  0  0  0  0  0  0  0  0
    6.4580   -1.9220   21.2050 N   0  0  0  0  0  0  0  0  0  0  0  0
    7.6140   -1.0110   21.1310 C   0  0  0  0  0  0  0  0  0  0  0  0
    8.7640   -1.4140   22.0460 C   0  0  0  0  0  0  0  0  0  0  0  0
    8.5730   -2.0350   23.1890 N   0  0  0  0  0  0  0  0  0  0  0  0
    9.8120   -2.3830   23.6660 C   0  0  0  0  0  0  0  0  0  0  0  0
   10.7230   -1.3650   23.4840 C   0  0  0  0  0  0  0  0  0  0  0  0
   11.9000   -1.6980   22.8890 C   0  0  0  0  0  0  0  0  0  0  0  0
   12.8430   -0.7430   22.6600 C   0  0  0  0  0  0  0  0  0  0  0  0
   13.8070   -1.4430   22.0810 O   0  0  0  0  0  0  0  0  0  0  0  0
   13.3820   -1.9080   20.8870 C   0  0  0  0  0  0  0  0  0  0  0  0
   12.7130    0.5850   22.9790 C   0  0  0  0  0  0  0  0  0  0  0  0
   11.5180    0.9710   23.5860 C   0  0  0  0  0  0  0  0  0  0  0  0
   11.2660    2.2940   23.9300 C   0  0  0  0  0  0  0  0  0  0  0  0
   10.0110    2.7200   24.5820 C   0  0  0  0  0  0  0  0  0  0  0  0
    9.0670    1.7500   24.8600 C   0  0  0  0  0  0  0  0  0  0  0  0
    9.3170    0.4330   24.5030 C   0  0  0  0  0  0  0  0  0  0  0  0
   10.5010   -0.0060   23.8660 C   0  0  0  0  0  0  0  0  0  0  0  0
    7.6430   -3.1420   23.0010 C   0  0  0  0  0  0  0  0  0  0  0  0
    6.2420   -2.6070   22.5130 C   0  0  0  0  0  0  0  0  0  0  0  0
  1  2  1  0
  2  3  1  0
  3  4  2  0
  3  5  1  0
  5  6  1  0
  6  7  1  0
  7  8  1  0
  8  9  1  0
  9 10  1  0
 10 11  2  0
 11 12  1  0
 12 13  1  0
 13 14  1  0
 12 15  2  0
 15 16  1  0
 16 17  1  0
 17 18  2  0
 18 19  1  0
 19 20  2  0
 10 21  1  0
 16 21  2  0
 20 21  1  0
  8 22  1  0
  5 23  1  0
 22 23  1  0
M  END
