DAR-DIA-2b784ede-18-vinylsulfonamide
     RDKit          3D

 38 41  0  0  0  0  0  0  0  0999 V2000
    8.2020   -4.0990   20.5840 C   0  0  0  0  0  0  0  0  0  0  0  0
    6.6830   -3.9600   20.5130 C   0  0  0  0  0  0  0  0  0  0  0  0
    6.1420   -4.6440   22.0560 S   0  0  0  0  0  0  0  0  0  0  0  0
    4.7080   -4.6290   22.1780 O   0  0  0  0  0  0  0  0  0  0  0  0
    6.8670   -5.8910   22.2350 O   0  0  0  0  0  0  0  0  0  0  0  0
    6.7840   -3.4730   23.0630 N   0  0  0  0  0  0  0  0  0  0  0  0
    6.3490   -2.1340   22.8410 C   0  0  0  0  0  0  0  0  0  0  0  0
    5.4670   -1.4390   23.7510 C   0  0  0  0  0  0  0  0  0  0  0  0
    5.2120   -0.1800   23.2670 C   0  0  0  0  0  0  0  0  0  0  0  0
    5.6500    0.5370   22.0580 C   0  0  0  0  0  0  0  0  0  0  0  0
    5.1480    1.9630   21.8390 C   0  0  0  0  0  0  0  0  0  0  0  0
    5.7370    3.0180   23.1860 Cl  0  0  0  0  0  0  0  0  0  0  0  0
    3.6170    2.0060   21.7560 C   0  0  0  0  0  0  0  0  0  0  0  0
    3.3080    1.5200   20.3420 C   0  0  0  0  0  0  0  0  0  0  0  0
    4.5140    1.9310   19.4750 C   0  0  0  0  0  0  0  0  0  0  0  0
    5.5140    2.5640   20.4720 C   0  0  0  0  0  0  0  0  0  0  0  0
    6.4590   -0.0880   21.2170 N   0  0  0  0  0  0  0  0  0  0  0  0
    6.7980   -1.4730   21.6620 C   0  0  0  0  0  0  0  0  0  0  0  0
    8.1090   -3.6990   23.7290 C   0  0  1  0  0  0  0  0  0  0  0  0
    9.0700   -2.7710   23.2740 C   0  0  0  0  0  0  0  0  0  0  0  0
    8.7680   -1.7690   22.6290 O   0  0  0  0  0  0  0  0  0  0  0  0
   10.3760   -3.0160   23.5670 N   0  0  0  0  0  0  0  0  0  0  0  0
   11.3510   -2.1610   22.9600 C   0  0  0  0  0  0  0  0  0  0  0  0
   12.2610   -1.1320   22.5050 C   0  0  0  0  0  0  0  0  0  0  0  0
   13.0990   -1.6240   21.4020 C   0  0  0  0  0  0  0  0  0  0  0  0
   12.5780    0.2050   22.8170 C   0  0  0  0  0  0  0  0  0  0  0  0
   11.9020    0.9230   23.8640 C   0  0  0  0  0  0  0  0  0  0  0  0
   10.9260    0.0350   24.4830 C   0  0  0  0  0  0  0  0  0  0  0  0
   10.7270   -1.3740   24.0230 C   0  0  0  0  0  0  0  0  0  0  0  0
    9.7430   -1.9130   24.8520 C   0  0  0  0  0  0  0  0  0  0  0  0
   10.3340   -3.0490   25.4470 C   0  0  0  0  0  0  0  0  0  0  0  0
    7.9400   -3.9690   25.2390 C   0  0  0  0  0  0  0  0  0  0  0  0
    6.9300   -3.2260   25.9010 C   0  0  0  0  0  0  0  0  0  0  0  0
    6.5770   -3.2840   27.2210 N   0  0  0  0  0  0  0  0  0  0  0  0
    7.2550   -4.1350   28.0030 C   0  0  0  0  0  0  0  0  0  0  0  0
    8.2800   -4.9390   27.5100 C   0  0  0  0  0  0  0  0  0  0  0  0
    8.6560   -4.8690   26.0640 C   0  0  0  0  0  0  0  0  0  0  0  0
    9.7740   -5.7870   25.6640 C   0  0  0  0  0  0  0  0  0  0  0  0
  1  2  1  0
  2  3  1  0
  3  4  2  0
  3  5  2  0
  3  6  1  0
  6  7  1  0
  7  8  2  0
  8  9  1  0
  9 10  2  0
 10 11  1  0
 11 12  1  0
 11 13  1  0
 13 14  1  0
 14 15  1  0
 11 16  1  0
 15 16  1  0
 10 17  1  0
  7 18  1  0
 17 18  2  0
  6 19  1  0
 19 20  1  1
 20 21  2  0
 20 22  1  0
 22 23  1  0
 23 24  2  0
 24 25  1  0
 24 26  1  0
 26 27  2  0
 27 28  1  0
 23 29  1  0
 28 29  2  0
 29 30  1  0
 30 31  1  0
 19 32  1  0
 32 33  2  0
 33 34  1  0
 34 35  2  0
 35 36  1  0
 32 37  1  0
 36 37  2  0
 37 38  1  0
M  END
