DAR-DIA-eace69ff-10
     RDKit          3D

 30 33  0  0  0  0  0  0  0  0999 V2000
   13.3050   -2.0770   20.9080 C   0  0  0  0  0  0  0  0  0  0  0  0
   13.1960   -1.9570   22.3800 C   0  0  0  0  0  0  0  0  0  0  0  0
   12.3850   -0.7570   22.7920 C   0  0  0  0  0  0  0  0  0  0  0  0
   11.1980   -1.2610   23.2750 C   0  0  0  0  0  0  0  0  0  0  0  0
   10.1590   -0.4680   23.7480 C   0  0  0  0  0  0  0  0  0  0  0  0
    8.9170   -1.0390   24.2490 C   0  0  0  0  0  0  0  0  0  0  0  0
    8.8550   -2.3610   24.7940 C   0  0  0  0  0  0  0  0  0  0  0  0
    9.2310   -3.4310   23.9400 C   0  0  0  0  0  0  0  0  0  0  0  0
    8.0410   -4.2690   23.5680 C   0  0  0  0  0  0  0  0  0  0  0  0
    7.2740   -3.1760   23.0490 C   0  0  0  0  0  0  0  0  0  0  0  0
    7.2200   -2.0210   22.9030 C   0  0  0  0  0  0  0  0  0  0  0  0
    7.8010   -0.7780   23.2060 C   0  0  0  0  0  0  0  0  0  0  0  0
   10.4580    0.9270   23.6760 C   0  0  0  0  0  0  0  0  0  0  0  0
   11.6550    1.4280   23.1830 C   0  0  0  0  0  0  0  0  0  0  0  0
   12.6580    0.6030   22.7340 C   0  0  0  0  0  0  0  0  0  0  0  0
   11.7170    2.9490   23.1910 C   0  0  0  0  0  0  0  0  0  0  0  0
   12.6590    3.9120   22.7900 C   0  0  0  0  0  0  0  0  0  0  0  0
   12.2170    5.2840   23.1730 N   0  0  0  0  0  0  0  0  0  0  0  0
   12.0860    5.5450   24.6000 C   0  0  0  0  0  0  0  0  0  0  0  0
   10.9420    5.6300   22.5930 C   0  0  0  0  0  0  0  0  0  0  0  0
   10.4970    3.2150   23.7380 C   0  0  0  0  0  0  0  0  0  0  0  0
    9.7560    2.0830   24.0270 N   0  0  0  0  0  0  0  0  0  0  0  0
    8.4310    2.2230   24.6190 C   0  0  0  0  0  0  0  0  0  0  0  0
    7.4070    1.8100   24.0840 O   0  0  0  0  0  0  0  0  0  0  0  0
    8.4220    2.8930   25.8450 C   0  0  0  0  0  0  0  0  0  0  0  0
    8.9390    4.2920   25.9370 C   0  0  0  0  0  0  0  0  0  0  0  0
    8.9030    4.9450   27.3140 C   0  0  0  0  0  0  0  0  0  0  0  0
    8.3880    4.2300   28.4590 C   0  0  0  0  0  0  0  0  0  0  0  0
    7.8670    2.8020   28.3120 C   0  0  0  0  0  0  0  0  0  0  0  0
    7.9300    2.2150   26.9360 C   0  0  0  0  0  0  0  0  0  0  0  0
  1  2  1  0
  2  3  1  0
  3  4  2  0
  4  5  1  0
  5  6  1  0
  6  7  1  0
  7  8  1  0
  8  9  1  0
  9 10  1  0
 10 11  1  0
  6 12  1  0
 11 12  1  0
  5 13  2  0
 13 14  1  0
  3 15  1  0
 14 15  2  0
 14 16  1  0
 16 17  1  0
 17 18  1  0
 18 19  1  0
 18 20  1  0
 16 21  2  0
 13 22  1  0
 21 22  1  0
 22 23  1  0
 23 24  2  0
 23 25  1  0
 25 26  2  0
 26 27  1  0
 27 28  2  0
 28 29  1  0
 25 30  1  0
 29 30  2  0
M  END
