DAR-DIA-2b784ede-50-acrylamide
     RDKit          3D

 35 37  0  0  0  0  0  0  0  0999 V2000
    7.5660   -3.0290   18.7980 C   0  0  0  0  0  0  0  0  0  0  0  0
    6.2710   -3.4630   19.5040 C   0  0  0  0  0  0  0  0  0  0  0  0
    5.8470   -2.6270   20.6890 C   0  0  0  0  0  0  0  0  0  0  0  0
    4.7680   -2.9860   21.2240 O   0  0  0  0  0  0  0  0  0  0  0  0
    6.6780   -1.5630   21.1920 N   0  0  0  0  0  0  0  0  0  0  0  0
    7.6730   -1.0320   20.2070 C   0  0  0  0  0  0  0  0  0  0  0  0
    6.7040   -0.0080   20.1460 C   0  0  0  0  0  0  0  0  0  0  0  0
    5.9310   -0.5100   21.0170 C   0  0  0  0  0  0  0  0  0  0  0  0
    4.7360   -0.0160   21.5080 C   0  0  0  0  0  0  0  0  0  0  0  0
    3.8650    0.4100   20.5100 C   0  0  0  0  0  0  0  0  0  0  0  0
    5.1390    1.3110   22.1720 C   0  0  0  0  0  0  0  0  0  0  0  0
    4.2740   -0.7470   22.6220 C   0  0  0  0  0  0  0  0  0  0  0  0
    6.5840   -1.7250   21.4050 N   0  0  0  0  0  0  0  0  0  0  0  0
    7.9580   -2.1270   20.7730 N   0  0  0  0  0  0  0  0  0  0  0  0
    7.3230   -1.9080   22.4100 C   0  0  2  0  0  0  0  0  0  0  0  0
    8.6970   -1.4960   22.3300 C   0  0  0  0  0  0  0  0  0  0  0  0
    8.9660   -0.3180   22.1030 O   0  0  0  0  0  0  0  0  0  0  0  0
    9.6660   -2.3620   22.5010 N   0  0  0  0  0  0  0  0  0  0  0  0
   10.9130   -1.8040   22.4420 C   0  0  0  0  0  0  0  0  0  0  0  0
   12.0960   -1.1750   22.8450 C   0  0  0  0  0  0  0  0  0  0  0  0
   13.1130   -0.8850   22.0110 C   0  0  0  0  0  0  0  0  0  0  0  0
   13.2050   -1.7450   20.9890 C   0  0  0  0  0  0  0  0  0  0  0  0
   12.7660   -0.6260   23.9800 C   0  0  0  0  0  0  0  0  0  0  0  0
   12.2290   -0.6000   25.3160 C   0  0  0  0  0  0  0  0  0  0  0  0
   10.8750   -1.2690   25.2080 C   0  0  0  0  0  0  0  0  0  0  0  0
   10.4460   -1.7550   23.8200 C   0  0  0  0  0  0  0  0  0  0  0  0
    9.1360   -2.2790   24.4550 C   0  0  0  0  0  0  0  0  0  0  0  0
    9.4980   -3.5700   25.2490 C   0  0  0  0  0  0  0  0  0  0  0  0
    8.4970   -3.9240   26.1980 O   0  0  0  0  0  0  0  0  0  0  0  0
    6.9870   -3.4070   22.5770 C   0  0  0  0  0  0  0  0  0  0  0  0
    5.6410   -3.7840   23.0490 C   0  0  0  0  0  0  0  0  0  0  0  0
    5.2660   -5.2200   23.1980 C   0  0  0  0  0  0  0  0  0  0  0  0
    6.3270   -6.2440   22.8480 C   0  0  0  0  0  0  0  0  0  0  0  0
    7.5510   -5.8460   22.4280 N   0  0  0  0  0  0  0  0  0  0  0  0
    7.8450   -4.4920   22.3050 C   0  0  0  0  0  0  0  0  0  0  0  0
  1  2  1  0
  2  3  1  0
  3  4  2  0
  3  5  1  0
  5  6  1  0
  6  7  2  0
  7  8  1  0
  8  9  1  0
  9 10  1  0
  9 11  1  0
  9 12  1  0
  8 13  2  0
  6 14  1  0
 13 14  1  0
  5 15  1  0
 15 16  1  6
 16 17  2  0
 16 18  1  0
 18 19  1  0
 19 20  2  0
 20 21  1  0
 21 22  1  0
 20 23  1  0
 23 24  2  0
 24 25  1  0
 19 26  1  0
 25 26  2  0
 26 27  1  0
 27 28  1  0
 28 29  1  0
 15 30  1  0
 30 31  2  0
 31 32  1  0
 32 33  2  0
 33 34  1  0
 30 35  1  0
 34 35  2  0
M  END
