DAR-DIA-2b784ede-42-vinylsulfonamide
     RDKit          3D

 35 37  0  0  0  0  0  0  0  0999 V2000
    6.9630   -4.2040   20.3680 C   0  0  0  0  0  0  0  0  0  0  0  0
    7.3860   -4.2120   21.8530 C   0  0  0  0  0  0  0  0  0  0  0  0
    5.9040   -3.9620   22.8040 S   0  0  0  0  0  0  0  0  0  0  0  0
    4.9220   -4.5540   21.9450 O   0  0  0  0  0  0  0  0  0  0  0  0
    6.1400   -4.4970   24.1320 O   0  0  0  0  0  0  0  0  0  0  0  0
    5.6010   -2.2590   22.9170 N   0  0  0  0  0  0  0  0  0  0  0  0
    4.8600   -1.7720   21.7890 C   0  0  0  0  0  0  0  0  0  0  0  0
    4.3340   -1.2980   23.0360 C   0  0  0  0  0  0  0  0  0  0  0  0
    5.2440   -1.9720   23.9880 C   0  0  0  0  0  0  0  0  0  0  0  0
    5.1740   -1.8720   25.5350 C   0  0  0  0  0  0  0  0  0  0  0  0
    3.7430   -1.5650   25.9930 C   0  0  0  0  0  0  0  0  0  0  0  0
    6.0480   -0.7240   26.0840 C   0  0  0  0  0  0  0  0  0  0  0  0
    5.5600   -3.1960   26.2350 C   0  0  0  0  0  0  0  0  0  0  0  0
    5.8160   -4.1760   26.8070 N   0  0  0  0  0  0  0  0  0  0  0  0
    6.2010   -2.7510   23.1670 N   0  0  0  0  0  0  0  0  0  0  0  0
    5.8870   -2.5750   21.7520 N   0  0  0  0  0  0  0  0  0  0  0  0
    6.8440   -1.4170   22.9610 C   0  0  1  0  0  0  0  0  0  0  0  0
    8.0140   -2.1460   23.1770 C   0  0  0  0  0  0  0  0  0  0  0  0
    8.0390   -3.1970   23.8290 O   0  0  0  0  0  0  0  0  0  0  0  0
    9.1270   -1.5600   22.6330 N   0  0  0  0  0  0  0  0  0  0  0  0
   10.1700   -1.2670   23.4880 C   0  0  0  0  0  0  0  0  0  0  0  0
    9.9050   -0.8150   24.7350 C   0  0  0  0  0  0  0  0  0  0  0  0
    8.4460   -0.6260   25.1370 C   0  0  0  0  0  0  0  0  0  0  0  0
   10.8900   -0.5460   25.5940 C   0  0  0  0  0  0  0  0  0  0  0  0
   12.3370   -0.7440   25.1540 C   0  0  0  0  0  0  0  0  0  0  0  0
   12.5750   -1.1950   23.8780 C   0  0  0  0  0  0  0  0  0  0  0  0
   11.4900   -1.4560   23.0450 C   0  0  0  0  0  0  0  0  0  0  0  0
   11.7380   -1.9520   21.6430 C   0  0  0  0  0  0  0  0  0  0  0  0
   13.2460   -1.9540   21.3060 C   0  0  0  0  0  0  0  0  0  0  0  0
    6.8780   -0.6400   21.6350 C   0  0  0  0  0  0  0  0  0  0  0  0
    7.3650   -1.3710   20.3630 C   0  0  0  0  0  0  0  0  0  0  0  0
    7.1830   -0.2780   19.4720 C   0  0  0  0  0  0  0  0  0  0  0  0
    6.7370    1.0300   19.5980 C   0  0  0  0  0  0  0  0  0  0  0  0
    6.3510    1.5650   20.7320 N   0  0  0  0  0  0  0  0  0  0  0  0
    6.4360    0.6920   21.7260 C   0  0  0  0  0  0  0  0  0  0  0  0
  1  2  1  0
  2  3  1  0
  3  4  2  0
  3  5  2  0
  3  6  1  0
  6  7  1  0
  7  8  2  0
  8  9  1  0
  9 10  1  0
 10 11  1  0
 10 12  1  0
 10 13  1  0
 13 14  3  0
  9 15  2  0
  7 16  1  0
 15 16  1  0
  6 17  1  0
 17 18  1  6
 18 19  2  0
 18 20  1  0
 20 21  1  0
 21 22  2  0
 22 23  1  0
 22 24  1  0
 24 25  2  0
 25 26  1  0
 21 27  1  0
 26 27  2  0
 27 28  1  0
 28 29  1  0
 17 30  1  0
 30 31  2  0
 31 32  1  0
 32 33  2  0
 33 34  1  0
 30 35  1  0
 34 35  2  0
M  END
