DAR-DIA-2b784ede-2-nitrile
     RDKit          3D

 24 25  0  0  0  0  0  0  0  0999 V2000
    6.8610   -3.4340   19.9370 C   0  0  0  0  0  0  0  0  0  0  0  0
    5.8100   -4.1820   19.7890 N   0  0  0  0  0  0  0  0  0  0  0  0
    6.7010   -2.1970   20.8270 N   0  0  0  0  0  0  0  0  0  0  0  0
    5.4300   -2.0460   21.6160 C   0  0  0  0  0  0  0  0  0  0  0  0
    5.0060   -1.0930   20.8160 C   0  0  0  0  0  0  0  0  0  0  0  0
    5.6260   -0.5610   19.7800 C   0  0  0  0  0  0  0  0  0  0  0  0
    6.8420   -1.3280   19.8620 C   0  0  0  0  0  0  0  0  0  0  0  0
    6.6930   -0.2920   18.7700 C   0  0  0  0  0  0  0  0  0  0  0  0
    5.9870    0.8950   19.0170 C   0  0  0  0  0  0  0  0  0  0  0  0
    5.2770    2.0280   19.2530 N   0  0  0  0  0  0  0  0  0  0  0  0
    6.8390   -2.3040   20.9810 N   0  0  0  0  0  0  0  0  0  0  0  0
    6.1910   -2.8940   22.0620 C   0  0  0  0  0  0  0  0  0  0  0  0
    7.7440   -1.2140   21.4310 C   0  0  1  0  0  0  0  0  0  0  0  0
    7.0100   -0.2080   22.3840 C   0  0  0  0  0  0  0  0  0  0  0  0
    6.1020   -0.5980   23.1290 O   0  0  0  0  0  0  0  0  0  0  0  0
    7.4120    1.1170   22.3940 N   0  0  0  0  0  0  0  0  0  0  0  0
    8.2220    1.6320   21.3200 C   0  0  0  0  0  0  0  0  0  0  0  0
    8.9860   -1.7440   22.1980 C   0  0  0  0  0  0  0  0  0  0  0  0
   10.2400   -0.8730   21.9140 C   0  0  0  0  0  0  0  0  0  0  0  0
   11.2040   -1.4870   22.6950 N   0  0  0  0  0  0  0  0  0  0  0  0
   11.1430   -2.5420   23.4990 C   0  0  0  0  0  0  0  0  0  0  0  0
   10.0410   -3.2600   23.7100 C   0  0  0  0  0  0  0  0  0  0  0  0
    8.9260   -2.8790   23.0610 C   0  0  0  0  0  0  0  0  0  0  0  0
    7.7660   -3.6340   23.2870 C   0  0  0  0  0  0  0  0  0  0  0  0
  1  2  2  3
  1  3  1  0
  3  4  1  0
  4  5  2  0
  5  6  1  0
  6  7  2  0
  7  8  1  0
  8  9  1  0
  9 10  3  0
  7 11  1  0
  4 12  1  0
 11 12  2  0
  3 13  1  0
 13 14  1  1
 14 15  2  0
 14 16  1  0
 16 17  1  0
 13 18  1  0
 18 19  2  0
 19 20  1  0
 20 21  2  0
 21 22  1  0
 18 23  1  0
 22 23  2  0
 23 24  1  0
M  END
