DAR-DIA-eace69ff-1
     RDKit          3D

 31 34  0  0  0  0  0  0  0  0999 V2000
   13.6220   -2.7380   23.4180 C   0  0  0  0  0  0  0  0  0  0  0  0
   13.2460   -1.9260   22.2160 C   0  0  0  0  0  0  0  0  0  0  0  0
   12.4280   -0.7770   22.6970 C   0  0  0  0  0  0  0  0  0  0  0  0
   11.3270   -1.4060   23.2210 C   0  0  0  0  0  0  0  0  0  0  0  0
   10.2660   -0.7650   23.8130 C   0  0  0  0  0  0  0  0  0  0  0  0
    9.2960   -1.3850   24.2780 O   0  0  0  0  0  0  0  0  0  0  0  0
    9.5640   -2.3030   25.3660 C   0  0  0  0  0  0  0  0  0  0  0  0
    8.3100   -2.7940   25.8110 C   0  0  0  0  0  0  0  0  0  0  0  0
    8.3760   -3.6870   26.9300 C   0  0  0  0  0  0  0  0  0  0  0  0
    9.3940   -4.7750   26.7910 C   0  0  0  0  0  0  0  0  0  0  0  0
   10.2060   -4.2110   25.7390 C   0  0  0  0  0  0  0  0  0  0  0  0
   10.4670   -3.3090   25.0300 C   0  0  0  0  0  0  0  0  0  0  0  0
   10.4520    0.7800   23.8100 C   0  0  0  0  0  0  0  0  0  0  0  0
   11.5910    1.3290   23.2550 C   0  0  0  0  0  0  0  0  0  0  0  0
   12.6100    0.5910   22.6950 C   0  0  0  0  0  0  0  0  0  0  0  0
   11.6110    2.8450   23.3180 C   0  0  0  0  0  0  0  0  0  0  0  0
   12.5760    3.9550   22.8620 C   0  0  0  0  0  0  0  0  0  0  0  0
   12.1250    5.3250   23.1900 N   0  0  0  0  0  0  0  0  0  0  0  0
   10.8450    5.6460   22.6200 C   0  0  0  0  0  0  0  0  0  0  0  0
   12.0680    5.6900   24.6010 C   0  0  0  0  0  0  0  0  0  0  0  0
   10.3870    3.1090   23.9700 C   0  0  0  0  0  0  0  0  0  0  0  0
    9.7350    1.8960   24.2460 N   0  0  0  0  0  0  0  0  0  0  0  0
    8.2080    1.8810   25.0370 S   0  0  0  0  0  0  0  0  0  0  0  0
    7.3170    1.1100   24.2000 O   0  0  0  0  0  0  0  0  0  0  0  0
    8.5000    1.5170   26.3970 O   0  0  0  0  0  0  0  0  0  0  0  0
    7.5320    3.4260   25.0430 N   0  0  0  0  0  0  0  0  0  0  0  0
    7.0750    3.8670   23.8110 C   0  0  0  0  0  0  0  0  0  0  0  0
    5.5890    4.2290   23.8320 C   0  0  0  0  0  0  0  0  0  0  0  0
    5.1130    4.9800   24.9050 C   0  0  0  0  0  0  0  0  0  0  0  0
    5.9320    5.0190   26.1660 C   0  0  0  0  0  0  0  0  0  0  0  0
    6.6230    3.6710   26.2070 C   0  0  0  0  0  0  0  0  0  0  0  0
  1  2  1  0
  2  3  1  0
  3  4  2  0
  4  5  1  0
  5  6  1  0
  6  7  1  0
  7  8  1  0
  8  9  1  0
  9 10  1  0
 10 11  1  0
  7 12  1  0
 11 12  1  0
  5 13  2  0
 13 14  1  0
  3 15  1  0
 14 15  2  0
 14 16  1  0
 16 17  1  0
 17 18  1  0
 18 19  1  0
 18 20  1  0
 16 21  2  0
 13 22  1  0
 21 22  1  0
 23 22  1  0
 23 24  2  0
 23 25  2  0
 23 26  1  0
 26 27  1  0
 27 28  1  0
 28 29  1  0
 29 30  1  0
 26 31  1  0
 30 31  1  0
M  END
