DAR-DIA-23aa0b97-10-vinylsulfonamide
     RDKit          3D

 24 26  0  0  0  0  0  0  0  0999 V2000
    6.0880   -5.9170   21.3510 C   0  0  0  0  0  0  0  0  0  0  0  0
    6.5770   -5.5130   22.7380 C   0  0  0  0  0  0  0  0  0  0  0  0
    5.7630   -3.9670   23.0790 S   0  0  0  0  0  0  0  0  0  0  0  0
    4.7740   -3.7180   22.0130 O   0  0  0  0  0  0  0  0  0  0  0  0
    5.3200   -4.0490   24.4650 O   0  0  0  0  0  0  0  0  0  0  0  0
    7.1380   -2.7830   23.0230 C   0  0  0  0  0  0  0  0  0  0  0  0
    7.7510   -4.1630   23.3670 C   0  0  0  0  0  0  0  0  0  0  0  0
    6.7530   -3.4660   23.1080 N   0  0  0  0  0  0  0  0  0  0  0  0
    7.8850   -2.4720   23.0550 C   0  0  0  0  0  0  0  0  0  0  0  0
    7.0230   -1.3270   22.7280 C   0  0  0  0  0  0  0  0  0  0  0  0
    7.4550   -0.0230   22.5300 N   0  0  0  0  0  0  0  0  0  0  0  0
    7.9260    0.5160   21.3230 C   0  0  0  0  0  0  0  0  0  0  0  0
    8.6290    1.5410   21.2270 O   0  0  0  0  0  0  0  0  0  0  0  0
    7.4920   -0.2450   20.2990 N   0  0  0  0  0  0  0  0  0  0  0  0
    6.4600    0.3320   19.4920 C   0  0  0  0  0  0  0  0  0  0  0  0
    5.8020    0.1270   18.3880 C   0  0  0  0  0  0  0  0  0  0  0  0
    4.7490    1.1400   17.9980 N   0  0  0  0  0  0  0  0  0  0  0  0
    5.2950    0.2310   17.8070 C   0  0  0  0  0  0  0  0  0  0  0  0
    6.2560   -0.3690   18.5020 N   0  0  0  0  0  0  0  0  0  0  0  0
    5.9340    0.7560   19.2200 C   0  0  0  0  0  0  0  0  0  0  0  0
    6.1030    1.6060   20.3270 C   0  0  0  0  0  0  0  0  0  0  0  0
    5.1330    2.5060   19.9350 C   0  0  0  0  0  0  0  0  0  0  0  0
    5.5780    1.2210   19.2110 C   0  0  0  0  0  0  0  0  0  0  0  0
    5.9270   -1.9500   22.7100 C   0  0  0  0  0  0  0  0  0  0  0  0
  1  2  1  0
  3  2  1  0
  3  4  2  0
  3  5  2  0
  3  6  1  0
  6  7  2  0
  7  8  1  0
  8  9  2  0
  9 10  1  0
 10 11  1  0
 11 12  1  0
 12 13  2  0
 12 14  1  0
 14 15  1  0
 15 16  2  0
 16 17  1  0
 17 18  1  0
 18 19  1  0
 19 20  2  0
 20 21  1  0
 21 22  2  0
 15 23  1  0
 18 23  2  0
 22 23  1  0
  6 24  1  0
 10 24  2  0
M  END
