DAR-DIA-caba39e3-7-vinylsulfonamide
     RDKit          3D

 26 29  0  0  0  0  0  0  0  0999 V2000
    6.4380   -5.3760   20.1210 C   0  0  0  0  0  0  0  0  0  0  0  0
    7.0060   -4.2370   20.8650 C   0  0  0  0  0  0  0  0  0  0  0  0
    6.2300   -2.7890   20.3080 S   0  0  0  0  0  0  0  0  0  0  0  0
    4.8190   -3.0320   20.2790 O   0  0  0  0  0  0  0  0  0  0  0  0
    6.9640   -2.3100   19.1570 O   0  0  0  0  0  0  0  0  0  0  0  0
    6.6990   -1.9900   21.6900 N   0  0  0  0  0  0  0  0  0  0  0  0
    6.2970   -2.6620   22.9140 C   0  0  0  0  0  0  0  0  0  0  0  0
    7.2170   -3.3310   23.7250 C   0  0  0  0  0  0  0  0  0  0  0  0
    6.8310   -4.2200   24.7160 C   0  0  0  0  0  0  0  0  0  0  0  0
    7.8060   -4.9260   25.5820 C   0  0  0  0  0  0  0  0  0  0  0  0
    9.1570   -4.6600   25.3730 C   0  0  0  0  0  0  0  0  0  0  0  0
    9.5830   -3.7590   24.3740 C   0  0  0  0  0  0  0  0  0  0  0  0
    8.5800   -3.1450   23.5880 C   0  0  0  0  0  0  0  0  0  0  0  0
    9.1260   -2.2110   22.5000 C   0  0  2  0  0  0  0  0  0  0  0  0
   10.2070   -1.1710   22.7950 C   0  0  0  0  0  0  0  0  0  0  0  0
   11.5570   -1.3860   22.5100 C   0  0  0  0  0  0  0  0  0  0  0  0
   12.5080   -0.2970   22.8100 C   0  0  0  0  0  0  0  0  0  0  0  0
   13.7790   -0.4750   22.5460 F   0  0  0  0  0  0  0  0  0  0  0  0
   12.0600    0.9070   23.3570 C   0  0  0  0  0  0  0  0  0  0  0  0
   10.7290    1.1300   23.6400 C   0  0  0  0  0  0  0  0  0  0  0  0
   10.2780    2.3190   24.1660 C   0  0  0  0  0  0  0  0  0  0  0  0
    8.9490    2.6460   24.4920 C   0  0  0  0  0  0  0  0  0  0  0  0
    7.8520    1.6490   24.2740 C   0  0  0  0  0  0  0  0  0  0  0  0
    8.2890    0.3220   23.6890 C   0  0  0  0  0  0  0  0  0  0  0  0
    9.7420    0.0250   23.3510 C   0  0  0  0  0  0  0  0  0  0  0  0
    8.0990   -1.5860   21.5430 C   0  0  0  0  0  0  0  0  0  0  0  0
  1  2  1  0
  3  2  1  0
  3  4  2  0
  3  5  2  0
  3  6  1  0
  6  7  1  0
  7  8  1  0
  8  9  1  0
  9 10  2  0
 10 11  1  0
 11 12  2  0
  8 13  2  0
 12 13  1  0
 13 14  1  0
 14 15  1  1
 15 16  2  0
 16 17  1  0
 17 18  1  0
 17 19  2  0
 19 20  1  0
 20 21  1  0
 21 22  2  0
 22 23  1  0
 23 24  2  0
 15 25  1  0
 20 25  2  0
 24 25  1  0
  6 26  1  0
 14 26  1  0
M  END
