DAR-DIA-2b784ede-44-chloroacetamide
     RDKit          3D

 32 35  0  0  0  0  0  0  0  0999 V2000
    7.5540   -2.9490   18.7080 C   0  0  0  0  0  0  0  0  0  0  0  0
    6.7170   -3.1330   19.9050 C   0  0  0  0  0  0  0  0  0  0  0  0
    5.7400   -3.9420   19.8070 O   0  0  0  0  0  0  0  0  0  0  0  0
    7.1730   -2.3460   21.0740 N   0  0  0  0  0  0  0  0  0  0  0  0
    7.8800   -3.0600   22.1120 C   0  0  1  0  0  0  0  0  0  0  0  0
    9.0330   -2.3610   22.3870 C   0  0  0  0  0  0  0  0  0  0  0  0
    9.2270   -2.3920   23.7460 C   0  0  0  0  0  0  0  0  0  0  0  0
    9.2450   -1.0650   24.4220 C   0  0  0  0  0  0  0  0  0  0  0  0
   10.5930   -0.7880   24.9160 C   0  0  0  0  0  0  0  0  0  0  0  0
   11.4100   -1.8350   24.6040 C   0  0  0  0  0  0  0  0  0  0  0  0
   10.6990   -2.8740   23.9920 C   0  0  0  0  0  0  0  0  0  0  0  0
    8.2780   -3.3290   24.2180 C   0  0  0  0  0  0  0  0  0  0  0  0
    7.1850   -3.3670   23.2160 N   0  0  0  0  0  0  0  0  0  0  0  0
    7.9060   -1.1110   20.8070 C   0  0  1  0  0  0  0  0  0  0  0  0
    7.0500    0.1190   21.0060 C   0  0  0  0  0  0  0  0  0  0  0  0
    7.6540    1.1730   20.7970 O   0  0  0  0  0  0  0  0  0  0  0  0
    5.7710    0.0980   21.3330 N   0  0  0  0  0  0  0  0  0  0  0  0
    5.0670    1.0090   20.4320 C   0  0  0  0  0  0  0  0  0  0  0  0
    4.2380    1.9400   21.0000 C   0  0  0  0  0  0  0  0  0  0  0  0
    3.9910    2.0890   22.4850 C   0  0  0  0  0  0  0  0  0  0  0  0
    3.5030    2.9130   20.0950 C   0  0  0  0  0  0  0  0  0  0  0  0
    3.7190    2.8100   18.7260 C   0  0  0  0  0  0  0  0  0  0  0  0
    4.5860    1.8320   18.2140 C   0  0  0  0  0  0  0  0  0  0  0  0
    5.2480    0.9420   19.0360 C   0  0  0  0  0  0  0  0  0  0  0  0
    6.0740    0.0150   18.4280 C   0  0  0  0  0  0  0  0  0  0  0  0
    7.0960    0.6000   18.1000 O   0  0  0  0  0  0  0  0  0  0  0  0
    9.1440   -0.7810   21.4730 C   0  0  0  0  0  0  0  0  0  0  0  0
   10.4020   -1.6500   21.6070 C   0  0  0  0  0  0  0  0  0  0  0  0
   11.5470   -1.2270   22.2410 C   0  0  0  0  0  0  0  0  0  0  0  0
   11.4830    0.1820   22.8200 C   0  0  0  0  0  0  0  0  0  0  0  0
   10.3750    0.9690   22.7230 N   0  0  0  0  0  0  0  0  0  0  0  0
    9.2770    0.4830   22.0750 C   0  0  0  0  0  0  0  0  0  0  0  0
  1  2  1  0
  2  3  2  0
  2  4  1  0
  5  4  1  6
  5  6  1  0
  7  6  1  0
  7  8  1  0
  8  9  1  0
  9 10  1  0
  7 11  1  0
 10 11  1  0
  7 12  1  0
  5 13  1  0
 12 13  1  0
  4 14  1  0
 14 15  1  1
 15 16  2  0
 15 17  1  0
 17 18  1  0
 18 19  2  0
 19 20  1  0
 19 21  1  0
 21 22  2  0
 22 23  1  0
 18 24  1  0
 23 24  2  0
 24 25  1  0
 25 26  1  0
 14 27  1  0
 27 28  2  0
 28 29  1  0
 29 30  2  0
 30 31  1  0
 27 32  1  0
 31 32  2  0
M  END
