DAR-DIA-eace69ff-31
     RDKit          3D

 21 23  0  0  0  0  0  0  0  0999 V2000
   13.2030    5.9920   22.6050 C   0  0  0  0  0  0  0  0  0  0  0  0
   12.2310    5.0620   23.1750 N   0  0  0  0  0  0  0  0  0  0  0  0
   10.9060    5.5770   22.8210 C   0  0  0  0  0  0  0  0  0  0  0  0
   12.5550    3.7080   22.7250 C   0  0  0  0  0  0  0  0  0  0  0  0
   11.7350    2.6940   23.2430 C   0  0  0  0  0  0  0  0  0  0  0  0
   10.6160    2.9140   24.0210 C   0  0  0  0  0  0  0  0  0  0  0  0
    9.9270    1.7040   24.4160 N   0  0  0  0  0  0  0  0  0  0  0  0
   10.7220    0.6520   23.8020 C   0  0  0  0  0  0  0  0  0  0  0  0
   10.3740   -0.6990   23.9340 C   0  0  0  0  0  0  0  0  0  0  0  0
    9.2950   -1.2650   24.6270 N   0  0  0  0  0  0  0  0  0  0  0  0
    8.9360   -0.6410   25.9380 C   0  0  0  0  0  0  0  0  0  0  0  0
    7.6850    0.1810   25.7740 C   0  0  0  0  0  0  0  0  0  0  0  0
    6.9050   -0.6660   24.8990 C   0  0  0  0  0  0  0  0  0  0  0  0
    6.9050   -1.6430   24.2580 C   0  0  0  0  0  0  0  0  0  0  0  0
    7.5990   -2.7550   23.7890 C   0  0  0  0  0  0  0  0  0  0  0  0
    8.9040   -2.6680   24.2760 C   0  0  0  0  0  0  0  0  0  0  0  0
   11.2480   -1.5570   23.2480 C   0  0  0  0  0  0  0  0  0  0  0  0
   12.3360   -1.1460   22.5340 C   0  0  0  0  0  0  0  0  0  0  0  0
   13.2760   -2.2760   21.7310 Cl  0  0  0  0  0  0  0  0  0  0  0  0
   12.6280    0.3390   22.4900 C   0  0  0  0  0  0  0  0  0  0  0  0
   11.8030    1.2370   23.1110 C   0  0  0  0  0  0  0  0  0  0  0  0
  1  2  1  0
  2  3  1  0
  2  4  1  0
  4  5  1  0
  5  6  2  0
  6  7  1  0
  7  8  1  0
  8  9  1  0
  9 10  1  0
 10 11  1  0
 11 12  1  0
 12 13  1  0
 13 14  1  0
 14 15  1  0
 10 16  1  0
 15 16  1  0
  9 17  2  0
 17 18  1  0
 18 19  1  0
 18 20  2  0
  5 21  1  0
  8 21  2  0
 20 21  1  0
M  END
