DAR-DIA-2b784ede-45-vinylsulfonamide
     RDKit          3D

 34 36  0  0  0  0  0  0  0  0999 V2000
    7.2210   -3.0260   18.6950 C   0  0  0  0  0  0  0  0  0  0  0  0
    5.9210   -3.3550   19.4610 C   0  0  0  0  0  0  0  0  0  0  0  0
    6.1150   -3.0990   21.1910 S   0  0  0  0  0  0  0  0  0  0  0  0
    4.7830   -3.3050   21.6910 O   0  0  0  0  0  0  0  0  0  0  0  0
    7.1480   -4.0140   21.6650 O   0  0  0  0  0  0  0  0  0  0  0  0
    6.6040   -1.4510   21.4150 N   0  0  0  0  0  0  0  0  0  0  0  0
    6.5960   -0.5700   20.1890 C   0  0  0  0  0  0  0  0  0  0  0  0
    5.6020    0.3800   20.2780 C   0  0  0  0  0  0  0  0  0  0  0  0
    5.7340   -0.4580   21.4240 C   0  0  0  0  0  0  0  0  0  0  0  0
    4.9220   -0.4120   22.7530 C   0  0  0  0  0  0  0  0  0  0  0  0
    5.5610    0.4530   23.8480 C   0  0  0  0  0  0  0  0  0  0  0  0
    4.6740   -1.7910   23.3770 C   0  0  0  0  0  0  0  0  0  0  0  0
    3.3350    0.3810   22.3950 Cl  0  0  0  0  0  0  0  0  0  0  0  0
    6.9620   -1.3430   20.8440 N   0  0  0  0  0  0  0  0  0  0  0  0
    7.3880   -0.8740   19.4590 N   0  0  0  0  0  0  0  0  0  0  0  0
    7.4770   -1.1570   22.6150 C   0  0  1  0  0  0  0  0  0  0  0  0
    8.3720   -2.2320   22.8860 C   0  0  0  0  0  0  0  0  0  0  0  0
    8.1090   -3.3820   22.5240 O   0  0  0  0  0  0  0  0  0  0  0  0
    9.5340   -1.9200   23.6010 N   0  0  0  0  0  0  0  0  0  0  0  0
   10.7610   -1.6890   22.9550 C   0  0  0  0  0  0  0  0  0  0  0  0
   10.4320   -0.5850   23.8500 C   0  0  0  0  0  0  0  0  0  0  0  0
    9.2590   -0.6800   24.5970 C   0  0  0  0  0  0  0  0  0  0  0  0
   11.0830    0.6190   24.1400 C   0  0  0  0  0  0  0  0  0  0  0  0
   12.3500    0.9390   23.4980 C   0  0  0  0  0  0  0  0  0  0  0  0
   12.8240   -0.0950   22.5860 C   0  0  0  0  0  0  0  0  0  0  0  0
   12.0600   -1.2500   22.3860 C   0  0  0  0  0  0  0  0  0  0  0  0
   12.6460   -2.1250   21.4850 C   0  0  0  0  0  0  0  0  0  0  0  0
   13.3570   -3.1200   22.2050 O   0  0  0  0  0  0  0  0  0  0  0  0
    7.9660    0.2980   22.6230 C   0  0  0  0  0  0  0  0  0  0  0  0
    8.1450    1.0900   23.9670 C   0  0  0  0  0  0  0  0  0  0  0  0
    8.6240    2.5200   23.8670 C   0  0  0  0  0  0  0  0  0  0  0  0
    8.8670    3.0110   22.4750 C   0  0  0  0  0  0  0  0  0  0  0  0
    8.6950    2.2970   21.3440 N   0  0  0  0  0  0  0  0  0  0  0  0
    8.2670    1.0060   21.4430 C   0  0  0  0  0  0  0  0  0  0  0  0
  1  2  1  0
  2  3  1  0
  3  4  2  0
  3  5  2  0
  3  6  1  0
  6  7  1  0
  7  8  2  0
  8  9  1  0
  9 10  1  0
 10 11  1  0
 10 12  1  0
 10 13  1  0
  9 14  2  0
  7 15  1  0
 14 15  1  0
  6 16  1  0
 16 17  1  6
 17 18  2  0
 17 19  1  0
 19 20  1  0
 20 21  2  0
 21 22  1  0
 21 23  1  0
 23 24  2  0
 24 25  1  0
 20 26  1  0
 25 26  2  0
 26 27  1  0
 27 28  1  0
 16 29  1  0
 29 30  2  0
 30 31  1  0
 31 32  2  0
 32 33  1  0
 29 34  1  0
 33 34  2  0
M  END
