DAR-DIA-23aa0b97-9-chloroacetamide
     RDKit          3D

 20 21  0  0  0  0  0  0  0  0999 V2000
    7.3490   -4.2240   20.7920 C   0  0  0  0  0  0  0  0  0  0  0  0
    8.3170   -3.2060   20.2120 C   0  0  0  0  0  0  0  0  0  0  0  0
    7.9540   -3.1740   18.9100 O   0  0  0  0  0  0  0  0  0  0  0  0
    9.3430   -2.3260   21.1960 C   0  0  0  0  0  0  0  0  0  0  0  0
   10.7700   -2.3130   21.5930 C   0  0  0  0  0  0  0  0  0  0  0  0
   11.3970   -1.4310   22.4890 N   0  0  0  0  0  0  0  0  0  0  0  0
   10.6060   -0.4860   23.0120 C   0  0  0  0  0  0  0  0  0  0  0  0
    9.2970   -0.4490   22.6510 C   0  0  0  0  0  0  0  0  0  0  0  0
    8.4520    0.4850   23.0580 N   0  0  0  0  0  0  0  0  0  0  0  0
    7.9660    0.9590   21.8630 C   0  0  0  0  0  0  0  0  0  0  0  0
    8.4200    1.9380   21.2630 O   0  0  0  0  0  0  0  0  0  0  0  0
    6.9490    0.1260   21.3880 N   0  0  0  0  0  0  0  0  0  0  0  0
    6.2250    0.4740   20.2550 C   0  0  0  0  0  0  0  0  0  0  0  0
    6.8280    0.2430   18.9140 C   0  0  0  0  0  0  0  0  0  0  0  0
    6.3030    0.5530   17.7300 N   0  0  0  0  0  0  0  0  0  0  0  0
    5.1000    1.1290   17.8330 C   0  0  0  0  0  0  0  0  0  0  0  0
    4.3810    1.3950   19.1120 C   0  0  0  0  0  0  0  0  0  0  0  0
    3.1310    1.9940   19.1170 N   0  0  0  0  0  0  0  0  0  0  0  0
    4.9810    1.0430   20.2960 C   0  0  0  0  0  0  0  0  0  0  0  0
    8.7040   -1.3320   21.7980 C   0  0  0  0  0  0  0  0  0  0  0  0
  1  2  1  0
  2  3  2  0
  2  4  1  0
  4  5  2  0
  5  6  1  0
  6  7  2  0
  7  8  1  0
  8  9  1  0
  9 10  1  0
 10 11  2  0
 10 12  1  0
 12 13  1  0
 13 14  2  0
 14 15  1  0
 15 16  2  0
 16 17  1  0
 17 18  1  0
 13 19  1  0
 17 19  2  0
  4 20  1  0
  8 20  2  0
M  END
