DAR-DIA-2b784ede-36-nitrile
     RDKit          3D

 33 35  0  0  0  0  0  0  0  0999 V2000
    7.3530   -3.4370   19.7260 C   0  0  0  0  0  0  0  0  0  0  0  0
    6.2730   -4.1840   19.8440 N   0  0  0  0  0  0  0  0  0  0  0  0
    7.1300   -2.0490   19.6260 N   0  0  0  0  0  0  0  0  0  0  0  0
    5.8620   -2.3030   19.0640 C   0  0  0  0  0  0  0  0  0  0  0  0
    5.1350   -1.8770   17.9710 C   0  0  0  0  0  0  0  0  0  0  0  0
    3.9460   -2.7260   18.0750 C   0  0  0  0  0  0  0  0  0  0  0  0
    1.3650   -3.5480   16.9240 C   0  0  0  0  0  0  0  0  0  0  0  0
   -0.1650   -3.5010   16.9640 C   0  0  0  0  0  0  0  0  0  0  0  0
    0.7690   -3.1660   15.4270 C   0  0  0  0  0  0  0  0  0  0  0  0
    0.8880   -4.9100   16.4030 C   0  0  0  0  0  0  0  0  0  0  0  0
    0.7110   -4.7780   14.9970 N   0  0  0  0  0  0  0  0  0  0  0  0
    4.1830   -3.4650   19.2120 O   0  0  0  0  0  0  0  0  0  0  0  0
    5.3190   -3.2300   19.8350 N   0  0  0  0  0  0  0  0  0  0  0  0
    7.1800   -1.3790   20.8350 C   0  0  1  0  0  0  0  0  0  0  0  0
    8.5260   -0.9420   21.3910 C   0  0  0  0  0  0  0  0  0  0  0  0
    8.8660    0.2320   21.2970 O   0  0  0  0  0  0  0  0  0  0  0  0
    9.3390   -1.8550   22.0560 N   0  0  0  0  0  0  0  0  0  0  0  0
   10.7470   -1.9330   21.9450 C   0  0  0  0  0  0  0  0  0  0  0  0
   10.4810   -1.7670   23.4810 C   0  0  0  0  0  0  0  0  0  0  0  0
    9.0080   -1.6560   23.8880 C   0  0  0  0  0  0  0  0  0  0  0  0
   11.1120   -1.6760   24.6920 C   0  0  0  0  0  0  0  0  0  0  0  0
   12.5550   -1.7720   24.5420 C   0  0  0  0  0  0  0  0  0  0  0  0
   13.0110   -1.9190   23.2850 C   0  0  0  0  0  0  0  0  0  0  0  0
   12.1790   -1.9820   22.1570 C   0  0  0  0  0  0  0  0  0  0  0  0
   12.9300   -2.1150   21.0170 C   0  0  0  0  0  0  0  0  0  0  0  0
   13.3310   -3.3940   20.7570 C   0  0  0  0  0  0  0  0  0  0  0  0
    6.4240   -0.1810   20.9010 C   0  0  0  0  0  0  0  0  0  0  0  0
    5.8570    0.2720   22.2580 C   0  0  0  0  0  0  0  0  0  0  0  0
    5.1240    1.3960   22.4560 N   0  0  0  0  0  0  0  0  0  0  0  0
    4.8720    2.1800   21.3770 C   0  0  0  0  0  0  0  0  0  0  0  0
    5.3100    1.9120   20.0900 C   0  0  0  0  0  0  0  0  0  0  0  0
    6.1400    0.6510   19.8350 C   0  0  0  0  0  0  0  0  0  0  0  0
    6.5970    0.4040   18.4150 C   0  0  0  0  0  0  0  0  0  0  0  0
  1  2  2  3
  1  3  1  0
  3  4  1  0
  4  5  1  0
  5  6  2  0
  6  7  1  0
  7  8  1  0
  7  9  1  0
  7 10  1  0
 10 11  3  0
  6 12  1  0
  4 13  2  0
 12 13  1  0
  3 14  1  0
 14 15  1  6
 15 16  2  0
 15 17  1  0
 17 18  1  0
 18 19  2  0
 19 20  1  0
 19 21  1  0
 21 22  2  0
 22 23  1  0
 18 24  1  0
 23 24  2  0
 24 25  1  0
 25 26  1  0
 14 27  1  0
 27 28  2  0
 28 29  1  0
 29 30  2  0
 30 31  1  0
 27 32  1  0
 31 32  2  0
 32 33  1  0
M  END
