DAR-DIA-43a5904b-12
     RDKit          3D

 27 29  0  0  0  0  0  0  0  0999 V2000
   13.3930    5.4750   20.9290 N   0  0  0  0  0  0  0  0  0  0  0  0
   12.7840    5.8930   22.0680 C   0  0  0  0  0  0  0  0  0  0  0  0
   12.5470    4.8150   23.0720 C   0  0  0  0  0  0  0  0  0  0  0  0
   11.0870    4.9420   23.5300 C   0  0  0  0  0  0  0  0  0  0  0  0
   10.3440    3.6060   23.5790 C   0  0  0  0  0  0  0  0  0  0  0  0
    9.8960    3.1490   22.2830 N   0  0  0  0  0  0  0  0  0  0  0  0
    9.1580    1.9810   22.1770 C   0  0  0  0  0  0  0  0  0  0  0  0
    8.7170    1.6290   21.0830 O   0  0  0  0  0  0  0  0  0  0  0  0
    8.9190    1.2520   23.3520 C   0  0  1  0  0  0  0  0  0  0  0  0
    7.5850    0.9830   23.6370 C   0  0  0  0  0  0  0  0  0  0  0  0
    7.3100   -0.3610   23.4080 C   0  0  0  0  0  0  0  0  0  0  0  0
    5.9440   -0.9560   23.1460 C   0  0  0  0  0  0  0  0  0  0  0  0
    5.3010   -1.6680   24.3430 C   0  0  0  0  0  0  0  0  0  0  0  0
    4.1700   -1.1790   24.9000 C   0  0  0  0  0  0  0  0  0  0  0  0
    3.4970   -1.7550   25.9900 C   0  0  0  0  0  0  0  0  0  0  0  0
    4.0070   -2.9150   26.5640 C   0  0  0  0  0  0  0  0  0  0  0  0
    5.1400   -3.4780   26.0700 N   0  0  0  0  0  0  0  0  0  0  0  0
    5.8280   -2.8300   24.9050 C   0  0  0  0  0  0  0  0  0  0  0  0
    8.4920   -0.9830   23.4550 C   0  0  0  0  0  0  0  0  0  0  0  0
    9.5390   -0.0840   23.7210 C   0  0  1  0  0  0  0  0  0  0  0  0
   10.7450   -0.4130   23.1310 C   0  0  0  0  0  0  0  0  0  0  0  0
   11.9220    0.4140   23.2890 C   0  0  0  0  0  0  0  0  0  0  0  0
   13.1880    0.1040   22.6750 C   0  0  0  0  0  0  0  0  0  0  0  0
   13.2890   -1.0520   21.8860 C   0  0  0  0  0  0  0  0  0  0  0  0
   12.1240   -1.6530   21.8780 C   0  0  0  0  0  0  0  0  0  0  0  0
   12.0360   -0.2550   22.8460 Cl  0  0  0  0  0  0  0  0  0  0  0  0
   10.8770   -1.5750   22.3390 C   0  0  0  0  0  0  0  0  0  0  0  0
  1  2  1  0
  2  3  1  0
  3  4  1  0
  4  5  1  0
  5  6  1  0
  6  7  1  0
  7  8  2  0
  9  7  1  6
  9 10  1  0
 10 11  1  0
 11 12  1  0
 12 13  1  0
 13 14  2  0
 14 15  1  0
 15 16  2  0
 16 17  1  0
 13 18  1  0
 17 18  2  0
 11 19  2  0
  9 20  1  0
 19 20  1  0
 20 21  1  6
 21 22  2  0
 22 23  1  0
 23 24  2  0
 24 25  1  0
 25 26  1  0
 21 27  1  0
 25 27  2  0
M  END
