DAR-DIA-2b784ede-8-vinylsulfonamide
     RDKit          3D

 34 36  0  0  0  0  0  0  0  0999 V2000
    7.8310   -4.4680   20.9310 C   0  0  0  0  0  0  0  0  0  0  0  0
    6.6940   -3.5900   21.3970 C   0  0  0  0  0  0  0  0  0  0  0  0
    6.0540   -2.5550   20.1160 S   0  0  0  0  0  0  0  0  0  0  0  0
    4.7230   -3.0890   19.9050 O   0  0  0  0  0  0  0  0  0  0  0  0
    7.0240   -2.5500   19.0460 O   0  0  0  0  0  0  0  0  0  0  0  0
    6.0970   -1.0350   20.9320 N   0  0  0  0  0  0  0  0  0  0  0  0
    5.3280   -0.9710   22.1810 C   0  0  0  0  0  0  0  0  0  0  0  0
    4.9860   -2.1310   22.8980 C   0  0  0  0  0  0  0  0  0  0  0  0
    4.2650   -2.0420   24.0920 C   0  0  0  0  0  0  0  0  0  0  0  0
    3.8670   -0.6890   24.5880 C   0  0  0  0  0  0  0  0  0  0  0  0
    3.1490   -0.5140   25.7790 C   0  0  0  0  0  0  0  0  0  0  0  0
    2.5620   -2.0750   26.3930 Cl  0  0  0  0  0  0  0  0  0  0  0  0
    4.2530    0.3840   23.7930 C   0  0  0  0  0  0  0  0  0  0  0  0
    4.9510    0.2540   22.6380 N   0  0  0  0  0  0  0  0  0  0  0  0
    7.0380    0.1350   20.5220 C   0  0  2  0  0  0  0  0  0  0  0  0
    8.4220    0.3450   21.3500 C   0  0  0  0  0  0  0  0  0  0  0  0
    8.9990    1.4480   21.2440 O   0  0  0  0  0  0  0  0  0  0  0  0
    9.0070   -0.6890   22.1710 N   0  0  0  0  0  0  0  0  0  0  0  0
   10.4220   -1.0640   22.2430 C   0  0  0  0  0  0  0  0  0  0  0  0
   11.8480   -1.4050   22.4780 C   0  0  0  0  0  0  0  0  0  0  0  0
   12.7340   -1.9200   21.3760 C   0  0  0  0  0  0  0  0  0  0  0  0
   12.6660   -1.3580   23.6200 C   0  0  0  0  0  0  0  0  0  0  0  0
   12.2100   -0.9500   24.7980 C   0  0  0  0  0  0  0  0  0  0  0  0
   10.9210   -0.6000   24.8030 C   0  0  0  0  0  0  0  0  0  0  0  0
   10.1140   -0.6540   23.6440 C   0  0  0  0  0  0  0  0  0  0  0  0
    8.7430   -0.1940   24.0660 C   0  0  0  0  0  0  0  0  0  0  0  0
    7.9120   -1.4500   24.3000 C   0  0  0  0  0  0  0  0  0  0  0  0
    6.2600    1.4770   20.1650 C   0  0  0  0  0  0  0  0  0  0  0  0
    6.2950    0.8510   18.9060 C   0  0  0  0  0  0  0  0  0  0  0  0
    6.8770   -0.2900   18.8160 N   0  0  0  0  0  0  0  0  0  0  0  0
    7.1490   -0.2370   20.1290 C   0  0  0  0  0  0  0  0  0  0  0  0
    7.1100    0.3900   21.3950 C   0  0  0  0  0  0  0  0  0  0  0  0
    6.4740    1.6790   21.5330 C   0  0  0  0  0  0  0  0  0  0  0  0
    6.8970    1.5110   22.9690 C   0  0  0  0  0  0  0  0  0  0  0  0
  1  2  1  0
  2  3  1  0
  3  4  2  0
  3  5  2  0
  3  6  1  0
  6  7  1  0
  7  8  2  0
  8  9  1  0
  9 10  2  0
 10 11  1  0
 11 12  1  0
 10 13  1  0
  7 14  1  0
 13 14  2  0
  6 15  1  0
 15 16  1  1
 16 17  2  0
 16 18  1  0
 18 19  1  0
 19 20  2  0
 20 21  1  0
 20 22  1  0
 22 23  2  0
 23 24  1  0
 19 25  1  0
 24 25  2  0
 25 26  1  0
 26 27  1  0
 15 28  1  0
 28 29  2  0
 29 30  1  0
 30 31  2  0
 31 32  1  0
 28 33  1  0
 32 33  2  0
 33 34  1  0
M  END
