DAR-DIA-caba39e3-3-nitrile
     RDKit          3D

 23 26  0  0  0  0  0  0  0  0999 V2000
    6.9280   -3.5190   19.9020 C   0  0  0  0  0  0  0  0  0  0  0  0
    5.8480   -3.3620   19.2430 N   0  0  0  0  0  0  0  0  0  0  0  0
    6.9500   -2.9130   21.1460 N   0  0  0  0  0  0  0  0  0  0  0  0
    6.3620   -3.4220   22.2900 C   0  0  0  0  0  0  0  0  0  0  0  0
    7.4380   -3.8000   23.3200 C   0  0  0  0  0  0  0  0  0  0  0  0
    6.9350   -4.7900   24.3480 C   0  0  0  0  0  0  0  0  0  0  0  0
    7.9110   -5.2560   25.4070 C   0  0  0  0  0  0  0  0  0  0  0  0
    9.3560   -4.7460   25.4400 C   0  0  0  0  0  0  0  0  0  0  0  0
    9.7430   -3.7250   24.3390 C   0  0  0  0  0  0  0  0  0  0  0  0
    8.7270   -3.2840   23.2880 C   0  0  0  0  0  0  0  0  0  0  0  0
    9.0030   -2.3600   22.2270 C   0  0  2  0  0  0  0  0  0  0  0  0
    9.9650   -1.4740   22.5600 C   0  0  0  0  0  0  0  0  0  0  0  0
   11.3430   -1.6210   22.2270 C   0  0  0  0  0  0  0  0  0  0  0  0
   12.3310   -0.6130   22.5970 C   0  0  0  0  0  0  0  0  0  0  0  0
   13.5830   -0.8410   22.2130 O   0  0  0  0  0  0  0  0  0  0  0  0
   13.4890   -1.7190   21.0970 C   0  0  0  0  0  0  0  0  0  0  0  0
   12.0210    0.6490   23.3510 C   0  0  0  0  0  0  0  0  0  0  0  0
   10.7100    0.7980   23.6720 C   0  0  0  0  0  0  0  0  0  0  0  0
   10.1170    1.8040   24.3190 C   0  0  0  0  0  0  0  0  0  0  0  0
    8.7890    1.5590   24.4330 C   0  0  0  0  0  0  0  0  0  0  0  0
    8.4400    0.3880   23.8650 N   0  0  0  0  0  0  0  0  0  0  0  0
    9.6160   -0.1980   23.3290 C   0  0  0  0  0  0  0  0  0  0  0  0
    7.9270   -1.9680   21.5080 C   0  0  0  0  0  0  0  0  0  0  0  0
  1  2  2  3
  1  3  1  0
  3  4  1  0
  4  5  1  0
  5  6  1  0
  6  7  2  0
  7  8  1  0
  8  9  2  0
  5 10  2  0
  9 10  1  0
 10 11  1  0
 11 12  1  1
 12 13  2  0
 13 14  1  0
 14 15  1  0
 15 16  1  0
 14 17  2  0
 17 18  1  0
 18 19  1  0
 19 20  2  0
 20 21  1  0
 12 22  1  0
 18 22  2  0
 21 22  1  0
  3 23  1  0
 11 23  1  0
M  END
