DAR-DIA-03336633-12
     RDKit          3D

 29 32  0  0  0  0  0  0  0  0999 V2000
   13.3700   -1.6050   24.0090 C   0  0  0  0  0  0  0  0  0  0  0  0
   12.0400   -1.3070   23.6360 N   0  0  0  0  0  0  0  0  0  0  0  0
   11.2320   -2.0690   22.6940 C   0  0  0  0  0  0  0  0  0  0  0  0
    9.8070   -1.6040   22.9600 C   0  0  0  0  0  0  0  0  0  0  0  0
    9.5870   -0.1520   22.8730 N   0  0  0  0  0  0  0  0  0  0  0  0
    8.9360    0.3630   21.6770 C   0  0  0  0  0  0  0  0  0  0  0  0
    9.0530    1.5140   21.2290 O   0  0  0  0  0  0  0  0  0  0  0  0
    8.0650   -0.6720   21.0240 C   0  0  0  0  0  0  0  0  0  0  0  0
    7.1920   -0.2400   20.0620 C   0  0  0  0  0  0  0  0  0  0  0  0
    7.3610   -0.5380   18.7170 C   0  0  0  0  0  0  0  0  0  0  0  0
    6.3620    0.0500   18.0440 N   0  0  0  0  0  0  0  0  0  0  0  0
    5.4790    0.7430   18.8670 C   0  0  0  0  0  0  0  0  0  0  0  0
    4.4030    1.4110   18.4460 N   0  0  0  0  0  0  0  0  0  0  0  0
    3.7420    1.9700   19.4640 C   0  0  0  0  0  0  0  0  0  0  0  0
    4.1600    1.8650   20.9180 C   0  0  0  0  0  0  0  0  0  0  0  0
    5.2550    1.1830   21.2610 C   0  0  0  0  0  0  0  0  0  0  0  0
    5.6960    1.0530   22.6070 N   0  0  0  0  0  0  0  0  0  0  0  0
    4.9860    1.3110   23.7830 C   0  0  0  0  0  0  0  0  0  0  0  0
    3.9760    2.2220   23.9290 O   0  0  0  0  0  0  0  0  0  0  0  0
    5.3560    0.5730   24.8830 N   0  0  0  0  0  0  0  0  0  0  0  0
    5.1570    0.8860   26.3020 C   0  0  0  0  0  0  0  0  0  0  0  0
    6.1980    1.7160   26.7280 C   0  0  0  0  0  0  0  0  0  0  0  0
    7.4600    1.0740   26.6840 C   0  0  0  0  0  0  0  0  0  0  0  0
    7.4600   -0.2290   27.1770 C   0  0  0  0  0  0  0  0  0  0  0  0
    6.2570   -0.7210   27.6520 C   0  0  0  0  0  0  0  0  0  0  0  0
    5.0960   -0.3220   27.0090 C   0  0  0  0  0  0  0  0  0  0  0  0
    5.9830    0.5710   20.1870 C   0  0  0  0  0  0  0  0  0  0  0  0
   10.6850    0.6660   23.4240 C   0  0  0  0  0  0  0  0  0  0  0  0
   11.9500    0.1220   23.2830 C   0  0  0  0  0  0  0  0  0  0  0  0
  1  2  1  0
  2  3  1  0
  3  4  1  0
  4  5  1  0
  5  6  1  0
  6  7  2  0
  6  8  1  0
  8  9  1  0
  9 10  2  0
 10 11  1  0
 11 12  1  0
 12 13  1  0
 13 14  2  0
 14 15  1  0
 15 16  2  0
 16 17  1  0
 17 18  1  0
 18 19  2  0
 18 20  1  0
 20 21  1  0
 21 22  1  0
 22 23  1  0
 23 24  1  0
 24 25  1  0
 21 26  1  0
 25 26  1  0
  9 27  1  0
 12 27  2  0
 16 27  1  0
  5 28  1  0
  2 29  1  0
 28 29  1  0
M  END
