DAR-DIA-2b784ede-49-acrylamide
     RDKit          3D

 35 37  0  0  0  0  0  0  0  0999 V2000
    7.6070   -3.6690   19.4060 C   0  0  0  0  0  0  0  0  0  0  0  0
    6.5440   -3.0230   18.6070 C   0  0  0  0  0  0  0  0  0  0  0  0
    5.6760   -2.3480   19.5840 C   0  0  0  0  0  0  0  0  0  0  0  0
    4.5170   -2.8760   19.8890 O   0  0  0  0  0  0  0  0  0  0  0  0
    6.2650   -1.1620   20.1070 N   0  0  0  0  0  0  0  0  0  0  0  0
    6.0150    0.0530   19.0990 C   0  0  0  0  0  0  0  0  0  0  0  0
    4.5930   -0.1210   19.7290 C   0  0  0  0  0  0  0  0  0  0  0  0
    5.7920   -0.5920   19.8880 C   0  0  0  0  0  0  0  0  0  0  0  0
    5.3520   -1.3520   21.0070 C   0  0  0  0  0  0  0  0  0  0  0  0
    4.1470   -0.8100   21.5230 C   0  0  0  0  0  0  0  0  0  0  0  0
    5.0450   -2.8520   20.7470 C   0  0  0  0  0  0  0  0  0  0  0  0
    6.3990   -1.4240   21.9680 C   0  0  0  0  0  0  0  0  0  0  0  0
    6.9780   -1.0580   20.0440 N   0  0  0  0  0  0  0  0  0  0  0  0
    7.3440   -0.1760   18.9120 N   0  0  0  0  0  0  0  0  0  0  0  0
    7.2680   -1.3650   21.2920 C   0  0  2  0  0  0  0  0  0  0  0  0
    8.7390   -1.2380   21.1370 C   0  0  0  0  0  0  0  0  0  0  0  0
    9.0910   -0.1400   20.7310 O   0  0  0  0  0  0  0  0  0  0  0  0
    9.7540   -2.1070   21.4950 N   0  0  0  0  0  0  0  0  0  0  0  0
   10.6200   -1.5830   22.5170 C   0  0  0  0  0  0  0  0  0  0  0  0
   12.0190   -1.3040   22.2620 C   0  0  0  0  0  0  0  0  0  0  0  0
   12.5600   -1.6040   21.0250 C   0  0  0  0  0  0  0  0  0  0  0  0
   13.5640   -0.9750   20.6940 O   0  0  0  0  0  0  0  0  0  0  0  0
   12.8340   -0.7080   23.3530 C   0  0  0  0  0  0  0  0  0  0  0  0
   12.2910   -0.4460   24.6240 C   0  0  0  0  0  0  0  0  0  0  0  0
   10.8760   -0.7120   25.0870 C   0  0  0  0  0  0  0  0  0  0  0  0
   10.1210   -1.2990   23.9160 C   0  0  0  0  0  0  0  0  0  0  0  0
    8.7900   -1.5360   24.5870 C   0  0  0  0  0  0  0  0  0  0  0  0
    8.2360   -0.2420   23.9810 C   0  0  0  0  0  0  0  0  0  0  0  0
    8.2210   -2.8240   24.0190 C   0  0  0  0  0  0  0  0  0  0  0  0
    6.7030   -2.4310   22.3060 C   0  0  0  0  0  0  0  0  0  0  0  0
    5.7530   -1.9550   23.3490 C   0  0  0  0  0  0  0  0  0  0  0  0
    5.1720   -2.9080   24.3440 C   0  0  0  0  0  0  0  0  0  0  0  0
    5.6110   -4.3470   24.2580 C   0  0  0  0  0  0  0  0  0  0  0  0
    6.4750   -4.7570   23.2980 N   0  0  0  0  0  0  0  0  0  0  0  0
    6.9840   -3.8230   22.3740 C   0  0  0  0  0  0  0  0  0  0  0  0
  1  2  1  0
  2  3  1  0
  3  4  2  0
  3  5  1  0
  5  6  1  0
  6  7  2  0
  7  8  1  0
  8  9  1  0
  9 10  1  0
  9 11  1  0
  9 12  1  0
  8 13  2  0
  6 14  1  0
 13 14  1  0
  5 15  1  0
 15 16  1  6
 16 17  2  0
 16 18  1  0
 18 19  1  0
 19 20  2  0
 20 21  1  0
 21 22  1  0
 20 23  1  0
 23 24  2  0
 24 25  1  0
 19 26  1  0
 25 26  2  0
 26 27  1  0
 27 28  1  0
 27 29  1  0
 15 30  1  0
 30 31  2  0
 31 32  1  0
 32 33  2  0
 33 34  1  0
 30 35  1  0
 34 35  2  0
M  END
