DAR-DIA-0cde14eb-14
     RDKit          3D

 22 24  0  0  0  0  0  0  0  0999 V2000
    4.8670    1.1880   21.6580 C   0  0  0  0  0  0  0  0  0  0  0  0
    5.3050    1.0080   20.2310 C   0  0  0  0  0  0  0  0  0  0  0  0
    4.6540    1.6970   19.2040 C   0  0  0  0  0  0  0  0  0  0  0  0
    5.0990    1.5050   17.9100 C   0  0  0  0  0  0  0  0  0  0  0  0
    6.1150    0.6860   17.5800 N   0  0  0  0  0  0  0  0  0  0  0  0
    6.7210    0.0360   18.5820 C   0  0  0  0  0  0  0  0  0  0  0  0
    6.3650    0.1640   19.8940 C   0  0  0  0  0  0  0  0  0  0  0  0
    7.0230   -0.4970   20.9040 N   0  0  0  0  0  0  0  0  0  0  0  0
    8.0410    0.1350   21.5520 C   0  0  0  0  0  0  0  0  0  0  0  0
    8.6110    1.1710   21.1780 O   0  0  0  0  0  0  0  0  0  0  0  0
    8.4300   -0.5500   22.8260 C   0  0  0  0  0  0  0  0  0  0  0  0
    9.8400   -0.2100   23.0700 C   0  0  0  0  0  0  0  0  0  0  0  0
   10.2130    0.8500   23.8770 C   0  0  0  0  0  0  0  0  0  0  0  0
   11.5480    1.1510   24.0850 C   0  0  0  0  0  0  0  0  0  0  0  0
   12.5270    0.4170   23.5130 C   0  0  0  0  0  0  0  0  0  0  0  0
   12.1270   -0.6920   22.6610 C   0  0  0  0  0  0  0  0  0  0  0  0
   13.1120   -1.5140   22.0200 C   0  0  0  0  0  0  0  0  0  0  0  0
   13.7280   -1.0050   20.7540 C   0  0  0  0  0  0  0  0  0  0  0  0
   14.1940   -0.5560   19.7980 N   0  0  0  0  0  0  0  0  0  0  0  0
   13.2830   -2.9050   22.5590 C   0  0  0  0  0  0  0  0  0  0  0  0
   12.2440   -2.6100   21.5500 C   0  0  0  0  0  0  0  0  0  0  0  0
   10.8000   -0.9690   22.4660 C   0  0  0  0  0  0  0  0  0  0  0  0
  1  2  1  0
  2  3  2  0
  3  4  1  0
  4  5  2  0
  5  6  1  0
  2  7  1  0
  6  7  2  0
  7  8  1  0
  8  9  1  0
  9 10  2  0
  9 11  1  0
 11 12  1  0
 12 13  2  0
 13 14  1  0
 14 15  2  0
 15 16  1  0
 16 17  1  0
 17 18  1  0
 18 19  3  0
 17 20  1  0
 17 21  1  0
 20 21  1  0
 12 22  1  0
 16 22  2  0
M  END
