DAR-DIA-842b4336-2
     RDKit          3D

 16 17  0  0  0  0  0  0  0  0999 V2000
   13.3870   -1.1010   24.1960 C   0  0  0  0  0  0  0  0  0  0  0  0
   12.1580   -0.9850   23.6160 N   0  0  0  0  0  0  0  0  0  0  0  0
   11.1310   -0.1340   23.9520 C   0  0  0  0  0  0  0  0  0  0  0  0
   10.1170   -0.5100   22.9470 C   0  0  0  0  0  0  0  0  0  0  0  0
    8.8610    0.2090   23.0180 N   0  0  0  0  0  0  0  0  0  0  0  0
    8.4980    0.7770   21.7440 C   0  0  0  0  0  0  0  0  0  0  0  0
    9.0230    1.7720   21.2470 O   0  0  0  0  0  0  0  0  0  0  0  0
    7.4840    0.0350   21.1890 N   0  0  0  0  0  0  0  0  0  0  0  0
    6.6840    0.4650   20.1420 C   0  0  0  0  0  0  0  0  0  0  0  0
    5.6430    1.3390   20.2700 C   0  0  0  0  0  0  0  0  0  0  0  0
    4.9150    1.7190   19.1750 C   0  0  0  0  0  0  0  0  0  0  0  0
    5.2580    1.2000   17.9340 C   0  0  0  0  0  0  0  0  0  0  0  0
    6.2680    0.3320   17.7410 N   0  0  0  0  0  0  0  0  0  0  0  0
    6.9680   -0.0270   18.8500 C   0  0  0  0  0  0  0  0  0  0  0  0
   10.6540   -1.6290   22.0090 C   0  0  0  0  0  0  0  0  0  0  0  0
   11.8800   -1.7540   22.5960 N   0  0  0  0  0  0  0  0  0  0  0  0
  1  2  1  0
  2  3  1  0
  3  4  2  0
  4  5  1  0
  5  6  1  0
  6  7  2  0
  6  8  1  0
  8  9  1  0
  9 10  2  0
 10 11  1  0
 11 12  2  0
 12 13  1  0
  9 14  1  0
 13 14  2  0
  4 15  1  0
  2 16  1  0
 15 16  2  0
M  END
