DAR-DIA-23aa0b97-19-acrylamide
     RDKit          3D

 24 26  0  0  0  0  0  0  0  0999 V2000
    7.3350   -5.4900   20.8250 C   0  0  0  0  0  0  0  0  0  0  0  0
    7.4020   -4.7660   22.1010 C   0  0  0  0  0  0  0  0  0  0  0  0
    6.6340   -3.5130   21.9400 C   0  0  0  0  0  0  0  0  0  0  0  0
    5.1670   -3.6290   21.4770 O   0  0  0  0  0  0  0  0  0  0  0  0
    7.7630   -2.4090   22.3140 C   0  0  0  0  0  0  0  0  0  0  0  0
    8.9090   -2.4300   22.8860 C   0  0  0  0  0  0  0  0  0  0  0  0
    9.8110   -3.1130   23.4590 C   0  0  0  0  0  0  0  0  0  0  0  0
   10.3600   -1.9010   23.4960 C   0  0  0  0  0  0  0  0  0  0  0  0
    9.2890   -0.8960   22.7750 C   0  0  0  0  0  0  0  0  0  0  0  0
    9.5430    0.4250   22.6090 N   0  0  0  0  0  0  0  0  0  0  0  0
    8.8050    0.8300   21.5140 C   0  0  0  0  0  0  0  0  0  0  0  0
    8.7450    1.9530   21.0400 O   0  0  0  0  0  0  0  0  0  0  0  0
    8.0850   -0.3100   21.0090 C   0  0  0  0  0  0  0  0  0  0  0  0
    7.1590   -0.0820   19.8240 C   0  0  0  0  0  0  0  0  0  0  0  0
    7.4560   -0.7690   18.5090 C   0  0  0  0  0  0  0  0  0  0  0  0
    6.5180   -0.0740   18.5550 N   0  0  0  0  0  0  0  0  0  0  0  0
    5.5390    0.4960   18.1540 C   0  0  0  0  0  0  0  0  0  0  0  0
    4.9650    1.1830   18.9950 C   0  0  0  0  0  0  0  0  0  0  0  0
    3.8570    1.9810   19.0520 C   0  0  0  0  0  0  0  0  0  0  0  0
    3.6060    2.5580   20.2990 C   0  0  0  0  0  0  0  0  0  0  0  0
    4.4730    2.2980   21.3690 C   0  0  0  0  0  0  0  0  0  0  0  0
    5.6160    1.4670   21.2570 C   0  0  0  0  0  0  0  0  0  0  0  0
    5.9300    0.8510   20.0420 C   0  0  0  0  0  0  0  0  0  0  0  0
    7.8750   -1.0300   22.1140 C   0  0  0  0  0  0  0  0  0  0  0  0
  1  2  1  0
  2  3  1  0
  3  4  2  0
  3  5  1  0
  5  6  2  0
  6  7  1  0
  7  8  2  0
  8  9  1  0
  9 10  1  0
 10 11  1  0
 11 12  2  0
 11 13  1  0
 13 14  1  0
 14 15  2  0
 15 16  1  0
 16 17  2  0
 17 18  1  0
 18 19  1  0
 19 20  2  0
 20 21  1  0
 21 22  2  0
 14 23  1  0
 18 23  2  0
 22 23  1  0
  5 24  1  0
  9 24  2  0
M  END
