DAR-DIA-fb20be43-11-chloroacetamide
     RDKit          3D

 26 28  0  0  0  0  0  0  0  0999 V2000
    7.6260   -3.6450   19.6630 C   0  0  0  0  0  0  0  0  0  0  0  0
    6.3760   -2.9190   19.8260 C   0  0  0  0  0  0  0  0  0  0  0  0
    5.4210   -3.1750   19.0740 O   0  0  0  0  0  0  0  0  0  0  0  0
    6.3940   -2.0440   20.8970 N   0  0  0  0  0  0  0  0  0  0  0  0
    6.1290   -2.6020   22.2410 C   0  0  0  0  0  0  0  0  0  0  0  0
    7.4180   -2.9130   23.0380 C   0  0  0  0  0  0  0  0  0  0  0  0
    8.2300   -1.7030   23.1480 N   0  0  0  0  0  0  0  0  0  0  0  0
    9.3430   -1.7470   24.1100 C   0  0  0  0  0  0  0  0  0  0  0  0
   10.4910   -0.8940   23.6290 C   0  0  0  0  0  0  0  0  0  0  0  0
   11.6330   -1.6610   23.0200 C   0  0  0  0  0  0  0  0  0  0  0  0
   12.7240   -0.9400   22.5410 C   0  0  0  0  0  0  0  0  0  0  0  0
   13.7070   -1.6240   21.9990 F   0  0  0  0  0  0  0  0  0  0  0  0
   12.7990    0.4470   22.6070 C   0  0  0  0  0  0  0  0  0  0  0  0
   11.7460    1.1550   23.1490 C   0  0  0  0  0  0  0  0  0  0  0  0
   11.5650    2.5280   23.2890 C   0  0  0  0  0  0  0  0  0  0  0  0
   12.4860    3.5200   22.8430 C   0  0  0  0  0  0  0  0  0  0  0  0
   12.2530    4.8190   23.3170 C   0  0  0  0  0  0  0  0  0  0  0  0
   11.1600    5.4980   22.6370 N   0  0  0  0  0  0  0  0  0  0  0  0
   10.2040    6.1560   23.3650 C   0  0  0  0  0  0  0  0  0  0  0  0
    9.1460    6.6400   22.5860 C   0  0  0  0  0  0  0  0  0  0  0  0
   10.2550    6.3110   24.5810 O   0  0  0  0  0  0  0  0  0  0  0  0
   10.3380    2.7990   23.9190 C   0  0  0  0  0  0  0  0  0  0  0  0
    9.7820    1.5460   24.1400 N   0  0  0  0  0  0  0  0  0  0  0  0
   10.6160    0.5240   23.6640 C   0  0  0  0  0  0  0  0  0  0  0  0
    8.5970   -1.2230   21.8180 C   0  0  0  0  0  0  0  0  0  0  0  0
    7.3750   -0.9440   20.9110 C   0  0  0  0  0  0  0  0  0  0  0  0
  1  2  1  0
  2  3  2  0
  2  4  1  0
  4  5  1  0
  5  6  1  0
  6  7  1  0
  7  8  1  0
  8  9  1  0
  9 10  2  0
 10 11  1  0
 11 12  1  0
 11 13  2  0
 13 14  1  0
 14 15  1  0
 15 16  1  0
 16 17  1  0
 17 18  1  0
 18 19  1  0
 19 20  1  0
 19 21  2  0
 15 22  2  0
 22 23  1  0
  9 24  1  0
 14 24  2  0
 23 24  1  0
  7 25  1  0
  4 26  1  0
 25 26  1  0
M  END
