DAR-DIA-caba39e3-9-vinylsulfonamide
     RDKit          3D

 27 30  0  0  0  0  0  0  0  0999 V2000
    7.4460   -3.1410   18.6000 C   0  0  0  0  0  0  0  0  0  0  0  0
    7.3580   -2.0710   19.5720 C   0  0  0  0  0  0  0  0  0  0  0  0
    5.8040   -2.2360   20.3890 S   0  0  0  0  0  0  0  0  0  0  0  0
    5.1390   -3.5450   20.2870 O   0  0  0  0  0  0  0  0  0  0  0  0
    5.1370   -1.0510   19.9900 O   0  0  0  0  0  0  0  0  0  0  0  0
    6.4000   -2.0780   21.9490 N   0  0  0  0  0  0  0  0  0  0  0  0
    6.0950   -3.2580   22.8120 C   0  0  0  0  0  0  0  0  0  0  0  0
    7.2140   -3.7670   23.6890 C   0  0  0  0  0  0  0  0  0  0  0  0
    6.9380   -4.7690   24.6220 C   0  0  0  0  0  0  0  0  0  0  0  0
    7.9390   -5.2710   25.4480 C   0  0  0  0  0  0  0  0  0  0  0  0
    9.2310   -4.7790   25.3450 C   0  0  0  0  0  0  0  0  0  0  0  0
    9.5110   -3.7780   24.4180 C   0  0  0  0  0  0  0  0  0  0  0  0
    8.5070   -3.2660   23.5910 C   0  0  0  0  0  0  0  0  0  0  0  0
    8.7680   -2.1800   22.5860 C   0  0  2  0  0  0  0  0  0  0  0  0
    9.7150   -1.1420   23.1090 C   0  0  0  0  0  0  0  0  0  0  0  0
    9.3230   -0.2580   24.0470 C   0  0  0  0  0  0  0  0  0  0  0  0
   10.1890    0.6740   24.4860 C   0  0  0  0  0  0  0  0  0  0  0  0
    9.5950    1.4540   25.4290 O   0  0  0  0  0  0  0  0  0  0  0  0
    8.8910    0.7340   26.4420 C   0  0  0  0  0  0  0  0  0  0  0  0
   11.4940    0.7330   23.9700 C   0  0  0  0  0  0  0  0  0  0  0  0
   11.9870   -0.1630   22.9820 C   0  0  0  0  0  0  0  0  0  0  0  0
   13.2970   -0.1410   22.4290 C   0  0  0  0  0  0  0  0  0  0  0  0
   13.4860   -1.1380   21.4870 C   0  0  0  0  0  0  0  0  0  0  0  0
   12.5630   -2.1440   21.0380 C   0  0  0  0  0  0  0  0  0  0  0  0
   11.2800   -2.0720   21.6470 C   0  0  0  0  0  0  0  0  0  0  0  0
   10.9950   -1.0750   22.6240 C   0  0  0  0  0  0  0  0  0  0  0  0
    7.7370   -1.4700   21.9460 C   0  0  0  0  0  0  0  0  0  0  0  0
  1  2  1  0
  3  2  1  0
  3  4  2  0
  3  5  2  0
  3  6  1  0
  6  7  1  0
  7  8  1  0
  8  9  1  0
  9 10  2  0
 10 11  1  0
 11 12  2  0
  8 13  2  0
 12 13  1  0
 13 14  1  0
 14 15  1  1
 15 16  2  0
 16 17  1  0
 17 18  1  0
 18 19  1  0
 17 20  2  0
 20 21  1  0
 21 22  1  0
 22 23  2  0
 23 24  1  0
 24 25  2  0
 15 26  1  0
 21 26  2  0
 25 26  1  0
  6 27  1  0
 14 27  1  0
M  END
