DAR-DIA-2b784ede-27-chloroacetamide
     RDKit          3D

 35 37  0  0  0  0  0  0  0  0999 V2000
    7.1530   -2.6590   18.5970 C   0  0  0  0  0  0  0  0  0  0  0  0
    6.1090   -2.5920   19.6720 C   0  0  0  0  0  0  0  0  0  0  0  0
    5.3970   -3.6600   19.6920 O   0  0  0  0  0  0  0  0  0  0  0  0
    6.0600   -1.2310   20.4070 N   0  0  0  0  0  0  0  0  0  0  0  0
    6.4620   -0.3040   19.3970 C   0  0  0  0  0  0  0  0  0  0  0  0
    6.2650    0.8470   18.7090 C   0  0  0  0  0  0  0  0  0  0  0  0
    5.2800    1.6150   18.9680 N   0  0  0  0  0  0  0  0  0  0  0  0
    4.4830    1.1770   19.9580 N   0  0  0  0  0  0  0  0  0  0  0  0
    3.9290    2.3960   19.5520 C   0  0  0  0  0  0  0  0  0  0  0  0
    2.4690    2.4050   19.5580 C   0  0  0  0  0  0  0  0  0  0  0  0
    4.4540    3.5450   20.4140 C   0  0  0  0  0  0  0  0  0  0  0  0
    4.3650    2.5430   18.1440 C   0  0  0  0  0  0  0  0  0  0  0  0
    4.8200    2.5590   16.8650 N   0  0  0  0  0  0  0  0  0  0  0  0
    5.2140    0.0690   20.1430 C   0  0  0  0  0  0  0  0  0  0  0  0
    6.1870   -0.8830   21.8850 C   0  0  1  0  0  0  0  0  0  0  0  0
    7.3350    0.1330   22.3890 C   0  0  0  0  0  0  0  0  0  0  0  0
    7.6810    1.2270   21.5380 O   0  0  0  0  0  0  0  0  0  0  0  0
    7.9210    0.0120   23.6520 N   0  0  0  0  0  0  0  0  0  0  0  0
    9.1290    0.8630   23.8410 C   0  0  0  0  0  0  0  0  0  0  0  0
   10.4030    0.2190   23.2930 C   0  0  0  0  0  0  0  0  0  0  0  0
   10.3700   -1.1400   23.0300 C   0  0  0  0  0  0  0  0  0  0  0  0
    9.1730   -2.0520   23.2380 C   0  0  0  0  0  0  0  0  0  0  0  0
   11.5930   -1.8340   22.4800 C   0  0  0  0  0  0  0  0  0  0  0  0
   12.7530   -1.1340   22.2510 C   0  0  0  0  0  0  0  0  0  0  0  0
   12.7580    0.2200   22.5240 C   0  0  0  0  0  0  0  0  0  0  0  0
   11.6420    0.9060   23.0060 C   0  0  0  0  0  0  0  0  0  0  0  0
   11.8720    2.2590   23.1400 C   0  0  0  0  0  0  0  0  0  0  0  0
   10.6430    3.0010   23.6420 C   0  0  0  0  0  0  0  0  0  0  0  0
    4.9460   -0.3010   22.6530 C   0  0  0  0  0  0  0  0  0  0  0  0
    4.5110    1.0330   22.5270 C   0  0  0  0  0  0  0  0  0  0  0  0
    3.4360    1.5580   23.1990 N   0  0  0  0  0  0  0  0  0  0  0  0
    2.6600    0.7710   24.1030 C   0  0  0  0  0  0  0  0  0  0  0  0
    3.1420   -0.6640   24.2380 C   0  0  0  0  0  0  0  0  0  0  0  0
    4.2510   -1.1290   23.5160 C   0  0  0  0  0  0  0  0  0  0  0  0
    4.6840   -2.5760   23.7070 C   0  0  0  0  0  0  0  0  0  0  0  0
  1  2  1  0
  2  3  2  0
  2  4  1  0
  4  5  1  0
  5  6  1  0
  6  7  2  0
  7  8  1  0
  8  9  1  0
  9 10  1  0
  9 11  1  0
  9 12  1  0
 12 13  3  0
  5 14  2  0
  8 14  1  0
  4 15  1  0
 15 16  1  6
 16 17  2  0
 16 18  1  0
 18 19  1  0
 19 20  1  0
 20 21  2  0
 21 22  1  0
 21 23  1  0
 23 24  2  0
 24 25  1  0
 20 26  1  0
 25 26  2  0
 26 27  1  0
 27 28  1  0
 15 29  1  0
 29 30  2  0
 30 31  1  0
 31 32  2  0
 32 33  1  0
 29 34  1  0
 33 34  2  0
 34 35  1  0
M  END
