DAR-DIA-03336633-15
     RDKit          3D

 19 20  0  0  0  0  0  0  0  0999 V2000
   13.2330   -2.9830   21.3440 N   0  0  0  0  0  0  0  0  0  0  0  0
   12.4180   -1.9630   21.0690 C   0  0  0  0  0  0  0  0  0  0  0  0
   11.0180   -1.9780   21.5800 C   0  0  0  0  0  0  0  0  0  0  0  0
   11.2970   -1.4000   22.8540 C   0  0  0  0  0  0  0  0  0  0  0  0
   12.6360   -1.8600   23.3430 C   0  0  0  0  0  0  0  0  0  0  0  0
   13.1350   -1.3910   24.6150 C   0  0  0  0  0  0  0  0  0  0  0  0
   12.3550   -0.5300   25.3170 N   0  0  0  0  0  0  0  0  0  0  0  0
   11.1240   -0.1900   24.7590 C   0  0  0  0  0  0  0  0  0  0  0  0
   10.5190   -0.5510   23.5770 C   0  0  0  0  0  0  0  0  0  0  0  0
    9.2180   -0.0690   23.2110 C   0  0  0  0  0  0  0  0  0  0  0  0
    8.7990    0.5400   21.8650 C   0  0  0  0  0  0  0  0  0  0  0  0
    9.2540    1.6120   21.4480 O   0  0  0  0  0  0  0  0  0  0  0  0
    7.7810   -0.2590   21.1600 N   0  0  0  0  0  0  0  0  0  0  0  0
    6.9810    0.1560   20.1000 C   0  0  0  0  0  0  0  0  0  0  0  0
    7.1630   -0.2800   18.8410 C   0  0  0  0  0  0  0  0  0  0  0  0
    6.3970    0.1210   17.7660 C   0  0  0  0  0  0  0  0  0  0  0  0
    5.3800    1.0160   17.9650 C   0  0  0  0  0  0  0  0  0  0  0  0
    5.1290    1.5030   19.2330 C   0  0  0  0  0  0  0  0  0  0  0  0
    5.9370    1.0690   20.3040 C   0  0  0  0  0  0  0  0  0  0  0  0
  1  2  1  0
  2  3  1  0
  3  4  1  0
  4  5  2  0
  5  6  1  0
  6  7  2  0
  7  8  1  0
  4  9  1  0
  8  9  2  0
  9 10  1  0
 10 11  1  0
 11 12  2  0
 11 13  1  0
 13 14  1  0
 14 15  2  0
 15 16  1  0
 16 17  2  0
 17 18  1  0
 14 19  1  0
 18 19  2  0
M  END
