DAR-DIA-fb20be43-14-vinylsulfonamide
     RDKit          3D

 29 31  0  0  0  0  0  0  0  0999 V2000
    6.4180   -4.3870   19.9660 C   0  0  0  0  0  0  0  0  0  0  0  0
    7.0080   -3.1720   19.2870 C   0  0  0  0  0  0  0  0  0  0  0  0
    5.8190   -2.0750   19.8330 S   0  0  0  0  0  0  0  0  0  0  0  0
    4.7270   -2.9880   20.0670 O   0  0  0  0  0  0  0  0  0  0  0  0
    5.7500   -0.9370   18.9440 O   0  0  0  0  0  0  0  0  0  0  0  0
    6.5250   -1.6150   21.2970 N   0  0  0  0  0  0  0  0  0  0  0  0
    6.2940   -2.4730   22.4770 C   0  0  0  0  0  0  0  0  0  0  0  0
    7.5510   -3.1320   23.1100 C   0  0  0  0  0  0  0  0  0  0  0  0
    8.8210   -2.3990   22.9430 N   0  0  0  0  0  0  0  0  0  0  0  0
    9.3690   -1.6540   24.0870 C   0  0  0  0  0  0  0  0  0  0  0  0
   10.4830   -0.7390   23.6370 C   0  0  0  0  0  0  0  0  0  0  0  0
   11.6450   -1.4680   23.0180 C   0  0  0  0  0  0  0  0  0  0  0  0
   12.7340   -0.7350   22.5490 C   0  0  0  0  0  0  0  0  0  0  0  0
   13.6660   -1.5430   22.0110 O   0  0  0  0  0  0  0  0  0  0  0  0
   13.0610   -2.5340   21.1940 C   0  0  0  0  0  0  0  0  0  0  0  0
   12.7740    0.6510   22.6450 C   0  0  0  0  0  0  0  0  0  0  0  0
   11.6920    1.3260   23.1950 C   0  0  0  0  0  0  0  0  0  0  0  0
   11.5490    2.7160   23.3180 C   0  0  0  0  0  0  0  0  0  0  0  0
   12.4910    3.6560   22.8600 C   0  0  0  0  0  0  0  0  0  0  0  0
   12.3010    4.9560   23.3230 C   0  0  0  0  0  0  0  0  0  0  0  0
   11.2040    5.6330   22.6410 N   0  0  0  0  0  0  0  0  0  0  0  0
   10.1930    6.2130   23.3630 C   0  0  0  0  0  0  0  0  0  0  0  0
    9.0990    6.6390   22.5660 C   0  0  0  0  0  0  0  0  0  0  0  0
   10.2170    6.3590   24.5810 O   0  0  0  0  0  0  0  0  0  0  0  0
   10.3310    2.9080   23.9390 C   0  0  0  0  0  0  0  0  0  0  0  0
    9.7600    1.6720   24.1610 N   0  0  0  0  0  0  0  0  0  0  0  0
   10.5840    0.6680   23.6900 C   0  0  0  0  0  0  0  0  0  0  0  0
    8.9720   -1.7620   21.6420 C   0  0  0  0  0  0  0  0  0  0  0  0
    7.7820   -0.8910   21.2220 C   0  0  0  0  0  0  0  0  0  0  0  0
  1  2  1  0
  3  2  1  0
  3  4  2  0
  3  5  2  0
  3  6  1  0
  6  7  1  0
  7  8  1  0
  8  9  1  0
  9 10  1  0
 10 11  1  0
 11 12  2  0
 12 13  1  0
 13 14  1  0
 14 15  1  0
 13 16  2  0
 16 17  1  0
 17 18  1  0
 18 19  1  0
 19 20  1  0
 20 21  1  0
 21 22  1  0
 22 23  1  0
 22 24  2  0
 18 25  2  0
 25 26  1  0
 11 27  1  0
 17 27  2  0
 26 27  1  0
  9 28  1  0
  6 29  1  0
 28 29  1  0
M  END
