DAR-DIA-2b784ede-20-acrylamide
     RDKit          3D

 29 31  0  0  0  0  0  0  0  0999 V2000
    7.2330   -3.3070   19.4350 C   0  0  0  0  0  0  0  0  0  0  0  0
    6.4740   -3.8540   20.5990 C   0  0  0  0  0  0  0  0  0  0  0  0
    5.4060   -2.8920   21.0050 C   0  0  0  0  0  0  0  0  0  0  0  0
    4.9500   -3.3930   19.9670 O   0  0  0  0  0  0  0  0  0  0  0  0
    6.3100   -2.6350   22.0430 N   0  0  0  0  0  0  0  0  0  0  0  0
    7.1140   -1.4740   21.8930 C   0  0  0  0  0  0  0  0  0  0  0  0
    6.8840   -0.2660   21.1420 C   0  0  0  0  0  0  0  0  0  0  0  0
    7.9820    0.7970   21.2020 C   0  0  0  0  0  0  0  0  0  0  0  0
    9.3010    0.7670   21.9460 C   0  0  0  0  0  0  0  0  0  0  0  0
   10.1310   -0.1540   22.8760 C   0  0  0  0  0  0  0  0  0  0  0  0
   10.6350   -1.6890   22.0580 Cl  0  0  0  0  0  0  0  0  0  0  0  0
   11.4010    0.6080   23.2430 C   0  0  0  0  0  0  0  0  0  0  0  0
   12.0760   -0.3140   24.2740 C   0  0  0  0  0  0  0  0  0  0  0  0
   10.8710   -0.8660   25.0650 C   0  0  0  0  0  0  0  0  0  0  0  0
    9.6100   -0.4260   24.2990 C   0  0  0  0  0  0  0  0  0  0  0  0
    8.1860   -0.0540   21.7530 C   0  0  0  0  0  0  0  0  0  0  0  0
    8.3210   -1.1630   22.4060 N   0  0  0  0  0  0  0  0  0  0  0  0
    6.5150   -3.3740   23.3450 C   0  0  1  0  0  0  0  0  0  0  0  0
    5.5190   -4.2830   23.7040 C   0  0  0  0  0  0  0  0  0  0  0  0
    5.7030   -5.1600   24.5500 O   0  0  0  0  0  0  0  0  0  0  0  0
    4.2660   -4.1620   23.1050 N   0  0  0  0  0  0  0  0  0  0  0  0
    3.3920   -5.3120   23.1910 C   0  0  0  0  0  0  0  0  0  0  0  0
    7.9530   -3.9020   23.5380 C   0  0  0  0  0  0  0  0  0  0  0  0
    9.3200   -4.6440   23.6360 C   0  0  0  0  0  0  0  0  0  0  0  0
   10.4540   -4.0930   24.1340 N   0  0  0  0  0  0  0  0  0  0  0  0
    9.2590   -4.3370   23.7260 C   0  0  0  0  0  0  0  0  0  0  0  0
    8.7600   -5.7610   23.0960 C   0  0  0  0  0  0  0  0  0  0  0  0
    7.5980   -5.0660   23.0240 C   0  0  0  0  0  0  0  0  0  0  0  0
    6.4670   -5.7170   22.4800 C   0  0  0  0  0  0  0  0  0  0  0  0
  1  2  1  0
  2  3  1  0
  3  4  2  0
  3  5  1  0
  5  6  1  0
  6  7  2  0
  7  8  1  0
  8  9  2  0
  9 10  1  0
 10 11  1  0
 10 12  1  0
 12 13  1  0
 13 14  1  0
 10 15  1  0
 14 15  1  0
  9 16  1  0
  6 17  1  0
 16 17  2  0
  5 18  1  0
 18 19  1  6
 19 20  2  0
 19 21  1  0
 21 22  1  0
 18 23  1  0
 23 24  2  0
 24 25  1  0
 25 26  2  0
 26 27  1  0
 23 28  1  0
 27 28  2  0
 28 29  1  0
M  END
