DAR-DIA-23aa0b97-9-nitrile
     RDKit          3D

 19 20  0  0  0  0  0  0  0  0999 V2000
    8.0350   -3.4350   19.6310 C   0  0  0  0  0  0  0  0  0  0  0  0
    7.7650   -2.9430   18.3900 N   0  0  0  0  0  0  0  0  0  0  0  0
    8.5390   -2.5310   20.8790 C   0  0  0  0  0  0  0  0  0  0  0  0
    9.9050   -2.5840   21.3360 C   0  0  0  0  0  0  0  0  0  0  0  0
   10.5020   -1.9490   22.3240 N   0  0  0  0  0  0  0  0  0  0  0  0
    9.6590   -1.1800   22.9140 C   0  0  0  0  0  0  0  0  0  0  0  0
    8.3320   -1.0490   22.5530 C   0  0  0  0  0  0  0  0  0  0  0  0
    7.5910   -0.1590   23.2990 N   0  0  0  0  0  0  0  0  0  0  0  0
    6.8730    0.7760   22.6230 C   0  0  0  0  0  0  0  0  0  0  0  0
    6.9430    1.9880   22.7730 O   0  0  0  0  0  0  0  0  0  0  0  0
    6.0710    0.1110   21.7160 N   0  0  0  0  0  0  0  0  0  0  0  0
    5.7790    0.5370   20.4170 C   0  0  0  0  0  0  0  0  0  0  0  0
    6.5210    0.2030   19.1400 C   0  0  0  0  0  0  0  0  0  0  0  0
    6.2060    0.6520   17.9070 N   0  0  0  0  0  0  0  0  0  0  0  0
    5.1280    1.4650   17.8750 C   0  0  0  0  0  0  0  0  0  0  0  0
    4.3170    1.8810   18.9250 C   0  0  0  0  0  0  0  0  0  0  0  0
    3.2260    2.7250   18.7440 N   0  0  0  0  0  0  0  0  0  0  0  0
    4.6850    1.3670   20.2830 C   0  0  0  0  0  0  0  0  0  0  0  0
    7.5570   -1.6800   21.5000 C   0  0  0  0  0  0  0  0  0  0  0  0
  1  2  2  3
  1  3  1  0
  3  4  2  0
  4  5  1  0
  5  6  2  0
  6  7  1  0
  7  8  1  0
  8  9  1  0
  9 10  2  0
  9 11  1  0
 11 12  1  0
 12 13  2  0
 13 14  1  0
 14 15  2  0
 15 16  1  0
 16 17  1  0
 12 18  1  0
 16 18  2  0
  3 19  1  0
  7 19  2  0
M  END
