DAR-DIA-caba39e3-6-nitrile
     RDKit          3D

 28 31  0  0  0  0  0  0  0  0999 V2000
    6.7090   -3.6220   19.9360 C   0  0  0  0  0  0  0  0  0  0  0  0
    5.7930   -3.3850   19.0850 N   0  0  0  0  0  0  0  0  0  0  0  0
    6.6990   -3.0070   21.1730 N   0  0  0  0  0  0  0  0  0  0  0  0
    6.2090   -3.6820   22.3190 C   0  0  0  0  0  0  0  0  0  0  0  0
    7.0140   -3.6790   23.4590 C   0  0  0  0  0  0  0  0  0  0  0  0
    6.6410   -4.4040   24.6130 C   0  0  0  0  0  0  0  0  0  0  0  0
    7.4430   -4.4160   25.7670 C   0  0  0  0  0  0  0  0  0  0  0  0
    8.7150   -3.6400   25.7610 C   0  0  0  0  0  0  0  0  0  0  0  0
    9.0210   -2.9500   24.5990 C   0  0  0  0  0  0  0  0  0  0  0  0
    8.2140   -2.9550   23.4740 C   0  0  0  0  0  0  0  0  0  0  0  0
    8.6740   -2.2110   22.3730 C   0  0  2  0  0  0  0  0  0  0  0  0
    9.6260   -1.0520   22.7740 C   0  0  0  0  0  0  0  0  0  0  0  0
    9.2240    0.2010   23.5350 C   0  0  0  0  0  0  0  0  0  0  0  0
   10.1530    1.1560   23.8430 C   0  0  0  0  0  0  0  0  0  0  0  0
    9.7960    2.2550   24.5070 F   0  0  0  0  0  0  0  0  0  0  0  0
   11.5720    0.9080   23.4040 C   0  0  0  0  0  0  0  0  0  0  0  0
   12.1480   -0.1990   22.6750 C   0  0  0  0  0  0  0  0  0  0  0  0
   12.0560   -1.3560   22.0610 C   0  0  0  0  0  0  0  0  0  0  0  0
   13.2140   -1.9100   21.4950 C   0  0  0  0  0  0  0  0  0  0  0  0
   13.1930   -3.2720   21.0580 C   0  0  0  0  0  0  0  0  0  0  0  0
   14.0730   -3.9030   20.1970 N   0  0  0  0  0  0  0  0  0  0  0  0
   14.6010   -5.1450   20.3670 C   0  0  0  0  0  0  0  0  0  0  0  0
   15.9930   -5.3120   20.0170 C   0  0  0  0  0  0  0  0  0  0  0  0
   14.0750   -6.1620   20.6640 O   0  0  0  0  0  0  0  0  0  0  0  0
   10.6330   -2.0620   21.9780 C   0  0  0  0  0  0  0  0  0  0  0  0
   11.7490   -2.2600   21.6250 N   0  0  0  0  0  0  0  0  0  0  0  0
   11.1380   -1.1340   22.3870 C   0  0  0  0  0  0  0  0  0  0  0  0
    7.4880   -1.7950   21.4800 C   0  0  0  0  0  0  0  0  0  0  0  0
  1  2  2  3
  1  3  1  0
  3  4  1  0
  4  5  1  0
  5  6  1  0
  6  7  2  0
  7  8  1  0
  8  9  2  0
  5 10  2  0
  9 10  1  0
 10 11  1  0
 11 12  1  1
 12 13  2  0
 13 14  1  0
 14 15  1  0
 14 16  2  0
 16 17  1  0
 17 18  1  0
 18 19  1  0
 19 20  1  0
 20 21  1  0
 21 22  1  0
 22 23  1  0
 22 24  2  0
 18 25  2  0
 25 26  1  0
 12 27  1  0
 17 27  2  0
 26 27  1  0
  3 28  1  0
 11 28  1  0
M  END
