DAR-DIA-2b784ede-51-acrylamide
     RDKit          3D

 34 36  0  0  0  0  0  0  0  0999 V2000
    7.3170   -4.0290   20.4640 C   0  0  0  0  0  0  0  0  0  0  0  0
    6.0880   -3.6670   21.2990 C   0  0  0  0  0  0  0  0  0  0  0  0
    5.3580   -2.6800   20.4390 C   0  0  0  0  0  0  0  0  0  0  0  0
    4.6050   -3.1910   19.6090 O   0  0  0  0  0  0  0  0  0  0  0  0
    5.5330   -1.2740   20.5210 N   0  0  0  0  0  0  0  0  0  0  0  0
    4.8880   -0.6330   19.3330 C   0  0  0  0  0  0  0  0  0  0  0  0
    4.4270    0.0300   20.5180 C   0  0  0  0  0  0  0  0  0  0  0  0
    5.1890   -0.9110   21.3860 C   0  0  0  0  0  0  0  0  0  0  0  0
    5.0950   -0.7490   22.9080 C   0  0  0  0  0  0  0  0  0  0  0  0
    3.7380   -0.2180   23.3390 C   0  0  0  0  0  0  0  0  0  0  0  0
    6.1050    0.2670   23.4620 C   0  0  0  0  0  0  0  0  0  0  0  0
    5.2920   -2.1040   23.6260 C   0  0  0  0  0  0  0  0  0  0  0  0
    5.9400   -1.9030   20.5460 N   0  0  0  0  0  0  0  0  0  0  0  0
    5.6560   -1.6200   19.1660 N   0  0  0  0  0  0  0  0  0  0  0  0
    6.9960   -0.7860   20.4750 C   0  0  1  0  0  0  0  0  0  0  0  0
    7.9320   -1.5100   21.3490 C   0  0  0  0  0  0  0  0  0  0  0  0
    7.5070   -2.3140   22.1680 O   0  0  0  0  0  0  0  0  0  0  0  0
    9.3420   -1.2790   21.3010 N   0  0  0  0  0  0  0  0  0  0  0  0
   10.3310   -1.2490   22.4730 C   0  0  0  0  0  0  0  0  0  0  0  0
   11.8250   -1.7190   22.3640 C   0  0  0  0  0  0  0  0  0  0  0  0
   12.5240   -2.2790   21.1290 C   0  0  0  0  0  0  0  0  0  0  0  0
   12.6900   -1.6590   23.4710 C   0  0  0  0  0  0  0  0  0  0  0  0
   12.2740   -1.1860   24.7120 C   0  0  0  0  0  0  0  0  0  0  0  0
   10.9720   -0.7540   24.9130 C   0  0  0  0  0  0  0  0  0  0  0  0
    9.9390   -0.7800   23.7570 C   0  0  0  0  0  0  0  0  0  0  0  0
    8.5300   -0.2750   24.1340 C   0  0  0  0  0  0  0  0  0  0  0  0
    8.5180    0.6840   25.3250 C   0  0  0  0  0  0  0  0  0  0  0  0
    7.8220   -1.5370   24.6240 C   0  0  0  0  0  0  0  0  0  0  0  0
    7.2330   -0.7250   18.9420 C   0  0  0  0  0  0  0  0  0  0  0  0
    7.5990   -1.8440   18.1770 C   0  0  0  0  0  0  0  0  0  0  0  0
    7.7840   -1.7370   16.7980 C   0  0  0  0  0  0  0  0  0  0  0  0
    7.6030   -0.5110   16.1870 C   0  0  0  0  0  0  0  0  0  0  0  0
    7.2480    0.5910   16.8660 N   0  0  0  0  0  0  0  0  0  0  0  0
    7.0710    0.4660   18.2080 C   0  0  0  0  0  0  0  0  0  0  0  0
  1  2  1  0
  2  3  1  0
  3  4  2  0
  3  5  1  0
  5  6  1  0
  6  7  2  0
  7  8  1  0
  8  9  1  0
  9 10  1  0
  9 11  1  0
  9 12  1  0
  8 13  2  0
  6 14  1  0
 13 14  1  0
  5 15  1  0
 15 16  1  1
 16 17  2  0
 16 18  1  0
 18 19  1  0
 19 20  2  0
 20 21  1  0
 20 22  1  0
 22 23  2  0
 23 24  1  0
 19 25  1  0
 24 25  2  0
 25 26  1  0
 26 27  1  0
 26 28  1  0
 15 29  1  0
 29 30  2  0
 30 31  1  0
 31 32  2  0
 32 33  1  0
 29 34  1  0
 33 34  2  0
M  END
