DAR-DIA-eace69ff-20
     RDKit          3D

 23 25  0  0  0  0  0  0  0  0999 V2000
   13.5090   -2.8990   22.6640 C   0  0  0  0  0  0  0  0  0  0  0  0
   13.0880   -1.8460   21.7570 C   0  0  0  0  0  0  0  0  0  0  0  0
   12.2980   -0.7920   22.4580 C   0  0  0  0  0  0  0  0  0  0  0  0
   11.2060   -1.4000   23.0650 C   0  0  0  0  0  0  0  0  0  0  0  0
   10.3110   -0.6140   23.7480 C   0  0  0  0  0  0  0  0  0  0  0  0
   10.5150    0.8050   23.7960 C   0  0  0  0  0  0  0  0  0  0  0  0
   11.6090    1.3280   23.1810 C   0  0  0  0  0  0  0  0  0  0  0  0
   12.5410    0.5710   22.5230 C   0  0  0  0  0  0  0  0  0  0  0  0
   11.6320    2.8270   23.3120 C   0  0  0  0  0  0  0  0  0  0  0  0
   12.5940    3.8160   22.7840 C   0  0  0  0  0  0  0  0  0  0  0  0
   12.3030    5.1740   23.2460 N   0  0  0  0  0  0  0  0  0  0  0  0
   10.9640    5.5410   22.8000 C   0  0  0  0  0  0  0  0  0  0  0  0
   13.2190    6.0990   22.5960 C   0  0  0  0  0  0  0  0  0  0  0  0
   10.4810    3.0330   24.0570 C   0  0  0  0  0  0  0  0  0  0  0  0
    9.7930    1.8360   24.3600 N   0  0  0  0  0  0  0  0  0  0  0  0
    8.5320    1.7270   25.1220 C   0  0  0  0  0  0  0  0  0  0  0  0
    7.9130    2.7330   25.4770 O   0  0  0  0  0  0  0  0  0  0  0  0
    8.0480    0.4590   25.4110 C   0  0  0  0  0  0  0  0  0  0  0  0
    8.8450   -0.3640   26.4230 C   0  0  0  0  0  0  0  0  0  0  0  0
    8.4210   -1.6480   26.7760 C   0  0  0  0  0  0  0  0  0  0  0  0
    7.2670   -2.2150   26.2120 C   0  0  0  0  0  0  0  0  0  0  0  0
    6.5270   -1.4980   25.2910 C   0  0  0  0  0  0  0  0  0  0  0  0
    6.9050   -0.1160   24.8590 C   0  0  0  0  0  0  0  0  0  0  0  0
  1  2  1  0
  2  3  1  0
  3  4  2  0
  4  5  1  0
  5  6  2  0
  6  7  1  0
  3  8  1  0
  7  8  2  0
  7  9  1  0
  9 10  1  0
 10 11  1  0
 11 12  1  0
 11 13  1  0
  9 14  2  0
  6 15  1  0
 14 15  1  0
 15 16  1  0
 16 17  2  0
 16 18  1  0
 18 19  2  0
 19 20  1  0
 20 21  2  0
 21 22  1  0
 18 23  1  0
 22 23  2  0
M  END
