DAR-DIA-2b784ede-50-chloroacetamide
     RDKit          3D

 34 36  0  0  0  0  0  0  0  0999 V2000
    7.4830   -2.8420   18.4470 C   0  0  0  0  0  0  0  0  0  0  0  0
    6.3080   -2.5950   19.3760 C   0  0  0  0  0  0  0  0  0  0  0  0
    5.5170   -3.5830   19.4550 O   0  0  0  0  0  0  0  0  0  0  0  0
    6.0900   -1.2810   20.0070 N   0  0  0  0  0  0  0  0  0  0  0  0
    5.3620   -0.2410   19.2480 C   0  0  0  0  0  0  0  0  0  0  0  0
    4.7520   -0.6050   20.5060 C   0  0  0  0  0  0  0  0  0  0  0  0
    5.7490   -1.6640   20.8050 C   0  0  0  0  0  0  0  0  0  0  0  0
    5.6660   -2.4820   21.9730 C   0  0  0  0  0  0  0  0  0  0  0  0
    4.7250   -2.0970   22.9220 C   0  0  0  0  0  0  0  0  0  0  0  0
    5.3960   -3.9610   21.6230 C   0  0  0  0  0  0  0  0  0  0  0  0
    6.9370   -2.5590   22.8170 C   0  0  0  0  0  0  0  0  0  0  0  0
    6.7600   -1.6860   19.6800 N   0  0  0  0  0  0  0  0  0  0  0  0
    6.4270   -0.6850   18.6330 N   0  0  0  0  0  0  0  0  0  0  0  0
    7.1440   -0.4530   20.7920 C   0  0  2  0  0  0  0  0  0  0  0  0
    8.2030   -1.0710   21.5230 C   0  0  0  0  0  0  0  0  0  0  0  0
    8.7510   -2.0410   21.0850 O   0  0  0  0  0  0  0  0  0  0  0  0
    8.5600   -0.5810   22.6920 N   0  0  0  0  0  0  0  0  0  0  0  0
    9.2750    0.5550   22.6860 C   0  0  0  0  0  0  0  0  0  0  0  0
   10.2760    1.5650   22.7290 C   0  0  0  0  0  0  0  0  0  0  0  0
    9.7900    2.8480   22.5620 C   0  0  0  0  0  0  0  0  0  0  0  0
    9.0360    3.2170   23.6710 C   0  0  0  0  0  0  0  0  0  0  0  0
   11.7380    1.7230   22.9010 C   0  0  0  0  0  0  0  0  0  0  0  0
   12.5060    0.6400   23.0820 C   0  0  0  0  0  0  0  0  0  0  0  0
   11.8300   -0.6950   23.1040 C   0  0  0  0  0  0  0  0  0  0  0  0
   10.2890   -0.5170   22.9000 C   0  0  0  0  0  0  0  0  0  0  0  0
   10.1200   -2.0520   23.0030 C   0  0  0  0  0  0  0  0  0  0  0  0
   10.6050   -2.0280   24.4660 C   0  0  0  0  0  0  0  0  0  0  0  0
    9.8510   -2.8890   25.1930 O   0  0  0  0  0  0  0  0  0  0  0  0
    6.4000    0.5850   21.6440 C   0  0  0  0  0  0  0  0  0  0  0  0
    6.0530    0.3120   23.1020 C   0  0  0  0  0  0  0  0  0  0  0  0
    5.3450    1.3270   23.8580 C   0  0  0  0  0  0  0  0  0  0  0  0
    4.9960    2.5940   23.1460 C   0  0  0  0  0  0  0  0  0  0  0  0
    5.3110    2.8250   21.8520 N   0  0  0  0  0  0  0  0  0  0  0  0
    5.9840    1.8480   21.1510 C   0  0  0  0  0  0  0  0  0  0  0  0
  1  2  1  0
  2  3  2  0
  2  4  1  0
  4  5  1  0
  5  6  2  0
  6  7  1  0
  7  8  1  0
  8  9  1  0
  8 10  1  0
  8 11  1  0
  7 12  2  0
  5 13  1  0
 12 13  1  0
  4 14  1  0
 14 15  1  1
 15 16  2  0
 15 17  1  0
 17 18  1  0
 18 19  2  0
 19 20  1  0
 20 21  1  0
 19 22  1  0
 22 23  2  0
 23 24  1  0
 18 25  1  0
 24 25  2  0
 25 26  1  0
 26 27  1  0
 27 28  1  0
 14 29  1  0
 29 30  2  0
 30 31  1  0
 31 32  2  0
 32 33  1  0
 29 34  1  0
 33 34  2  0
M  END
