DAR-DIA-2b784ede-53-vinylsulfonamide
     RDKit          3D

 35 37  0  0  0  0  0  0  0  0999 V2000
    6.2800   -4.5620   20.0640 C   0  0  0  0  0  0  0  0  0  0  0  0
    6.2810   -4.3180   21.5830 C   0  0  0  0  0  0  0  0  0  0  0  0
    5.0090   -3.1100   21.7490 S   0  0  0  0  0  0  0  0  0  0  0  0
    4.7520   -2.9290   20.3390 O   0  0  0  0  0  0  0  0  0  0  0  0
    3.9740   -3.6960   22.5860 O   0  0  0  0  0  0  0  0  0  0  0  0
    5.5100   -1.5900   22.4340 N   0  0  0  0  0  0  0  0  0  0  0  0
    4.4010   -0.7740   22.9450 C   0  0  0  0  0  0  0  0  0  0  0  0
    5.0060   -1.8960   23.5880 C   0  0  0  0  0  0  0  0  0  0  0  0
    6.1810   -2.6700   22.8730 C   0  0  0  0  0  0  0  0  0  0  0  0
    6.2260   -1.7530   21.4990 C   0  0  0  0  0  0  0  0  0  0  0  0
    7.2540   -2.2050   20.4770 C   0  0  0  0  0  0  0  0  0  0  0  0
    7.3800   -1.1980   19.3510 C   0  0  0  0  0  0  0  0  0  0  0  0
    8.6380   -2.5690   21.0600 C   0  0  0  0  0  0  0  0  0  0  0  0
    5.5120   -0.6080   20.9970 N   0  0  0  0  0  0  0  0  0  0  0  0
    4.4910   -0.0770   21.8350 C   0  0  0  0  0  0  0  0  0  0  0  0
    6.5610   -1.5400   23.5570 C   0  0  2  0  0  0  0  0  0  0  0  0
    7.9260   -1.3150   23.1330 C   0  0  0  0  0  0  0  0  0  0  0  0
    8.1040   -0.6380   22.1040 O   0  0  0  0  0  0  0  0  0  0  0  0
    9.0130   -1.8390   23.9210 N   0  0  0  0  0  0  0  0  0  0  0  0
   10.2550   -2.3710   23.3890 C   0  0  0  0  0  0  0  0  0  0  0  0
    9.4530   -3.6050   23.7120 C   0  0  0  0  0  0  0  0  0  0  0  0
    8.3640   -4.5820   24.1690 C   0  0  0  0  0  0  0  0  0  0  0  0
    7.6160   -5.2820   23.0560 C   0  0  0  0  0  0  0  0  0  0  0  0
    8.4120   -2.7260   24.2040 C   0  0  0  0  0  0  0  0  0  0  0  0
    8.3210   -1.2770   24.2840 C   0  0  0  0  0  0  0  0  0  0  0  0
    9.4220   -0.2740   23.8100 C   0  0  0  0  0  0  0  0  0  0  0  0
   10.5910   -1.0420   23.2720 C   0  0  0  0  0  0  0  0  0  0  0  0
   11.8840   -0.4490   22.7230 C   0  0  0  0  0  0  0  0  0  0  0  0
   12.9070   -0.5150   23.7080 O   0  0  0  0  0  0  0  0  0  0  0  0
    6.2290   -2.3690   24.8360 C   0  0  0  0  0  0  0  0  0  0  0  0
    5.7960   -3.7180   24.8610 C   0  0  0  0  0  0  0  0  0  0  0  0
    5.5140   -4.3450   26.0750 C   0  0  0  0  0  0  0  0  0  0  0  0
    5.6650   -3.6250   27.2590 C   0  0  0  0  0  0  0  0  0  0  0  0
    6.0750   -2.3430   27.2940 N   0  0  0  0  0  0  0  0  0  0  0  0
    6.3450   -1.7530   26.0970 C   0  0  0  0  0  0  0  0  0  0  0  0
  1  2  1  0
  2  3  1  0
  3  4  2  0
  3  5  2  0
  3  6  1  0
  6  7  1  0
  7  8  2  0
  8  9  1  0
  9 10  2  0
 10 11  1  0
 11 12  1  0
 11 13  1  0
 10 14  1  0
  7 15  1  0
 14 15  2  0
  6 16  1  0
 16 17  1  6
 17 18  2  0
 17 19  1  0
 19 20  1  0
 20 21  2  0
 21 22  1  0
 22 23  1  0
 21 24  1  0
 24 25  2  0
 25 26  1  0
 20 27  1  0
 26 27  2  0
 27 28  1  0
 28 29  1  0
 16 30  1  0
 30 31  2  0
 31 32  1  0
 32 33  2  0
 33 34  1  0
 30 35  1  0
 34 35  2  0
M  END
