DAR-DIA-caba39e3-2-chloroacetamide
     RDKit          3D

 21 23  0  0  0  0  0  0  0  0999 V2000
    7.3630   -2.9920   18.8880 C   0  0  0  0  0  0  0  0  0  0  0  0
    6.4880   -3.4070   20.0220 C   0  0  0  0  0  0  0  0  0  0  0  0
    5.5570   -4.2130   19.8510 O   0  0  0  0  0  0  0  0  0  0  0  0
    6.7740   -2.8810   21.2930 N   0  0  0  0  0  0  0  0  0  0  0  0
    6.2170   -3.3600   22.4600 C   0  0  0  0  0  0  0  0  0  0  0  0
    7.3030   -3.8150   23.4350 C   0  0  0  0  0  0  0  0  0  0  0  0
    6.8020   -4.7250   24.5450 C   0  0  0  0  0  0  0  0  0  0  0  0
    7.7860   -5.2720   25.6110 C   0  0  0  0  0  0  0  0  0  0  0  0
    9.2560   -4.8170   25.4270 C   0  0  0  0  0  0  0  0  0  0  0  0
    9.5300   -3.9050   24.2530 C   0  0  0  0  0  0  0  0  0  0  0  0
    8.5980   -3.4300   23.3070 C   0  0  0  0  0  0  0  0  0  0  0  0
    9.0760   -2.6160   22.3450 C   0  0  2  0  0  0  0  0  0  0  0  0
    9.9730   -1.6140   22.8060 C   0  0  0  0  0  0  0  0  0  0  0  0
    9.4650   -0.7660   23.8810 C   0  0  0  0  0  0  0  0  0  0  0  0
   10.4070    0.2440   24.3450 C   0  0  0  0  0  0  0  0  0  0  0  0
   11.6640    0.3710   23.8020 C   0  0  0  0  0  0  0  0  0  0  0  0
   12.1510   -0.4280   22.7850 C   0  0  0  0  0  0  0  0  0  0  0  0
   13.2300   -0.2780   22.3390 O   0  0  0  0  0  0  0  0  0  0  0  0
   13.4700    1.0400   22.7000 C   0  0  0  0  0  0  0  0  0  0  0  0
   11.3670   -1.4120   22.2640 C   0  0  0  0  0  0  0  0  0  0  0  0
    7.9060   -1.9510   21.5450 C   0  0  0  0  0  0  0  0  0  0  0  0
  1  2  1  0
  2  3  2  0
  2  4  1  0
  4  5  1  0
  5  6  1  0
  6  7  1  0
  7  8  2  0
  8  9  1  0
  9 10  2  0
  6 11  2  0
 10 11  1  0
 11 12  1  0
 12 13  1  1
 13 14  2  0
 14 15  1  0
 15 16  2  0
 16 17  1  0
 17 18  1  0
 18 19  1  0
 13 20  1  0
 17 20  2  0
  4 21  1  0
 12 21  1  0
M  END
