DAR-DIA-2b784ede-35-vinylsulfonamide
     RDKit          3D

 35 37  0  0  0  0  0  0  0  0999 V2000
    6.7860   -3.7850   19.9130 C   0  0  0  0  0  0  0  0  0  0  0  0
    6.3340   -2.3850   19.6700 C   0  0  0  0  0  0  0  0  0  0  0  0
    5.2940   -1.8810   20.9840 S   0  0  0  0  0  0  0  0  0  0  0  0
    4.7070   -3.1040   21.5740 O   0  0  0  0  0  0  0  0  0  0  0  0
    4.4660   -0.8650   20.3970 O   0  0  0  0  0  0  0  0  0  0  0  0
    6.1380   -0.9400   22.1290 N   0  0  0  0  0  0  0  0  0  0  0  0
    5.1950   -0.5840   23.1670 C   0  0  0  0  0  0  0  0  0  0  0  0
    4.2530    0.3150   22.8540 C   0  0  0  0  0  0  0  0  0  0  0  0
    3.5330    0.4400   23.9950 C   0  0  0  0  0  0  0  0  0  0  0  0
    2.3810    1.3220   24.1260 C   0  0  0  0  0  0  0  0  0  0  0  0
    1.2540    0.7250   24.8620 C   0  0  0  0  0  0  0  0  0  0  0  0
    2.7630    2.6380   24.4610 C   0  0  0  0  0  0  0  0  0  0  0  0
    1.6770    1.5080   22.7840 C   0  0  0  0  0  0  0  0  0  0  0  0
    3.9700   -0.2950   24.9250 O   0  0  0  0  0  0  0  0  0  0  0  0
    5.1060   -1.0320   24.4450 N   0  0  0  0  0  0  0  0  0  0  0  0
    6.7250    0.2280   21.6320 C   0  0  1  0  0  0  0  0  0  0  0  0
    8.2640    0.0860   21.3350 C   0  0  0  0  0  0  0  0  0  0  0  0
    8.9000    1.2810   21.0690 O   0  0  0  0  0  0  0  0  0  0  0  0
    8.9960   -1.1670   21.3480 N   0  0  0  0  0  0  0  0  0  0  0  0
   10.1150   -1.4150   22.2230 C   0  0  0  0  0  0  0  0  0  0  0  0
    9.7500   -1.1550   23.6950 C   0  0  0  0  0  0  0  0  0  0  0  0
    8.4790   -0.7970   24.0740 C   0  0  0  0  0  0  0  0  0  0  0  0
   10.7470   -1.3180   24.5790 C   0  0  0  0  0  0  0  0  0  0  0  0
   11.0100   -1.5480   23.2750 C   0  0  0  0  0  0  0  0  0  0  0  0
   12.1700   -1.9410   22.8490 C   0  0  0  0  0  0  0  0  0  0  0  0
   11.4280   -1.8860   21.6290 C   0  0  0  0  0  0  0  0  0  0  0  0
   12.7120   -2.3200   21.3210 C   0  0  0  0  0  0  0  0  0  0  0  0
   13.5580   -1.4200   20.7610 C   0  0  0  0  0  0  0  0  0  0  0  0
    5.9960    0.9930   20.6580 C   0  0  0  0  0  0  0  0  0  0  0  0
    6.5760   -0.2250   19.9410 C   0  0  0  0  0  0  0  0  0  0  0  0
    6.6020   -0.7740   18.7220 N   0  0  0  0  0  0  0  0  0  0  0  0
    5.9730   -0.1600   17.7840 C   0  0  0  0  0  0  0  0  0  0  0  0
    5.2740    1.0930   18.0940 C   0  0  0  0  0  0  0  0  0  0  0  0
    5.3360    1.5850   19.5330 C   0  0  0  0  0  0  0  0  0  0  0  0
    4.6260    2.7770   19.7100 C   0  0  0  0  0  0  0  0  0  0  0  0
  1  2  1  0
  2  3  1  0
  3  4  2  0
  3  5  2  0
  3  6  1  0
  6  7  1  0
  7  8  1  0
  8  9  2  0
  9 10  1  0
 10 11  1  0
 10 12  1  0
 10 13  1  0
  9 14  1  0
  7 15  2  0
 14 15  1  0
  6 16  1  0
 16 17  1  6
 17 18  2  0
 17 19  1  0
 19 20  1  0
 20 21  2  0
 21 22  1  0
 21 23  1  0
 23 24  2  0
 24 25  1  0
 20 26  1  0
 25 26  2  0
 26 27  1  0
 27 28  1  0
 16 29  1  0
 29 30  2  0
 30 31  1  0
 31 32  2  0
 32 33  1  0
 29 34  1  0
 33 34  2  0
 34 35  1  0
M  END
