DAR-DIA-a80d16a0-1
     RDKit          3D

 23 25  0  0  0  0  0  0  0  0999 V2000
   13.0570   -2.7110   21.6660 C   0  0  0  0  0  0  0  0  0  0  0  0
   13.2990   -1.5210   22.5130 C   0  0  0  0  0  0  0  0  0  0  0  0
   12.1110   -0.6690   22.7800 C   0  0  0  0  0  0  0  0  0  0  0  0
   10.8630   -1.5450   22.6810 C   0  0  0  0  0  0  0  0  0  0  0  0
   10.0030   -0.4990   22.9600 N   0  0  0  0  0  0  0  0  0  0  0  0
    8.6950   -0.8970   23.0270 C   0  0  0  0  0  0  0  0  0  0  0  0
    8.5920   -2.1030   23.9610 C   0  0  0  0  0  0  0  0  0  0  0  0
    7.9890   -1.9140   25.1980 N   0  0  0  0  0  0  0  0  0  0  0  0
    7.4370   -0.5740   25.4720 C   0  0  0  0  0  0  0  0  0  0  0  0
    7.6280   -3.0870   25.9670 C   0  0  0  0  0  0  0  0  0  0  0  0
   10.2710    0.4960   23.9990 C   0  0  0  0  0  0  0  0  0  0  0  0
   11.2400    1.4110   23.5610 C   0  0  2  0  0  0  0  0  0  0  0  0
   10.6920    2.5000   22.8690 C   0  0  0  0  0  0  0  0  0  0  0  0
    9.2610    2.5740   22.5100 C   0  0  0  0  0  0  0  0  0  0  0  0
    8.2450    3.0600   23.4070 C   0  0  0  0  0  0  0  0  0  0  0  0
    6.8640    3.1530   23.1120 C   0  0  0  0  0  0  0  0  0  0  0  0
    6.4630    2.7490   21.8710 C   0  0  0  0  0  0  0  0  0  0  0  0
    4.8690    2.7420   21.2340 Cl  0  0  0  0  0  0  0  0  0  0  0  0
    7.6020    2.3550   21.2600 C   0  0  0  0  0  0  0  0  0  0  0  0
    8.7270    2.1820   21.2380 N   0  0  0  0  0  0  0  0  0  0  0  0
   11.1630    3.8010   23.1830 C   0  0  0  0  0  0  0  0  0  0  0  0
   11.6380    3.1690   22.0620 C   0  0  0  0  0  0  0  0  0  0  0  0
   12.3540    0.8070   23.0650 C   0  0  0  0  0  0  0  0  0  0  0  0
  1  2  1  0
  2  3  1  0
  3  4  2  0
  4  5  1  0
  5  6  1  0
  6  7  1  0
  7  8  1  0
  8  9  1  0
  8 10  1  0
  5 11  1  0
 11 12  1  0
 12 13  1  6
 13 14  1  0
 14 15  2  0
 15 16  1  0
 16 17  2  0
 17 18  1  0
 17 19  1  0
 14 20  1  0
 19 20  2  0
 13 21  1  0
 13 22  1  0
 21 22  1  0
  3 23  1  0
 12 23  1  0
M  END
