DAR-DIA-caba39e3-11-chloroacetamide
     RDKit          3D

 31 34  0  0  0  0  0  0  0  0999 V2000
    7.3250   -3.0570   18.8680 C   0  0  0  0  0  0  0  0  0  0  0  0
    6.4440   -3.3930   20.0390 C   0  0  0  0  0  0  0  0  0  0  0  0
    5.5150   -4.1970   19.8240 O   0  0  0  0  0  0  0  0  0  0  0  0
    6.7570   -2.7970   21.2870 N   0  0  0  0  0  0  0  0  0  0  0  0
    6.2840   -3.4020   22.5150 C   0  0  0  0  0  0  0  0  0  0  0  0
    7.2140   -3.8750   23.4500 C   0  0  0  0  0  0  0  0  0  0  0  0
    6.8360   -4.7130   24.5140 C   0  0  0  0  0  0  0  0  0  0  0  0
    7.8700   -5.1990   25.4910 C   0  0  0  0  0  0  0  0  0  0  0  0
    9.1780   -4.7900   25.2920 C   0  0  0  0  0  0  0  0  0  0  0  0
    9.5440   -3.9620   24.2460 C   0  0  0  0  0  0  0  0  0  0  0  0
    8.5600   -3.5230   23.3510 C   0  0  0  0  0  0  0  0  0  0  0  0
    9.0700   -2.6070   22.2390 C   0  0  2  0  0  0  0  0  0  0  0  0
   10.0070   -1.4870   22.6850 C   0  0  0  0  0  0  0  0  0  0  0  0
   11.3340   -1.4310   22.3490 C   0  0  0  0  0  0  0  0  0  0  0  0
   12.2460   -0.3500   22.7640 C   0  0  0  0  0  0  0  0  0  0  0  0
   13.3750   -0.4730   22.3660 O   0  0  0  0  0  0  0  0  0  0  0  0
   13.3870   -1.5600   21.4460 C   0  0  0  0  0  0  0  0  0  0  0  0
   11.6710    0.6710   23.5550 C   0  0  0  0  0  0  0  0  0  0  0  0
   10.2990    0.6020   23.8930 C   0  0  0  0  0  0  0  0  0  0  0  0
    9.6630    1.5820   24.6610 C   0  0  0  0  0  0  0  0  0  0  0  0
    8.2020    1.5580   25.0470 C   0  0  0  0  0  0  0  0  0  0  0  0
    7.6690    2.7200   25.8810 C   0  0  0  0  0  0  0  0  0  0  0  0
    7.1890    2.3780   27.2810 C   0  0  0  0  0  0  0  0  0  0  0  0
    6.8200    3.5480   28.0610 N   0  0  0  0  0  0  0  0  0  0  0  0
    7.5940    4.7880   28.0120 C   0  0  0  0  0  0  0  0  0  0  0  0
    8.3700    4.9820   29.1600 C   0  0  0  0  0  0  0  0  0  0  0  0
    7.5720    5.7220   26.9190 O   0  0  0  0  0  0  0  0  0  0  0  0
    7.4200    0.5080   24.6360 C   0  0  0  0  0  0  0  0  0  0  0  0
    8.0110   -0.4990   23.8630 C   0  0  0  0  0  0  0  0  0  0  0  0
    9.4700   -0.4660   23.4710 C   0  0  0  0  0  0  0  0  0  0  0  0
    7.9150   -1.9230   21.4690 C   0  0  0  0  0  0  0  0  0  0  0  0
  1  2  1  0
  2  3  2  0
  2  4  1  0
  4  5  1  0
  5  6  1  0
  6  7  1  0
  7  8  2  0
  8  9  1  0
  9 10  2  0
  6 11  2  0
 10 11  1  0
 11 12  1  0
 12 13  1  1
 13 14  2  0
 14 15  1  0
 15 16  1  0
 16 17  1  0
 15 18  2  0
 18 19  1  0
 19 20  1  0
 20 21  2  0
 21 22  1  0
 22 23  1  0
 23 24  1  0
 24 25  1  0
 25 26  1  0
 25 27  2  0
 21 28  1  0
 28 29  2  0
 13 30  1  0
 19 30  2  0
 29 30  1  0
  4 31  1  0
 12 31  1  0
M  END
