DAR-DIA-03336633-5
     RDKit          3D

 28 30  0  0  0  0  0  0  0  0999 V2000
    5.3010   -3.5350   19.9660 O   0  0  0  0  0  0  0  0  0  0  0  0
    5.8450   -3.0210   20.9410 C   0  0  0  0  0  0  0  0  0  0  0  0
    6.2180   -3.8520   22.1460 C   0  0  0  0  0  0  0  0  0  0  0  0
    7.6950   -4.2240   21.9780 C   0  0  0  0  0  0  0  0  0  0  0  0
    8.5600   -2.9680   21.7470 C   0  0  0  0  0  0  0  0  0  0  0  0
    9.9040   -3.2760   22.3240 C   0  0  0  0  0  0  0  0  0  0  0  0
    9.9690   -4.0570   23.4410 C   0  0  0  0  0  0  0  0  0  0  0  0
    9.4130   -5.3190   23.2270 C   0  0  0  0  0  0  0  0  0  0  0  0
    8.0480   -5.1370   22.9660 C   0  0  0  0  0  0  0  0  0  0  0  0
    6.1730   -1.6070   20.9680 N   0  0  0  0  0  0  0  0  0  0  0  0
    5.8570   -0.6110   20.0100 C   0  0  0  0  0  0  0  0  0  0  0  0
    6.4780   -0.5660   18.6070 C   0  0  0  0  0  0  0  0  0  0  0  0
    6.1020    0.4400   17.7420 N   0  0  0  0  0  0  0  0  0  0  0  0
    5.1720    1.3570   18.2080 C   0  0  0  0  0  0  0  0  0  0  0  0
    4.6090    1.3330   19.4670 C   0  0  0  0  0  0  0  0  0  0  0  0
    4.9390    0.3580   20.3860 C   0  0  0  0  0  0  0  0  0  0  0  0
    4.3530    0.3620   21.6540 C   0  0  0  0  0  0  0  0  0  0  0  0
    4.7630    1.4770   22.4230 C   0  0  0  0  0  0  0  0  0  0  0  0
    3.9370    2.5410   22.5970 N   0  0  0  0  0  0  0  0  0  0  0  0
    2.8280    2.3680   23.3700 C   0  0  0  0  0  0  0  0  0  0  0  0
    2.7170    1.4900   24.2150 O   0  0  0  0  0  0  0  0  0  0  0  0
    1.8830    3.3020   23.0740 N   0  0  0  0  0  0  0  0  0  0  0  0
    0.7160    3.3330   23.7890 C   0  0  0  0  0  0  0  0  0  0  0  0
   -0.4580    2.8950   23.1470 C   0  0  0  0  0  0  0  0  0  0  0  0
   -1.6950    3.2360   23.7160 C   0  0  0  0  0  0  0  0  0  0  0  0
   -1.8120    4.4680   24.3480 C   0  0  0  0  0  0  0  0  0  0  0  0
   -0.6730    4.9510   24.9710 C   0  0  0  0  0  0  0  0  0  0  0  0
    0.5760    4.5670   24.4690 C   0  0  0  0  0  0  0  0  0  0  0  0
  1  2  2  0
  2  3  1  0
  3  4  1  0
  4  5  1  0
  5  6  1  0
  6  7  1  0
  7  8  1  0
  4  9  1  0
  8  9  1  0
  2 10  1  0
 10 11  1  0
 11 12  2  0
 12 13  1  0
 13 14  2  0
 14 15  1  0
 11 16  1  0
 15 16  2  0
 16 17  1  0
 17 18  1  0
 18 19  1  0
 19 20  1  0
 20 21  2  0
 20 22  1  0
 22 23  1  0
 23 24  1  0
 24 25  1  0
 25 26  1  0
 26 27  1  0
 23 28  1  0
 27 28  1  0
M  END
