DAR-DIA-2b784ede-37-vinylsulfonamide
     RDKit          3D

 36 38  0  0  0  0  0  0  0  0999 V2000
    7.6320   -5.5610   20.2180 C   0  0  0  0  0  0  0  0  0  0  0  0
    7.7990   -4.6970   21.4470 C   0  0  0  0  0  0  0  0  0  0  0  0
    6.9390   -3.1540   21.2190 S   0  0  0  0  0  0  0  0  0  0  0  0
    5.2220   -3.5950   21.2990 O   0  0  0  0  0  0  0  0  0  0  0  0
    7.3000   -2.6760   19.9120 O   0  0  0  0  0  0  0  0  0  0  0  0
    8.3500   -2.2410   22.2760 N   0  0  0  0  0  0  0  0  0  0  0  0
    9.7960   -1.6980   21.7420 C   0  0  0  0  0  0  0  0  0  0  0  0
   11.1430   -1.3190   21.7740 C   0  0  0  0  0  0  0  0  0  0  0  0
   10.5700   -1.0210   23.3230 C   0  0  0  0  0  0  0  0  0  0  0  0
    9.6860   -2.3550   23.6940 C   0  0  0  0  0  0  0  0  0  0  0  0
    8.5770   -2.7080   24.6050 C   0  0  0  0  0  0  0  0  0  0  0  0
    7.7370   -1.5710   25.1730 C   0  0  0  0  0  0  0  0  0  0  0  0
    8.9450   -3.7440   25.6890 C   0  0  0  0  0  0  0  0  0  0  0  0
    7.7370   -3.4030   23.5620 C   0  0  0  0  0  0  0  0  0  0  0  0
   10.6420   -2.9700   23.2870 C   0  0  0  0  0  0  0  0  0  0  0  0
   11.0820   -2.0620   22.5840 C   0  0  0  0  0  0  0  0  0  0  0  0
    8.1560   -0.8440   22.8060 C   0  0  2  0  0  0  0  0  0  0  0  0
    8.0480   -0.0580   21.5460 C   0  0  0  0  0  0  0  0  0  0  0  0
    8.8360    1.1420   21.3060 O   0  0  0  0  0  0  0  0  0  0  0  0
    7.1750   -0.6750   20.7740 N   0  0  0  0  0  0  0  0  0  0  0  0
    6.5590    0.0110   19.7530 C   0  0  0  0  0  0  0  0  0  0  0  0
    7.1460   -0.1660   18.3940 C   0  0  0  0  0  0  0  0  0  0  0  0
    6.6640    0.4690   17.3160 C   0  0  0  0  0  0  0  0  0  0  0  0
    7.3300    0.2000   16.1290 C   0  0  0  0  0  0  0  0  0  0  0  0
    7.3960   -1.3450   15.9610 C   0  0  0  0  0  0  0  0  0  0  0  0
    5.5520    1.3280   17.4920 C   0  0  0  0  0  0  0  0  0  0  0  0
    4.8910    1.5500   18.8480 C   0  0  0  0  0  0  0  0  0  0  0  0
    5.4640    0.8300   20.0210 C   0  0  0  0  0  0  0  0  0  0  0  0
    4.9350    0.9770   21.3130 C   0  0  0  0  0  0  0  0  0  0  0  0
    9.3890   -0.2000   23.4400 C   0  0  0  0  0  0  0  0  0  0  0  0
    8.4550    0.8480   23.1100 C   0  0  0  0  0  0  0  0  0  0  0  0
    8.4170    2.1970   23.2100 N   0  0  0  0  0  0  0  0  0  0  0  0
    9.4520    2.7800   23.7200 C   0  0  0  0  0  0  0  0  0  0  0  0
   10.4720    2.0180   24.1210 C   0  0  0  0  0  0  0  0  0  0  0  0
   10.4380    0.6440   24.0010 C   0  0  0  0  0  0  0  0  0  0  0  0
   11.5880   -0.0010   24.4790 C   0  0  0  0  0  0  0  0  0  0  0  0
  1  2  1  0
  2  3  1  0
  3  4  2  0
  3  5  2  0
  3  6  1  0
  6  7  1  0
  7  8  2  0
  8  9  1  0
  9 10  2  0
 10 11  1  0
 11 12  1  0
 11 13  1  0
 11 14  1  0
 10 15  1  0
  7 16  1  0
 15 16  2  0
  6 17  1  0
 17 18  1  6
 18 19  2  0
 18 20  1  0
 20 21  1  0
 21 22  2  0
 22 23  1  0
 23 24  1  0
 24 25  1  0
 23 26  2  0
 26 27  1  0
 21 28  1  0
 27 28  2  0
 28 29  1  0
 17 30  1  0
 30 31  2  0
 31 32  1  0
 32 33  2  0
 33 34  1  0
 30 35  1  0
 34 35  2  0
 35 36  1  0
M  END
