DAR-DIA-2b784ede-28-acrylamide
     RDKit          3D

 27 28  0  0  0  0  0  0  0  0999 V2000
    6.4860   -3.9870   20.0460 C   0  0  0  0  0  0  0  0  0  0  0  0
    6.7500   -3.4780   21.4770 C   0  0  0  0  0  0  0  0  0  0  0  0
    5.5110   -3.1540   22.3180 C   0  0  0  0  0  0  0  0  0  0  0  0
    5.0570   -4.1410   21.7360 O   0  0  0  0  0  0  0  0  0  0  0  0
    6.3560   -2.1140   22.7600 N   0  0  0  0  0  0  0  0  0  0  0  0
    5.7130   -0.8060   22.9130 C   0  0  0  0  0  0  0  0  0  0  0  0
    5.7570   -0.5260   21.7020 C   0  0  0  0  0  0  0  0  0  0  0  0
    6.2100   -1.2070   20.8290 N   0  0  0  0  0  0  0  0  0  0  0  0
    5.7120   -0.0230   20.3980 N   0  0  0  0  0  0  0  0  0  0  0  0
    6.1810   -0.6330   19.1940 C   0  0  0  0  0  0  0  0  0  0  0  0
    7.5440   -1.1260   19.1630 C   0  0  0  0  0  0  0  0  0  0  0  0
    5.2070   -1.4880   18.7670 C   0  0  0  0  0  0  0  0  0  0  0  0
    6.1790    0.4040   18.1160 C   0  0  0  0  0  0  0  0  0  0  0  0
    6.1070    1.3210   17.1130 N   0  0  0  0  0  0  0  0  0  0  0  0
    5.3390    0.3060   21.8650 C   0  0  0  0  0  0  0  0  0  0  0  0
    7.4280   -2.2570   23.6820 C   0  0  1  0  0  0  0  0  0  0  0  0
    6.9150   -3.2000   24.7880 C   0  0  0  0  0  0  0  0  0  0  0  0
    6.7380   -2.6430   25.8710 O   0  0  0  0  0  0  0  0  0  0  0  0
    6.6590   -4.5190   24.5710 N   0  0  0  0  0  0  0  0  0  0  0  0
    7.5380   -5.4440   23.8280 C   0  0  0  0  0  0  0  0  0  0  0  0
    8.6840   -2.3110   23.0430 C   0  0  0  0  0  0  0  0  0  0  0  0
    9.2840   -2.6190   21.9000 C   0  0  0  0  0  0  0  0  0  0  0  0
   10.4390   -2.2210   22.6040 N   0  0  0  0  0  0  0  0  0  0  0  0
   10.3260   -1.7190   24.1120 C   0  0  0  0  0  0  0  0  0  0  0  0
   11.4920   -1.7070   23.6920 C   0  0  0  0  0  0  0  0  0  0  0  0
   10.2110   -2.0540   23.1910 C   0  0  0  0  0  0  0  0  0  0  0  0
    9.8240   -1.6500   24.4700 C   0  0  0  0  0  0  0  0  0  0  0  0
  1  2  1  0
  2  3  1  0
  3  4  2  0
  3  5  1  0
  5  6  1  0
  6  7  1  0
  7  8  2  0
  8  9  1  0
  9 10  1  0
 10 11  1  0
 10 12  1  0
 10 13  1  0
 13 14  3  0
  6 15  2  0
  9 15  1  0
  5 16  1  0
 16 17  1  6
 17 18  2  0
 17 19  1  0
 19 20  1  0
 16 21  1  0
 21 22  2  0
 22 23  1  0
 23 24  2  0
 24 25  1  0
 21 26  1  0
 25 26  2  0
 26 27  1  0
M  END
