DAR-DIA-23aa0b97-7-nitrile
     RDKit          3D

 19 20  0  0  0  0  0  0  0  0999 V2000
    6.3560   -3.2520   20.1620 C   0  0  0  0  0  0  0  0  0  0  0  0
    5.5860   -3.0370   19.1450 N   0  0  0  0  0  0  0  0  0  0  0  0
    6.7600   -2.0980   21.3370 C   0  0  0  0  0  0  0  0  0  0  0  0
    5.4560   -1.4070   21.0620 C   0  0  0  0  0  0  0  0  0  0  0  0
    4.8150   -0.2620   21.5530 N   0  0  0  0  0  0  0  0  0  0  0  0
    5.3800    0.4920   22.4800 C   0  0  0  0  0  0  0  0  0  0  0  0
    6.5760    0.1210   22.9530 C   0  0  0  0  0  0  0  0  0  0  0  0
    7.3530    0.8160   23.9490 N   0  0  0  0  0  0  0  0  0  0  0  0
    8.1480    0.2480   24.9470 C   0  0  0  0  0  0  0  0  0  0  0  0
    7.7840   -0.6540   25.6880 O   0  0  0  0  0  0  0  0  0  0  0  0
    9.4510    0.7790   25.0830 C   0  0  0  0  0  0  0  0  0  0  0  0
   10.6010    0.3590   24.1590 C   0  0  0  0  0  0  0  0  0  0  0  0
   10.5250   -0.9940   23.5420 C   0  0  0  0  0  0  0  0  0  0  0  0
   11.4240   -1.5380   22.7010 N   0  0  0  0  0  0  0  0  0  0  0  0
   12.4900   -0.7520   22.4190 C   0  0  0  0  0  0  0  0  0  0  0  0
   12.6770    0.6310   22.9920 C   0  0  0  0  0  0  0  0  0  0  0  0
   13.7930    1.4000   22.6780 N   0  0  0  0  0  0  0  0  0  0  0  0
   11.7120    1.1390   23.8570 C   0  0  0  0  0  0  0  0  0  0  0  0
    7.1200   -1.0580   22.3940 C   0  0  0  0  0  0  0  0  0  0  0  0
  1  2  2  3
  1  3  1  0
  3  4  2  0
  4  5  1  0
  5  6  2  0
  6  7  1  0
  7  8  1  0
  8  9  1  0
  9 10  2  0
  9 11  1  0
 11 12  1  0
 12 13  2  0
 13 14  1  0
 14 15  2  0
 15 16  1  0
 16 17  1  0
 12 18  1  0
 16 18  2  0
  3 19  1  0
  7 19  2  0
M  END
