DAR-DIA-eace69ff-11
     RDKit          3D

 30 33  0  0  0  0  0  0  0  0999 V2000
   13.6380   -2.7700   23.4310 C   0  0  0  0  0  0  0  0  0  0  0  0
   13.2360   -2.0000   22.2110 C   0  0  0  0  0  0  0  0  0  0  0  0
   12.4090   -0.8590   22.6800 C   0  0  0  0  0  0  0  0  0  0  0  0
   11.3070   -1.4890   23.2040 C   0  0  0  0  0  0  0  0  0  0  0  0
   10.2450   -0.8400   23.7850 C   0  0  0  0  0  0  0  0  0  0  0  0
    9.2650   -1.4360   24.2550 O   0  0  0  0  0  0  0  0  0  0  0  0
    9.3850   -2.8740   24.4030 C   0  0  0  0  0  0  0  0  0  0  0  0
   10.2820   -3.0470   25.4840 C   0  0  0  0  0  0  0  0  0  0  0  0
   10.3540   -4.3600   26.0330 C   0  0  0  0  0  0  0  0  0  0  0  0
    9.0270   -4.8730   26.4730 C   0  0  0  0  0  0  0  0  0  0  0  0
    8.2210   -4.2290   25.4610 C   0  0  0  0  0  0  0  0  0  0  0  0
    8.1310   -3.4680   24.5690 C   0  0  0  0  0  0  0  0  0  0  0  0
   10.4410    0.6920   23.7650 C   0  0  0  0  0  0  0  0  0  0  0  0
   11.5710    1.2360   23.2150 C   0  0  0  0  0  0  0  0  0  0  0  0
   12.5910    0.5050   22.6670 C   0  0  0  0  0  0  0  0  0  0  0  0
   11.5940    2.7380   23.2600 C   0  0  0  0  0  0  0  0  0  0  0  0
   12.5880    3.7930   22.7690 C   0  0  0  0  0  0  0  0  0  0  0  0
   12.2880    5.1680   23.1610 N   0  0  0  0  0  0  0  0  0  0  0  0
   10.9340    5.5630   22.7930 C   0  0  0  0  0  0  0  0  0  0  0  0
   13.2320    6.1030   22.5560 C   0  0  0  0  0  0  0  0  0  0  0  0
   10.3680    3.0160   23.9120 C   0  0  0  0  0  0  0  0  0  0  0  0
    9.7130    1.7940   24.1910 N   0  0  0  0  0  0  0  0  0  0  0  0
    8.4070    1.6840   24.8440 C   0  0  0  0  0  0  0  0  0  0  0  0
    7.7810    0.6320   24.8560 O   0  0  0  0  0  0  0  0  0  0  0  0
    7.8190    2.9250   25.5070 C   0  0  0  0  0  0  0  0  0  0  0  0
    7.8750    4.1600   24.9090 C   0  0  0  0  0  0  0  0  0  0  0  0
    7.3010    5.3950   25.5400 C   0  0  0  0  0  0  0  0  0  0  0  0
    6.6330    5.2130   26.9080 C   0  0  0  0  0  0  0  0  0  0  0  0
    6.5860    3.9010   27.5120 C   0  0  0  0  0  0  0  0  0  0  0  0
    7.2160    2.7580   26.7430 C   0  0  0  0  0  0  0  0  0  0  0  0
  1  2  1  0
  2  3  1  0
  3  4  2  0
  4  5  1  0
  5  6  1  0
  6  7  1  0
  7  8  1  0
  8  9  1  0
  9 10  1  0
 10 11  1  0
  7 12  1  0
 11 12  1  0
  5 13  2  0
 13 14  1  0
  3 15  1  0
 14 15  2  0
 14 16  1  0
 16 17  1  0
 17 18  1  0
 18 19  1  0
 18 20  1  0
 16 21  2  0
 13 22  1  0
 21 22  1  0
 22 23  1  0
 23 24  2  0
 23 25  1  0
 25 26  2  0
 26 27  1  0
 27 28  2  0
 28 29  1  0
 25 30  1  0
 29 30  2  0
M  END
