DAR-DIA-caba39e3-11-chloroacetamide
     RDKit          3D

 31 34  0  0  0  0  0  0  0  0999 V2000
    7.3200   -3.0260   18.8770 C   0  0  0  0  0  0  0  0  0  0  0  0
    6.4610   -3.4450   20.0160 C   0  0  0  0  0  0  0  0  0  0  0  0
    5.5270   -4.2480   19.8480 O   0  0  0  0  0  0  0  0  0  0  0  0
    6.7950   -2.8940   21.2660 N   0  0  0  0  0  0  0  0  0  0  0  0
    6.2440   -3.5090   22.5110 C   0  0  0  0  0  0  0  0  0  0  0  0
    7.2960   -3.8870   23.5370 C   0  0  0  0  0  0  0  0  0  0  0  0
    6.9150   -4.6630   24.6400 C   0  0  0  0  0  0  0  0  0  0  0  0
    7.8490   -5.0360   25.6090 C   0  0  0  0  0  0  0  0  0  0  0  0
    9.1750   -4.6400   25.4900 C   0  0  0  0  0  0  0  0  0  0  0  0
    9.5700   -3.8700   24.4040 C   0  0  0  0  0  0  0  0  0  0  0  0
    8.6380   -3.4880   23.4220 C   0  0  0  0  0  0  0  0  0  0  0  0
    9.0770   -2.6490   22.2490 C   0  0  2  0  0  0  0  0  0  0  0  0
   10.0220   -1.5730   22.6510 C   0  0  0  0  0  0  0  0  0  0  0  0
   11.3760   -1.4900   22.3550 C   0  0  0  0  0  0  0  0  0  0  0  0
   12.0990   -0.4190   22.7930 C   0  0  0  0  0  0  0  0  0  0  0  0
   13.3900   -0.1850   22.5920 O   0  0  0  0  0  0  0  0  0  0  0  0
   13.4980    1.1980   22.6790 C   0  0  0  0  0  0  0  0  0  0  0  0
   11.5220    0.6190   23.5320 C   0  0  0  0  0  0  0  0  0  0  0  0
   10.1590    0.6400   23.8900 C   0  0  0  0  0  0  0  0  0  0  0  0
    9.4980    1.6670   24.6290 C   0  0  0  0  0  0  0  0  0  0  0  0
    8.1670    1.6960   25.0070 C   0  0  0  0  0  0  0  0  0  0  0  0
    7.5560    2.8130   25.8000 C   0  0  0  0  0  0  0  0  0  0  0  0
    8.3460    4.0870   25.6170 C   0  0  0  0  0  0  0  0  0  0  0  0
    8.2460    4.9640   26.7750 N   0  0  0  0  0  0  0  0  0  0  0  0
    9.3050    5.7610   27.1480 C   0  0  0  0  0  0  0  0  0  0  0  0
    9.4140    5.9810   28.6350 C   0  0  0  0  0  0  0  0  0  0  0  0
   10.1030    6.2570   26.3620 O   0  0  0  0  0  0  0  0  0  0  0  0
    7.4590    0.5890   24.5820 C   0  0  0  0  0  0  0  0  0  0  0  0
    8.0550   -0.4420   23.8370 C   0  0  0  0  0  0  0  0  0  0  0  0
    9.3890   -0.4490   23.4740 C   0  0  0  0  0  0  0  0  0  0  0  0
    7.9160   -1.9790   21.4820 C   0  0  0  0  0  0  0  0  0  0  0  0
  1  2  1  0
  2  3  2  0
  2  4  1  0
  4  5  1  0
  5  6  1  0
  6  7  1  0
  7  8  2  0
  8  9  1  0
  9 10  2  0
  6 11  2  0
 10 11  1  0
 11 12  1  0
 12 13  1  1
 13 14  2  0
 14 15  1  0
 15 16  1  0
 16 17  1  0
 15 18  2  0
 18 19  1  0
 19 20  1  0
 20 21  2  0
 21 22  1  0
 22 23  1  0
 23 24  1  0
 24 25  1  0
 25 26  1  0
 25 27  2  0
 21 28  1  0
 28 29  2  0
 13 30  1  0
 19 30  2  0
 29 30  1  0
  4 31  1  0
 12 31  1  0
M  END
