DAR-DIA-23aa0b97-19-chloroacetamide
     RDKit          3D

 23 25  0  0  0  0  0  0  0  0999 V2000
    7.5400   -4.6630   20.9060 C   0  0  0  0  0  0  0  0  0  0  0  0
    7.2660   -3.1990   20.4670 C   0  0  0  0  0  0  0  0  0  0  0  0
    6.4570   -3.7190   19.6270 O   0  0  0  0  0  0  0  0  0  0  0  0
    8.2850   -2.9160   21.5840 C   0  0  0  0  0  0  0  0  0  0  0  0
    8.8190   -3.7770   22.5430 C   0  0  0  0  0  0  0  0  0  0  0  0
    9.6680   -3.0680   23.3340 C   0  0  0  0  0  0  0  0  0  0  0  0
   10.2060   -1.8630   23.5750 C   0  0  0  0  0  0  0  0  0  0  0  0
    9.6580   -1.0170   22.6220 C   0  0  0  0  0  0  0  0  0  0  0  0
    9.8510    0.3490   22.4350 N   0  0  0  0  0  0  0  0  0  0  0  0
    8.9600    1.0370   21.6250 C   0  0  0  0  0  0  0  0  0  0  0  0
    8.9980    2.2170   21.2990 O   0  0  0  0  0  0  0  0  0  0  0  0
    7.8710    0.0970   21.1550 C   0  0  0  0  0  0  0  0  0  0  0  0
    6.9520    0.3420   20.1440 C   0  0  0  0  0  0  0  0  0  0  0  0
    7.1420   -0.3420   18.8180 C   0  0  0  0  0  0  0  0  0  0  0  0
    6.1100    0.4350   18.8740 N   0  0  0  0  0  0  0  0  0  0  0  0
    5.2460    0.6980   17.9540 C   0  0  0  0  0  0  0  0  0  0  0  0
    4.9290    1.3790   19.1230 C   0  0  0  0  0  0  0  0  0  0  0  0
    3.8390    2.1620   19.1510 C   0  0  0  0  0  0  0  0  0  0  0  0
    3.6140    2.7790   20.3370 C   0  0  0  0  0  0  0  0  0  0  0  0
    4.4810    2.5920   21.4300 C   0  0  0  0  0  0  0  0  0  0  0  0
    5.6690    1.8160   21.5860 C   0  0  0  0  0  0  0  0  0  0  0  0
    5.8000    1.2140   20.2800 C   0  0  0  0  0  0  0  0  0  0  0  0
    8.7370   -1.5670   21.6690 C   0  0  0  0  0  0  0  0  0  0  0  0
  1  2  1  0
  2  3  2  0
  2  4  1  0
  4  5  2  0
  5  6  1  0
  6  7  2  0
  7  8  1  0
  8  9  1  0
  9 10  1  0
 10 11  2  0
 10 12  1  0
 12 13  1  0
 13 14  2  0
 14 15  1  0
 15 16  2  0
 16 17  1  0
 17 18  1  0
 18 19  2  0
 19 20  1  0
 20 21  2  0
 13 22  1  0
 17 22  2  0
 21 22  1  0
  4 23  1  0
  8 23  2  0
M  END
