DAR-DIA-2b784ede-30-chloroacetamide
     RDKit          3D

 25 26  0  0  0  0  0  0  0  0999 V2000
    7.3530   -3.2050   19.5020 C   0  0  0  0  0  0  0  0  0  0  0  0
    6.1250   -2.5940   20.1760 C   0  0  0  0  0  0  0  0  0  0  0  0
    5.4610   -3.2910   19.3300 O   0  0  0  0  0  0  0  0  0  0  0  0
    7.2110   -1.9660   20.9550 N   0  0  0  0  0  0  0  0  0  0  0  0
    7.5460   -0.5490   20.8470 C   0  0  0  0  0  0  0  0  0  0  0  0
    6.3800   -0.7440   20.0280 C   0  0  0  0  0  0  0  0  0  0  0  0
    6.9040    0.3120   20.1460 N   0  0  0  0  0  0  0  0  0  0  0  0
    6.4520    1.2690   19.5550 N   0  0  0  0  0  0  0  0  0  0  0  0
    5.3620    0.6490   18.8830 C   0  0  0  0  0  0  0  0  0  0  0  0
    4.1490    0.7470   19.6740 C   0  0  0  0  0  0  0  0  0  0  0  0
    5.6180   -0.7870   18.4220 C   0  0  0  0  0  0  0  0  0  0  0  0
    5.0930    1.4340   17.6590 C   0  0  0  0  0  0  0  0  0  0  0  0
    7.4800    1.0580   20.3920 C   0  0  0  0  0  0  0  0  0  0  0  0
    7.4450   -2.3790   22.2600 C   0  0  1  0  0  0  0  0  0  0  0  0
    6.6030   -3.6150   22.5980 C   0  0  0  0  0  0  0  0  0  0  0  0
    7.3670   -4.8060   22.6560 O   0  0  0  0  0  0  0  0  0  0  0  0
    5.2740   -3.5920   22.8290 N   0  0  0  0  0  0  0  0  0  0  0  0
    4.7060   -2.3650   22.8640 C   0  0  0  0  0  0  0  0  0  0  0  0
    8.7450   -2.0580   22.7440 C   0  0  0  0  0  0  0  0  0  0  0  0
    9.8480   -2.0290   21.9560 C   0  0  0  0  0  0  0  0  0  0  0  0
   11.1080   -1.7230   22.3550 N   0  0  0  0  0  0  0  0  0  0  0  0
   11.6280   -1.3730   23.5950 C   0  0  0  0  0  0  0  0  0  0  0  0
   10.4050   -1.4350   24.3560 C   0  0  0  0  0  0  0  0  0  0  0  0
    9.0770   -1.7410   24.0030 C   0  0  0  0  0  0  0  0  0  0  0  0
    7.9740   -1.7640   24.8300 C   0  0  0  0  0  0  0  0  0  0  0  0
  1  2  1  0
  2  3  2  0
  2  4  1  0
  4  5  1  0
  5  6  1  0
  6  7  2  0
  7  8  1  0
  8  9  1  0
  9 10  1  0
  9 11  1  0
  9 12  1  0
  5 13  2  0
  8 13  1  0
  4 14  1  0
 14 15  1  6
 15 16  2  0
 15 17  1  0
 17 18  1  0
 14 19  1  0
 19 20  2  0
 20 21  1  0
 21 22  2  0
 22 23  1  0
 19 24  1  0
 23 24  2  0
 24 25  1  0
M  END
