DAR-DIA-eace69ff-7
     RDKit          3D

 30 33  0  0  0  0  0  0  0  0999 V2000
   13.2150   -2.3640   20.8840 C   0  0  0  0  0  0  0  0  0  0  0  0
   13.1550   -2.0660   22.3220 C   0  0  0  0  0  0  0  0  0  0  0  0
   12.3830   -0.8290   22.7220 C   0  0  0  0  0  0  0  0  0  0  0  0
   11.1720   -1.3220   23.1360 C   0  0  0  0  0  0  0  0  0  0  0  0
   10.1350   -0.5530   23.6180 C   0  0  0  0  0  0  0  0  0  0  0  0
    9.0570   -1.0280   23.9940 O   0  0  0  0  0  0  0  0  0  0  0  0
    8.5300   -2.1380   23.2430 C   0  0  0  0  0  0  0  0  0  0  0  0
    7.9770   -3.0130   24.1890 C   0  0  0  0  0  0  0  0  0  0  0  0
    6.6790   -2.6270   24.5480 C   0  0  0  0  0  0  0  0  0  0  0  0
    5.8740   -2.3760   23.3380 N   0  0  0  0  0  0  0  0  0  0  0  0
    4.7290   -3.2790   23.2370 C   0  0  0  0  0  0  0  0  0  0  0  0
    6.6410   -2.3040   22.0880 C   0  0  0  0  0  0  0  0  0  0  0  0
    7.6600   -1.6880   22.2500 C   0  0  0  0  0  0  0  0  0  0  0  0
   10.4490    0.9580   23.6410 C   0  0  0  0  0  0  0  0  0  0  0  0
   11.6890    1.3760   23.1880 C   0  0  0  0  0  0  0  0  0  0  0  0
   12.6910    0.5310   22.7280 C   0  0  0  0  0  0  0  0  0  0  0  0
   11.7680    2.9050   23.2660 C   0  0  0  0  0  0  0  0  0  0  0  0
   12.7610    4.0370   22.9300 C   0  0  0  0  0  0  0  0  0  0  0  0
   12.1880    5.3690   23.2660 N   0  0  0  0  0  0  0  0  0  0  0  0
   10.9680    5.6180   22.5490 C   0  0  0  0  0  0  0  0  0  0  0  0
   12.0490    5.6250   24.6990 C   0  0  0  0  0  0  0  0  0  0  0  0
   10.4990    3.1690   23.8110 C   0  0  0  0  0  0  0  0  0  0  0  0
    9.6890    2.0110   24.0410 N   0  0  0  0  0  0  0  0  0  0  0  0
    8.4020    2.0180   24.5510 C   0  0  0  0  0  0  0  0  0  0  0  0
    8.2340    1.3700   25.9310 C   0  0  0  0  0  0  0  0  0  0  0  0
    9.0260    0.3330   26.3530 C   0  0  0  0  0  0  0  0  0  0  0  0
    8.8630   -0.3120   27.6960 C   0  0  0  0  0  0  0  0  0  0  0  0
    7.7610    0.2410   28.6040 C   0  0  0  0  0  0  0  0  0  0  0  0
    6.9430    1.3320   28.1370 C   0  0  0  0  0  0  0  0  0  0  0  0
    7.2350    1.8710   26.7510 C   0  0  0  0  0  0  0  0  0  0  0  0
  1  2  1  0
  2  3  1  0
  3  4  2  0
  4  5  1  0
  5  6  1  0
  6  7  1  0
  7  8  1  0
  8  9  1  0
  9 10  1  0
 10 11  1  0
 10 12  1  0
  7 13  1  0
 12 13  1  0
  5 14  2  0
 14 15  1  0
  3 16  1  0
 15 16  2  0
 15 17  1  0
 17 18  1  0
 18 19  1  0
 19 20  1  0
 19 21  1  0
 17 22  2  0
 14 23  1  0
 22 23  1  0
 23 24  1  0
 24 25  1  0
 25 26  2  0
 26 27  1  0
 27 28  2  0
 28 29  1  0
 25 30  1  0
 29 30  2  0
M  END
