DAR-DIA-23aa0b97-17-chloroacetamide
     RDKit          3D

 19 20  0  0  0  0  0  0  0  0999 V2000
    6.6570   -2.8480   19.0500 C   0  0  0  0  0  0  0  0  0  0  0  0
    5.2400   -2.4850   19.6990 C   0  0  0  0  0  0  0  0  0  0  0  0
    4.8870   -3.5670   19.2220 O   0  0  0  0  0  0  0  0  0  0  0  0
    6.1030   -1.3930   20.0320 C   0  0  0  0  0  0  0  0  0  0  0  0
    5.4880   -0.2910   19.0460 C   0  0  0  0  0  0  0  0  0  0  0  0
    5.9890    1.0740   18.9430 N   0  0  0  0  0  0  0  0  0  0  0  0
    7.0780    1.4110   19.7780 C   0  0  0  0  0  0  0  0  0  0  0  0
    7.4510    0.2750   20.5400 C   0  0  0  0  0  0  0  0  0  0  0  0
    8.4760   -0.1040   21.5730 C   0  0  0  0  0  0  0  0  0  0  0  0
    9.2160    0.9480   22.0140 C   0  0  0  0  0  0  0  0  0  0  0  0
    8.9000    1.7990   21.1870 O   0  0  0  0  0  0  0  0  0  0  0  0
    9.9440    1.4920   22.7030 N   0  0  0  0  0  0  0  0  0  0  0  0
   11.2890    0.9940   22.9100 C   0  0  0  0  0  0  0  0  0  0  0  0
   10.3090   -0.0080   23.1190 C   0  0  0  0  0  0  0  0  0  0  0  0
   10.6600   -1.3340   23.4870 C   0  0  0  0  0  0  0  0  0  0  0  0
   11.6470   -2.1210   23.7520 C   0  0  0  0  0  0  0  0  0  0  0  0
   12.7590   -1.4420   23.6400 N   0  0  0  0  0  0  0  0  0  0  0  0
   12.5380    0.0160   23.2400 C   0  0  0  0  0  0  0  0  0  0  0  0
    6.5250   -0.2800   19.9590 C   0  0  0  0  0  0  0  0  0  0  0  0
  1  2  1  0
  2  3  2  0
  2  4  1  0
  4  5  2  0
  5  6  1  0
  6  7  2  0
  7  8  1  0
  8  9  1  0
  9 10  1  0
 10 11  2  0
 10 12  1  0
 12 13  1  0
 13 14  2  0
 14 15  1  0
 15 16  2  0
 16 17  1  0
 13 18  1  0
 17 18  2  0
  4 19  1  0
  8 19  2  0
M  END
