DAR-DIA-23aa0b97-11-chloroacetamide
     RDKit          3D

 22 24  0  0  0  0  0  0  0  0999 V2000
    7.0880   -4.3170   20.8040 C   0  0  0  0  0  0  0  0  0  0  0  0
    7.4860   -3.0130   20.0730 C   0  0  0  0  0  0  0  0  0  0  0  0
    6.6940   -3.4980   19.2210 O   0  0  0  0  0  0  0  0  0  0  0  0
    8.3200   -2.7660   21.3390 C   0  0  0  0  0  0  0  0  0  0  0  0
    8.6100   -3.6300   22.4010 C   0  0  0  0  0  0  0  0  0  0  0  0
    9.3670   -2.9630   23.3020 C   0  0  0  0  0  0  0  0  0  0  0  0
    9.9570   -1.7900   23.6010 C   0  0  0  0  0  0  0  0  0  0  0  0
    9.6540   -0.9300   22.5520 C   0  0  0  0  0  0  0  0  0  0  0  0
    9.9820    0.4040   22.3700 N   0  0  0  0  0  0  0  0  0  0  0  0
    9.0400    1.2250   21.7650 C   0  0  0  0  0  0  0  0  0  0  0  0
    9.1770    2.3900   21.4250 O   0  0  0  0  0  0  0  0  0  0  0  0
    7.8650    0.4900   21.5720 N   0  0  0  0  0  0  0  0  0  0  0  0
    7.0560    0.4820   20.4090 C   0  0  0  0  0  0  0  0  0  0  0  0
    7.2780   -0.1960   19.2190 C   0  0  0  0  0  0  0  0  0  0  0  0
    6.2750    0.0960   18.3470 N   0  0  0  0  0  0  0  0  0  0  0  0
    5.3880    0.9330   18.9590 C   0  0  0  0  0  0  0  0  0  0  0  0
    4.2890    1.4050   18.3900 N   0  0  0  0  0  0  0  0  0  0  0  0
    3.5700    2.2080   19.2040 C   0  0  0  0  0  0  0  0  0  0  0  0
    3.9010    2.5430   20.5060 C   0  0  0  0  0  0  0  0  0  0  0  0
    5.0680    2.0290   21.0540 C   0  0  0  0  0  0  0  0  0  0  0  0
    5.8420    1.1890   20.2470 C   0  0  0  0  0  0  0  0  0  0  0  0
    8.8680   -1.4480   21.4770 C   0  0  0  0  0  0  0  0  0  0  0  0
  1  2  1  0
  2  3  2  0
  2  4  1  0
  4  5  2  0
  5  6  1  0
  6  7  2  0
  7  8  1  0
  8  9  1  0
  9 10  1  0
 10 11  2  0
 10 12  1  0
 12 13  1  0
 13 14  2  0
 14 15  1  0
 15 16  1  0
 16 17  1  0
 17 18  2  0
 18 19  1  0
 19 20  2  0
 13 21  1  0
 16 21  2  0
 20 21  1  0
  4 22  1  0
  8 22  2  0
M  END
