DAR-DIA-caba39e3-3-acrylamide
     RDKit          3D

 25 28  0  0  0  0  0  0  0  0999 V2000
    8.1530   -3.5070   19.7960 C   0  0  0  0  0  0  0  0  0  0  0  0
    7.0580   -2.6280   19.3090 C   0  0  0  0  0  0  0  0  0  0  0  0
    6.1000   -2.9810   20.3600 C   0  0  0  0  0  0  0  0  0  0  0  0
    5.1230   -3.6530   20.0980 O   0  0  0  0  0  0  0  0  0  0  0  0
    6.4970   -2.5300   21.6030 N   0  0  0  0  0  0  0  0  0  0  0  0
    6.0770   -3.0590   22.7890 C   0  0  0  0  0  0  0  0  0  0  0  0
    7.2030   -3.5190   23.6680 C   0  0  0  0  0  0  0  0  0  0  0  0
    6.6500   -4.4290   24.7430 C   0  0  0  0  0  0  0  0  0  0  0  0
    7.7040   -4.9630   25.6950 C   0  0  0  0  0  0  0  0  0  0  0  0
    9.1150   -4.5020   25.4190 C   0  0  0  0  0  0  0  0  0  0  0  0
    9.5170   -3.6140   24.3470 C   0  0  0  0  0  0  0  0  0  0  0  0
    8.5450   -3.1540   23.4990 C   0  0  0  0  0  0  0  0  0  0  0  0
    8.8220   -2.2790   22.3740 C   0  0  2  0  0  0  0  0  0  0  0  0
    9.8650   -1.3210   22.7290 C   0  0  0  0  0  0  0  0  0  0  0  0
    9.3380   -0.2760   23.5990 C   0  0  0  0  0  0  0  0  0  0  0  0
   10.2200    0.7340   24.0080 C   0  0  0  0  0  0  0  0  0  0  0  0
    9.8490    1.7770   24.7930 O   0  0  0  0  0  0  0  0  0  0  0  0
    9.9130    3.0690   24.2020 C   0  0  0  0  0  0  0  0  0  0  0  0
   11.5720    0.7410   23.6100 C   0  0  0  0  0  0  0  0  0  0  0  0
   12.0080   -0.2690   22.7910 C   0  0  0  0  0  0  0  0  0  0  0  0
   13.2390   -0.4770   22.2670 C   0  0  0  0  0  0  0  0  0  0  0  0
   13.1910   -1.5990   21.4990 C   0  0  0  0  0  0  0  0  0  0  0  0
   11.9510   -2.1180   21.5360 N   0  0  0  0  0  0  0  0  0  0  0  0
   11.1890   -1.2890   22.3460 C   0  0  0  0  0  0  0  0  0  0  0  0
    7.7060   -1.7850   21.7400 C   0  0  0  0  0  0  0  0  0  0  0  0
  1  2  1  0
  2  3  1  0
  3  4  2  0
  3  5  1  0
  5  6  1  0
  6  7  1  0
  7  8  1  0
  8  9  2  0
  9 10  1  0
 10 11  2  0
  7 12  2  0
 11 12  1  0
 12 13  1  0
 13 14  1  1
 14 15  2  0
 15 16  1  0
 16 17  1  0
 17 18  1  0
 16 19  2  0
 19 20  1  0
 20 21  1  0
 21 22  2  0
 22 23  1  0
 14 24  1  0
 20 24  2  0
 23 24  1  0
  5 25  1  0
 13 25  1  0
M  END
