DAR-DIA-2b784ede-34-acrylamide
     RDKit          3D

 34 36  0  0  0  0  0  0  0  0999 V2000
    7.1730   -4.4820   21.0620 C   0  0  0  0  0  0  0  0  0  0  0  0
    5.7150   -4.0250   21.2570 C   0  0  0  0  0  0  0  0  0  0  0  0
    5.2660   -3.6030   22.6930 C   0  0  0  0  0  0  0  0  0  0  0  0
    4.4310   -4.4960   22.4470 O   0  0  0  0  0  0  0  0  0  0  0  0
    6.3170   -2.7110   22.4880 N   0  0  0  0  0  0  0  0  0  0  0  0
    5.9000   -2.3120   21.2390 C   0  0  0  0  0  0  0  0  0  0  0  0
    6.4170   -1.2580   20.7080 C   0  0  0  0  0  0  0  0  0  0  0  0
    5.7310   -1.2530   19.5190 C   0  0  0  0  0  0  0  0  0  0  0  0
    5.9810   -0.3060   18.5660 C   0  0  0  0  0  0  0  0  0  0  0  0
    6.5030   -1.0730   17.6130 C   0  0  0  0  0  0  0  0  0  0  0  0
    6.9680    0.7430   18.9920 C   0  0  0  0  0  0  0  0  0  0  0  0
    4.7150    0.6540   17.9780 Cl  0  0  0  0  0  0  0  0  0  0  0  0
    4.9010   -2.1770   19.3480 O   0  0  0  0  0  0  0  0  0  0  0  0
    4.9610   -2.9690   20.5170 N   0  0  0  0  0  0  0  0  0  0  0  0
    6.5790   -1.5360   23.2300 C   0  0  1  0  0  0  0  0  0  0  0  0
    8.0720   -1.2310   23.3920 C   0  0  0  0  0  0  0  0  0  0  0  0
    8.4000    0.0020   23.9310 O   0  0  0  0  0  0  0  0  0  0  0  0
    9.0710   -2.1000   22.9690 N   0  0  0  0  0  0  0  0  0  0  0  0
   10.4110   -1.7240   23.1860 C   0  0  0  0  0  0  0  0  0  0  0  0
   11.3600   -2.2220   22.0260 C   0  0  0  0  0  0  0  0  0  0  0  0
   12.4300   -2.5170   21.1770 C   0  0  0  0  0  0  0  0  0  0  0  0
   12.5970   -1.7160   22.5230 C   0  0  0  0  0  0  0  0  0  0  0  0
   12.8590   -1.0100   23.6730 C   0  0  0  0  0  0  0  0  0  0  0  0
   11.9870   -0.6220   24.6080 C   0  0  0  0  0  0  0  0  0  0  0  0
   10.7020   -0.9710   24.3830 C   0  0  0  0  0  0  0  0  0  0  0  0
    9.7740   -0.5500   25.3480 C   0  0  0  0  0  0  0  0  0  0  0  0
    8.5520   -1.2240   25.2250 C   0  0  0  0  0  0  0  0  0  0  0  0
    6.2520   -0.2750   22.6480 C   0  0  0  0  0  0  0  0  0  0  0  0
    4.8720    0.3530   22.8290 C   0  0  0  0  0  0  0  0  0  0  0  0
    4.4590    1.5490   22.3280 N   0  0  0  0  0  0  0  0  0  0  0  0
    5.3330    2.2680   21.5940 C   0  0  0  0  0  0  0  0  0  0  0  0
    6.7520    1.8020   21.3140 C   0  0  0  0  0  0  0  0  0  0  0  0
    7.1910    0.4570   21.8890 C   0  0  0  0  0  0  0  0  0  0  0  0
    8.5240    0.0970   21.5850 C   0  0  0  0  0  0  0  0  0  0  0  0
  1  2  1  0
  2  3  1  0
  3  4  2  0
  3  5  1  0
  5  6  1  0
  6  7  1  0
  7  8  2  0
  8  9  1  0
  9 10  1  0
  9 11  1  0
  9 12  1  0
  8 13  1  0
  6 14  2  0
 13 14  1  0
  5 15  1  0
 15 16  1  6
 16 17  2  0
 16 18  1  0
 18 19  1  0
 19 20  2  0
 20 21  1  0
 20 22  1  0
 22 23  2  0
 23 24  1  0
 19 25  1  0
 24 25  2  0
 25 26  1  0
 26 27  1  0
 15 28  1  0
 28 29  2  0
 29 30  1  0
 30 31  2  0
 31 32  1  0
 28 33  1  0
 32 33  2  0
 33 34  1  0
M  END
