DAR-DIA-23aa0b97-3-chloroacetamide
     RDKit          3D

 20 21  0  0  0  0  0  0  0  0999 V2000
    7.8600   -4.1960   20.7720 C   0  0  0  0  0  0  0  0  0  0  0  0
    8.4120   -2.9740   19.9760 C   0  0  0  0  0  0  0  0  0  0  0  0
    7.3400   -3.3080   19.2070 O   0  0  0  0  0  0  0  0  0  0  0  0
    9.6380   -2.7040   21.0550 C   0  0  0  0  0  0  0  0  0  0  0  0
   10.7240   -2.4640   22.0120 C   0  0  0  0  0  0  0  0  0  0  0  0
   11.0630   -1.5580   23.0010 C   0  0  0  0  0  0  0  0  0  0  0  0
   10.2420   -0.5750   23.2580 C   0  0  0  0  0  0  0  0  0  0  0  0
    9.1600   -0.6040   22.5020 C   0  0  0  0  0  0  0  0  0  0  0  0
    8.1840    0.3330   22.6400 N   0  0  0  0  0  0  0  0  0  0  0  0
    7.8460    0.9680   21.5070 C   0  0  0  0  0  0  0  0  0  0  0  0
    8.3410    2.0170   21.0700 O   0  0  0  0  0  0  0  0  0  0  0  0
    6.7910    0.1900   20.8440 C   0  0  0  0  0  0  0  0  0  0  0  0
    6.0920    0.6240   19.7770 C   0  0  0  0  0  0  0  0  0  0  0  0
    6.7550    0.5200   18.4780 C   0  0  0  0  0  0  0  0  0  0  0  0
    6.1640    0.9350   17.3560 N   0  0  0  0  0  0  0  0  0  0  0  0
    4.9250    1.4790   17.5060 C   0  0  0  0  0  0  0  0  0  0  0  0
    4.2410    1.6160   18.7220 C   0  0  0  0  0  0  0  0  0  0  0  0
    2.9550    2.1780   18.7660 N   0  0  0  0  0  0  0  0  0  0  0  0
    4.8340    1.1760   19.8830 C   0  0  0  0  0  0  0  0  0  0  0  0
    8.8950   -1.6050   21.4900 C   0  0  0  0  0  0  0  0  0  0  0  0
  1  2  1  0
  2  3  2  0
  2  4  1  0
  4  5  2  0
  5  6  1  0
  6  7  2  0
  7  8  1  0
  8  9  1  0
  9 10  1  0
 10 11  2  0
 10 12  1  0
 12 13  1  0
 13 14  2  0
 14 15  1  0
 15 16  2  0
 16 17  1  0
 17 18  1  0
 13 19  1  0
 17 19  2  0
  4 20  1  0
  8 20  2  0
M  END
