DAR-DIA-842b4336-11
     RDKit          3D

 16 17  0  0  0  0  0  0  0  0999 V2000
   13.5380   -1.9690   24.1140 C   0  0  0  0  0  0  0  0  0  0  0  0
   12.4440   -1.1170   24.3990 N   0  0  0  0  0  0  0  0  0  0  0  0
   11.2280   -0.3670   24.3410 C   0  0  0  0  0  0  0  0  0  0  0  0
   10.4930   -0.5530   23.0820 C   0  0  0  0  0  0  0  0  0  0  0  0
    9.1640    0.1980   23.0440 C   0  0  0  0  0  0  0  0  0  0  0  0
    8.7470    0.6120   21.6730 C   0  0  0  0  0  0  0  0  0  0  0  0
    9.1170    1.6740   21.1730 O   0  0  0  0  0  0  0  0  0  0  0  0
    7.9080   -0.3310   21.1440 N   0  0  0  0  0  0  0  0  0  0  0  0
    7.0240    0.2270   20.2500 C   0  0  0  0  0  0  0  0  0  0  0  0
    6.0410    1.1930   20.5000 C   0  0  0  0  0  0  0  0  0  0  0  0
    5.2020    1.6870   19.4890 C   0  0  0  0  0  0  0  0  0  0  0  0
    5.2860    1.2320   18.0740 C   0  0  0  0  0  0  0  0  0  0  0  0
    6.3210    0.2290   17.8850 N   0  0  0  0  0  0  0  0  0  0  0  0
    7.1230   -0.2290   18.9180 C   0  0  0  0  0  0  0  0  0  0  0  0
   11.1760   -1.3970   22.1960 C   0  0  0  0  0  0  0  0  0  0  0  0
   12.2360   -1.6040   23.1250 N   0  0  0  0  0  0  0  0  0  0  0  0
  1  2  1  0
  2  3  1  0
  3  4  2  0
  4  5  1  0
  5  6  1  0
  6  7  2  0
  6  8  1  0
  8  9  1  0
  9 10  2  0
 10 11  1  0
 11 12  2  0
 12 13  1  0
  9 14  1  0
 13 14  2  0
  4 15  1  0
  2 16  1  0
 15 16  2  0
M  END
