DAR-DIA-23aa0b97-17-vinylsulfonamide
     RDKit          3D

 21 22  0  0  0  0  0  0  0  0999 V2000
    7.1100   -4.3250   19.9700 C   0  0  0  0  0  0  0  0  0  0  0  0
    6.2110   -4.8360   21.0880 C   0  0  0  0  0  0  0  0  0  0  0  0
    5.4400   -3.3480   21.6180 S   0  0  0  0  0  0  0  0  0  0  0  0
    4.3070   -3.7270   22.4160 O   0  0  0  0  0  0  0  0  0  0  0  0
    5.2150   -2.6150   20.3960 O   0  0  0  0  0  0  0  0  0  0  0  0
    6.7100   -2.4430   22.5140 C   0  0  0  0  0  0  0  0  0  0  0  0
    8.0570   -2.3180   23.2120 C   0  0  0  0  0  0  0  0  0  0  0  0
    8.9540   -1.5260   23.8860 N   0  0  0  0  0  0  0  0  0  0  0  0
    9.6190   -2.6490   23.8730 C   0  0  0  0  0  0  0  0  0  0  0  0
    8.2160   -2.6680   23.1820 C   0  0  0  0  0  0  0  0  0  0  0  0
    7.5910   -1.2310   23.2760 C   0  0  0  0  0  0  0  0  0  0  0  0
    8.0870   -0.4240   22.2330 C   0  0  0  0  0  0  0  0  0  0  0  0
    8.5520    0.4400   22.9840 O   0  0  0  0  0  0  0  0  0  0  0  0
    8.3210   -0.0570   21.1520 N   0  0  0  0  0  0  0  0  0  0  0  0
    7.2590    0.4990   20.2970 C   0  0  0  0  0  0  0  0  0  0  0  0
    6.5630    1.6320   20.8460 C   0  0  0  0  0  0  0  0  0  0  0  0
    5.7310    1.6830   19.6140 C   0  0  0  0  0  0  0  0  0  0  0  0
    5.3280    1.2680   18.3790 C   0  0  0  0  0  0  0  0  0  0  0  0
    5.9770    0.2360   17.8940 N   0  0  0  0  0  0  0  0  0  0  0  0
    6.9730   -0.1560   18.8990 C   0  0  0  0  0  0  0  0  0  0  0  0
    7.4420   -3.6540   22.5250 C   0  0  0  0  0  0  0  0  0  0  0  0
  1  2  1  0
  3  2  1  0
  3  4  2  0
  3  5  2  0
  3  6  1  0
  6  7  2  0
  7  8  1  0
  8  9  2  0
  9 10  1  0
 10 11  1  0
 11 12  1  0
 12 13  2  0
 12 14  1  0
 14 15  1  0
 15 16  2  0
 16 17  1  0
 17 18  2  0
 18 19  1  0
 15 20  1  0
 19 20  2  0
  6 21  1  0
 10 21  2  0
M  END
