DAR-DIA-2b784ede-47-vinylsulfonamide
     RDKit          3D

 35 37  0  0  0  0  0  0  0  0999 V2000
    6.1210   -5.3080   19.9750 C   0  0  0  0  0  0  0  0  0  0  0  0
    6.1760   -3.7990   20.0330 C   0  0  0  0  0  0  0  0  0  0  0  0
    6.0900   -3.4590   21.7320 S   0  0  0  0  0  0  0  0  0  0  0  0
    4.6590   -3.5190   22.0300 O   0  0  0  0  0  0  0  0  0  0  0  0
    7.0290   -4.4100   22.3310 O   0  0  0  0  0  0  0  0  0  0  0  0
    6.8380   -1.9330   21.7910 N   0  0  0  0  0  0  0  0  0  0  0  0
    6.2170   -0.5810   21.7510 C   0  0  0  0  0  0  0  0  0  0  0  0
    4.7630   -0.4380   22.0550 C   0  0  0  0  0  0  0  0  0  0  0  0
    4.5680    0.9510   21.8990 C   0  0  0  0  0  0  0  0  0  0  0  0
    3.3680    1.6150   22.0690 C   0  0  0  0  0  0  0  0  0  0  0  0
    2.6160    1.1420   23.1220 C   0  0  0  0  0  0  0  0  0  0  0  0
    3.5900    3.1210   22.2430 C   0  0  0  0  0  0  0  0  0  0  0  0
    2.4520    1.4400   20.8510 C   0  0  0  0  0  0  0  0  0  0  0  0
    5.8040    1.5030   21.5500 N   0  0  0  0  0  0  0  0  0  0  0  0
    6.9910    0.6240   21.4110 N   0  0  0  0  0  0  0  0  0  0  0  0
    7.7450   -1.8310   20.6820 C   0  0  2  0  0  0  0  0  0  0  0  0
    8.9340   -1.2470   21.1820 C   0  0  0  0  0  0  0  0  0  0  0  0
    8.8980   -0.0250   21.1660 O   0  0  0  0  0  0  0  0  0  0  0  0
    9.9380   -1.9290   21.6790 N   0  0  0  0  0  0  0  0  0  0  0  0
    9.9860   -1.4340   22.8930 C   0  0  0  0  0  0  0  0  0  0  0  0
   10.3640   -0.9500   24.2050 C   0  0  0  0  0  0  0  0  0  0  0  0
    9.2090   -0.5100   24.8230 C   0  0  0  0  0  0  0  0  0  0  0  0
   11.6810   -0.8620   24.9220 C   0  0  0  0  0  0  0  0  0  0  0  0
   12.8310   -1.2950   24.3610 C   0  0  0  0  0  0  0  0  0  0  0  0
   12.7710   -1.7900   23.1570 C   0  0  0  0  0  0  0  0  0  0  0  0
   11.3810   -1.7810   22.6250 C   0  0  0  0  0  0  0  0  0  0  0  0
   11.9810   -2.4250   21.3500 C   0  0  0  0  0  0  0  0  0  0  0  0
   12.9900   -3.0990   21.5850 O   0  0  0  0  0  0  0  0  0  0  0  0
    6.9200   -1.0390   19.8020 C   0  0  0  0  0  0  0  0  0  0  0  0
    7.3180   -0.4770   18.4230 C   0  0  0  0  0  0  0  0  0  0  0  0
    6.6040    0.3010   17.5650 N   0  0  0  0  0  0  0  0  0  0  0  0
    5.2580    0.6630   17.9610 C   0  0  0  0  0  0  0  0  0  0  0  0
    4.7450    0.1620   19.2590 C   0  0  0  0  0  0  0  0  0  0  0  0
    5.5610   -0.6670   20.1490 C   0  0  0  0  0  0  0  0  0  0  0  0
    4.9220   -1.1070   21.4350 C   0  0  0  0  0  0  0  0  0  0  0  0
  1  2  1  0
  2  3  1  0
  3  4  2  0
  3  5  2  0
  3  6  1  0
  6  7  1  0
  7  8  2  0
  8  9  1  0
  9 10  1  0
 10 11  1  0
 10 12  1  0
 10 13  1  0
  9 14  2  0
  7 15  1  0
 14 15  1  0
  6 16  1  0
 16 17  1  1
 17 18  2  0
 17 19  1  0
 19 20  1  0
 20 21  2  0
 21 22  1  0
 21 23  1  0
 23 24  2  0
 24 25  1  0
 20 26  1  0
 25 26  2  0
 26 27  1  0
 27 28  1  0
 16 29  1  0
 29 30  2  0
 30 31  1  0
 31 32  2  0
 32 33  1  0
 29 34  1  0
 33 34  2  0
 34 35  1  0
M  END
