DAR-DIA-2b784ede-41-acrylamide
     RDKit          3D

 38 40  0  0  0  0  0  0  0  0999 V2000
    6.8860   -3.8600   19.7960 C   0  0  0  0  0  0  0  0  0  0  0  0
    6.9760   -2.8920   20.9360 C   0  0  0  0  0  0  0  0  0  0  0  0
    6.0660   -3.2770   22.0740 C   0  0  0  0  0  0  0  0  0  0  0  0
    4.9150   -3.7370   21.8280 O   0  0  0  0  0  0  0  0  0  0  0  0
    6.6330   -3.0780   23.3820 N   0  0  0  0  0  0  0  0  0  0  0  0
    8.0990   -3.0310   23.3060 C   0  0  0  0  0  0  0  0  0  0  0  0
    7.9930   -2.0170   22.7150 C   0  0  0  0  0  0  0  0  0  0  0  0
    6.4820   -2.1370   22.8000 C   0  0  0  0  0  0  0  0  0  0  0  0
    6.4530   -3.5980   23.6490 C   0  0  0  0  0  0  0  0  0  0  0  0
    5.2140   -4.1940   24.0050 C   0  0  0  0  0  0  0  0  0  0  0  0
    5.1590   -4.4810   25.3750 C   0  0  0  0  0  0  0  0  0  0  0  0
    3.9930   -3.2940   23.7150 C   0  0  0  0  0  0  0  0  0  0  0  0
    4.9320   -5.3430   23.2310 C   0  0  0  0  0  0  0  0  0  0  0  0
    7.5610   -4.5000   24.1610 C   0  0  0  0  0  0  0  0  0  0  0  0
    8.8380   -3.9470   23.8210 C   0  0  0  0  0  0  0  0  0  0  0  0
    6.1210   -2.0530   24.3190 C   0  0  2  0  0  0  0  0  0  0  0  0
    5.6780   -0.7150   23.6790 C   0  0  0  0  0  0  0  0  0  0  0  0
    4.5820   -0.2910   24.0260 O   0  0  0  0  0  0  0  0  0  0  0  0
    6.3550    0.1270   22.7760 N   0  0  0  0  0  0  0  0  0  0  0  0
    5.8320    0.7350   21.5930 C   0  0  0  0  0  0  0  0  0  0  0  0
    6.3390    0.5520   20.2590 C   0  0  0  0  0  0  0  0  0  0  0  0
    5.8100    1.1550   19.0840 C   0  0  0  0  0  0  0  0  0  0  0  0
    6.3020    0.9870   17.7720 C   0  0  0  0  0  0  0  0  0  0  0  0
    6.9720   -0.5660   17.4430 S   0  0  0  0  0  0  0  0  0  0  0  0
    7.1130   -0.8720   19.1570 C   0  0  0  0  0  0  0  0  0  0  0  0
    7.2890   -1.2990   15.9000 C   0  0  0  0  0  0  0  0  0  0  0  0
    7.5640   -1.9180   18.1050 N   0  0  0  0  0  0  0  0  0  0  0  0
    4.7210    1.9910   19.2040 C   0  0  0  0  0  0  0  0  0  0  0  0
    4.1290    2.2710   20.3960 C   0  0  0  0  0  0  0  0  0  0  0  0
    4.6090    1.6890   21.7170 C   0  0  0  0  0  0  0  0  0  0  0  0
    3.8920    2.0640   23.0200 C   0  0  0  0  0  0  0  0  0  0  0  0
    6.9830   -1.7800   25.5790 C   0  0  0  0  0  0  0  0  0  0  0  0
    6.5050   -2.3300   26.9300 C   0  0  0  0  0  0  0  0  0  0  0  0
    7.0770   -2.2130   28.1550 N   0  0  0  0  0  0  0  0  0  0  0  0
    8.2440   -1.5030   28.1910 C   0  0  0  0  0  0  0  0  0  0  0  0
    8.8800   -0.8790   26.9610 C   0  0  0  0  0  0  0  0  0  0  0  0
    8.2020   -1.0410   25.6130 C   0  0  0  0  0  0  0  0  0  0  0  0
    8.8700   -0.4020   24.4260 C   0  0  0  0  0  0  0  0  0  0  0  0
  1  2  1  0
  2  3  1  0
  3  4  2  0
  3  5  1  0
  5  6  1  0
  6  7  2  0
  7  8  1  0
  8  9  2  0
  9 10  1  0
 10 11  1  0
 10 12  1  0
 10 13  1  0
  9 14  1  0
  6 15  1  0
 14 15  2  0
  5 16  1  0
 16 17  1  6
 17 18  2  0
 17 19  1  0
 19 20  1  0
 20 21  2  0
 21 22  1  0
 22 23  1  0
 23 24  1  0
 24 25  2  0
 24 26  2  0
 24 27  1  0
 22 28  2  0
 28 29  1  0
 20 30  1  0
 29 30  2  0
 30 31  1  0
 16 32  1  0
 32 33  2  0
 33 34  1  0
 34 35  2  0
 35 36  1  0
 32 37  1  0
 36 37  2  0
 37 38  1  0
M  END
