DAR-DIA-2b784ede-27-acrylamide
     RDKit          3D

 36 38  0  0  0  0  0  0  0  0999 V2000
    7.1550   -3.1780   20.0500 C   0  0  0  0  0  0  0  0  0  0  0  0
    6.9370   -2.5730   21.5160 C   0  0  0  0  0  0  0  0  0  0  0  0
    5.4890   -2.0330   21.7930 C   0  0  0  0  0  0  0  0  0  0  0  0
    4.6750   -2.9350   21.3820 O   0  0  0  0  0  0  0  0  0  0  0  0
    5.0470   -0.6350   22.3780 N   0  0  0  0  0  0  0  0  0  0  0  0
    4.4500    0.1130   21.3180 C   0  0  0  0  0  0  0  0  0  0  0  0
    5.6720   -0.5840   21.2830 C   0  0  0  0  0  0  0  0  0  0  0  0
    6.4080   -0.6230   20.2010 N   0  0  0  0  0  0  0  0  0  0  0  0
    5.7120    0.0530   19.4270 N   0  0  0  0  0  0  0  0  0  0  0  0
    6.2340    0.0800   18.3090 C   0  0  0  0  0  0  0  0  0  0  0  0
    5.2100   -0.2710   17.5460 C   0  0  0  0  0  0  0  0  0  0  0  0
    6.9370    1.1430   18.0880 C   0  0  0  0  0  0  0  0  0  0  0  0
    7.1040   -1.1420   18.3380 C   0  0  0  0  0  0  0  0  0  0  0  0
    7.8950   -2.2540   18.3030 N   0  0  0  0  0  0  0  0  0  0  0  0
    4.6080    0.5490   19.8910 C   0  0  0  0  0  0  0  0  0  0  0  0
    5.6910    0.5170   23.1040 C   0  0  2  0  0  0  0  0  0  0  0  0
    7.2340    0.7010   23.3810 C   0  0  0  0  0  0  0  0  0  0  0  0
    7.7500    1.4920   22.5880 O   0  0  0  0  0  0  0  0  0  0  0  0
    7.9810    0.1870   24.4080 N   0  0  0  0  0  0  0  0  0  0  0  0
    9.3440    0.6910   24.7610 C   0  0  0  0  0  0  0  0  0  0  0  0
   10.4400    0.1550   24.0740 C   0  0  0  0  0  0  0  0  0  0  0  0
   11.5050    1.0250   23.4550 C   0  0  0  0  0  0  0  0  0  0  0  0
   11.5630    2.4190   23.4500 C   0  0  0  0  0  0  0  0  0  0  0  0
   12.6670    0.3790   22.7300 C   0  0  0  0  0  0  0  0  0  0  0  0
   12.7200   -0.9950   22.6260 C   0  0  0  0  0  0  0  0  0  0  0  0
   11.7100   -1.7690   23.2090 C   0  0  0  0  0  0  0  0  0  0  0  0
   10.6040   -1.2570   23.9160 C   0  0  0  0  0  0  0  0  0  0  0  0
    9.6120   -2.2840   24.4880 C   0  0  0  0  0  0  0  0  0  0  0  0
   10.3080   -3.2890   25.4130 C   0  0  0  0  0  0  0  0  0  0  0  0
    4.8130    1.3620   24.0600 C   0  0  0  0  0  0  0  0  0  0  0  0
    5.2100    2.8230   24.3510 C   0  0  0  0  0  0  0  0  0  0  0  0
    4.5230    3.6700   25.1710 N   0  0  0  0  0  0  0  0  0  0  0  0
    3.4080    3.1940   25.7750 C   0  0  0  0  0  0  0  0  0  0  0  0
    2.9560    1.8880   25.5830 C   0  0  0  0  0  0  0  0  0  0  0  0
    3.6770    0.9030   24.6850 C   0  0  0  0  0  0  0  0  0  0  0  0
    3.1570   -0.5060   24.4980 C   0  0  0  0  0  0  0  0  0  0  0  0
  1  2  1  0
  2  3  1  0
  3  4  2  0
  3  5  1  0
  5  6  1  0
  6  7  1  0
  7  8  2  0
  8  9  1  0
  9 10  1  0
 10 11  1  0
 10 12  1  0
 10 13  1  0
 13 14  3  0
  6 15  2  0
  9 15  1  0
  5 16  1  0
 16 17  1  1
 17 18  2  0
 17 19  1  0
 19 20  1  0
 20 21  1  0
 21 22  2  0
 22 23  1  0
 22 24  1  0
 24 25  2  0
 25 26  1  0
 21 27  1  0
 26 27  2  0
 27 28  1  0
 28 29  1  0
 16 30  1  0
 30 31  2  0
 31 32  1  0
 32 33  2  0
 33 34  1  0
 30 35  1  0
 34 35  2  0
 35 36  1  0
M  END
