DAR-DIA-2b784ede-31-chloroacetamide
     RDKit          3D

 25 26  0  0  0  0  0  0  0  0999 V2000
    7.8760   -3.3530   20.5920 C   0  0  0  0  0  0  0  0  0  0  0  0
    6.7900   -2.1820   20.6800 C   0  0  0  0  0  0  0  0  0  0  0  0
    6.4160   -2.6930   19.4100 O   0  0  0  0  0  0  0  0  0  0  0  0
    7.4000   -1.8080   22.1030 N   0  0  0  0  0  0  0  0  0  0  0  0
    6.8280   -2.5530   23.1950 C   0  0  0  0  0  0  0  0  0  0  0  0
    6.2070   -2.0020   24.4450 C   0  0  0  0  0  0  0  0  0  0  0  0
    5.9520   -3.3370   24.8780 C   0  0  0  0  0  0  0  0  0  0  0  0
    5.2940   -3.8150   26.1340 C   0  0  0  0  0  0  0  0  0  0  0  0
    3.7930   -3.4900   26.1120 C   0  0  0  0  0  0  0  0  0  0  0  0
    5.4670   -5.3340   26.3100 C   0  0  0  0  0  0  0  0  0  0  0  0
    5.9150   -3.1050   27.2760 C   0  0  0  0  0  0  0  0  0  0  0  0
    6.3180   -4.3640   24.1110 O   0  0  0  0  0  0  0  0  0  0  0  0
    6.8720   -3.8650   23.0480 N   0  0  0  0  0  0  0  0  0  0  0  0
    8.2330   -0.5470   22.6380 C   0  0  1  0  0  0  0  0  0  0  0  0
    7.4800    0.2350   23.7530 C   0  0  0  0  0  0  0  0  0  0  0  0
    6.6540    1.1070   23.4790 O   0  0  0  0  0  0  0  0  0  0  0  0
    7.7800   -0.0740   25.0800 N   0  0  0  0  0  0  0  0  0  0  0  0
    9.1440   -0.1630   25.5620 C   0  0  0  0  0  0  0  0  0  0  0  0
    9.7670   -0.6690   22.8320 C   0  0  0  0  0  0  0  0  0  0  0  0
   10.6590    0.3860   22.5360 C   0  0  0  0  0  0  0  0  0  0  0  0
   12.0160    0.3400   22.6360 N   0  0  0  0  0  0  0  0  0  0  0  0
   12.5760   -0.8030   23.0470 C   0  0  0  0  0  0  0  0  0  0  0  0
   11.8360   -1.9290   23.4100 C   0  0  0  0  0  0  0  0  0  0  0  0
   10.3460   -1.8550   23.3050 C   0  0  0  0  0  0  0  0  0  0  0  0
    9.5740   -2.9550   23.6690 C   0  0  0  0  0  0  0  0  0  0  0  0
  1  2  1  0
  2  3  2  0
  2  4  1  0
  4  5  1  0
  5  6  1  0
  6  7  2  0
  7  8  1  0
  8  9  1  0
  8 10  1  0
  8 11  1  0
  7 12  1  0
  5 13  2  0
 12 13  1  0
  4 14  1  0
 14 15  1  1
 15 16  2  0
 15 17  1  0
 17 18  1  0
 14 19  1  0
 19 20  2  0
 20 21  1  0
 21 22  2  0
 22 23  1  0
 19 24  1  0
 23 24  2  0
 24 25  1  0
M  END
