DAR-DIA-eace69ff-23
     RDKit          3D

 22 24  0  0  0  0  0  0  0  0999 V2000
   11.0080    5.5360   22.7400 C   0  0  0  0  0  0  0  0  0  0  0  0
   12.3490    5.1160   23.1240 N   0  0  0  0  0  0  0  0  0  0  0  0
   13.2530    6.1260   22.5610 C   0  0  0  0  0  0  0  0  0  0  0  0
   12.5990    3.7380   22.6900 C   0  0  0  0  0  0  0  0  0  0  0  0
   11.7200    2.7660   23.1940 C   0  0  0  0  0  0  0  0  0  0  0  0
   10.5130    3.0630   23.7990 C   0  0  0  0  0  0  0  0  0  0  0  0
    9.7600    1.9020   24.2170 N   0  0  0  0  0  0  0  0  0  0  0  0
   10.6070    0.7840   23.8240 C   0  0  0  0  0  0  0  0  0  0  0  0
   10.2030   -0.5320   24.0540 C   0  0  0  0  0  0  0  0  0  0  0  0
    9.0160   -1.0110   24.6350 N   0  0  0  0  0  0  0  0  0  0  0  0
    8.3720   -2.1650   23.9120 C   0  0  0  0  0  0  0  0  0  0  0  0
    7.1550   -1.6820   23.1670 C   0  0  0  0  0  0  0  0  0  0  0  0
    6.5650   -0.8380   24.1760 C   0  0  0  0  0  0  0  0  0  0  0  0
    6.7260   -0.3570   25.2230 C   0  0  0  0  0  0  0  0  0  0  0  0
    7.5530   -0.1450   26.3250 C   0  0  0  0  0  0  0  0  0  0  0  0
    8.7780   -0.7690   26.0880 C   0  0  0  0  0  0  0  0  0  0  0  0
   11.1560   -1.4510   23.6170 C   0  0  0  0  0  0  0  0  0  0  0  0
   12.3390   -1.1080   23.0400 C   0  0  0  0  0  0  0  0  0  0  0  0
   13.2370   -2.2040   22.6410 C   0  0  0  0  0  0  0  0  0  0  0  0
   13.2000   -2.1950   20.9190 Cl  0  0  0  0  0  0  0  0  0  0  0  0
   12.7170    0.3560   22.8090 C   0  0  0  0  0  0  0  0  0  0  0  0
   11.7910    1.3030   23.2250 C   0  0  0  0  0  0  0  0  0  0  0  0
  1  2  1  0
  2  3  1  0
  2  4  1  0
  4  5  1  0
  5  6  2  0
  6  7  1  0
  7  8  1  0
  8  9  1  0
  9 10  1  0
 10 11  1  0
 11 12  1  0
 12 13  1  0
 13 14  1  0
 14 15  1  0
 10 16  1  0
 15 16  1  0
  9 17  2  0
 17 18  1  0
 18 19  1  0
 19 20  1  0
 18 21  2  0
  5 22  1  0
  8 22  2  0
 21 22  1  0
M  END
