DAR-DIA-2b784ede-5-acrylamide
     RDKit          3D

 25 26  0  0  0  0  0  0  0  0999 V2000
    8.1200   -3.4040   20.3000 C   0  0  0  0  0  0  0  0  0  0  0  0
    6.6420   -3.4740   20.5320 C   0  0  0  0  0  0  0  0  0  0  0  0
    6.0150   -2.3530   21.3210 C   0  0  0  0  0  0  0  0  0  0  0  0
    4.9980   -3.2200   21.2300 O   0  0  0  0  0  0  0  0  0  0  0  0
    7.3110   -1.6930   21.1760 N   0  0  0  0  0  0  0  0  0  0  0  0
    6.8100   -0.6820   20.3040 C   0  0  0  0  0  0  0  0  0  0  0  0
    5.9070    0.2500   20.8070 C   0  0  0  0  0  0  0  0  0  0  0  0
    5.2820    1.1920   19.8700 C   0  0  0  0  0  0  0  0  0  0  0  0
    5.6300    1.0980   18.5440 C   0  0  0  0  0  0  0  0  0  0  0  0
    5.0110    1.9040   17.6620 C   0  0  0  0  0  0  0  0  0  0  0  0
    3.9560    3.0290   18.5520 Cl  0  0  0  0  0  0  0  0  0  0  0  0
    6.5750    0.1640   18.1470 C   0  0  0  0  0  0  0  0  0  0  0  0
    7.1560   -0.7050   19.0000 N   0  0  0  0  0  0  0  0  0  0  0  0
    8.3200   -1.5730   22.3760 C   0  0  2  0  0  0  0  0  0  0  0  0
    7.5490   -1.9040   23.6960 C   0  0  0  0  0  0  0  0  0  0  0  0
    6.8990   -2.5510   24.5190 O   0  0  0  0  0  0  0  0  0  0  0  0
    7.4980   -3.0620   22.9010 N   0  0  0  0  0  0  0  0  0  0  0  0
    7.6200   -4.3930   23.3710 C   0  0  0  0  0  0  0  0  0  0  0  0
    9.5610   -0.5890   22.4610 C   0  0  0  0  0  0  0  0  0  0  0  0
   10.9360   -0.1690   22.9490 C   0  0  0  0  0  0  0  0  0  0  0  0
   12.1450   -0.4840   23.7710 N   0  0  0  0  0  0  0  0  0  0  0  0
   12.1230    0.5590   23.1990 C   0  0  0  0  0  0  0  0  0  0  0  0
   11.4220   -0.6910   23.5070 C   0  0  0  0  0  0  0  0  0  0  0  0
   10.2360   -1.3320   23.2280 C   0  0  0  0  0  0  0  0  0  0  0  0
    9.9400   -2.6920   23.8080 C   0  0  0  0  0  0  0  0  0  0  0  0
  1  2  1  0
  2  3  1  0
  3  4  2  0
  3  5  1  0
  5  6  1  0
  6  7  2  0
  7  8  1  0
  8  9  2  0
  9 10  1  0
 10 11  1  0
  9 12  1  0
  6 13  1  0
 12 13  2  0
  5 14  1  0
 14 15  1  1
 15 16  2  0
 15 17  1  0
 17 18  1  0
 14 19  1  0
 19 20  2  0
 20 21  1  0
 21 22  2  0
 22 23  1  0
 19 24  1  0
 23 24  2  0
 24 25  1  0
M  END
