DAR-DIA-eace69ff-36
     RDKit          3D

 13 14  0  0  0  0  0  0  0  0999 V2000
   13.3400    5.5520   21.7580 C   0  0  0  0  0  0  0  0  0  0  0  0
   12.3880    4.4460   21.7840 N   0  0  0  0  0  0  0  0  0  0  0  0
   12.8620    3.6630   22.9010 C   0  0  0  0  0  0  0  0  0  0  0  0
   11.8660    2.5420   23.2910 C   0  0  0  0  0  0  0  0  0  0  0  0
   10.6930    2.8870   23.9010 C   0  0  0  0  0  0  0  0  0  0  0  0
    9.9380    1.6670   24.1670 N   0  0  0  0  0  0  0  0  0  0  0  0
   10.8200    0.5840   23.6340 C   0  0  0  0  0  0  0  0  0  0  0  0
   10.5180   -0.8110   23.6500 C   0  0  0  0  0  0  0  0  0  0  0  0
   11.4050   -1.7220   23.1180 C   0  0  0  0  0  0  0  0  0  0  0  0
   12.6160   -1.3120   22.5640 C   0  0  0  0  0  0  0  0  0  0  0  0
   13.4340   -2.2220   22.0570 F   0  0  0  0  0  0  0  0  0  0  0  0
   13.0130    0.1270   22.5240 C   0  0  0  0  0  0  0  0  0  0  0  0
   12.0270    1.0660   23.0870 C   0  0  0  0  0  0  0  0  0  0  0  0
  1  2  1  0
  2  3  1  0
  3  4  1  0
  4  5  2  0
  5  6  1  0
  6  7  1  0
  7  8  1  0
  8  9  2  0
  9 10  1  0
 10 11  1  0
 10 12  2  0
  4 13  1  0
  7 13  2  0
 12 13  1  0
M  END
