DAR-DIA-fb20be43-16-nitrile
     RDKit          3D

 27 29  0  0  0  0  0  0  0  0999 V2000
    6.8290   -3.2950   19.5550 C   0  0  0  0  0  0  0  0  0  0  0  0
    5.9000   -3.1780   18.7030 N   0  0  0  0  0  0  0  0  0  0  0  0
    6.7990   -2.6400   20.7470 N   0  0  0  0  0  0  0  0  0  0  0  0
    6.3590   -3.2970   21.9810 C   0  0  0  0  0  0  0  0  0  0  0  0
    7.5620   -3.4550   22.9150 C   0  0  0  0  0  0  0  0  0  0  0  0
    8.2600   -2.1860   23.1170 N   0  0  0  0  0  0  0  0  0  0  0  0
    9.3290   -2.3540   24.0600 C   0  0  0  0  0  0  0  0  0  0  0  0
   10.4810   -1.4450   23.7210 C   0  0  0  0  0  0  0  0  0  0  0  0
   11.4440   -1.8610   22.6810 C   0  0  0  0  0  0  0  0  0  0  0  0
   12.5300   -0.9100   22.4000 C   0  0  0  0  0  0  0  0  0  0  0  0
   13.3580   -1.3200   21.4220 C   0  0  0  0  0  0  0  0  0  0  0  0
   13.9260   -1.6010   20.5210 N   0  0  0  0  0  0  0  0  0  0  0  0
   12.6660    0.2910   23.0580 C   0  0  0  0  0  0  0  0  0  0  0  0
   11.7330    0.6210   24.0180 C   0  0  0  0  0  0  0  0  0  0  0  0
   10.6420   -0.2290   24.3530 C   0  0  0  0  0  0  0  0  0  0  0  0
    9.7230    0.1770   25.3310 C   0  0  0  0  0  0  0  0  0  0  0  0
    9.3040    1.5720   25.2720 N   0  0  0  0  0  0  0  0  0  0  0  0
    9.8600    2.5100   24.4290 C   0  0  0  0  0  0  0  0  0  0  0  0
   10.5470    2.2100   23.4680 O   0  0  0  0  0  0  0  0  0  0  0  0
    9.5660    3.8340   24.7220 N   0  0  0  0  0  0  0  0  0  0  0  0
   10.4410    4.8370   24.0920 C   0  0  0  0  0  0  0  0  0  0  0  0
    9.6930    5.9580   23.7140 C   0  0  0  0  0  0  0  0  0  0  0  0
    9.2530    6.5490   24.6950 O   0  0  0  0  0  0  0  0  0  0  0  0
    8.1290    5.8410   25.2270 C   0  0  0  0  0  0  0  0  0  0  0  0
    8.1980    4.3230   24.9530 C   0  0  0  0  0  0  0  0  0  0  0  0
    8.6880   -1.5460   21.8620 C   0  0  0  0  0  0  0  0  0  0  0  0
    7.5070   -1.3640   20.9060 C   0  0  0  0  0  0  0  0  0  0  0  0
  1  2  2  3
  1  3  1  0
  3  4  1  0
  4  5  1  0
  5  6  1  0
  6  7  1  0
  7  8  1  0
  8  9  2  0
  9 10  1  0
 10 11  1  0
 11 12  3  0
 10 13  2  0
 13 14  1  0
  8 15  1  0
 14 15  2  0
 15 16  1  0
 16 17  1  0
 17 18  1  0
 18 19  2  0
 18 20  1  0
 20 21  1  0
 21 22  1  0
 22 23  1  0
 23 24  1  0
 20 25  1  0
 24 25  1  0
  6 26  1  0
  3 27  1  0
 26 27  1  0
M  END
