DAR-DIA-2b784ede-38-vinylsulfonamide
     RDKit          3D

 36 38  0  0  0  0  0  0  0  0999 V2000
    8.1110   -3.5880   20.2850 C   0  0  0  0  0  0  0  0  0  0  0  0
    6.8630   -2.7040   20.3120 C   0  0  0  0  0  0  0  0  0  0  0  0
    6.2430   -2.7420   21.9410 S   0  0  0  0  0  0  0  0  0  0  0  0
    4.7200   -3.0810   21.6330 O   0  0  0  0  0  0  0  0  0  0  0  0
    7.0220   -3.7830   22.5900 O   0  0  0  0  0  0  0  0  0  0  0  0
    7.0100   -1.2020   22.5980 N   0  0  0  0  0  0  0  0  0  0  0  0
    8.5180   -1.1310   22.3480 C   0  0  0  0  0  0  0  0  0  0  0  0
    9.8710   -1.0050   23.0040 C   0  0  0  0  0  0  0  0  0  0  0  0
   11.1680   -0.8790   23.6960 C   0  0  0  0  0  0  0  0  0  0  0  0
   11.6910   -1.0350   22.1710 C   0  0  0  0  0  0  0  0  0  0  0  0
   13.0170   -0.9300   22.8990 C   0  0  0  0  0  0  0  0  0  0  0  0
   13.6510    0.4360   22.6760 C   0  0  0  0  0  0  0  0  0  0  0  0
   12.9510   -1.1830   24.4290 C   0  0  0  0  0  0  0  0  0  0  0  0
   13.8030   -2.1350   22.3460 C   0  0  0  0  0  0  0  0  0  0  0  0
   10.4960   -1.1300   21.5150 C   0  0  0  0  0  0  0  0  0  0  0  0
    9.1250   -1.2010   21.1770 C   0  0  0  0  0  0  0  0  0  0  0  0
    6.3460    0.0490   22.1240 C   0  0  1  0  0  0  0  0  0  0  0  0
    6.9470    1.3020   22.8160 C   0  0  0  0  0  0  0  0  0  0  0  0
    7.9640    2.0490   22.1190 O   0  0  0  0  0  0  0  0  0  0  0  0
    6.4630    1.5710   24.0820 N   0  0  0  0  0  0  0  0  0  0  0  0
    5.4910    0.8570   24.9370 C   0  0  0  0  0  0  0  0  0  0  0  0
    5.5670    0.1600   26.1800 C   0  0  0  0  0  0  0  0  0  0  0  0
    4.2930   -0.2970   26.4800 C   0  0  0  0  0  0  0  0  0  0  0  0
    6.2210   -0.2840   27.2380 C   0  0  0  0  0  0  0  0  0  0  0  0
    4.7890   -0.2220   26.5300 C   0  0  0  0  0  0  0  0  0  0  0  0
    3.3270   -0.1860   25.8550 C   0  0  0  0  0  0  0  0  0  0  0  0
    4.1160    0.6620   24.6970 C   0  0  0  0  0  0  0  0  0  0  0  0
    3.3230    1.1410   23.5090 C   0  0  0  0  0  0  0  0  0  0  0  0
    2.0910    0.4650   23.3360 O   0  0  0  0  0  0  0  0  0  0  0  0
    6.0850    0.1290   20.5150 C   0  0  0  0  0  0  0  0  0  0  0  0
    6.0830    0.8810   19.3490 C   0  0  0  0  0  0  0  0  0  0  0  0
    5.7360   -0.5210   19.3690 N   0  0  0  0  0  0  0  0  0  0  0  0
    6.0380    0.0660   20.4560 C   0  0  0  0  0  0  0  0  0  0  0  0
    6.0400    0.9500   19.4830 C   0  0  0  0  0  0  0  0  0  0  0  0
    5.7180   -0.5490   19.4150 C   0  0  0  0  0  0  0  0  0  0  0  0
    5.4440   -0.5770   18.0610 C   0  0  0  0  0  0  0  0  0  0  0  0
  1  2  1  0
  2  3  1  0
  3  4  2  0
  3  5  2  0
  3  6  1  0
  6  7  1  0
  7  8  2  0
  8  9  1  0
  9 10  2  0
 10 11  1  0
 11 12  1  0
 11 13  1  0
 11 14  1  0
 10 15  1  0
  7 16  1  0
 15 16  2  0
  6 17  1  0
 17 18  1  6
 18 19  2  0
 18 20  1  0
 20 21  1  0
 21 22  2  0
 22 23  1  0
 22 24  1  0
 24 25  2  0
 25 26  1  0
 21 27  1  0
 26 27  2  0
 27 28  1  0
 28 29  1  0
 17 30  1  0
 30 31  2  0
 31 32  1  0
 32 33  2  0
 33 34  1  0
 30 35  1  0
 34 35  2  0
 35 36  1  0
M  END
