DAR-DIA-fb20be43-15-vinylsulfonamide
     RDKit          3D

 28 30  0  0  0  0  0  0  0  0999 V2000
    7.9750   -3.2840   19.1460 C   0  0  0  0  0  0  0  0  0  0  0  0
    6.8780   -2.4330   18.5100 C   0  0  0  0  0  0  0  0  0  0  0  0
    5.5650   -2.2810   19.6510 S   0  0  0  0  0  0  0  0  0  0  0  0
    4.8770   -3.5590   19.6580 O   0  0  0  0  0  0  0  0  0  0  0  0
    4.8800   -1.0380   19.3730 O   0  0  0  0  0  0  0  0  0  0  0  0
    6.4640   -2.0220   21.0590 N   0  0  0  0  0  0  0  0  0  0  0  0
    6.2560   -2.8850   22.2470 C   0  0  0  0  0  0  0  0  0  0  0  0
    7.5070   -3.0270   23.1410 C   0  0  0  0  0  0  0  0  0  0  0  0
    8.1630   -1.7290   23.2900 N   0  0  0  0  0  0  0  0  0  0  0  0
    9.2060   -1.6430   24.3060 C   0  0  0  0  0  0  0  0  0  0  0  0
   10.3030   -0.7940   23.7560 C   0  0  0  0  0  0  0  0  0  0  0  0
   11.3050   -1.5980   23.0180 C   0  0  0  0  0  0  0  0  0  0  0  0
   12.3550   -0.9350   22.4420 C   0  0  0  0  0  0  0  0  0  0  0  0
   13.4040   -1.9130   21.5860 Cl  0  0  0  0  0  0  0  0  0  0  0  0
   12.5380    0.4340   22.5270 C   0  0  0  0  0  0  0  0  0  0  0  0
   11.6020    1.1920   23.1860 C   0  0  0  0  0  0  0  0  0  0  0  0
   11.5210    2.5650   23.3640 C   0  0  0  0  0  0  0  0  0  0  0  0
   12.4480    3.5110   22.8460 C   0  0  0  0  0  0  0  0  0  0  0  0
   12.3080    4.8380   23.2800 C   0  0  0  0  0  0  0  0  0  0  0  0
   11.1920    5.5180   22.6280 N   0  0  0  0  0  0  0  0  0  0  0  0
   10.2220    6.1520   23.3640 C   0  0  0  0  0  0  0  0  0  0  0  0
    9.1540    6.6240   22.5890 C   0  0  0  0  0  0  0  0  0  0  0  0
   10.2700    6.3030   24.5820 O   0  0  0  0  0  0  0  0  0  0  0  0
   10.3790    2.8930   24.1160 C   0  0  0  0  0  0  0  0  0  0  0  0
    9.7770    1.6650   24.3740 N   0  0  0  0  0  0  0  0  0  0  0  0
   10.4990    0.6140   23.8050 C   0  0  0  0  0  0  0  0  0  0  0  0
    8.6690   -1.3090   21.9930 C   0  0  0  0  0  0  0  0  0  0  0  0
    7.5520   -1.0360   20.9940 C   0  0  0  0  0  0  0  0  0  0  0  0
  1  2  1  0
  3  2  1  0
  3  4  2  0
  3  5  2  0
  3  6  1  0
  6  7  1  0
  7  8  1  0
  8  9  1  0
  9 10  1  0
 10 11  1  0
 11 12  2  0
 12 13  1  0
 13 14  1  0
 13 15  2  0
 15 16  1  0
 16 17  1  0
 17 18  1  0
 18 19  1  0
 19 20  1  0
 20 21  1  0
 21 22  1  0
 21 23  2  0
 17 24  2  0
 24 25  1  0
 11 26  1  0
 16 26  2  0
 25 26  1  0
  9 27  1  0
  6 28  1  0
 27 28  1  0
M  END
