DAR-DIA-eace69ff-25
     RDKit          3D

 22 24  0  0  0  0  0  0  0  0999 V2000
   13.3590   -2.1700   20.8900 C   0  0  0  0  0  0  0  0  0  0  0  0
   13.2660   -2.0110   22.3540 C   0  0  0  0  0  0  0  0  0  0  0  0
   12.4740   -0.8080   22.7820 C   0  0  0  0  0  0  0  0  0  0  0  0
   11.3370   -1.3920   23.2800 C   0  0  0  0  0  0  0  0  0  0  0  0
   10.2640   -0.7290   23.8100 C   0  0  0  0  0  0  0  0  0  0  0  0
    9.1600   -1.4230   24.2850 N   0  0  0  0  0  0  0  0  0  0  0  0
    9.1000   -2.0360   25.6050 C   0  0  0  0  0  0  0  0  0  0  0  0
    9.5810   -3.3400   25.4610 C   0  0  0  0  0  0  0  0  0  0  0  0
    8.5810   -4.3120   25.5440 C   0  0  0  0  0  0  0  0  0  0  0  0
    7.7080   -4.3170   24.3360 C   0  0  0  0  0  0  0  0  0  0  0  0
    8.0930   -3.1940   23.4620 C   0  0  0  0  0  0  0  0  0  0  0  0
    8.4490   -2.0760   23.1780 C   0  0  0  0  0  0  0  0  0  0  0  0
   10.4770    0.7900   23.7800 C   0  0  0  0  0  0  0  0  0  0  0  0
    9.6940    1.8340   24.1960 N   0  0  0  0  0  0  0  0  0  0  0  0
   10.4150    3.0660   23.8910 C   0  0  0  0  0  0  0  0  0  0  0  0
   11.6380    2.8210   23.2910 C   0  0  0  0  0  0  0  0  0  0  0  0
   12.5150    3.8300   22.8740 C   0  0  0  0  0  0  0  0  0  0  0  0
   12.1890    5.1570   22.9960 N   0  0  0  0  0  0  0  0  0  0  0  0
   10.9880    5.5190   22.5810 C   0  0  0  0  0  0  0  0  0  0  0  0
   12.3000    5.6660   24.3440 C   0  0  0  0  0  0  0  0  0  0  0  0
   11.7680    1.4030   23.1980 C   0  0  0  0  0  0  0  0  0  0  0  0
   12.7530    0.5640   22.7150 C   0  0  0  0  0  0  0  0  0  0  0  0
  1  2  1  0
  2  3  1  0
  3  4  2  0
  4  5  1  0
  5  6  1  0
  6  7  1  0
  7  8  1  0
  8  9  1  0
  9 10  1  0
 10 11  1  0
  6 12  1  0
 11 12  1  0
  5 13  2  0
 13 14  1  0
 14 15  1  0
 15 16  2  0
 16 17  1  0
 17 18  1  0
 18 19  1  0
 18 20  1  0
 13 21  1  0
 16 21  1  0
  3 22  1  0
 21 22  2  0
M  END
