DAR-DIA-842b4336-24
     RDKit          3D

 18 20  0  0  0  0  0  0  0  0999 V2000
    8.3320    0.6070   21.2680 O   0  0  0  0  0  0  0  0  0  0  0  0
    7.5820   -0.2740   21.7040 C   0  0  0  0  0  0  0  0  0  0  0  0
    7.7330   -0.8690   23.0610 C   0  0  0  0  0  0  0  0  0  0  0  0
    9.1810   -0.6820   22.9900 C   0  0  0  0  0  0  0  0  0  0  0  0
   10.0370   -1.6990   22.3430 C   0  0  0  0  0  0  0  0  0  0  0  0
   11.4120   -1.2680   22.3190 C   0  0  0  0  0  0  0  0  0  0  0  0
   12.3460   -0.5630   22.5070 C   0  0  0  0  0  0  0  0  0  0  0  0
   13.5350   -0.5460   22.2760 C   0  0  0  0  0  0  0  0  0  0  0  0
   13.7080    0.6360   22.7960 C   0  0  0  0  0  0  0  0  0  0  0  0
   12.3370    0.9470   23.2630 N   0  0  0  0  0  0  0  0  0  0  0  0
   11.2190    0.0450   23.0280 C   0  0  0  0  0  0  0  0  0  0  0  0
    9.9540    0.3980   23.4380 N   0  0  0  0  0  0  0  0  0  0  0  0
    6.5650   -0.7940   20.9760 N   0  0  0  0  0  0  0  0  0  0  0  0
    6.0860   -0.0860   19.9140 C   0  0  0  0  0  0  0  0  0  0  0  0
    4.9780    0.6450   19.9350 C   0  0  0  0  0  0  0  0  0  0  0  0
    4.6470    1.3010   18.7910 C   0  0  0  0  0  0  0  0  0  0  0  0
    5.7820    1.0010   17.5830 S   0  0  0  0  0  0  0  0  0  0  0  0
    6.6730   -0.0030   18.6570 C   0  0  0  0  0  0  0  0  0  0  0  0
  1  2  2  0
  2  3  1  0
  3  4  1  0
  4  5  2  0
  5  6  1  0
  6  7  2  0
  7  8  1  0
  8  9  2  0
  9 10  1  0
  6 11  1  0
 10 11  2  0
  4 12  1  0
 11 12  1  0
  2 13  1  0
 13 14  1  0
 14 15  1  0
 15 16  2  0
 16 17  1  0
 14 18  2  0
 17 18  1  0
M  END
