DAR-DIA-2b784ede-17-nitrile
     RDKit          3D

 35 38  0  0  0  0  0  0  0  0999 V2000
    6.7060   -3.8160   20.0210 C   0  0  0  0  0  0  0  0  0  0  0  0
    5.8160   -3.4360   19.1840 N   0  0  0  0  0  0  0  0  0  0  0  0
    6.7410   -3.2790   21.2840 N   0  0  0  0  0  0  0  0  0  0  0  0
    5.5890   -3.4300   22.0300 C   0  0  0  0  0  0  0  0  0  0  0  0
    4.3620   -3.4830   22.9610 C   0  0  0  0  0  0  0  0  0  0  0  0
    3.9850   -2.7330   24.2150 C   0  0  0  0  0  0  0  0  0  0  0  0
    4.8690   -1.8190   24.6570 C   0  0  0  0  0  0  0  0  0  0  0  0
    4.9660   -0.8510   25.8040 C   0  0  0  0  0  0  0  0  0  0  0  0
    6.3510   -1.3430   26.8460 Cl  0  0  0  0  0  0  0  0  0  0  0  0
    3.6820   -0.8240   26.6520 C   0  0  0  0  0  0  0  0  0  0  0  0
    3.0530    0.5760   26.6090 C   0  0  0  0  0  0  0  0  0  0  0  0
    3.7710    1.2710   25.4610 C   0  0  0  0  0  0  0  0  0  0  0  0
    5.1650    0.6160   25.3530 C   0  0  0  0  0  0  0  0  0  0  0  0
    5.7860   -1.9340   23.7690 C   0  0  0  0  0  0  0  0  0  0  0  0
    6.2540   -2.4800   22.7010 N   0  0  0  0  0  0  0  0  0  0  0  0
    7.3350   -1.9050   21.4030 C   0  0  1  0  0  0  0  0  0  0  0  0
    8.6660   -2.0720   21.8580 C   0  0  0  0  0  0  0  0  0  0  0  0
    8.8350   -2.9840   22.6600 O   0  0  0  0  0  0  0  0  0  0  0  0
    9.7630   -1.3420   21.5430 N   0  0  0  0  0  0  0  0  0  0  0  0
   10.6610   -1.2320   22.5690 C   0  0  0  0  0  0  0  0  0  0  0  0
   10.1960   -0.8580   23.8440 C   0  0  0  0  0  0  0  0  0  0  0  0
    8.8310   -0.6130   24.0370 C   0  0  0  0  0  0  0  0  0  0  0  0
   11.0230   -0.7070   24.9750 C   0  0  0  0  0  0  0  0  0  0  0  0
   12.3960   -0.9310   24.9050 C   0  0  0  0  0  0  0  0  0  0  0  0
   12.9760   -1.3350   23.6120 C   0  0  0  0  0  0  0  0  0  0  0  0
   12.0770   -1.4830   22.4190 C   0  0  0  0  0  0  0  0  0  0  0  0
   12.7960   -1.8900   21.1540 C   0  0  0  0  0  0  0  0  0  0  0  0
   13.1020   -3.2200   21.1480 C   0  0  0  0  0  0  0  0  0  0  0  0
    6.8920   -0.8600   20.3280 C   0  0  0  0  0  0  0  0  0  0  0  0
    6.3400    0.3310   20.7960 C   0  0  0  0  0  0  0  0  0  0  0  0
    5.8530    1.3990   20.1130 N   0  0  0  0  0  0  0  0  0  0  0  0
    5.9060    1.3000   18.7800 C   0  0  0  0  0  0  0  0  0  0  0  0
    6.4780    0.0940   18.1210 C   0  0  0  0  0  0  0  0  0  0  0  0
    6.9620   -0.9670   18.8870 C   0  0  0  0  0  0  0  0  0  0  0  0
    7.5020   -2.1200   18.0940 C   0  0  0  0  0  0  0  0  0  0  0  0
  1  2  2  3
  1  3  1  0
  3  4  1  0
  4  5  2  0
  5  6  1  0
  6  7  2  0
  7  8  1  0
  8  9  1  0
  8 10  1  0
 10 11  1  0
 11 12  1  0
  8 13  1  0
 12 13  1  0
  7 14  1  0
  4 15  1  0
 14 15  2  0
  3 16  1  0
 16 17  1  6
 17 18  2  0
 17 19  1  0
 19 20  1  0
 20 21  2  0
 21 22  1  0
 21 23  1  0
 23 24  2  0
 24 25  1  0
 20 26  1  0
 25 26  2  0
 26 27  1  0
 27 28  1  0
 16 29  1  0
 29 30  2  0
 30 31  1  0
 31 32  2  0
 32 33  1  0
 29 34  1  0
 33 34  2  0
 34 35  1  0
M  END
