DAR-DIA-2b784ede-39-vinylsulfonamide
     RDKit          3D

 37 39  0  0  0  0  0  0  0  0999 V2000
    6.9180   -5.3510   20.9770 C   0  0  0  0  0  0  0  0  0  0  0  0
    7.2230   -4.6620   22.3170 C   0  0  0  0  0  0  0  0  0  0  0  0
    6.0540   -3.2910   22.5540 S   0  0  0  0  0  0  0  0  0  0  0  0
    5.0230   -3.4220   21.4450 O   0  0  0  0  0  0  0  0  0  0  0  0
    5.6170   -3.6270   23.9650 O   0  0  0  0  0  0  0  0  0  0  0  0
    6.8790   -1.7900   22.7790 N   0  0  0  0  0  0  0  0  0  0  0  0
    8.4300   -1.6890   22.4680 C   0  0  0  0  0  0  0  0  0  0  0  0
    9.7410   -1.3770   22.8450 C   0  0  0  0  0  0  0  0  0  0  0  0
   10.4660   -1.7140   21.6520 C   0  0  0  0  0  0  0  0  0  0  0  0
   11.3950   -1.3130   22.7260 C   0  0  0  0  0  0  0  0  0  0  0  0
   12.8870   -1.3280   22.4850 C   0  0  0  0  0  0  0  0  0  0  0  0
   13.4200   -0.0390   22.0730 C   0  0  0  0  0  0  0  0  0  0  0  0
   13.3610   -2.5580   21.6990 C   0  0  0  0  0  0  0  0  0  0  0  0
   13.4530   -1.6780   23.8760 C   0  0  0  0  0  0  0  0  0  0  0  0
   10.5730   -0.9450   23.7890 C   0  0  0  0  0  0  0  0  0  0  0  0
    9.1290   -1.1650   23.5800 C   0  0  0  0  0  0  0  0  0  0  0  0
    5.9360   -0.5870   22.3300 C   0  0  1  0  0  0  0  0  0  0  0  0
    5.8940    0.5140   23.4210 C   0  0  0  0  0  0  0  0  0  0  0  0
    7.1780    1.0500   23.8130 O   0  0  0  0  0  0  0  0  0  0  0  0
    4.5780    0.9700   23.8870 N   0  0  0  0  0  0  0  0  0  0  0  0
    4.6900    1.5310   25.1750 C   0  0  0  0  0  0  0  0  0  0  0  0
    5.9450    1.2810   25.2170 C   0  0  0  0  0  0  0  0  0  0  0  0
    6.4480    0.7390   24.1920 C   0  0  0  0  0  0  0  0  0  0  0  0
    5.9570    1.3070   22.9540 C   0  0  0  0  0  0  0  0  0  0  0  0
    6.2930    1.7360   26.3640 C   0  0  0  0  0  0  0  0  0  0  0  0
    6.6480    2.1970   27.5300 C   0  0  0  0  0  0  0  0  0  0  0  0
    5.0970    2.6060   27.7380 C   0  0  0  0  0  0  0  0  0  0  0  0
    4.2060    2.1680   26.3330 C   0  0  0  0  0  0  0  0  0  0  0  0
    2.8220    2.6050   26.4260 C   0  0  0  0  0  0  0  0  0  0  0  0
    2.0010    1.4830   26.4420 O   0  0  0  0  0  0  0  0  0  0  0  0
    6.0600    0.1950   20.8730 C   0  0  0  0  0  0  0  0  0  0  0  0
    5.2760   -0.2040   19.5530 C   0  0  0  0  0  0  0  0  0  0  0  0
    6.2760    0.7270   19.7940 N   0  0  0  0  0  0  0  0  0  0  0  0
    5.6490   -0.1760   20.5050 C   0  0  0  0  0  0  0  0  0  0  0  0
    5.0630   -0.2640   19.1180 C   0  0  0  0  0  0  0  0  0  0  0  0
    6.0330    0.7040   19.5700 C   0  0  0  0  0  0  0  0  0  0  0  0
    6.7040    1.8250   18.9100 C   0  0  0  0  0  0  0  0  0  0  0  0
  1  2  1  0
  2  3  1  0
  3  4  2  0
  3  5  2  0
  3  6  1  0
  6  7  1  0
  7  8  2  0
  8  9  1  0
  9 10  2  0
 10 11  1  0
 11 12  1  0
 11 13  1  0
 11 14  1  0
 10 15  1  0
  7 16  1  0
 15 16  2  0
  6 17  1  0
 17 18  1  1
 18 19  2  0
 18 20  1  0
 20 21  1  0
 21 22  2  0
 22 23  1  0
 23 24  1  0
 22 25  1  0
 25 26  2  0
 26 27  1  0
 21 28  1  0
 27 28  2  0
 28 29  1  0
 29 30  1  0
 17 31  1  0
 31 32  2  0
 32 33  1  0
 33 34  2  0
 34 35  1  0
 31 36  1  0
 35 36  2  0
 36 37  1  0
M  END
