DAR-DIA-caba39e3-5-vinylsulfonamide
     RDKit          3D

 31 34  0  0  0  0  0  0  0  0999 V2000
    7.3560   -2.9220   18.7330 C   0  0  0  0  0  0  0  0  0  0  0  0
    6.5590   -2.3670   19.9160 C   0  0  0  0  0  0  0  0  0  0  0  0
    5.7600   -3.6110   20.9180 S   0  0  0  0  0  0  0  0  0  0  0  0
    4.6290   -3.0290   21.5600 O   0  0  0  0  0  0  0  0  0  0  0  0
    5.5600   -4.7990   20.1070 O   0  0  0  0  0  0  0  0  0  0  0  0
    6.9010   -3.7900   22.1450 N   0  0  0  0  0  0  0  0  0  0  0  0
    6.3270   -4.2260   23.4000 C   0  0  0  0  0  0  0  0  0  0  0  0
    7.1490   -4.2900   24.5140 C   0  0  0  0  0  0  0  0  0  0  0  0
    6.9370   -5.1840   25.5430 C   0  0  0  0  0  0  0  0  0  0  0  0
    7.8240   -5.2660   26.7300 C   0  0  0  0  0  0  0  0  0  0  0  0
    8.9010   -4.3910   26.7750 C   0  0  0  0  0  0  0  0  0  0  0  0
    9.1420   -3.4580   25.7350 C   0  0  0  0  0  0  0  0  0  0  0  0
    8.2430   -3.4500   24.6390 C   0  0  0  0  0  0  0  0  0  0  0  0
    8.5680   -2.4110   23.5260 C   0  0  2  0  0  0  0  0  0  0  0  0
    8.6100   -0.8550   23.7620 C   0  0  0  0  0  0  0  0  0  0  0  0
    7.4810   -0.0570   23.8810 C   0  0  0  0  0  0  0  0  0  0  0  0
    7.7150    1.3700   24.0950 C   0  0  0  0  0  0  0  0  0  0  0  0
    6.3830    2.4420   24.2560 Cl  0  0  0  0  0  0  0  0  0  0  0  0
    9.0270    1.8670   24.1700 C   0  0  0  0  0  0  0  0  0  0  0  0
   10.2600    1.2020   24.0740 C   0  0  0  0  0  0  0  0  0  0  0  0
   10.9210    0.0650   23.9060 C   0  0  0  0  0  0  0  0  0  0  0  0
   12.3210    0.1310   23.9320 C   0  0  0  0  0  0  0  0  0  0  0  0
   12.9580   -0.0230   22.5990 C   0  0  0  0  0  0  0  0  0  0  0  0
   12.5380   -1.2510   21.9230 N   0  0  0  0  0  0  0  0  0  0  0  0
   13.0790   -2.4380   22.3310 C   0  0  0  0  0  0  0  0  0  0  0  0
   13.3240   -2.5750   23.8230 C   0  0  0  0  0  0  0  0  0  0  0  0
   13.3920   -3.4690   21.3880 O   0  0  0  0  0  0  0  0  0  0  0  0
   10.2340   -1.2760   23.6960 C   0  0  0  0  0  0  0  0  0  0  0  0
   11.3200   -0.7820   23.7790 N   0  0  0  0  0  0  0  0  0  0  0  0
    9.9870   -0.1380   23.8710 C   0  0  0  0  0  0  0  0  0  0  0  0
    7.7150   -2.5790   22.2570 C   0  0  0  0  0  0  0  0  0  0  0  0
  1  2  1  0
  3  2  1  0
  3  4  2  0
  3  5  2  0
  3  6  1  0
  6  7  1  0
  7  8  1  0
  8  9  1  0
  9 10  2  0
 10 11  1  0
 11 12  2  0
  8 13  2  0
 12 13  1  0
 13 14  1  0
 14 15  1  1
 15 16  2  0
 16 17  1  0
 17 18  1  0
 17 19  2  0
 19 20  1  0
 20 21  1  0
 21 22  1  0
 22 23  1  0
 23 24  1  0
 24 25  1  0
 25 26  1  0
 25 27  2  0
 21 28  2  0
 28 29  1  0
 15 30  1  0
 20 30  2  0
 29 30  1  0
  6 31  1  0
 14 31  1  0
M  END
