DAR-DIA-23aa0b97-7-vinylsulfonamide
     RDKit          3D

 22 23  0  0  0  0  0  0  0  0999 V2000
    6.8380   -3.5980   19.7440 C   0  0  0  0  0  0  0  0  0  0  0  0
    7.1790   -3.0010   21.1040 C   0  0  0  0  0  0  0  0  0  0  0  0
    5.7190   -2.9340   22.1130 S   0  0  0  0  0  0  0  0  0  0  0  0
    4.9670   -4.1690   21.8900 O   0  0  0  0  0  0  0  0  0  0  0  0
    5.0510   -1.6710   21.7980 O   0  0  0  0  0  0  0  0  0  0  0  0
    6.3190   -2.9610   23.8280 C   0  0  0  0  0  0  0  0  0  0  0  0
    6.2400   -4.0260   23.9310 C   0  0  0  0  0  0  0  0  0  0  0  0
    5.9990   -3.0480   22.9260 N   0  0  0  0  0  0  0  0  0  0  0  0
    6.3270   -1.3900   23.3470 C   0  0  0  0  0  0  0  0  0  0  0  0
    6.8540   -1.3020   24.8490 C   0  0  0  0  0  0  0  0  0  0  0  0
    7.0670    0.0850   25.0330 N   0  0  0  0  0  0  0  0  0  0  0  0
    8.2890    0.7440   25.0070 C   0  0  0  0  0  0  0  0  0  0  0  0
    8.4330    1.9470   24.7900 O   0  0  0  0  0  0  0  0  0  0  0  0
    9.4550   -0.2010   25.2870 C   0  0  0  0  0  0  0  0  0  0  0  0
   10.6840    0.0180   24.4510 C   0  0  0  0  0  0  0  0  0  0  0  0
   11.4470   -1.1380   24.1780 C   0  0  0  0  0  0  0  0  0  0  0  0
   12.5620   -1.0020   23.4330 N   0  0  0  0  0  0  0  0  0  0  0  0
   12.7720    0.2480   23.0650 C   0  0  0  0  0  0  0  0  0  0  0  0
   12.0200    1.3600   23.3400 C   0  0  0  0  0  0  0  0  0  0  0  0
   12.5040    2.5540   22.8100 N   0  0  0  0  0  0  0  0  0  0  0  0
   10.8350    1.4110   24.0910 C   0  0  0  0  0  0  0  0  0  0  0  0
    6.5170   -1.9540   24.0810 C   0  0  0  0  0  0  0  0  0  0  0  0
  1  2  1  0
  3  2  1  0
  3  4  2  0
  3  5  2  0
  3  6  1  0
  6  7  2  0
  7  8  1  0
  8  9  2  0
  9 10  1  0
 10 11  1  0
 11 12  1  0
 12 13  2  0
 12 14  1  0
 14 15  1  0
 15 16  2  0
 16 17  1  0
 17 18  2  0
 18 19  1  0
 19 20  1  0
 15 21  1  0
 19 21  2  0
  6 22  1  0
 10 22  2  0
M  END
