DAR-DIA-2b784ede-41-vinylsulfonamide
     RDKit          3D

 39 41  0  0  0  0  0  0  0  0999 V2000
    8.1970   -3.7830   20.1260 C   0  0  0  0  0  0  0  0  0  0  0  0
    7.5410   -4.5220   21.3050 C   0  0  0  0  0  0  0  0  0  0  0  0
    6.4320   -3.5100   22.2650 S   0  0  0  0  0  0  0  0  0  0  0  0
    5.0420   -3.4950   21.4980 O   0  0  0  0  0  0  0  0  0  0  0  0
    6.3330   -4.2420   23.5190 O   0  0  0  0  0  0  0  0  0  0  0  0
    7.3800   -1.9660   22.7650 N   0  0  0  0  0  0  0  0  0  0  0  0
    6.7510   -0.9530   22.1430 C   0  0  0  0  0  0  0  0  0  0  0  0
    6.2210   -1.0740   23.4100 C   0  0  0  0  0  0  0  0  0  0  0  0
    6.8580   -2.0590   24.2120 C   0  0  0  0  0  0  0  0  0  0  0  0
    8.0050   -2.8990   23.7230 C   0  0  0  0  0  0  0  0  0  0  0  0
    8.5660   -3.9200   24.6590 C   0  0  0  0  0  0  0  0  0  0  0  0
    7.8480   -4.1780   25.8110 C   0  0  0  0  0  0  0  0  0  0  0  0
   10.0090   -3.7430   25.1090 C   0  0  0  0  0  0  0  0  0  0  0  0
    8.5270   -5.3270   24.0780 C   0  0  0  0  0  0  0  0  0  0  0  0
    8.4490   -2.6460   22.3630 C   0  0  0  0  0  0  0  0  0  0  0  0
    7.7780   -1.5710   21.4510 C   0  0  0  0  0  0  0  0  0  0  0  0
    8.6680   -1.4180   22.3560 C   0  0  1  0  0  0  0  0  0  0  0  0
    8.4990   -0.0380   22.0270 C   0  0  0  0  0  0  0  0  0  0  0  0
    9.5630    0.5360   21.8030 O   0  0  0  0  0  0  0  0  0  0  0  0
    7.2550    0.5720   21.9590 N   0  0  0  0  0  0  0  0  0  0  0  0
    6.4700    0.4010   20.9030 C   0  0  0  0  0  0  0  0  0  0  0  0
    6.9420   -0.3630   19.8500 C   0  0  0  0  0  0  0  0  0  0  0  0
    6.2140   -0.6000   18.7300 C   0  0  0  0  0  0  0  0  0  0  0  0
    6.8100   -1.3530   17.7720 C   0  0  0  0  0  0  0  0  0  0  0  0
    7.3950   -0.1780   16.6720 S   0  0  0  0  0  0  0  0  0  0  0  0
    8.5270   -1.2940   16.1200 C   0  0  0  0  0  0  0  0  0  0  0  0
    6.8130    1.3810   16.5190 C   0  0  0  0  0  0  0  0  0  0  0  0
    8.5460    0.0840   15.4860 N   0  0  0  0  0  0  0  0  0  0  0  0
    4.9420   -0.0850   18.5590 C   0  0  0  0  0  0  0  0  0  0  0  0
    4.3210    0.7680   19.6510 C   0  0  0  0  0  0  0  0  0  0  0  0
    5.0470    1.0180   20.8050 C   0  0  0  0  0  0  0  0  0  0  0  0
    4.4360    1.8710   21.9120 C   0  0  0  0  0  0  0  0  0  0  0  0
   10.0090   -1.5270   23.0980 C   0  0  0  0  0  0  0  0  0  0  0  0
   10.5830   -0.3520   23.6440 C   0  0  0  0  0  0  0  0  0  0  0  0
   11.7610   -0.2200   24.3170 N   0  0  0  0  0  0  0  0  0  0  0  0
   12.5030   -1.3610   24.5040 C   0  0  0  0  0  0  0  0  0  0  0  0
   12.0220   -2.6920   23.9810 C   0  0  0  0  0  0  0  0  0  0  0  0
   10.6950   -2.7010   23.2470 C   0  0  0  0  0  0  0  0  0  0  0  0
   10.0410   -3.9050   22.6450 C   0  0  0  0  0  0  0  0  0  0  0  0
  1  2  1  0
  2  3  1  0
  3  4  2  0
  3  5  2  0
  3  6  1  0
  6  7  1  0
  7  8  2  0
  8  9  1  0
  9 10  2  0
 10 11  1  0
 11 12  1  0
 11 13  1  0
 11 14  1  0
 10 15  1  0
  7 16  1  0
 15 16  2  0
  6 17  1  0
 17 18  1  1
 18 19  2  0
 18 20  1  0
 20 21  1  0
 21 22  2  0
 22 23  1  0
 23 24  1  0
 24 25  1  0
 25 26  2  0
 25 27  2  0
 25 28  1  0
 23 29  2  0
 29 30  1  0
 21 31  1  0
 30 31  2  0
 31 32  1  0
 17 33  1  0
 33 34  2  0
 34 35  1  0
 35 36  2  0
 36 37  1  0
 33 38  1  0
 37 38  2  0
 38 39  1  0
M  END
