DAR-DIA-2b784ede-1-chloroacetamide
     RDKit          3D

 25 26  0  0  0  0  0  0  0  0999 V2000
    8.1610   -3.8160   20.5680 C   0  0  0  0  0  0  0  0  0  0  0  0
    7.6730   -2.6380   19.8630 C   0  0  0  0  0  0  0  0  0  0  0  0
    6.8330   -2.8260   18.8870 O   0  0  0  0  0  0  0  0  0  0  0  0
    8.2470   -1.4460   20.4310 N   0  0  0  0  0  0  0  0  0  0  0  0
    7.2600   -0.3800   20.2200 C   0  0  0  0  0  0  0  0  0  0  0  0
    6.5810    0.3700   21.1960 C   0  0  0  0  0  0  0  0  0  0  0  0
    5.6410    1.3280   20.8010 C   0  0  0  0  0  0  0  0  0  0  0  0
    5.3710    1.5390   19.3470 C   0  0  0  0  0  0  0  0  0  0  0  0
    4.4300    2.4810   18.9290 C   0  0  0  0  0  0  0  0  0  0  0  0
    3.1590    2.3760   19.5110 C   0  0  0  0  0  0  0  0  0  0  0  0
    1.9420    2.2980   20.1130 N   0  0  0  0  0  0  0  0  0  0  0  0
    6.1030    0.7490   18.4800 C   0  0  0  0  0  0  0  0  0  0  0  0
    7.0010   -0.1670   18.9010 N   0  0  0  0  0  0  0  0  0  0  0  0
    9.2620   -1.7010   21.6650 C   0  0  1  0  0  0  0  0  0  0  0  0
   10.7670   -2.1940   21.4790 C   0  0  0  0  0  0  0  0  0  0  0  0
   11.6570   -1.5800   22.0620 O   0  0  0  0  0  0  0  0  0  0  0  0
   11.1520   -3.2610   20.7230 N   0  0  0  0  0  0  0  0  0  0  0  0
   12.5730   -3.5020   20.7440 C   0  0  0  0  0  0  0  0  0  0  0  0
    9.6520   -0.7110   22.7290 C   0  0  0  0  0  0  0  0  0  0  0  0
   10.4990    0.3840   22.2670 C   0  0  0  0  0  0  0  0  0  0  0  0
   10.2570    0.3950   23.4530 N   0  0  0  0  0  0  0  0  0  0  0  0
   10.4470    0.9980   24.5050 C   0  0  0  0  0  0  0  0  0  0  0  0
    9.7150    0.1330   25.1750 C   0  0  0  0  0  0  0  0  0  0  0  0
    9.2690   -0.8290   24.1660 C   0  0  0  0  0  0  0  0  0  0  0  0
    8.4050   -1.9680   24.6200 C   0  0  0  0  0  0  0  0  0  0  0  0
  1  2  1  0
  2  3  2  0
  2  4  1  0
  4  5  1  0
  5  6  2  0
  6  7  1  0
  7  8  2  0
  8  9  1  0
  9 10  1  0
 10 11  3  0
  8 12  1  0
  5 13  1  0
 12 13  2  0
  4 14  1  0
 14 15  1  6
 15 16  2  0
 15 17  1  0
 17 18  1  0
 14 19  1  0
 19 20  2  0
 20 21  1  0
 21 22  2  0
 22 23  1  0
 19 24  1  0
 23 24  2  0
 24 25  1  0
M  END
