DAR-DIA-23aa0b97-2-chloroacetamide
     RDKit          3D

 22 24  0  0  0  0  0  0  0  0999 V2000
    7.2330   -4.7710   20.9370 C   0  0  0  0  0  0  0  0  0  0  0  0
    6.6700   -3.3940   20.5120 C   0  0  0  0  0  0  0  0  0  0  0  0
    5.8740   -4.0170   19.7840 O   0  0  0  0  0  0  0  0  0  0  0  0
    7.7520   -3.0800   21.5190 C   0  0  0  0  0  0  0  0  0  0  0  0
    8.7320   -2.0110   21.3810 C   0  0  0  0  0  0  0  0  0  0  0  0
    9.7720   -1.6630   22.2890 N   0  0  0  0  0  0  0  0  0  0  0  0
    9.8400   -2.4350   23.3990 C   0  0  0  0  0  0  0  0  0  0  0  0
    8.8900   -3.3830   23.4050 C   0  0  0  0  0  0  0  0  0  0  0  0
    8.7600   -2.5130   22.3030 N   0  0  0  0  0  0  0  0  0  0  0  0
    8.0500   -1.2700   22.4430 C   0  0  0  0  0  0  0  0  0  0  0  0
    8.5040   -0.2260   22.9370 O   0  0  0  0  0  0  0  0  0  0  0  0
    6.5920   -1.2710   21.9600 C   0  0  0  0  0  0  0  0  0  0  0  0
    6.4150   -0.6790   20.5860 C   0  0  0  0  0  0  0  0  0  0  0  0
    7.0700   -1.0470   19.4180 C   0  0  0  0  0  0  0  0  0  0  0  0
    6.6170   -0.2520   18.3940 N   0  0  0  0  0  0  0  0  0  0  0  0
    5.6860    0.6190   18.8630 C   0  0  0  0  0  0  0  0  0  0  0  0
    5.0570    1.5280   18.1100 N   0  0  0  0  0  0  0  0  0  0  0  0
    4.1720    2.2740   18.8060 C   0  0  0  0  0  0  0  0  0  0  0  0
    3.9080    2.1530   20.1630 C   0  0  0  0  0  0  0  0  0  0  0  0
    4.5950    1.1920   20.9020 C   0  0  0  0  0  0  0  0  0  0  0  0
    5.5250    0.3880   20.2260 C   0  0  0  0  0  0  0  0  0  0  0  0
    7.8600   -3.8560   22.6990 C   0  0  0  0  0  0  0  0  0  0  0  0
  1  2  1  0
  2  3  2  0
  2  4  1  0
  4  5  2  0
  5  6  1  0
  6  7  2  0
  7  8  1  0
  8  9  1  0
  9 10  1  0
 10 11  2  0
 10 12  1  0
 12 13  1  0
 13 14  2  0
 14 15  1  0
 15 16  1  0
 16 17  1  0
 17 18  2  0
 18 19  1  0
 19 20  2  0
 13 21  1  0
 16 21  2  0
 20 21  1  0
  4 22  1  0
  8 22  2  0
M  END
