DAR-DIA-caba39e3-10-chloroacetamide
     RDKit          3D

 29 32  0  0  0  0  0  0  0  0999 V2000
    6.8900   -3.1990   19.3640 C   0  0  0  0  0  0  0  0  0  0  0  0
    5.8880   -3.9130   20.2700 C   0  0  0  0  0  0  0  0  0  0  0  0
    5.4620   -5.0310   20.0100 O   0  0  0  0  0  0  0  0  0  0  0  0
    5.3540   -3.3010   21.4320 N   0  0  0  0  0  0  0  0  0  0  0  0
    4.8080   -4.2300   22.4910 C   0  0  0  0  0  0  0  0  0  0  0  0
    5.7190   -4.3930   23.6910 C   0  0  0  0  0  0  0  0  0  0  0  0
    5.5310   -5.4230   24.6280 C   0  0  0  0  0  0  0  0  0  0  0  0
    6.3950   -5.5420   25.7270 C   0  0  0  0  0  0  0  0  0  0  0  0
    7.4450   -4.6500   25.8960 C   0  0  0  0  0  0  0  0  0  0  0  0
    7.6310   -3.6330   24.9720 C   0  0  0  0  0  0  0  0  0  0  0  0
    6.7580   -3.5100   23.8720 C   0  0  0  0  0  0  0  0  0  0  0  0
    6.9360   -2.4090   22.8740 C   0  0  2  0  0  0  0  0  0  0  0  0
    7.6180   -1.3440   23.6700 C   0  0  0  0  0  0  0  0  0  0  0  0
    7.0310   -0.5060   24.6040 C   0  0  0  0  0  0  0  0  0  0  0  0
    7.8250    0.3900   25.2760 C   0  0  0  0  0  0  0  0  0  0  0  0
    7.4030    1.2760   26.2320 O   0  0  0  0  0  0  0  0  0  0  0  0
    7.2710    2.6330   25.8380 C   0  0  0  0  0  0  0  0  0  0  0  0
    9.1920    0.4260   24.9950 C   0  0  0  0  0  0  0  0  0  0  0  0
    9.8520   -0.4080   24.0410 C   0  0  0  0  0  0  0  0  0  0  0  0
   11.2250   -0.4280   23.7130 C   0  0  0  0  0  0  0  0  0  0  0  0
   11.6580   -1.3210   22.7630 C   0  0  0  0  0  0  0  0  0  0  0  0
   13.3140   -1.3430   22.4030 S   0  0  0  0  0  0  0  0  0  0  0  0
   13.5800    0.1350   23.0940 N   0  0  0  0  0  0  0  0  0  0  0  0
   13.5170   -1.2900   20.9740 O   0  0  0  0  0  0  0  0  0  0  0  0
   13.8610   -2.3510   23.2740 O   0  0  0  0  0  0  0  0  0  0  0  0
   10.8420   -2.2560   22.0390 C   0  0  0  0  0  0  0  0  0  0  0  0
    9.4510   -2.2260   22.3870 C   0  0  0  0  0  0  0  0  0  0  0  0
    8.9540   -1.2760   23.4160 C   0  0  0  0  0  0  0  0  0  0  0  0
    5.9200   -2.0590   21.9780 C   0  0  0  0  0  0  0  0  0  0  0  0
  1  2  1  0
  2  3  2  0
  2  4  1  0
  4  5  1  0
  5  6  1  0
  6  7  1  0
  7  8  2  0
  8  9  1  0
  9 10  2  0
  6 11  2  0
 10 11  1  0
 11 12  1  0
 12 13  1  1
 13 14  2  0
 14 15  1  0
 15 16  1  0
 16 17  1  0
 15 18  2  0
 18 19  1  0
 19 20  1  0
 20 21  2  0
 21 22  1  0
 22 23  1  0
 22 24  2  0
 22 25  2  0
 21 26  1  0
 26 27  2  0
 13 28  1  0
 19 28  2  0
 27 28  1  0
  4 29  1  0
 12 29  1  0
M  END
