DAR-DIA-caba39e3-6-nitrile
     RDKit          3D

 28 31  0  0  0  0  0  0  0  0999 V2000
    6.7030   -3.9450   20.1100 C   0  0  0  0  0  0  0  0  0  0  0  0
    5.8850   -3.3610   19.3200 N   0  0  0  0  0  0  0  0  0  0  0  0
    6.9780   -3.4720   21.3860 N   0  0  0  0  0  0  0  0  0  0  0  0
    6.1890   -3.8870   22.5360 C   0  0  0  0  0  0  0  0  0  0  0  0
    7.0960   -4.0740   23.7270 C   0  0  0  0  0  0  0  0  0  0  0  0
    6.7480   -5.0930   24.7770 C   0  0  0  0  0  0  0  0  0  0  0  0
    7.6090   -5.2520   25.8690 C   0  0  0  0  0  0  0  0  0  0  0  0
    8.7600   -4.4760   25.9760 C   0  0  0  0  0  0  0  0  0  0  0  0
    9.0790   -3.5300   25.0090 C   0  0  0  0  0  0  0  0  0  0  0  0
    8.2700   -3.3200   23.8890 C   0  0  0  0  0  0  0  0  0  0  0  0
    8.6610   -2.3570   22.9490 C   0  0  2  0  0  0  0  0  0  0  0  0
    8.9760   -0.9610   23.4910 C   0  0  0  0  0  0  0  0  0  0  0  0
    7.8030   -0.1110   23.7990 C   0  0  0  0  0  0  0  0  0  0  0  0
    8.0690    1.1480   24.2810 C   0  0  0  0  0  0  0  0  0  0  0  0
    7.0670    1.9690   24.5850 F   0  0  0  0  0  0  0  0  0  0  0  0
    9.3610    1.5890   24.4570 C   0  0  0  0  0  0  0  0  0  0  0  0
   10.5290    0.8740   24.2050 C   0  0  0  0  0  0  0  0  0  0  0  0
   11.2560   -0.1600   23.8320 C   0  0  0  0  0  0  0  0  0  0  0  0
   12.6230   -0.2450   23.7930 C   0  0  0  0  0  0  0  0  0  0  0  0
   13.3110   -0.3580   22.6120 C   0  0  0  0  0  0  0  0  0  0  0  0
   13.6220   -1.7370   22.3690 N   0  0  0  0  0  0  0  0  0  0  0  0
   12.9650   -2.4570   21.4160 C   0  0  0  0  0  0  0  0  0  0  0  0
   11.5010   -2.3710   21.5520 C   0  0  0  0  0  0  0  0  0  0  0  0
   13.5100   -3.1150   20.5460 O   0  0  0  0  0  0  0  0  0  0  0  0
   10.4040   -1.3150   23.4100 C   0  0  0  0  0  0  0  0  0  0  0  0
   11.5620   -1.0750   23.5090 N   0  0  0  0  0  0  0  0  0  0  0  0
   10.2540   -0.3740   23.7390 C   0  0  0  0  0  0  0  0  0  0  0  0
    7.7180   -2.2240   21.6960 C   0  0  0  0  0  0  0  0  0  0  0  0
  1  2  2  3
  1  3  1  0
  3  4  1  0
  4  5  1  0
  5  6  1  0
  6  7  2  0
  7  8  1  0
  8  9  2  0
  5 10  2  0
  9 10  1  0
 10 11  1  0
 11 12  1  1
 12 13  2  0
 13 14  1  0
 14 15  1  0
 14 16  2  0
 16 17  1  0
 17 18  1  0
 18 19  1  0
 19 20  1  0
 20 21  1  0
 21 22  1  0
 22 23  1  0
 22 24  2  0
 18 25  2  0
 25 26  1  0
 12 27  1  0
 17 27  2  0
 26 27  1  0
  3 28  1  0
 11 28  1  0
M  END
