DAR-DIA-caba39e3-4-chloroacetamide
     RDKit          3D

 30 33  0  0  0  0  0  0  0  0999 V2000
    7.3520   -3.0330   18.9120 C   0  0  0  0  0  0  0  0  0  0  0  0
    6.4750   -3.4300   20.0370 C   0  0  0  0  0  0  0  0  0  0  0  0
    5.5260   -4.2170   19.8490 O   0  0  0  0  0  0  0  0  0  0  0  0
    6.8170   -2.8900   21.3000 N   0  0  0  0  0  0  0  0  0  0  0  0
    6.2320   -3.4510   22.5480 C   0  0  0  0  0  0  0  0  0  0  0  0
    7.2830   -3.9140   23.5470 C   0  0  0  0  0  0  0  0  0  0  0  0
    6.8900   -4.7720   24.5830 C   0  0  0  0  0  0  0  0  0  0  0  0
    7.8160   -5.2320   25.5190 C   0  0  0  0  0  0  0  0  0  0  0  0
    9.1440   -4.8470   25.4340 C   0  0  0  0  0  0  0  0  0  0  0  0
    9.5510   -3.9950   24.4180 C   0  0  0  0  0  0  0  0  0  0  0  0
    8.6370   -3.5200   23.4720 C   0  0  0  0  0  0  0  0  0  0  0  0
    9.1010   -2.5960   22.3790 C   0  0  2  0  0  0  0  0  0  0  0  0
    9.9070   -1.4150   22.8230 C   0  0  0  0  0  0  0  0  0  0  0  0
    9.3470   -0.4550   23.6920 C   0  0  0  0  0  0  0  0  0  0  0  0
   10.0280    0.6840   24.1040 C   0  0  0  0  0  0  0  0  0  0  0  0
    9.5530    1.6580   24.9370 O   0  0  0  0  0  0  0  0  0  0  0  0
    9.5830    2.9880   24.4350 C   0  0  0  0  0  0  0  0  0  0  0  0
   11.3050    0.8960   23.6340 C   0  0  0  0  0  0  0  0  0  0  0  0
   11.8730   -0.0460   22.7810 C   0  0  0  0  0  0  0  0  0  0  0  0
   13.0800   -0.0840   22.1610 C   0  0  0  0  0  0  0  0  0  0  0  0
   13.7180    1.0490   22.4620 C   0  0  0  0  0  0  0  0  0  0  0  0
   13.1880    2.4620   22.4250 C   0  0  0  0  0  0  0  0  0  0  0  0
   14.2500    3.4460   22.3250 N   0  0  0  0  0  0  0  0  0  0  0  0
   14.2160    4.4660   21.4160 C   0  0  0  0  0  0  0  0  0  0  0  0
   15.2900    4.3560   20.3670 C   0  0  0  0  0  0  0  0  0  0  0  0
   13.4020    5.3830   21.4480 O   0  0  0  0  0  0  0  0  0  0  0  0
   13.2410   -1.2420   21.4370 C   0  0  0  0  0  0  0  0  0  0  0  0
   12.0600   -1.9090   21.5870 N   0  0  0  0  0  0  0  0  0  0  0  0
   11.2060   -1.1810   22.3990 C   0  0  0  0  0  0  0  0  0  0  0  0
    7.9510   -1.9920   21.5330 C   0  0  0  0  0  0  0  0  0  0  0  0
  1  2  1  0
  2  3  2  0
  2  4  1  0
  4  5  1  0
  5  6  1  0
  6  7  1  0
  7  8  2  0
  8  9  1  0
  9 10  2  0
  6 11  2  0
 10 11  1  0
 11 12  1  0
 12 13  1  1
 13 14  2  0
 14 15  1  0
 15 16  1  0
 16 17  1  0
 15 18  2  0
 18 19  1  0
 19 20  1  0
 20 21  1  0
 21 22  1  0
 22 23  1  0
 23 24  1  0
 24 25  1  0
 24 26  2  0
 20 27  2  0
 27 28  1  0
 13 29  1  0
 19 29  2  0
 28 29  1  0
  4 30  1  0
 12 30  1  0
M  END
