DAR-DIA-2b784ede-45-nitrile
     RDKit          3D

 31 33  0  0  0  0  0  0  0  0999 V2000
    6.8280   -3.3430   19.6120 C   0  0  0  0  0  0  0  0  0  0  0  0
    6.0160   -3.0530   18.6600 N   0  0  0  0  0  0  0  0  0  0  0  0
    6.7260   -2.5910   20.7900 N   0  0  0  0  0  0  0  0  0  0  0  0
    5.6680   -1.5480   20.8590 C   0  0  0  0  0  0  0  0  0  0  0  0
    4.9810   -0.3650   20.4950 C   0  0  0  0  0  0  0  0  0  0  0  0
    5.4170    0.3850   19.5030 C   0  0  0  0  0  0  0  0  0  0  0  0
    4.8210    1.5360   19.1210 C   0  0  0  0  0  0  0  0  0  0  0  0
    5.0470    1.7690   17.7170 C   0  0  0  0  0  0  0  0  0  0  0  0
    5.4560    2.5650   20.0280 C   0  0  0  0  0  0  0  0  0  0  0  0
    3.1770    1.8260   19.4400 Cl  0  0  0  0  0  0  0  0  0  0  0  0
    6.5330   -0.2030   18.9840 N   0  0  0  0  0  0  0  0  0  0  0  0
    6.6200   -1.3000   19.8070 N   0  0  0  0  0  0  0  0  0  0  0  0
    7.8380   -2.1960   21.5710 C   0  0  2  0  0  0  0  0  0  0  0  0
    8.3440   -3.0280   22.5930 C   0  0  0  0  0  0  0  0  0  0  0  0
    7.5420   -4.1910   22.8640 O   0  0  0  0  0  0  0  0  0  0  0  0
    9.4640   -2.7010   23.3070 N   0  0  0  0  0  0  0  0  0  0  0  0
   10.7620   -2.2670   22.7130 C   0  0  0  0  0  0  0  0  0  0  0  0
   10.3740   -1.1910   23.7200 C   0  0  0  0  0  0  0  0  0  0  0  0
    9.1590   -1.0690   24.6260 C   0  0  0  0  0  0  0  0  0  0  0  0
   10.7100    0.0930   24.3740 C   0  0  0  0  0  0  0  0  0  0  0  0
   11.8590    0.5640   23.9070 C   0  0  0  0  0  0  0  0  0  0  0  0
   12.5260   -0.2730   22.8770 C   0  0  0  0  0  0  0  0  0  0  0  0
   11.9840   -1.5180   22.3910 C   0  0  0  0  0  0  0  0  0  0  0  0
   12.8080   -2.0980   21.4310 C   0  0  0  0  0  0  0  0  0  0  0  0
   13.6360   -1.3690   20.9010 O   0  0  0  0  0  0  0  0  0  0  0  0
    7.5560   -0.9350   22.1430 C   0  0  0  0  0  0  0  0  0  0  0  0
    7.9540    0.2140   21.4720 C   0  0  0  0  0  0  0  0  0  0  0  0
    7.6970    1.4750   22.0010 C   0  0  0  0  0  0  0  0  0  0  0  0
    6.9640    1.5220   23.3420 C   0  0  0  0  0  0  0  0  0  0  0  0
    6.5800    0.4020   23.9900 N   0  0  0  0  0  0  0  0  0  0  0  0
    6.8840   -0.7830   23.3760 C   0  0  0  0  0  0  0  0  0  0  0  0
  1  2  2  3
  1  3  1  0
  3  4  1  0
  4  5  2  0
  5  6  1  0
  6  7  1  0
  7  8  1  0
  7  9  1  0
  7 10  1  0
  6 11  2  0
  4 12  1  0
 11 12  1  0
  3 13  1  0
 13 14  1  1
 14 15  2  0
 14 16  1  0
 16 17  1  0
 17 18  2  0
 18 19  1  0
 18 20  1  0
 20 21  2  0
 21 22  1  0
 17 23  1  0
 22 23  2  0
 23 24  1  0
 24 25  1  0
 13 26  1  0
 26 27  2  0
 27 28  1  0
 28 29  2  0
 29 30  1  0
 26 31  1  0
 30 31  2  0
M  END
