DAR-DIA-eace69ff-6
     RDKit          3D

 30 33  0  0  0  0  0  0  0  0999 V2000
   12.7220   -2.6710   21.1000 C   0  0  0  0  0  0  0  0  0  0  0  0
   13.3750   -1.6770   21.9440 C   0  0  0  0  0  0  0  0  0  0  0  0
   12.4560   -0.6630   22.5330 C   0  0  0  0  0  0  0  0  0  0  0  0
   11.3260   -1.2970   23.0040 C   0  0  0  0  0  0  0  0  0  0  0  0
   10.2530   -0.6440   23.6090 C   0  0  0  0  0  0  0  0  0  0  0  0
    9.1390   -1.3360   24.0810 N   0  0  0  0  0  0  0  0  0  0  0  0
    8.7470   -2.7060   23.7090 C   0  0  0  0  0  0  0  0  0  0  0  0
    8.6240   -3.4090   24.9480 C   0  0  0  0  0  0  0  0  0  0  0  0
    7.7870   -4.5730   25.0400 C   0  0  0  0  0  0  0  0  0  0  0  0
    6.5330   -4.5180   24.2330 C   0  0  0  0  0  0  0  0  0  0  0  0
    6.8460   -3.4870   23.2880 C   0  0  0  0  0  0  0  0  0  0  0  0
    7.5930   -2.6690   22.9300 C   0  0  0  0  0  0  0  0  0  0  0  0
   10.4610    0.8980   23.6740 C   0  0  0  0  0  0  0  0  0  0  0  0
   11.6300    1.3930   23.1570 C   0  0  0  0  0  0  0  0  0  0  0  0
   12.6350    0.6780   22.6110 C   0  0  0  0  0  0  0  0  0  0  0  0
   11.6940    2.8890   23.2480 C   0  0  0  0  0  0  0  0  0  0  0  0
   12.7050    3.9560   22.8100 C   0  0  0  0  0  0  0  0  0  0  0  0
   12.2920    5.3100   23.1870 N   0  0  0  0  0  0  0  0  0  0  0  0
   10.9090    5.5620   22.7960 C   0  0  0  0  0  0  0  0  0  0  0  0
   13.2450    6.2210   22.5460 C   0  0  0  0  0  0  0  0  0  0  0  0
   10.4670    3.1220   23.8880 C   0  0  0  0  0  0  0  0  0  0  0  0
    9.7020    1.9250   24.1570 N   0  0  0  0  0  0  0  0  0  0  0  0
    8.4660    1.9110   24.7730 C   0  0  0  0  0  0  0  0  0  0  0  0
    7.6300    1.0200   24.6400 O   0  0  0  0  0  0  0  0  0  0  0  0
    8.1930    3.1290   25.6580 C   0  0  0  0  0  0  0  0  0  0  0  0
    8.1450    3.0290   27.0250 C   0  0  0  0  0  0  0  0  0  0  0  0
    7.8840    4.2050   27.9190 C   0  0  0  0  0  0  0  0  0  0  0  0
    7.6660    5.5570   27.2230 C   0  0  0  0  0  0  0  0  0  0  0  0
    7.7210    5.6310   25.7810 C   0  0  0  0  0  0  0  0  0  0  0  0
    7.9960    4.3460   25.0280 C   0  0  0  0  0  0  0  0  0  0  0  0
  1  2  1  0
  2  3  1  0
  3  4  2  0
  4  5  1  0
  5  6  1  0
  6  7  1  0
  7  8  1  0
  8  9  1  0
  9 10  1  0
 10 11  1  0
  7 12  1  0
 11 12  1  0
  5 13  2  0
 13 14  1  0
  3 15  1  0
 14 15  2  0
 14 16  1  0
 16 17  1  0
 17 18  1  0
 18 19  1  0
 18 20  1  0
 16 21  2  0
 13 22  1  0
 21 22  1  0
 22 23  1  0
 23 24  2  0
 23 25  1  0
 25 26  2  0
 26 27  1  0
 27 28  2  0
 28 29  1  0
 25 30  1  0
 29 30  2  0
M  END
