DAR-DIA-eace69ff-30
     RDKit          3D

 21 23  0  0  0  0  0  0  0  0999 V2000
   11.4780    5.3830   24.1510 C   0  0  0  0  0  0  0  0  0  0  0  0
   12.6730    4.9940   23.4280 N   0  0  0  0  0  0  0  0  0  0  0  0
   13.1400    6.1400   22.6400 C   0  0  0  0  0  0  0  0  0  0  0  0
   12.6420    3.7040   22.7430 C   0  0  0  0  0  0  0  0  0  0  0  0
   11.8090    2.6690   23.2130 C   0  0  0  0  0  0  0  0  0  0  0  0
   10.6270    2.8260   23.9120 C   0  0  0  0  0  0  0  0  0  0  0  0
    9.9780    1.5760   24.2470 N   0  0  0  0  0  0  0  0  0  0  0  0
   10.8700    0.5710   23.6820 C   0  0  0  0  0  0  0  0  0  0  0  0
   10.5840   -0.7940   23.7820 C   0  0  0  0  0  0  0  0  0  0  0  0
    9.4740   -1.3910   24.4050 N   0  0  0  0  0  0  0  0  0  0  0  0
    9.1200   -0.8710   25.7670 C   0  0  0  0  0  0  0  0  0  0  0  0
    7.8740   -0.0270   25.6910 C   0  0  0  0  0  0  0  0  0  0  0  0
    7.0780   -0.8130   24.7740 C   0  0  0  0  0  0  0  0  0  0  0  0
    7.0700   -1.7340   24.0610 C   0  0  0  0  0  0  0  0  0  0  0  0
    7.7550   -2.8070   23.4930 C   0  0  0  0  0  0  0  0  0  0  0  0
    9.0780   -2.7560   23.9420 C   0  0  0  0  0  0  0  0  0  0  0  0
   11.5570   -1.6130   23.1610 C   0  0  0  0  0  0  0  0  0  0  0  0
   12.6890   -1.1450   22.5270 C   0  0  0  0  0  0  0  0  0  0  0  0
   13.5500   -1.9680   21.9670 F   0  0  0  0  0  0  0  0  0  0  0  0
   12.8850    0.3620   22.5090 C   0  0  0  0  0  0  0  0  0  0  0  0
   11.9630    1.2130   23.0750 C   0  0  0  0  0  0  0  0  0  0  0  0
  1  2  1  0
  2  3  1  0
  2  4  1  0
  4  5  1  0
  5  6  2  0
  6  7  1  0
  7  8  1  0
  8  9  1  0
  9 10  1  0
 10 11  1  0
 11 12  1  0
 12 13  1  0
 13 14  1  0
 14 15  1  0
 10 16  1  0
 15 16  1  0
  9 17  2  0
 17 18  1  0
 18 19  1  0
 18 20  2  0
  5 21  1  0
  8 21  2  0
 20 21  1  0
M  END
