DAR-DIA-2b784ede-45-nitrile
     RDKit          3D

 31 33  0  0  0  0  0  0  0  0999 V2000
    6.5850   -3.5850   19.4780 C   0  0  0  0  0  0  0  0  0  0  0  0
    5.3110   -3.6900   19.4050 N   0  0  0  0  0  0  0  0  0  0  0  0
    7.0660   -2.3550   20.0070 N   0  0  0  0  0  0  0  0  0  0  0  0
    6.0230   -1.2410   20.2750 C   0  0  0  0  0  0  0  0  0  0  0  0
    5.1270    0.0110   20.1580 C   0  0  0  0  0  0  0  0  0  0  0  0
    5.1350    0.9220   19.0700 C   0  0  0  0  0  0  0  0  0  0  0  0
    4.1990    2.1580   19.1130 C   0  0  0  0  0  0  0  0  0  0  0  0
    2.7110    2.1030   19.4650 C   0  0  0  0  0  0  0  0  0  0  0  0
    4.3600    3.1730   17.9720 C   0  0  0  0  0  0  0  0  0  0  0  0
    4.7270    2.9400   20.6440 Cl  0  0  0  0  0  0  0  0  0  0  0  0
    6.0260    0.4150   18.2740 N   0  0  0  0  0  0  0  0  0  0  0  0
    6.4680   -0.7430   18.9770 N   0  0  0  0  0  0  0  0  0  0  0  0
    7.9570   -2.6590   21.1730 C   0  0  1  0  0  0  0  0  0  0  0  0
    8.7820   -1.6950   21.6490 C   0  0  0  0  0  0  0  0  0  0  0  0
    8.4290   -0.5270   21.7990 O   0  0  0  0  0  0  0  0  0  0  0  0
   10.0270   -2.2320   21.9510 N   0  0  0  0  0  0  0  0  0  0  0  0
   10.8680   -1.6840   22.9060 C   0  0  0  0  0  0  0  0  0  0  0  0
   10.2340   -1.4300   24.1410 C   0  0  0  0  0  0  0  0  0  0  0  0
    8.9050   -1.7470   24.3790 C   0  0  0  0  0  0  0  0  0  0  0  0
   10.9110   -0.8580   25.1850 C   0  0  0  0  0  0  0  0  0  0  0  0
   12.3460   -0.5100   25.0140 C   0  0  0  0  0  0  0  0  0  0  0  0
   13.0430   -0.7750   23.7360 C   0  0  0  0  0  0  0  0  0  0  0  0
   12.2350   -1.4060   22.6490 C   0  0  0  0  0  0  0  0  0  0  0  0
   12.8950   -1.6780   21.4710 C   0  0  0  0  0  0  0  0  0  0  0  0
   13.7210   -0.5800   21.2240 O   0  0  0  0  0  0  0  0  0  0  0  0
    7.1890   -3.4790   22.1950 C   0  0  0  0  0  0  0  0  0  0  0  0
    5.6950   -3.6650   21.8700 C   0  0  0  0  0  0  0  0  0  0  0  0
    4.9420   -4.5040   22.9240 C   0  0  0  0  0  0  0  0  0  0  0  0
    5.7190   -5.0410   24.1070 C   0  0  0  0  0  0  0  0  0  0  0  0
    7.0420   -4.8230   24.2830 N   0  0  0  0  0  0  0  0  0  0  0  0
    7.7240   -4.0710   23.3500 C   0  0  0  0  0  0  0  0  0  0  0  0
  1  2  2  3
  1  3  1  0
  3  4  1  0
  4  5  2  0
  5  6  1  0
  6  7  1  0
  7  8  1  0
  7  9  1  0
  7 10  1  0
  6 11  2  0
  4 12  1  0
 11 12  1  0
  3 13  1  0
 13 14  1  1
 14 15  2  0
 14 16  1  0
 16 17  1  0
 17 18  2  0
 18 19  1  0
 18 20  1  0
 20 21  2  0
 21 22  1  0
 17 23  1  0
 22 23  2  0
 23 24  1  0
 24 25  1  0
 13 26  1  0
 26 27  2  0
 27 28  1  0
 28 29  2  0
 29 30  1  0
 26 31  1  0
 30 31  2  0
M  END
