DAR-DIA-2b784ede-17-acrylamide
     RDKit          3D

 37 40  0  0  0  0  0  0  0  0999 V2000
    6.9640   -4.6300   20.4870 C   0  0  0  0  0  0  0  0  0  0  0  0
    7.1390   -3.5040   21.4750 C   0  0  0  0  0  0  0  0  0  0  0  0
    6.0920   -2.4450   21.2070 C   0  0  0  0  0  0  0  0  0  0  0  0
    4.8420   -2.9580   21.0310 O   0  0  0  0  0  0  0  0  0  0  0  0
    6.6110   -1.0110   21.1270 N   0  0  0  0  0  0  0  0  0  0  0  0
    7.0190   -0.5010   19.8390 C   0  0  0  0  0  0  0  0  0  0  0  0
    7.7650   -1.2810   19.0680 C   0  0  0  0  0  0  0  0  0  0  0  0
    8.2170   -1.1090   17.6260 C   0  0  0  0  0  0  0  0  0  0  0  0
    7.8740    0.0920   16.9520 C   0  0  0  0  0  0  0  0  0  0  0  0
    8.3500    0.4040   15.4560 C   0  0  0  0  0  0  0  0  0  0  0  0
    9.9010    0.0800   14.7750 Cl  0  0  0  0  0  0  0  0  0  0  0  0
    7.8510    0.0510   14.0320 C   0  0  0  0  0  0  0  0  0  0  0  0
    7.2330    1.0970   13.3990 C   0  0  0  0  0  0  0  0  0  0  0  0
    7.0520    1.6760   14.8530 C   0  0  0  0  0  0  0  0  0  0  0  0
    8.0840    1.8020   15.5920 C   0  0  0  0  0  0  0  0  0  0  0  0
    7.1150    0.9080   17.8440 C   0  0  0  0  0  0  0  0  0  0  0  0
    6.7110    0.6660   19.1770 N   0  0  0  0  0  0  0  0  0  0  0  0
    6.7010   -0.0200   22.2200 C   0  0  1  0  0  0  0  0  0  0  0  0
    7.8690    0.7580   22.0770 C   0  0  0  0  0  0  0  0  0  0  0  0
    8.1510    1.4620   21.0820 O   0  0  0  0  0  0  0  0  0  0  0  0
    8.7310    0.6860   23.1850 N   0  0  0  0  0  0  0  0  0  0  0  0
   10.1160    0.2410   23.0820 C   0  0  0  0  0  0  0  0  0  0  0  0
   10.3750   -1.2640   22.9920 C   0  0  0  0  0  0  0  0  0  0  0  0
    9.3310   -2.2000   23.0010 C   0  0  0  0  0  0  0  0  0  0  0  0
   11.6870   -1.7350   22.8980 C   0  0  0  0  0  0  0  0  0  0  0  0
   12.8250   -0.7590   22.8850 C   0  0  0  0  0  0  0  0  0  0  0  0
   12.5370    0.7150   22.9760 C   0  0  0  0  0  0  0  0  0  0  0  0
   11.2070    1.1720   23.0700 C   0  0  0  0  0  0  0  0  0  0  0  0
   11.0810    2.5750   23.1470 C   0  0  0  0  0  0  0  0  0  0  0  0
   12.1350    3.3270   22.6450 C   0  0  0  0  0  0  0  0  0  0  0  0
    5.3700    0.7460   22.1860 C   0  0  0  0  0  0  0  0  0  0  0  0
    5.1810    2.0390   21.4390 C   0  0  0  0  0  0  0  0  0  0  0  0
    4.0490    2.7820   21.3400 N   0  0  0  0  0  0  0  0  0  0  0  0
    2.9580    2.3180   21.9780 C   0  0  0  0  0  0  0  0  0  0  0  0
    2.9580    1.0430   22.7750 C   0  0  0  0  0  0  0  0  0  0  0  0
    4.2340    0.2560   22.8580 C   0  0  0  0  0  0  0  0  0  0  0  0
    4.2530   -1.0180   23.6490 C   0  0  0  0  0  0  0  0  0  0  0  0
  1  2  1  0
  2  3  1  0
  3  4  2  0
  3  5  1  0
  5  6  1  0
  6  7  2  0
  7  8  1  0
  8  9  2  0
  9 10  1  0
 10 11  1  0
 10 12  1  0
 12 13  1  0
 13 14  1  0
 10 15  1  0
 14 15  1  0
  9 16  1  0
  6 17  1  0
 16 17  2  0
  5 18  1  0
 18 19  1  6
 19 20  2  0
 19 21  1  0
 21 22  1  0
 22 23  2  0
 23 24  1  0
 23 25  1  0
 25 26  2  0
 26 27  1  0
 22 28  1  0
 27 28  2  0
 28 29  1  0
 29 30  1  0
 18 31  1  0
 31 32  2  0
 32 33  1  0
 33 34  2  0
 34 35  1  0
 31 36  1  0
 35 36  2  0
 36 37  1  0
M  END
