DAR-DIA-2b784ede-47-chloroacetamide
     RDKit          3D

 33 35  0  0  0  0  0  0  0  0999 V2000
    7.8190   -4.2170   20.6110 C   0  0  0  0  0  0  0  0  0  0  0  0
    6.3240   -3.9350   20.7870 C   0  0  0  0  0  0  0  0  0  0  0  0
    5.4960   -4.3300   19.9130 O   0  0  0  0  0  0  0  0  0  0  0  0
    5.9450   -3.2120   21.9490 N   0  0  0  0  0  0  0  0  0  0  0  0
    4.9030   -2.2260   21.7490 C   0  0  0  0  0  0  0  0  0  0  0  0
    4.5030   -3.1860   22.7410 C   0  0  0  0  0  0  0  0  0  0  0  0
    5.6920   -3.9580   22.5960 C   0  0  0  0  0  0  0  0  0  0  0  0
    6.0270   -5.2590   23.3650 C   0  0  0  0  0  0  0  0  0  0  0  0
    5.9680   -5.0480   24.8820 C   0  0  0  0  0  0  0  0  0  0  0  0
    7.3890   -5.8850   22.9910 C   0  0  0  0  0  0  0  0  0  0  0  0
    4.9610   -6.3190   23.0170 C   0  0  0  0  0  0  0  0  0  0  0  0
    6.4510   -3.2380   21.5870 N   0  0  0  0  0  0  0  0  0  0  0  0
    5.9510   -2.0060   20.9400 N   0  0  0  0  0  0  0  0  0  0  0  0
    7.0700   -2.5180   22.7170 C   0  0  1  0  0  0  0  0  0  0  0  0
    8.3870   -3.0410   22.7980 C   0  0  0  0  0  0  0  0  0  0  0  0
    8.5630   -4.1430   23.3060 O   0  0  0  0  0  0  0  0  0  0  0  0
    9.4380   -2.2420   22.3450 N   0  0  0  0  0  0  0  0  0  0  0  0
   10.4250   -1.7010   23.2030 C   0  0  0  0  0  0  0  0  0  0  0  0
    9.9360   -1.2030   24.4140 C   0  0  0  0  0  0  0  0  0  0  0  0
    8.4280   -1.2810   24.6650 C   0  0  0  0  0  0  0  0  0  0  0  0
   10.7770   -0.6610   25.3520 C   0  0  0  0  0  0  0  0  0  0  0  0
   12.2560   -0.6110   25.0660 C   0  0  0  0  0  0  0  0  0  0  0  0
   12.7060   -1.0970   23.8680 C   0  0  0  0  0  0  0  0  0  0  0  0
   11.8460   -1.6360   22.9230 C   0  0  0  0  0  0  0  0  0  0  0  0
   12.5540   -2.1190   21.6470 C   0  0  0  0  0  0  0  0  0  0  0  0
   13.5170   -1.1230   21.2980 O   0  0  0  0  0  0  0  0  0  0  0  0
    7.0080   -1.0000   22.5150 C   0  0  0  0  0  0  0  0  0  0  0  0
    7.9540   -0.1570   21.6360 C   0  0  0  0  0  0  0  0  0  0  0  0
    7.9190    1.1890   21.4400 N   0  0  0  0  0  0  0  0  0  0  0  0
    6.9270    1.7830   22.1140 C   0  0  0  0  0  0  0  0  0  0  0  0
    6.0100    1.1130   22.9400 C   0  0  0  0  0  0  0  0  0  0  0  0
    6.0120   -0.2650   23.1670 C   0  0  0  0  0  0  0  0  0  0  0  0
    5.0460   -0.8310   24.0110 C   0  0  0  0  0  0  0  0  0  0  0  0
  1  2  1  0
  2  3  2  0
  2  4  1  0
  4  5  1  0
  5  6  2  0
  6  7  1  0
  7  8  1  0
  8  9  1  0
  8 10  1  0
  8 11  1  0
  7 12  2  0
  5 13  1  0
 12 13  1  0
  4 14  1  0
 14 15  1  6
 15 16  2  0
 15 17  1  0
 17 18  1  0
 18 19  2  0
 19 20  1  0
 19 21  1  0
 21 22  2  0
 22 23  1  0
 18 24  1  0
 23 24  2  0
 24 25  1  0
 25 26  1  0
 14 27  1  0
 27 28  2  0
 28 29  1  0
 29 30  2  0
 30 31  1  0
 27 32  1  0
 31 32  2  0
 32 33  1  0
M  END
