DAR-DIA-2b784ede-19-vinylsulfonamide
     RDKit          3D

 30 32  0  0  0  0  0  0  0  0999 V2000
    6.8250   -3.5250   20.0010 C   0  0  0  0  0  0  0  0  0  0  0  0
    6.9470   -2.0820   20.5180 C   0  0  0  0  0  0  0  0  0  0  0  0
    5.8130   -1.7440   21.8830 S   0  0  0  0  0  0  0  0  0  0  0  0
    4.6220   -2.9280   21.6640 O   0  0  0  0  0  0  0  0  0  0  0  0
    5.5310   -0.3060   21.7110 O   0  0  0  0  0  0  0  0  0  0  0  0
    6.9430   -1.5070   23.2940 N   0  0  0  0  0  0  0  0  0  0  0  0
    6.6360   -2.1860   24.4870 C   0  0  0  0  0  0  0  0  0  0  0  0
    7.6200   -2.8990   25.2710 C   0  0  0  0  0  0  0  0  0  0  0  0
    7.0010   -3.4440   26.3700 C   0  0  0  0  0  0  0  0  0  0  0  0
    5.5950   -3.4190   26.8430 C   0  0  0  0  0  0  0  0  0  0  0  0
    5.2570   -4.1490   28.1470 C   0  0  0  0  0  0  0  0  0  0  0  0
    4.4450   -2.9740   29.2550 Cl  0  0  0  0  0  0  0  0  0  0  0  0
    4.3320   -5.3540   27.8910 C   0  0  0  0  0  0  0  0  0  0  0  0
    5.2630   -6.5220   27.5780 C   0  0  0  0  0  0  0  0  0  0  0  0
    6.6590   -6.1410   28.1110 C   0  0  0  0  0  0  0  0  0  0  0  0
    6.4430   -4.8170   28.8610 C   0  0  0  0  0  0  0  0  0  0  0  0
    4.6930   -2.7650   26.1180 N   0  0  0  0  0  0  0  0  0  0  0  0
    5.2810   -2.1390   24.9010 C   0  0  0  0  0  0  0  0  0  0  0  0
    7.9190   -0.2480   23.5730 C   0  0  1  0  0  0  0  0  0  0  0  0
    7.7750    0.3280   24.8500 C   0  0  0  0  0  0  0  0  0  0  0  0
    7.2630    1.4380   25.0130 O   0  0  0  0  0  0  0  0  0  0  0  0
    8.2360   -0.3820   25.9050 N   0  0  0  0  0  0  0  0  0  0  0  0
    9.6350   -0.3770   26.2280 C   0  0  0  0  0  0  0  0  0  0  0  0
    9.4810   -0.3710   23.2590 C   0  0  0  0  0  0  0  0  0  0  0  0
   10.5940    0.6900   23.3890 C   0  0  0  0  0  0  0  0  0  0  0  0
   11.9350    0.5730   23.0840 N   0  0  0  0  0  0  0  0  0  0  0  0
   12.3440   -0.6270   22.6100 C   0  0  0  0  0  0  0  0  0  0  0  0
   11.4050   -1.7690   22.4330 C   0  0  0  0  0  0  0  0  0  0  0  0
    9.9450   -1.5840   22.7840 C   0  0  0  0  0  0  0  0  0  0  0  0
    9.0100   -2.7290   22.5970 C   0  0  0  0  0  0  0  0  0  0  0  0
  1  2  1  0
  2  3  1  0
  3  4  2  0
  3  5  2  0
  3  6  1  0
  6  7  1  0
  7  8  2  0
  8  9  1  0
  9 10  2  0
 10 11  1  0
 11 12  1  0
 11 13  1  0
 13 14  1  0
 14 15  1  0
 11 16  1  0
 15 16  1  0
 10 17  1  0
  7 18  1  0
 17 18  2  0
  6 19  1  0
 19 20  1  1
 20 21  2  0
 20 22  1  0
 22 23  1  0
 19 24  1  0
 24 25  2  0
 25 26  1  0
 26 27  2  0
 27 28  1  0
 24 29  1  0
 28 29  2  0
 29 30  1  0
M  END
