DAR-DIA-caba39e3-1-nitrile
     RDKit          3D

 19 21  0  0  0  0  0  0  0  0999 V2000
    6.9050   -3.4670   19.8650 C   0  0  0  0  0  0  0  0  0  0  0  0
    5.8610   -3.3110   19.1540 N   0  0  0  0  0  0  0  0  0  0  0  0
    7.0830   -2.8730   21.1280 N   0  0  0  0  0  0  0  0  0  0  0  0
    6.5580   -3.4580   22.3090 C   0  0  0  0  0  0  0  0  0  0  0  0
    7.4730   -3.8060   23.3110 C   0  0  0  0  0  0  0  0  0  0  0  0
    7.0960   -4.6420   24.3850 C   0  0  0  0  0  0  0  0  0  0  0  0
    8.0060   -5.0080   25.3900 C   0  0  0  0  0  0  0  0  0  0  0  0
    9.4050   -4.4970   25.3200 C   0  0  0  0  0  0  0  0  0  0  0  0
    9.7170   -3.6760   24.2500 C   0  0  0  0  0  0  0  0  0  0  0  0
    8.7930   -3.3330   23.2660 C   0  0  0  0  0  0  0  0  0  0  0  0
    9.2560   -2.5030   22.2270 C   0  0  2  0  0  0  0  0  0  0  0  0
   10.2290   -1.4110   22.6970 C   0  0  0  0  0  0  0  0  0  0  0  0
   11.7420   -1.4490   22.3300 C   0  0  0  0  0  0  0  0  0  0  0  0
   12.6300   -0.4610   22.7420 C   0  0  0  0  0  0  0  0  0  0  0  0
   12.0850    0.6560   23.5550 C   0  0  0  0  0  0  0  0  0  0  0  0
   10.7020    0.6780   23.8800 C   0  0  0  0  0  0  0  0  0  0  0  0
   10.2160    1.6800   24.5970 F   0  0  0  0  0  0  0  0  0  0  0  0
    9.8010   -0.3120   23.4760 C   0  0  0  0  0  0  0  0  0  0  0  0
    8.0820   -1.8520   21.4420 C   0  0  0  0  0  0  0  0  0  0  0  0
  1  2  2  3
  1  3  1  0
  3  4  1  0
  4  5  1  0
  5  6  1  0
  6  7  2  0
  7  8  1  0
  8  9  2  0
  5 10  2  0
  9 10  1  0
 10 11  1  0
 11 12  1  1
 12 13  2  0
 13 14  1  0
 14 15  2  0
 15 16  1  0
 16 17  1  0
 12 18  1  0
 16 18  2  0
  3 19  1  0
 11 19  1  0
M  END
