DAR-DIA-37454fd7-2
     RDKit          3D

 35 39  0  0  0  0  0  0  0  0999 V2000
    3.4360    2.3940   19.3230 C   0  0  0  0  0  0  0  0  0  0  0  0
    4.5610    1.4650   18.8790 C   0  0  0  0  0  0  0  0  0  0  0  0
    5.0010    0.2080   19.5190 C   0  0  0  0  0  0  0  0  0  0  0  0
    6.1110   -0.2560   18.6640 C   0  0  0  0  0  0  0  0  0  0  0  0
    6.8020   -1.5350   19.0310 C   0  0  0  0  0  0  0  0  0  0  0  0
    6.6590   -2.0380   20.2920 N   0  0  0  0  0  0  0  0  0  0  0  0
    5.8810   -3.1510   20.4700 C   0  0  0  0  0  0  0  0  0  0  0  0
    5.3810   -3.7810   19.5340 O   0  0  0  0  0  0  0  0  0  0  0  0
    5.6400   -3.6170   21.7790 N   0  0  0  0  0  0  0  0  0  0  0  0
    6.3790   -4.8530   22.1240 C   0  0  0  0  0  0  0  0  0  0  0  0
    6.2960   -5.2500   23.4070 C   0  0  0  0  0  0  0  0  0  0  0  0
    5.6770   -6.1500   22.3770 C   0  0  0  0  0  0  0  0  0  0  0  0
    7.5170   -1.5980   21.2820 C   0  0  1  0  0  0  0  0  0  0  0  0
    7.5370   -0.1820   21.5740 C   0  0  0  0  0  0  0  0  0  0  0  0
    8.7630    0.1450   22.3270 C   0  0  0  0  0  0  0  0  0  0  0  0
    9.0120   -0.9660   23.2630 C   0  0  1  0  0  0  0  0  0  0  0  0
    9.5610   -0.4490   24.4020 C   0  0  0  0  0  0  0  0  0  0  0  0
   10.8830   -0.2900   24.1970 N   0  0  0  0  0  0  0  0  0  0  0  0
   11.6210   -1.4330   23.9340 C   0  0  0  0  0  0  0  0  0  0  0  0
   12.4850   -1.3070   22.8660 C   0  0  0  0  0  0  0  0  0  0  0  0
   13.2500   -0.1660   22.8940 C   0  0  0  0  0  0  0  0  0  0  0  0
   12.5730    1.0230   23.0850 C   0  0  0  0  0  0  0  0  0  0  0  0
   13.0390    2.2460   22.6590 C   0  0  0  0  0  0  0  0  0  0  0  0
   12.3830    3.4520   22.8180 C   0  0  0  0  0  0  0  0  0  0  0  0
   11.1510    3.4870   23.4590 C   0  0  0  0  0  0  0  0  0  0  0  0
   10.2660    5.0080   23.6890 S   0  0  0  0  0  0  0  0  0  0  0  0
   11.3930    6.1610   23.2410 N   0  0  0  0  0  0  0  0  0  0  0  0
   10.0020    5.2230   25.0730 O   0  0  0  0  0  0  0  0  0  0  0  0
    9.2000    5.0890   22.7300 O   0  0  0  0  0  0  0  0  0  0  0  0
   10.6020    2.2850   23.9370 C   0  0  0  0  0  0  0  0  0  0  0  0
   11.3570    0.9530   23.7470 C   0  0  0  0  0  0  0  0  0  0  0  0
    7.7320   -1.6730   23.6650 C   0  0  0  0  0  0  0  0  0  0  0  0
    7.2900   -2.3760   22.5940 C   0  0  0  0  0  0  0  0  0  0  0  0
    6.3170    0.5890   17.6500 N   0  0  0  0  0  0  0  0  0  0  0  0
    5.3730    1.6440   17.7780 O   0  0  0  0  0  0  0  0  0  0  0  0
  1  2  1  0
  2  3  2  0
  3  4  1  0
  4  5  1  0
  5  6  1  0
  6  7  1  0
  7  8  2  0
  7  9  1  0
  9 10  1  0
 10 11  1  0
 10 12  1  0
 11 12  1  0
 13  6  1  6
 13 14  1  0
 14 15  1  0
 15 16  1  0
 16 17  1  1
 17 18  1  0
 18 19  1  0
 19 20  1  0
 20 21  1  0
 21 22  1  0
 22 23  2  0
 23 24  1  0
 24 25  2  0
 25 26  1  0
 26 27  1  0
 26 28  2  0
 26 29  2  0
 25 30  1  0
 18 31  1  0
 22 31  1  0
 30 31  2  0
 16 32  1  0
 13 33  1  0
 32 33  1  0
  4 34  2  0
  2 35  1  0
 34 35  1  0
M  END
