DAR-DIA-842b4336-19-acrylamide
     RDKit          3D

 22 24  0  0  0  0  0  0  0  0999 V2000
    6.5260   -4.4360   20.7500 C   0  0  0  0  0  0  0  0  0  0  0  0
    5.7290   -4.7610   22.0000 C   0  0  0  0  0  0  0  0  0  0  0  0
    5.5130   -3.5150   22.8250 C   0  0  0  0  0  0  0  0  0  0  0  0
    4.3710   -3.7020   22.3660 O   0  0  0  0  0  0  0  0  0  0  0  0
    6.9970   -3.7050   23.1050 C   0  0  0  0  0  0  0  0  0  0  0  0
    8.1000   -2.6030   22.9200 C   0  0  0  0  0  0  0  0  0  0  0  0
    7.0450   -2.3290   22.6950 C   0  0  0  0  0  0  0  0  0  0  0  0
    8.2000   -3.4080   23.1770 C   0  0  0  0  0  0  0  0  0  0  0  0
    8.6030   -2.0230   22.7910 N   0  0  0  0  0  0  0  0  0  0  0  0
    8.3670   -1.3440   21.5660 C   0  0  0  0  0  0  0  0  0  0  0  0
    8.7860   -0.0700   21.3220 O   0  0  0  0  0  0  0  0  0  0  0  0
    7.5880   -2.1010   20.4940 C   0  0  0  0  0  0  0  0  0  0  0  0
    7.3490   -1.2720   19.2200 C   0  0  0  0  0  0  0  0  0  0  0  0
    6.4520   -0.7770   20.1640 C   0  0  0  0  0  0  0  0  0  0  0  0
    5.5840    0.2290   19.9270 C   0  0  0  0  0  0  0  0  0  0  0  0
    4.6490    0.8370   20.7190 C   0  0  0  0  0  0  0  0  0  0  0  0
    3.9080    1.8610   20.1480 C   0  0  0  0  0  0  0  0  0  0  0  0
    4.1580    2.2170   18.7950 C   0  0  0  0  0  0  0  0  0  0  0  0
    5.1210    1.5600   18.0550 N   0  0  0  0  0  0  0  0  0  0  0  0
    5.7680    0.5900   18.7180 C   0  0  0  0  0  0  0  0  0  0  0  0
    6.7370   -0.2020   18.2610 N   0  0  0  0  0  0  0  0  0  0  0  0
    7.5610   -4.9940   23.5950 S   0  0  0  0  0  0  0  0  0  0  0  0
  1  2  1  0
  2  3  1  0
  3  4  2  0
  3  5  1  0
  5  6  2  0
  6  7  1  0
  7  8  2  0
  8  9  1  0
  9 10  1  0
 10 11  2  0
 10 12  1  0
 12 13  1  0
 13 14  2  0
 14 15  1  0
 15 16  2  0
 16 17  1  0
 17 18  2  0
 18 19  1  0
 15 20  1  0
 19 20  2  0
 13 21  1  0
 20 21  1  0
  5 22  1  0
  8 22  1  0
M  END
