DAR-DIA-caba39e3-11-acrylamide
     RDKit          3D

 32 35  0  0  0  0  0  0  0  0999 V2000
    7.3450   -3.0010   18.5380 C   0  0  0  0  0  0  0  0  0  0  0  0
    6.7430   -1.9680   19.4290 C   0  0  0  0  0  0  0  0  0  0  0  0
    6.0730   -2.6070   20.6170 C   0  0  0  0  0  0  0  0  0  0  0  0
    5.0590   -3.3170   20.4990 O   0  0  0  0  0  0  0  0  0  0  0  0
    6.6920   -2.3760   21.8240 N   0  0  0  0  0  0  0  0  0  0  0  0
    6.3770   -3.3110   22.8930 C   0  0  0  0  0  0  0  0  0  0  0  0
    7.4010   -3.7330   23.7510 C   0  0  0  0  0  0  0  0  0  0  0  0
    7.0940   -4.6200   24.7810 C   0  0  0  0  0  0  0  0  0  0  0  0
    8.0600   -5.0870   25.6810 C   0  0  0  0  0  0  0  0  0  0  0  0
    9.3930   -4.6790   25.5900 C   0  0  0  0  0  0  0  0  0  0  0  0
    9.7740   -3.7920   24.5850 C   0  0  0  0  0  0  0  0  0  0  0  0
    8.7200   -3.3000   23.6190 C   0  0  0  0  0  0  0  0  0  0  0  0
    9.1500   -2.3500   22.5410 C   0  0  2  0  0  0  0  0  0  0  0  0
   10.0530   -1.3280   22.8490 C   0  0  0  0  0  0  0  0  0  0  0  0
   11.3690   -1.4020   22.4270 C   0  0  0  0  0  0  0  0  0  0  0  0
   12.3140   -0.4120   22.6780 C   0  0  0  0  0  0  0  0  0  0  0  0
   13.5050   -0.7470   22.1440 O   0  0  0  0  0  0  0  0  0  0  0  0
   13.3660   -1.8010   21.2040 C   0  0  0  0  0  0  0  0  0  0  0  0
   11.9590    0.7320   23.3880 C   0  0  0  0  0  0  0  0  0  0  0  0
   10.6080    0.8090   23.8220 C   0  0  0  0  0  0  0  0  0  0  0  0
   10.2550    1.9210   24.5010 C   0  0  0  0  0  0  0  0  0  0  0  0
    8.9030    2.1830   25.0430 C   0  0  0  0  0  0  0  0  0  0  0  0
    8.6600    3.4720   25.7830 C   0  0  0  0  0  0  0  0  0  0  0  0
    9.3940    4.6790   25.2620 C   0  0  0  0  0  0  0  0  0  0  0  0
    8.4920    5.6970   24.7530 N   0  0  0  0  0  0  0  0  0  0  0  0
    8.1910    5.8190   23.3180 C   0  0  0  0  0  0  0  0  0  0  0  0
    8.3300    4.6250   22.5940 C   0  0  0  0  0  0  0  0  0  0  0  0
    7.8480    6.8730   22.7920 O   0  0  0  0  0  0  0  0  0  0  0  0
    7.9550    1.1990   24.8190 C   0  0  0  0  0  0  0  0  0  0  0  0
    8.3280    0.0410   24.1000 C   0  0  0  0  0  0  0  0  0  0  0  0
    9.6480   -0.1840   23.5840 C   0  0  0  0  0  0  0  0  0  0  0  0
    7.9810   -1.6650   21.7980 C   0  0  0  0  0  0  0  0  0  0  0  0
  1  2  1  0
  2  3  1  0
  3  4  2  0
  3  5  1  0
  5  6  1  0
  6  7  1  0
  7  8  1  0
  8  9  2  0
  9 10  1  0
 10 11  2  0
  7 12  2  0
 11 12  1  0
 12 13  1  0
 13 14  1  1
 14 15  2  0
 15 16  1  0
 16 17  1  0
 17 18  1  0
 16 19  2  0
 19 20  1  0
 20 21  1  0
 21 22  2  0
 22 23  1  0
 23 24  1  0
 24 25  1  0
 25 26  1  0
 26 27  1  0
 26 28  2  0
 22 29  1  0
 29 30  2  0
 14 31  1  0
 20 31  2  0
 30 31  1  0
  5 32  1  0
 13 32  1  0
M  END
