DAR-DIA-2b784ede-50-nitrile
     RDKit          3D

 33 35  0  0  0  0  0  0  0  0999 V2000
    6.7350   -3.0770   19.6400 C   0  0  0  0  0  0  0  0  0  0  0  0
    5.7160   -3.8510   19.7410 N   0  0  0  0  0  0  0  0  0  0  0  0
    6.6830   -1.6640   19.9970 N   0  0  0  0  0  0  0  0  0  0  0  0
    5.4350   -0.8310   19.9830 C   0  0  0  0  0  0  0  0  0  0  0  0
    4.5120    0.3570   19.6770 C   0  0  0  0  0  0  0  0  0  0  0  0
    4.9240    1.4930   18.9120 C   0  0  0  0  0  0  0  0  0  0  0  0
    4.0320    2.7510   18.6810 C   0  0  0  0  0  0  0  0  0  0  0  0
    4.0850    3.6850   17.4480 C   0  0  0  0  0  0  0  0  0  0  0  0
    2.5750    2.5070   19.0860 C   0  0  0  0  0  0  0  0  0  0  0  0
    4.3130    3.6470   19.8780 C   0  0  0  0  0  0  0  0  0  0  0  0
    6.1300    1.1750   18.5610 N   0  0  0  0  0  0  0  0  0  0  0  0
    6.3590   -0.0680   19.1660 N   0  0  0  0  0  0  0  0  0  0  0  0
    7.2560   -1.0400   21.2810 C   0  0  2  0  0  0  0  0  0  0  0  0
    8.6340   -0.8560   21.5410 C   0  0  0  0  0  0  0  0  0  0  0  0
    9.1010    0.2520   21.2560 O   0  0  0  0  0  0  0  0  0  0  0  0
    9.5560   -1.6670   22.1800 N   0  0  0  0  0  0  0  0  0  0  0  0
   10.9250   -1.3940   22.4020 C   0  0  0  0  0  0  0  0  0  0  0  0
   12.2700   -1.0780   22.7970 C   0  0  0  0  0  0  0  0  0  0  0  0
   13.2230   -1.1780   21.8800 C   0  0  0  0  0  0  0  0  0  0  0  0
   12.6940   -2.1190   20.8710 C   0  0  0  0  0  0  0  0  0  0  0  0
   12.8300   -0.6900   23.9440 C   0  0  0  0  0  0  0  0  0  0  0  0
   12.0640   -0.5190   25.1150 C   0  0  0  0  0  0  0  0  0  0  0  0
   10.7710   -0.7760   24.9540 C   0  0  0  0  0  0  0  0  0  0  0  0
   10.2610   -1.1790   23.7130 C   0  0  0  0  0  0  0  0  0  0  0  0
    8.7320   -1.4110   23.8750 C   0  0  0  0  0  0  0  0  0  0  0  0
    8.2880   -2.7170   23.1350 C   0  0  0  0  0  0  0  0  0  0  0  0
    9.0770   -3.4750   22.6050 O   0  0  0  0  0  0  0  0  0  0  0  0
    6.2910   -0.9970   22.4770 C   0  0  0  0  0  0  0  0  0  0  0  0
    5.5800   -2.1710   23.0700 C   0  0  0  0  0  0  0  0  0  0  0  0
    4.7250   -1.9790   24.1610 C   0  0  0  0  0  0  0  0  0  0  0  0
    4.5580   -0.6950   24.6730 C   0  0  0  0  0  0  0  0  0  0  0  0
    5.1800    0.3990   24.1700 N   0  0  0  0  0  0  0  0  0  0  0  0
    6.0140    0.2280   23.1060 C   0  0  0  0  0  0  0  0  0  0  0  0
  1  2  2  3
  1  3  1  0
  3  4  1  0
  4  5  2  0
  5  6  1  0
  6  7  1  0
  7  8  1  0
  7  9  1  0
  7 10  1  0
  6 11  2  0
  4 12  1  0
 11 12  1  0
  3 13  1  0
 13 14  1  1
 14 15  2  0
 14 16  1  0
 16 17  1  0
 17 18  2  0
 18 19  1  0
 19 20  1  0
 18 21  1  0
 21 22  2  0
 22 23  1  0
 17 24  1  0
 23 24  2  0
 24 25  1  0
 25 26  1  0
 26 27  1  0
 13 28  1  0
 28 29  2  0
 29 30  1  0
 30 31  2  0
 31 32  1  0
 28 33  1  0
 32 33  2  0
M  END
