DAR-DIA-fb20be43-13-acrylamide
     RDKit          3D

 28 30  0  0  0  0  0  0  0  0999 V2000
    7.9460   -3.3730   19.2640 C   0  0  0  0  0  0  0  0  0  0  0  0
    6.8500   -2.4240   18.9390 C   0  0  0  0  0  0  0  0  0  0  0  0
    5.8920   -2.5870   20.0620 C   0  0  0  0  0  0  0  0  0  0  0  0
    4.8250   -3.2020   19.9260 O   0  0  0  0  0  0  0  0  0  0  0  0
    6.3350   -2.0570   21.2490 N   0  0  0  0  0  0  0  0  0  0  0  0
    6.2560   -2.8360   22.4960 C   0  0  0  0  0  0  0  0  0  0  0  0
    7.6290   -3.2640   23.0540 C   0  0  0  0  0  0  0  0  0  0  0  0
    8.5450   -2.1280   23.1350 N   0  0  0  0  0  0  0  0  0  0  0  0
    9.8430   -2.4220   23.7290 C   0  0  0  0  0  0  0  0  0  0  0  0
   10.7290   -1.2400   23.5470 C   0  0  0  0  0  0  0  0  0  0  0  0
   11.9620   -1.4000   22.9230 C   0  0  0  0  0  0  0  0  0  0  0  0
   12.7390   -0.2880   22.7500 C   0  0  0  0  0  0  0  0  0  0  0  0
   13.8960   -0.1640   22.2080 O   0  0  0  0  0  0  0  0  0  0  0  0
   14.0220    1.1890   21.8460 C   0  0  0  0  0  0  0  0  0  0  0  0
   12.3600    0.9710   23.1530 C   0  0  0  0  0  0  0  0  0  0  0  0
   11.1550    1.1170   23.7530 C   0  0  0  0  0  0  0  0  0  0  0  0
   10.3320    0.0160   23.9760 C   0  0  0  0  0  0  0  0  0  0  0  0
    9.1570    0.3480   24.6300 C   0  0  0  0  0  0  0  0  0  0  0  0
    9.2560    1.7230   24.7900 C   0  0  0  0  0  0  0  0  0  0  0  0
   10.4360    2.2720   24.2620 C   0  0  0  0  0  0  0  0  0  0  0  0
   10.7520    3.7850   24.2540 C   0  0  0  0  0  0  0  0  0  0  0  0
    9.5610    4.6700   23.8440 C   0  0  0  0  0  0  0  0  0  0  0  0
    9.4040    5.7910   24.7600 N   0  0  0  0  0  0  0  0  0  0  0  0
   10.4760    6.7870   24.9890 C   0  0  0  0  0  0  0  0  0  0  0  0
   11.7560    6.2450   25.6690 C   0  0  0  0  0  0  0  0  0  0  0  0
   10.3770    7.9670   24.6680 O   0  0  0  0  0  0  0  0  0  0  0  0
    8.6900   -1.4750   21.8220 C   0  0  0  0  0  0  0  0  0  0  0  0
    7.3450   -0.9820   21.2720 C   0  0  0  0  0  0  0  0  0  0  0  0
  1  2  1  0
  2  3  1  0
  3  4  2  0
  3  5  1  0
  5  6  1  0
  6  7  1  0
  7  8  1  0
  8  9  1  0
  9 10  1  0
 10 11  2  0
 11 12  1  0
 12 13  1  0
 13 14  1  0
 12 15  2  0
 15 16  1  0
 10 17  1  0
 16 17  2  0
 17 18  1  0
 18 19  1  0
 16 20  1  0
 19 20  2  0
 20 21  1  0
 21 22  1  0
 22 23  1  0
 23 24  1  0
 24 25  1  0
 24 26  2  0
  8 27  1  0
  5 28  1  0
 27 28  1  0
M  END
