DAR-DIA-caba39e3-2-nitrile
     RDKit          3D

 20 22  0  0  0  0  0  0  0  0999 V2000
    6.8110   -3.5050   19.8430 C   0  0  0  0  0  0  0  0  0  0  0  0
    5.8210   -3.2760   19.0820 N   0  0  0  0  0  0  0  0  0  0  0  0
    6.9140   -2.9520   21.1330 N   0  0  0  0  0  0  0  0  0  0  0  0
    6.4000   -3.5970   22.2890 C   0  0  0  0  0  0  0  0  0  0  0  0
    7.3090   -3.9390   23.3050 C   0  0  0  0  0  0  0  0  0  0  0  0
    6.9340   -4.7670   24.3820 C   0  0  0  0  0  0  0  0  0  0  0  0
    7.8430   -5.1210   25.3960 C   0  0  0  0  0  0  0  0  0  0  0  0
    9.2410   -4.6070   25.3360 C   0  0  0  0  0  0  0  0  0  0  0  0
    9.5450   -3.7930   24.2620 C   0  0  0  0  0  0  0  0  0  0  0  0
    8.6220   -3.4640   23.2730 C   0  0  0  0  0  0  0  0  0  0  0  0
    9.0910   -2.6380   22.2570 C   0  0  2  0  0  0  0  0  0  0  0  0
    9.9950   -1.5830   22.8350 C   0  0  0  0  0  0  0  0  0  0  0  0
    9.5340   -0.7100   24.0280 C   0  0  0  0  0  0  0  0  0  0  0  0
   10.3450    0.2560   24.5600 C   0  0  0  0  0  0  0  0  0  0  0  0
   11.6700    0.4180   23.9430 C   0  0  0  0  0  0  0  0  0  0  0  0
   12.0920   -0.3840   22.8480 C   0  0  0  0  0  0  0  0  0  0  0  0
   13.2730   -0.1950   22.3170 O   0  0  0  0  0  0  0  0  0  0  0  0
   13.4500    1.1010   22.7610 C   0  0  0  0  0  0  0  0  0  0  0  0
   11.2760   -1.3770   22.2940 C   0  0  0  0  0  0  0  0  0  0  0  0
    7.9520   -1.9460   21.4810 C   0  0  0  0  0  0  0  0  0  0  0  0
  1  2  2  3
  1  3  1  0
  3  4  1  0
  4  5  1  0
  5  6  1  0
  6  7  2  0
  7  8  1  0
  8  9  2  0
  5 10  2  0
  9 10  1  0
 10 11  1  0
 11 12  1  1
 12 13  2  0
 13 14  1  0
 14 15  2  0
 15 16  1  0
 16 17  1  0
 17 18  1  0
 12 19  1  0
 16 19  2  0
  3 20  1  0
 11 20  1  0
M  END
