DAR-DIA-2b784ede-4-chloroacetamide
     RDKit          3D

 24 25  0  0  0  0  0  0  0  0999 V2000
    7.8780   -4.1210   20.3530 C   0  0  0  0  0  0  0  0  0  0  0  0
    6.5800   -3.3670   20.1890 C   0  0  0  0  0  0  0  0  0  0  0  0
    5.5610   -3.9660   19.7500 O   0  0  0  0  0  0  0  0  0  0  0  0
    6.7060   -1.9830   20.5430 N   0  0  0  0  0  0  0  0  0  0  0  0
    7.6180   -1.3670   19.6660 C   0  0  0  0  0  0  0  0  0  0  0  0
    8.2330   -1.3340   20.8800 C   0  0  0  0  0  0  0  0  0  0  0  0
    7.4330   -1.9690   21.8390 C   0  0  0  0  0  0  0  0  0  0  0  0
    6.0690   -2.5580   21.3880 C   0  0  0  0  0  0  0  0  0  0  0  0
    5.2640   -3.2020   22.3560 C   0  0  0  0  0  0  0  0  0  0  0  0
    5.4120   -4.9770   22.2650 Cl  0  0  0  0  0  0  0  0  0  0  0  0
    5.6370   -2.4440   19.9930 C   0  0  0  0  0  0  0  0  0  0  0  0
    6.4780   -1.8010   19.0490 C   0  0  0  0  0  0  0  0  0  0  0  0
    5.6380   -0.9810   21.0170 C   0  0  1  0  0  0  0  0  0  0  0  0
    5.9370   -0.3670   22.4460 C   0  0  0  0  0  0  0  0  0  0  0  0
    5.5230   -0.9020   23.4730 O   0  0  0  0  0  0  0  0  0  0  0  0
    6.6910    0.8140   22.4290 N   0  0  0  0  0  0  0  0  0  0  0  0
    7.5930    1.2630   21.4190 C   0  0  0  0  0  0  0  0  0  0  0  0
    5.3230    0.0320   19.9110 C   0  0  0  0  0  0  0  0  0  0  0  0
    6.1330    0.1000   18.7430 C   0  0  0  0  0  0  0  0  0  0  0  0
    5.9770    0.9590   17.6660 N   0  0  0  0  0  0  0  0  0  0  0  0
    4.9210    1.8710   17.7120 C   0  0  0  0  0  0  0  0  0  0  0  0
    4.0310    1.9340   18.7880 C   0  0  0  0  0  0  0  0  0  0  0  0
    4.3930    0.9970   19.6990 C   0  0  0  0  0  0  0  0  0  0  0  0
    5.2550    1.0600   18.4650 C   0  0  0  0  0  0  0  0  0  0  0  0
  1  2  1  0
  2  3  2  0
  2  4  1  0
  4  5  1  0
  5  6  2  0
  6  7  1  0
  7  8  2  0
  8  9  1  0
  9 10  1  0
  8 11  1  0
  5 12  1  0
 11 12  2  0
  4 13  1  0
 13 14  1  1
 14 15  2  0
 14 16  1  0
 16 17  1  0
 13 18  1  0
 18 19  2  0
 19 20  1  0
 20 21  2  0
 21 22  1  0
 18 23  1  0
 22 23  2  0
 23 24  1  0
M  END
