DAR-DIA-2b784ede-54-chloroacetamide
     RDKit          3D

 40 43  0  0  0  0  0  0  0  0999 V2000
    7.9810   -3.9200   20.4310 C   0  0  0  0  0  0  0  0  0  0  0  0
    7.1440   -2.7680   19.9360 C   0  0  0  0  0  0  0  0  0  0  0  0
    6.4600   -2.9040   18.8910 O   0  0  0  0  0  0  0  0  0  0  0  0
    7.1720   -1.6410   20.7190 N   0  0  0  0  0  0  0  0  0  0  0  0
    6.3350   -0.5670   20.3580 C   0  0  0  0  0  0  0  0  0  0  0  0
    6.6530    0.0430   19.0200 C   0  0  0  0  0  0  0  0  0  0  0  0
    5.7690    1.2030   18.6360 C   0  0  0  0  0  0  0  0  0  0  0  0
    4.6860    1.6050   19.6580 C   0  0  0  0  0  0  0  0  0  0  0  0
    3.7910    2.7520   19.3910 C   0  0  0  0  0  0  0  0  0  0  0  0
    4.0920    3.9150   20.3110 C   0  0  0  0  0  0  0  0  0  0  0  0
    4.0550    3.0920   17.9610 C   0  0  0  0  0  0  0  0  0  0  0  0
    2.3030    2.4170   19.6050 C   0  0  0  0  0  0  0  0  0  0  0  0
    4.5320    0.9360   20.8180 C   0  0  0  0  0  0  0  0  0  0  0  0
    5.2890   -0.1150   21.2030 C   0  0  0  0  0  0  0  0  0  0  0  0
    4.9020   -0.6190   22.4300 C   0  0  0  0  0  0  0  0  0  0  0  0
    4.8390   -2.1400   22.4970 C   0  0  0  0  0  0  0  0  0  0  0  0
    4.3990   -2.7670   23.8080 C   0  0  0  0  0  0  0  0  0  0  0  0
    4.0560   -1.8180   24.9590 C   0  0  0  0  0  0  0  0  0  0  0  0
    4.1530   -0.4270   24.7770 C   0  0  0  0  0  0  0  0  0  0  0  0
    4.5600    0.1500   23.5620 C   0  0  0  0  0  0  0  0  0  0  0  0
    7.0860   -1.9120   22.1600 C   0  0  2  0  0  0  0  0  0  0  0  0
    7.0350   -0.6320   23.0570 C   0  0  0  0  0  0  0  0  0  0  0  0
    6.4810   -0.5930   24.1540 O   0  0  0  0  0  0  0  0  0  0  0  0
    7.7010    0.4900   22.5770 N   0  0  0  0  0  0  0  0  0  0  0  0
    8.8720    0.9650   23.2940 C   0  0  0  0  0  0  0  0  0  0  0  0
    9.4490   -0.1470   24.1380 C   0  0  0  0  0  0  0  0  0  0  0  0
   10.7390   -0.5920   23.8810 C   0  0  0  0  0  0  0  0  0  0  0  0
   11.3360   -0.4730   22.6320 C   0  0  0  0  0  0  0  0  0  0  0  0
   12.6180   -0.9550   22.4170 C   0  0  0  0  0  0  0  0  0  0  0  0
   13.2700   -1.5420   23.4570 C   0  0  0  0  0  0  0  0  0  0  0  0
   12.7000   -1.6500   24.6920 C   0  0  0  0  0  0  0  0  0  0  0  0
   13.4050   -2.2320   25.6620 F   0  0  0  0  0  0  0  0  0  0  0  0
   11.4300   -1.1740   24.9080 C   0  0  0  0  0  0  0  0  0  0  0  0
    8.1050   -2.7580   22.8030 C   0  0  0  0  0  0  0  0  0  0  0  0
    7.7760   -3.7830   23.6670 C   0  0  0  0  0  0  0  0  0  0  0  0
    8.6730   -4.5410   24.3000 N   0  0  0  0  0  0  0  0  0  0  0  0
    9.9690   -4.2670   24.0890 C   0  0  0  0  0  0  0  0  0  0  0  0
   10.4390   -3.2730   23.2340 C   0  0  0  0  0  0  0  0  0  0  0  0
    9.4130   -2.4770   22.5350 C   0  0  0  0  0  0  0  0  0  0  0  0
    9.7230   -1.4730   21.6350 C   0  0  0  0  0  0  0  0  0  0  0  0
  1  2  1  0
  2  3  2  0
  2  4  1  0
  4  5  1  0
  5  6  2  0
  6  7  1  0
  7  8  2  0
  8  9  1  0
  9 10  1  0
  9 11  1  0
  9 12  1  0
  8 13  1  0
  5 14  1  0
 13 14  2  0
 14 15  1  0
 15 16  2  0
 16 17  1  0
 17 18  2  0
 18 19  1  0
 15 20  1  0
 19 20  2  0
  4 21  1  0
 21 22  1  1
 22 23  2  0
 22 24  1  0
 24 25  1  0
 25 26  1  0
 26 27  1  0
 27 28  2  0
 28 29  1  0
 29 30  2  0
 30 31  1  0
 31 32  1  0
 27 33  1  0
 31 33  2  0
 21 34  1  0
 34 35  2  0
 35 36  1  0
 36 37  2  0
 37 38  1  0
 34 39  1  0
 38 39  2  0
 39 40  1  0
M  END
