DAR-DIA-03336633-7
     RDKit          3D

 28 30  0  0  0  0  0  0  0  0999 V2000
    6.2040   -3.2830   20.6860 O   0  0  0  0  0  0  0  0  0  0  0  0
    6.9560   -2.4790   21.2370 C   0  0  0  0  0  0  0  0  0  0  0  0
    8.2070   -2.8980   21.9670 C   0  0  0  0  0  0  0  0  0  0  0  0
    8.1820   -4.4150   22.1460 C   0  0  0  0  0  0  0  0  0  0  0  0
    6.8920   -5.2110   22.1230 C   0  0  0  0  0  0  0  0  0  0  0  0
    7.1490   -6.6610   22.3110 C   0  0  0  0  0  0  0  0  0  0  0  0
    8.4130   -7.1990   22.4830 C   0  0  0  0  0  0  0  0  0  0  0  0
    9.5620   -6.4040   22.4970 C   0  0  0  0  0  0  0  0  0  0  0  0
    9.4130   -5.0210   22.3280 C   0  0  0  0  0  0  0  0  0  0  0  0
    6.6510   -1.0750   21.2130 N   0  0  0  0  0  0  0  0  0  0  0  0
    6.1630   -0.2960   20.1440 C   0  0  0  0  0  0  0  0  0  0  0  0
    6.8200   -0.2580   18.7470 C   0  0  0  0  0  0  0  0  0  0  0  0
    6.2680    0.5470   17.7660 N   0  0  0  0  0  0  0  0  0  0  0  0
    5.1420    1.2730   18.1180 C   0  0  0  0  0  0  0  0  0  0  0  0
    4.5670    1.2260   19.3640 C   0  0  0  0  0  0  0  0  0  0  0  0
    5.0350    0.4660   20.4020 C   0  0  0  0  0  0  0  0  0  0  0  0
    4.4010    0.4640   21.6480 C   0  0  0  0  0  0  0  0  0  0  0  0
    4.7910    1.5490   22.4630 C   0  0  0  0  0  0  0  0  0  0  0  0
    3.9450    2.5930   22.6430 N   0  0  0  0  0  0  0  0  0  0  0  0
    2.8190    2.3800   23.3780 C   0  0  0  0  0  0  0  0  0  0  0  0
    2.7020    1.4870   24.2050 O   0  0  0  0  0  0  0  0  0  0  0  0
    1.8650    3.2940   23.0610 N   0  0  0  0  0  0  0  0  0  0  0  0
    0.7120    3.3570   23.7970 C   0  0  0  0  0  0  0  0  0  0  0  0
   -0.4590    2.8430   23.2140 C   0  0  0  0  0  0  0  0  0  0  0  0
   -1.7160    3.2830   23.6440 C   0  0  0  0  0  0  0  0  0  0  0  0
   -1.7850    4.4740   24.3510 C   0  0  0  0  0  0  0  0  0  0  0  0
   -0.6450    4.8390   25.0550 C   0  0  0  0  0  0  0  0  0  0  0  0
    0.5570    4.6480   24.3600 C   0  0  0  0  0  0  0  0  0  0  0  0
  1  2  2  0
  2  3  1  0
  3  4  1  0
  4  5  2  0
  5  6  1  0
  6  7  2  0
  7  8  1  0
  4  9  1  0
  8  9  2  0
  2 10  1  0
 10 11  1  0
 11 12  2  0
 12 13  1  0
 13 14  2  0
 14 15  1  0
 11 16  1  0
 15 16  2  0
 16 17  1  0
 17 18  1  0
 18 19  1  0
 19 20  1  0
 20 21  2  0
 20 22  1  0
 22 23  1  0
 23 24  1  0
 24 25  1  0
 25 26  1  0
 26 27  1  0
 23 28  1  0
 27 28  1  0
M  END
