DAR-DIA-2b784ede-15-acrylamide
     RDKit          3D

 38 41  0  0  0  0  0  0  0  0999 V2000
    7.3090   -2.9640   18.8960 C   0  0  0  0  0  0  0  0  0  0  0  0
    7.0310   -2.3110   20.2200 C   0  0  0  0  0  0  0  0  0  0  0  0
    5.8090   -2.9830   20.8280 C   0  0  0  0  0  0  0  0  0  0  0  0
    4.8150   -3.2310   21.5460 O   0  0  0  0  0  0  0  0  0  0  0  0
    5.8450   -1.8140   21.6590 N   0  0  0  0  0  0  0  0  0  0  0  0
    4.8910   -0.7770   21.4860 C   0  0  0  0  0  0  0  0  0  0  0  0
    4.1290   -0.2750   22.5110 C   0  0  0  0  0  0  0  0  0  0  0  0
    3.1220    0.7940   22.3410 C   0  0  0  0  0  0  0  0  0  0  0  0
    2.9520    1.3460   20.9410 C   0  0  0  0  0  0  0  0  0  0  0  0
    1.8750    2.4450   20.8280 C   0  0  0  0  0  0  0  0  0  0  0  0
    2.0400    3.1370   19.4780 C   0  0  0  0  0  0  0  0  0  0  0  0
    2.1220    3.6770   18.4580 N   0  0  0  0  0  0  0  0  0  0  0  0
    1.9240    3.5000   21.9720 C   0  0  0  0  0  0  0  0  0  0  0  0
    0.4820    4.0330   22.0930 C   0  0  0  0  0  0  0  0  0  0  0  0
   -0.3370    2.9590   21.3700 C   0  0  0  0  0  0  0  0  0  0  0  0
    0.4260    1.8770   20.9360 C   0  0  0  0  0  0  0  0  0  0  0  0
    3.7590    0.8120   19.9350 C   0  0  0  0  0  0  0  0  0  0  0  0
    4.6880   -0.2080   20.2010 C   0  0  0  0  0  0  0  0  0  0  0  0
    6.8550   -1.5880   22.8020 C   0  0  1  0  0  0  0  0  0  0  0  0
    7.8990   -2.7260   22.8800 C   0  0  0  0  0  0  0  0  0  0  0  0
    7.6460   -3.8580   22.4200 O   0  0  0  0  0  0  0  0  0  0  0  0
    9.1580   -2.4200   23.5160 N   0  0  0  0  0  0  0  0  0  0  0  0
    9.2220   -1.2590   24.3830 C   0  0  0  0  0  0  0  0  0  0  0  0
    8.4960   -2.2790   25.1030 C   0  0  0  0  0  0  0  0  0  0  0  0
    7.8910   -2.0750   26.4790 C   0  0  0  0  0  0  0  0  0  0  0  0
    8.4770   -3.4460   24.3300 C   0  0  0  0  0  0  0  0  0  0  0  0
    9.1490   -3.3950   23.0330 C   0  0  0  0  0  0  0  0  0  0  0  0
    9.8310   -2.2170   22.4950 C   0  0  0  0  0  0  0  0  0  0  0  0
    9.8940   -1.0250   23.2110 C   0  0  0  0  0  0  0  0  0  0  0  0
   10.5430    0.1440   22.7920 C   0  0  0  0  0  0  0  0  0  0  0  0
   12.0500    0.1350   22.8920 C   0  0  0  0  0  0  0  0  0  0  0  0
    7.4220   -0.1350   22.6840 C   0  0  0  0  0  0  0  0  0  0  0  0
    6.6980   -0.0580   23.8770 C   0  0  0  0  0  0  0  0  0  0  0  0
    6.3510   -1.2460   23.7950 N   0  0  0  0  0  0  0  0  0  0  0  0
    7.1100   -1.3370   22.5440 C   0  0  0  0  0  0  0  0  0  0  0  0
    7.9480   -0.1050   21.8650 C   0  0  0  0  0  0  0  0  0  0  0  0
    7.8330    1.1270   22.7090 C   0  0  0  0  0  0  0  0  0  0  0  0
    8.6610    2.0850   21.9020 C   0  0  0  0  0  0  0  0  0  0  0  0
  1  2  1  0
  2  3  1  0
  3  4  2  0
  3  5  1  0
  5  6  1  0
  6  7  2  0
  7  8  1  0
  8  9  2  0
  9 10  1  0
 10 11  1  0
 11 12  3  0
 10 13  1  0
 13 14  1  0
 14 15  1  0
 10 16  1  0
 15 16  1  0
  9 17  1  0
  6 18  1  0
 17 18  2  0
  5 19  1  0
 19 20  1  6
 20 21  2  0
 20 22  1  0
 22 23  1  0
 23 24  2  0
 24 25  1  0
 24 26  1  0
 26 27  2  0
 27 28  1  0
 23 29  1  0
 28 29  2  0
 29 30  1  0
 30 31  1  0
 19 32  1  0
 32 33  2  0
 33 34  1  0
 34 35  2  0
 35 36  1  0
 32 37  1  0
 36 37  2  0
 37 38  1  0
M  END
