DAR-DIA-2b784ede-30-vinylsulfonamide
     RDKit          3D

 27 28  0  0  0  0  0  0  0  0999 V2000
    7.2000   -3.1150   19.2710 C   0  0  0  0  0  0  0  0  0  0  0  0
    5.9320   -2.6400   19.9020 C   0  0  0  0  0  0  0  0  0  0  0  0
    5.9620   -2.7600   21.6460 S   0  0  0  0  0  0  0  0  0  0  0  0
    4.5250   -3.1170   21.8660 O   0  0  0  0  0  0  0  0  0  0  0  0
    6.9290   -3.7160   22.1530 O   0  0  0  0  0  0  0  0  0  0  0  0
    6.6760   -1.1830   22.0560 N   0  0  0  0  0  0  0  0  0  0  0  0
    6.9810   -0.3110   20.9300 C   0  0  0  0  0  0  0  0  0  0  0  0
    6.7820    0.4230   19.6970 C   0  0  0  0  0  0  0  0  0  0  0  0
    5.9910   -0.2500   20.2330 N   0  0  0  0  0  0  0  0  0  0  0  0
    4.9890   -0.2670   19.6260 N   0  0  0  0  0  0  0  0  0  0  0  0
    5.6220    0.5500   18.6980 C   0  0  0  0  0  0  0  0  0  0  0  0
    6.6460   -0.2450   17.9990 C   0  0  0  0  0  0  0  0  0  0  0  0
    6.0960    1.7720   19.4610 C   0  0  0  0  0  0  0  0  0  0  0  0
    4.6650    0.9870   17.7200 C   0  0  0  0  0  0  0  0  0  0  0  0
    5.3910   -0.8070   20.7460 C   0  0  0  0  0  0  0  0  0  0  0  0
    7.8260   -1.4680   22.9170 C   0  0  2  0  0  0  0  0  0  0  0  0
    7.1130   -1.8660   24.2260 C   0  0  0  0  0  0  0  0  0  0  0  0
    6.9960   -3.2100   24.5350 O   0  0  0  0  0  0  0  0  0  0  0  0
    6.5960   -0.9240   25.0430 N   0  0  0  0  0  0  0  0  0  0  0  0
    6.4980    0.3210   24.5200 C   0  0  0  0  0  0  0  0  0  0  0  0
    9.1210   -0.7270   22.8910 C   0  0  0  0  0  0  0  0  0  0  0  0
   10.4730   -0.7840   23.2050 C   0  0  0  0  0  0  0  0  0  0  0  0
   10.7480    0.3720   22.8210 N   0  0  0  0  0  0  0  0  0  0  0  0
   11.9950    0.2150   23.1790 C   0  0  0  0  0  0  0  0  0  0  0  0
   11.3980   -1.1250   23.5660 C   0  0  0  0  0  0  0  0  0  0  0  0
    9.9980   -1.6400   23.4420 C   0  0  0  0  0  0  0  0  0  0  0  0
    9.5140   -2.8730   23.8030 C   0  0  0  0  0  0  0  0  0  0  0  0
  1  2  1  0
  2  3  1  0
  3  4  2  0
  3  5  2  0
  3  6  1  0
  6  7  1  0
  7  8  1  0
  8  9  2  0
  9 10  1  0
 10 11  1  0
 11 12  1  0
 11 13  1  0
 11 14  1  0
  7 15  2  0
 10 15  1  0
  6 16  1  0
 16 17  1  1
 17 18  2  0
 17 19  1  0
 19 20  1  0
 16 21  1  0
 21 22  2  0
 22 23  1  0
 23 24  2  0
 24 25  1  0
 21 26  1  0
 25 26  2  0
 26 27  1  0
M  END
