DAR-DIA-0cde14eb-15
     RDKit          3D

 23 25  0  0  0  0  0  0  0  0999 V2000
    4.8660    1.2120   21.6510 C   0  0  0  0  0  0  0  0  0  0  0  0
    5.2970    1.0390   20.2190 C   0  0  0  0  0  0  0  0  0  0  0  0
    4.6530    1.7350   19.1910 C   0  0  0  0  0  0  0  0  0  0  0  0
    5.0980    1.5410   17.8960 C   0  0  0  0  0  0  0  0  0  0  0  0
    6.1080    0.7160   17.5660 N   0  0  0  0  0  0  0  0  0  0  0  0
    6.7100    0.0620   18.5700 C   0  0  0  0  0  0  0  0  0  0  0  0
    6.3480    0.1930   19.8790 C   0  0  0  0  0  0  0  0  0  0  0  0
    6.9960   -0.4740   20.8900 N   0  0  0  0  0  0  0  0  0  0  0  0
    8.0610    0.0830   21.5180 C   0  0  0  0  0  0  0  0  0  0  0  0
    8.6430    1.1410   21.2220 O   0  0  0  0  0  0  0  0  0  0  0  0
    8.4950   -0.7740   22.6620 C   0  0  1  0  0  0  0  0  0  0  0  0
    8.4730   -2.2240   22.2490 C   0  0  0  0  0  0  0  0  0  0  0  0
    9.8640   -0.3470   23.0240 C   0  0  0  0  0  0  0  0  0  0  0  0
   10.1480    0.7620   23.8170 C   0  0  0  0  0  0  0  0  0  0  0  0
   11.4560    1.0990   24.1000 C   0  0  0  0  0  0  0  0  0  0  0  0
   12.5630    0.2820   23.5710 C   0  0  0  0  0  0  0  0  0  0  0  0
   12.1670   -0.8490   22.7570 C   0  0  0  0  0  0  0  0  0  0  0  0
   13.1850   -1.6720   22.2030 C   0  0  0  0  0  0  0  0  0  0  0  0
   13.7190   -2.5860   23.2760 C   0  0  0  0  0  0  0  0  0  0  0  0
   14.0890   -3.1700   24.1980 N   0  0  0  0  0  0  0  0  0  0  0  0
   13.6930   -1.3270   20.8110 C   0  0  0  0  0  0  0  0  0  0  0  0
   12.6080   -2.1950   20.9350 C   0  0  0  0  0  0  0  0  0  0  0  0
   10.8650   -1.1250   22.5110 C   0  0  0  0  0  0  0  0  0  0  0  0
  1  2  1  0
  2  3  2  0
  3  4  1  0
  4  5  2  0
  5  6  1  0
  2  7  1  0
  6  7  2  0
  7  8  1  0
  8  9  1  0
  9 10  2  0
  9 11  1  0
 11 12  1  6
 11 13  1  0
 13 14  2  0
 14 15  1  0
 15 16  2  0
 16 17  1  0
 17 18  1  0
 18 19  1  0
 19 20  3  0
 18 21  1  0
 18 22  1  0
 21 22  1  0
 13 23  1  0
 17 23  2  0
M  END
