DAR-DIA-0cde14eb-2
     RDKit          3D

 21 23  0  0  0  0  0  0  0  0999 V2000
    5.1200    0.7540   21.8830 C   0  0  0  0  0  0  0  0  0  0  0  0
    5.4700    0.6350   20.4310 C   0  0  0  0  0  0  0  0  0  0  0  0
    4.7900    1.4290   19.4910 C   0  0  0  0  0  0  0  0  0  0  0  0
    5.1290    1.3170   18.1590 C   0  0  0  0  0  0  0  0  0  0  0  0
    6.0780    0.4830   17.7100 N   0  0  0  0  0  0  0  0  0  0  0  0
    6.7180   -0.2750   18.6270 C   0  0  0  0  0  0  0  0  0  0  0  0
    6.4620   -0.2440   19.9780 C   0  0  0  0  0  0  0  0  0  0  0  0
    7.1650   -1.0420   20.8960 N   0  0  0  0  0  0  0  0  0  0  0  0
    8.3500   -0.5800   21.4000 C   0  0  0  0  0  0  0  0  0  0  0  0
    8.6720    0.5970   21.3110 O   0  0  0  0  0  0  0  0  0  0  0  0
    9.2950   -1.5470   22.0970 C   0  0  0  0  0  0  0  0  0  0  0  0
   10.3400   -0.7710   22.5540 C   0  0  0  0  0  0  0  0  0  0  0  0
   11.6830   -1.1190   22.4190 C   0  0  0  0  0  0  0  0  0  0  0  0
   12.6600   -0.2490   22.9020 C   0  0  0  0  0  0  0  0  0  0  0  0
   12.2870    0.9630   23.5080 C   0  0  0  0  0  0  0  0  0  0  0  0
   10.8360    1.3470   23.6480 C   0  0  0  0  0  0  0  0  0  0  0  0
   10.3040    2.6490   24.2590 C   0  0  0  0  0  0  0  0  0  0  0  0
    9.2440    2.5140   25.1560 F   0  0  0  0  0  0  0  0  0  0  0  0
    9.8550    2.4490   22.8530 C   0  0  0  0  0  0  0  0  0  0  0  0
   10.1990    3.8350   23.3350 C   0  0  0  0  0  0  0  0  0  0  0  0
    9.9470    0.4210   23.1560 C   0  0  0  0  0  0  0  0  0  0  0  0
  1  2  1  0
  2  3  2  0
  3  4  1  0
  4  5  2  0
  5  6  1  0
  2  7  1  0
  6  7  2  0
  7  8  1  0
  8  9  1  0
  9 10  2  0
  9 11  1  0
 11 12  1  0
 12 13  2  0
 13 14  1  0
 14 15  2  0
 15 16  1  0
 16 17  1  0
 17 18  1  0
 17 19  1  0
 17 20  1  0
 19 20  1  0
 12 21  1  0
 16 21  2  0
M  END
