DAR-DIA-2b784ede-2-vinylsulfonamide
     RDKit          3D

 27 28  0  0  0  0  0  0  0  0999 V2000
    7.3000   -3.3040   19.6020 C   0  0  0  0  0  0  0  0  0  0  0  0
    5.9640   -2.7320   20.0540 C   0  0  0  0  0  0  0  0  0  0  0  0
    5.8190   -2.7120   21.8310 S   0  0  0  0  0  0  0  0  0  0  0  0
    4.4680   -3.2600   22.0410 O   0  0  0  0  0  0  0  0  0  0  0  0
    6.9530   -3.4350   22.3120 O   0  0  0  0  0  0  0  0  0  0  0  0
    6.0960   -1.0270   22.1960 N   0  0  0  0  0  0  0  0  0  0  0  0
    5.2830   -0.1240   21.4550 C   0  0  0  0  0  0  0  0  0  0  0  0
    6.3850   -0.6390   20.7080 C   0  0  0  0  0  0  0  0  0  0  0  0
    6.7870   -0.4270   19.4340 C   0  0  0  0  0  0  0  0  0  0  0  0
    6.0010    0.4690   18.6800 C   0  0  0  0  0  0  0  0  0  0  0  0
    6.1890    0.8430   17.4460 C   0  0  0  0  0  0  0  0  0  0  0  0
    5.2940    1.8380   17.1940 C   0  0  0  0  0  0  0  0  0  0  0  0
    4.4550    2.8680   17.0800 N   0  0  0  0  0  0  0  0  0  0  0  0
    4.9710    1.0190   19.2130 N   0  0  0  0  0  0  0  0  0  0  0  0
    4.6820    0.7210   20.4680 C   0  0  0  0  0  0  0  0  0  0  0  0
    7.1810   -0.3940   23.1410 C   0  0  1  0  0  0  0  0  0  0  0  0
    6.4930   -0.0870   24.5220 C   0  0  0  0  0  0  0  0  0  0  0  0
    6.3470   -0.9510   25.3850 O   0  0  0  0  0  0  0  0  0  0  0  0
    6.0600    1.2260   24.7000 N   0  0  0  0  0  0  0  0  0  0  0  0
    6.9790    2.3060   24.9650 C   0  0  0  0  0  0  0  0  0  0  0  0
    8.7740   -0.6400   23.1680 C   0  0  0  0  0  0  0  0  0  0  0  0
    9.6670    0.5050   22.7940 C   0  0  0  0  0  0  0  0  0  0  0  0
   10.9480    0.2040   22.8850 N   0  0  0  0  0  0  0  0  0  0  0  0
   10.1640   -0.7560   23.1920 C   0  0  0  0  0  0  0  0  0  0  0  0
   10.9960   -1.6910   23.4860 C   0  0  0  0  0  0  0  0  0  0  0  0
    9.5670   -1.8530   23.5430 C   0  0  0  0  0  0  0  0  0  0  0  0
    9.0240   -3.1740   23.9660 C   0  0  0  0  0  0  0  0  0  0  0  0
  1  2  1  0
  2  3  1  0
  3  4  2  0
  3  5  2  0
  3  6  1  0
  6  7  1  0
  7  8  2  0
  8  9  1  0
  9 10  2  0
 10 11  1  0
 11 12  1  0
 12 13  3  0
 10 14  1  0
  7 15  1  0
 14 15  2  0
  6 16  1  0
 16 17  1  1
 17 18  2  0
 17 19  1  0
 19 20  1  0
 16 21  1  0
 21 22  2  0
 22 23  1  0
 23 24  2  0
 24 25  1  0
 21 26  1  0
 25 26  2  0
 26 27  1  0
M  END
