DAR-DIA-fb20be43-6-chloroacetamide
     RDKit          3D

 22 24  0  0  0  0  0  0  0  0999 V2000
    7.6600   -3.5900   19.6280 C   0  0  0  0  0  0  0  0  0  0  0  0
    6.3790   -2.8930   19.8540 C   0  0  0  0  0  0  0  0  0  0  0  0
    5.4340   -3.1970   19.0980 O   0  0  0  0  0  0  0  0  0  0  0  0
    6.3450   -2.0320   20.9350 N   0  0  0  0  0  0  0  0  0  0  0  0
    6.0990   -2.6160   22.2620 C   0  0  0  0  0  0  0  0  0  0  0  0
    7.3910   -3.1100   22.9480 C   0  0  0  0  0  0  0  0  0  0  0  0
    8.2940   -1.9600   23.0880 N   0  0  0  0  0  0  0  0  0  0  0  0
    9.4310   -2.2200   23.9980 C   0  0  0  0  0  0  0  0  0  0  0  0
   10.4680   -1.3910   23.6190 C   0  0  0  0  0  0  0  0  0  0  0  0
   11.5220   -1.9090   22.9320 C   0  0  0  0  0  0  0  0  0  0  0  0
   12.5400   -1.1010   22.5270 C   0  0  0  0  0  0  0  0  0  0  0  0
   13.5200   -1.7190   21.8610 C   0  0  0  0  0  0  0  0  0  0  0  0
   13.7800   -1.3670   20.5360 N   0  0  0  0  0  0  0  0  0  0  0  0
   12.5570    0.2670   22.7780 C   0  0  0  0  0  0  0  0  0  0  0  0
   11.4850    0.8230   23.4750 C   0  0  0  0  0  0  0  0  0  0  0  0
   11.4450    2.2110   23.7260 C   0  0  0  0  0  0  0  0  0  0  0  0
   10.3810    2.7810   24.4310 C   0  0  0  0  0  0  0  0  0  0  0  0
    9.3080    1.8600   24.9190 C   0  0  0  0  0  0  0  0  0  0  0  0
    9.3690    0.5020   24.6420 C   0  0  0  0  0  0  0  0  0  0  0  0
   10.4260   -0.0190   23.9240 C   0  0  0  0  0  0  0  0  0  0  0  0
    8.6370   -1.3790   21.7930 C   0  0  0  0  0  0  0  0  0  0  0  0
    7.4390   -1.0200   20.9110 C   0  0  0  0  0  0  0  0  0  0  0  0
  1  2  1  0
  2  3  2  0
  2  4  1  0
  4  5  1  0
  5  6  1  0
  6  7  1  0
  7  8  1  0
  8  9  1  0
  9 10  2  0
 10 11  1  0
 11 12  1  0
 12 13  3  0
 11 14  2  0
 14 15  1  0
 15 16  1  0
 16 17  2  0
 17 18  1  0
 18 19  2  0
  9 20  1  0
 15 20  2  0
 19 20  1  0
  7 21  1  0
  4 22  1  0
 21 22  1  0
M  END
