DAR-DIA-fb20be43-16-chloroacetamide
     RDKit          3D

 28 30  0  0  0  0  0  0  0  0999 V2000
    7.5720   -3.6220   19.6480 C   0  0  0  0  0  0  0  0  0  0  0  0
    6.3050   -2.9020   19.7560 C   0  0  0  0  0  0  0  0  0  0  0  0
    5.3620   -3.1940   19.0150 O   0  0  0  0  0  0  0  0  0  0  0  0
    6.2810   -1.9760   20.7710 N   0  0  0  0  0  0  0  0  0  0  0  0
    7.3480   -0.9620   20.8580 C   0  0  0  0  0  0  0  0  0  0  0  0
    8.5720   -1.4510   21.6600 C   0  0  0  0  0  0  0  0  0  0  0  0
    8.1640   -1.9980   22.9600 N   0  0  0  0  0  0  0  0  0  0  0  0
    9.2500   -2.2740   23.8770 C   0  0  0  0  0  0  0  0  0  0  0  0
   10.4020   -1.3670   23.6010 C   0  0  0  0  0  0  0  0  0  0  0  0
   11.4170   -1.8110   22.6150 C   0  0  0  0  0  0  0  0  0  0  0  0
   12.4660   -0.9560   22.3550 C   0  0  0  0  0  0  0  0  0  0  0  0
   13.3200   -1.3690   21.4370 C   0  0  0  0  0  0  0  0  0  0  0  0
   13.9100   -1.6480   20.5530 N   0  0  0  0  0  0  0  0  0  0  0  0
   12.6260    0.2740   22.9750 C   0  0  0  0  0  0  0  0  0  0  0  0
   11.6580    0.6470   23.8820 C   0  0  0  0  0  0  0  0  0  0  0  0
   10.5420   -0.1480   24.2020 C   0  0  0  0  0  0  0  0  0  0  0  0
    9.6390    0.3600   25.0970 C   0  0  0  0  0  0  0  0  0  0  0  0
    9.6540    1.7960   24.9110 N   0  0  0  0  0  0  0  0  0  0  0  0
    8.6210    2.6700   25.1060 C   0  0  0  0  0  0  0  0  0  0  0  0
    8.8020    3.8830   25.1580 O   0  0  0  0  0  0  0  0  0  0  0  0
    7.3310    2.1450   25.2110 N   0  0  0  0  0  0  0  0  0  0  0  0
    6.1100    2.9490   25.0860 C   0  0  0  0  0  0  0  0  0  0  0  0
    4.9380    2.1970   25.3800 C   0  0  0  0  0  0  0  0  0  0  0  0
    4.8560    1.8220   26.5480 O   0  0  0  0  0  0  0  0  0  0  0  0
    5.9950    1.0690   26.9940 C   0  0  0  0  0  0  0  0  0  0  0  0
    7.0920    0.8830   25.9230 C   0  0  0  0  0  0  0  0  0  0  0  0
    7.1940   -3.0620   22.8170 C   0  0  0  0  0  0  0  0  0  0  0  0
    5.9360   -2.5760   22.0630 C   0  0  0  0  0  0  0  0  0  0  0  0
  1  2  1  0
  2  3  2  0
  2  4  1  0
  4  5  1  0
  5  6  1  0
  6  7  1  0
  7  8  1  0
  8  9  1  0
  9 10  2  0
 10 11  1  0
 11 12  1  0
 12 13  3  0
 11 14  2  0
 14 15  1  0
  9 16  1  0
 15 16  2  0
 16 17  1  0
 17 18  1  0
 18 19  1  0
 19 20  2  0
 19 21  1  0
 21 22  1  0
 22 23  1  0
 23 24  1  0
 24 25  1  0
 21 26  1  0
 25 26  1  0
  7 27  1  0
  4 28  1  0
 27 28  1  0
M  END
