DAR-DIA-842b4336-5-nitrile
     RDKit          3D

 17 18  0  0  0  0  0  0  0  0999 V2000
    6.3560   -4.0980   19.9560 C   0  0  0  0  0  0  0  0  0  0  0  0
    5.1120   -4.0800   19.6880 N   0  0  0  0  0  0  0  0  0  0  0  0
    6.9250   -2.8520   20.6350 C   0  0  0  0  0  0  0  0  0  0  0  0
    6.0810   -1.4220   20.7280 C   0  0  0  0  0  0  0  0  0  0  0  0
    6.2170   -2.6860   20.3630 C   0  0  0  0  0  0  0  0  0  0  0  0
    7.2710   -1.6620   21.1970 C   0  0  0  0  0  0  0  0  0  0  0  0
    8.4170   -1.2940   21.8540 N   0  0  0  0  0  0  0  0  0  0  0  0
    8.5990    0.0820   21.8120 C   0  0  0  0  0  0  0  0  0  0  0  0
    9.6930    0.6270   21.9150 O   0  0  0  0  0  0  0  0  0  0  0  0
    7.3900    0.7650   21.6560 N   0  0  0  0  0  0  0  0  0  0  0  0
    6.6660    1.0210   20.4830 C   0  0  0  0  0  0  0  0  0  0  0  0
    5.6340    1.9940   20.4450 C   0  0  0  0  0  0  0  0  0  0  0  0
    4.8310    2.2850   19.1900 C   0  0  0  0  0  0  0  0  0  0  0  0
    5.2450    1.4360   17.9880 C   0  0  0  0  0  0  0  0  0  0  0  0
    6.2570    0.5110   18.1000 N   0  0  0  0  0  0  0  0  0  0  0  0
    6.9510    0.2990   19.3000 C   0  0  0  0  0  0  0  0  0  0  0  0
    8.3760   -2.8940   21.3010 S   0  0  0  0  0  0  0  0  0  0  0  0
  1  2  2  3
  1  3  1  0
  3  4  2  0
  4  5  1  0
  5  6  2  0
  6  7  1  0
  7  8  1  0
  8  9  2  0
  8 10  1  0
 10 11  1  0
 11 12  2  0
 12 13  1  0
 13 14  2  0
 14 15  1  0
 11 16  1  0
 15 16  2  0
  3 17  1  0
  6 17  1  0
M  END
