DAR-DIA-23aa0b97-11-vinylsulfonamide
     RDKit          3D

 24 26  0  0  0  0  0  0  0  0999 V2000
    6.1150   -5.2970   20.1150 C   0  0  0  0  0  0  0  0  0  0  0  0
    6.0940   -5.2470   21.6440 C   0  0  0  0  0  0  0  0  0  0  0  0
    5.1970   -3.7570   21.9730 S   0  0  0  0  0  0  0  0  0  0  0  0
    3.9840   -4.1110   22.6710 O   0  0  0  0  0  0  0  0  0  0  0  0
    5.0450   -3.1260   20.6870 O   0  0  0  0  0  0  0  0  0  0  0  0
    6.2970   -2.6900   22.9120 C   0  0  0  0  0  0  0  0  0  0  0  0
    7.6720   -2.3290   23.5320 C   0  0  0  0  0  0  0  0  0  0  0  0
    9.2020   -2.5760   23.8570 C   0  0  0  0  0  0  0  0  0  0  0  0
    8.4420   -1.4030   24.2720 C   0  0  0  0  0  0  0  0  0  0  0  0
    7.9020   -2.6200   23.4380 C   0  0  0  0  0  0  0  0  0  0  0  0
    6.6750   -1.9090   23.4380 N   0  0  0  0  0  0  0  0  0  0  0  0
    6.6330   -0.4160   23.2900 C   0  0  0  0  0  0  0  0  0  0  0  0
    6.9840    0.3850   24.1620 O   0  0  0  0  0  0  0  0  0  0  0  0
    6.2190   -0.1150   22.2360 N   0  0  0  0  0  0  0  0  0  0  0  0
    6.8620   -0.5700   20.9920 C   0  0  0  0  0  0  0  0  0  0  0  0
    7.2470   -0.7800   19.6030 C   0  0  0  0  0  0  0  0  0  0  0  0
    6.7260   -0.2150   18.5290 N   0  0  0  0  0  0  0  0  0  0  0  0
    5.7140    0.6320   19.0140 C   0  0  0  0  0  0  0  0  0  0  0  0
    4.8440    1.4600   18.3860 N   0  0  0  0  0  0  0  0  0  0  0  0
    3.9210    2.2100   19.0670 C   0  0  0  0  0  0  0  0  0  0  0  0
    3.8490    2.1400   20.4400 C   0  0  0  0  0  0  0  0  0  0  0  0
    4.7710    1.2520   21.2250 C   0  0  0  0  0  0  0  0  0  0  0  0
    5.8150    0.3990   20.5200 C   0  0  0  0  0  0  0  0  0  0  0  0
    7.1880   -3.6180   22.6720 C   0  0  0  0  0  0  0  0  0  0  0  0
  1  2  1  0
  3  2  1  0
  3  4  2  0
  3  5  2  0
  3  6  1  0
  6  7  2  0
  7  8  1  0
  8  9  2  0
  9 10  1  0
 10 11  1  0
 11 12  1  0
 12 13  2  0
 12 14  1  0
 14 15  1  0
 15 16  2  0
 16 17  1  0
 17 18  1  0
 18 19  1  0
 19 20  2  0
 20 21  1  0
 21 22  2  0
 15 23  1  0
 18 23  2  0
 22 23  1  0
  6 24  1  0
 10 24  2  0
M  END
