DAR-DIA-842b4336-6-nitrile
     RDKit          3D

 17 18  0  0  0  0  0  0  0  0999 V2000
    7.2800   -3.6820   19.9710 C   0  0  0  0  0  0  0  0  0  0  0  0
    6.6250   -3.0420   19.0400 N   0  0  0  0  0  0  0  0  0  0  0  0
    8.6580   -3.2420   20.5250 C   0  0  0  0  0  0  0  0  0  0  0  0
    9.7200   -2.4240   21.5670 C   0  0  0  0  0  0  0  0  0  0  0  0
    9.2040   -1.6280   22.5770 O   0  0  0  0  0  0  0  0  0  0  0  0
    7.9680   -1.8750   22.2380 C   0  0  0  0  0  0  0  0  0  0  0  0
    6.6550   -1.5130   22.6440 N   0  0  0  0  0  0  0  0  0  0  0  0
    6.2810   -0.3030   22.1350 C   0  0  0  0  0  0  0  0  0  0  0  0
    6.9230    0.9480   22.4390 O   0  0  0  0  0  0  0  0  0  0  0  0
    5.1740   -0.4620   21.2170 N   0  0  0  0  0  0  0  0  0  0  0  0
    5.2100    0.2000   20.0290 C   0  0  0  0  0  0  0  0  0  0  0  0
    4.2560    1.1870   19.9000 C   0  0  0  0  0  0  0  0  0  0  0  0
    4.1730    1.9480   18.7520 C   0  0  0  0  0  0  0  0  0  0  0  0
    5.1570    1.6470   17.6680 C   0  0  0  0  0  0  0  0  0  0  0  0
    6.0950    0.6750   17.7920 N   0  0  0  0  0  0  0  0  0  0  0  0
    6.1190   -0.0380   18.9610 C   0  0  0  0  0  0  0  0  0  0  0  0
    8.5960   -2.4760   21.4950 N   0  0  0  0  0  0  0  0  0  0  0  0
  1  2  2  3
  1  3  1  0
  3  4  2  0
  4  5  1  0
  5  6  1  0
  6  7  1  0
  7  8  1  0
  8  9  2  0
  8 10  1  0
 10 11  1  0
 11 12  2  0
 12 13  1  0
 13 14  2  0
 14 15  1  0
 11 16  1  0
 15 16  2  0
  3 17  1  0
  6 17  2  0
M  END
