DAR-DIA-caba39e3-6-chloroacetamide
     RDKit          3D

 29 32  0  0  0  0  0  0  0  0999 V2000
    7.3500   -2.9910   18.8480 C   0  0  0  0  0  0  0  0  0  0  0  0
    6.4980   -3.3710   20.0010 C   0  0  0  0  0  0  0  0  0  0  0  0
    5.5950   -4.2170   19.8500 O   0  0  0  0  0  0  0  0  0  0  0  0
    6.7780   -2.7390   21.2430 N   0  0  0  0  0  0  0  0  0  0  0  0
    6.2310   -3.2720   22.5140 C   0  0  0  0  0  0  0  0  0  0  0  0
    7.3130   -3.7610   23.4590 C   0  0  0  0  0  0  0  0  0  0  0  0
    6.9300   -4.6260   24.4950 C   0  0  0  0  0  0  0  0  0  0  0  0
    7.8680   -5.1200   25.3940 C   0  0  0  0  0  0  0  0  0  0  0  0
    9.1970   -4.7590   25.2670 C   0  0  0  0  0  0  0  0  0  0  0  0
    9.5990   -3.8990   24.2470 C   0  0  0  0  0  0  0  0  0  0  0  0
    8.6720   -3.3800   23.3260 C   0  0  0  0  0  0  0  0  0  0  0  0
    9.1210   -2.4360   22.2080 C   0  0  2  0  0  0  0  0  0  0  0  0
   10.0800   -1.3030   22.5840 C   0  0  0  0  0  0  0  0  0  0  0  0
   11.4830   -1.4800   22.4850 C   0  0  0  0  0  0  0  0  0  0  0  0
   12.3650   -0.4560   22.8090 C   0  0  0  0  0  0  0  0  0  0  0  0
   13.6660   -0.6640   22.7040 F   0  0  0  0  0  0  0  0  0  0  0  0
   11.8730    0.7640   23.2310 C   0  0  0  0  0  0  0  0  0  0  0  0
   10.5020    1.0410   23.3560 C   0  0  0  0  0  0  0  0  0  0  0  0
    9.7180    2.1710   23.7320 C   0  0  0  0  0  0  0  0  0  0  0  0
   10.0740    3.4980   24.1210 C   0  0  0  0  0  0  0  0  0  0  0  0
    9.0520    4.0780   24.8450 C   0  0  0  0  0  0  0  0  0  0  0  0
    8.6590    3.2690   25.8780 N   0  0  0  0  0  0  0  0  0  0  0  0
    8.2140    4.0280   26.9480 C   0  0  0  0  0  0  0  0  0  0  0  0
    9.1950    4.1420   28.0830 C   0  0  0  0  0  0  0  0  0  0  0  0
    7.1150    4.5710   26.9870 O   0  0  0  0  0  0  0  0  0  0  0  0
    8.4030    1.7570   23.6420 C   0  0  0  0  0  0  0  0  0  0  0  0
    8.3700    0.4600   23.2260 N   0  0  0  0  0  0  0  0  0  0  0  0
    9.6440   -0.0210   23.0310 C   0  0  0  0  0  0  0  0  0  0  0  0
    7.9400   -1.8450   21.3900 C   0  0  0  0  0  0  0  0  0  0  0  0
  1  2  1  0
  2  3  2  0
  2  4  1  0
  4  5  1  0
  5  6  1  0
  6  7  1  0
  7  8  2  0
  8  9  1  0
  9 10  2  0
  6 11  2  0
 10 11  1  0
 11 12  1  0
 12 13  1  1
 13 14  2  0
 14 15  1  0
 15 16  1  0
 15 17  2  0
 17 18  1  0
 18 19  1  0
 19 20  1  0
 20 21  1  0
 21 22  1  0
 22 23  1  0
 23 24  1  0
 23 25  2  0
 19 26  2  0
 26 27  1  0
 13 28  1  0
 18 28  2  0
 27 28  1  0
  4 29  1  0
 12 29  1  0
M  END
