DAR-DIA-2b784ede-48-chloroacetamide
     RDKit          3D

 32 34  0  0  0  0  0  0  0  0999 V2000
    7.3580   -3.9090   20.2290 C   0  0  0  0  0  0  0  0  0  0  0  0
    6.3370   -2.8500   19.9380 C   0  0  0  0  0  0  0  0  0  0  0  0
    5.4380   -3.2040   19.1220 O   0  0  0  0  0  0  0  0  0  0  0  0
    6.4320   -1.5440   20.5470 N   0  0  0  0  0  0  0  0  0  0  0  0
    5.8760   -0.3420   19.9190 C   0  0  0  0  0  0  0  0  0  0  0  0
    5.0450   -0.7650   21.0350 C   0  0  0  0  0  0  0  0  0  0  0  0
    5.8880   -1.8750   21.2990 C   0  0  0  0  0  0  0  0  0  0  0  0
    5.7110   -2.8590   22.3310 C   0  0  0  0  0  0  0  0  0  0  0  0
    6.7280   -3.1020   23.2690 C   0  0  0  0  0  0  0  0  0  0  0  0
    5.3030   -4.2450   21.7850 C   0  0  0  0  0  0  0  0  0  0  0  0
    4.5560   -2.4260   23.2390 C   0  0  0  0  0  0  0  0  0  0  0  0
    6.9500   -1.7370   20.2570 N   0  0  0  0  0  0  0  0  0  0  0  0
    6.9800   -0.6200   19.2070 N   0  0  0  0  0  0  0  0  0  0  0  0
    7.2920   -1.1940   21.7610 C   0  0  1  0  0  0  0  0  0  0  0  0
    8.6460   -1.7050   21.8250 C   0  0  0  0  0  0  0  0  0  0  0  0
    8.8330   -2.8940   22.0390 O   0  0  0  0  0  0  0  0  0  0  0  0
    9.6560   -0.8820   21.6840 N   0  0  0  0  0  0  0  0  0  0  0  0
   10.5050   -0.9210   22.7410 C   0  0  0  0  0  0  0  0  0  0  0  0
   10.0560   -0.5950   24.0610 C   0  0  0  0  0  0  0  0  0  0  0  0
    8.7290   -0.2560   24.1730 C   0  0  0  0  0  0  0  0  0  0  0  0
   11.0120   -0.6280   25.2480 C   0  0  0  0  0  0  0  0  0  0  0  0
   12.3580   -0.9860   25.0460 C   0  0  0  0  0  0  0  0  0  0  0  0
   12.8400   -1.3060   23.8420 C   0  0  0  0  0  0  0  0  0  0  0  0
   11.8730   -1.2520   22.7520 C   0  0  0  0  0  0  0  0  0  0  0  0
   12.9190   -1.6740   21.7200 C   0  0  0  0  0  0  0  0  0  0  0  0
   12.3540   -2.4140   20.6660 O   0  0  0  0  0  0  0  0  0  0  0  0
    7.1800    0.1840   22.1060 C   0  0  0  0  0  0  0  0  0  0  0  0
    7.7170    1.3050   21.1890 C   0  0  0  0  0  0  0  0  0  0  0  0
    7.5290    2.7370   21.7000 C   0  0  0  0  0  0  0  0  0  0  0  0
    6.8500    2.9740   23.0220 C   0  0  0  0  0  0  0  0  0  0  0  0
    6.3990    1.9670   23.7720 N   0  0  0  0  0  0  0  0  0  0  0  0
    6.5620    0.6810   23.3290 C   0  0  0  0  0  0  0  0  0  0  0  0
  1  2  1  0
  2  3  2  0
  2  4  1  0
  4  5  1  0
  5  6  2  0
  6  7  1  0
  7  8  1  0
  8  9  1  0
  8 10  1  0
  8 11  1  0
  7 12  2  0
  5 13  1  0
 12 13  1  0
  4 14  1  0
 14 15  1  6
 15 16  2  0
 15 17  1  0
 17 18  1  0
 18 19  2  0
 19 20  1  0
 19 21  1  0
 21 22  2  0
 22 23  1  0
 18 24  1  0
 23 24  2  0
 24 25  1  0
 25 26  1  0
 14 27  1  0
 27 28  2  0
 28 29  1  0
 29 30  2  0
 30 31  1  0
 27 32  1  0
 31 32  2  0
M  END
