DAR-DIA-23aa0b97-10-chloroacetamide
     RDKit          3D

 22 24  0  0  0  0  0  0  0  0999 V2000
    7.8780   -4.1330   20.5300 C   0  0  0  0  0  0  0  0  0  0  0  0
    6.6660   -3.2400   20.6890 C   0  0  0  0  0  0  0  0  0  0  0  0
    6.1140   -4.1260   19.9010 O   0  0  0  0  0  0  0  0  0  0  0  0
    7.7480   -2.5270   21.5310 C   0  0  0  0  0  0  0  0  0  0  0  0
    7.5290   -3.7980   22.1290 C   0  0  0  0  0  0  0  0  0  0  0  0
    7.6260   -2.7070   23.0200 N   0  0  0  0  0  0  0  0  0  0  0  0
    8.1860   -1.4050   22.9570 C   0  0  0  0  0  0  0  0  0  0  0  0
    9.5640   -1.3770   22.6210 C   0  0  0  0  0  0  0  0  0  0  0  0
    9.5850   -0.0020   22.6090 N   0  0  0  0  0  0  0  0  0  0  0  0
    8.7540    0.7310   21.7530 C   0  0  0  0  0  0  0  0  0  0  0  0
    9.0420    1.8580   21.3400 O   0  0  0  0  0  0  0  0  0  0  0  0
    7.6330    0.0160   21.4930 N   0  0  0  0  0  0  0  0  0  0  0  0
    6.9440    0.3460   20.3350 C   0  0  0  0  0  0  0  0  0  0  0  0
    7.2040   -0.1990   19.0700 C   0  0  0  0  0  0  0  0  0  0  0  0
    6.3740    0.3320   18.1910 N   0  0  0  0  0  0  0  0  0  0  0  0
    5.5180    1.2090   18.6990 C   0  0  0  0  0  0  0  0  0  0  0  0
    4.5650    1.9090   18.1010 N   0  0  0  0  0  0  0  0  0  0  0  0
    3.8170    2.7510   18.8790 C   0  0  0  0  0  0  0  0  0  0  0  0
    3.9880    2.9260   20.2600 C   0  0  0  0  0  0  0  0  0  0  0  0
    4.9770    2.2120   20.9170 C   0  0  0  0  0  0  0  0  0  0  0  0
    5.8650    1.2550   20.1690 C   0  0  0  0  0  0  0  0  0  0  0  0
    8.9800   -2.5860   22.4930 C   0  0  0  0  0  0  0  0  0  0  0  0
  1  2  1  0
  2  3  2  0
  2  4  1  0
  4  5  2  0
  5  6  1  0
  6  7  2  0
  7  8  1  0
  8  9  1  0
  9 10  1  0
 10 11  2  0
 10 12  1  0
 12 13  1  0
 13 14  2  0
 14 15  1  0
 15 16  1  0
 16 17  1  0
 17 18  2  0
 18 19  1  0
 19 20  2  0
 13 21  1  0
 16 21  2  0
 20 21  1  0
  4 22  1  0
  8 22  2  0
M  END
