DAR-DIA-2b784ede-49-nitrile
     RDKit          3D

 33 35  0  0  0  0  0  0  0  0999 V2000
    6.9570   -3.2070   19.3170 C   0  0  0  0  0  0  0  0  0  0  0  0
    6.2940   -3.0600   18.2470 N   0  0  0  0  0  0  0  0  0  0  0  0
    6.8520   -2.1780   20.2560 N   0  0  0  0  0  0  0  0  0  0  0  0
    5.6080   -1.4130   20.3200 C   0  0  0  0  0  0  0  0  0  0  0  0
    4.6990   -0.2240   20.1500 C   0  0  0  0  0  0  0  0  0  0  0  0
    5.1570    0.9840   19.6010 C   0  0  0  0  0  0  0  0  0  0  0  0
    4.3020    2.2050   19.4540 C   0  0  0  0  0  0  0  0  0  0  0  0
    4.2760    2.7950   18.0860 C   0  0  0  0  0  0  0  0  0  0  0  0
    2.8430    1.8970   19.8340 C   0  0  0  0  0  0  0  0  0  0  0  0
    4.7740    3.2450   20.4890 C   0  0  0  0  0  0  0  0  0  0  0  0
    6.3830    0.7760   19.2950 N   0  0  0  0  0  0  0  0  0  0  0  0
    6.5790   -0.5290   19.7060 N   0  0  0  0  0  0  0  0  0  0  0  0
    7.6790   -1.8810   21.5040 C   0  0  1  0  0  0  0  0  0  0  0  0
    8.7200   -2.7400   21.8770 C   0  0  0  0  0  0  0  0  0  0  0  0
    8.4260   -3.8050   22.4190 O   0  0  0  0  0  0  0  0  0  0  0  0
   10.0680   -2.5020   21.7690 N   0  0  0  0  0  0  0  0  0  0  0  0
   10.8720   -1.8330   22.7040 C   0  0  0  0  0  0  0  0  0  0  0  0
   12.2190   -1.5160   22.4200 C   0  0  0  0  0  0  0  0  0  0  0  0
   12.8490   -1.8620   21.2450 C   0  0  0  0  0  0  0  0  0  0  0  0
   13.5140   -2.8930   21.2140 O   0  0  0  0  0  0  0  0  0  0  0  0
   12.9660   -0.8270   23.3590 C   0  0  0  0  0  0  0  0  0  0  0  0
   12.3330   -0.4500   24.6600 C   0  0  0  0  0  0  0  0  0  0  0  0
   10.9110   -0.8180   24.9260 C   0  0  0  0  0  0  0  0  0  0  0  0
   10.2200   -1.5020   23.9430 C   0  0  0  0  0  0  0  0  0  0  0  0
    8.9060   -1.8700   24.1630 C   0  0  0  0  0  0  0  0  0  0  0  0
    8.7870   -3.2060   24.9530 C   0  0  0  0  0  0  0  0  0  0  0  0
    8.2540   -0.7760   25.0150 C   0  0  0  0  0  0  0  0  0  0  0  0
    7.8650   -0.3740   21.7720 C   0  0  0  0  0  0  0  0  0  0  0  0
    6.7090    0.5840   21.9280 C   0  0  0  0  0  0  0  0  0  0  0  0
    6.9720    1.9330   22.1680 C   0  0  0  0  0  0  0  0  0  0  0  0
    8.2950    2.3660   22.2650 C   0  0  0  0  0  0  0  0  0  0  0  0
    9.3660    1.5470   22.1390 N   0  0  0  0  0  0  0  0  0  0  0  0
    9.1350    0.2180   21.8950 C   0  0  0  0  0  0  0  0  0  0  0  0
  1  2  2  3
  1  3  1  0
  3  4  1  0
  4  5  2  0
  5  6  1  0
  6  7  1  0
  7  8  1  0
  7  9  1  0
  7 10  1  0
  6 11  2  0
  4 12  1  0
 11 12  1  0
  3 13  1  0
 13 14  1  6
 14 15  2  0
 14 16  1  0
 16 17  1  0
 17 18  2  0
 18 19  1  0
 19 20  1  0
 18 21  1  0
 21 22  2  0
 22 23  1  0
 17 24  1  0
 23 24  2  0
 24 25  1  0
 25 26  1  0
 25 27  1  0
 13 28  1  0
 28 29  2  0
 29 30  1  0
 30 31  2  0
 31 32  1  0
 28 33  1  0
 32 33  2  0
M  END
