DAR-DIA-23aa0b97-19-vinylsulfonamide
     RDKit          3D

 25 27  0  0  0  0  0  0  0  0999 V2000
    4.9720   -4.8100   19.5860 C   0  0  0  0  0  0  0  0  0  0  0  0
    5.0240   -3.4980   20.3380 C   0  0  0  0  0  0  0  0  0  0  0  0
    6.6890   -4.0510   20.7980 S   0  0  0  0  0  0  0  0  0  0  0  0
    5.6040   -5.1300   20.3650 O   0  0  0  0  0  0  0  0  0  0  0  0
    7.7880   -4.2170   19.8220 O   0  0  0  0  0  0  0  0  0  0  0  0
    7.7120   -2.8120   22.2210 C   0  0  0  0  0  0  0  0  0  0  0  0
    8.6020   -1.6400   23.1970 C   0  0  0  0  0  0  0  0  0  0  0  0
    7.9340   -1.2780   22.2030 C   0  0  0  0  0  0  0  0  0  0  0  0
    8.9850   -2.2400   21.7710 C   0  0  0  0  0  0  0  0  0  0  0  0
    8.1910   -1.7140   20.5440 C   0  0  0  0  0  0  0  0  0  0  0  0
    8.7500   -1.1320   19.7770 N   0  0  0  0  0  0  0  0  0  0  0  0
    8.0760   -0.2020   19.6100 C   0  0  0  0  0  0  0  0  0  0  0  0
    8.2720    1.6370   19.7200 O   0  0  0  0  0  0  0  0  0  0  0  0
    6.0440   -0.6080   19.2730 C   0  0  0  0  0  0  0  0  0  0  0  0
    6.4260    0.3580   20.2500 C   0  0  0  0  0  0  0  0  0  0  0  0
    7.2150    0.4440   21.3130 C   0  0  0  0  0  0  0  0  0  0  0  0
    6.2910    1.4710   21.3950 N   0  0  0  0  0  0  0  0  0  0  0  0
    5.6960    1.9180   20.8090 C   0  0  0  0  0  0  0  0  0  0  0  0
    4.8720    2.2860   19.8360 C   0  0  0  0  0  0  0  0  0  0  0  0
    3.6490    3.9050   19.6210 C   0  0  0  0  0  0  0  0  0  0  0  0
    4.6510    2.7230   20.3300 C   0  0  0  0  0  0  0  0  0  0  0  0
    4.8170    1.6840   19.5220 C   0  0  0  0  0  0  0  0  0  0  0  0
    4.8250    0.9050   18.7960 C   0  0  0  0  0  0  0  0  0  0  0  0
    5.5650    1.3700   19.9590 C   0  0  0  0  0  0  0  0  0  0  0  0
    7.3310   -2.3950   21.2610 C   0  0  0  0  0  0  0  0  0  0  0  0
  1  2  1  0
  3  2  1  0
  3  4  2  0
  3  5  2  0
  3  6  1  0
  6  7  2  0
  7  8  1  0
  8  9  2  0
  9 10  1  0
 10 11  1  0
 11 12  1  0
 12 13  2  0
 12 14  1  0
 14 15  1  0
 15 16  2  0
 16 17  1  0
 17 18  2  0
 18 19  1  0
 19 20  1  0
 20 21  2  0
 21 22  1  0
 22 23  2  0
 15 24  1  0
 19 24  2  0
 23 24  1  0
  6 25  1  0
 10 25  2  0
M  END
