DAR-DIA-2b784ede-23-acrylamide
     RDKit          3D

 30 32  0  0  0  0  0  0  0  0999 V2000
    7.5960   -3.1240   18.7880 C   0  0  0  0  0  0  0  0  0  0  0  0
    7.5270   -2.3430   20.0650 C   0  0  0  0  0  0  0  0  0  0  0  0
    6.1920   -2.3860   20.8600 C   0  0  0  0  0  0  0  0  0  0  0  0
    4.9920   -3.0680   20.6210 O   0  0  0  0  0  0  0  0  0  0  0  0
    6.4750   -1.5650   21.9400 N   0  0  0  0  0  0  0  0  0  0  0  0
    7.0340   -0.3640   21.4200 C   0  0  0  0  0  0  0  0  0  0  0  0
    5.9930    0.3770   20.7420 C   0  0  0  0  0  0  0  0  0  0  0  0
    7.0370    1.1970   20.4600 C   0  0  0  0  0  0  0  0  0  0  0  0
    8.4380    1.2500   20.8170 C   0  0  0  0  0  0  0  0  0  0  0  0
    8.9170    0.0620   21.9700 C   0  0  0  0  0  0  0  0  0  0  0  0
    7.8070   -0.2970   22.9660 C   0  0  0  0  0  0  0  0  0  0  0  0
    6.9910   -0.4120   23.8040 N   0  0  0  0  0  0  0  0  0  0  0  0
    9.7250    0.6940   23.2210 C   0  0  0  0  0  0  0  0  0  0  0  0
   11.2170    0.8480   22.9230 C   0  0  0  0  0  0  0  0  0  0  0  0
   11.4010   -0.5190   22.3240 C   0  0  0  0  0  0  0  0  0  0  0  0
   10.1500   -1.0170   21.7640 C   0  0  0  0  0  0  0  0  0  0  0  0
    9.2980    1.2820   21.0370 N   0  0  0  0  0  0  0  0  0  0  0  0
    8.5500    0.0220   21.5620 C   0  0  0  0  0  0  0  0  0  0  0  0
    7.2890   -2.4720   22.7640 C   0  0  1  0  0  0  0  0  0  0  0  0
    6.9130   -2.5050   24.1080 C   0  0  0  0  0  0  0  0  0  0  0  0
    7.4580   -1.8530   24.9970 O   0  0  0  0  0  0  0  0  0  0  0  0
    5.9180   -3.3250   24.5050 N   0  0  0  0  0  0  0  0  0  0  0  0
    4.7480   -2.7550   24.8060 C   0  0  0  0  0  0  0  0  0  0  0  0
    6.8490   -3.7700   22.1470 C   0  0  0  0  0  0  0  0  0  0  0  0
    5.3760   -4.0800   22.0740 C   0  0  0  0  0  0  0  0  0  0  0  0
    4.7720   -5.1630   21.5650 N   0  0  0  0  0  0  0  0  0  0  0  0
    5.6410   -6.0570   21.0770 C   0  0  0  0  0  0  0  0  0  0  0  0
    7.1300   -5.8840   21.0900 C   0  0  0  0  0  0  0  0  0  0  0  0
    7.6980   -4.7190   21.6390 C   0  0  0  0  0  0  0  0  0  0  0  0
    9.1050   -4.6260   21.6230 C   0  0  0  0  0  0  0  0  0  0  0  0
  1  2  1  0
  2  3  1  0
  3  4  2  0
  3  5  1  0
  5  6  1  0
  6  7  2  0
  7  8  1  0
  8  9  2  0
  9 10  1  0
 10 11  1  0
 11 12  3  0
 10 13  1  0
 13 14  1  0
 14 15  1  0
 10 16  1  0
 15 16  1  0
  9 17  1  0
  6 18  1  0
 17 18  2  0
  5 19  1  0
 19 20  1  1
 20 21  2  0
 20 22  1  0
 22 23  1  0
 19 24  1  0
 24 25  2  0
 25 26  1  0
 26 27  2  0
 27 28  1  0
 24 29  1  0
 28 29  2  0
 29 30  1  0
M  END
