DAR-DIA-2b784ede-29-chloroacetamide
     RDKit          3D

 34 36  0  0  0  0  0  0  0  0999 V2000
    6.9660   -3.4190   20.6040 C   0  0  0  0  0  0  0  0  0  0  0  0
    5.7690   -2.4260   20.2420 C   0  0  0  0  0  0  0  0  0  0  0  0
    5.5510   -3.5360   19.5890 O   0  0  0  0  0  0  0  0  0  0  0  0
    6.1790   -1.1590   21.0990 N   0  0  0  0  0  0  0  0  0  0  0  0
    5.4660   -0.0460   20.5750 C   0  0  0  0  0  0  0  0  0  0  0  0
    5.8140    0.7660   19.4640 C   0  0  0  0  0  0  0  0  0  0  0  0
    4.9350    1.7470   19.2320 N   0  0  0  0  0  0  0  0  0  0  0  0
    4.0030    1.5810   20.1890 N   0  0  0  0  0  0  0  0  0  0  0  0
    2.8450    2.4890   20.2860 C   0  0  0  0  0  0  0  0  0  0  0  0
    2.6010    3.1180   18.9580 C   0  0  0  0  0  0  0  0  0  0  0  0
    1.5830    1.7710   20.7870 C   0  0  0  0  0  0  0  0  0  0  0  0
    3.1590    3.5980   21.2180 C   0  0  0  0  0  0  0  0  0  0  0  0
    4.2820    0.5130   21.0060 C   0  0  0  0  0  0  0  0  0  0  0  0
    6.3860   -0.7880   22.6470 C   0  0  1  0  0  0  0  0  0  0  0  0
    7.6060    0.1890   22.9980 C   0  0  0  0  0  0  0  0  0  0  0  0
    8.0200    1.1200   22.2930 O   0  0  0  0  0  0  0  0  0  0  0  0
    8.2270   -0.0240   24.2230 N   0  0  0  0  0  0  0  0  0  0  0  0
    9.4390    0.6980   24.5450 C   0  0  0  0  0  0  0  0  0  0  0  0
   10.5350    0.1640   23.8390 C   0  0  0  0  0  0  0  0  0  0  0  0
   11.5750    0.9890   23.3630 C   0  0  0  0  0  0  0  0  0  0  0  0
   11.5360    2.3420   23.5330 C   0  0  0  0  0  0  0  0  0  0  0  0
   12.6830    0.4770   22.6860 C   0  0  0  0  0  0  0  0  0  0  0  0
   12.7900   -0.9800   22.4070 C   0  0  0  0  0  0  0  0  0  0  0  0
   11.7840   -1.8160   22.8390 C   0  0  0  0  0  0  0  0  0  0  0  0
   10.6250   -1.2350   23.5770 C   0  0  0  0  0  0  0  0  0  0  0  0
    9.6410   -2.3100   23.9550 C   0  0  0  0  0  0  0  0  0  0  0  0
    8.8660   -2.8830   22.8020 C   0  0  0  0  0  0  0  0  0  0  0  0
    5.1360   -0.3450   23.4840 C   0  0  0  0  0  0  0  0  0  0  0  0
    4.2700    0.5840   23.8970 C   0  0  0  0  0  0  0  0  0  0  0  0
    3.4860   -0.0980   24.6780 N   0  0  0  0  0  0  0  0  0  0  0  0
    3.0270    1.0960   24.6970 C   0  0  0  0  0  0  0  0  0  0  0  0
    3.8920    1.8710   23.8320 C   0  0  0  0  0  0  0  0  0  0  0  0
    5.0860    1.0740   23.1400 C   0  0  0  0  0  0  0  0  0  0  0  0
    5.9390    1.8030   22.2920 C   0  0  0  0  0  0  0  0  0  0  0  0
  1  2  1  0
  2  3  2  0
  2  4  1  0
  4  5  1  0
  5  6  1  0
  6  7  2  0
  7  8  1  0
  8  9  1  0
  9 10  1  0
  9 11  1  0
  9 12  1  0
  5 13  2  0
  8 13  1  0
  4 14  1  0
 14 15  1  6
 15 16  2  0
 15 17  1  0
 17 18  1  0
 18 19  1  0
 19 20  2  0
 20 21  1  0
 20 22  1  0
 22 23  2  0
 23 24  1  0
 19 25  1  0
 24 25  2  0
 25 26  1  0
 26 27  1  0
 14 28  1  0
 28 29  2  0
 29 30  1  0
 30 31  2  0
 31 32  1  0
 28 33  1  0
 32 33  2  0
 33 34  1  0
M  END
