DAR-DIA-fb20be43-15-acrylamide
     RDKit          3D

 27 29  0  0  0  0  0  0  0  0999 V2000
    8.1930   -3.5120   19.8260 C   0  0  0  0  0  0  0  0  0  0  0  0
    7.2370   -2.5250   19.2380 C   0  0  0  0  0  0  0  0  0  0  0  0
    5.9030   -2.9600   19.7250 C   0  0  0  0  0  0  0  0  0  0  0  0
    4.9840   -3.1960   20.4950 O   0  0  0  0  0  0  0  0  0  0  0  0
    6.5250   -2.5290   20.9020 N   0  0  0  0  0  0  0  0  0  0  0  0
    7.1750   -1.2220   21.1170 C   0  0  0  0  0  0  0  0  0  0  0  0
    8.5470   -1.3450   21.7990 C   0  0  0  0  0  0  0  0  0  0  0  0
    8.5410   -2.2140   22.9890 N   0  0  0  0  0  0  0  0  0  0  0  0
    9.1820   -1.5990   24.1470 C   0  0  0  0  0  0  0  0  0  0  0  0
   10.2840   -0.7200   23.6510 C   0  0  0  0  0  0  0  0  0  0  0  0
   11.2510   -1.4430   22.9910 C   0  0  0  0  0  0  0  0  0  0  0  0
   12.3330   -0.8490   22.4450 C   0  0  0  0  0  0  0  0  0  0  0  0
   13.3860   -1.8800   21.6410 Cl  0  0  0  0  0  0  0  0  0  0  0  0
   12.5310    0.5210   22.5320 C   0  0  0  0  0  0  0  0  0  0  0  0
   11.5640    1.2860   23.1690 C   0  0  0  0  0  0  0  0  0  0  0  0
   11.5090    2.6790   23.3350 C   0  0  0  0  0  0  0  0  0  0  0  0
   12.4520    3.6010   22.8460 C   0  0  0  0  0  0  0  0  0  0  0  0
   12.3870    4.9300   23.2650 C   0  0  0  0  0  0  0  0  0  0  0  0
   11.2470    5.5880   22.6310 N   0  0  0  0  0  0  0  0  0  0  0  0
   10.2610    6.1790   23.3780 C   0  0  0  0  0  0  0  0  0  0  0  0
    9.1490    6.6140   22.6110 C   0  0  0  0  0  0  0  0  0  0  0  0
   10.3170    6.3290   24.5970 O   0  0  0  0  0  0  0  0  0  0  0  0
   10.3460    2.9170   24.0490 C   0  0  0  0  0  0  0  0  0  0  0  0
    9.7290    1.7050   24.2820 N   0  0  0  0  0  0  0  0  0  0  0  0
   10.4600    0.6800   23.7320 C   0  0  0  0  0  0  0  0  0  0  0  0
    7.2790   -2.8850   23.2860 C   0  0  0  0  0  0  0  0  0  0  0  0
    6.4700   -3.4030   22.0740 C   0  0  0  0  0  0  0  0  0  0  0  0
  1  2  1  0
  2  3  1  0
  3  4  2  0
  3  5  1  0
  5  6  1  0
  6  7  1  0
  7  8  1  0
  8  9  1  0
  9 10  1  0
 10 11  2  0
 11 12  1  0
 12 13  1  0
 12 14  2  0
 14 15  1  0
 15 16  1  0
 16 17  1  0
 17 18  1  0
 18 19  1  0
 19 20  1  0
 20 21  1  0
 20 22  2  0
 16 23  2  0
 23 24  1  0
 10 25  1  0
 15 25  2  0
 24 25  1  0
  8 26  1  0
  5 27  1  0
 26 27  1  0
M  END
