DAR-DIA-2b784ede-15-chloroacetamide
     RDKit          3D

 37 40  0  0  0  0  0  0  0  0999 V2000
    7.2850   -4.4620   20.7550 C   0  0  0  0  0  0  0  0  0  0  0  0
    5.9580   -3.7500   20.6480 C   0  0  0  0  0  0  0  0  0  0  0  0
    5.1170   -4.2710   19.8630 O   0  0  0  0  0  0  0  0  0  0  0  0
    5.6580   -2.4700   21.2350 N   0  0  0  0  0  0  0  0  0  0  0  0
    5.7370   -1.8150   20.0510 C   0  0  0  0  0  0  0  0  0  0  0  0
    4.9460   -0.7700   19.4640 C   0  0  0  0  0  0  0  0  0  0  0  0
    5.4930   -0.5240   18.2250 C   0  0  0  0  0  0  0  0  0  0  0  0
    6.6600   -1.1660   17.5680 C   0  0  0  0  0  0  0  0  0  0  0  0
    7.0980   -0.7610   16.2430 C   0  0  0  0  0  0  0  0  0  0  0  0
    6.7420   -1.7440   15.1560 C   0  0  0  0  0  0  0  0  0  0  0  0
    6.3550   -2.5330   14.4170 N   0  0  0  0  0  0  0  0  0  0  0  0
    8.5140   -1.0360   16.2320 C   0  0  0  0  0  0  0  0  0  0  0  0
    9.2500   -0.0490   15.2390 C   0  0  0  0  0  0  0  0  0  0  0  0
    8.3260    1.0210   15.2720 C   0  0  0  0  0  0  0  0  0  0  0  0
    7.2860    0.7440   16.2910 C   0  0  0  0  0  0  0  0  0  0  0  0
    7.2750   -2.0900   18.2380 C   0  0  0  0  0  0  0  0  0  0  0  0
    6.8290   -2.4030   19.4400 C   0  0  0  0  0  0  0  0  0  0  0  0
    6.5500   -1.7260   22.2460 C   0  0  2  0  0  0  0  0  0  0  0  0
    7.1820   -2.3470   23.3800 C   0  0  0  0  0  0  0  0  0  0  0  0
    6.6050   -2.6310   24.4470 O   0  0  0  0  0  0  0  0  0  0  0  0
    8.5440   -2.6460   23.3430 N   0  0  0  0  0  0  0  0  0  0  0  0
    9.6960   -1.7560   23.3200 C   0  0  0  0  0  0  0  0  0  0  0  0
   10.0580   -2.9880   23.9700 C   0  0  0  0  0  0  0  0  0  0  0  0
    8.9570   -4.0210   24.0620 C   0  0  0  0  0  0  0  0  0  0  0  0
   11.2390   -3.4510   24.5520 C   0  0  0  0  0  0  0  0  0  0  0  0
   12.4310   -2.6280   24.5730 C   0  0  0  0  0  0  0  0  0  0  0  0
   12.2520   -1.4340   23.9920 C   0  0  0  0  0  0  0  0  0  0  0  0
   10.9990   -1.0670   23.4330 C   0  0  0  0  0  0  0  0  0  0  0  0
   11.1050    0.2010   22.9090 C   0  0  0  0  0  0  0  0  0  0  0  0
   12.3800    0.8060   22.8880 C   0  0  0  0  0  0  0  0  0  0  0  0
    6.1220   -0.2660   22.4600 C   0  0  0  0  0  0  0  0  0  0  0  0
    5.1520   -1.0180   22.9250 C   0  0  0  0  0  0  0  0  0  0  0  0
    5.3480   -2.3430   22.8260 N   0  0  0  0  0  0  0  0  0  0  0  0
    6.4750   -3.0520   22.2840 C   0  0  0  0  0  0  0  0  0  0  0  0
    7.4790   -1.8870   21.8030 C   0  0  0  0  0  0  0  0  0  0  0  0
    7.2960   -0.3870   21.8940 C   0  0  0  0  0  0  0  0  0  0  0  0
    8.2720    0.6500   21.4270 C   0  0  0  0  0  0  0  0  0  0  0  0
  1  2  1  0
  2  3  2  0
  2  4  1  0
  4  5  1  0
  5  6  2  0
  6  7  1  0
  7  8  2  0
  8  9  1  0
  9 10  1  0
 10 11  3  0
  9 12  1  0
 12 13  1  0
 13 14  1  0
  9 15  1  0
 14 15  1  0
  8 16  1  0
  5 17  1  0
 16 17  2  0
  4 18  1  0
 18 19  1  1
 19 20  2  0
 19 21  1  0
 21 22  1  0
 22 23  2  0
 23 24  1  0
 23 25  1  0
 25 26  2  0
 26 27  1  0
 22 28  1  0
 27 28  2  0
 28 29  1  0
 29 30  1  0
 18 31  1  0
 31 32  2  0
 32 33  1  0
 33 34  2  0
 34 35  1  0
 31 36  1  0
 35 36  2  0
 36 37  1  0
M  END
