DAR-DIA-2b784ede-3-acrylamide
     RDKit          3D

 26 27  0  0  0  0  0  0  0  0999 V2000
    6.5590   -3.9230   19.7820 C   0  0  0  0  0  0  0  0  0  0  0  0
    6.9070   -3.2550   21.0980 C   0  0  0  0  0  0  0  0  0  0  0  0
    5.7580   -2.4360   21.6450 C   0  0  0  0  0  0  0  0  0  0  0  0
    5.0540   -3.4980   21.4020 O   0  0  0  0  0  0  0  0  0  0  0  0
    6.8470   -1.4550   21.7660 N   0  0  0  0  0  0  0  0  0  0  0  0
    8.1020   -1.6100   22.5550 C   0  0  0  0  0  0  0  0  0  0  0  0
    9.4850   -1.8350   22.0530 C   0  0  0  0  0  0  0  0  0  0  0  0
   10.8250   -1.9790   22.9310 C   0  0  0  0  0  0  0  0  0  0  0  0
   10.8340   -1.8970   24.3710 C   0  0  0  0  0  0  0  0  0  0  0  0
   12.2070   -2.0880   24.3730 C   0  0  0  0  0  0  0  0  0  0  0  0
   12.7570   -1.0200   23.6570 C   0  0  0  0  0  0  0  0  0  0  0  0
   13.2100    0.0310   22.9400 N   0  0  0  0  0  0  0  0  0  0  0  0
    9.7280   -1.7770   23.7390 C   0  0  0  0  0  0  0  0  0  0  0  0
    8.2760   -1.5630   23.8920 C   0  0  0  0  0  0  0  0  0  0  0  0
    6.8300   -0.1080   21.0630 C   0  0  2  0  0  0  0  0  0  0  0  0
    6.8170    1.0570   22.0430 C   0  0  0  0  0  0  0  0  0  0  0  0
    6.8720    0.9200   23.2670 O   0  0  0  0  0  0  0  0  0  0  0  0
    6.7550    2.3170   21.4600 N   0  0  0  0  0  0  0  0  0  0  0  0
    5.5420    2.7740   20.8170 C   0  0  0  0  0  0  0  0  0  0  0  0
    6.0710    0.0750   19.7170 C   0  0  0  0  0  0  0  0  0  0  0  0
    4.9820    0.2250   18.6690 C   0  0  0  0  0  0  0  0  0  0  0  0
    6.0000    0.3250   17.7820 N   0  0  0  0  0  0  0  0  0  0  0  0
    6.7370    0.1930   18.7350 C   0  0  0  0  0  0  0  0  0  0  0  0
    5.1710    0.1770   18.9630 C   0  0  0  0  0  0  0  0  0  0  0  0
    4.8370    0.0100   20.3620 C   0  0  0  0  0  0  0  0  0  0  0  0
    5.3260   -0.1660   21.7780 C   0  0  0  0  0  0  0  0  0  0  0  0
  1  2  1  0
  2  3  1  0
  3  4  2  0
  3  5  1  0
  5  6  1  0
  6  7  2  0
  7  8  1  0
  8  9  2  0
  9 10  1  0
 10 11  1  0
 11 12  3  0
  9 13  1  0
  6 14  1  0
 13 14  2  0
  5 15  1  0
 15 16  1  1
 16 17  2  0
 16 18  1  0
 18 19  1  0
 15 20  1  0
 20 21  2  0
 21 22  1  0
 22 23  2  0
 23 24  1  0
 20 25  1  0
 24 25  2  0
 25 26  1  0
M  END
