DAR-DIA-eace69ff-24
     RDKit          3D

 22 24  0  0  0  0  0  0  0  0999 V2000
   13.6260   -2.5750   23.5990 C   0  0  0  0  0  0  0  0  0  0  0  0
   13.3170   -1.6920   22.4160 C   0  0  0  0  0  0  0  0  0  0  0  0
   12.4420   -0.5910   22.8310 C   0  0  0  0  0  0  0  0  0  0  0  0
   11.3170   -1.2280   23.3230 C   0  0  0  0  0  0  0  0  0  0  0  0
   10.2150   -0.5950   23.8480 C   0  0  0  0  0  0  0  0  0  0  0  0
    9.0940   -1.2600   24.3420 N   0  0  0  0  0  0  0  0  0  0  0  0
    8.8870   -2.6990   24.5780 C   0  0  0  0  0  0  0  0  0  0  0  0
    8.4400   -3.2680   23.3560 C   0  0  0  0  0  0  0  0  0  0  0  0
    8.0790   -4.6480   23.4070 C   0  0  0  0  0  0  0  0  0  0  0  0
    9.0840   -5.4830   24.1320 C   0  0  0  0  0  0  0  0  0  0  0  0
    9.8900   -4.4780   24.7680 C   0  0  0  0  0  0  0  0  0  0  0  0
   10.0260   -3.3540   25.0380 C   0  0  0  0  0  0  0  0  0  0  0  0
   10.4110    0.9210   23.8000 C   0  0  0  0  0  0  0  0  0  0  0  0
    9.6170    1.9640   24.1940 N   0  0  0  0  0  0  0  0  0  0  0  0
   10.3450    3.1930   23.8760 C   0  0  0  0  0  0  0  0  0  0  0  0
   11.5730    2.9310   23.2930 C   0  0  0  0  0  0  0  0  0  0  0  0
   12.4880    3.8810   22.8600 C   0  0  0  0  0  0  0  0  0  0  0  0
   12.2790    5.1860   23.1390 N   0  0  0  0  0  0  0  0  0  0  0  0
   11.0850    5.6490   22.7560 C   0  0  0  0  0  0  0  0  0  0  0  0
   13.2980    5.9770   22.4670 C   0  0  0  0  0  0  0  0  0  0  0  0
   11.6900    1.5410   23.2240 C   0  0  0  0  0  0  0  0  0  0  0  0
   12.6860    0.7560   22.7590 C   0  0  0  0  0  0  0  0  0  0  0  0
  1  2  1  0
  2  3  1  0
  3  4  2  0
  4  5  1  0
  5  6  1  0
  6  7  1  0
  7  8  1  0
  8  9  1  0
  9 10  1  0
 10 11  1  0
  7 12  1  0
 11 12  1  0
  5 13  2  0
 13 14  1  0
 14 15  1  0
 15 16  2  0
 16 17  1  0
 17 18  1  0
 18 19  1  0
 18 20  1  0
 13 21  1  0
 16 21  1  0
  3 22  1  0
 21 22  2  0
M  END
