DAR-DIA-a80d16a0-9
     RDKit          3D

 20 22  0  0  0  0  0  0  0  0999 V2000
    8.0270   -2.8450   26.1450 C   0  0  0  0  0  0  0  0  0  0  0  0
    8.2500   -2.0160   25.1010 N   0  0  0  0  0  0  0  0  0  0  0  0
    8.9180   -2.6690   24.1090 C   0  0  0  0  0  0  0  0  0  0  0  0
    8.8670   -1.9240   22.9240 C   0  0  0  0  0  0  0  0  0  0  0  0
    9.9800   -0.9920   22.8810 N   0  0  0  0  0  0  0  0  0  0  0  0
   11.2240   -1.3970   22.4250 C   0  0  0  0  0  0  0  0  0  0  0  0
   12.3050   -0.5650   22.5740 C   0  0  0  0  0  0  0  0  0  0  0  0
   13.4890   -1.0070   22.1130 F   0  0  0  0  0  0  0  0  0  0  0  0
   12.1760    0.7110   23.1790 C   0  0  0  0  0  0  0  0  0  0  0  0
   10.7960    1.2100   23.2030 C   0  0  2  0  0  0  0  0  0  0  0  0
   10.2760    2.4010   23.7540 C   0  0  0  0  0  0  0  0  0  0  0  0
   10.9600    3.5920   23.6230 C   0  0  0  0  0  0  0  0  0  0  0  0
   10.7300    4.6380   24.4660 N   0  0  0  0  0  0  0  0  0  0  0  0
   11.4860    5.7000   24.1800 C   0  0  0  0  0  0  0  0  0  0  0  0
   12.3720    5.4030   22.9830 C   0  0  0  0  0  0  0  0  0  0  0  0
   13.3190    6.4420   22.4490 C   0  0  0  0  0  0  0  0  0  0  0  0
   12.1300    3.8260   22.3890 S   0  0  0  0  0  0  0  0  0  0  0  0
    8.7940    2.6080   23.5120 C   0  0  0  0  0  0  0  0  0  0  0  0
    9.1940    2.4030   24.8320 C   0  0  0  0  0  0  0  0  0  0  0  0
    9.9740    0.0930   23.8430 C   0  0  0  0  0  0  0  0  0  0  0  0
  1  2  1  0
  2  3  1  0
  3  4  1  0
  4  5  1  0
  5  6  1  0
  6  7  2  0
  7  8  1  0
  7  9  1  0
  9 10  1  0
 10 11  1  1
 11 12  1  0
 12 13  2  0
 13 14  1  0
 14 15  2  0
 15 16  1  0
 12 17  1  0
 15 17  1  0
 11 18  1  0
 11 19  1  0
 18 19  1  0
  5 20  1  0
 10 20  1  0
M  END
