DAR-DIA-caba39e3-11-vinylsulfonamide
     RDKit          3D

 33 36  0  0  0  0  0  0  0  0999 V2000
    7.1780   -3.0800   18.7570 C   0  0  0  0  0  0  0  0  0  0  0  0
    5.9050   -3.4610   19.3820 C   0  0  0  0  0  0  0  0  0  0  0  0
    5.7220   -2.3930   20.7050 S   0  0  0  0  0  0  0  0  0  0  0  0
    4.6790   -2.9930   21.4220 O   0  0  0  0  0  0  0  0  0  0  0  0
    5.7260   -1.0090   20.2890 O   0  0  0  0  0  0  0  0  0  0  0  0
    7.0260   -2.7120   21.6660 N   0  0  0  0  0  0  0  0  0  0  0  0
    6.5070   -3.4170   22.8560 C   0  0  0  0  0  0  0  0  0  0  0  0
    7.5870   -3.7940   23.8210 C   0  0  0  0  0  0  0  0  0  0  0  0
    7.2880   -4.7170   24.8250 C   0  0  0  0  0  0  0  0  0  0  0  0
    8.2630   -5.0970   25.7380 C   0  0  0  0  0  0  0  0  0  0  0  0
    9.5400   -4.5580   25.6560 C   0  0  0  0  0  0  0  0  0  0  0  0
    9.8480   -3.6330   24.6570 C   0  0  0  0  0  0  0  0  0  0  0  0
    8.8700   -3.2410   23.7290 C   0  0  0  0  0  0  0  0  0  0  0  0
    9.1640   -2.2420   22.6230 C   0  0  2  0  0  0  0  0  0  0  0  0
   10.1650   -1.1710   22.8810 C   0  0  0  0  0  0  0  0  0  0  0  0
   11.4700   -1.2170   22.4690 C   0  0  0  0  0  0  0  0  0  0  0  0
   12.3480   -0.2040   22.7040 C   0  0  0  0  0  0  0  0  0  0  0  0
   13.5420   -0.5360   22.1770 O   0  0  0  0  0  0  0  0  0  0  0  0
   13.3950   -1.6300   21.2820 C   0  0  0  0  0  0  0  0  0  0  0  0
   11.9650    0.9530   23.3780 C   0  0  0  0  0  0  0  0  0  0  0  0
   10.6300    1.1310   23.8650 C   0  0  0  0  0  0  0  0  0  0  0  0
   10.1960    2.3240   24.5560 C   0  0  0  0  0  0  0  0  0  0  0  0
    8.8780    2.4340   25.0270 C   0  0  0  0  0  0  0  0  0  0  0  0
    8.3840    3.6440   25.7570 C   0  0  0  0  0  0  0  0  0  0  0  0
    8.0380    4.7460   24.7900 C   0  0  0  0  0  0  0  0  0  0  0  0
    6.5980    4.9080   24.6310 N   0  0  0  0  0  0  0  0  0  0  0  0
    5.6980    4.2110   25.4060 C   0  0  0  0  0  0  0  0  0  0  0  0
    5.3770    2.8340   24.8890 C   0  0  0  0  0  0  0  0  0  0  0  0
    5.1890    4.6510   26.4340 O   0  0  0  0  0  0  0  0  0  0  0  0
    8.0470    1.3660   24.7850 C   0  0  0  0  0  0  0  0  0  0  0  0
    8.4450    0.2240   24.1100 C   0  0  0  0  0  0  0  0  0  0  0  0
    9.7200    0.0730   23.6360 C   0  0  0  0  0  0  0  0  0  0  0  0
    7.9310   -1.6320   21.9650 C   0  0  0  0  0  0  0  0  0  0  0  0
  1  2  1  0
  3  2  1  0
  3  4  2  0
  3  5  2  0
  3  6  1  0
  6  7  1  0
  7  8  1  0
  8  9  1  0
  9 10  2  0
 10 11  1  0
 11 12  2  0
  8 13  2  0
 12 13  1  0
 13 14  1  0
 14 15  1  1
 15 16  2  0
 16 17  1  0
 17 18  1  0
 18 19  1  0
 17 20  2  0
 20 21  1  0
 21 22  1  0
 22 23  2  0
 23 24  1  0
 24 25  1  0
 25 26  1  0
 26 27  1  0
 27 28  1  0
 27 29  2  0
 23 30  1  0
 30 31  2  0
 15 32  1  0
 21 32  2  0
 31 32  1  0
  6 33  1  0
 14 33  1  0
M  END
