DAR-DIA-2b784ede-53-chloroacetamide
     RDKit          3D

 33 35  0  0  0  0  0  0  0  0999 V2000
    6.8160   -3.6130   20.6520 C   0  0  0  0  0  0  0  0  0  0  0  0
    5.7250   -2.5710   20.1940 C   0  0  0  0  0  0  0  0  0  0  0  0
    5.1350   -3.1380   19.1640 O   0  0  0  0  0  0  0  0  0  0  0  0
    5.3690   -1.1230   20.7870 N   0  0  0  0  0  0  0  0  0  0  0  0
    5.2160   -0.2810   19.6230 C   0  0  0  0  0  0  0  0  0  0  0  0
    4.2900    0.7190   20.0010 C   0  0  0  0  0  0  0  0  0  0  0  0
    4.9360    0.6280   18.5530 C   0  0  0  0  0  0  0  0  0  0  0  0
    5.9090   -0.4190   18.1260 C   0  0  0  0  0  0  0  0  0  0  0  0
    6.5410   -0.6880   17.0730 C   0  0  0  0  0  0  0  0  0  0  0  0
    6.8210   -2.0220   16.7790 C   0  0  0  0  0  0  0  0  0  0  0  0
    7.8200   -0.5290   17.7430 C   0  0  0  0  0  0  0  0  0  0  0  0
    6.5090   -1.4790   18.6910 N   0  0  0  0  0  0  0  0  0  0  0  0
    6.0220   -1.3920   19.7470 C   0  0  0  0  0  0  0  0  0  0  0  0
    6.0710   -0.3900   21.8630 C   0  0  2  0  0  0  0  0  0  0  0  0
    7.4880   -0.6610   22.0970 C   0  0  0  0  0  0  0  0  0  0  0  0
    8.0510   -1.4990   21.4300 O   0  0  0  0  0  0  0  0  0  0  0  0
    8.2500    0.0260   23.0770 N   0  0  0  0  0  0  0  0  0  0  0  0
    9.6730   -0.2200   23.1120 C   0  0  0  0  0  0  0  0  0  0  0  0
   10.5730    0.7830   22.9970 C   0  0  0  0  0  0  0  0  0  0  0  0
   10.1860    2.1210   22.8720 C   0  0  0  0  0  0  0  0  0  0  0  0
   11.2430    2.9490   23.2250 C   0  0  0  0  0  0  0  0  0  0  0  0
   12.0380    0.5880   22.9760 C   0  0  0  0  0  0  0  0  0  0  0  0
   12.7340   -0.8010   23.0830 C   0  0  0  0  0  0  0  0  0  0  0  0
   11.6880   -1.9700   23.2530 C   0  0  0  0  0  0  0  0  0  0  0  0
   10.2200   -1.4800   23.2450 C   0  0  0  0  0  0  0  0  0  0  0  0
    9.5170   -2.8080   23.4250 C   0  0  0  0  0  0  0  0  0  0  0  0
   10.2990   -3.6210   24.1710 O   0  0  0  0  0  0  0  0  0  0  0  0
    5.3190   -0.3870   23.1880 C   0  0  0  0  0  0  0  0  0  0  0  0
    4.1140    0.5400   23.3420 C   0  0  0  0  0  0  0  0  0  0  0  0
    3.4120    0.5320   24.6270 C   0  0  0  0  0  0  0  0  0  0  0  0
    3.9510   -0.3960   25.6760 C   0  0  0  0  0  0  0  0  0  0  0  0
    5.0190   -1.2060   25.5060 N   0  0  0  0  0  0  0  0  0  0  0  0
    5.6640   -1.1840   24.3000 C   0  0  0  0  0  0  0  0  0  0  0  0
  1  2  1  0
  2  3  2  0
  2  4  1  0
  4  5  1  0
  5  6  2  0
  6  7  1  0
  7  8  2  0
  8  9  1  0
  9 10  1  0
  9 11  1  0
  8 12  1  0
  5 13  1  0
 12 13  2  0
  4 14  1  0
 14 15  1  1
 15 16  2  0
 15 17  1  0
 17 18  1  0
 18 19  2  0
 19 20  1  0
 20 21  1  0
 19 22  1  0
 22 23  2  0
 23 24  1  0
 18 25  1  0
 24 25  2  0
 25 26  1  0
 26 27  1  0
 14 28  1  0
 28 29  2  0
 29 30  1  0
 30 31  2  0
 31 32  1  0
 28 33  1  0
 32 33  2  0
M  END
