DAR-DIA-caba39e3-10-vinylsulfonamide
     RDKit          3D

 31 34  0  0  0  0  0  0  0  0999 V2000
    7.4300   -3.3090   18.8000 C   0  0  0  0  0  0  0  0  0  0  0  0
    7.4450   -2.4830   19.9940 C   0  0  0  0  0  0  0  0  0  0  0  0
    6.2840   -3.2250   21.1090 S   0  0  0  0  0  0  0  0  0  0  0  0
    5.0360   -3.3100   20.4070 O   0  0  0  0  0  0  0  0  0  0  0  0
    6.7920   -4.3380   21.8940 O   0  0  0  0  0  0  0  0  0  0  0  0
    6.3210   -2.0280   22.2080 N   0  0  0  0  0  0  0  0  0  0  0  0
    6.0220   -2.6600   23.5150 C   0  0  0  0  0  0  0  0  0  0  0  0
    7.1930   -3.4020   24.1270 C   0  0  0  0  0  0  0  0  0  0  0  0
    6.9540   -4.3340   25.1400 C   0  0  0  0  0  0  0  0  0  0  0  0
    8.0080   -5.0250   25.7350 C   0  0  0  0  0  0  0  0  0  0  0  0
    9.3080   -4.7840   25.3180 C   0  0  0  0  0  0  0  0  0  0  0  0
    9.5560   -3.8590   24.3080 C   0  0  0  0  0  0  0  0  0  0  0  0
    8.5020   -3.1660   23.6990 C   0  0  0  0  0  0  0  0  0  0  0  0
    8.7080   -2.1650   22.5880 C   0  0  2  0  0  0  0  0  0  0  0  0
    9.7990   -1.1940   22.8430 C   0  0  0  0  0  0  0  0  0  0  0  0
   11.0810   -1.3810   22.3660 C   0  0  0  0  0  0  0  0  0  0  0  0
   11.9610   -0.4070   22.6370 C   0  0  0  0  0  0  0  0  0  0  0  0
   13.1970   -0.5180   22.2000 O   0  0  0  0  0  0  0  0  0  0  0  0
   13.5940    0.7300   22.6440 C   0  0  0  0  0  0  0  0  0  0  0  0
   11.6080    0.7290   23.3550 C   0  0  0  0  0  0  0  0  0  0  0  0
   10.3360    1.0130   23.8790 C   0  0  0  0  0  0  0  0  0  0  0  0
   10.0300    2.2240   24.6030 C   0  0  0  0  0  0  0  0  0  0  0  0
    8.7300    2.3330   25.0580 C   0  0  0  0  0  0  0  0  0  0  0  0
    8.3020    3.7930   25.9630 S   0  0  0  0  0  0  0  0  0  0  0  0
    9.4060    4.9240   25.3940 N   0  0  0  0  0  0  0  0  0  0  0  0
    8.6160    3.5930   27.3580 O   0  0  0  0  0  0  0  0  0  0  0  0
    7.0040    4.2510   25.5250 O   0  0  0  0  0  0  0  0  0  0  0  0
    7.6570    1.3350   24.8600 C   0  0  0  0  0  0  0  0  0  0  0  0
    8.0640    0.1410   24.1000 C   0  0  0  0  0  0  0  0  0  0  0  0
    9.4570   -0.0310   23.5840 C   0  0  0  0  0  0  0  0  0  0  0  0
    7.6270   -1.3810   22.0920 C   0  0  0  0  0  0  0  0  0  0  0  0
  1  2  1  0
  3  2  1  0
  3  4  2  0
  3  5  2  0
  3  6  1  0
  6  7  1  0
  7  8  1  0
  8  9  1  0
  9 10  2  0
 10 11  1  0
 11 12  2  0
  8 13  2  0
 12 13  1  0
 13 14  1  0
 14 15  1  1
 15 16  2  0
 16 17  1  0
 17 18  1  0
 18 19  1  0
 17 20  2  0
 20 21  1  0
 21 22  1  0
 22 23  2  0
 23 24  1  0
 24 25  1  0
 24 26  2  0
 24 27  2  0
 23 28  1  0
 28 29  2  0
 15 30  1  0
 21 30  2  0
 29 30  1  0
  6 31  1  0
 14 31  1  0
M  END
