DAR-DIA-2b784ede-27-acrylamide
     RDKit          3D

 36 38  0  0  0  0  0  0  0  0999 V2000
    6.8380   -3.6630   19.9130 C   0  0  0  0  0  0  0  0  0  0  0  0
    6.9260   -3.1760   21.3610 C   0  0  0  0  0  0  0  0  0  0  0  0
    5.6200   -2.4920   21.7540 C   0  0  0  0  0  0  0  0  0  0  0  0
    4.6040   -3.2480   21.8800 O   0  0  0  0  0  0  0  0  0  0  0  0
    5.5450   -1.0620   21.9110 N   0  0  0  0  0  0  0  0  0  0  0  0
    5.2010   -0.3430   20.8350 C   0  0  0  0  0  0  0  0  0  0  0  0
    4.5640    0.3060   20.0130 C   0  0  0  0  0  0  0  0  0  0  0  0
    3.5930    0.7580   19.6870 N   0  0  0  0  0  0  0  0  0  0  0  0
    4.7210    0.9650   18.7870 N   0  0  0  0  0  0  0  0  0  0  0  0
    6.0790    0.7810   18.4680 C   0  0  0  0  0  0  0  0  0  0  0  0
    6.0870    1.3790   17.1760 C   0  0  0  0  0  0  0  0  0  0  0  0
    6.4490   -0.7180   18.4330 C   0  0  0  0  0  0  0  0  0  0  0  0
    6.8510    1.4450   19.5380 C   0  0  0  0  0  0  0  0  0  0  0  0
    7.4050    1.9220   20.4430 N   0  0  0  0  0  0  0  0  0  0  0  0
    5.4620    0.2260   19.7260 C   0  0  0  0  0  0  0  0  0  0  0  0
    6.0020   -0.3520   23.1680 C   0  0  1  0  0  0  0  0  0  0  0  0
    7.3690    0.4470   23.2150 C   0  0  0  0  0  0  0  0  0  0  0  0
    7.6310    1.4160   22.4940 O   0  0  0  0  0  0  0  0  0  0  0  0
    8.2730    0.0260   24.1890 N   0  0  0  0  0  0  0  0  0  0  0  0
    9.5320    0.7010   24.3890 C   0  0  0  0  0  0  0  0  0  0  0  0
   10.5970    0.0560   23.7190 C   0  0  0  0  0  0  0  0  0  0  0  0
   11.7620    0.7800   23.2490 C   0  0  0  0  0  0  0  0  0  0  0  0
   11.8520    2.1610   23.4060 C   0  0  0  0  0  0  0  0  0  0  0  0
   12.8610    0.0730   22.5910 C   0  0  0  0  0  0  0  0  0  0  0  0
   12.5840   -1.2780   22.4870 C   0  0  0  0  0  0  0  0  0  0  0  0
   11.6980   -0.3080   23.1010 C   0  0  0  0  0  0  0  0  0  0  0  0
   10.7240   -1.3400   23.3900 C   0  0  0  0  0  0  0  0  0  0  0  0
    9.4020   -1.7710   23.9530 C   0  0  0  0  0  0  0  0  0  0  0  0
    9.1770   -3.1410   23.7450 C   0  0  0  0  0  0  0  0  0  0  0  0
    4.9490    0.5110   23.7490 C   0  0  0  0  0  0  0  0  0  0  0  0
    4.2540    0.4830   24.7920 C   0  0  0  0  0  0  0  0  0  0  0  0
    3.9390   -0.0780   25.8570 N   0  0  0  0  0  0  0  0  0  0  0  0
    3.1490    1.0230   25.8140 C   0  0  0  0  0  0  0  0  0  0  0  0
    3.3190    1.9700   24.5300 C   0  0  0  0  0  0  0  0  0  0  0  0
    4.2820    1.6840   23.4340 C   0  0  0  0  0  0  0  0  0  0  0  0
    4.4580    2.5570   22.2170 C   0  0  0  0  0  0  0  0  0  0  0  0
  1  2  1  0
  2  3  1  0
  3  4  2  0
  3  5  1  0
  5  6  1  0
  6  7  1  0
  7  8  2  0
  8  9  1  0
  9 10  1  0
 10 11  1  0
 10 12  1  0
 10 13  1  0
 13 14  3  0
  6 15  2  0
  9 15  1  0
  5 16  1  0
 16 17  1  6
 17 18  2  0
 17 19  1  0
 19 20  1  0
 20 21  1  0
 21 22  2  0
 22 23  1  0
 22 24  1  0
 24 25  2  0
 25 26  1  0
 21 27  1  0
 26 27  2  0
 27 28  1  0
 28 29  1  0
 16 30  1  0
 30 31  2  0
 31 32  1  0
 32 33  2  0
 33 34  1  0
 30 35  1  0
 34 35  2  0
 35 36  1  0
M  END
