DAR-DIA-fb20be43-7-vinylsulfonamide
     RDKit          3D

 24 26  0  0  0  0  0  0  0  0999 V2000
    7.8720   -3.8040   19.9940 C   0  0  0  0  0  0  0  0  0  0  0  0
    7.3340   -2.7660   19.0330 C   0  0  0  0  0  0  0  0  0  0  0  0
    5.8120   -2.3890   19.7900 S   0  0  0  0  0  0  0  0  0  0  0  0
    5.0740   -3.5890   20.0470 O   0  0  0  0  0  0  0  0  0  0  0  0
    5.2570   -1.3330   19.0210 O   0  0  0  0  0  0  0  0  0  0  0  0
    6.3940   -1.8060   21.2660 N   0  0  0  0  0  0  0  0  0  0  0  0
    6.2870   -2.7430   22.4110 C   0  0  0  0  0  0  0  0  0  0  0  0
    7.6170   -3.1290   23.1000 C   0  0  0  0  0  0  0  0  0  0  0  0
    8.5250   -1.9770   23.1460 N   0  0  0  0  0  0  0  0  0  0  0  0
    9.7170   -2.2050   23.9840 C   0  0  0  0  0  0  0  0  0  0  0  0
   10.7000   -1.2900   23.6650 C   0  0  0  0  0  0  0  0  0  0  0  0
   11.8500   -1.6870   23.0520 C   0  0  0  0  0  0  0  0  0  0  0  0
   12.8620   -0.8510   22.6830 C   0  0  0  0  0  0  0  0  0  0  0  0
   13.8390   -1.4950   22.1060 O   0  0  0  0  0  0  0  0  0  0  0  0
   13.4510   -1.9070   20.8810 C   0  0  0  0  0  0  0  0  0  0  0  0
   12.7610    0.5070   22.9200 C   0  0  0  0  0  0  0  0  0  0  0  0
   11.6030    0.9780   23.5390 C   0  0  0  0  0  0  0  0  0  0  0  0
   11.4470    2.3570   23.7760 C   0  0  0  0  0  0  0  0  0  0  0  0
   10.3280    2.8950   24.3950 C   0  0  0  0  0  0  0  0  0  0  0  0
    9.2590    1.9710   24.8230 C   0  0  0  0  0  0  0  0  0  0  0  0
    9.4160    0.6160   24.5750 C   0  0  0  0  0  0  0  0  0  0  0  0
   10.5450    0.0820   23.9410 C   0  0  0  0  0  0  0  0  0  0  0  0
    8.8040   -1.4840   21.8100 C   0  0  0  0  0  0  0  0  0  0  0  0
    7.5750   -0.9060   21.1320 C   0  0  0  0  0  0  0  0  0  0  0  0
  1  2  1  0
  3  2  1  0
  3  4  2  0
  3  5  2  0
  3  6  1  0
  6  7  1  0
  7  8  1  0
  8  9  1  0
  9 10  1  0
 10 11  1  0
 11 12  2  0
 12 13  1  0
 13 14  1  0
 14 15  1  0
 13 16  2  0
 16 17  1  0
 17 18  1  0
 18 19  2  0
 19 20  1  0
 20 21  2  0
 11 22  1  0
 17 22  2  0
 21 22  1  0
  9 23  1  0
  6 24  1  0
 23 24  1  0
M  END
