DAR-DIA-2b784ede-32-acrylamide
     RDKit          3D

 27 28  0  0  0  0  0  0  0  0999 V2000
    6.6890   -3.3210   19.9840 C   0  0  0  0  0  0  0  0  0  0  0  0
    6.7830   -3.3680   21.5290 C   0  0  0  0  0  0  0  0  0  0  0  0
    5.8350   -2.3960   22.2840 C   0  0  0  0  0  0  0  0  0  0  0  0
    4.8180   -3.0450   21.4860 O   0  0  0  0  0  0  0  0  0  0  0  0
    7.1760   -1.9610   22.9800 N   0  0  0  0  0  0  0  0  0  0  0  0
    7.3100   -2.5750   24.3250 C   0  0  0  0  0  0  0  0  0  0  0  0
    7.1430   -1.8090   25.5060 C   0  0  0  0  0  0  0  0  0  0  0  0
    7.4280   -3.1010   25.1400 C   0  0  0  0  0  0  0  0  0  0  0  0
    7.7520   -4.5660   25.0670 C   0  0  0  0  0  0  0  0  0  0  0  0
    9.0100   -5.0030   25.4980 C   0  0  0  0  0  0  0  0  0  0  0  0
    7.4920   -5.2010   23.6860 C   0  0  0  0  0  0  0  0  0  0  0  0
    6.9040   -5.3670   26.0690 C   0  0  0  0  0  0  0  0  0  0  0  0
    6.0630   -6.0810   27.0340 N   0  0  0  0  0  0  0  0  0  0  0  0
    7.5550   -3.6570   26.0910 O   0  0  0  0  0  0  0  0  0  0  0  0
    7.6310   -4.0330   24.7520 N   0  0  0  0  0  0  0  0  0  0  0  0
    8.0860   -0.7220   23.0280 C   0  0  2  0  0  0  0  0  0  0  0  0
    7.3730    0.3660   22.2090 C   0  0  0  0  0  0  0  0  0  0  0  0
    7.7260    0.5270   20.8740 O   0  0  0  0  0  0  0  0  0  0  0  0
    6.4130    1.1510   22.8250 N   0  0  0  0  0  0  0  0  0  0  0  0
    5.0990    0.7350   23.0890 C   0  0  0  0  0  0  0  0  0  0  0  0
    9.5540   -0.8710   22.8910 C   0  0  0  0  0  0  0  0  0  0  0  0
   10.4710    0.3020   22.9800 C   0  0  0  0  0  0  0  0  0  0  0  0
   11.7140    0.7290   22.9250 N   0  0  0  0  0  0  0  0  0  0  0  0
   12.3540   -0.4560   22.6720 C   0  0  0  0  0  0  0  0  0  0  0  0
   11.7160   -1.7240   22.5520 C   0  0  0  0  0  0  0  0  0  0  0  0
   10.3260   -2.1970   22.6340 C   0  0  0  0  0  0  0  0  0  0  0  0
    9.0240   -2.5130   22.7280 C   0  0  0  0  0  0  0  0  0  0  0  0
  1  2  1  0
  2  3  1  0
  3  4  2  0
  3  5  1  0
  5  6  1  0
  6  7  1  0
  7  8  2  0
  8  9  1  0
  9 10  1  0
  9 11  1  0
  9 12  1  0
 12 13  3  0
  8 14  1  0
  6 15  2  0
 14 15  1  0
  5 16  1  0
 16 17  1  6
 17 18  2  0
 17 19  1  0
 19 20  1  0
 16 21  1  0
 21 22  2  0
 22 23  1  0
 23 24  2  0
 24 25  1  0
 21 26  1  0
 25 26  2  0
 26 27  1  0
M  END
