DAR-DIA-2b784ede-4-vinylsulfonamide
     RDKit          3D

 26 27  0  0  0  0  0  0  0  0999 V2000
    7.2210   -2.7730   19.2260 C   0  0  0  0  0  0  0  0  0  0  0  0
    7.3470   -1.9840   20.4480 C   0  0  0  0  0  0  0  0  0  0  0  0
    6.4870   -2.6250   21.7840 S   0  0  0  0  0  0  0  0  0  0  0  0
    4.9260   -2.9990   21.1690 O   0  0  0  0  0  0  0  0  0  0  0  0
    7.2210   -3.8600   22.1180 O   0  0  0  0  0  0  0  0  0  0  0  0
    7.5520   -1.1930   22.5700 N   0  0  0  0  0  0  0  0  0  0  0  0
    7.5410   -2.4520   23.0580 C   0  0  0  0  0  0  0  0  0  0  0  0
    8.9240   -2.8330   23.5100 C   0  0  0  0  0  0  0  0  0  0  0  0
    9.5610   -1.5710   23.0590 C   0  0  0  0  0  0  0  0  0  0  0  0
    9.1630   -0.1720   22.3700 C   0  0  0  0  0  0  0  0  0  0  0  0
   10.2400    0.5900   22.1800 C   0  0  0  0  0  0  0  0  0  0  0  0
   11.7860   -0.3470   22.0480 Cl  0  0  0  0  0  0  0  0  0  0  0  0
    7.7050    0.0330   22.1250 C   0  0  0  0  0  0  0  0  0  0  0  0
    7.6250   -1.1880   22.5840 C   0  0  0  0  0  0  0  0  0  0  0  0
    6.4210   -0.3310   21.6360 C   0  0  1  0  0  0  0  0  0  0  0  0
    5.1320   -0.3730   22.6460 C   0  0  0  0  0  0  0  0  0  0  0  0
    4.6260   -1.4770   23.1150 O   0  0  0  0  0  0  0  0  0  0  0  0
    4.6130    0.8890   22.9240 N   0  0  0  0  0  0  0  0  0  0  0  0
    3.9810    1.1250   24.2410 C   0  0  0  0  0  0  0  0  0  0  0  0
    6.7220    1.1240   20.8120 C   0  0  0  0  0  0  0  0  0  0  0  0
    6.4120    0.7080   19.5410 C   0  0  0  0  0  0  0  0  0  0  0  0
    6.0740   -0.2890   18.8370 N   0  0  0  0  0  0  0  0  0  0  0  0
    6.0260   -0.9410   20.0590 C   0  0  0  0  0  0  0  0  0  0  0  0
    6.3800   -0.3640   21.4290 C   0  0  0  0  0  0  0  0  0  0  0  0
    6.8580    0.9570   22.0150 C   0  0  0  0  0  0  0  0  0  0  0  0
    7.2730    2.3750   22.0290 C   0  0  0  0  0  0  0  0  0  0  0  0
  1  2  1  0
  2  3  1  0
  3  4  2  0
  3  5  2  0
  3  6  1  0
  6  7  1  0
  7  8  2  0
  8  9  1  0
  9 10  2  0
 10 11  1  0
 11 12  1  0
 10 13  1  0
  7 14  1  0
 13 14  2  0
  6 15  1  0
 15 16  1  1
 16 17  2  0
 16 18  1  0
 18 19  1  0
 15 20  1  0
 20 21  2  0
 21 22  1  0
 22 23  2  0
 23 24  1  0
 20 25  1  0
 24 25  2  0
 25 26  1  0
M  END
