DAR-DIA-fb20be43-11-nitrile
     RDKit          3D

 25 27  0  0  0  0  0  0  0  0999 V2000
    6.8470   -3.4410   19.7920 C   0  0  0  0  0  0  0  0  0  0  0  0
    5.7960   -3.4250   19.0880 N   0  0  0  0  0  0  0  0  0  0  0  0
    6.9650   -2.6780   20.9150 N   0  0  0  0  0  0  0  0  0  0  0  0
    6.5670   -3.2300   22.2130 C   0  0  0  0  0  0  0  0  0  0  0  0
    7.7520   -3.1510   23.1840 C   0  0  0  0  0  0  0  0  0  0  0  0
    8.2970   -1.7890   23.2360 N   0  0  0  0  0  0  0  0  0  0  0  0
    9.3450   -1.6650   24.2450 C   0  0  0  0  0  0  0  0  0  0  0  0
   10.5090   -0.8570   23.7080 C   0  0  0  0  0  0  0  0  0  0  0  0
   11.6220   -1.6440   23.0870 C   0  0  0  0  0  0  0  0  0  0  0  0
   12.7830   -0.8850   22.5310 C   0  0  0  0  0  0  0  0  0  0  0  0
   13.7520   -1.5630   21.9750 F   0  0  0  0  0  0  0  0  0  0  0  0
   12.8040    0.5160   22.6070 C   0  0  0  0  0  0  0  0  0  0  0  0
   11.7520    1.2000   23.1680 C   0  0  0  0  0  0  0  0  0  0  0  0
   11.5650    2.5590   23.2960 C   0  0  0  0  0  0  0  0  0  0  0  0
   12.4500    3.5660   22.8260 C   0  0  0  0  0  0  0  0  0  0  0  0
   12.3200    4.8790   23.3210 C   0  0  0  0  0  0  0  0  0  0  0  0
   11.2340    5.5810   22.6420 N   0  0  0  0  0  0  0  0  0  0  0  0
   10.2290    6.1700   23.3710 C   0  0  0  0  0  0  0  0  0  0  0  0
    9.1660    6.6150   22.5900 C   0  0  0  0  0  0  0  0  0  0  0  0
   10.2480    6.3030   24.5930 O   0  0  0  0  0  0  0  0  0  0  0  0
   10.3550    2.8320   23.9500 C   0  0  0  0  0  0  0  0  0  0  0  0
    9.8100    1.5820   24.1970 N   0  0  0  0  0  0  0  0  0  0  0  0
   10.6390    0.5580   23.7160 C   0  0  0  0  0  0  0  0  0  0  0  0
    8.7340   -1.3760   21.9900 C   0  0  0  0  0  0  0  0  0  0  0  0
    7.6070   -1.3600   20.9450 C   0  0  0  0  0  0  0  0  0  0  0  0
  1  2  2  3
  1  3  1  0
  3  4  1  0
  4  5  1  0
  5  6  1  0
  6  7  1  0
  7  8  1  0
  8  9  2  0
  9 10  1  0
 10 11  1  0
 10 12  2  0
 12 13  1  0
 13 14  1  0
 14 15  1  0
 15 16  1  0
 16 17  1  0
 17 18  1  0
 18 19  1  0
 18 20  2  0
 14 21  2  0
 21 22  1  0
  8 23  1  0
 13 23  2  0
 22 23  1  0
  6 24  1  0
  3 25  1  0
 24 25  1  0
M  END
