DAR-DIA-2b784ede-48-nitrile
     RDKit          3D

 31 33  0  0  0  0  0  0  0  0999 V2000
    6.9480   -3.2510   19.3530 C   0  0  0  0  0  0  0  0  0  0  0  0
    6.2110   -2.9360   18.3610 N   0  0  0  0  0  0  0  0  0  0  0  0
    6.8180   -2.4600   20.4970 N   0  0  0  0  0  0  0  0  0  0  0  0
    5.9770   -1.3450   20.4810 C   0  0  0  0  0  0  0  0  0  0  0  0
    5.2610   -0.0010   20.1590 C   0  0  0  0  0  0  0  0  0  0  0  0
    5.7690    0.7550   19.0730 C   0  0  0  0  0  0  0  0  0  0  0  0
    5.1190    2.0040   18.7610 C   0  0  0  0  0  0  0  0  0  0  0  0
    3.7530    1.8380   18.7380 C   0  0  0  0  0  0  0  0  0  0  0  0
    4.0680    2.6530   19.6400 C   0  0  0  0  0  0  0  0  0  0  0  0
    5.0350    2.2500   17.4070 C   0  0  0  0  0  0  0  0  0  0  0  0
    6.7410    0.1550   18.5460 N   0  0  0  0  0  0  0  0  0  0  0  0
    6.8120   -0.9800   19.3490 N   0  0  0  0  0  0  0  0  0  0  0  0
    7.4910   -2.7390   21.7170 C   0  0  1  0  0  0  0  0  0  0  0  0
    8.8180   -2.2480   21.7970 C   0  0  0  0  0  0  0  0  0  0  0  0
    8.5380   -1.0630   21.9240 O   0  0  0  0  0  0  0  0  0  0  0  0
   10.0050   -2.3470   21.7590 N   0  0  0  0  0  0  0  0  0  0  0  0
   10.8000   -1.7400   22.6620 C   0  0  0  0  0  0  0  0  0  0  0  0
   10.2420   -1.3550   23.8860 C   0  0  0  0  0  0  0  0  0  0  0  0
    8.9230   -1.6800   24.0380 C   0  0  0  0  0  0  0  0  0  0  0  0
   10.9860   -0.7040   24.8550 C   0  0  0  0  0  0  0  0  0  0  0  0
   12.3190   -0.3920   24.7090 C   0  0  0  0  0  0  0  0  0  0  0  0
   12.9120   -0.7600   23.5460 C   0  0  0  0  0  0  0  0  0  0  0  0
   12.1760   -1.4030   22.5980 C   0  0  0  0  0  0  0  0  0  0  0  0
   12.9790   -1.7920   21.3570 C   0  0  0  0  0  0  0  0  0  0  0  0
   13.7240   -0.9140   21.0200 O   0  0  0  0  0  0  0  0  0  0  0  0
    6.5130   -2.6700   22.7200 C   0  0  0  0  0  0  0  0  0  0  0  0
    5.0710   -3.1380   22.3600 C   0  0  0  0  0  0  0  0  0  0  0  0
    4.1240   -3.0180   23.5750 C   0  0  0  0  0  0  0  0  0  0  0  0
    4.6960   -2.4820   24.8860 C   0  0  0  0  0  0  0  0  0  0  0  0
    5.9380   -2.1080   25.0960 N   0  0  0  0  0  0  0  0  0  0  0  0
    6.7780   -2.2100   24.0490 C   0  0  0  0  0  0  0  0  0  0  0  0
  1  2  2  3
  1  3  1  0
  3  4  1  0
  4  5  2  0
  5  6  1  0
  6  7  1  0
  7  8  1  0
  7  9  1  0
  7 10  1  0
  6 11  2  0
  4 12  1  0
 11 12  1  0
  3 13  1  0
 13 14  1  1
 14 15  2  0
 14 16  1  0
 16 17  1  0
 17 18  2  0
 18 19  1  0
 18 20  1  0
 20 21  2  0
 21 22  1  0
 17 23  1  0
 22 23  2  0
 23 24  1  0
 24 25  1  0
 13 26  1  0
 26 27  2  0
 27 28  1  0
 28 29  2  0
 29 30  1  0
 26 31  1  0
 30 31  2  0
M  END
