DAR-DIA-eace69ff-22
     RDKit          3D

 22 24  0  0  0  0  0  0  0  0999 V2000
   10.9770    5.5110   22.7690 C   0  0  0  0  0  0  0  0  0  0  0  0
   12.3240    5.1580   23.1950 N   0  0  0  0  0  0  0  0  0  0  0  0
   13.2110    6.1710   22.6060 C   0  0  0  0  0  0  0  0  0  0  0  0
   12.6280    3.7820   22.8030 C   0  0  0  0  0  0  0  0  0  0  0  0
   11.7290    2.7910   23.2170 C   0  0  0  0  0  0  0  0  0  0  0  0
   10.5250    3.0370   23.8530 C   0  0  0  0  0  0  0  0  0  0  0  0
    9.7610    1.8460   24.1430 N   0  0  0  0  0  0  0  0  0  0  0  0
   10.5970    0.7690   23.6260 C   0  0  0  0  0  0  0  0  0  0  0  0
   10.1890   -0.5660   23.6930 C   0  0  0  0  0  0  0  0  0  0  0  0
    9.0020   -1.0850   24.2070 N   0  0  0  0  0  0  0  0  0  0  0  0
    9.1790   -1.7190   25.5380 C   0  0  0  0  0  0  0  0  0  0  0  0
    8.3680   -1.0000   26.5710 C   0  0  0  0  0  0  0  0  0  0  0  0
    7.1290   -0.8280   25.8610 C   0  0  0  0  0  0  0  0  0  0  0  0
    6.6040   -0.9440   24.8300 C   0  0  0  0  0  0  0  0  0  0  0  0
    6.6980   -1.2820   23.4850 C   0  0  0  0  0  0  0  0  0  0  0  0
    8.0230   -1.6320   23.2120 C   0  0  0  0  0  0  0  0  0  0  0  0
   11.1340   -1.4470   23.1410 C   0  0  0  0  0  0  0  0  0  0  0  0
   12.3210   -1.0460   22.6040 C   0  0  0  0  0  0  0  0  0  0  0  0
   13.2530   -2.0430   22.0310 C   0  0  0  0  0  0  0  0  0  0  0  0
   13.7350   -1.6410   20.8250 F   0  0  0  0  0  0  0  0  0  0  0  0
   12.6930    0.4310   22.5760 C   0  0  0  0  0  0  0  0  0  0  0  0
   11.7780    1.3330   23.0940 C   0  0  0  0  0  0  0  0  0  0  0  0
  1  2  1  0
  2  3  1  0
  2  4  1  0
  4  5  1  0
  5  6  2  0
  6  7  1  0
  7  8  1  0
  8  9  1  0
  9 10  1  0
 10 11  1  0
 11 12  1  0
 12 13  1  0
 13 14  1  0
 14 15  1  0
 10 16  1  0
 15 16  1  0
  9 17  2  0
 17 18  1  0
 18 19  1  0
 19 20  1  0
 18 21  2  0
  5 22  1  0
  8 22  2  0
 21 22  1  0
M  END
