DAR-DIA-2b784ede-22-acrylamide
     RDKit          3D

 30 32  0  0  0  0  0  0  0  0999 V2000
    6.7840   -3.7270   20.1480 C   0  0  0  0  0  0  0  0  0  0  0  0
    6.7060   -3.4220   21.6740 C   0  0  0  0  0  0  0  0  0  0  0  0
    5.8270   -2.2300   22.1230 C   0  0  0  0  0  0  0  0  0  0  0  0
    4.8030   -2.9920   21.4310 O   0  0  0  0  0  0  0  0  0  0  0  0
    7.1870   -1.7730   22.7750 N   0  0  0  0  0  0  0  0  0  0  0  0
    7.3980   -2.5010   24.0250 C   0  0  0  0  0  0  0  0  0  0  0  0
    7.8140   -1.7910   25.0930 C   0  0  0  0  0  0  0  0  0  0  0  0
    8.0250   -2.4460   26.3790 C   0  0  0  0  0  0  0  0  0  0  0  0
    7.8660   -3.8790   26.8080 C   0  0  0  0  0  0  0  0  0  0  0  0
    7.6680   -5.2250   27.0230 C   0  0  0  0  0  0  0  0  0  0  0  0
    8.6750   -6.0390   26.5070 C   0  0  0  0  0  0  0  0  0  0  0  0
    9.5640   -5.4710   25.6190 N   0  0  0  0  0  0  0  0  0  0  0  0
    7.6360   -5.5170   28.5020 C   0  0  0  0  0  0  0  0  0  0  0  0
    6.2750   -5.9300   29.0260 C   0  0  0  0  0  0  0  0  0  0  0  0
    5.5050   -6.2680   27.7610 C   0  0  0  0  0  0  0  0  0  0  0  0
    6.3330   -5.5120   26.7080 C   0  0  0  0  0  0  0  0  0  0  0  0
    7.4420   -4.4360   25.5570 C   0  0  0  0  0  0  0  0  0  0  0  0
    7.2040   -3.8240   24.2010 C   0  0  0  0  0  0  0  0  0  0  0  0
    7.9350   -0.4350   22.8000 C   0  0  1  0  0  0  0  0  0  0  0  0
    7.2220    0.4820   23.6010 C   0  0  0  0  0  0  0  0  0  0  0  0
    6.3500    1.1850   23.0930 O   0  0  0  0  0  0  0  0  0  0  0  0
    7.4840    0.5960   24.8650 N   0  0  0  0  0  0  0  0  0  0  0  0
    8.6250    1.2520   25.2150 C   0  0  0  0  0  0  0  0  0  0  0  0
    9.4160   -0.4750   22.7950 C   0  0  0  0  0  0  0  0  0  0  0  0
    9.9300   -1.7530   22.4710 C   0  0  0  0  0  0  0  0  0  0  0  0
   11.2180   -2.0620   22.3520 N   0  0  0  0  0  0  0  0  0  0  0  0
   12.1160   -1.0060   22.5710 C   0  0  0  0  0  0  0  0  0  0  0  0
   11.5500    0.3360   22.9320 C   0  0  0  0  0  0  0  0  0  0  0  0
   10.1900    0.7640   23.0870 C   0  0  0  0  0  0  0  0  0  0  0  0
   11.1710    1.9130   23.3530 C   0  0  0  0  0  0  0  0  0  0  0  0
  1  2  1  0
  2  3  1  0
  3  4  2  0
  3  5  1  0
  5  6  1  0
  6  7  2  0
  7  8  1  0
  8  9  2  0
  9 10  1  0
 10 11  1  0
 11 12  3  0
 10 13  1  0
 13 14  1  0
 14 15  1  0
 10 16  1  0
 15 16  1  0
  9 17  1  0
  6 18  1  0
 17 18  2  0
  5 19  1  0
 19 20  1  1
 20 21  2  0
 20 22  1  0
 22 23  1  0
 19 24  1  0
 24 25  2  0
 25 26  1  0
 26 27  2  0
 27 28  1  0
 24 29  1  0
 28 29  2  0
 29 30  1  0
M  END
