DAR-DIA-2b784ede-51-vinylsulfonamide
     RDKit          3D

 35 37  0  0  0  0  0  0  0  0999 V2000
    7.7550   -3.8640   20.4580 C   0  0  0  0  0  0  0  0  0  0  0  0
    7.1100   -2.6390   19.8030 C   0  0  0  0  0  0  0  0  0  0  0  0
    5.5840   -2.3380   20.6420 S   0  0  0  0  0  0  0  0  0  0  0  0
    5.1360   -3.5990   21.2070 O   0  0  0  0  0  0  0  0  0  0  0  0
    4.7930   -1.6660   19.6410 O   0  0  0  0  0  0  0  0  0  0  0  0
    5.7990   -1.2260   21.9580 N   0  0  0  0  0  0  0  0  0  0  0  0
    4.4900   -0.8700   22.5350 C   0  0  0  0  0  0  0  0  0  0  0  0
    5.2920   -1.4840   23.5280 C   0  0  0  0  0  0  0  0  0  0  0  0
    6.4350   -1.7000   22.7310 C   0  0  0  0  0  0  0  0  0  0  0  0
    7.7580   -2.3590   23.1970 C   0  0  0  0  0  0  0  0  0  0  0  0
    7.5570   -3.8030   23.6610 C   0  0  0  0  0  0  0  0  0  0  0  0
    8.9060   -2.3750   22.1700 C   0  0  0  0  0  0  0  0  0  0  0  0
    8.2320   -1.5790   24.4280 C   0  0  0  0  0  0  0  0  0  0  0  0
    6.0010   -1.1470   21.4400 N   0  0  0  0  0  0  0  0  0  0  0  0
    4.6420   -0.5480   21.2440 N   0  0  0  0  0  0  0  0  0  0  0  0
    6.6460    0.0130   21.6600 C   0  0  1  0  0  0  0  0  0  0  0  0
    8.0510   -0.1130   21.6590 C   0  0  0  0  0  0  0  0  0  0  0  0
    8.6040   -0.6930   20.7550 O   0  0  0  0  0  0  0  0  0  0  0  0
    8.7980    0.4520   22.7000 N   0  0  0  0  0  0  0  0  0  0  0  0
   10.2000    0.2260   22.8640 C   0  0  0  0  0  0  0  0  0  0  0  0
    9.9880    1.6530   22.7140 C   0  0  0  0  0  0  0  0  0  0  0  0
    8.5130    2.0430   22.5280 C   0  0  0  0  0  0  0  0  0  0  0  0
   10.8680    2.7300   22.7070 C   0  0  0  0  0  0  0  0  0  0  0  0
   12.3030    2.4900   22.8700 C   0  0  0  0  0  0  0  0  0  0  0  0
   12.6350    1.1980   23.0200 C   0  0  0  0  0  0  0  0  0  0  0  0
   11.6770    0.1780   23.0190 C   0  0  0  0  0  0  0  0  0  0  0  0
   12.3760   -1.2040   23.2200 C   0  0  0  0  0  0  0  0  0  0  0  0
   12.5620   -1.9560   21.8620 C   0  0  0  0  0  0  0  0  0  0  0  0
   11.4960   -2.0930   24.1050 C   0  0  0  0  0  0  0  0  0  0  0  0
    6.0150    0.7620   20.4840 C   0  0  0  0  0  0  0  0  0  0  0  0
    6.2640    0.4580   19.1360 C   0  0  0  0  0  0  0  0  0  0  0  0
    5.6260    1.1830   18.1320 C   0  0  0  0  0  0  0  0  0  0  0  0
    4.7510    2.2030   18.4970 C   0  0  0  0  0  0  0  0  0  0  0  0
    4.4890    2.5320   19.7770 N   0  0  0  0  0  0  0  0  0  0  0  0
    5.1200    1.8100   20.7370 C   0  0  0  0  0  0  0  0  0  0  0  0
  1  2  1  0
  2  3  1  0
  3  4  2  0
  3  5  2  0
  3  6  1  0
  6  7  1  0
  7  8  2  0
  8  9  1  0
  9 10  1  0
 10 11  1  0
 10 12  1  0
 10 13  1  0
  9 14  2  0
  7 15  1  0
 14 15  1  0
  6 16  1  0
 16 17  1  6
 17 18  2  0
 17 19  1  0
 19 20  1  0
 20 21  2  0
 21 22  1  0
 21 23  1  0
 23 24  2  0
 24 25  1  0
 20 26  1  0
 25 26  2  0
 26 27  1  0
 27 28  1  0
 27 29  1  0
 16 30  1  0
 30 31  2  0
 31 32  1  0
 32 33  2  0
 33 34  1  0
 30 35  1  0
 34 35  2  0
M  END
