DAR-DIA-2b784ede-26-chloroacetamide
     RDKit          3D

 34 37  0  0  0  0  0  0  0  0999 V2000
    7.5310   -3.4440   20.2940 C   0  0  0  0  0  0  0  0  0  0  0  0
    6.1950   -2.7570   20.5580 C   0  0  0  0  0  0  0  0  0  0  0  0
    5.4170   -3.0940   19.4960 O   0  0  0  0  0  0  0  0  0  0  0  0
    5.9940   -2.0390   21.9420 N   0  0  0  0  0  0  0  0  0  0  0  0
    5.7480   -3.1010   22.9200 C   0  0  2  0  0  0  0  0  0  0  0  0
    5.6000   -2.6520   24.2000 C   0  0  0  0  0  0  0  0  0  0  0  0
    5.9460   -3.6970   25.0010 C   0  0  0  0  0  0  0  0  0  0  0  0
    6.0220   -3.2490   26.4170 C   0  0  0  0  0  0  0  0  0  0  0  0
    4.8690   -3.7790   27.1290 C   0  0  0  0  0  0  0  0  0  0  0  0
    4.2070   -4.6500   26.3240 C   0  0  0  0  0  0  0  0  0  0  0  0
    4.8480   -4.8010   25.0900 C   0  0  0  0  0  0  0  0  0  0  0  0
    7.0110   -4.2940   24.2940 C   0  0  0  0  0  0  0  0  0  0  0  0
    6.6200   -4.1310   22.8690 N   0  0  0  0  0  0  0  0  0  0  0  0
    6.0410   -0.6120   22.5370 C   0  0  1  0  0  0  0  0  0  0  0  0
    7.3730    0.1830   22.9110 C   0  0  0  0  0  0  0  0  0  0  0  0
    7.6620    1.1020   22.1360 O   0  0  0  0  0  0  0  0  0  0  0  0
    8.1150   -0.0290   24.0330 N   0  0  0  0  0  0  0  0  0  0  0  0
    9.2770    0.8620   24.3010 C   0  0  0  0  0  0  0  0  0  0  0  0
   10.4170    0.3170   23.7310 C   0  0  0  0  0  0  0  0  0  0  0  0
   10.5630   -1.1650   23.5730 C   0  0  0  0  0  0  0  0  0  0  0  0
    9.6310   -2.1410   23.9370 C   0  0  0  0  0  0  0  0  0  0  0  0
   11.8240   -1.7200   22.9500 C   0  0  0  0  0  0  0  0  0  0  0  0
   12.8010   -0.8230   22.5550 C   0  0  0  0  0  0  0  0  0  0  0  0
   12.6350    0.5620   22.7140 C   0  0  0  0  0  0  0  0  0  0  0  0
   11.4770    1.1350   23.2690 C   0  0  0  0  0  0  0  0  0  0  0  0
   11.3710    2.6650   23.3450 C   0  0  0  0  0  0  0  0  0  0  0  0
   12.5690    3.4260   22.7810 C   0  0  0  0  0  0  0  0  0  0  0  0
    4.8940    0.2900   22.1320 C   0  0  0  0  0  0  0  0  0  0  0  0
    3.6840    1.2410   21.9240 C   0  0  0  0  0  0  0  0  0  0  0  0
    2.7930    1.9370   22.6570 N   0  0  0  0  0  0  0  0  0  0  0  0
    2.8740    1.8710   23.9390 C   0  0  0  0  0  0  0  0  0  0  0  0
    3.8490    1.1150   24.4820 C   0  0  0  0  0  0  0  0  0  0  0  0
    4.8250    0.3520   23.5900 C   0  0  0  0  0  0  0  0  0  0  0  0
    5.8140   -0.4030   24.4800 C   0  0  0  0  0  0  0  0  0  0  0  0
  1  2  1  0
  2  3  2  0
  2  4  1  0
  5  4  1  6
  5  6  1  0
  7  6  1  0
  7  8  1  0
  8  9  1  0
  9 10  1  0
  7 11  1  0
 10 11  1  0
  7 12  1  0
  5 13  1  0
 12 13  1  0
  4 14  1  0
 14 15  1  6
 15 16  2  0
 15 17  1  0
 17 18  1  0
 18 19  1  0
 19 20  2  0
 20 21  1  0
 20 22  1  0
 22 23  2  0
 23 24  1  0
 19 25  1  0
 24 25  2  0
 25 26  1  0
 26 27  1  0
 14 28  1  0
 28 29  2  0
 29 30  1  0
 30 31  2  0
 31 32  1  0
 28 33  1  0
 32 33  2  0
 33 34  1  0
M  END
