DAR-DIA-2b784ede-20-chloroacetamide
     RDKit          3D

 28 30  0  0  0  0  0  0  0  0999 V2000
    8.0340   -3.9590   20.2330 C   0  0  0  0  0  0  0  0  0  0  0  0
    6.7320   -3.2400   20.1860 C   0  0  0  0  0  0  0  0  0  0  0  0
    5.7850   -3.4470   19.3930 O   0  0  0  0  0  0  0  0  0  0  0  0
    6.7700   -2.3000   21.2140 N   0  0  0  0  0  0  0  0  0  0  0  0
    8.1560   -2.0100   21.3690 C   0  0  0  0  0  0  0  0  0  0  0  0
    7.6440   -0.8390   21.9000 C   0  0  0  0  0  0  0  0  0  0  0  0
    8.6500    0.0420   22.4030 C   0  0  0  0  0  0  0  0  0  0  0  0
   10.1370   -0.2510   22.3630 C   0  0  0  0  0  0  0  0  0  0  0  0
   11.1410    0.6070   22.9500 C   0  0  0  0  0  0  0  0  0  0  0  0
   12.7920    0.2140   22.6520 Cl  0  0  0  0  0  0  0  0  0  0  0  0
   10.7860    1.9390   22.9640 C   0  0  0  0  0  0  0  0  0  0  0  0
    9.8800    2.1730   24.0050 C   0  0  0  0  0  0  0  0  0  0  0  0
    9.8450    0.9040   24.8330 C   0  0  0  0  0  0  0  0  0  0  0  0
   11.0540    0.1920   24.2520 C   0  0  0  0  0  0  0  0  0  0  0  0
   10.4010   -1.4430   21.7390 C   0  0  0  0  0  0  0  0  0  0  0  0
    9.1180   -1.2650   21.7670 N   0  0  0  0  0  0  0  0  0  0  0  0
    6.4090   -2.7350   22.4990 C   0  0  1  0  0  0  0  0  0  0  0  0
    5.5410   -3.8270   22.3150 C   0  0  0  0  0  0  0  0  0  0  0  0
    4.5830   -3.6030   21.5850 O   0  0  0  0  0  0  0  0  0  0  0  0
    5.7780   -5.0600   22.9040 N   0  0  0  0  0  0  0  0  0  0  0  0
    6.1570   -6.2500   22.2510 C   0  0  0  0  0  0  0  0  0  0  0  0
    7.6390   -3.0440   23.4730 C   0  0  0  0  0  0  0  0  0  0  0  0
    7.0620   -1.6900   23.9610 C   0  0  0  0  0  0  0  0  0  0  0  0
    7.7670   -1.2970   24.9740 N   0  0  0  0  0  0  0  0  0  0  0  0
    7.8520   -2.3300   24.2460 C   0  0  0  0  0  0  0  0  0  0  0  0
    7.2970   -3.0380   23.1370 C   0  0  0  0  0  0  0  0  0  0  0  0
    7.5740   -4.1390   22.5480 C   0  0  0  0  0  0  0  0  0  0  0  0
    8.6800   -5.1720   22.8380 C   0  0  0  0  0  0  0  0  0  0  0  0
  1  2  1  0
  2  3  2  0
  2  4  1  0
  4  5  1  0
  5  6  2  0
  6  7  1  0
  7  8  2  0
  8  9  1  0
  9 10  1  0
  9 11  1  0
 11 12  1  0
 12 13  1  0
  9 14  1  0
 13 14  1  0
  8 15  1  0
  5 16  1  0
 15 16  2  0
  4 17  1  0
 17 18  1  6
 18 19  2  0
 18 20  1  0
 20 21  1  0
 17 22  1  0
 22 23  2  0
 23 24  1  0
 24 25  2  0
 25 26  1  0
 22 27  1  0
 26 27  2  0
 27 28  1  0
M  END
