DAR-DIA-0cde14eb-21
     RDKit          3D

 27 30  0  0  0  0  0  0  0  0999 V2000
    4.7950    1.1700   21.6150 C   0  0  0  0  0  0  0  0  0  0  0  0
    5.1500    0.9560   20.1690 C   0  0  0  0  0  0  0  0  0  0  0  0
    4.7010    1.8480   19.1940 C   0  0  0  0  0  0  0  0  0  0  0  0
    5.0660    1.6230   17.8810 C   0  0  0  0  0  0  0  0  0  0  0  0
    5.8320    0.5870   17.4890 N   0  0  0  0  0  0  0  0  0  0  0  0
    6.2420   -0.2580   18.4430 C   0  0  0  0  0  0  0  0  0  0  0  0
    5.9340   -0.1180   19.7660 C   0  0  0  0  0  0  0  0  0  0  0  0
    6.3980   -0.9940   20.7170 N   0  0  0  0  0  0  0  0  0  0  0  0
    7.5880   -0.6430   21.2110 C   0  0  0  0  0  0  0  0  0  0  0  0
    8.1800    0.3780   20.8710 O   0  0  0  0  0  0  0  0  0  0  0  0
    8.0830   -1.4830   22.1310 N   0  0  0  0  0  0  0  0  0  0  0  0
    9.1640   -0.8570   22.6080 C   0  0  0  0  0  0  0  0  0  0  0  0
    9.0220    0.3310   23.5070 C   0  0  0  0  0  0  0  0  0  0  0  0
   10.0370    1.0680   24.0150 C   0  0  0  0  0  0  0  0  0  0  0  0
    9.6160    2.1380   24.8320 N   0  0  0  0  0  0  0  0  0  0  0  0
    9.9800    3.4840   24.3740 C   0  0  0  0  0  0  0  0  0  0  0  0
    9.6750    4.5880   25.2100 C   0  0  0  0  0  0  0  0  0  0  0  0
    8.3460    4.4810   25.9470 C   0  0  0  0  0  0  0  0  0  0  0  0
    8.1100    3.1000   26.5270 C   0  0  0  0  0  0  0  0  0  0  0  0
    8.2810    2.0480   25.4440 C   0  0  0  0  0  0  0  0  0  0  0  0
   11.2950    0.5770   23.5970 C   0  0  0  0  0  0  0  0  0  0  0  0
   11.4320   -0.6690   22.6520 C   0  0  0  0  0  0  0  0  0  0  0  0
   12.7220   -1.1430   22.2310 C   0  0  0  0  0  0  0  0  0  0  0  0
   13.5680   -0.1080   23.2240 Cl  0  0  0  0  0  0  0  0  0  0  0  0
   13.1030   -1.5320   21.0720 C   0  0  0  0  0  0  0  0  0  0  0  0
   13.0140   -2.6770   22.0830 C   0  0  0  0  0  0  0  0  0  0  0  0
   10.3540   -1.3140   22.2150 C   0  0  0  0  0  0  0  0  0  0  0  0
  1  2  1  0
  2  3  2  0
  3  4  1  0
  4  5  2  0
  5  6  1  0
  2  7  1  0
  6  7  2  0
  7  8  1  0
  8  9  1  0
  9 10  2  0
  9 11  1  0
 11 12  1  0
 12 13  2  0
 13 14  1  0
 14 15  1  0
 15 16  1  0
 16 17  1  0
 17 18  1  0
 18 19  1  0
 15 20  1  0
 19 20  1  0
 14 21  2  0
 21 22  1  0
 22 23  1  0
 23 24  1  0
 23 25  1  0
 23 26  1  0
 25 26  1  0
 12 27  1  0
 22 27  2  0
M  END
