DAR-DIA-caba39e3-11-vinylsulfonamide
     RDKit          3D

 33 36  0  0  0  0  0  0  0  0999 V2000
    6.8770   -5.5740   20.2070 C   0  0  0  0  0  0  0  0  0  0  0  0
    6.4930   -4.9400   21.4940 C   0  0  0  0  0  0  0  0  0  0  0  0
    5.4090   -3.6040   21.1940 S   0  0  0  0  0  0  0  0  0  0  0  0
    4.9950   -3.5650   19.8060 O   0  0  0  0  0  0  0  0  0  0  0  0
    4.3390   -3.9070   22.1010 O   0  0  0  0  0  0  0  0  0  0  0  0
    6.2850   -2.3240   21.9120 N   0  0  0  0  0  0  0  0  0  0  0  0
    6.0970   -2.4680   23.3190 C   0  0  0  0  0  0  0  0  0  0  0  0
    7.0340   -3.1810   24.0450 C   0  0  0  0  0  0  0  0  0  0  0  0
    6.7170   -3.9730   25.1290 C   0  0  0  0  0  0  0  0  0  0  0  0
    7.7440   -4.7110   25.9030 C   0  0  0  0  0  0  0  0  0  0  0  0
    9.0610   -4.5690   25.4970 C   0  0  0  0  0  0  0  0  0  0  0  0
    9.4080   -3.7640   24.3900 C   0  0  0  0  0  0  0  0  0  0  0  0
    8.3590   -3.1190   23.7090 C   0  0  0  0  0  0  0  0  0  0  0  0
    8.8170   -2.2990   22.4960 C   0  0  2  0  0  0  0  0  0  0  0  0
    9.9220   -1.2520   22.7700 C   0  0  0  0  0  0  0  0  0  0  0  0
   11.2130   -1.5070   22.3680 C   0  0  0  0  0  0  0  0  0  0  0  0
   12.2950   -0.5480   22.6150 C   0  0  0  0  0  0  0  0  0  0  0  0
   13.5260   -0.8280   22.1970 O   0  0  0  0  0  0  0  0  0  0  0  0
   13.3950   -1.8240   21.1930 C   0  0  0  0  0  0  0  0  0  0  0  0
   12.0030    0.6490   23.2760 C   0  0  0  0  0  0  0  0  0  0  0  0
   10.6930    0.9160   23.6800 C   0  0  0  0  0  0  0  0  0  0  0  0
   10.4010    2.1310   24.3290 C   0  0  0  0  0  0  0  0  0  0  0  0
    8.9760    2.3950   24.7610 C   0  0  0  0  0  0  0  0  0  0  0  0
    8.7290    3.7160   25.4640 C   0  0  0  0  0  0  0  0  0  0  0  0
    7.9290    3.5840   26.7480 C   0  0  0  0  0  0  0  0  0  0  0  0
    7.6040    2.2010   27.0810 N   0  0  0  0  0  0  0  0  0  0  0  0
    8.5070    1.3560   27.8670 C   0  0  0  0  0  0  0  0  0  0  0  0
    9.1050    0.3300   27.1120 C   0  0  0  0  0  0  0  0  0  0  0  0
    8.7590    1.5380   29.2700 O   0  0  0  0  0  0  0  0  0  0  0  0
    7.9690    1.4810   24.5280 C   0  0  0  0  0  0  0  0  0  0  0  0
    8.2430    0.2790   23.8810 C   0  0  0  0  0  0  0  0  0  0  0  0
    9.6410   -0.0330   23.4340 C   0  0  0  0  0  0  0  0  0  0  0  0
    7.6480   -1.8090   21.5630 C   0  0  0  0  0  0  0  0  0  0  0  0
  1  2  1  0
  3  2  1  0
  3  4  2  0
  3  5  2  0
  3  6  1  0
  6  7  1  0
  7  8  1  0
  8  9  1  0
  9 10  2  0
 10 11  1  0
 11 12  2  0
  8 13  2  0
 12 13  1  0
 13 14  1  0
 14 15  1  1
 15 16  2  0
 16 17  1  0
 17 18  1  0
 18 19  1  0
 17 20  2  0
 20 21  1  0
 21 22  1  0
 22 23  2  0
 23 24  1  0
 24 25  1  0
 25 26  1  0
 26 27  1  0
 27 28  1  0
 27 29  2  0
 23 30  1  0
 30 31  2  0
 15 32  1  0
 21 32  2  0
 31 32  1  0
  6 33  1  0
 14 33  1  0
M  END
