DAR-DIA-23aa0b97-8-vinylsulfonamide
     RDKit          3D

 22 23  0  0  0  0  0  0  0  0999 V2000
    8.3030   -3.4890   19.6660 C   0  0  0  0  0  0  0  0  0  0  0  0
    6.9110   -3.8370   20.1350 C   0  0  0  0  0  0  0  0  0  0  0  0
    6.4650   -2.9030   21.5390 S   0  0  0  0  0  0  0  0  0  0  0  0
    5.0330   -3.6250   21.6550 O   0  0  0  0  0  0  0  0  0  0  0  0
    6.5240   -1.5140   21.1500 O   0  0  0  0  0  0  0  0  0  0  0  0
    8.0360   -3.3000   22.5690 C   0  0  0  0  0  0  0  0  0  0  0  0
    9.3140   -3.4080   23.3590 C   0  0  0  0  0  0  0  0  0  0  0  0
    9.1320   -2.1930   22.9800 C   0  0  0  0  0  0  0  0  0  0  0  0
    9.8200   -1.0730   23.1500 C   0  0  0  0  0  0  0  0  0  0  0  0
    8.9060   -0.4560   22.4540 C   0  0  0  0  0  0  0  0  0  0  0  0
    7.7870   -0.2610   21.7260 N   0  0  0  0  0  0  0  0  0  0  0  0
    7.8290    0.6360   20.7250 C   0  0  0  0  0  0  0  0  0  0  0  0
    8.5620    1.6400   20.8390 O   0  0  0  0  0  0  0  0  0  0  0  0
    6.9980    0.2940   19.7120 N   0  0  0  0  0  0  0  0  0  0  0  0
    5.7880    0.9210   19.5550 C   0  0  0  0  0  0  0  0  0  0  0  0
    5.3070    1.3080   18.3800 C   0  0  0  0  0  0  0  0  0  0  0  0
    4.0820    1.9390   18.4600 N   0  0  0  0  0  0  0  0  0  0  0  0
    3.2030    2.2680   19.5080 C   0  0  0  0  0  0  0  0  0  0  0  0
    3.8560    1.7860   20.6600 C   0  0  0  0  0  0  0  0  0  0  0  0
    3.1770    1.9900   21.8600 N   0  0  0  0  0  0  0  0  0  0  0  0
    5.0670    1.1560   20.6790 C   0  0  0  0  0  0  0  0  0  0  0  0
    8.7850   -1.9560   22.7180 C   0  0  0  0  0  0  0  0  0  0  0  0
  1  2  1  0
  3  2  1  0
  3  4  2  0
  3  5  2  0
  3  6  1  0
  6  7  2  0
  7  8  1  0
  8  9  2  0
  9 10  1  0
 10 11  1  0
 11 12  1  0
 12 13  2  0
 12 14  1  0
 14 15  1  0
 15 16  2  0
 16 17  1  0
 17 18  2  0
 18 19  1  0
 19 20  1  0
 15 21  1  0
 19 21  2  0
  6 22  1  0
 10 22  2  0
M  END
