DAR-DIA-23aa0b97-4-vinylsulfonamide
     RDKit          3D

 21 22  0  0  0  0  0  0  0  0999 V2000
    7.0360   -5.1540   20.3520 C   0  0  0  0  0  0  0  0  0  0  0  0
    6.9840   -4.3610   21.6250 C   0  0  0  0  0  0  0  0  0  0  0  0
    6.3710   -2.7630   21.2980 S   0  0  0  0  0  0  0  0  0  0  0  0
    4.8250   -3.1390   21.5410 O   0  0  0  0  0  0  0  0  0  0  0  0
    6.4600   -2.2840   19.9360 O   0  0  0  0  0  0  0  0  0  0  0  0
    7.7450   -1.5610   22.0540 C   0  0  0  0  0  0  0  0  0  0  0  0
    9.0800   -1.2780   22.4460 C   0  0  0  0  0  0  0  0  0  0  0  0
   10.4540   -1.5050   22.6620 C   0  0  0  0  0  0  0  0  0  0  0  0
   10.7020   -0.3850   23.1090 C   0  0  0  0  0  0  0  0  0  0  0  0
    9.3620   -0.8200   22.6440 C   0  0  0  0  0  0  0  0  0  0  0  0
    8.3250    0.0760   22.6650 N   0  0  0  0  0  0  0  0  0  0  0  0
    8.4120    1.0660   21.7220 C   0  0  0  0  0  0  0  0  0  0  0  0
    8.2050    1.6360   20.6570 O   0  0  0  0  0  0  0  0  0  0  0  0
    7.4970    0.0640   21.0500 C   0  0  0  0  0  0  0  0  0  0  0  0
    6.7350    0.4350   19.9630 C   0  0  0  0  0  0  0  0  0  0  0  0
    5.5180    1.2610   20.2320 C   0  0  0  0  0  0  0  0  0  0  0  0
    4.7480    1.6750   19.1550 C   0  0  0  0  0  0  0  0  0  0  0  0
    5.1710    1.2870   17.8930 C   0  0  0  0  0  0  0  0  0  0  0  0
    6.2520    0.5330   17.6180 N   0  0  0  0  0  0  0  0  0  0  0  0
    7.0130    0.1150   18.6420 C   0  0  0  0  0  0  0  0  0  0  0  0
    8.9810   -2.2310   22.0800 C   0  0  0  0  0  0  0  0  0  0  0  0
  1  2  1  0
  3  2  1  0
  3  4  2  0
  3  5  2  0
  3  6  1  0
  6  7  2  0
  7  8  1  0
  8  9  2  0
  9 10  1  0
 10 11  1  0
 11 12  1  0
 12 13  2  0
 12 14  1  0
 14 15  1  0
 15 16  2  0
 16 17  1  0
 17 18  2  0
 18 19  1  0
 15 20  1  0
 19 20  2  0
  6 21  1  0
 10 21  2  0
M  END
