DAR-DIA-2b784ede-34-nitrile
     RDKit          3D

 32 34  0  0  0  0  0  0  0  0999 V2000
    6.6510   -3.0360   19.4320 C   0  0  0  0  0  0  0  0  0  0  0  0
    5.6460   -3.7780   19.5770 N   0  0  0  0  0  0  0  0  0  0  0  0
    6.4790   -2.0020   20.3880 N   0  0  0  0  0  0  0  0  0  0  0  0
    5.7950   -2.5110   21.6120 C   0  0  0  0  0  0  0  0  0  0  0  0
    6.0350   -3.8110   21.9360 C   0  0  0  0  0  0  0  0  0  0  0  0
    5.3110   -4.0370   23.0500 C   0  0  0  0  0  0  0  0  0  0  0  0
    5.2120   -5.2200   23.7810 C   0  0  0  0  0  0  0  0  0  0  0  0
    6.0050   -5.2450   25.0050 C   0  0  0  0  0  0  0  0  0  0  0  0
    5.7700   -6.3220   22.8650 C   0  0  0  0  0  0  0  0  0  0  0  0
    3.6710   -5.7810   24.2670 Cl  0  0  0  0  0  0  0  0  0  0  0  0
    4.6230   -2.9080   23.4310 O   0  0  0  0  0  0  0  0  0  0  0  0
    4.9420   -1.8870   22.4850 N   0  0  0  0  0  0  0  0  0  0  0  0
    6.7010   -0.5490   20.3950 C   0  0  0  0  0  0  0  0  0  0  0  0
    8.0640   -0.1240   20.8670 C   0  0  0  0  0  0  0  0  0  0  0  0
    8.2070    1.0920   20.7460 O   0  0  0  0  0  0  0  0  0  0  0  0
    9.0390   -1.1040   21.4380 N   0  0  0  0  0  0  0  0  0  0  0  0
   10.4920   -1.0170   21.8640 C   0  0  0  0  0  0  0  0  0  0  0  0
    9.9200   -0.9140   23.2740 C   0  0  0  0  0  0  0  0  0  0  0  0
    8.4960   -1.0180   23.7590 C   0  0  0  0  0  0  0  0  0  0  0  0
   10.1440   -0.7340   24.7250 C   0  0  0  0  0  0  0  0  0  0  0  0
   11.4230   -0.5990   25.0050 C   0  0  0  0  0  0  0  0  0  0  0  0
   12.2930   -0.7040   23.8510 C   0  0  0  0  0  0  0  0  0  0  0  0
   11.8540   -0.8990   22.5280 C   0  0  0  0  0  0  0  0  0  0  0  0
   13.0600   -0.9930   21.8230 C   0  0  0  0  0  0  0  0  0  0  0  0
   13.0650   -2.1910   21.1550 C   0  0  0  0  0  0  0  0  0  0  0  0
    5.5670    0.5790   19.9050 C   0  0  0  0  0  0  0  0  0  0  0  0
    5.8330    0.8080   18.5440 C   0  0  0  0  0  0  0  0  0  0  0  0
    6.7760    0.1570   18.0470 N   0  0  0  0  0  0  0  0  0  0  0  0
    7.1830   -0.5530   19.0730 C   0  0  0  0  0  0  0  0  0  0  0  0
    6.6430   -0.5890   20.5630 C   0  0  0  0  0  0  0  0  0  0  0  0
    5.5630    0.1610   21.1530 C   0  0  0  0  0  0  0  0  0  0  0  0
    4.4040    1.1520   21.2350 C   0  0  0  0  0  0  0  0  0  0  0  0
  1  2  2  3
  1  3  1  0
  3  4  1  0
  4  5  1  0
  5  6  2  0
  6  7  1  0
  7  8  1  0
  7  9  1  0
  7 10  1  0
  6 11  1  0
  4 12  2  0
 11 12  1  0
  3 13  1  0
 13 14  1  0
 14 15  2  0
 14 16  1  0
 16 17  1  0
 17 18  2  0
 18 19  1  0
 18 20  1  0
 20 21  2  0
 21 22  1  0
 17 23  1  0
 22 23  2  0
 23 24  1  0
 24 25  1  0
 13 26  1  0
 26 27  2  0
 27 28  1  0
 28 29  2  0
 29 30  1  0
 26 31  1  0
 30 31  2  0
 31 32  1  0
M  END
