DAR-DIA-2b784ede-25-chloroacetamide
     RDKit          3D

 25 27  0  0  0  0  0  0  0  0999 V2000
    7.0580   -4.0670   20.7730 C   0  0  0  0  0  0  0  0  0  0  0  0
    7.4370   -2.9100   19.9220 C   0  0  0  0  0  0  0  0  0  0  0  0
    6.9620   -2.9330   18.7460 O   0  0  0  0  0  0  0  0  0  0  0  0
    8.1910   -1.8270   20.5110 N   0  0  0  0  0  0  0  0  0  0  0  0
    7.2640   -0.6970   20.3740 C   0  0  1  0  0  0  0  0  0  0  0  0
    6.8090    0.1880   21.3780 C   0  0  0  0  0  0  0  0  0  0  0  0
    5.8990    0.9420   20.6510 C   0  0  0  0  0  0  0  0  0  0  0  0
    5.5860    2.3940   20.7740 C   0  0  0  0  0  0  0  0  0  0  0  0
    4.4000    2.6680   19.8610 C   0  0  0  0  0  0  0  0  0  0  0  0
    3.6610    1.3330   19.8560 C   0  0  0  0  0  0  0  0  0  0  0  0
    4.4620    0.4960   20.8670 C   0  0  0  0  0  0  0  0  0  0  0  0
    6.2750    0.5940   19.2010 C   0  0  0  0  0  0  0  0  0  0  0  0
    7.3240    0.1050   19.2830 N   0  0  0  0  0  0  0  0  0  0  0  0
    9.2430   -1.9710   21.7440 C   0  0  1  0  0  0  0  0  0  0  0  0
   10.6900   -2.5650   21.5730 C   0  0  0  0  0  0  0  0  0  0  0  0
   11.5220   -2.2740   22.4380 O   0  0  0  0  0  0  0  0  0  0  0  0
   11.1290   -3.3900   20.5830 N   0  0  0  0  0  0  0  0  0  0  0  0
   12.5580   -3.5580   20.5470 C   0  0  0  0  0  0  0  0  0  0  0  0
    9.7190   -0.8980   22.7190 C   0  0  0  0  0  0  0  0  0  0  0  0
   10.9300   -0.2720   22.4730 C   0  0  0  0  0  0  0  0  0  0  0  0
   11.5690    0.6920   23.1240 N   0  0  0  0  0  0  0  0  0  0  0  0
   10.9310    1.1020   24.1950 C   0  0  0  0  0  0  0  0  0  0  0  0
    9.6230    0.5070   24.6500 C   0  0  0  0  0  0  0  0  0  0  0  0
    9.0530   -0.5080   23.8690 C   0  0  0  0  0  0  0  0  0  0  0  0
    7.7710   -1.1480   24.2820 C   0  0  0  0  0  0  0  0  0  0  0  0
  1  2  1  0
  2  3  2  0
  2  4  1  0
  5  4  1  1
  5  6  1  0
  7  6  1  0
  7  8  1  0
  8  9  1  0
  9 10  1  0
  7 11  1  0
 10 11  1  0
  7 12  1  0
  5 13  1  0
 12 13  1  0
  4 14  1  0
 14 15  1  6
 15 16  2  0
 15 17  1  0
 17 18  1  0
 14 19  1  0
 19 20  2  0
 20 21  1  0
 21 22  2  0
 22 23  1  0
 19 24  1  0
 23 24  2  0
 24 25  1  0
M  END
