DAR-DIA-caba39e3-10-acrylamide
     RDKit          3D

 30 33  0  0  0  0  0  0  0  0999 V2000
    7.3200   -2.8140   18.3450 C   0  0  0  0  0  0  0  0  0  0  0  0
    6.5000   -2.1530   19.3850 C   0  0  0  0  0  0  0  0  0  0  0  0
    6.1020   -3.0770   20.4820 C   0  0  0  0  0  0  0  0  0  0  0  0
    5.2820   -3.9990   20.3360 O   0  0  0  0  0  0  0  0  0  0  0  0
    6.7500   -2.8040   21.6570 N   0  0  0  0  0  0  0  0  0  0  0  0
    6.1920   -3.3420   22.8740 C   0  0  0  0  0  0  0  0  0  0  0  0
    7.1560   -3.7840   23.7810 C   0  0  0  0  0  0  0  0  0  0  0  0
    6.7950   -4.6370   24.8220 C   0  0  0  0  0  0  0  0  0  0  0  0
    7.7280   -5.1050   25.7460 C   0  0  0  0  0  0  0  0  0  0  0  0
    9.0650   -4.7340   25.6710 C   0  0  0  0  0  0  0  0  0  0  0  0
    9.4930   -3.8740   24.6540 C   0  0  0  0  0  0  0  0  0  0  0  0
    8.4850   -3.3820   23.6600 C   0  0  0  0  0  0  0  0  0  0  0  0
    8.9180   -2.4660   22.5420 C   0  0  2  0  0  0  0  0  0  0  0  0
    9.8240   -1.4740   22.8480 C   0  0  0  0  0  0  0  0  0  0  0  0
   11.1200   -1.4660   22.3740 C   0  0  0  0  0  0  0  0  0  0  0  0
   11.9390   -0.4290   22.7120 C   0  0  0  0  0  0  0  0  0  0  0  0
   13.1760   -0.4390   22.2370 O   0  0  0  0  0  0  0  0  0  0  0  0
   13.5750    0.8300   22.6220 C   0  0  0  0  0  0  0  0  0  0  0  0
   11.4890    0.6130   23.5200 C   0  0  0  0  0  0  0  0  0  0  0  0
   10.1720    0.6280   24.0140 C   0  0  0  0  0  0  0  0  0  0  0  0
    9.8300    1.6950   24.7820 C   0  0  0  0  0  0  0  0  0  0  0  0
    8.5110    1.9490   25.4280 C   0  0  0  0  0  0  0  0  0  0  0  0
    8.0980    3.3550   26.4260 S   0  0  0  0  0  0  0  0  0  0  0  0
    8.8820    4.5960   25.6080 N   0  0  0  0  0  0  0  0  0  0  0  0
    8.7110    3.2040   27.7250 O   0  0  0  0  0  0  0  0  0  0  0  0
    6.6860    3.6210   26.2660 O   0  0  0  0  0  0  0  0  0  0  0  0
    7.5530    0.8360   25.1150 C   0  0  0  0  0  0  0  0  0  0  0  0
    7.9820   -0.3230   24.2510 C   0  0  0  0  0  0  0  0  0  0  0  0
    9.3750   -0.4190   23.6710 C   0  0  0  0  0  0  0  0  0  0  0  0
    7.8930   -1.8980   21.7710 C   0  0  0  0  0  0  0  0  0  0  0  0
  1  2  1  0
  2  3  1  0
  3  4  2  0
  3  5  1  0
  5  6  1  0
  6  7  1  0
  7  8  1  0
  8  9  2  0
  9 10  1  0
 10 11  2  0
  7 12  2  0
 11 12  1  0
 12 13  1  0
 13 14  1  1
 14 15  2  0
 15 16  1  0
 16 17  1  0
 17 18  1  0
 16 19  2  0
 19 20  1  0
 20 21  1  0
 21 22  2  0
 22 23  1  0
 23 24  1  0
 23 25  2  0
 23 26  2  0
 22 27  1  0
 27 28  2  0
 14 29  1  0
 20 29  2  0
 28 29  1  0
  5 30  1  0
 13 30  1  0
M  END
