DAR-DIA-2b784ede-21-acrylamide
     RDKit          3D

 29 31  0  0  0  0  0  0  0  0999 V2000
    6.5960   -3.3870   19.5700 C   0  0  0  0  0  0  0  0  0  0  0  0
    6.7050   -2.1130   20.4370 C   0  0  0  0  0  0  0  0  0  0  0  0
    5.9480   -2.2150   21.7540 C   0  0  0  0  0  0  0  0  0  0  0  0
    4.7290   -3.0050   21.6060 O   0  0  0  0  0  0  0  0  0  0  0  0
    6.6960   -1.5020   22.9500 N   0  0  0  0  0  0  0  0  0  0  0  0
    6.7310   -2.2820   24.1840 C   0  0  0  0  0  0  0  0  0  0  0  0
    7.0830   -3.6560   23.9670 C   0  0  0  0  0  0  0  0  0  0  0  0
    7.2080   -4.6290   25.0620 C   0  0  0  0  0  0  0  0  0  0  0  0
    6.8390   -3.4080   25.7260 C   0  0  0  0  0  0  0  0  0  0  0  0
    6.9210   -4.1280   26.8970 C   0  0  0  0  0  0  0  0  0  0  0  0
    7.4140   -3.1060   28.1550 Cl  0  0  0  0  0  0  0  0  0  0  0  0
    5.7440   -4.8050   27.2530 C   0  0  0  0  0  0  0  0  0  0  0  0
    6.1360   -5.8150   28.3000 C   0  0  0  0  0  0  0  0  0  0  0  0
    7.6560   -5.7110   28.2500 C   0  0  0  0  0  0  0  0  0  0  0  0
    7.9300   -5.0880   26.8930 C   0  0  0  0  0  0  0  0  0  0  0  0
    6.5080   -2.4320   26.6390 C   0  0  0  0  0  0  0  0  0  0  0  0
    6.4520   -1.7050   25.4670 C   0  0  0  0  0  0  0  0  0  0  0  0
    7.7300   -0.3540   23.0840 C   0  0  1  0  0  0  0  0  0  0  0  0
    7.3950    0.4980   24.1550 C   0  0  0  0  0  0  0  0  0  0  0  0
    6.7370    1.0470   23.2640 O   0  0  0  0  0  0  0  0  0  0  0  0
    8.2390   -0.3850   24.8060 N   0  0  0  0  0  0  0  0  0  0  0  0
    9.3360   -0.0530   25.6250 C   0  0  0  0  0  0  0  0  0  0  0  0
    9.1710   -0.5600   22.9110 C   0  0  0  0  0  0  0  0  0  0  0  0
   10.0840    0.5540   23.0430 C   0  0  0  0  0  0  0  0  0  0  0  0
   11.4630    0.5960   22.8980 N   0  0  0  0  0  0  0  0  0  0  0  0
   12.1110   -0.5570   22.5810 C   0  0  0  0  0  0  0  0  0  0  0  0
   11.2990   -1.8220   22.4200 C   0  0  0  0  0  0  0  0  0  0  0  0
    9.7920   -1.7520   22.6100 C   0  0  0  0  0  0  0  0  0  0  0  0
    9.1130   -2.9150   22.4520 C   0  0  0  0  0  0  0  0  0  0  0  0
  1  2  1  0
  2  3  1  0
  3  4  2  0
  3  5  1  0
  5  6  1  0
  6  7  2  0
  7  8  1  0
  8  9  2  0
  9 10  1  0
 10 11  1  0
 10 12  1  0
 12 13  1  0
 13 14  1  0
 10 15  1  0
 14 15  1  0
  9 16  1  0
  6 17  1  0
 16 17  2  0
  5 18  1  0
 18 19  1  1
 19 20  2  0
 19 21  1  0
 21 22  1  0
 18 23  1  0
 23 24  2  0
 24 25  1  0
 25 26  2  0
 26 27  1  0
 23 28  1  0
 27 28  2  0
 28 29  1  0
M  END
