DAR-DIA-842b4336-23
     RDKit          3D

 19 21  0  0  0  0  0  0  0  0999 V2000
    4.6400    2.1190   18.1410 C   0  0  0  0  0  0  0  0  0  0  0  0
    5.5120    1.1110   18.6430 N   0  0  0  0  0  0  0  0  0  0  0  0
    5.5280    0.5980   19.9900 C   0  0  0  0  0  0  0  0  0  0  0  0
    6.6370   -0.4320   20.0130 C   0  0  0  0  0  0  0  0  0  0  0  0
    7.0230   -1.1990   21.2110 N   0  0  0  0  0  0  0  0  0  0  0  0
    8.2640   -0.5960   21.6660 C   0  0  0  0  0  0  0  0  0  0  0  0
    8.5990    0.5180   21.2670 O   0  0  0  0  0  0  0  0  0  0  0  0
    9.1870   -1.3180   22.6360 C   0  0  0  0  0  0  0  0  0  0  0  0
   10.2360   -0.4640   22.7320 C   0  0  0  0  0  0  0  0  0  0  0  0
    9.9970    0.7710   22.9860 C   0  0  0  0  0  0  0  0  0  0  0  0
   11.0500    1.5180   22.9730 C   0  0  0  0  0  0  0  0  0  0  0  0
   10.9370    3.0780   23.2240 C   0  0  0  0  0  0  0  0  0  0  0  0
   12.1590    4.0210   23.1620 C   0  0  0  0  0  0  0  0  0  0  0  0
   13.0970    3.2140   22.8840 C   0  0  0  0  0  0  0  0  0  0  0  0
   12.4270    2.0580   22.8450 N   0  0  0  0  0  0  0  0  0  0  0  0
   12.2860    0.7430   22.6850 C   0  0  0  0  0  0  0  0  0  0  0  0
   11.5680   -0.5220   22.5950 N   0  0  0  0  0  0  0  0  0  0  0  0
    7.1040   -0.3900   18.6840 C   0  0  0  0  0  0  0  0  0  0  0  0
    6.4410    0.5250   17.8700 N   0  0  0  0  0  0  0  0  0  0  0  0
  1  2  1  0
  2  3  1  0
  3  4  2  0
  4  5  1  0
  5  6  1  0
  6  7  2  0
  6  8  1  0
  8  9  1  0
  9 10  2  0
 10 11  1  0
 11 12  2  0
 12 13  1  0
 13 14  2  0
 14 15  1  0
 11 16  1  0
 15 16  2  0
  9 17  1  0
 16 17  1  0
  4 18  1  0
  2 19  1  0
 18 19  2  0
M  END
