DAR-DIA-2b784ede-42-nitrile
     RDKit          3D

 32 34  0  0  0  0  0  0  0  0999 V2000
    6.7860   -3.1530   19.4930 C   0  0  0  0  0  0  0  0  0  0  0  0
    5.8350   -3.9650   19.7860 N   0  0  0  0  0  0  0  0  0  0  0  0
    6.9070   -1.9350   20.1920 N   0  0  0  0  0  0  0  0  0  0  0  0
    5.8210   -0.9060   20.3420 C   0  0  0  0  0  0  0  0  0  0  0  0
    4.8600    0.2510   20.1520 C   0  0  0  0  0  0  0  0  0  0  0  0
    4.8120    1.1210   19.0510 C   0  0  0  0  0  0  0  0  0  0  0  0
    3.7810    2.2760   19.1320 C   0  0  0  0  0  0  0  0  0  0  0  0
    2.2860    2.2670   19.4510 C   0  0  0  0  0  0  0  0  0  0  0  0
    4.0510    2.7120   20.5850 C   0  0  0  0  0  0  0  0  0  0  0  0
    4.0030    3.3570   18.0540 C   0  0  0  0  0  0  0  0  0  0  0  0
    4.1100    4.1390   17.1930 N   0  0  0  0  0  0  0  0  0  0  0  0
    5.7370    0.6580   18.2690 N   0  0  0  0  0  0  0  0  0  0  0  0
    6.2560   -0.4330   19.0120 N   0  0  0  0  0  0  0  0  0  0  0  0
    7.5190   -2.1150   21.5590 C   0  0  1  0  0  0  0  0  0  0  0  0
    8.6900   -1.3660   21.7090 C   0  0  0  0  0  0  0  0  0  0  0  0
    8.7430   -0.1680   21.3750 O   0  0  0  0  0  0  0  0  0  0  0  0
    9.7550   -2.0950   22.2800 N   0  0  0  0  0  0  0  0  0  0  0  0
   11.0530   -1.5750   22.4480 C   0  0  0  0  0  0  0  0  0  0  0  0
   10.3900   -1.5730   23.7350 C   0  0  0  0  0  0  0  0  0  0  0  0
    9.1150   -2.0990   23.8350 C   0  0  0  0  0  0  0  0  0  0  0  0
   10.7990   -1.1360   24.9960 C   0  0  0  0  0  0  0  0  0  0  0  0
   12.1320   -0.5800   25.1650 C   0  0  0  0  0  0  0  0  0  0  0  0
   12.8650   -0.5570   23.9620 C   0  0  0  0  0  0  0  0  0  0  0  0
   12.3340   -1.0110   22.8300 C   0  0  0  0  0  0  0  0  0  0  0  0
   13.3090   -0.8610   21.9680 C   0  0  0  0  0  0  0  0  0  0  0  0
   13.2790   -1.6030   20.6870 C   0  0  0  0  0  0  0  0  0  0  0  0
    6.4000   -1.9890   22.5860 C   0  0  0  0  0  0  0  0  0  0  0  0
    5.3400   -3.0770   22.6790 C   0  0  0  0  0  0  0  0  0  0  0  0
    4.2880   -2.8720   23.7090 C   0  0  0  0  0  0  0  0  0  0  0  0
    4.2870   -1.7470   24.5320 C   0  0  0  0  0  0  0  0  0  0  0  0
    5.2420   -0.7870   24.4320 N   0  0  0  0  0  0  0  0  0  0  0  0
    6.2390   -0.9260   23.4940 C   0  0  0  0  0  0  0  0  0  0  0  0
  1  2  2  3
  1  3  1  0
  3  4  1  0
  4  5  2  0
  5  6  1  0
  6  7  1  0
  7  8  1  0
  7  9  1  0
  7 10  1  0
 10 11  3  0
  6 12  2  0
  4 13  1  0
 12 13  1  0
  3 14  1  0
 14 15  1  1
 15 16  2  0
 15 17  1  0
 17 18  1  0
 18 19  2  0
 19 20  1  0
 19 21  1  0
 21 22  2  0
 22 23  1  0
 18 24  1  0
 23 24  2  0
 24 25  1  0
 25 26  1  0
 14 27  1  0
 27 28  2  0
 28 29  1  0
 29 30  2  0
 30 31  1  0
 27 32  1  0
 31 32  2  0
M  END
