DAR-DIA-2b784ede-50-vinylsulfonamide
     RDKit          3D

 36 38  0  0  0  0  0  0  0  0999 V2000
    6.0560   -5.1680   19.9970 C   0  0  0  0  0  0  0  0  0  0  0  0
    6.0180   -3.6790   19.6530 C   0  0  0  0  0  0  0  0  0  0  0  0
    6.0740   -2.9520   21.2200 S   0  0  0  0  0  0  0  0  0  0  0  0
    4.7270   -3.1900   21.6580 O   0  0  0  0  0  0  0  0  0  0  0  0
    7.2150   -3.5410   21.9340 O   0  0  0  0  0  0  0  0  0  0  0  0
    6.3180   -1.2880   20.8290 N   0  0  0  0  0  0  0  0  0  0  0  0
    5.9580   -1.0680   19.4300 C   0  0  0  0  0  0  0  0  0  0  0  0
    4.9610   -0.6910   20.4480 C   0  0  0  0  0  0  0  0  0  0  0  0
    6.1560   -1.2250   21.4500 C   0  0  0  0  0  0  0  0  0  0  0  0
    5.8340   -1.1430   22.9940 C   0  0  0  0  0  0  0  0  0  0  0  0
    4.3500   -0.8600   23.2440 C   0  0  0  0  0  0  0  0  0  0  0  0
    6.5620    0.0320   23.6770 C   0  0  0  0  0  0  0  0  0  0  0  0
    6.1240   -2.4500   23.7770 C   0  0  0  0  0  0  0  0  0  0  0  0
    7.4700   -1.7560   20.9200 N   0  0  0  0  0  0  0  0  0  0  0  0
    7.0560   -1.5370   19.7400 N   0  0  0  0  0  0  0  0  0  0  0  0
    7.6540   -0.6080   21.1780 C   0  0  2  0  0  0  0  0  0  0  0  0
    8.6180   -1.2820   21.9610 C   0  0  0  0  0  0  0  0  0  0  0  0
    8.3170   -2.1300   22.7970 O   0  0  0  0  0  0  0  0  0  0  0  0
    9.9440   -0.9370   21.7320 N   0  0  0  0  0  0  0  0  0  0  0  0
   10.9400   -1.1010   22.7330 C   0  0  0  0  0  0  0  0  0  0  0  0
   10.6060   -0.7440   24.0310 C   0  0  0  0  0  0  0  0  0  0  0  0
    9.2050   -0.1770   24.2750 C   0  0  0  0  0  0  0  0  0  0  0  0
    8.6420   -0.1900   25.7010 C   0  0  0  0  0  0  0  0  0  0  0  0
   11.4660   -0.8660   25.1060 C   0  0  0  0  0  0  0  0  0  0  0  0
   12.7600   -1.3700   24.9680 C   0  0  0  0  0  0  0  0  0  0  0  0
   13.1970   -1.7470   23.7150 C   0  0  0  0  0  0  0  0  0  0  0  0
   12.2480   -1.6010   22.5090 C   0  0  0  0  0  0  0  0  0  0  0  0
   12.8140   -2.0080   21.1230 C   0  0  0  0  0  0  0  0  0  0  0  0
   13.2630   -3.3920   20.7790 C   0  0  0  0  0  0  0  0  0  0  0  0
   12.2840   -3.9730   19.9250 O   0  0  0  0  0  0  0  0  0  0  0  0
    7.5390    0.9030   21.4120 C   0  0  0  0  0  0  0  0  0  0  0  0
    6.3530    1.6420   21.2700 C   0  0  0  0  0  0  0  0  0  0  0  0
    6.3490    3.0170   21.5040 C   0  0  0  0  0  0  0  0  0  0  0  0
    7.5360    3.6350   21.8780 C   0  0  0  0  0  0  0  0  0  0  0  0
    8.6940    2.9660   22.0280 N   0  0  0  0  0  0  0  0  0  0  0  0
    8.6740    1.6290   21.7950 C   0  0  0  0  0  0  0  0  0  0  0  0
  1  2  1  0
  2  3  1  0
  3  4  2  0
  3  5  2  0
  3  6  1  0
  6  7  1  0
  7  8  2  0
  8  9  1  0
  9 10  1  0
 10 11  1  0
 10 12  1  0
 10 13  1  0
  9 14  2  0
  7 15  1  0
 14 15  1  0
  6 16  1  0
 16 17  1  1
 17 18  2  0
 17 19  1  0
 19 20  1  0
 20 21  2  0
 21 22  1  0
 22 23  1  0
 21 24  1  0
 24 25  2  0
 25 26  1  0
 20 27  1  0
 26 27  2  0
 27 28  1  0
 28 29  1  0
 29 30  1  0
 16 31  1  0
 31 32  2  0
 32 33  1  0
 33 34  2  0
 34 35  1  0
 31 36  1  0
 35 36  2  0
M  END
