DAR-DIA-fb20be43-17-nitrile
     RDKit          3D

 27 29  0  0  0  0  0  0  0  0999 V2000
    6.7960   -3.2500   19.3900 C   0  0  0  0  0  0  0  0  0  0  0  0
    5.9150   -3.0690   18.4920 N   0  0  0  0  0  0  0  0  0  0  0  0
    6.6770   -2.7080   20.6290 N   0  0  0  0  0  0  0  0  0  0  0  0
    7.2880   -1.3910   20.8760 C   0  0  0  0  0  0  0  0  0  0  0  0
    8.4180   -1.5530   21.8910 C   0  0  0  0  0  0  0  0  0  0  0  0
    7.9470   -2.2690   23.0850 N   0  0  0  0  0  0  0  0  0  0  0  0
    8.9950   -2.3800   24.0700 C   0  0  0  0  0  0  0  0  0  0  0  0
   10.2130   -1.5150   23.7920 C   0  0  0  0  0  0  0  0  0  0  0  0
   11.1730   -1.9170   22.7250 C   0  0  0  0  0  0  0  0  0  0  0  0
   12.3260   -1.0040   22.5310 C   0  0  0  0  0  0  0  0  0  0  0  0
   13.1870   -1.3720   21.5400 C   0  0  0  0  0  0  0  0  0  0  0  0
   13.8010   -1.6350   20.6430 N   0  0  0  0  0  0  0  0  0  0  0  0
   12.4620    0.1270   23.3130 C   0  0  0  0  0  0  0  0  0  0  0  0
   11.5650    0.4530   24.2710 N   0  0  0  0  0  0  0  0  0  0  0  0
   10.4590   -0.3450   24.5120 C   0  0  0  0  0  0  0  0  0  0  0  0
    9.5990    0.0960   25.5330 C   0  0  0  0  0  0  0  0  0  0  0  0
    9.4580    1.5280   25.7260 N   0  0  0  0  0  0  0  0  0  0  0  0
    9.8810    2.4750   24.8210 C   0  0  0  0  0  0  0  0  0  0  0  0
   10.6540    2.2270   23.9010 O   0  0  0  0  0  0  0  0  0  0  0  0
    9.3970    3.7510   25.0430 N   0  0  0  0  0  0  0  0  0  0  0  0
   10.2270    4.8750   24.6190 C   0  0  0  0  0  0  0  0  0  0  0  0
   10.3120    5.7950   25.6590 C   0  0  0  0  0  0  0  0  0  0  0  0
    9.2300    6.3520   25.8300 O   0  0  0  0  0  0  0  0  0  0  0  0
    8.1160    5.4830   26.1060 C   0  0  0  0  0  0  0  0  0  0  0  0
    8.4820    4.1090   26.1320 C   0  0  0  0  0  0  0  0  0  0  0  0
    7.4440   -3.5100   22.8040 C   0  0  0  0  0  0  0  0  0  0  0  0
    6.2830   -3.4740   21.8080 C   0  0  0  0  0  0  0  0  0  0  0  0
  1  2  2  3
  1  3  1  0
  3  4  1  0
  4  5  1  0
  5  6  1  0
  6  7  1  0
  7  8  1  0
  8  9  2  0
  9 10  1  0
 10 11  1  0
 11 12  3  0
 10 13  2  0
 13 14  1  0
  8 15  1  0
 14 15  2  0
 15 16  1  0
 16 17  1  0
 17 18  1  0
 18 19  2  0
 18 20  1  0
 20 21  1  0
 21 22  1  0
 22 23  1  0
 23 24  1  0
 20 25  1  0
 24 25  1  0
  6 26  1  0
  3 27  1  0
 26 27  1  0
M  END
