DAR-DIA-caba39e3-9-acrylamide
     RDKit          3D

 26 29  0  0  0  0  0  0  0  0999 V2000
    8.1670   -3.5290   19.8450 C   0  0  0  0  0  0  0  0  0  0  0  0
    7.0700   -2.6600   19.3860 C   0  0  0  0  0  0  0  0  0  0  0  0
    6.1500   -2.9420   20.4960 C   0  0  0  0  0  0  0  0  0  0  0  0
    5.1900   -3.6810   20.3340 O   0  0  0  0  0  0  0  0  0  0  0  0
    6.5130   -2.3710   21.7110 N   0  0  0  0  0  0  0  0  0  0  0  0
    6.0520   -3.0920   22.8960 C   0  0  0  0  0  0  0  0  0  0  0  0
    7.0470   -3.5950   23.7500 C   0  0  0  0  0  0  0  0  0  0  0  0
    6.7380   -4.5890   24.6840 C   0  0  0  0  0  0  0  0  0  0  0  0
    7.6980   -5.1190   25.5520 C   0  0  0  0  0  0  0  0  0  0  0  0
    9.0180   -4.6780   25.5270 C   0  0  0  0  0  0  0  0  0  0  0  0
    9.3950   -3.6850   24.6170 C   0  0  0  0  0  0  0  0  0  0  0  0
    8.3510   -3.1220   23.6900 C   0  0  0  0  0  0  0  0  0  0  0  0
    8.7230   -2.0550   22.6990 C   0  0  2  0  0  0  0  0  0  0  0  0
    9.6540   -1.0640   23.0960 C   0  0  0  0  0  0  0  0  0  0  0  0
    9.4190   -0.0260   23.9700 C   0  0  0  0  0  0  0  0  0  0  0  0
   10.4120    0.9050   24.2670 C   0  0  0  0  0  0  0  0  0  0  0  0
   10.0030    1.8740   25.1310 O   0  0  0  0  0  0  0  0  0  0  0  0
    9.8870    3.1770   24.5720 C   0  0  0  0  0  0  0  0  0  0  0  0
   11.6780    0.8010   23.6880 C   0  0  0  0  0  0  0  0  0  0  0  0
   11.9380   -0.2560   22.7870 C   0  0  0  0  0  0  0  0  0  0  0  0
   13.1570   -0.3200   22.2250 C   0  0  0  0  0  0  0  0  0  0  0  0
   13.5000   -1.3780   21.2480 C   0  0  0  0  0  0  0  0  0  0  0  0
   12.4790   -2.3560   20.9510 C   0  0  0  0  0  0  0  0  0  0  0  0
   11.1820   -2.2250   21.6030 C   0  0  0  0  0  0  0  0  0  0  0  0
   10.9080   -1.1370   22.5400 C   0  0  0  0  0  0  0  0  0  0  0  0
    7.6990   -1.5040   21.8830 C   0  0  0  0  0  0  0  0  0  0  0  0
  1  2  1  0
  2  3  1  0
  3  4  2  0
  3  5  1  0
  5  6  1  0
  6  7  1  0
  7  8  1  0
  8  9  2  0
  9 10  1  0
 10 11  2  0
  7 12  2  0
 11 12  1  0
 12 13  1  0
 13 14  1  1
 14 15  2  0
 15 16  1  0
 16 17  1  0
 17 18  1  0
 16 19  2  0
 19 20  1  0
 20 21  1  0
 21 22  2  0
 22 23  1  0
 23 24  2  0
 14 25  1  0
 20 25  2  0
 24 25  1  0
  5 26  1  0
 13 26  1  0
M  END
