DAR-DIA-2b784ede-35-chloroacetamide
     RDKit          3D

 33 35  0  0  0  0  0  0  0  0999 V2000
    7.2590   -2.7010   18.4750 C   0  0  0  0  0  0  0  0  0  0  0  0
    6.1830   -2.5300   19.4960 C   0  0  0  0  0  0  0  0  0  0  0  0
    5.2440   -3.3680   19.3000 O   0  0  0  0  0  0  0  0  0  0  0  0
    6.2960   -1.6170   20.6250 N   0  0  0  0  0  0  0  0  0  0  0  0
    6.8210   -2.3000   21.5860 C   0  0  0  0  0  0  0  0  0  0  0  0
    6.4920   -3.6280   21.7990 C   0  0  0  0  0  0  0  0  0  0  0  0
    7.3630   -3.8780   22.9190 C   0  0  0  0  0  0  0  0  0  0  0  0
    7.4980   -5.1270   23.6140 C   0  0  0  0  0  0  0  0  0  0  0  0
    8.9340   -5.0670   24.0280 C   0  0  0  0  0  0  0  0  0  0  0  0
    7.2450   -6.3260   22.6780 C   0  0  0  0  0  0  0  0  0  0  0  0
    6.4490   -4.9790   24.7210 C   0  0  0  0  0  0  0  0  0  0  0  0
    8.0570   -2.9110   23.3070 O   0  0  0  0  0  0  0  0  0  0  0  0
    7.7980   -1.8010   22.5130 N   0  0  0  0  0  0  0  0  0  0  0  0
    6.8260   -0.2370   20.7830 C   0  0  1  0  0  0  0  0  0  0  0  0
    8.2870    0.0680   21.0910 C   0  0  0  0  0  0  0  0  0  0  0  0
    8.5820    1.2760   20.9510 O   0  0  0  0  0  0  0  0  0  0  0  0
    9.3610   -0.8930   21.5550 N   0  0  0  0  0  0  0  0  0  0  0  0
   10.3250   -0.7980   22.7430 C   0  0  0  0  0  0  0  0  0  0  0  0
    9.7520   -0.7590   24.0210 C   0  0  0  0  0  0  0  0  0  0  0  0
    8.2540   -0.8770   24.0700 C   0  0  0  0  0  0  0  0  0  0  0  0
   10.4340   -0.6300   25.2150 C   0  0  0  0  0  0  0  0  0  0  0  0
   11.9180   -0.5360   25.1650 C   0  0  0  0  0  0  0  0  0  0  0  0
   12.5100   -0.5990   23.9960 C   0  0  0  0  0  0  0  0  0  0  0  0
   11.8430   -0.7290   22.8190 C   0  0  0  0  0  0  0  0  0  0  0  0
   13.1150   -0.7460   21.9830 C   0  0  0  0  0  0  0  0  0  0  0  0
   13.2290   -1.7880   20.8940 C   0  0  0  0  0  0  0  0  0  0  0  0
    6.1850    0.4130   19.6530 C   0  0  0  0  0  0  0  0  0  0  0  0
    6.8210    0.5690   18.3570 C   0  0  0  0  0  0  0  0  0  0  0  0
    6.3300    1.1230   17.3130 N   0  0  0  0  0  0  0  0  0  0  0  0
    5.1290    1.5600   17.5550 C   0  0  0  0  0  0  0  0  0  0  0  0
    4.3860    1.4690   18.7250 C   0  0  0  0  0  0  0  0  0  0  0  0
    4.9150    0.8760   19.8190 C   0  0  0  0  0  0  0  0  0  0  0  0
    4.1780    0.7770   20.9920 C   0  0  0  0  0  0  0  0  0  0  0  0
  1  2  1  0
  2  3  2  0
  2  4  1  0
  4  5  1  0
  5  6  1  0
  6  7  2  0
  7  8  1  0
  8  9  1  0
  8 10  1  0
  8 11  1  0
  7 12  1  0
  5 13  2  0
 12 13  1  0
  4 14  1  0
 14 15  1  6
 15 16  2  0
 15 17  1  0
 17 18  1  0
 18 19  2  0
 19 20  1  0
 19 21  1  0
 21 22  2  0
 22 23  1  0
 18 24  1  0
 23 24  2  0
 24 25  1  0
 25 26  1  0
 14 27  1  0
 27 28  2  0
 28 29  1  0
 29 30  2  0
 30 31  1  0
 27 32  1  0
 31 32  2  0
 32 33  1  0
M  END
