DAR-DIA-eace69ff-4
     RDKit          3D

 31 34  0  0  0  0  0  0  0  0999 V2000
   12.7540   -2.4880   21.0800 C   0  0  0  0  0  0  0  0  0  0  0  0
   13.4070   -1.5670   21.9940 C   0  0  0  0  0  0  0  0  0  0  0  0
   12.4840   -0.6150   22.6540 C   0  0  0  0  0  0  0  0  0  0  0  0
   11.4610   -1.3370   23.2220 C   0  0  0  0  0  0  0  0  0  0  0  0
   10.4020   -0.7560   23.9050 C   0  0  0  0  0  0  0  0  0  0  0  0
    9.4880   -1.4200   24.4120 O   0  0  0  0  0  0  0  0  0  0  0  0
    9.5820   -2.8480   24.2200 C   0  0  0  0  0  0  0  0  0  0  0  0
    8.2670   -3.3890   24.3350 C   0  0  0  0  0  0  0  0  0  0  0  0
    7.9170   -3.8720   25.6260 C   0  0  0  0  0  0  0  0  0  0  0  0
    8.8620   -4.9120   26.1190 C   0  0  0  0  0  0  0  0  0  0  0  0
   10.0580   -4.2470   25.6880 C   0  0  0  0  0  0  0  0  0  0  0  0
   10.5560   -3.3830   25.0710 C   0  0  0  0  0  0  0  0  0  0  0  0
   10.5170    0.7940   23.9270 C   0  0  0  0  0  0  0  0  0  0  0  0
   11.5820    1.3980   23.3270 C   0  0  0  0  0  0  0  0  0  0  0  0
   12.5800    0.7410   22.7030 C   0  0  0  0  0  0  0  0  0  0  0  0
   11.5770    2.8970   23.3970 C   0  0  0  0  0  0  0  0  0  0  0  0
   12.5170    4.0020   22.8810 C   0  0  0  0  0  0  0  0  0  0  0  0
   12.0830    5.3810   23.1760 N   0  0  0  0  0  0  0  0  0  0  0  0
   10.7920    5.7030   22.6300 C   0  0  0  0  0  0  0  0  0  0  0  0
   12.0980    5.8120   24.5690 C   0  0  0  0  0  0  0  0  0  0  0  0
   10.3910    3.1200   24.1200 C   0  0  0  0  0  0  0  0  0  0  0  0
    9.7940    1.8750   24.4220 N   0  0  0  0  0  0  0  0  0  0  0  0
    8.5540    1.7950   25.1820 C   0  0  0  0  0  0  0  0  0  0  0  0
    7.2680    1.9560   24.3760 C   0  0  0  0  0  0  0  0  0  0  0  0
    6.0650    2.2410   25.0890 N   0  0  0  0  0  0  0  0  0  0  0  0
    5.8110    1.7360   26.4200 C   0  0  0  0  0  0  0  0  0  0  0  0
    5.2950    0.3350   26.2320 C   0  0  0  0  0  0  0  0  0  0  0  0
    4.0560    0.2300   25.4320 N   0  0  0  0  0  0  0  0  0  0  0  0
    3.7140   -1.1620   25.1520 C   0  0  0  0  0  0  0  0  0  0  0  0
    4.1290    0.9880   24.1590 C   0  0  0  0  0  0  0  0  0  0  0  0
    4.8650    2.3110   24.2470 C   0  0  0  0  0  0  0  0  0  0  0  0
  1  2  1  0
  2  3  1  0
  3  4  2  0
  4  5  1  0
  5  6  1  0
  6  7  1  0
  7  8  1  0
  8  9  1  0
  9 10  1  0
 10 11  1  0
  7 12  1  0
 11 12  1  0
  5 13  2  0
 13 14  1  0
  3 15  1  0
 14 15  2  0
 14 16  1  0
 16 17  1  0
 17 18  1  0
 18 19  1  0
 18 20  1  0
 16 21  2  0
 13 22  1  0
 21 22  1  0
 22 23  1  0
 23 24  1  0
 24 25  1  0
 25 26  1  0
 26 27  1  0
 27 28  1  0
 28 29  1  0
 28 30  1  0
 25 31  1  0
 30 31  1  0
M  END
