DAR-DIA-23aa0b97-11-acrylamide
     RDKit          3D

 23 25  0  0  0  0  0  0  0  0999 V2000
    8.5290   -3.3530   19.8750 C   0  0  0  0  0  0  0  0  0  0  0  0
    7.4070   -4.0680   20.6080 C   0  0  0  0  0  0  0  0  0  0  0  0
    6.6480   -3.0700   21.4500 C   0  0  0  0  0  0  0  0  0  0  0  0
    5.1290   -3.4500   21.4220 O   0  0  0  0  0  0  0  0  0  0  0  0
    7.6990   -1.8510   22.0300 C   0  0  0  0  0  0  0  0  0  0  0  0
    8.9550   -2.6630   21.6630 C   0  0  0  0  0  0  0  0  0  0  0  0
    7.9890   -3.3660   21.4380 C   0  0  0  0  0  0  0  0  0  0  0  0
    7.2460   -2.4470   21.8450 C   0  0  0  0  0  0  0  0  0  0  0  0
    7.7120   -0.9730   22.3510 C   0  0  0  0  0  0  0  0  0  0  0  0
    8.8080   -0.1190   22.5820 N   0  0  0  0  0  0  0  0  0  0  0  0
    8.7840    0.9230   21.6810 C   0  0  0  0  0  0  0  0  0  0  0  0
    9.6590    1.7570   21.3600 O   0  0  0  0  0  0  0  0  0  0  0  0
    7.5330    0.9330   21.1190 N   0  0  0  0  0  0  0  0  0  0  0  0
    7.1950    1.3460   19.8140 C   0  0  0  0  0  0  0  0  0  0  0  0
    6.2080    1.2760   18.4870 C   0  0  0  0  0  0  0  0  0  0  0  0
    5.2510    0.3590   18.7590 N   0  0  0  0  0  0  0  0  0  0  0  0
    6.3130    1.0640   19.0600 C   0  0  0  0  0  0  0  0  0  0  0  0
    5.6470    1.0420   18.1280 N   0  0  0  0  0  0  0  0  0  0  0  0
    5.7430    0.3660   19.4900 C   0  0  0  0  0  0  0  0  0  0  0  0
    5.1180   -0.6820   20.3770 C   0  0  0  0  0  0  0  0  0  0  0  0
    4.8610   -0.3130   19.2920 C   0  0  0  0  0  0  0  0  0  0  0  0
    6.1120    0.3400   19.9840 C   0  0  0  0  0  0  0  0  0  0  0  0
    6.4860   -1.0670   22.3850 C   0  0  0  0  0  0  0  0  0  0  0  0
  1  2  1  0
  2  3  1  0
  3  4  2  0
  3  5  1  0
  5  6  2  0
  6  7  1  0
  7  8  2  0
  8  9  1  0
  9 10  1  0
 10 11  1  0
 11 12  2  0
 11 13  1  0
 13 14  1  0
 14 15  2  0
 15 16  1  0
 16 17  1  0
 17 18  1  0
 18 19  2  0
 19 20  1  0
 20 21  2  0
 14 22  1  0
 17 22  2  0
 21 22  1  0
  5 23  1  0
  9 23  2  0
M  END
