DAR-DIA-23aa0b97-19-chloroacetamide
     RDKit          3D

 23 25  0  0  0  0  0  0  0  0999 V2000
    7.1740   -3.9540   20.2940 C   0  0  0  0  0  0  0  0  0  0  0  0
    6.0300   -2.9660   19.9540 C   0  0  0  0  0  0  0  0  0  0  0  0
    5.4790   -4.0790   19.7860 O   0  0  0  0  0  0  0  0  0  0  0  0
    7.0940   -1.9230   20.2680 C   0  0  0  0  0  0  0  0  0  0  0  0
    8.1890   -1.2330   21.2590 C   0  0  0  0  0  0  0  0  0  0  0  0
    9.0000   -1.1260   22.7170 C   0  0  0  0  0  0  0  0  0  0  0  0
    8.5150   -2.2240   23.7220 C   0  0  0  0  0  0  0  0  0  0  0  0
    8.1570   -1.8830   22.3800 C   0  0  0  0  0  0  0  0  0  0  0  0
    8.8690   -0.7800   21.8380 N   0  0  0  0  0  0  0  0  0  0  0  0
    8.2370    0.5470   21.6030 C   0  0  0  0  0  0  0  0  0  0  0  0
    8.8280    1.5680   21.2240 O   0  0  0  0  0  0  0  0  0  0  0  0
    6.8630    0.6890   21.7990 C   0  0  0  0  0  0  0  0  0  0  0  0
    6.2700    0.9750   20.5810 C   0  0  0  0  0  0  0  0  0  0  0  0
    6.7700    0.5170   19.3180 C   0  0  0  0  0  0  0  0  0  0  0  0
    6.2320    0.7830   18.1320 N   0  0  0  0  0  0  0  0  0  0  0  0
    5.0420    1.5730   17.7470 C   0  0  0  0  0  0  0  0  0  0  0  0
    4.6520    1.9480   19.1000 C   0  0  0  0  0  0  0  0  0  0  0  0
    3.3840    2.8040   19.0280 C   0  0  0  0  0  0  0  0  0  0  0  0
    2.7680    3.3180   20.3130 C   0  0  0  0  0  0  0  0  0  0  0  0
    3.3580    3.0130   21.5230 C   0  0  0  0  0  0  0  0  0  0  0  0
    4.5100    2.2400   21.5530 C   0  0  0  0  0  0  0  0  0  0  0  0
    5.1400    1.7250   20.4240 C   0  0  0  0  0  0  0  0  0  0  0  0
    7.3270   -2.3220   21.4810 C   0  0  0  0  0  0  0  0  0  0  0  0
  1  2  1  0
  2  3  2  0
  2  4  1  0
  4  5  2  0
  5  6  1  0
  6  7  2  0
  7  8  1  0
  8  9  1  0
  9 10  1  0
 10 11  2  0
 10 12  1  0
 12 13  1  0
 13 14  2  0
 14 15  1  0
 15 16  2  0
 16 17  1  0
 17 18  1  0
 18 19  2  0
 19 20  1  0
 20 21  2  0
 13 22  1  0
 17 22  2  0
 21 22  1  0
  4 23  1  0
  8 23  2  0
M  END
