DAR-DIA-2b784ede-21-chloroacetamide
     RDKit          3D

 28 30  0  0  0  0  0  0  0  0999 V2000
    7.9410   -3.5190   20.6250 C   0  0  0  0  0  0  0  0  0  0  0  0
    7.0860   -2.1480   20.5230 C   0  0  0  0  0  0  0  0  0  0  0  0
    6.5870   -2.6900   19.3370 O   0  0  0  0  0  0  0  0  0  0  0  0
    7.8080   -1.7850   21.8920 N   0  0  0  0  0  0  0  0  0  0  0  0
    7.2650   -2.5540   23.0010 C   0  0  0  0  0  0  0  0  0  0  0  0
    8.1440   -2.8780   24.0420 C   0  0  0  0  0  0  0  0  0  0  0  0
    7.6820   -3.6080   25.1400 C   0  0  0  0  0  0  0  0  0  0  0  0
    6.3000   -4.0860   25.3090 C   0  0  0  0  0  0  0  0  0  0  0  0
    5.8850   -4.8380   26.4980 C   0  0  0  0  0  0  0  0  0  0  0  0
    4.5710   -5.9010   26.1600 Cl  0  0  0  0  0  0  0  0  0  0  0  0
    5.6200   -4.0030   27.5720 C   0  0  0  0  0  0  0  0  0  0  0  0
    6.5550   -4.1320   28.6070 C   0  0  0  0  0  0  0  0  0  0  0  0
    7.4630   -5.2870   28.2530 C   0  0  0  0  0  0  0  0  0  0  0  0
    6.8800   -5.7210   26.9160 C   0  0  0  0  0  0  0  0  0  0  0  0
    5.4130   -3.7720   24.2710 C   0  0  0  0  0  0  0  0  0  0  0  0
    5.9420   -2.9750   23.0870 C   0  0  0  0  0  0  0  0  0  0  0  0
    8.3540   -0.4360   22.4200 C   0  0  1  0  0  0  0  0  0  0  0  0
    7.4840   -0.0400   23.6070 C   0  0  0  0  0  0  0  0  0  0  0  0
    6.3700    0.4530   23.3930 O   0  0  0  0  0  0  0  0  0  0  0  0
    7.8270   -0.1620   24.9520 N   0  0  0  0  0  0  0  0  0  0  0  0
    9.0650   -0.6020   25.4800 C   0  0  0  0  0  0  0  0  0  0  0  0
    9.7820   -0.3730   22.5230 C   0  0  0  0  0  0  0  0  0  0  0  0
   10.6050    0.7470   22.8140 C   0  0  0  0  0  0  0  0  0  0  0  0
   11.9810    0.7230   22.8550 N   0  0  0  0  0  0  0  0  0  0  0  0
   12.6600   -0.4350   22.6060 C   0  0  0  0  0  0  0  0  0  0  0  0
   11.9500   -1.5780   22.3320 C   0  0  0  0  0  0  0  0  0  0  0  0
   10.4500   -1.5140   22.3030 C   0  0  0  0  0  0  0  0  0  0  0  0
    9.6930   -2.7470   22.0110 C   0  0  0  0  0  0  0  0  0  0  0  0
  1  2  1  0
  2  3  2  0
  2  4  1  0
  4  5  1  0
  5  6  2  0
  6  7  1  0
  7  8  2  0
  8  9  1  0
  9 10  1  0
  9 11  1  0
 11 12  1  0
 12 13  1  0
  9 14  1  0
 13 14  1  0
  8 15  1  0
  5 16  1  0
 15 16  2  0
  4 17  1  0
 17 18  1  1
 18 19  2  0
 18 20  1  0
 20 21  1  0
 17 22  1  0
 22 23  2  0
 23 24  1  0
 24 25  2  0
 25 26  1  0
 22 27  1  0
 26 27  2  0
 27 28  1  0
M  END
