DAR-DIA-2b784ede-29-acrylamide
     RDKit          3D

 35 37  0  0  0  0  0  0  0  0999 V2000
    6.5450   -3.2300   19.6800 C   0  0  0  0  0  0  0  0  0  0  0  0
    6.5370   -2.4140   21.0490 C   0  0  0  0  0  0  0  0  0  0  0  0
    5.1540   -1.7910   21.5340 C   0  0  0  0  0  0  0  0  0  0  0  0
    4.8170   -2.9990   21.1600 O   0  0  0  0  0  0  0  0  0  0  0  0
    5.8410   -0.5070   21.8720 N   0  0  0  0  0  0  0  0  0  0  0  0
    5.3910    0.7300   21.3510 C   0  0  0  0  0  0  0  0  0  0  0  0
    4.8080    1.0980   20.1530 C   0  0  0  0  0  0  0  0  0  0  0  0
    4.5370    2.4160   20.0910 N   0  0  0  0  0  0  0  0  0  0  0  0
    4.9580    2.8980   21.2810 N   0  0  0  0  0  0  0  0  0  0  0  0
    4.8660    4.3200   21.6910 C   0  0  0  0  0  0  0  0  0  0  0  0
    4.2630    4.3650   23.1020 C   0  0  0  0  0  0  0  0  0  0  0  0
    6.2450    4.9950   21.7440 C   0  0  0  0  0  0  0  0  0  0  0  0
    3.9830    5.0810   20.7830 C   0  0  0  0  0  0  0  0  0  0  0  0
    5.4740    1.9090   22.0530 C   0  0  0  0  0  0  0  0  0  0  0  0
    6.2580   -0.2460   23.3270 C   0  0  1  0  0  0  0  0  0  0  0  0
    7.5600    0.5960   23.4060 C   0  0  0  0  0  0  0  0  0  0  0  0
    7.8010    1.5620   22.6750 O   0  0  0  0  0  0  0  0  0  0  0  0
    8.4310    0.2220   24.3820 N   0  0  0  0  0  0  0  0  0  0  0  0
    9.6470    0.9300   24.5060 C   0  0  0  0  0  0  0  0  0  0  0  0
   10.6560    0.2480   23.8180 C   0  0  0  0  0  0  0  0  0  0  0  0
   11.7250    0.9710   23.3270 C   0  0  0  0  0  0  0  0  0  0  0  0
   11.7520    2.3440   23.4710 C   0  0  0  0  0  0  0  0  0  0  0  0
   12.8000    0.3860   22.6620 C   0  0  0  0  0  0  0  0  0  0  0  0
   12.8420   -0.9780   22.4180 C   0  0  0  0  0  0  0  0  0  0  0  0
   11.7340   -1.8450   22.8750 C   0  0  0  0  0  0  0  0  0  0  0  0
   10.6080   -1.1600   23.6080 C   0  0  0  0  0  0  0  0  0  0  0  0
    9.5040   -2.0810   24.0470 C   0  0  0  0  0  0  0  0  0  0  0  0
    8.6320   -2.3730   22.9950 C   0  0  0  0  0  0  0  0  0  0  0  0
    5.2820    0.4310   24.2880 C   0  0  0  0  0  0  0  0  0  0  0  0
    4.0190    0.5460   24.4290 C   0  0  0  0  0  0  0  0  0  0  0  0
    2.8780    0.2820   24.0280 N   0  0  0  0  0  0  0  0  0  0  0  0
    2.6880    1.0560   25.1250 C   0  0  0  0  0  0  0  0  0  0  0  0
    4.0120    1.5640   25.8770 C   0  0  0  0  0  0  0  0  0  0  0  0
    5.3880    1.2240   25.4190 C   0  0  0  0  0  0  0  0  0  0  0  0
    6.6500    1.6920   26.1010 C   0  0  0  0  0  0  0  0  0  0  0  0
  1  2  1  0
  2  3  1  0
  3  4  2  0
  3  5  1  0
  5  6  1  0
  6  7  1  0
  7  8  2  0
  8  9  1  0
  9 10  1  0
 10 11  1  0
 10 12  1  0
 10 13  1  0
  6 14  2  0
  9 14  1  0
  5 15  1  0
 15 16  1  6
 16 17  2  0
 16 18  1  0
 18 19  1  0
 19 20  1  0
 20 21  2  0
 21 22  1  0
 21 23  1  0
 23 24  2  0
 24 25  1  0
 20 26  1  0
 25 26  2  0
 26 27  1  0
 27 28  1  0
 15 29  1  0
 29 30  2  0
 30 31  1  0
 31 32  2  0
 32 33  1  0
 29 34  1  0
 33 34  2  0
 34 35  1  0
M  END
