DAR-DIA-2b784ede-47-vinylsulfonamide
     RDKit          3D

 35 37  0  0  0  0  0  0  0  0999 V2000
    6.7650   -4.2050   20.3710 C   0  0  0  0  0  0  0  0  0  0  0  0
    7.0700   -4.0930   21.8800 C   0  0  0  0  0  0  0  0  0  0  0  0
    5.8380   -3.0690   22.6340 S   0  0  0  0  0  0  0  0  0  0  0  0
    4.5460   -3.4950   22.1180 O   0  0  0  0  0  0  0  0  0  0  0  0
    6.0680   -3.0930   24.0620 O   0  0  0  0  0  0  0  0  0  0  0  0
    6.1130   -1.4730   22.0380 N   0  0  0  0  0  0  0  0  0  0  0  0
    5.0330   -1.1660   21.0850 C   0  0  0  0  0  0  0  0  0  0  0  0
    4.8350   -0.5100   22.3210 C   0  0  0  0  0  0  0  0  0  0  0  0
    6.0110   -0.9930   23.0550 C   0  0  0  0  0  0  0  0  0  0  0  0
    6.2980   -0.5850   24.5070 C   0  0  0  0  0  0  0  0  0  0  0  0
    7.2230   -1.4930   25.3370 C   0  0  0  0  0  0  0  0  0  0  0  0
    6.8340    0.8570   24.4910 C   0  0  0  0  0  0  0  0  0  0  0  0
    4.9440   -0.5880   25.2390 C   0  0  0  0  0  0  0  0  0  0  0  0
    6.7600   -1.8800   22.1380 N   0  0  0  0  0  0  0  0  0  0  0  0
    6.0630   -1.9500   20.8720 N   0  0  0  0  0  0  0  0  0  0  0  0
    7.3920   -1.1850   21.2020 C   0  0  2  0  0  0  0  0  0  0  0  0
    8.6320   -0.6250   21.6780 C   0  0  0  0  0  0  0  0  0  0  0  0
    8.6860    0.5250   22.1210 O   0  0  0  0  0  0  0  0  0  0  0  0
    9.7980   -1.4280   21.5740 N   0  0  0  0  0  0  0  0  0  0  0  0
   10.7990   -1.6770   22.5860 C   0  0  0  0  0  0  0  0  0  0  0  0
   10.3830   -1.4500   23.8720 C   0  0  0  0  0  0  0  0  0  0  0  0
    8.9600   -0.9710   24.0790 C   0  0  0  0  0  0  0  0  0  0  0  0
   11.2020   -1.6410   24.9330 C   0  0  0  0  0  0  0  0  0  0  0  0
   12.6150   -2.1110   24.7490 C   0  0  0  0  0  0  0  0  0  0  0  0
   13.0390   -2.3370   23.4740 C   0  0  0  0  0  0  0  0  0  0  0  0
   12.1730   -2.1340   22.3900 C   0  0  0  0  0  0  0  0  0  0  0  0
   12.8350   -2.4450   21.0440 C   0  0  0  0  0  0  0  0  0  0  0  0
   11.8700   -3.0090   20.1950 O   0  0  0  0  0  0  0  0  0  0  0  0
    6.7610   -0.4340   20.0410 C   0  0  0  0  0  0  0  0  0  0  0  0
    6.3670   -1.0450   18.7040 C   0  0  0  0  0  0  0  0  0  0  0  0
    5.7720   -0.4110   17.6830 N   0  0  0  0  0  0  0  0  0  0  0  0
    5.5210    0.8890   17.9070 C   0  0  0  0  0  0  0  0  0  0  0  0
    5.8410    1.5650   19.0970 C   0  0  0  0  0  0  0  0  0  0  0  0
    6.4630    0.9190   20.1720 C   0  0  0  0  0  0  0  0  0  0  0  0
    6.7400    1.6650   21.3160 C   0  0  0  0  0  0  0  0  0  0  0  0
  1  2  1  0
  2  3  1  0
  3  4  2  0
  3  5  2  0
  3  6  1  0
  6  7  1  0
  7  8  2  0
  8  9  1  0
  9 10  1  0
 10 11  1  0
 10 12  1  0
 10 13  1  0
  9 14  2  0
  7 15  1  0
 14 15  1  0
  6 16  1  0
 16 17  1  1
 17 18  2  0
 17 19  1  0
 19 20  1  0
 20 21  2  0
 21 22  1  0
 21 23  1  0
 23 24  2  0
 24 25  1  0
 20 26  1  0
 25 26  2  0
 26 27  1  0
 27 28  1  0
 16 29  1  0
 29 30  2  0
 30 31  1  0
 31 32  2  0
 32 33  1  0
 29 34  1  0
 33 34  2  0
 34 35  1  0
M  END
