DAR-DIA-2b784ede-20-acrylamide
     RDKit          3D

 29 31  0  0  0  0  0  0  0  0999 V2000
    7.9440   -3.3070   19.6080 C   0  0  0  0  0  0  0  0  0  0  0  0
    6.6860   -2.4420   19.6080 C   0  0  0  0  0  0  0  0  0  0  0  0
    5.5120   -2.8620   20.4760 C   0  0  0  0  0  0  0  0  0  0  0  0
    4.7800   -3.1060   21.4090 O   0  0  0  0  0  0  0  0  0  0  0  0
    6.3670   -2.5170   21.5390 N   0  0  0  0  0  0  0  0  0  0  0  0
    6.5350   -1.1000   21.8550 C   0  0  0  0  0  0  0  0  0  0  0  0
    5.4910   -0.5520   22.5550 C   0  0  0  0  0  0  0  0  0  0  0  0
    5.9480    0.7230   22.7030 C   0  0  0  0  0  0  0  0  0  0  0  0
    7.0360    1.5410   22.3870 C   0  0  0  0  0  0  0  0  0  0  0  0
    7.1150    2.8690   22.7500 C   0  0  0  0  0  0  0  0  0  0  0  0
    5.6480    3.6730   22.4700 Cl  0  0  0  0  0  0  0  0  0  0  0  0
    7.5230    2.9830   24.0930 C   0  0  0  0  0  0  0  0  0  0  0  0
    8.9330    3.5000   24.1600 C   0  0  0  0  0  0  0  0  0  0  0  0
    9.3240    3.6060   22.7000 C   0  0  0  0  0  0  0  0  0  0  0  0
    8.0100    3.5570   21.9180 C   0  0  0  0  0  0  0  0  0  0  0  0
    8.1200    0.9530   21.6490 C   0  0  0  0  0  0  0  0  0  0  0  0
    7.7070   -0.4040   21.4560 N   0  0  0  0  0  0  0  0  0  0  0  0
    6.5370   -3.2940   22.7300 C   0  0  1  0  0  0  0  0  0  0  0  0
    5.6660   -4.5550   22.7000 C   0  0  0  0  0  0  0  0  0  0  0  0
    4.5290   -4.6980   22.2270 O   0  0  0  0  0  0  0  0  0  0  0  0
    6.3030   -5.6160   23.2850 N   0  0  0  0  0  0  0  0  0  0  0  0
    6.5110   -6.8400   22.6460 C   0  0  0  0  0  0  0  0  0  0  0  0
    7.8860   -3.3220   23.0460 C   0  0  0  0  0  0  0  0  0  0  0  0
    8.5130   -4.1850   23.8810 C   0  0  0  0  0  0  0  0  0  0  0  0
    9.8530   -4.0400   24.0670 N   0  0  0  0  0  0  0  0  0  0  0  0
   10.6090   -3.0290   23.4210 C   0  0  0  0  0  0  0  0  0  0  0  0
   10.2830   -1.9710   22.4860 C   0  0  0  0  0  0  0  0  0  0  0  0
    8.8610   -2.4830   22.5840 C   0  0  0  0  0  0  0  0  0  0  0  0
    9.6900   -3.3700   23.4830 C   0  0  0  0  0  0  0  0  0  0  0  0
  1  2  1  0
  2  3  1  0
  3  4  2  0
  3  5  1  0
  5  6  1  0
  6  7  2  0
  7  8  1  0
  8  9  2  0
  9 10  1  0
 10 11  1  0
 10 12  1  0
 12 13  1  0
 13 14  1  0
 10 15  1  0
 14 15  1  0
  9 16  1  0
  6 17  1  0
 16 17  2  0
  5 18  1  0
 18 19  1  6
 19 20  2  0
 19 21  1  0
 21 22  1  0
 18 23  1  0
 23 24  2  0
 24 25  1  0
 25 26  2  0
 26 27  1  0
 23 28  1  0
 27 28  2  0
 28 29  1  0
M  END
