DAR-DIA-842b4336-6-acrylamide
     RDKit          3D

 19 20  0  0  0  0  0  0  0  0999 V2000
    6.9580   -5.3620   20.9730 C   0  0  0  0  0  0  0  0  0  0  0  0
    7.0770   -4.5310   22.2500 C   0  0  0  0  0  0  0  0  0  0  0  0
    5.7690   -3.8310   22.5640 C   0  0  0  0  0  0  0  0  0  0  0  0
    4.6840   -4.3080   22.2350 O   0  0  0  0  0  0  0  0  0  0  0  0
    5.8410   -2.5230   23.2860 C   0  0  0  0  0  0  0  0  0  0  0  0
    6.0530   -1.5770   22.3800 C   0  0  0  0  0  0  0  0  0  0  0  0
    6.0260   -2.4670   21.4970 O   0  0  0  0  0  0  0  0  0  0  0  0
    6.2280   -1.0720   21.3600 C   0  0  0  0  0  0  0  0  0  0  0  0
    6.3850    0.2860   21.5940 N   0  0  0  0  0  0  0  0  0  0  0  0
    6.9860    1.1320   20.6570 C   0  0  0  0  0  0  0  0  0  0  0  0
    8.1040    1.6480   20.7910 O   0  0  0  0  0  0  0  0  0  0  0  0
    6.0980    1.3370   19.4630 N   0  0  0  0  0  0  0  0  0  0  0  0
    5.1550    0.4140   19.4560 C   0  0  0  0  0  0  0  0  0  0  0  0
    4.1910    0.8000   20.2820 C   0  0  0  0  0  0  0  0  0  0  0  0
    5.4170    1.8400   20.1310 C   0  0  0  0  0  0  0  0  0  0  0  0
    6.3420    1.1530   19.1240 C   0  0  0  0  0  0  0  0  0  0  0  0
    6.3860   -0.0940   18.3400 N   0  0  0  0  0  0  0  0  0  0  0  0
    5.3060   -0.6430   18.7170 C   0  0  0  0  0  0  0  0  0  0  0  0
    6.0510   -1.1400   22.9070 N   0  0  0  0  0  0  0  0  0  0  0  0
  1  2  1  0
  2  3  1  0
  3  4  2  0
  3  5  1  0
  5  6  2  0
  6  7  1  0
  7  8  1  0
  8  9  1  0
  9 10  1  0
 10 11  2  0
 10 12  1  0
 12 13  1  0
 13 14  2  0
 14 15  1  0
 15 16  2  0
 16 17  1  0
 13 18  1  0
 17 18  2  0
  5 19  1  0
  8 19  2  0
M  END
