DAR-DIA-0cde14eb-19
     RDKit          3D

 27 30  0  0  0  0  0  0  0  0999 V2000
    4.8430    1.0080   21.6980 C   0  0  0  0  0  0  0  0  0  0  0  0
    5.1900    0.8590   20.2430 C   0  0  0  0  0  0  0  0  0  0  0  0
    4.6830    1.7530   19.2940 C   0  0  0  0  0  0  0  0  0  0  0  0
    5.0470    1.5840   17.9710 C   0  0  0  0  0  0  0  0  0  0  0  0
    5.8620    0.6040   17.5420 N   0  0  0  0  0  0  0  0  0  0  0  0
    6.3280   -0.2440   18.4720 C   0  0  0  0  0  0  0  0  0  0  0  0
    6.0290   -0.1610   19.8020 C   0  0  0  0  0  0  0  0  0  0  0  0
    6.5520   -1.0410   20.7180 N   0  0  0  0  0  0  0  0  0  0  0  0
    7.7720   -0.7270   21.1860 C   0  0  0  0  0  0  0  0  0  0  0  0
    8.3420    0.3290   20.9310 O   0  0  0  0  0  0  0  0  0  0  0  0
    8.4200   -1.7380   22.0830 C   0  0  0  0  0  0  0  0  0  0  0  0
    9.4570   -0.8740   22.6530 C   0  0  0  0  0  0  0  0  0  0  0  0
    9.0860    0.3230   23.1900 C   0  0  0  0  0  0  0  0  0  0  0  0
    9.9210    1.2430   23.7400 C   0  0  0  0  0  0  0  0  0  0  0  0
    9.1770    2.3510   24.1680 N   0  0  0  0  0  0  0  0  0  0  0  0
    9.0300    3.5160   23.2820 C   0  0  0  0  0  0  0  0  0  0  0  0
    7.5750    3.8110   22.8990 C   0  0  0  0  0  0  0  0  0  0  0  0
    6.6790    4.0830   24.1010 C   0  0  0  0  0  0  0  0  0  0  0  0
    7.1700    3.2820   25.2900 C   0  0  0  0  0  0  0  0  0  0  0  0
    7.9120    2.0140   24.8410 C   0  0  0  0  0  0  0  0  0  0  0  0
   11.3100    0.8900   23.7520 C   0  0  0  0  0  0  0  0  0  0  0  0
   11.6770   -0.4710   23.1250 C   0  0  0  0  0  0  0  0  0  0  0  0
   12.8210   -1.1130   22.9310 C   0  0  0  0  0  0  0  0  0  0  0  0
   13.5680   -2.3700   24.4640 I   0  0  0  0  0  0  0  0  0  0  0  0
   13.4550   -1.1000   21.7440 C   0  0  0  0  0  0  0  0  0  0  0  0
   12.5250   -2.0800   21.5690 C   0  0  0  0  0  0  0  0  0  0  0  0
   10.7150   -1.2560   22.6170 C   0  0  0  0  0  0  0  0  0  0  0  0
  1  2  1  0
  2  3  2  0
  3  4  1  0
  4  5  2  0
  5  6  1  0
  2  7  1  0
  6  7  2  0
  7  8  1  0
  8  9  1  0
  9 10  2  0
  9 11  1  0
 11 12  1  0
 12 13  2  0
 13 14  1  0
 14 15  1  0
 15 16  1  0
 16 17  1  0
 17 18  1  0
 18 19  1  0
 15 20  1  0
 19 20  1  0
 14 21  2  0
 21 22  1  0
 22 23  1  0
 23 24  1  0
 23 25  1  0
 23 26  1  0
 25 26  1  0
 12 27  1  0
 22 27  2  0
M  END
