DAR-DIA-0cde14eb-24
     RDKit          3D

 28 31  0  0  0  0  0  0  0  0999 V2000
    4.6680    1.4520   21.5280 C   0  0  0  0  0  0  0  0  0  0  0  0
    5.1650    1.1840   20.1360 C   0  0  0  0  0  0  0  0  0  0  0  0
    4.5790    1.8290   19.0510 C   0  0  0  0  0  0  0  0  0  0  0  0
    5.0710    1.5660   17.7910 C   0  0  0  0  0  0  0  0  0  0  0  0
    6.0750    0.7150   17.5420 N   0  0  0  0  0  0  0  0  0  0  0  0
    6.6250    0.1040   18.5960 C   0  0  0  0  0  0  0  0  0  0  0  0
    6.2200    0.3040   19.8890 C   0  0  0  0  0  0  0  0  0  0  0  0
    6.8290   -0.3120   20.9530 N   0  0  0  0  0  0  0  0  0  0  0  0
    7.9070    0.3380   21.4690 C   0  0  0  0  0  0  0  0  0  0  0  0
    8.3880    1.3890   21.0090 O   0  0  0  0  0  0  0  0  0  0  0  0
    8.4340   -0.2890   22.5460 N   0  0  0  0  0  0  0  0  0  0  0  0
    9.7070    0.1160   22.8450 C   0  0  0  0  0  0  0  0  0  0  0  0
   10.0740    1.5650   23.0260 C   0  0  0  0  0  0  0  0  0  0  0  0
   11.3450    2.0340   23.2990 C   0  0  0  0  0  0  0  0  0  0  0  0
   11.4860    3.4230   23.4410 N   0  0  0  0  0  0  0  0  0  0  0  0
   12.3010    4.1490   22.4440 C   0  0  0  0  0  0  0  0  0  0  0  0
   12.2240    5.5490   22.5600 C   0  0  0  0  0  0  0  0  0  0  0  0
   12.0530    5.9880   24.0110 C   0  0  0  0  0  0  0  0  0  0  0  0
   10.7740    5.4680   24.6360 C   0  0  0  0  0  0  0  0  0  0  0  0
   10.3340    4.1730   23.9640 C   0  0  0  0  0  0  0  0  0  0  0  0
   12.3160    1.0080   23.3970 C   0  0  0  0  0  0  0  0  0  0  0  0
   11.9600   -0.4760   23.2390 C   0  0  0  0  0  0  0  0  0  0  0  0
   12.8330   -1.6750   23.3520 C   0  0  0  0  0  0  0  0  0  0  0  0
   13.0670   -2.3700   22.1570 C   0  0  0  0  0  0  0  0  0  0  0  0
   13.1790   -2.9090   21.1390 N   0  0  0  0  0  0  0  0  0  0  0  0
   13.4720   -2.0650   24.6950 C   0  0  0  0  0  0  0  0  0  0  0  0
   12.1180   -2.5750   24.3730 C   0  0  0  0  0  0  0  0  0  0  0  0
   10.6660   -0.8280   22.9650 C   0  0  0  0  0  0  0  0  0  0  0  0
  1  2  1  0
  2  3  2  0
  3  4  1  0
  4  5  2  0
  5  6  1  0
  2  7  1  0
  6  7  2  0
  7  8  1  0
  8  9  1  0
  9 10  2  0
  9 11  1  0
 11 12  1  0
 12 13  2  0
 13 14  1  0
 14 15  1  0
 15 16  1  0
 16 17  1  0
 17 18  1  0
 18 19  1  0
 15 20  1  0
 19 20  1  0
 14 21  2  0
 21 22  1  0
 22 23  1  0
 23 24  1  0
 24 25  3  0
 23 26  1  0
 23 27  1  0
 26 27  1  0
 12 28  1  0
 22 28  2  0
M  END
