DAR-DIA-2b784ede-42-vinylsulfonamide
     RDKit          3D

 35 37  0  0  0  0  0  0  0  0999 V2000
    7.7150   -3.2570   19.1900 C   0  0  0  0  0  0  0  0  0  0  0  0
    6.7580   -2.7320   18.1610 C   0  0  0  0  0  0  0  0  0  0  0  0
    5.6770   -3.1430   19.4250 S   0  0  0  0  0  0  0  0  0  0  0  0
    4.2690   -3.1800   19.2650 O   0  0  0  0  0  0  0  0  0  0  0  0
    6.2110   -4.2430   20.1980 O   0  0  0  0  0  0  0  0  0  0  0  0
    6.2800   -1.7430   20.1000 N   0  0  0  0  0  0  0  0  0  0  0  0
    5.9580   -0.4390   19.4970 C   0  0  0  0  0  0  0  0  0  0  0  0
    5.2500    0.2030   20.3770 C   0  0  0  0  0  0  0  0  0  0  0  0
    4.9340    1.3070   20.0280 C   0  0  0  0  0  0  0  0  0  0  0  0
    4.1850    2.0440   21.0040 C   0  0  0  0  0  0  0  0  0  0  0  0
    2.7290    2.0550   20.7820 C   0  0  0  0  0  0  0  0  0  0  0  0
    4.7340    1.5380   22.2460 C   0  0  0  0  0  0  0  0  0  0  0  0
    4.4540    3.5390   21.0850 C   0  0  0  0  0  0  0  0  0  0  0  0
    4.6960    4.8920   21.2410 N   0  0  0  0  0  0  0  0  0  0  0  0
    5.5010    1.4140   18.6870 N   0  0  0  0  0  0  0  0  0  0  0  0
    6.2210    0.2670   18.2400 N   0  0  0  0  0  0  0  0  0  0  0  0
    6.9660   -2.0190   21.2810 C   0  0  1  0  0  0  0  0  0  0  0  0
    8.2710   -1.2650   21.6230 C   0  0  0  0  0  0  0  0  0  0  0  0
    8.2360    0.0580   21.9630 O   0  0  0  0  0  0  0  0  0  0  0  0
    9.4730   -1.9600   21.6060 N   0  0  0  0  0  0  0  0  0  0  0  0
   10.4800   -1.3550   22.5390 C   0  0  0  0  0  0  0  0  0  0  0  0
    9.8910   -0.8240   23.8270 C   0  0  0  0  0  0  0  0  0  0  0  0
    8.5490   -0.9550   24.1360 C   0  0  0  0  0  0  0  0  0  0  0  0
   10.6990   -0.2110   24.7050 C   0  0  0  0  0  0  0  0  0  0  0  0
   12.0080   -0.1560   24.3330 C   0  0  0  0  0  0  0  0  0  0  0  0
   12.5040   -0.6910   23.1470 C   0  0  0  0  0  0  0  0  0  0  0  0
   11.8550   -1.3770   22.0630 C   0  0  0  0  0  0  0  0  0  0  0  0
   13.1880   -1.3490   21.7030 C   0  0  0  0  0  0  0  0  0  0  0  0
   13.3470   -2.5550   21.0930 C   0  0  0  0  0  0  0  0  0  0  0  0
    6.1410   -2.1480   22.3970 C   0  0  0  0  0  0  0  0  0  0  0  0
    5.6380   -3.5420   22.6950 C   0  0  0  0  0  0  0  0  0  0  0  0
    4.8120   -3.7150   23.7850 C   0  0  0  0  0  0  0  0  0  0  0  0
    4.4750   -2.4710   24.6060 C   0  0  0  0  0  0  0  0  0  0  0  0
    4.9450   -1.2380   24.3140 N   0  0  0  0  0  0  0  0  0  0  0  0
    5.7610   -1.0960   23.2260 C   0  0  0  0  0  0  0  0  0  0  0  0
  1  2  1  0
  2  3  1  0
  3  4  2  0
  3  5  2  0
  3  6  1  0
  6  7  1  0
  7  8  2  0
  8  9  1  0
  9 10  1  0
 10 11  1  0
 10 12  1  0
 10 13  1  0
 13 14  3  0
  9 15  2  0
  7 16  1  0
 15 16  1  0
  6 17  1  0
 17 18  1  1
 18 19  2  0
 18 20  1  0
 20 21  1  0
 21 22  2  0
 22 23  1  0
 22 24  1  0
 24 25  2  0
 25 26  1  0
 21 27  1  0
 26 27  2  0
 27 28  1  0
 28 29  1  0
 17 30  1  0
 30 31  2  0
 31 32  1  0
 32 33  2  0
 33 34  1  0
 30 35  1  0
 34 35  2  0
M  END
