DAR-DIA-fb20be43-13-vinylsulfonamide
     RDKit          3D

 29 31  0  0  0  0  0  0  0  0999 V2000
    7.8730   -3.6730   19.9260 C   0  0  0  0  0  0  0  0  0  0  0  0
    7.2680   -2.6450   18.9990 C   0  0  0  0  0  0  0  0  0  0  0  0
    5.7350   -2.3170   19.7720 S   0  0  0  0  0  0  0  0  0  0  0  0
    4.9300   -3.5420   19.7450 O   0  0  0  0  0  0  0  0  0  0  0  0
    5.2170   -1.0790   19.2360 O   0  0  0  0  0  0  0  0  0  0  0  0
    6.3510   -1.9560   21.3180 N   0  0  0  0  0  0  0  0  0  0  0  0
    7.4750   -1.0090   21.3210 C   0  0  0  0  0  0  0  0  0  0  0  0
    8.7710   -1.6320   21.8470 C   0  0  0  0  0  0  0  0  0  0  0  0
    8.5990   -2.2470   23.1740 N   0  0  0  0  0  0  0  0  0  0  0  0
    9.9230   -2.5550   23.7550 C   0  0  0  0  0  0  0  0  0  0  0  0
   10.7480   -1.3200   23.5700 C   0  0  0  0  0  0  0  0  0  0  0  0
   12.0690   -1.3970   22.8510 C   0  0  0  0  0  0  0  0  0  0  0  0
   12.7260   -0.1740   22.7000 C   0  0  0  0  0  0  0  0  0  0  0  0
   13.8600   -0.1520   22.0900 O   0  0  0  0  0  0  0  0  0  0  0  0
   14.0820    1.2070   21.7620 C   0  0  0  0  0  0  0  0  0  0  0  0
   12.2350    1.0300   23.1420 C   0  0  0  0  0  0  0  0  0  0  0  0
   11.0410    1.0690   23.7780 C   0  0  0  0  0  0  0  0  0  0  0  0
   10.3050   -0.0910   24.0220 C   0  0  0  0  0  0  0  0  0  0  0  0
    9.1460    0.1870   24.7300 C   0  0  0  0  0  0  0  0  0  0  0  0
    9.1440    1.5570   24.8620 C   0  0  0  0  0  0  0  0  0  0  0  0
   10.2500    2.1770   24.3000 C   0  0  0  0  0  0  0  0  0  0  0  0
   10.4920    3.5690   24.2090 C   0  0  0  0  0  0  0  0  0  0  0  0
    9.7100    4.5160   25.1500 C   0  0  0  0  0  0  0  0  0  0  0  0
    8.2780    4.2770   25.1620 N   0  0  0  0  0  0  0  0  0  0  0  0
    7.5720    4.0140   26.4320 C   0  0  0  0  0  0  0  0  0  0  0  0
    7.2310    2.5310   26.6930 C   0  0  0  0  0  0  0  0  0  0  0  0
    7.2750    4.8960   27.2300 O   0  0  0  0  0  0  0  0  0  0  0  0
    7.6520   -3.3670   23.0500 C   0  0  0  0  0  0  0  0  0  0  0  0
    6.2970   -2.9980   22.3700 C   0  0  0  0  0  0  0  0  0  0  0  0
  1  2  1  0
  3  2  1  0
  3  4  2  0
  3  5  2  0
  3  6  1  0
  6  7  1  0
  7  8  1  0
  8  9  1  0
  9 10  1  0
 10 11  1  0
 11 12  2  0
 12 13  1  0
 13 14  1  0
 14 15  1  0
 13 16  2  0
 16 17  1  0
 11 18  1  0
 17 18  2  0
 18 19  1  0
 19 20  1  0
 17 21  1  0
 20 21  2  0
 21 22  1  0
 22 23  1  0
 23 24  1  0
 24 25  1  0
 25 26  1  0
 25 27  2  0
  9 28  1  0
  6 29  1  0
 28 29  1  0
M  END
