DAR-DIA-2b784ede-1-acrylamide
     RDKit          3D

 26 27  0  0  0  0  0  0  0  0999 V2000
    6.4030   -4.5740   20.1250 C   0  0  0  0  0  0  0  0  0  0  0  0
    7.1250   -3.7860   21.1930 C   0  0  0  0  0  0  0  0  0  0  0  0
    6.2430   -2.6480   21.3330 C   0  0  0  0  0  0  0  0  0  0  0  0
    4.9030   -3.0130   21.1540 O   0  0  0  0  0  0  0  0  0  0  0  0
    7.0140   -1.4040   21.5680 N   0  0  0  0  0  0  0  0  0  0  0  0
    6.4770   -0.4220   20.6690 C   0  0  0  0  0  0  0  0  0  0  0  0
    5.5300    0.4380   21.1690 C   0  0  0  0  0  0  0  0  0  0  0  0
    4.8990    1.4110   20.2880 C   0  0  0  0  0  0  0  0  0  0  0  0
    5.2550    1.4610   18.9710 C   0  0  0  0  0  0  0  0  0  0  0  0
    4.5800    2.4100   18.2630 C   0  0  0  0  0  0  0  0  0  0  0  0
    3.3000    2.5590   18.8300 C   0  0  0  0  0  0  0  0  0  0  0  0
    2.0930    2.7370   19.4350 N   0  0  0  0  0  0  0  0  0  0  0  0
    6.2420    0.5720   18.5020 C   0  0  0  0  0  0  0  0  0  0  0  0
    6.8580   -0.3730   19.3390 N   0  0  0  0  0  0  0  0  0  0  0  0
    7.9630   -1.1090   22.8360 C   0  0  2  0  0  0  0  0  0  0  0  0
    7.1650   -0.7850   23.9730 C   0  0  0  0  0  0  0  0  0  0  0  0
    6.0350   -0.3170   23.8620 O   0  0  0  0  0  0  0  0  0  0  0  0
    7.7180   -1.0160   25.2200 N   0  0  0  0  0  0  0  0  0  0  0  0
    8.6540   -0.0820   25.8030 C   0  0  0  0  0  0  0  0  0  0  0  0
    9.3510   -0.2940   22.7870 C   0  0  0  0  0  0  0  0  0  0  0  0
   10.6550    0.1150   22.8320 C   0  0  0  0  0  0  0  0  0  0  0  0
   11.4600   -0.7660   23.1390 N   0  0  0  0  0  0  0  0  0  0  0  0
   12.6710   -0.9560   23.3080 C   0  0  0  0  0  0  0  0  0  0  0  0
   11.6880   -1.9590   23.4710 C   0  0  0  0  0  0  0  0  0  0  0  0
   10.1100   -1.5890   23.2100 C   0  0  0  0  0  0  0  0  0  0  0  0
    9.3900   -2.9000   23.4820 C   0  0  0  0  0  0  0  0  0  0  0  0
  1  2  1  0
  2  3  1  0
  3  4  2  0
  3  5  1  0
  5  6  1  0
  6  7  2  0
  7  8  1  0
  8  9  2  0
  9 10  1  0
 10 11  1  0
 11 12  3  0
  9 13  1  0
  6 14  1  0
 13 14  2  0
  5 15  1  0
 15 16  1  1
 16 17  2  0
 16 18  1  0
 18 19  1  0
 15 20  1  0
 20 21  2  0
 21 22  1  0
 22 23  2  0
 23 24  1  0
 20 25  1  0
 24 25  2  0
 25 26  1  0
M  END
