DAR-DIA-caba39e3-10-chloroacetamide
     RDKit          3D

 29 32  0  0  0  0  0  0  0  0999 V2000
    7.5730   -3.2240   19.2080 C   0  0  0  0  0  0  0  0  0  0  0  0
    6.7150   -3.7970   20.3190 C   0  0  0  0  0  0  0  0  0  0  0  0
    5.6870   -4.4280   19.9550 O   0  0  0  0  0  0  0  0  0  0  0  0
    7.1560   -3.6060   21.6800 N   0  0  0  0  0  0  0  0  0  0  0  0
    6.5490   -4.2780   22.8050 C   0  0  0  0  0  0  0  0  0  0  0  0
    7.3610   -4.6170   23.9030 C   0  0  0  0  0  0  0  0  0  0  0  0
    6.8520   -5.3890   24.9640 C   0  0  0  0  0  0  0  0  0  0  0  0
    7.7340   -5.7530   26.1290 C   0  0  0  0  0  0  0  0  0  0  0  0
    9.0410   -5.3070   26.1020 C   0  0  0  0  0  0  0  0  0  0  0  0
    9.5290   -4.5440   25.0580 C   0  0  0  0  0  0  0  0  0  0  0  0
    8.7060   -4.2020   23.9950 C   0  0  0  0  0  0  0  0  0  0  0  0
    9.4250   -3.3230   22.9550 C   0  0  2  0  0  0  0  0  0  0  0  0
   10.2750   -2.1180   23.4720 C   0  0  0  0  0  0  0  0  0  0  0  0
    9.9030   -1.5120   24.6370 C   0  0  0  0  0  0  0  0  0  0  0  0
   10.5900   -0.3510   25.1990 C   0  0  0  0  0  0  0  0  0  0  0  0
   10.1420    0.0790   26.2480 O   0  0  0  0  0  0  0  0  0  0  0  0
    9.0240   -0.5770   26.8340 C   0  0  0  0  0  0  0  0  0  0  0  0
   11.7110    0.1640   24.4410 C   0  0  0  0  0  0  0  0  0  0  0  0
   12.1240   -0.4060   23.2410 C   0  0  0  0  0  0  0  0  0  0  0  0
   13.2140    0.2100   22.4770 C   0  0  0  0  0  0  0  0  0  0  0  0
   13.6980   -0.2150   21.0290 C   0  0  0  0  0  0  0  0  0  0  0  0
   14.8470    0.5830   19.5530 S   0  0  0  0  0  0  0  0  0  0  0  0
   14.7080    2.2100   19.0360 N   0  0  0  0  0  0  0  0  0  0  0  0
   16.1810    0.8260   19.5570 O   0  0  0  0  0  0  0  0  0  0  0  0
   14.3620   -0.0610   18.3860 O   0  0  0  0  0  0  0  0  0  0  0  0
   12.8860   -1.5060   20.8580 C   0  0  0  0  0  0  0  0  0  0  0  0
   11.8230   -2.1040   21.6730 C   0  0  0  0  0  0  0  0  0  0  0  0
   11.4030   -1.5590   22.7940 C   0  0  0  0  0  0  0  0  0  0  0  0
    8.3680   -2.8020   21.9280 C   0  0  0  0  0  0  0  0  0  0  0  0
  1  2  1  0
  2  3  2  0
  2  4  1  0
  4  5  1  0
  5  6  1  0
  6  7  1  0
  7  8  2  0
  8  9  1  0
  9 10  2  0
  6 11  2  0
 10 11  1  0
 11 12  1  0
 12 13  1  1
 13 14  2  0
 14 15  1  0
 15 16  1  0
 16 17  1  0
 15 18  2  0
 18 19  1  0
 19 20  1  0
 20 21  2  0
 21 22  1  0
 22 23  1  0
 22 24  2  0
 22 25  2  0
 21 26  1  0
 26 27  2  0
 13 28  1  0
 19 28  2  0
 27 28  1  0
  4 29  1  0
 12 29  1  0
M  END
