DAR-DIA-eace69ff-3
     RDKit          3D

 31 34  0  0  0  0  0  0  0  0999 V2000
   13.0220   -2.7440   23.5840 C   0  0  0  0  0  0  0  0  0  0  0  0
   12.4060   -2.1530   22.3470 C   0  0  0  0  0  0  0  0  0  0  0  0
   12.3830   -0.6420   22.4740 C   0  0  0  0  0  0  0  0  0  0  0  0
   13.4850   -0.1450   21.8420 C   0  0  0  0  0  0  0  0  0  0  0  0
   13.9000    1.2100   21.7360 C   0  0  0  0  0  0  0  0  0  0  0  0
   15.0260    1.5360   21.0060 O   0  0  0  0  0  0  0  0  0  0  0  0
   15.5710    0.9940   19.4940 C   0  0  0  0  0  0  0  0  0  0  0  0
   14.9950   -0.1970   19.0160 C   0  0  0  0  0  0  0  0  0  0  0  0
   15.6140   -0.3610   17.8410 C   0  0  0  0  0  0  0  0  0  0  0  0
   15.5390    0.6210   16.7980 C   0  0  0  0  0  0  0  0  0  0  0  0
   16.2660    1.3510   17.7100 C   0  0  0  0  0  0  0  0  0  0  0  0
   16.6790    1.3360   18.7870 C   0  0  0  0  0  0  0  0  0  0  0  0
   12.8070    2.1330   22.5700 C   0  0  0  0  0  0  0  0  0  0  0  0
   12.5650    3.5300   22.9750 C   0  0  0  0  0  0  0  0  0  0  0  0
   13.3430    5.0940   22.9110 S   0  0  0  0  0  0  0  0  0  0  0  0
   13.0400    6.0150   21.8630 O   0  0  0  0  0  0  0  0  0  0  0  0
   14.6570    4.8230   23.3480 O   0  0  0  0  0  0  0  0  0  0  0  0
   12.4180    5.9150   24.1690 C   0  0  0  0  0  0  0  0  0  0  0  0
   11.4130    6.2750   23.2660 C   0  0  0  0  0  0  0  0  0  0  0  0
   10.1180    7.1300   23.7630 C   0  0  0  0  0  0  0  0  0  0  0  0
    9.7060    7.6780   25.0920 C   0  0  0  0  0  0  0  0  0  0  0  0
   10.8650    7.1140   25.5120 C   0  0  0  0  0  0  0  0  0  0  0  0
   11.3360    6.5970   24.4510 C   0  0  0  0  0  0  0  0  0  0  0  0
   11.2160    3.5570   23.7030 C   0  0  0  0  0  0  0  0  0  0  0  0
   10.7760    2.3050   23.7510 N   0  0  0  0  0  0  0  0  0  0  0  0
    9.5140    1.9210   24.3740 C   0  0  0  0  0  0  0  0  0  0  0  0
    8.6410    3.0980   24.2920 N   0  0  0  0  0  0  0  0  0  0  0  0
    8.6210    3.6250   22.9190 C   0  0  0  0  0  0  0  0  0  0  0  0
    7.5140    3.0530   25.1850 C   0  0  0  0  0  0  0  0  0  0  0  0
   11.6580    1.4600   23.1460 C   0  0  0  0  0  0  0  0  0  0  0  0
   11.4530    0.0900   23.1000 C   0  0  0  0  0  0  0  0  0  0  0  0
  1  2  1  0
  2  3  1  0
  3  4  2  0
  4  5  1  0
  5  6  1  0
  6  7  1  0
  7  8  1  0
  8  9  1  0
  9 10  1  0
 10 11  1  0
  7 12  1  0
 11 12  1  0
  5 13  2  0
 13 14  1  0
 15 14  1  0
 15 16  2  0
 15 17  2  0
 15 18  1  0
 18 19  2  0
 19 20  1  0
 20 21  2  0
 21 22  1  0
 18 23  1  0
 22 23  2  0
 14 24  2  0
 24 25  1  0
 25 26  1  0
 26 27  1  0
 27 28  1  0
 27 29  1  0
 13 30  1  0
 25 30  1  0
  3 31  1  0
 30 31  2  0
M  END
