DAR-DIA-2b784ede-21-vinylsulfonamide
     RDKit          3D

 30 32  0  0  0  0  0  0  0  0999 V2000
    7.1240   -3.6510   20.2700 C   0  0  0  0  0  0  0  0  0  0  0  0
    6.9730   -2.1350   20.4660 C   0  0  0  0  0  0  0  0  0  0  0  0
    5.9270   -1.8150   21.8550 S   0  0  0  0  0  0  0  0  0  0  0  0
    4.7370   -2.9990   21.5780 O   0  0  0  0  0  0  0  0  0  0  0  0
    5.6760   -0.3540   21.8410 O   0  0  0  0  0  0  0  0  0  0  0  0
    7.2220   -1.8120   23.1430 N   0  0  0  0  0  0  0  0  0  0  0  0
    6.9260   -2.6560   24.2870 C   0  0  0  0  0  0  0  0  0  0  0  0
    5.6760   -2.4310   24.8410 C   0  0  0  0  0  0  0  0  0  0  0  0
    5.2570   -3.1620   25.9450 C   0  0  0  0  0  0  0  0  0  0  0  0
    6.0570   -4.1980   26.6040 C   0  0  0  0  0  0  0  0  0  0  0  0
    5.4930   -4.8920   27.7720 C   0  0  0  0  0  0  0  0  0  0  0  0
    5.5980   -3.8660   29.1460 Cl  0  0  0  0  0  0  0  0  0  0  0  0
    4.1770   -5.3070   27.5820 C   0  0  0  0  0  0  0  0  0  0  0  0
    3.9630   -6.5150   28.2600 C   0  0  0  0  0  0  0  0  0  0  0  0
    5.2760   -7.0400   28.7540 C   0  0  0  0  0  0  0  0  0  0  0  0
    6.2430   -5.9970   28.2040 C   0  0  0  0  0  0  0  0  0  0  0  0
    7.3380   -4.4560   26.0620 C   0  0  0  0  0  0  0  0  0  0  0  0
    7.7720   -3.6280   24.8380 C   0  0  0  0  0  0  0  0  0  0  0  0
    8.0580   -0.5750   23.5040 C   0  0  1  0  0  0  0  0  0  0  0  0
    7.5950   -0.1610   24.8920 C   0  0  0  0  0  0  0  0  0  0  0  0
    6.8340    0.8050   24.8270 O   0  0  0  0  0  0  0  0  0  0  0  0
    7.9250   -0.7080   26.1190 N   0  0  0  0  0  0  0  0  0  0  0  0
    9.1380   -0.4690   26.7990 C   0  0  0  0  0  0  0  0  0  0  0  0
    9.4800   -0.5820   23.2080 C   0  0  0  0  0  0  0  0  0  0  0  0
   10.1000   -1.6880   22.6360 C   0  0  0  0  0  0  0  0  0  0  0  0
   11.4100   -1.8540   22.2840 N   0  0  0  0  0  0  0  0  0  0  0  0
   12.3190   -0.8670   22.4810 C   0  0  0  0  0  0  0  0  0  0  0  0
   11.8600    0.3080   23.0520 C   0  0  0  0  0  0  0  0  0  0  0  0
   10.3840    0.5010   23.4460 C   0  0  0  0  0  0  0  0  0  0  0  0
    9.9670    1.8250   24.0560 C   0  0  0  0  0  0  0  0  0  0  0  0
  1  2  1  0
  2  3  1  0
  3  4  2  0
  3  5  2  0
  3  6  1  0
  6  7  1  0
  7  8  2  0
  8  9  1  0
  9 10  2  0
 10 11  1  0
 11 12  1  0
 11 13  1  0
 13 14  1  0
 14 15  1  0
 11 16  1  0
 15 16  1  0
 10 17  1  0
  7 18  1  0
 17 18  2  0
  6 19  1  0
 19 20  1  1
 20 21  2  0
 20 22  1  0
 22 23  1  0
 19 24  1  0
 24 25  2  0
 25 26  1  0
 26 27  2  0
 27 28  1  0
 24 29  1  0
 28 29  2  0
 29 30  1  0
M  END
