DAR-DIA-842b4336-19-vinylsulfonamide
     RDKit          3D

 23 25  0  0  0  0  0  0  0  0999 V2000
    6.7960   -3.4960   19.2440 C   0  0  0  0  0  0  0  0  0  0  0  0
    6.8080   -2.5480   20.3640 C   0  0  0  0  0  0  0  0  0  0  0  0
    6.5530   -3.3690   21.9010 S   0  0  0  0  0  0  0  0  0  0  0  0
    4.9700   -3.5700   21.7220 O   0  0  0  0  0  0  0  0  0  0  0  0
    7.4310   -4.4880   22.1700 O   0  0  0  0  0  0  0  0  0  0  0  0
    7.5810   -1.9500   22.5170 C   0  0  0  0  0  0  0  0  0  0  0  0
    8.8500   -2.3200   22.8380 C   0  0  0  0  0  0  0  0  0  0  0  0
    7.9980   -0.8690   22.7990 C   0  0  0  0  0  0  0  0  0  0  0  0
    9.0520   -0.2780   23.1370 C   0  0  0  0  0  0  0  0  0  0  0  0
    9.5570    0.9300   23.3490 N   0  0  0  0  0  0  0  0  0  0  0  0
    9.2890    1.3350   22.0800 C   0  0  0  0  0  0  0  0  0  0  0  0
    9.5060    2.4060   21.5510 O   0  0  0  0  0  0  0  0  0  0  0  0
    8.6340    0.3310   21.3510 C   0  0  0  0  0  0  0  0  0  0  0  0
    7.4700    0.6540   20.4980 C   0  0  0  0  0  0  0  0  0  0  0  0
    6.1600    0.9290   20.8730 C   0  0  0  0  0  0  0  0  0  0  0  0
    5.2210    1.2300   19.8960 C   0  0  0  0  0  0  0  0  0  0  0  0
    4.7100    1.2560   21.1740 C   0  0  0  0  0  0  0  0  0  0  0  0
    3.6300    1.5890   20.4110 C   0  0  0  0  0  0  0  0  0  0  0  0
    3.6990    1.6810   19.0200 C   0  0  0  0  0  0  0  0  0  0  0  0
    4.7470    1.4780   18.1530 N   0  0  0  0  0  0  0  0  0  0  0  0
    5.9870    1.1470   18.5700 C   0  0  0  0  0  0  0  0  0  0  0  0
    7.0590    0.8390   19.2410 N   0  0  0  0  0  0  0  0  0  0  0  0
    9.3870   -1.7310   23.1000 S   0  0  0  0  0  0  0  0  0  0  0  0
  1  2  1  0
  3  2  1  0
  3  4  2  0
  3  5  2  0
  3  6  1  0
  6  7  2  0
  7  8  1  0
  8  9  2  0
  9 10  1  0
 10 11  1  0
 11 12  2  0
 11 13  1  0
 13 14  1  0
 14 15  2  0
 15 16  1  0
 16 17  2  0
 17 18  1  0
 18 19  2  0
 19 20  1  0
 16 21  1  0
 20 21  2  0
 14 22  1  0
 21 22  1  0
  6 23  1  0
  9 23  1  0
M  END
