DAR-DIA-caba39e3-5-chloroacetamide
     RDKit          3D

 29 32  0  0  0  0  0  0  0  0999 V2000
    7.2900   -3.0080   18.9070 C   0  0  0  0  0  0  0  0  0  0  0  0
    6.4090   -3.4150   20.0330 C   0  0  0  0  0  0  0  0  0  0  0  0
    5.5310   -4.2780   19.8630 O   0  0  0  0  0  0  0  0  0  0  0  0
    6.6300   -2.7870   21.2840 N   0  0  0  0  0  0  0  0  0  0  0  0
    6.1310   -3.3950   22.5440 C   0  0  0  0  0  0  0  0  0  0  0  0
    7.2420   -3.8460   23.4790 C   0  0  0  0  0  0  0  0  0  0  0  0
    6.9290   -4.7500   24.5030 C   0  0  0  0  0  0  0  0  0  0  0  0
    7.9140   -5.2000   25.3830 C   0  0  0  0  0  0  0  0  0  0  0  0
    9.2180   -4.7560   25.2480 C   0  0  0  0  0  0  0  0  0  0  0  0
    9.5470   -3.8570   24.2400 C   0  0  0  0  0  0  0  0  0  0  0  0
    8.5670   -3.3870   23.3440 C   0  0  0  0  0  0  0  0  0  0  0  0
    8.9340   -2.4020   22.2470 C   0  0  2  0  0  0  0  0  0  0  0  0
    9.7830   -1.2390   22.6780 C   0  0  0  0  0  0  0  0  0  0  0  0
   11.1450   -1.3030   22.4280 C   0  0  0  0  0  0  0  0  0  0  0  0
   11.9530   -0.2710   22.7850 C   0  0  0  0  0  0  0  0  0  0  0  0
   13.5490   -0.4280   22.4420 Cl  0  0  0  0  0  0  0  0  0  0  0  0
   11.4750    0.8510   23.3930 C   0  0  0  0  0  0  0  0  0  0  0  0
   10.1350    1.0230   23.6810 C   0  0  0  0  0  0  0  0  0  0  0  0
    9.3630    2.0490   24.2640 C   0  0  0  0  0  0  0  0  0  0  0  0
    9.7420    3.3250   24.7660 C   0  0  0  0  0  0  0  0  0  0  0  0
    9.2660    4.2950   23.9130 C   0  0  0  0  0  0  0  0  0  0  0  0
    9.6320    5.5350   24.3770 N   0  0  0  0  0  0  0  0  0  0  0  0
   10.8560    5.9120   23.8540 C   0  0  0  0  0  0  0  0  0  0  0  0
   11.9650    5.9430   24.8640 C   0  0  0  0  0  0  0  0  0  0  0  0
   11.0470    6.2040   22.6820 O   0  0  0  0  0  0  0  0  0  0  0  0
    8.0620    1.5800   24.2600 C   0  0  0  0  0  0  0  0  0  0  0  0
    8.0410    0.3330   23.6940 N   0  0  0  0  0  0  0  0  0  0  0  0
    9.3070   -0.0470   23.3160 C   0  0  0  0  0  0  0  0  0  0  0  0
    7.7430   -1.8490   21.4380 C   0  0  0  0  0  0  0  0  0  0  0  0
  1  2  1  0
  2  3  2  0
  2  4  1  0
  4  5  1  0
  5  6  1  0
  6  7  1  0
  7  8  2  0
  8  9  1  0
  9 10  2  0
  6 11  2  0
 10 11  1  0
 11 12  1  0
 12 13  1  1
 13 14  2  0
 14 15  1  0
 15 16  1  0
 15 17  2  0
 17 18  1  0
 18 19  1  0
 19 20  1  0
 20 21  1  0
 21 22  1  0
 22 23  1  0
 23 24  1  0
 23 25  2  0
 19 26  2  0
 26 27  1  0
 13 28  1  0
 18 28  2  0
 27 28  1  0
  4 29  1  0
 12 29  1  0
M  END
