DAR-DIA-2b784ede-31-acrylamide
     RDKit          3D

 26 27  0  0  0  0  0  0  0  0999 V2000
    7.8720   -3.5370   20.6920 C   0  0  0  0  0  0  0  0  0  0  0  0
    7.0140   -2.2700   20.8200 C   0  0  0  0  0  0  0  0  0  0  0  0
    6.0310   -2.3340   21.9650 C   0  0  0  0  0  0  0  0  0  0  0  0
    4.7630   -3.0550   21.6400 O   0  0  0  0  0  0  0  0  0  0  0  0
    6.6740   -1.6410   23.2310 N   0  0  0  0  0  0  0  0  0  0  0  0
    6.7490   -2.4250   24.4200 C   0  0  0  0  0  0  0  0  0  0  0  0
    7.1820   -1.6060   25.5450 C   0  0  0  0  0  0  0  0  0  0  0  0
    7.3980   -2.2370   27.0770 C   0  0  0  0  0  0  0  0  0  0  0  0
    7.8020   -0.7630   27.2940 C   0  0  0  0  0  0  0  0  0  0  0  0
    9.1340   -0.4350   26.5840 C   0  0  0  0  0  0  0  0  0  0  0  0
    8.0170   -0.5700   28.8060 C   0  0  0  0  0  0  0  0  0  0  0  0
    6.7550    0.1910   26.8480 C   0  0  0  0  0  0  0  0  0  0  0  0
    6.9790   -3.3530   26.4140 O   0  0  0  0  0  0  0  0  0  0  0  0
    7.0010   -2.4620   25.5950 N   0  0  0  0  0  0  0  0  0  0  0  0
    7.7790   -0.4280   23.1690 C   0  0  2  0  0  0  0  0  0  0  0  0
    7.1010    0.6270   22.2510 C   0  0  0  0  0  0  0  0  0  0  0  0
    6.1270    1.2900   22.6170 O   0  0  0  0  0  0  0  0  0  0  0  0
    7.6780    0.7740   20.9960 N   0  0  0  0  0  0  0  0  0  0  0  0
    6.9640    0.3690   19.8010 C   0  0  0  0  0  0  0  0  0  0  0  0
    9.4210   -0.4500   23.0180 C   0  0  0  0  0  0  0  0  0  0  0  0
   10.1030    0.9130   22.8790 C   0  0  0  0  0  0  0  0  0  0  0  0
   11.3760    0.4590   22.7630 N   0  0  0  0  0  0  0  0  0  0  0  0
   11.0190   -0.6910   22.8500 C   0  0  0  0  0  0  0  0  0  0  0  0
   11.5560   -1.9460   22.8490 C   0  0  0  0  0  0  0  0  0  0  0  0
   10.1310   -1.7880   23.0180 C   0  0  0  0  0  0  0  0  0  0  0  0
    9.3370   -3.0220   23.2080 C   0  0  0  0  0  0  0  0  0  0  0  0
  1  2  1  0
  2  3  1  0
  3  4  2  0
  3  5  1  0
  5  6  1  0
  6  7  1  0
  7  8  2  0
  8  9  1  0
  9 10  1  0
  9 11  1  0
  9 12  1  0
  8 13  1  0
  6 14  2  0
 13 14  1  0
  5 15  1  0
 15 16  1  6
 16 17  2  0
 16 18  1  0
 18 19  1  0
 15 20  1  0
 20 21  2  0
 21 22  1  0
 22 23  2  0
 23 24  1  0
 20 25  1  0
 24 25  2  0
 25 26  1  0
M  END
