DAR-DIA-2b784ede-50-vinylsulfonamide
     RDKit          3D

 36 38  0  0  0  0  0  0  0  0999 V2000
    6.4500   -4.1040   20.1920 C   0  0  0  0  0  0  0  0  0  0  0  0
    7.0210   -3.5370   21.5120 C   0  0  0  0  0  0  0  0  0  0  0  0
    5.7610   -2.8760   22.5950 S   0  0  0  0  0  0  0  0  0  0  0  0
    4.4730   -3.3770   22.1070 O   0  0  0  0  0  0  0  0  0  0  0  0
    6.1310   -3.2840   23.9380 O   0  0  0  0  0  0  0  0  0  0  0  0
    5.7610   -1.1270   22.4770 N   0  0  0  0  0  0  0  0  0  0  0  0
    4.6860   -0.7650   21.5570 C   0  0  0  0  0  0  0  0  0  0  0  0
    4.5430    0.2940   22.5370 C   0  0  0  0  0  0  0  0  0  0  0  0
    5.5720   -0.2160   23.3180 C   0  0  0  0  0  0  0  0  0  0  0  0
    5.9680    0.3870   24.5300 C   0  0  0  0  0  0  0  0  0  0  0  0
    7.1370    1.1550   24.5890 C   0  0  0  0  0  0  0  0  0  0  0  0
    5.8900   -0.5700   25.7410 C   0  0  0  0  0  0  0  0  0  0  0  0
    4.9380    1.4750   24.8380 C   0  0  0  0  0  0  0  0  0  0  0  0
    6.0270   -1.4240   22.5580 N   0  0  0  0  0  0  0  0  0  0  0  0
    5.3630   -1.8610   21.2140 N   0  0  0  0  0  0  0  0  0  0  0  0
    6.9810   -0.4700   21.8420 C   0  0  1  0  0  0  0  0  0  0  0  0
    8.3280   -0.6380   22.2760 C   0  0  0  0  0  0  0  0  0  0  0  0
    8.8870    0.4520   22.4000 O   0  0  0  0  0  0  0  0  0  0  0  0
    8.9500   -1.7660   22.4840 N   0  0  0  0  0  0  0  0  0  0  0  0
   10.0400   -1.4640   23.2060 C   0  0  0  0  0  0  0  0  0  0  0  0
    9.7930   -0.9980   24.4430 C   0  0  0  0  0  0  0  0  0  0  0  0
    8.5380   -0.8500   24.9500 C   0  0  0  0  0  0  0  0  0  0  0  0
    7.7490   -1.9790   24.7900 C   0  0  0  0  0  0  0  0  0  0  0  0
   10.8070   -0.6090   25.3730 C   0  0  0  0  0  0  0  0  0  0  0  0
   12.1610   -0.6760   25.0790 C   0  0  0  0  0  0  0  0  0  0  0  0
   12.6920   -1.1820   23.7200 C   0  0  0  0  0  0  0  0  0  0  0  0
   11.4270   -1.5510   22.8850 C   0  0  0  0  0  0  0  0  0  0  0  0
   12.2430   -2.0130   21.6850 C   0  0  0  0  0  0  0  0  0  0  0  0
   13.1790   -2.6930   22.6860 C   0  0  0  0  0  0  0  0  0  0  0  0
   12.5420   -3.1210   23.8920 O   0  0  0  0  0  0  0  0  0  0  0  0
    6.8030   -0.8520   20.4070 C   0  0  0  0  0  0  0  0  0  0  0  0
    5.7270   -0.1690   19.5670 C   0  0  0  0  0  0  0  0  0  0  0  0
    5.5890   -0.6160   18.2040 C   0  0  0  0  0  0  0  0  0  0  0  0
    6.5390   -1.7010   17.7990 C   0  0  0  0  0  0  0  0  0  0  0  0
    7.4690   -2.2640   18.5430 N   0  0  0  0  0  0  0  0  0  0  0  0
    7.5830   -1.8360   19.8120 C   0  0  0  0  0  0  0  0  0  0  0  0
  1  2  1  0
  2  3  1  0
  3  4  2  0
  3  5  2  0
  3  6  1  0
  6  7  1  0
  7  8  2  0
  8  9  1  0
  9 10  1  0
 10 11  1  0
 10 12  1  0
 10 13  1  0
  9 14  2  0
  7 15  1  0
 14 15  1  0
  6 16  1  0
 16 17  1  1
 17 18  2  0
 17 19  1  0
 19 20  1  0
 20 21  2  0
 21 22  1  0
 22 23  1  0
 21 24  1  0
 24 25  2  0
 25 26  1  0
 20 27  1  0
 26 27  2  0
 27 28  1  0
 28 29  1  0
 29 30  1  0
 16 31  1  0
 31 32  2  0
 32 33  1  0
 33 34  2  0
 34 35  1  0
 31 36  1  0
 35 36  2  0
M  END
