DAR-DIA-2b784ede-44-vinylsulfonamide
     RDKit          3D

 34 37  0  0  0  0  0  0  0  0999 V2000
    6.4740   -4.1290   20.1460 C   0  0  0  0  0  0  0  0  0  0  0  0
    6.7610   -4.2680   21.6580 C   0  0  0  0  0  0  0  0  0  0  0  0
    5.7230   -3.1870   22.6360 S   0  0  0  0  0  0  0  0  0  0  0  0
    4.3880   -3.2700   22.0990 O   0  0  0  0  0  0  0  0  0  0  0  0
    5.9310   -3.5990   24.0100 O   0  0  0  0  0  0  0  0  0  0  0  0
    6.2460   -1.5670   22.5380 N   0  0  0  0  0  0  0  0  0  0  0  0
    6.3420   -0.7560   23.7350 C   0  0  2  0  0  0  0  0  0  0  0  0
    7.7630   -0.3270   23.8890 C   0  0  0  0  0  0  0  0  0  0  0  0
    8.4720   -1.2600   24.8180 C   0  0  0  0  0  0  0  0  0  0  0  0
    9.3810   -2.3690   24.2120 C   0  0  0  0  0  0  0  0  0  0  0  0
   10.8210   -2.0040   24.4710 C   0  0  0  0  0  0  0  0  0  0  0  0
   10.7710   -0.6400   25.0810 C   0  0  0  0  0  0  0  0  0  0  0  0
    9.4990   -0.3920   25.6320 C   0  0  0  0  0  0  0  0  0  0  0  0
    7.4180   -1.7640   25.6310 C   0  0  0  0  0  0  0  0  0  0  0  0
    6.1040   -1.5320   24.9540 N   0  0  0  0  0  0  0  0  0  0  0  0
    7.2280   -1.1050   21.5350 C   0  0  1  0  0  0  0  0  0  0  0  0
    8.3330   -1.9830   21.4400 C   0  0  0  0  0  0  0  0  0  0  0  0
    9.4900   -2.3810   21.3390 O   0  0  0  0  0  0  0  0  0  0  0  0
    8.9640   -0.7440   21.3330 N   0  0  0  0  0  0  0  0  0  0  0  0
   10.1120   -0.2560   22.0560 C   0  0  0  0  0  0  0  0  0  0  0  0
    9.8970    1.0820   22.7570 C   0  0  0  0  0  0  0  0  0  0  0  0
    8.5630    1.8150   22.6720 C   0  0  0  0  0  0  0  0  0  0  0  0
   10.9220    1.6730   23.4910 C   0  0  0  0  0  0  0  0  0  0  0  0
   12.1710    1.0830   23.6080 C   0  0  0  0  0  0  0  0  0  0  0  0
   12.4830   -0.1230   23.0160 C   0  0  0  0  0  0  0  0  0  0  0  0
   11.4100   -0.8590   22.1870 C   0  0  0  0  0  0  0  0  0  0  0  0
   11.8700   -2.2030   21.5630 C   0  0  0  0  0  0  0  0  0  0  0  0
   13.0530   -2.7230   22.1720 O   0  0  0  0  0  0  0  0  0  0  0  0
    6.5270   -0.5130   20.3050 C   0  0  0  0  0  0  0  0  0  0  0  0
    5.1750    0.1290   20.4630 C   0  0  0  0  0  0  0  0  0  0  0  0
    4.5450    0.6800   19.3530 C   0  0  0  0  0  0  0  0  0  0  0  0
    5.1870    0.6240   18.1220 C   0  0  0  0  0  0  0  0  0  0  0  0
    6.3930    0.0550   17.9520 N   0  0  0  0  0  0  0  0  0  0  0  0
    7.0310   -0.4960   19.0110 C   0  0  0  0  0  0  0  0  0  0  0  0
  1  2  1  0
  2  3  1  0
  3  4  2  0
  3  5  2  0
  3  6  1  0
  7  6  1  6
  7  8  1  0
  9  8  1  0
  9 10  1  0
 10 11  1  0
 11 12  1  0
  9 13  1  0
 12 13  1  0
  9 14  1  0
  7 15  1  0
 14 15  1  0
  6 16  1  0
 16 17  1  6
 17 18  2  0
 17 19  1  0
 19 20  1  0
 20 21  2  0
 21 22  1  0
 21 23  1  0
 23 24  2  0
 24 25  1  0
 20 26  1  0
 25 26  2  0
 26 27  1  0
 27 28  1  0
 16 29  1  0
 29 30  2  0
 30 31  1  0
 31 32  2  0
 32 33  1  0
 29 34  1  0
 33 34  2  0
M  END
