DAR-DIA-2b784ede-22-nitrile
     RDKit          3D

 28 30  0  0  0  0  0  0  0  0999 V2000
    7.0670   -3.3850   19.9880 C   0  0  0  0  0  0  0  0  0  0  0  0
    5.9230   -3.8960   19.6320 N   0  0  0  0  0  0  0  0  0  0  0  0
    7.0390   -2.5900   21.3010 N   0  0  0  0  0  0  0  0  0  0  0  0
    6.0070   -3.3250   21.7760 C   0  0  0  0  0  0  0  0  0  0  0  0
    6.0110   -2.4920   20.7210 C   0  0  0  0  0  0  0  0  0  0  0  0
    7.4310   -1.8620   20.8590 C   0  0  0  0  0  0  0  0  0  0  0  0
    8.3930   -2.2490   21.9670 C   0  0  0  0  0  0  0  0  0  0  0  0
    9.8250   -1.7670   22.3450 C   0  0  0  0  0  0  0  0  0  0  0  0
   11.0720   -2.2570   21.6000 C   0  0  0  0  0  0  0  0  0  0  0  0
   12.0680   -2.5730   21.0820 N   0  0  0  0  0  0  0  0  0  0  0  0
   10.1190   -2.0290   23.8240 C   0  0  0  0  0  0  0  0  0  0  0  0
   11.1560   -0.9670   24.2290 C   0  0  0  0  0  0  0  0  0  0  0  0
   11.0870    0.1130   23.1190 C   0  0  0  0  0  0  0  0  0  0  0  0
    9.7680   -0.2580   22.4000 C   0  0  0  0  0  0  0  0  0  0  0  0
    7.9810   -3.2220   22.8890 C   0  0  0  0  0  0  0  0  0  0  0  0
    6.7600   -3.7760   22.8030 C   0  0  0  0  0  0  0  0  0  0  0  0
    6.6310   -1.0230   21.4430 C   0  0  1  0  0  0  0  0  0  0  0  0
    5.3290   -0.6720   20.9730 C   0  0  0  0  0  0  0  0  0  0  0  0
    4.3520   -0.7330   21.7360 O   0  0  0  0  0  0  0  0  0  0  0  0
    5.0820   -0.2220   19.7070 N   0  0  0  0  0  0  0  0  0  0  0  0
    5.5080   -0.9630   18.6620 C   0  0  0  0  0  0  0  0  0  0  0  0
    6.9190   -0.4170   22.8790 C   0  0  0  0  0  0  0  0  0  0  0  0
    6.3790   -1.3630   22.3390 C   0  0  0  0  0  0  0  0  0  0  0  0
    6.6640   -0.8290   21.0200 N   0  0  0  0  0  0  0  0  0  0  0  0
    7.4260    0.4960   21.0510 C   0  0  0  0  0  0  0  0  0  0  0  0
    8.1050    1.6720   21.9580 C   0  0  0  0  0  0  0  0  0  0  0  0
    7.4390    0.4960   22.0880 C   0  0  0  0  0  0  0  0  0  0  0  0
    7.3610    0.3390   20.6740 C   0  0  0  0  0  0  0  0  0  0  0  0
  1  2  2  3
  1  3  1  0
  3  4  1  0
  4  5  2  0
  5  6  1  0
  6  7  2  0
  7  8  1  0
  8  9  1  0
  9 10  3  0
  8 11  1  0
 11 12  1  0
 12 13  1  0
  8 14  1  0
 13 14  1  0
  7 15  1  0
  4 16  1  0
 15 16  2  0
  3 17  1  0
 17 18  1  1
 18 19  2  0
 18 20  1  0
 20 21  1  0
 17 22  1  0
 22 23  2  0
 23 24  1  0
 24 25  2  0
 25 26  1  0
 22 27  1  0
 26 27  2  0
 27 28  1  0
M  END
