DAR-DIA-caba39e3-9-chloroacetamide
     RDKit          3D

 25 28  0  0  0  0  0  0  0  0999 V2000
    7.3200   -3.0480   18.9230 C   0  0  0  0  0  0  0  0  0  0  0  0
    6.4120   -3.4250   20.0730 C   0  0  0  0  0  0  0  0  0  0  0  0
    5.5090   -4.2460   19.8310 O   0  0  0  0  0  0  0  0  0  0  0  0
    6.6550   -2.8460   21.3460 N   0  0  0  0  0  0  0  0  0  0  0  0
    6.2310   -3.5330   22.5440 C   0  0  0  0  0  0  0  0  0  0  0  0
    7.1910   -3.9530   23.4740 C   0  0  0  0  0  0  0  0  0  0  0  0
    6.8450   -4.7880   24.5520 C   0  0  0  0  0  0  0  0  0  0  0  0
    7.8950   -5.2310   25.5310 C   0  0  0  0  0  0  0  0  0  0  0  0
    9.1910   -4.7850   25.3250 C   0  0  0  0  0  0  0  0  0  0  0  0
    9.5270   -3.9600   24.2680 C   0  0  0  0  0  0  0  0  0  0  0  0
    8.5290   -3.5630   23.3690 C   0  0  0  0  0  0  0  0  0  0  0  0
    9.0370   -2.6520   22.2490 C   0  0  2  0  0  0  0  0  0  0  0  0
    9.9970   -1.5620   22.6810 C   0  0  0  0  0  0  0  0  0  0  0  0
   11.3370   -1.5360   22.3150 C   0  0  0  0  0  0  0  0  0  0  0  0
   12.2240   -0.4520   22.7370 C   0  0  0  0  0  0  0  0  0  0  0  0
   13.3600   -0.3610   22.4580 O   0  0  0  0  0  0  0  0  0  0  0  0
   13.5370    0.9940   22.6890 C   0  0  0  0  0  0  0  0  0  0  0  0
   11.6470    0.5540   23.5180 C   0  0  0  0  0  0  0  0  0  0  0  0
   10.3270    0.5320   23.8800 C   0  0  0  0  0  0  0  0  0  0  0  0
    9.8520    1.5900   24.6450 C   0  0  0  0  0  0  0  0  0  0  0  0
    8.4480    1.7170   25.1430 C   0  0  0  0  0  0  0  0  0  0  0  0
    7.5560    0.5910   24.7380 C   0  0  0  0  0  0  0  0  0  0  0  0
    8.1040   -0.5290   23.8920 C   0  0  0  0  0  0  0  0  0  0  0  0
    9.4650   -0.5290   23.4850 C   0  0  0  0  0  0  0  0  0  0  0  0
    7.8600   -2.0280   21.4560 C   0  0  0  0  0  0  0  0  0  0  0  0
  1  2  1  0
  2  3  2  0
  2  4  1  0
  4  5  1  0
  5  6  1  0
  6  7  1  0
  7  8  2  0
  8  9  1  0
  9 10  2  0
  6 11  2  0
 10 11  1  0
 11 12  1  0
 12 13  1  1
 13 14  2  0
 14 15  1  0
 15 16  1  0
 16 17  1  0
 15 18  2  0
 18 19  1  0
 19 20  1  0
 20 21  2  0
 21 22  1  0
 22 23  2  0
 13 24  1  0
 19 24  2  0
 23 24  1  0
  4 25  1  0
 12 25  1  0
M  END
