DAR-DIA-fb20be43-7-nitrile
     RDKit          3D

 21 23  0  0  0  0  0  0  0  0999 V2000
    6.9240   -3.2570   19.7070 C   0  0  0  0  0  0  0  0  0  0  0  0
    5.8080   -3.6040   19.2430 N   0  0  0  0  0  0  0  0  0  0  0  0
    7.0320   -2.5860   20.8860 N   0  0  0  0  0  0  0  0  0  0  0  0
    6.5600   -3.2010   22.1350 C   0  0  0  0  0  0  0  0  0  0  0  0
    7.7540   -3.4450   23.0820 C   0  0  0  0  0  0  0  0  0  0  0  0
    8.5700   -2.2280   23.1320 N   0  0  0  0  0  0  0  0  0  0  0  0
    9.8290   -2.3730   23.8540 C   0  0  0  0  0  0  0  0  0  0  0  0
   10.7880   -1.2760   23.5190 C   0  0  0  0  0  0  0  0  0  0  0  0
   11.9330   -1.5410   22.7950 C   0  0  0  0  0  0  0  0  0  0  0  0
   12.7930   -0.5280   22.4580 C   0  0  0  0  0  0  0  0  0  0  0  0
   13.7790   -0.4390   21.8780 O   0  0  0  0  0  0  0  0  0  0  0  0
   13.9260    0.9220   21.9720 C   0  0  0  0  0  0  0  0  0  0  0  0
   12.4100    0.8730   22.9230 C   0  0  0  0  0  0  0  0  0  0  0  0
   11.2870    1.1340   23.6260 C   0  0  0  0  0  0  0  0  0  0  0  0
   10.9990    2.4590   23.9890 C   0  0  0  0  0  0  0  0  0  0  0  0
    9.8410    2.7620   24.7260 C   0  0  0  0  0  0  0  0  0  0  0  0
    8.9810    1.7300   25.1010 C   0  0  0  0  0  0  0  0  0  0  0  0
    9.3160    0.3380   24.6880 C   0  0  0  0  0  0  0  0  0  0  0  0
   10.4640    0.0390   23.9430 C   0  0  0  0  0  0  0  0  0  0  0  0
    8.8060   -1.6320   21.8560 C   0  0  0  0  0  0  0  0  0  0  0  0
    7.7350   -1.3110   21.0180 C   0  0  0  0  0  0  0  0  0  0  0  0
  1  2  2  3
  1  3  1  0
  3  4  1  0
  4  5  1  0
  5  6  1  0
  6  7  1  0
  7  8  1  0
  8  9  2  0
  9 10  1  0
 10 11  1  0
 11 12  1  0
 10 13  2  0
 13 14  1  0
 14 15  1  0
 15 16  2  0
 16 17  1  0
 17 18  2  0
  8 19  1  0
 14 19  2  0
 18 19  1  0
  6 20  1  0
  3 21  1  0
 20 21  1  0
M  END
