DAR-DIA-2b784ede-52-acrylamide
     RDKit          3D

 34 36  0  0  0  0  0  0  0  0999 V2000
    6.6390   -3.6320   19.8170 C   0  0  0  0  0  0  0  0  0  0  0  0
    6.3810   -4.1650   21.2400 C   0  0  0  0  0  0  0  0  0  0  0  0
    5.4390   -3.2390   22.0060 C   0  0  0  0  0  0  0  0  0  0  0  0
    4.3800   -3.7560   22.3670 O   0  0  0  0  0  0  0  0  0  0  0  0
    5.7040   -1.8710   22.2940 N   0  0  0  0  0  0  0  0  0  0  0  0
    4.5970   -0.8980   21.9380 C   0  0  0  0  0  0  0  0  0  0  0  0
    4.7440   -1.1230   23.4310 C   0  0  0  0  0  0  0  0  0  0  0  0
    5.8800   -2.1270   23.3210 C   0  0  0  0  0  0  0  0  0  0  0  0
    5.8430   -2.2070   24.8420 C   0  0  0  0  0  0  0  0  0  0  0  0
    6.6660   -3.3490   25.3570 C   0  0  0  0  0  0  0  0  0  0  0  0
    6.3600   -0.9330   25.5490 C   0  0  0  0  0  0  0  0  0  0  0  0
    4.3880   -2.4390   25.3240 C   0  0  0  0  0  0  0  0  0  0  0  0
    5.2490   -1.4960   22.2320 N   0  0  0  0  0  0  0  0  0  0  0  0
    5.2050   -1.3690   20.8860 N   0  0  0  0  0  0  0  0  0  0  0  0
    7.0580   -1.2570   21.9710 C   0  0  1  0  0  0  0  0  0  0  0  0
    8.1600   -2.1450   22.0630 C   0  0  0  0  0  0  0  0  0  0  0  0
    8.0010   -3.3310   22.3750 O   0  0  0  0  0  0  0  0  0  0  0  0
    9.4330   -1.5900   21.8070 N   0  0  0  0  0  0  0  0  0  0  0  0
   10.5570   -1.5060   22.8030 C   0  0  0  0  0  0  0  0  0  0  0  0
   11.8820   -2.0580   22.3750 C   0  0  0  0  0  0  0  0  0  0  0  0
   12.1270   -2.6560   21.0090 C   0  0  0  0  0  0  0  0  0  0  0  0
   13.3400   -3.5250   20.7840 C   0  0  0  0  0  0  0  0  0  0  0  0
   12.9030   -2.0080   23.2600 C   0  0  0  0  0  0  0  0  0  0  0  0
   12.7600   -1.4600   24.5210 C   0  0  0  0  0  0  0  0  0  0  0  0
   11.5170   -0.7900   25.2480 C   0  0  0  0  0  0  0  0  0  0  0  0
   10.4290   -0.9380   24.0940 C   0  0  0  0  0  0  0  0  0  0  0  0
    9.0920   -0.3530   24.5260 C   0  0  0  0  0  0  0  0  0  0  0  0
    9.2370    1.0580   24.7500 O   0  0  0  0  0  0  0  0  0  0  0  0
    6.8650   -0.5480   20.6460 C   0  0  0  0  0  0  0  0  0  0  0  0
    6.2860   -1.1530   19.5170 C   0  0  0  0  0  0  0  0  0  0  0  0
    6.1110   -0.4420   18.3510 C   0  0  0  0  0  0  0  0  0  0  0  0
    6.5200    0.8710   18.3200 C   0  0  0  0  0  0  0  0  0  0  0  0
    7.0830    1.4880   19.3780 N   0  0  0  0  0  0  0  0  0  0  0  0
    7.2470    0.7790   20.5150 C   0  0  0  0  0  0  0  0  0  0  0  0
  1  2  1  0
  2  3  1  0
  3  4  2  0
  3  5  1  0
  5  6  1  0
  6  7  2  0
  7  8  1  0
  8  9  1  0
  9 10  1  0
  9 11  1  0
  9 12  1  0
  8 13  2  0
  6 14  1  0
 13 14  1  0
  5 15  1  0
 15 16  1  6
 16 17  2  0
 16 18  1  0
 18 19  1  0
 19 20  2  0
 20 21  1  0
 21 22  1  0
 20 23  1  0
 23 24  2  0
 24 25  1  0
 19 26  1  0
 25 26  2  0
 26 27  1  0
 27 28  1  0
 15 29  1  0
 29 30  2  0
 30 31  1  0
 31 32  2  0
 32 33  1  0
 29 34  1  0
 33 34  2  0
M  END
