DAR-DIA-fb20be43-14-nitrile
     RDKit          3D

 26 28  0  0  0  0  0  0  0  0999 V2000
    6.8440   -3.5190   19.8100 C   0  0  0  0  0  0  0  0  0  0  0  0
    5.8900   -4.3590   19.8470 N   0  0  0  0  0  0  0  0  0  0  0  0
    6.9690   -2.6650   20.8740 N   0  0  0  0  0  0  0  0  0  0  0  0
    6.5580   -3.1290   22.2100 C   0  0  0  0  0  0  0  0  0  0  0  0
    7.7510   -3.0610   23.1750 C   0  0  0  0  0  0  0  0  0  0  0  0
    8.2710   -1.6940   23.2460 N   0  0  0  0  0  0  0  0  0  0  0  0
    9.2710   -1.5390   24.3030 C   0  0  0  0  0  0  0  0  0  0  0  0
   10.4580   -0.7540   23.7870 C   0  0  0  0  0  0  0  0  0  0  0  0
   11.5740   -1.5660   23.2300 C   0  0  0  0  0  0  0  0  0  0  0  0
   12.7440   -0.8280   22.6930 C   0  0  0  0  0  0  0  0  0  0  0  0
   13.7680   -1.4530   22.1510 O   0  0  0  0  0  0  0  0  0  0  0  0
   13.3980   -1.8140   20.8520 C   0  0  0  0  0  0  0  0  0  0  0  0
   12.8150    0.5570   22.7050 C   0  0  0  0  0  0  0  0  0  0  0  0
   11.7540    1.2670   23.2180 C   0  0  0  0  0  0  0  0  0  0  0  0
   11.5720    2.6350   23.3090 C   0  0  0  0  0  0  0  0  0  0  0  0
   12.4970    3.6010   22.8370 C   0  0  0  0  0  0  0  0  0  0  0  0
   12.3250    4.9130   23.2960 C   0  0  0  0  0  0  0  0  0  0  0  0
   11.2000    5.5660   22.6400 N   0  0  0  0  0  0  0  0  0  0  0  0
   10.2140    6.1780   23.3720 C   0  0  0  0  0  0  0  0  0  0  0  0
    9.1480    6.6350   22.5910 C   0  0  0  0  0  0  0  0  0  0  0  0
   10.2500    6.3170   24.5920 O   0  0  0  0  0  0  0  0  0  0  0  0
   10.3390    2.9330   23.9180 C   0  0  0  0  0  0  0  0  0  0  0  0
    9.7800    1.6920   24.1800 N   0  0  0  0  0  0  0  0  0  0  0  0
   10.6150    0.6550   23.7520 C   0  0  0  0  0  0  0  0  0  0  0  0
    8.7270   -1.2630   21.9040 C   0  0  0  0  0  0  0  0  0  0  0  0
    7.6280   -1.3510   20.8250 C   0  0  0  0  0  0  0  0  0  0  0  0
  1  2  2  3
  1  3  1  0
  3  4  1  0
  4  5  1  0
  5  6  1  0
  6  7  1  0
  7  8  1  0
  8  9  2  0
  9 10  1  0
 10 11  1  0
 11 12  1  0
 10 13  2  0
 13 14  1  0
 14 15  1  0
 15 16  1  0
 16 17  1  0
 17 18  1  0
 18 19  1  0
 19 20  1  0
 19 21  2  0
 15 22  2  0
 22 23  1  0
  8 24  1  0
 14 24  2  0
 23 24  1  0
  6 25  1  0
  3 26  1  0
 25 26  1  0
M  END
