DAR-DIA-fb20be43-2-nitrile
     RDKit          3D

 20 22  0  0  0  0  0  0  0  0999 V2000
    6.8300   -3.2890   19.6210 C   0  0  0  0  0  0  0  0  0  0  0  0
    5.8360   -3.2030   18.8450 N   0  0  0  0  0  0  0  0  0  0  0  0
    6.8840   -2.5970   20.8000 N   0  0  0  0  0  0  0  0  0  0  0  0
    6.4900   -3.2430   22.0700 C   0  0  0  0  0  0  0  0  0  0  0  0
    7.7170   -3.4670   22.9930 C   0  0  0  0  0  0  0  0  0  0  0  0
    8.4540   -2.2100   23.1110 N   0  0  0  0  0  0  0  0  0  0  0  0
    9.6500   -2.2780   23.9490 C   0  0  0  0  0  0  0  0  0  0  0  0
   10.7370   -1.3280   23.5320 C   0  0  0  0  0  0  0  0  0  0  0  0
   11.8380   -1.7660   22.8280 C   0  0  0  0  0  0  0  0  0  0  0  0
   12.8030   -0.8740   22.4400 C   0  0  0  0  0  0  0  0  0  0  0  0
   13.8070   -1.3430   21.7630 F   0  0  0  0  0  0  0  0  0  0  0  0
   12.6970    0.4770   22.7490 C   0  0  0  0  0  0  0  0  0  0  0  0
   11.5940    0.9370   23.4420 C   0  0  0  0  0  0  0  0  0  0  0  0
   11.4680    2.2950   23.7160 C   0  0  0  0  0  0  0  0  0  0  0  0
   10.3450    2.8000   24.4180 C   0  0  0  0  0  0  0  0  0  0  0  0
    9.3340    1.9200   24.8630 C   0  0  0  0  0  0  0  0  0  0  0  0
    9.4310    0.5610   24.6020 C   0  0  0  0  0  0  0  0  0  0  0  0
   10.6100    0.0450   23.8480 C   0  0  0  0  0  0  0  0  0  0  0  0
    8.7390   -1.6110   21.8230 C   0  0  0  0  0  0  0  0  0  0  0  0
    7.6520   -1.3480   20.9960 C   0  0  0  0  0  0  0  0  0  0  0  0
  1  2  2  3
  1  3  1  0
  3  4  1  0
  4  5  1  0
  5  6  1  0
  6  7  1  0
  7  8  1  0
  8  9  2  0
  9 10  1  0
 10 11  1  0
 10 12  2  0
 12 13  1  0
 13 14  1  0
 14 15  2  0
 15 16  1  0
 16 17  2  0
  8 18  1  0
 13 18  2  0
 17 18  1  0
  6 19  1  0
  3 20  1  0
 19 20  1  0
M  END
