DAR-DIA-23aa0b97-9-nitrile
     RDKit          3D

 19 20  0  0  0  0  0  0  0  0999 V2000
    7.9950   -3.4650   19.8100 C   0  0  0  0  0  0  0  0  0  0  0  0
    6.6930   -3.6120   19.5660 N   0  0  0  0  0  0  0  0  0  0  0  0
    8.6340   -2.6200   21.0170 C   0  0  0  0  0  0  0  0  0  0  0  0
   10.1600   -2.5360   21.3910 C   0  0  0  0  0  0  0  0  0  0  0  0
   10.7200   -1.8480   22.3860 N   0  0  0  0  0  0  0  0  0  0  0  0
    9.8250   -1.1060   23.1830 C   0  0  0  0  0  0  0  0  0  0  0  0
    8.3050   -1.0530   22.9680 C   0  0  0  0  0  0  0  0  0  0  0  0
    7.2660   -0.6950   23.2210 N   0  0  0  0  0  0  0  0  0  0  0  0
    6.8120    0.1340   22.1160 C   0  0  0  0  0  0  0  0  0  0  0  0
    7.3070    1.4460   21.8420 O   0  0  0  0  0  0  0  0  0  0  0  0
    5.8300   -0.5960   21.3330 N   0  0  0  0  0  0  0  0  0  0  0  0
    5.5580    0.1630   20.1350 C   0  0  0  0  0  0  0  0  0  0  0  0
    6.4080   -0.1070   19.0590 C   0  0  0  0  0  0  0  0  0  0  0  0
    6.1480    0.6380   17.9040 N   0  0  0  0  0  0  0  0  0  0  0  0
    5.0890    1.6160   17.8010 C   0  0  0  0  0  0  0  0  0  0  0  0
    4.2800    1.8350   18.8950 C   0  0  0  0  0  0  0  0  0  0  0  0
    3.3380    2.7530   18.6880 N   0  0  0  0  0  0  0  0  0  0  0  0
    4.5230    1.0760   20.1170 C   0  0  0  0  0  0  0  0  0  0  0  0
    7.8600   -1.8580   21.8610 C   0  0  0  0  0  0  0  0  0  0  0  0
  1  2  2  3
  1  3  1  0
  3  4  2  0
  4  5  1  0
  5  6  2  0
  6  7  1  0
  7  8  1  0
  8  9  1  0
  9 10  2  0
  9 11  1  0
 11 12  1  0
 12 13  2  0
 13 14  1  0
 14 15  2  0
 15 16  1  0
 16 17  1  0
 12 18  1  0
 16 18  2  0
  3 19  1  0
  7 19  2  0
M  END
