DAR-DIA-caba39e3-7-chloroacetamide
     RDKit          3D

 24 27  0  0  0  0  0  0  0  0999 V2000
    7.3900   -3.0170   18.8840 C   0  0  0  0  0  0  0  0  0  0  0  0
    6.5210   -3.3810   20.0270 C   0  0  0  0  0  0  0  0  0  0  0  0
    5.5950   -4.2060   19.8550 O   0  0  0  0  0  0  0  0  0  0  0  0
    6.8250   -2.7710   21.2780 N   0  0  0  0  0  0  0  0  0  0  0  0
    6.2970   -3.3270   22.5610 C   0  0  0  0  0  0  0  0  0  0  0  0
    7.3830   -3.8040   23.5110 C   0  0  0  0  0  0  0  0  0  0  0  0
    7.0420   -4.6600   24.5670 C   0  0  0  0  0  0  0  0  0  0  0  0
    8.0190   -5.1200   25.4480 C   0  0  0  0  0  0  0  0  0  0  0  0
    9.3450   -4.7290   25.2850 C   0  0  0  0  0  0  0  0  0  0  0  0
    9.6990   -3.8760   24.2450 C   0  0  0  0  0  0  0  0  0  0  0  0
    8.7200   -3.4070   23.3480 C   0  0  0  0  0  0  0  0  0  0  0  0
    9.0570   -2.4840   22.1970 C   0  0  2  0  0  0  0  0  0  0  0  0
   10.0840   -1.4370   22.5980 C   0  0  0  0  0  0  0  0  0  0  0  0
   11.4310   -1.5820   22.2390 C   0  0  0  0  0  0  0  0  0  0  0  0
   12.3230   -0.6130   22.6040 C   0  0  0  0  0  0  0  0  0  0  0  0
   13.5990   -0.7350   22.2710 F   0  0  0  0  0  0  0  0  0  0  0  0
   11.8680    0.4810   23.3090 C   0  0  0  0  0  0  0  0  0  0  0  0
   10.5410    0.7460   23.7310 C   0  0  0  0  0  0  0  0  0  0  0  0
   10.0290    1.8290   24.4300 C   0  0  0  0  0  0  0  0  0  0  0  0
    8.7240    2.1090   24.8670 C   0  0  0  0  0  0  0  0  0  0  0  0
    7.8720    1.1210   24.5110 C   0  0  0  0  0  0  0  0  0  0  0  0
    8.2060   -0.1210   23.7510 C   0  0  0  0  0  0  0  0  0  0  0  0
    9.6650   -0.2860   23.3420 C   0  0  0  0  0  0  0  0  0  0  0  0
    8.0110   -1.8950   21.4190 C   0  0  0  0  0  0  0  0  0  0  0  0
  1  2  1  0
  2  3  2  0
  2  4  1  0
  4  5  1  0
  5  6  1  0
  6  7  1  0
  7  8  2  0
  8  9  1  0
  9 10  2  0
  6 11  2  0
 10 11  1  0
 11 12  1  0
 12 13  1  1
 13 14  2  0
 14 15  1  0
 15 16  1  0
 15 17  2  0
 17 18  1  0
 18 19  1  0
 19 20  2  0
 20 21  1  0
 21 22  2  0
 13 23  1  0
 18 23  2  0
 22 23  1  0
  4 24  1  0
 12 24  1  0
M  END
