DAR-DIA-23aa0b97-16
     RDKit          3D

 17 18  0  0  0  0  0  0  0  0999 V2000
    9.2420    1.5030   21.3400 O   0  0  0  0  0  0  0  0  0  0  0  0
    8.7110    0.4930   21.8210 C   0  0  0  0  0  0  0  0  0  0  0  0
    9.1120   -0.0630   23.1890 C   0  0  0  0  0  0  0  0  0  0  0  0
   10.4400   -0.5180   23.2780 C   0  0  0  0  0  0  0  0  0  0  0  0
   11.2060   -0.2560   24.4090 C   0  0  0  0  0  0  0  0  0  0  0  0
   12.4930   -0.6700   24.5780 N   0  0  0  0  0  0  0  0  0  0  0  0
   13.0310   -1.3860   23.5700 C   0  0  0  0  0  0  0  0  0  0  0  0
   12.3460   -1.6990   22.4030 C   0  0  0  0  0  0  0  0  0  0  0  0
   13.0310   -2.6030   21.1450 Cl  0  0  0  0  0  0  0  0  0  0  0  0
   11.0470   -1.2530   22.2730 C   0  0  0  0  0  0  0  0  0  0  0  0
    7.6950   -0.2400   21.2320 N   0  0  0  0  0  0  0  0  0  0  0  0
    6.9270    0.1720   20.1650 C   0  0  0  0  0  0  0  0  0  0  0  0
    5.8030    1.0990   20.3980 C   0  0  0  0  0  0  0  0  0  0  0  0
    4.9570    1.6030   19.4410 C   0  0  0  0  0  0  0  0  0  0  0  0
    5.3320    1.0800   18.0820 C   0  0  0  0  0  0  0  0  0  0  0  0
    6.3560    0.2250   17.8390 N   0  0  0  0  0  0  0  0  0  0  0  0
    7.1290   -0.2180   18.8630 C   0  0  0  0  0  0  0  0  0  0  0  0
  1  2  2  0
  2  3  1  0
  3  4  1  0
  4  5  2  0
  5  6  1  0
  6  7  2  0
  7  8  1  0
  8  9  1  0
  4 10  1  0
  8 10  2  0
  2 11  1  0
 11 12  1  0
 12 13  2  0
 13 14  1  0
 14 15  2  0
 15 16  1  0
 12 17  1  0
 16 17  2  0
M  END
