DAR-DIA-3e9bbd81-1-acrylamide
     RDKit          3D

 23 26  0  0  0  0  0  0  0  0999 V2000
    8.0360   -3.5520   19.3550 C   0  0  0  0  0  0  0  0  0  0  0  0
    6.9680   -2.5590   19.0040 C   0  0  0  0  0  0  0  0  0  0  0  0
    5.9300   -2.6580   20.0650 C   0  0  0  0  0  0  0  0  0  0  0  0
    4.8610   -3.2740   19.8930 O   0  0  0  0  0  0  0  0  0  0  0  0
    6.2650   -2.0800   21.2580 N   0  0  0  0  0  0  0  0  0  0  0  0
    7.1060   -0.8660   21.4320 C   0  0  0  0  0  0  0  0  0  0  0  0
    8.3110   -1.5560   22.1230 C   0  0  2  0  0  0  0  0  0  0  0  0
    7.7550   -2.8680   21.7080 C   0  0  0  0  0  0  0  0  0  0  0  0
    6.4170   -2.7940   22.5180 C   0  0  1  0  0  0  0  0  0  0  0  0
    7.5900   -3.2250   23.3850 C   0  0  0  0  0  0  0  0  0  0  0  0
    8.1760   -1.8760   23.5590 N   0  0  0  0  0  0  0  0  0  0  0  0
    9.4290   -2.0260   24.2530 C   0  0  0  0  0  0  0  0  0  0  0  0
   10.4670   -1.1430   23.6980 C   0  0  0  0  0  0  0  0  0  0  0  0
   11.4260   -1.7150   22.9050 C   0  0  0  0  0  0  0  0  0  0  0  0
   12.3910   -0.9360   22.3690 C   0  0  0  0  0  0  0  0  0  0  0  0
   13.4650   -1.7310   21.3740 Cl  0  0  0  0  0  0  0  0  0  0  0  0
   12.4450    0.4670   22.6340 C   0  0  0  0  0  0  0  0  0  0  0  0
   11.4570    1.0480   23.4180 C   0  0  0  0  0  0  0  0  0  0  0  0
   11.4520    2.4200   23.6490 C   0  0  0  0  0  0  0  0  0  0  0  0
   10.4190    2.9840   24.4260 C   0  0  0  0  0  0  0  0  0  0  0  0
    9.4220    2.1690   24.9700 C   0  0  0  0  0  0  0  0  0  0  0  0
    9.4520    0.8090   24.7400 C   0  0  0  0  0  0  0  0  0  0  0  0
   10.4490    0.2320   23.9630 C   0  0  0  0  0  0  0  0  0  0  0  0
  1  2  1  0
  2  3  1  0
  3  4  2  0
  3  5  1  0
  5  6  1  0
  7  6  1  1
  7  8  1  0
  5  9  1  0
  8  9  1  0
  9 10  1  1
  7 11  1  0
 10 11  1  0
 11 12  1  0
 12 13  1  0
 13 14  2  0
 14 15  1  0
 15 16  1  0
 15 17  2  0
 17 18  1  0
 18 19  1  0
 19 20  2  0
 20 21  1  0
 21 22  2  0
 13 23  1  0
 18 23  2  0
 22 23  1  0
M  END
