DAR-DIA-2b784ede-24-chloroacetamide
     RDKit          3D

 29 31  0  0  0  0  0  0  0  0999 V2000
    7.9690   -3.8370   20.3300 C   0  0  0  0  0  0  0  0  0  0  0  0
    7.4210   -2.6100   19.7500 C   0  0  0  0  0  0  0  0  0  0  0  0
    6.6200   -2.7690   18.7650 O   0  0  0  0  0  0  0  0  0  0  0  0
    7.8210   -1.3730   20.3340 N   0  0  0  0  0  0  0  0  0  0  0  0
    6.8100   -0.3980   20.1370 C   0  0  0  0  0  0  0  0  0  0  0  0
    6.0460    0.1160   21.2420 C   0  0  0  0  0  0  0  0  0  0  0  0
    5.1200    1.0180   20.8550 C   0  0  0  0  0  0  0  0  0  0  0  0
    4.7530    1.5610   19.5640 C   0  0  0  0  0  0  0  0  0  0  0  0
    3.6020    2.5890   19.7070 C   0  0  0  0  0  0  0  0  0  0  0  0
    3.2770    3.4150   18.4610 C   0  0  0  0  0  0  0  0  0  0  0  0
    2.9490    4.0320   17.5330 N   0  0  0  0  0  0  0  0  0  0  0  0
    3.9830    3.5000   20.8950 C   0  0  0  0  0  0  0  0  0  0  0  0
    2.6680    4.0620   21.4550 C   0  0  0  0  0  0  0  0  0  0  0  0
    1.8230    2.7870   21.4740 C   0  0  0  0  0  0  0  0  0  0  0  0
    2.2530    2.0050   20.2140 C   0  0  0  0  0  0  0  0  0  0  0  0
    5.5200    1.0300   18.5540 C   0  0  0  0  0  0  0  0  0  0  0  0
    6.5160    0.0780   18.8400 N   0  0  0  0  0  0  0  0  0  0  0  0
    8.5200   -1.5300   21.7320 C   0  0  1  0  0  0  0  0  0  0  0  0
    7.9130   -2.5550   22.4580 C   0  0  0  0  0  0  0  0  0  0  0  0
    6.6900   -2.6600   22.4400 O   0  0  0  0  0  0  0  0  0  0  0  0
    8.5730   -3.4620   23.2050 N   0  0  0  0  0  0  0  0  0  0  0  0
    7.8090   -4.4740   23.6390 C   0  0  0  0  0  0  0  0  0  0  0  0
   10.0950   -1.4080   21.9180 C   0  0  0  0  0  0  0  0  0  0  0  0
   11.5470   -1.2420   22.2540 C   0  0  0  0  0  0  0  0  0  0  0  0
   12.4300   -0.8800   23.2550 N   0  0  0  0  0  0  0  0  0  0  0  0
   11.9270   -0.5400   24.3860 C   0  0  0  0  0  0  0  0  0  0  0  0
   10.4910   -0.5830   24.4760 C   0  0  0  0  0  0  0  0  0  0  0  0
    9.6670   -1.0010   23.2860 C   0  0  0  0  0  0  0  0  0  0  0  0
    8.3420   -0.9290   23.7350 C   0  0  0  0  0  0  0  0  0  0  0  0
  1  2  1  0
  2  3  2  0
  2  4  1  0
  4  5  1  0
  5  6  2  0
  6  7  1  0
  7  8  2  0
  8  9  1  0
  9 10  1  0
 10 11  3  0
  9 12  1  0
 12 13  1  0
 13 14  1  0
  9 15  1  0
 14 15  1  0
  8 16  1  0
  5 17  1  0
 16 17  2  0
  4 18  1  0
 18 19  1  6
 19 20  2  0
 19 21  1  0
 21 22  1  0
 18 23  1  0
 23 24  2  0
 24 25  1  0
 25 26  2  0
 26 27  1  0
 23 28  1  0
 27 28  2  0
 28 29  1  0
M  END
