DAR-DIA-fb20be43-18-acrylamide
     RDKit          3D

 29 31  0  0  0  0  0  0  0  0999 V2000
    8.0560   -3.5260   19.7890 C   0  0  0  0  0  0  0  0  0  0  0  0
    7.0610   -2.6280   19.1390 C   0  0  0  0  0  0  0  0  0  0  0  0
    5.9500   -2.7000   20.1080 C   0  0  0  0  0  0  0  0  0  0  0  0
    4.9190   -3.3640   19.9010 O   0  0  0  0  0  0  0  0  0  0  0  0
    6.2150   -2.0010   21.2590 N   0  0  0  0  0  0  0  0  0  0  0  0
    7.1990   -0.9080   21.2940 C   0  0  0  0  0  0  0  0  0  0  0  0
    8.5950   -1.2740   21.8580 C   0  0  0  0  0  0  0  0  0  0  0  0
    8.6930   -2.4730   22.7280 N   0  0  0  0  0  0  0  0  0  0  0  0
    9.4690   -2.2810   23.9530 C   0  0  0  0  0  0  0  0  0  0  0  0
   10.6340   -1.3460   23.7560 C   0  0  0  0  0  0  0  0  0  0  0  0
   11.6980   -1.7840   22.9700 C   0  0  0  0  0  0  0  0  0  0  0  0
   12.7590   -0.9560   22.7740 C   0  0  0  0  0  0  0  0  0  0  0  0
   13.8130   -1.2790   22.0510 O   0  0  0  0  0  0  0  0  0  0  0  0
   13.4670   -1.8380   20.8340 C   0  0  0  0  0  0  0  0  0  0  0  0
   12.7630    0.2970   23.3420 C   0  0  0  0  0  0  0  0  0  0  0  0
   11.7530    0.7420   24.1080 N   0  0  0  0  0  0  0  0  0  0  0  0
   10.6790   -0.0830   24.3260 C   0  0  0  0  0  0  0  0  0  0  0  0
    9.6640    0.4190   25.1450 C   0  0  0  0  0  0  0  0  0  0  0  0
    9.4980    1.8690   25.1200 N   0  0  0  0  0  0  0  0  0  0  0  0
   10.3600    2.7760   24.5330 C   0  0  0  0  0  0  0  0  0  0  0  0
   11.3510    2.4610   23.8930 O   0  0  0  0  0  0  0  0  0  0  0  0
   10.0160    4.1050   24.7440 N   0  0  0  0  0  0  0  0  0  0  0  0
    9.0360    4.5690   25.7330 C   0  0  0  0  0  0  0  0  0  0  0  0
    9.4450    5.7830   26.3440 C   0  0  0  0  0  0  0  0  0  0  0  0
    9.5470    6.8680   25.4130 O   0  0  0  0  0  0  0  0  0  0  0  0
   10.2480    6.5300   24.2090 C   0  0  0  0  0  0  0  0  0  0  0  0
   10.9290    5.1440   24.2440 C   0  0  0  0  0  0  0  0  0  0  0  0
    7.5130   -3.3200   22.9160 C   0  0  0  0  0  0  0  0  0  0  0  0
    6.1460   -2.7430   22.5050 C   0  0  0  0  0  0  0  0  0  0  0  0
  1  2  1  0
  2  3  1  0
  3  4  2  0
  3  5  1  0
  5  6  1  0
  6  7  1  0
  7  8  1  0
  8  9  1  0
  9 10  1  0
 10 11  2  0
 11 12  1  0
 12 13  1  0
 13 14  1  0
 12 15  2  0
 15 16  1  0
 10 17  1  0
 16 17  2  0
 17 18  1  0
 18 19  1  0
 19 20  1  0
 20 21  2  0
 20 22  1  0
 22 23  1  0
 23 24  1  0
 24 25  1  0
 25 26  1  0
 22 27  1  0
 26 27  1  0
  8 28  1  0
  5 29  1  0
 28 29  1  0
M  END
