DAR-DIA-2b784ede-30-nitrile
     RDKit          3D

 24 25  0  0  0  0  0  0  0  0999 V2000
    6.9780   -3.7060   20.0910 C   0  0  0  0  0  0  0  0  0  0  0  0
    6.2900   -3.1760   19.1400 N   0  0  0  0  0  0  0  0  0  0  0  0
    7.5700   -2.7470   21.1790 N   0  0  0  0  0  0  0  0  0  0  0  0
    8.4830   -1.8470   20.6100 C   0  0  0  0  0  0  0  0  0  0  0  0
    8.8730   -2.8240   21.3840 C   0  0  0  0  0  0  0  0  0  0  0  0
    7.5920   -3.1790   21.7350 N   0  0  0  0  0  0  0  0  0  0  0  0
    6.7340   -2.2700   21.0140 N   0  0  0  0  0  0  0  0  0  0  0  0
    5.3230   -2.2730   21.0780 C   0  0  0  0  0  0  0  0  0  0  0  0
    4.9630   -2.3050   19.7450 C   0  0  0  0  0  0  0  0  0  0  0  0
    4.8800   -0.9490   21.7250 C   0  0  0  0  0  0  0  0  0  0  0  0
    4.8770   -3.4930   21.9110 C   0  0  0  0  0  0  0  0  0  0  0  0
    7.3850   -1.3680   20.2420 C   0  0  0  0  0  0  0  0  0  0  0  0
    8.1390   -3.0260   22.5830 C   0  0  2  0  0  0  0  0  0  0  0  0
    7.1450   -3.2380   23.7720 C   0  0  0  0  0  0  0  0  0  0  0  0
    6.7000   -2.3010   24.4440 O   0  0  0  0  0  0  0  0  0  0  0  0
    6.7820   -4.5450   24.0640 N   0  0  0  0  0  0  0  0  0  0  0  0
    7.5100   -5.6390   23.4750 C   0  0  0  0  0  0  0  0  0  0  0  0
    9.1830   -1.8750   22.8050 C   0  0  0  0  0  0  0  0  0  0  0  0
    8.8500   -0.5080   22.2990 C   0  0  0  0  0  0  0  0  0  0  0  0
    9.9620    0.4300   22.5710 N   0  0  0  0  0  0  0  0  0  0  0  0
   11.2310    0.3800   23.1650 C   0  0  0  0  0  0  0  0  0  0  0  0
   10.7690   -0.7810   23.2620 C   0  0  0  0  0  0  0  0  0  0  0  0
   10.4020   -1.9920   23.4160 C   0  0  0  0  0  0  0  0  0  0  0  0
   11.1880   -3.0770   24.0730 C   0  0  0  0  0  0  0  0  0  0  0  0
  1  2  2  3
  1  3  1  0
  3  4  1  0
  4  5  1  0
  5  6  2  0
  6  7  1  0
  7  8  1  0
  8  9  1  0
  8 10  1  0
  8 11  1  0
  4 12  2  0
  7 12  1  0
  3 13  1  0
 13 14  1  1
 14 15  2  0
 14 16  1  0
 16 17  1  0
 13 18  1  0
 18 19  2  0
 19 20  1  0
 20 21  2  0
 21 22  1  0
 18 23  1  0
 22 23  2  0
 23 24  1  0
M  END
