DAR-DIA-fb20be43-1-chloroacetamide
     RDKit          3D

 20 21  0  0  0  0  0  0  0  0999 V2000
    7.6720   -3.5870   19.6250 C   0  0  0  0  0  0  0  0  0  0  0  0
    6.4040   -2.8720   19.8540 C   0  0  0  0  0  0  0  0  0  0  0  0
    5.4490   -3.1900   19.1120 O   0  0  0  0  0  0  0  0  0  0  0  0
    6.3900   -1.9820   20.9190 N   0  0  0  0  0  0  0  0  0  0  0  0
    6.1940   -2.5120   22.2750 C   0  0  0  0  0  0  0  0  0  0  0  0
    7.5150   -2.9810   22.9230 C   0  0  0  0  0  0  0  0  0  0  0  0
    8.4670   -1.8450   22.9920 N   0  0  0  0  0  0  0  0  0  0  0  0
    9.7030   -2.2490   23.7070 C   0  0  0  0  0  0  0  0  0  0  0  0
   10.7950   -1.4110   23.4280 C   0  0  0  0  0  0  0  0  0  0  0  0
   11.7440   -1.7760   22.4770 C   0  0  0  0  0  0  0  0  0  0  0  0
   12.8160   -0.9450   22.2060 C   0  0  0  0  0  0  0  0  0  0  0  0
   13.6880   -1.3290   21.2850 F   0  0  0  0  0  0  0  0  0  0  0  0
   12.9400    0.2540   22.8910 C   0  0  0  0  0  0  0  0  0  0  0  0
   11.9820    0.6380   23.8570 N   0  0  0  0  0  0  0  0  0  0  0  0
   10.9240   -0.1960   24.1180 C   0  0  0  0  0  0  0  0  0  0  0  0
    9.9680    0.1720   25.0790 N   0  0  0  0  0  0  0  0  0  0  0  0
    9.3590    1.5050   24.9600 C   0  0  0  0  0  0  0  0  0  0  0  0
   10.2470    2.3660   24.2660 C   0  0  0  0  0  0  0  0  0  0  0  0
    8.7240   -1.4120   21.6250 C   0  0  0  0  0  0  0  0  0  0  0  0
    7.4920   -1.0010   20.8580 C   0  0  0  0  0  0  0  0  0  0  0  0
  1  2  1  0
  2  3  2  0
  2  4  1  0
  4  5  1  0
  5  6  1  0
  6  7  1  0
  7  8  1  0
  8  9  1  0
  9 10  2  0
 10 11  1  0
 11 12  1  0
 11 13  2  0
 13 14  1  0
  9 15  1  0
 14 15  2  0
 15 16  1  0
 16 17  1  0
 17 18  1  0
  7 19  1  0
  4 20  1  0
 19 20  1  0
M  END
