DAR-DIA-2b784ede-38-chloroacetamide
     RDKit          3D

 34 36  0  0  0  0  0  0  0  0999 V2000
    8.8820   -4.1200   20.1370 C   0  0  0  0  0  0  0  0  0  0  0  0
    7.8180   -3.3220   20.5900 C   0  0  0  0  0  0  0  0  0  0  0  0
    6.6320   -3.5930   19.8380 O   0  0  0  0  0  0  0  0  0  0  0  0
    8.4150   -2.3690   21.7640 N   0  0  0  0  0  0  0  0  0  0  0  0
    9.7170   -2.6520   22.6900 C   0  0  0  0  0  0  0  0  0  0  0  0
    9.6690   -2.9110   21.4650 C   0  0  0  0  0  0  0  0  0  0  0  0
    8.6220   -2.3840   22.0540 C   0  0  0  0  0  0  0  0  0  0  0  0
    8.6410   -2.0490   23.5400 C   0  0  0  0  0  0  0  0  0  0  0  0
    7.5510   -1.4830   24.2660 C   0  0  0  0  0  0  0  0  0  0  0  0
    7.1190   -2.1400   25.4040 C   0  0  0  0  0  0  0  0  0  0  0  0
    7.7780   -0.0230   24.6560 C   0  0  0  0  0  0  0  0  0  0  0  0
    6.3180   -1.5960   23.4180 C   0  0  0  0  0  0  0  0  0  0  0  0
    9.9260   -2.3900   24.1440 C   0  0  0  0  0  0  0  0  0  0  0  0
   10.9310   -3.0050   23.1380 C   0  0  0  0  0  0  0  0  0  0  0  0
    8.8150   -1.0670   21.4260 C   0  0  1  0  0  0  0  0  0  0  0  0
    7.8610   -0.1490   21.7080 C   0  0  0  0  0  0  0  0  0  0  0  0
    8.2130    0.8670   22.2770 O   0  0  0  0  0  0  0  0  0  0  0  0
    6.6280   -0.4560   21.2790 N   0  0  0  0  0  0  0  0  0  0  0  0
    6.1030    0.2200   20.2950 C   0  0  0  0  0  0  0  0  0  0  0  0
    6.3240   -0.1000   18.9590 C   0  0  0  0  0  0  0  0  0  0  0  0
    7.1140   -1.1710   18.5570 C   0  0  0  0  0  0  0  0  0  0  0  0
    5.7160    0.7020   17.8240 C   0  0  0  0  0  0  0  0  0  0  0  0
    4.9250    1.7790   18.1230 C   0  0  0  0  0  0  0  0  0  0  0  0
    4.6710    2.1380   19.4280 C   0  0  0  0  0  0  0  0  0  0  0  0
    5.2170    1.4160   20.6530 C   0  0  0  0  0  0  0  0  0  0  0  0
    4.8840    1.8890   22.0630 C   0  0  0  0  0  0  0  0  0  0  0  0
    4.7350    3.0990   22.2240 O   0  0  0  0  0  0  0  0  0  0  0  0
   10.2320   -0.6530   21.9290 C   0  0  0  0  0  0  0  0  0  0  0  0
   11.4490   -1.6030   21.8400 C   0  0  0  0  0  0  0  0  0  0  0  0
   12.7220   -1.3340   22.2530 N   0  0  0  0  0  0  0  0  0  0  0  0
   12.9430   -0.0920   22.8080 C   0  0  0  0  0  0  0  0  0  0  0  0
   11.9220    0.8400   22.9310 C   0  0  0  0  0  0  0  0  0  0  0  0
   10.4910    0.5960   22.4810 C   0  0  0  0  0  0  0  0  0  0  0  0
    9.4630    1.7070   22.6430 C   0  0  0  0  0  0  0  0  0  0  0  0
  1  2  1  0
  2  3  2  0
  2  4  1  0
  4  5  1  0
  5  6  2  0
  6  7  1  0
  7  8  2  0
  8  9  1  0
  9 10  1  0
  9 11  1  0
  9 12  1  0
  8 13  1  0
  5 14  1  0
 13 14  2  0
  4 15  1  0
 15 16  1  1
 16 17  2  0
 16 18  1  0
 18 19  1  0
 19 20  2  0
 20 21  1  0
 20 22  1  0
 22 23  2  0
 23 24  1  0
 19 25  1  0
 24 25  2  0
 25 26  1  0
 26 27  1  0
 15 28  1  0
 28 29  2  0
 29 30  1  0
 30 31  2  0
 31 32  1  0
 28 33  1  0
 32 33  2  0
 33 34  1  0
M  END
