DAR-DIA-caba39e3-1-nitrile
     RDKit          3D

 19 21  0  0  0  0  0  0  0  0999 V2000
    7.0200   -3.4800   19.8940 C   0  0  0  0  0  0  0  0  0  0  0  0
    5.8870   -3.4240   19.3080 N   0  0  0  0  0  0  0  0  0  0  0  0
    7.0960   -2.8470   21.1250 N   0  0  0  0  0  0  0  0  0  0  0  0
    6.5040   -3.2740   22.2930 C   0  0  0  0  0  0  0  0  0  0  0  0
    7.5570   -3.6950   23.3260 C   0  0  0  0  0  0  0  0  0  0  0  0
    6.9760   -4.6200   24.3700 C   0  0  0  0  0  0  0  0  0  0  0  0
    7.8990   -5.1300   25.4560 C   0  0  0  0  0  0  0  0  0  0  0  0
    9.3770   -4.7210   25.4960 C   0  0  0  0  0  0  0  0  0  0  0  0
    9.8460   -3.7630   24.3710 C   0  0  0  0  0  0  0  0  0  0  0  0
    8.8860   -3.2710   23.2880 C   0  0  0  0  0  0  0  0  0  0  0  0
    9.2970   -2.3900   22.2190 C   0  0  2  0  0  0  0  0  0  0  0  0
   10.2080   -1.4490   22.6320 C   0  0  0  0  0  0  0  0  0  0  0  0
   11.5910   -1.5250   22.2440 C   0  0  0  0  0  0  0  0  0  0  0  0
   12.5140   -0.4810   22.7240 C   0  0  0  0  0  0  0  0  0  0  0  0
   11.9140    0.5660   23.5720 C   0  0  0  0  0  0  0  0  0  0  0  0
   10.5660    0.5730   23.9060 C   0  0  0  0  0  0  0  0  0  0  0  0
   10.0500    1.5690   24.6940 F   0  0  0  0  0  0  0  0  0  0  0  0
    9.7580   -0.4190   23.4380 C   0  0  0  0  0  0  0  0  0  0  0  0
    8.1010   -1.8010   21.4190 C   0  0  0  0  0  0  0  0  0  0  0  0
  1  2  2  3
  1  3  1  0
  3  4  1  0
  4  5  1  0
  5  6  1  0
  6  7  2  0
  7  8  1  0
  8  9  2  0
  5 10  2  0
  9 10  1  0
 10 11  1  0
 11 12  1  1
 12 13  2  0
 13 14  1  0
 14 15  2  0
 15 16  1  0
 16 17  1  0
 12 18  1  0
 16 18  2  0
  3 19  1  0
 11 19  1  0
M  END
