DAR-DIA-2b784ede-20-vinylsulfonamide
     RDKit          3D

 30 32  0  0  0  0  0  0  0  0999 V2000
    5.9090   -5.2340   20.0600 C   0  0  0  0  0  0  0  0  0  0  0  0
    5.9890   -3.7460   20.0800 C   0  0  0  0  0  0  0  0  0  0  0  0
    5.7190   -3.2850   21.7750 S   0  0  0  0  0  0  0  0  0  0  0  0
    4.3270   -3.0520   21.9640 O   0  0  0  0  0  0  0  0  0  0  0  0
    6.3290   -4.3400   22.5610 O   0  0  0  0  0  0  0  0  0  0  0  0
    6.8210   -2.0180   21.7140 N   0  0  0  0  0  0  0  0  0  0  0  0
    7.8780   -2.6770   21.0730 C   0  0  0  0  0  0  0  0  0  0  0  0
    9.1980   -2.4620   21.4570 C   0  0  0  0  0  0  0  0  0  0  0  0
   10.3270   -2.0790   22.0060 C   0  0  0  0  0  0  0  0  0  0  0  0
   10.7080   -1.2650   22.9430 C   0  0  0  0  0  0  0  0  0  0  0  0
   12.2200   -1.4790   22.8720 C   0  0  0  0  0  0  0  0  0  0  0  0
   12.8920   -1.8670   21.2560 Cl  0  0  0  0  0  0  0  0  0  0  0  0
   12.8360   -0.2720   23.5400 C   0  0  0  0  0  0  0  0  0  0  0  0
   12.4140   -0.5560   24.9730 C   0  0  0  0  0  0  0  0  0  0  0  0
   12.3670   -2.0740   25.1070 C   0  0  0  0  0  0  0  0  0  0  0  0
   12.7340   -2.5890   23.7520 C   0  0  0  0  0  0  0  0  0  0  0  0
    9.5920   -1.8580   22.1670 C   0  0  0  0  0  0  0  0  0  0  0  0
    9.1360   -2.8040   21.0730 N   0  0  0  0  0  0  0  0  0  0  0  0
    6.6450   -0.5250   21.4130 C   0  0  1  0  0  0  0  0  0  0  0  0
    7.5040   -0.0330   20.4470 C   0  0  0  0  0  0  0  0  0  0  0  0
    8.0750    1.0790   20.5820 O   0  0  0  0  0  0  0  0  0  0  0  0
    7.6410   -0.8320   19.3480 N   0  0  0  0  0  0  0  0  0  0  0  0
    6.5010   -1.3600   18.6350 C   0  0  0  0  0  0  0  0  0  0  0  0
    5.3350    0.1430   20.9040 C   0  0  0  0  0  0  0  0  0  0  0  0
    5.1460    0.5840   22.2610 C   0  0  0  0  0  0  0  0  0  0  0  0
    4.3290    0.8600   21.2780 N   0  0  0  0  0  0  0  0  0  0  0  0
    4.9340    0.2320   20.1550 C   0  0  0  0  0  0  0  0  0  0  0  0
    3.7820    0.8080   19.5760 C   0  0  0  0  0  0  0  0  0  0  0  0
    4.0550    0.9620   21.0500 C   0  0  0  0  0  0  0  0  0  0  0  0
    2.7510    1.7050   20.8090 C   0  0  0  0  0  0  0  0  0  0  0  0
  1  2  1  0
  2  3  1  0
  3  4  2  0
  3  5  2  0
  3  6  1  0
  6  7  1  0
  7  8  2  0
  8  9  1  0
  9 10  2  0
 10 11  1  0
 11 12  1  0
 11 13  1  0
 13 14  1  0
 14 15  1  0
 11 16  1  0
 15 16  1  0
 10 17  1  0
  7 18  1  0
 17 18  2  0
  6 19  1  0
 19 20  1  6
 20 21  2  0
 20 22  1  0
 22 23  1  0
 19 24  1  0
 24 25  2  0
 25 26  1  0
 26 27  2  0
 27 28  1  0
 24 29  1  0
 28 29  2  0
 29 30  1  0
M  END
