DAR-DIA-0cde14eb-8
     RDKit          3D

 21 23  0  0  0  0  0  0  0  0999 V2000
    5.1650    0.6760   21.9080 C   0  0  0  0  0  0  0  0  0  0  0  0
    5.4870    0.5630   20.4470 C   0  0  0  0  0  0  0  0  0  0  0  0
    4.7860    1.3560   19.5190 C   0  0  0  0  0  0  0  0  0  0  0  0
    5.1040    1.2520   18.1790 C   0  0  0  0  0  0  0  0  0  0  0  0
    6.0490    0.4250   17.7120 N   0  0  0  0  0  0  0  0  0  0  0  0
    6.7090   -0.3320   18.6180 C   0  0  0  0  0  0  0  0  0  0  0  0
    6.4810   -0.3090   19.9740 C   0  0  0  0  0  0  0  0  0  0  0  0
    7.2150   -1.1030   20.8750 N   0  0  0  0  0  0  0  0  0  0  0  0
    8.3790   -0.5570   21.3230 C   0  0  0  0  0  0  0  0  0  0  0  0
    8.5960    0.6420   21.1760 O   0  0  0  0  0  0  0  0  0  0  0  0
    9.2930   -1.3940   21.9340 N   0  0  0  0  0  0  0  0  0  0  0  0
   10.3400   -0.6580   22.4770 C   0  0  0  0  0  0  0  0  0  0  0  0
   11.6780   -1.0300   22.4360 C   0  0  0  0  0  0  0  0  0  0  0  0
   12.6240   -0.1670   23.0060 C   0  0  0  0  0  0  0  0  0  0  0  0
   12.2020    1.0420   23.5940 C   0  0  0  0  0  0  0  0  0  0  0  0
   10.8360    1.4180   23.6270 C   0  0  0  0  0  0  0  0  0  0  0  0
   10.1250    2.6640   24.1730 C   0  0  0  0  0  0  0  0  0  0  0  0
   10.9860    4.5920   23.8140 I   0  0  0  0  0  0  0  0  0  0  0  0
    8.6310    2.7290   23.8930 C   0  0  0  0  0  0  0  0  0  0  0  0
    9.1000    2.5770   25.2940 C   0  0  0  0  0  0  0  0  0  0  0  0
    9.9730    0.5240   23.0610 C   0  0  0  0  0  0  0  0  0  0  0  0
  1  2  1  0
  2  3  2  0
  3  4  1  0
  4  5  2  0
  5  6  1  0
  2  7  1  0
  6  7  2  0
  7  8  1  0
  8  9  1  0
  9 10  2  0
  9 11  1  0
 11 12  1  0
 12 13  2  0
 13 14  1  0
 14 15  2  0
 15 16  1  0
 16 17  1  0
 17 18  1  0
 17 19  1  0
 17 20  1  0
 19 20  1  0
 12 21  1  0
 16 21  2  0
M  END
