DAR-DIA-23aa0b97-6-vinylsulfonamide
     RDKit          3D

 21 22  0  0  0  0  0  0  0  0999 V2000
    6.8240   -3.5510   19.8240 C   0  0  0  0  0  0  0  0  0  0  0  0
    6.9710   -2.3530   20.7650 C   0  0  0  0  0  0  0  0  0  0  0  0
    5.3180   -1.8770   21.0960 S   0  0  0  0  0  0  0  0  0  0  0  0
    4.7140   -3.1100   21.5760 O   0  0  0  0  0  0  0  0  0  0  0  0
    4.8720   -1.3110   19.8420 O   0  0  0  0  0  0  0  0  0  0  0  0
    5.2130   -0.4980   22.2410 C   0  0  0  0  0  0  0  0  0  0  0  0
    4.1000    0.2230   22.4690 C   0  0  0  0  0  0  0  0  0  0  0  0
    4.0980    1.2770   23.3020 N   0  0  0  0  0  0  0  0  0  0  0  0
    5.0960    1.8790   24.0840 C   0  0  0  0  0  0  0  0  0  0  0  0
    6.2050    1.0240   23.7640 C   0  0  0  0  0  0  0  0  0  0  0  0
    7.4140    1.3460   24.3970 N   0  0  0  0  0  0  0  0  0  0  0  0
    8.2010    0.3680   24.9770 C   0  0  0  0  0  0  0  0  0  0  0  0
    7.7900   -0.7330   25.3280 O   0  0  0  0  0  0  0  0  0  0  0  0
    9.6480    0.7490   25.1600 C   0  0  0  0  0  0  0  0  0  0  0  0
   10.5920    0.1080   24.1950 C   0  0  0  0  0  0  0  0  0  0  0  0
   10.4550   -1.1980   23.7430 C   0  0  0  0  0  0  0  0  0  0  0  0
   11.4920   -1.6940   22.7780 C   0  0  0  0  0  0  0  0  0  0  0  0
   12.5140   -0.8510   22.3870 C   0  0  0  0  0  0  0  0  0  0  0  0
   12.6230    0.4150   22.8350 N   0  0  0  0  0  0  0  0  0  0  0  0
   11.6880    0.8580   23.7080 C   0  0  0  0  0  0  0  0  0  0  0  0
    6.2850   -0.0660   22.9320 C   0  0  0  0  0  0  0  0  0  0  0  0
  1  2  1  0
  3  2  1  0
  3  4  2  0
  3  5  2  0
  3  6  1  0
  6  7  2  0
  7  8  1  0
  8  9  2  0
  9 10  1  0
 10 11  1  0
 11 12  1  0
 12 13  2  0
 12 14  1  0
 14 15  1  0
 15 16  2  0
 16 17  1  0
 17 18  2  0
 18 19  1  0
 15 20  1  0
 19 20  2  0
  6 21  1  0
 10 21  2  0
M  END
