DAR-DIA-03336633-11
     RDKit          3D

 27 29  0  0  0  0  0  0  0  0999 V2000
    8.4530    0.8380   21.0430 O   0  0  0  0  0  0  0  0  0  0  0  0
    8.1220   -0.2680   21.4580 C   0  0  0  0  0  0  0  0  0  0  0  0
    8.9510   -1.0340   22.3480 N   0  0  0  0  0  0  0  0  0  0  0  0
   10.2950   -0.5980   22.6920 C   0  0  0  0  0  0  0  0  0  0  0  0
   11.4140   -1.4340   22.0530 C   0  0  0  0  0  0  0  0  0  0  0  0
   12.8290   -0.9860   22.3690 C   0  0  0  0  0  0  0  0  0  0  0  0
   12.9060    0.1980   23.2510 C   0  0  0  0  0  0  0  0  0  0  0  0
   11.8470    0.8780   23.7830 C   0  0  0  0  0  0  0  0  0  0  0  0
   10.5470    0.4960   23.5170 C   0  0  0  0  0  0  0  0  0  0  0  0
    6.9460   -0.9060   21.1410 N   0  0  0  0  0  0  0  0  0  0  0  0
    6.3030   -0.2050   20.2290 C   0  0  0  0  0  0  0  0  0  0  0  0
    6.8820   -0.2750   18.8390 C   0  0  0  0  0  0  0  0  0  0  0  0
    6.1600    0.5170   17.8570 N   0  0  0  0  0  0  0  0  0  0  0  0
    5.0480    1.2640   18.1610 C   0  0  0  0  0  0  0  0  0  0  0  0
    4.5600    1.2950   19.4050 C   0  0  0  0  0  0  0  0  0  0  0  0
    5.1390    0.5870   20.4720 C   0  0  0  0  0  0  0  0  0  0  0  0
    4.5590    0.6720   21.7420 C   0  0  0  0  0  0  0  0  0  0  0  0
    4.4380    1.9770   22.2480 C   0  0  0  0  0  0  0  0  0  0  0  0
    3.2010    2.5850   22.2610 N   0  0  0  0  0  0  0  0  0  0  0  0
    2.4090    2.4290   23.3770 C   0  0  0  0  0  0  0  0  0  0  0  0
    2.6580    1.5930   24.2440 O   0  0  0  0  0  0  0  0  0  0  0  0
    1.3370    3.3200   23.4740 N   0  0  0  0  0  0  0  0  0  0  0  0
    1.1270    3.6590   24.7340 C   0  0  0  0  0  0  0  0  0  0  0  0
    0.5760    4.9090   24.8040 C   0  0  0  0  0  0  0  0  0  0  0  0
   -0.7020    5.0100   24.2980 C   0  0  0  0  0  0  0  0  0  0  0  0
   -1.0260    3.9590   23.4220 C   0  0  0  0  0  0  0  0  0  0  0  0
   -0.0140    3.1010   22.8700 C   0  0  0  0  0  0  0  0  0  0  0  0
  1  2  2  0
  2  3  1  0
  3  4  1  0
  4  5  2  0
  5  6  1  0
  6  7  2  0
  7  8  1  0
  4  9  1  0
  8  9  2  0
  2 10  1  0
 10 11  1  0
 11 12  2  0
 12 13  1  0
 13 14  2  0
 14 15  1  0
 11 16  1  0
 15 16  2  0
 16 17  1  0
 17 18  1  0
 18 19  1  0
 19 20  1  0
 20 21  2  0
 20 22  1  0
 22 23  1  0
 23 24  1  0
 24 25  1  0
 25 26  1  0
 22 27  1  0
 26 27  1  0
M  END
