DAR-DIA-23aa0b97-8-acrylamide
     RDKit          3D

 21 22  0  0  0  0  0  0  0  0999 V2000
    6.6020   -5.8000   20.6450 C   0  0  0  0  0  0  0  0  0  0  0  0
    6.0220   -5.2310   21.9330 C   0  0  0  0  0  0  0  0  0  0  0  0
    5.8390   -3.7420   22.0110 C   0  0  0  0  0  0  0  0  0  0  0  0
    4.7740   -3.2470   21.6390 O   0  0  0  0  0  0  0  0  0  0  0  0
    6.9810   -2.9280   22.5440 C   0  0  0  0  0  0  0  0  0  0  0  0
    8.0410   -2.2490   21.8830 C   0  0  0  0  0  0  0  0  0  0  0  0
    9.1390   -1.4750   22.5860 C   0  0  0  0  0  0  0  0  0  0  0  0
    9.4600   -1.1880   24.0300 C   0  0  0  0  0  0  0  0  0  0  0  0
    8.2590   -1.9870   24.3220 C   0  0  0  0  0  0  0  0  0  0  0  0
    8.5300   -1.7940   22.9490 N   0  0  0  0  0  0  0  0  0  0  0  0
    8.3230   -0.5500   22.2870 C   0  0  0  0  0  0  0  0  0  0  0  0
    8.3800    0.5610   22.8280 O   0  0  0  0  0  0  0  0  0  0  0  0
    8.0330   -0.7140   20.9310 N   0  0  0  0  0  0  0  0  0  0  0  0
    6.9190   -0.2020   20.2240 C   0  0  0  0  0  0  0  0  0  0  0  0
    7.0120   -0.2390   18.7420 C   0  0  0  0  0  0  0  0  0  0  0  0
    6.0570    0.2120   17.9160 N   0  0  0  0  0  0  0  0  0  0  0  0
    4.9530    0.7190   18.5070 C   0  0  0  0  0  0  0  0  0  0  0  0
    4.7430    0.8040   19.8740 C   0  0  0  0  0  0  0  0  0  0  0  0
    3.5580    1.3440   20.3780 N   0  0  0  0  0  0  0  0  0  0  0  0
    5.7350    0.3390   20.7530 C   0  0  0  0  0  0  0  0  0  0  0  0
    7.2910   -2.6630   23.7700 C   0  0  0  0  0  0  0  0  0  0  0  0
  1  2  1  0
  2  3  1  0
  3  4  2  0
  3  5  1  0
  5  6  2  0
  6  7  1  0
  7  8  2  0
  8  9  1  0
  9 10  1  0
 10 11  1  0
 11 12  2  0
 11 13  1  0
 13 14  1  0
 14 15  2  0
 15 16  1  0
 16 17  2  0
 17 18  1  0
 18 19  1  0
 14 20  1  0
 18 20  2  0
  5 21  1  0
  9 21  2  0
M  END
