DAR-DIA-2b784ede-31-chloroacetamide
     RDKit          3D

 25 26  0  0  0  0  0  0  0  0999 V2000
    8.3890   -2.6030   20.3760 C   0  0  0  0  0  0  0  0  0  0  0  0
    6.9070   -2.6060   20.8680 C   0  0  0  0  0  0  0  0  0  0  0  0
    6.3250   -3.0060   19.6910 O   0  0  0  0  0  0  0  0  0  0  0  0
    7.6090   -2.1240   22.2870 N   0  0  0  0  0  0  0  0  0  0  0  0
    6.7130   -2.4590   23.3720 C   0  0  0  0  0  0  0  0  0  0  0  0
    6.3570   -1.5480   24.3670 C   0  0  0  0  0  0  0  0  0  0  0  0
    5.4420   -1.9900   25.2840 C   0  0  0  0  0  0  0  0  0  0  0  0
    4.4310   -2.1190   26.4480 C   0  0  0  0  0  0  0  0  0  0  0  0
    3.1720   -2.5970   26.0840 C   0  0  0  0  0  0  0  0  0  0  0  0
    4.6320   -1.0270   27.4050 C   0  0  0  0  0  0  0  0  0  0  0  0
    4.7740   -3.3890   27.3330 C   0  0  0  0  0  0  0  0  0  0  0  0
    5.3880   -3.1600   24.7640 O   0  0  0  0  0  0  0  0  0  0  0  0
    6.1090   -3.5710   23.5660 N   0  0  0  0  0  0  0  0  0  0  0  0
    8.2950   -0.7780   22.5550 C   0  0  1  0  0  0  0  0  0  0  0  0
    7.3690    0.1170   23.4660 C   0  0  0  0  0  0  0  0  0  0  0  0
    7.2800   -0.0950   24.8170 O   0  0  0  0  0  0  0  0  0  0  0  0
    6.8160    1.3010   22.9610 N   0  0  0  0  0  0  0  0  0  0  0  0
    7.2490    1.7450   21.6190 C   0  0  0  0  0  0  0  0  0  0  0  0
    9.6630   -0.9130   22.7640 C   0  0  0  0  0  0  0  0  0  0  0  0
   10.4160    0.1650   22.4660 C   0  0  0  0  0  0  0  0  0  0  0  0
   11.7120    0.3840   22.5460 N   0  0  0  0  0  0  0  0  0  0  0  0
   12.3780   -0.7480   22.9940 C   0  0  0  0  0  0  0  0  0  0  0  0
   11.6780   -1.9740   23.3510 C   0  0  0  0  0  0  0  0  0  0  0  0
   10.3290   -2.0910   23.2510 C   0  0  0  0  0  0  0  0  0  0  0  0
    9.5300   -3.2810   23.5200 C   0  0  0  0  0  0  0  0  0  0  0  0
  1  2  1  0
  2  3  2  0
  2  4  1  0
  4  5  1  0
  5  6  1  0
  6  7  2  0
  7  8  1  0
  8  9  1  0
  8 10  1  0
  8 11  1  0
  7 12  1  0
  5 13  2  0
 12 13  1  0
  4 14  1  0
 14 15  1  1
 15 16  2  0
 15 17  1  0
 17 18  1  0
 14 19  1  0
 19 20  2  0
 20 21  1  0
 21 22  2  0
 22 23  1  0
 19 24  1  0
 23 24  2  0
 24 25  1  0
M  END
