DAR-DIA-2b784ede-10-acrylamide
     RDKit          3D

 34 36  0  0  0  0  0  0  0  0999 V2000
    7.2190   -3.6090   20.1260 C   0  0  0  0  0  0  0  0  0  0  0  0
    5.8390   -3.1000   20.6130 C   0  0  0  0  0  0  0  0  0  0  0  0
    5.5930   -3.2600   22.1340 C   0  0  0  0  0  0  0  0  0  0  0  0
    5.1350   -4.3020   21.6250 O   0  0  0  0  0  0  0  0  0  0  0  0
    6.1900   -1.9500   22.3720 N   0  0  0  0  0  0  0  0  0  0  0  0
    5.3080   -0.8820   22.1870 C   0  0  0  0  0  0  0  0  0  0  0  0
    4.7750   -1.3030   23.3650 C   0  0  0  0  0  0  0  0  0  0  0  0
    5.5570   -2.4710   23.7760 C   0  0  0  0  0  0  0  0  0  0  0  0
    6.7510   -3.1790   23.1230 C   0  0  0  0  0  0  0  0  0  0  0  0
    7.4710   -4.4220   23.6980 C   0  0  0  0  0  0  0  0  0  0  0  0
    6.6180   -4.9440   24.8630 C   0  0  0  0  0  0  0  0  0  0  0  0
    5.9880   -5.3590   25.7510 N   0  0  0  0  0  0  0  0  0  0  0  0
    7.1420   -2.4830   21.8060 C   0  0  0  0  0  0  0  0  0  0  0  0
    6.3130   -1.2060   21.3080 C   0  0  0  0  0  0  0  0  0  0  0  0
    7.6750   -1.5200   22.0450 C   0  0  1  0  0  0  0  0  0  0  0  0
    7.8890   -0.1270   21.7780 C   0  0  0  0  0  0  0  0  0  0  0  0
    9.0210    0.3180   21.5640 O   0  0  0  0  0  0  0  0  0  0  0  0
    6.8040    0.7400   21.8000 N   0  0  0  0  0  0  0  0  0  0  0  0
    6.0550    1.2600   20.6620 C   0  0  0  0  0  0  0  0  0  0  0  0
    5.2860    2.3910   20.9220 C   0  0  0  0  0  0  0  0  0  0  0  0
    5.2950    2.9380   22.2070 C   0  0  0  0  0  0  0  0  0  0  0  0
    4.4960    3.0070   19.9320 C   0  0  0  0  0  0  0  0  0  0  0  0
    4.4550    2.5000   18.6300 C   0  0  0  0  0  0  0  0  0  0  0  0
    5.2580    1.2940   18.2850 C   0  0  0  0  0  0  0  0  0  0  0  0
    6.0910    0.6620   19.3710 C   0  0  0  0  0  0  0  0  0  0  0  0
    6.8830   -0.5590   18.9770 C   0  0  0  0  0  0  0  0  0  0  0  0
    5.9840   -1.4650   18.4080 C   0  0  0  0  0  0  0  0  0  0  0  0
    8.8720   -1.9150   22.9540 C   0  0  0  0  0  0  0  0  0  0  0  0
   10.1130   -2.1880   22.3630 C   0  0  0  0  0  0  0  0  0  0  0  0
   11.2920   -2.5300   22.9450 N   0  0  0  0  0  0  0  0  0  0  0  0
   11.2310   -2.6290   24.2720 C   0  0  0  0  0  0  0  0  0  0  0  0
    9.9920   -2.3710   25.0470 C   0  0  0  0  0  0  0  0  0  0  0  0
    8.8160   -2.0060   24.3770 C   0  0  0  0  0  0  0  0  0  0  0  0
    7.5790   -1.7290   25.1820 C   0  0  0  0  0  0  0  0  0  0  0  0
  1  2  1  0
  2  3  1  0
  3  4  2  0
  3  5  1  0
  5  6  1  0
  6  7  2  0
  7  8  1  0
  8  9  2  0
  9 10  1  0
 10 11  1  0
 11 12  3  0
  9 13  1  0
  6 14  1  0
 13 14  2  0
  5 15  1  0
 15 16  1  1
 16 17  2  0
 16 18  1  0
 18 19  1  0
 19 20  2  0
 20 21  1  0
 20 22  1  0
 22 23  2  0
 23 24  1  0
 19 25  1  0
 24 25  2  0
 25 26  1  0
 26 27  1  0
 15 28  1  0
 28 29  2  0
 29 30  1  0
 30 31  2  0
 31 32  1  0
 28 33  1  0
 32 33  2  0
 33 34  1  0
M  END
