DAR-DIA-2b784ede-33-nitrile
     RDKit          3D

 24 25  0  0  0  0  0  0  0  0999 V2000
    7.1420   -2.9040   20.1340 C   0  0  0  0  0  0  0  0  0  0  0  0
    5.9590   -3.1530   19.5830 N   0  0  0  0  0  0  0  0  0  0  0  0
    7.3600   -2.1880   21.5220 N   0  0  0  0  0  0  0  0  0  0  0  0
    6.0780   -2.1110   22.2430 C   0  0  0  0  0  0  0  0  0  0  0  0
    7.0590   -2.7670   23.1950 C   0  0  0  0  0  0  0  0  0  0  0  0
    6.6570   -3.1770   24.5360 C   0  0  0  0  0  0  0  0  0  0  0  0
    7.4890   -3.8540   25.6200 C   0  0  0  0  0  0  0  0  0  0  0  0
    7.6410   -3.3340   27.0650 C   0  0  0  0  0  0  0  0  0  0  0  0
    6.8960   -5.2450   25.6580 C   0  0  0  0  0  0  0  0  0  0  0  0
    9.1380   -4.0640   24.9240 Cl  0  0  0  0  0  0  0  0  0  0  0  0
    5.3950   -2.8460   24.6070 O   0  0  0  0  0  0  0  0  0  0  0  0
    5.0680   -2.2720   23.3780 N   0  0  0  0  0  0  0  0  0  0  0  0
    8.3180   -0.9730   22.0130 C   0  0  1  0  0  0  0  0  0  0  0  0
    7.7080   -0.1920   23.0060 C   0  0  0  0  0  0  0  0  0  0  0  0
    7.7410   -0.4750   24.2000 O   0  0  0  0  0  0  0  0  0  0  0  0
    7.0770    0.9400   22.4670 N   0  0  0  0  0  0  0  0  0  0  0  0
    7.6970    1.9220   21.6360 C   0  0  0  0  0  0  0  0  0  0  0  0
    9.9130   -1.0030   22.3230 C   0  0  0  0  0  0  0  0  0  0  0  0
   10.5170    0.3120   22.4140 C   0  0  0  0  0  0  0  0  0  0  0  0
   11.8530    0.5930   22.5900 N   0  0  0  0  0  0  0  0  0  0  0  0
   12.6340   -0.4960   22.6400 C   0  0  0  0  0  0  0  0  0  0  0  0
   12.0270   -1.8410   22.5670 C   0  0  0  0  0  0  0  0  0  0  0  0
   10.5770   -2.3250   22.4390 C   0  0  0  0  0  0  0  0  0  0  0  0
    9.1180   -2.5670   22.3110 C   0  0  0  0  0  0  0  0  0  0  0  0
  1  2  2  3
  1  3  1  0
  3  4  1  0
  4  5  1  0
  5  6  2  0
  6  7  1  0
  7  8  1  0
  7  9  1  0
  7 10  1  0
  6 11  1  0
  4 12  2  0
 11 12  1  0
  3 13  1  0
 13 14  1  1
 14 15  2  0
 14 16  1  0
 16 17  1  0
 13 18  1  0
 18 19  2  0
 19 20  1  0
 20 21  2  0
 21 22  1  0
 18 23  1  0
 22 23  2  0
 23 24  1  0
M  END
