DAR-DIA-2b784ede-49-vinylsulfonamide
     RDKit          3D

 36 38  0  0  0  0  0  0  0  0999 V2000
    7.3270   -3.2510   19.2140 C   0  0  0  0  0  0  0  0  0  0  0  0
    6.8380   -3.5790   20.6070 C   0  0  0  0  0  0  0  0  0  0  0  0
    5.4480   -2.5720   20.9030 S   0  0  0  0  0  0  0  0  0  0  0  0
    4.5970   -3.0020   19.8090 O   0  0  0  0  0  0  0  0  0  0  0  0
    5.0150   -2.8730   22.2490 O   0  0  0  0  0  0  0  0  0  0  0  0
    6.0630   -0.9210   20.8350 N   0  0  0  0  0  0  0  0  0  0  0  0
    6.8040   -0.6570   19.5850 C   0  0  0  0  0  0  0  0  0  0  0  0
    5.7750    0.3550   19.7430 C   0  0  0  0  0  0  0  0  0  0  0  0
    5.3280   -0.1630   21.0480 C   0  0  0  0  0  0  0  0  0  0  0  0
    4.3050    0.4530   21.7780 C   0  0  0  0  0  0  0  0  0  0  0  0
    3.1540    0.8050   21.0800 C   0  0  0  0  0  0  0  0  0  0  0  0
    4.8280    1.7290   22.4710 C   0  0  0  0  0  0  0  0  0  0  0  0
    3.8170   -0.4440   22.9150 C   0  0  0  0  0  0  0  0  0  0  0  0
    6.1460   -1.3800   21.4120 N   0  0  0  0  0  0  0  0  0  0  0  0
    7.1500   -1.6460   20.3430 N   0  0  0  0  0  0  0  0  0  0  0  0
    6.8090   -0.6030   22.1300 C   0  0  2  0  0  0  0  0  0  0  0  0
    8.0330    0.1010   22.0100 C   0  0  0  0  0  0  0  0  0  0  0  0
    8.1930    0.6540   20.9300 O   0  0  0  0  0  0  0  0  0  0  0  0
    8.8720    0.1730   23.0090 N   0  0  0  0  0  0  0  0  0  0  0  0
   10.0560   -0.3920   22.7370 C   0  0  0  0  0  0  0  0  0  0  0  0
    9.9170   -0.1840   24.1930 C   0  0  0  0  0  0  0  0  0  0  0  0
    8.7030    0.4020   24.5230 C   0  0  0  0  0  0  0  0  0  0  0  0
    8.6240    1.7760   24.0990 O   0  0  0  0  0  0  0  0  0  0  0  0
   10.8810   -0.5080   25.3160 C   0  0  0  0  0  0  0  0  0  0  0  0
   12.1100   -1.0720   25.0960 C   0  0  0  0  0  0  0  0  0  0  0  0
   12.4210   -1.3370   23.8870 C   0  0  0  0  0  0  0  0  0  0  0  0
   11.3420   -0.9490   22.9620 C   0  0  0  0  0  0  0  0  0  0  0  0
   12.2910   -1.4850   21.9190 C   0  0  0  0  0  0  0  0  0  0  0  0
   13.1300   -0.2430   22.2380 C   0  0  0  0  0  0  0  0  0  0  0  0
   13.0130   -2.7480   22.3980 C   0  0  0  0  0  0  0  0  0  0  0  0
    6.9010   -1.9400   22.8860 C   0  0  0  0  0  0  0  0  0  0  0  0
    6.0360   -2.1840   24.1250 C   0  0  0  0  0  0  0  0  0  0  0  0
    6.1420   -3.4840   24.7860 C   0  0  0  0  0  0  0  0  0  0  0  0
    7.1000   -4.4600   24.1720 C   0  0  0  0  0  0  0  0  0  0  0  0
    7.8560   -4.2190   23.0890 N   0  0  0  0  0  0  0  0  0  0  0  0
    7.7450   -2.9950   22.4900 C   0  0  0  0  0  0  0  0  0  0  0  0
  1  2  1  0
  2  3  1  0
  3  4  2  0
  3  5  2  0
  3  6  1  0
  6  7  1  0
  7  8  2  0
  8  9  1  0
  9 10  1  0
 10 11  1  0
 10 12  1  0
 10 13  1  0
  9 14  2  0
  7 15  1  0
 14 15  1  0
  6 16  1  0
 16 17  1  6
 17 18  2  0
 17 19  1  0
 19 20  1  0
 20 21  2  0
 21 22  1  0
 22 23  1  0
 21 24  1  0
 24 25  2  0
 25 26  1  0
 20 27  1  0
 26 27  2  0
 27 28  1  0
 28 29  1  0
 28 30  1  0
 16 31  1  0
 31 32  2  0
 32 33  1  0
 33 34  2  0
 34 35  1  0
 31 36  1  0
 35 36  2  0
M  END
