DAR-DIA-2b784ede-44-acrylamide
     RDKit          3D

 33 36  0  0  0  0  0  0  0  0999 V2000
    6.6370   -4.0700   20.0740 C   0  0  0  0  0  0  0  0  0  0  0  0
    6.8450   -3.9570   21.5840 C   0  0  0  0  0  0  0  0  0  0  0  0
    5.8990   -2.9600   22.2440 C   0  0  0  0  0  0  0  0  0  0  0  0
    5.0010   -3.6870   21.6750 O   0  0  0  0  0  0  0  0  0  0  0  0
    7.1790   -2.4330   22.6880 N   0  0  0  0  0  0  0  0  0  0  0  0
    7.6020   -2.3050   24.1070 C   0  0  1  0  0  0  0  0  0  0  0  0
    8.9720   -2.1590   23.9810 C   0  0  0  0  0  0  0  0  0  0  0  0
    9.3830   -0.8620   24.5350 C   0  0  0  0  0  0  0  0  0  0  0  0
   10.7760   -0.8990   25.0750 C   0  0  0  0  0  0  0  0  0  0  0  0
   11.6650   -0.1450   24.3080 C   0  0  0  0  0  0  0  0  0  0  0  0
   10.9160    0.6600   23.4840 C   0  0  0  0  0  0  0  0  0  0  0  0
    9.5080    0.1570   23.5700 C   0  0  0  0  0  0  0  0  0  0  0  0
    8.2680   -0.4860   25.3110 C   0  0  0  0  0  0  0  0  0  0  0  0
    7.1750   -1.2250   24.8280 N   0  0  0  0  0  0  0  0  0  0  0  0
    8.1000   -1.7350   21.8240 C   0  0  1  0  0  0  0  0  0  0  0  0
    7.8240   -0.2440   21.5800 C   0  0  0  0  0  0  0  0  0  0  0  0
    8.8150    0.4270   21.3060 O   0  0  0  0  0  0  0  0  0  0  0  0
    6.5830    0.2900   21.6830 N   0  0  0  0  0  0  0  0  0  0  0  0
    6.0270    0.8160   20.5650 C   0  0  0  0  0  0  0  0  0  0  0  0
    6.2540    0.2170   19.2050 C   0  0  0  0  0  0  0  0  0  0  0  0
    7.0210   -0.9140   18.9040 C   0  0  0  0  0  0  0  0  0  0  0  0
    5.6050    0.8640   18.0010 C   0  0  0  0  0  0  0  0  0  0  0  0
    4.8280    1.9850   18.2070 C   0  0  0  0  0  0  0  0  0  0  0  0
    4.6210    2.5240   19.4740 C   0  0  0  0  0  0  0  0  0  0  0  0
    5.1930    1.9700   20.6290 C   0  0  0  0  0  0  0  0  0  0  0  0
    4.8700    2.6710   21.9560 C   0  0  0  0  0  0  0  0  0  0  0  0
    5.7300    3.4030   22.4660 O   0  0  0  0  0  0  0  0  0  0  0  0
    9.4520   -1.9650   22.2280 C   0  0  0  0  0  0  0  0  0  0  0  0
   10.5010   -1.2500   21.7180 C   0  0  0  0  0  0  0  0  0  0  0  0
   11.9530   -1.4630   22.1290 C   0  0  0  0  0  0  0  0  0  0  0  0
   12.1290   -2.5430   23.1680 C   0  0  0  0  0  0  0  0  0  0  0  0
   11.0840   -3.2400   23.6570 N   0  0  0  0  0  0  0  0  0  0  0  0
    9.7970   -2.9400   23.1770 C   0  0  0  0  0  0  0  0  0  0  0  0
  1  2  1  0
  2  3  1  0
  3  4  2  0
  3  5  1  0
  6  5  1  6
  6  7  1  0
  8  7  1  0
  8  9  1  0
  9 10  1  0
 10 11  1  0
  8 12  1  0
 11 12  1  0
  8 13  1  0
  6 14  1  0
 13 14  1  0
  5 15  1  0
 15 16  1  1
 16 17  2  0
 16 18  1  0
 18 19  1  0
 19 20  2  0
 20 21  1  0
 20 22  1  0
 22 23  2  0
 23 24  1  0
 19 25  1  0
 24 25  2  0
 25 26  1  0
 26 27  1  0
 15 28  1  0
 28 29  2  0
 29 30  1  0
 30 31  2  0
 31 32  1  0
 28 33  1  0
 32 33  2  0
M  END
