DAR-DIA-fb20be43-16-acrylamide
     RDKit          3D

 29 31  0  0  0  0  0  0  0  0999 V2000
    7.9410   -3.3380   19.1640 C   0  0  0  0  0  0  0  0  0  0  0  0
    6.8000   -2.4350   18.8490 C   0  0  0  0  0  0  0  0  0  0  0  0
    5.8220   -2.5900   19.9590 C   0  0  0  0  0  0  0  0  0  0  0  0
    4.7770   -3.2280   19.8030 O   0  0  0  0  0  0  0  0  0  0  0  0
    6.1910   -2.0300   21.1520 N   0  0  0  0  0  0  0  0  0  0  0  0
    6.0210   -2.7550   22.4140 C   0  0  0  0  0  0  0  0  0  0  0  0
    7.3480   -3.2320   23.0160 C   0  0  0  0  0  0  0  0  0  0  0  0
    8.3020   -2.1310   23.0890 N   0  0  0  0  0  0  0  0  0  0  0  0
    9.5310   -2.5490   23.7200 C   0  0  0  0  0  0  0  0  0  0  0  0
   10.6050   -1.5320   23.5510 C   0  0  0  0  0  0  0  0  0  0  0  0
   11.5540   -1.8100   22.5990 C   0  0  0  0  0  0  0  0  0  0  0  0
   12.5630   -0.9430   22.3580 C   0  0  0  0  0  0  0  0  0  0  0  0
   13.3870   -1.3090   21.3950 C   0  0  0  0  0  0  0  0  0  0  0  0
   13.9590   -1.5560   20.4860 N   0  0  0  0  0  0  0  0  0  0  0  0
   12.7080    0.2480   23.0490 C   0  0  0  0  0  0  0  0  0  0  0  0
   11.7420    0.5030   23.9970 C   0  0  0  0  0  0  0  0  0  0  0  0
   10.6780   -0.3680   24.2670 C   0  0  0  0  0  0  0  0  0  0  0  0
    9.7490   -0.0370   25.2110 C   0  0  0  0  0  0  0  0  0  0  0  0
    9.4100    1.3500   25.0310 N   0  0  0  0  0  0  0  0  0  0  0  0
   10.1920    2.1480   24.2410 C   0  0  0  0  0  0  0  0  0  0  0  0
   10.5950    3.0670   23.5370 O   0  0  0  0  0  0  0  0  0  0  0  0
    9.0100    2.8680   24.2820 N   0  0  0  0  0  0  0  0  0  0  0  0
    8.9490    3.8680   23.3240 C   0  0  0  0  0  0  0  0  0  0  0  0
    7.5090    4.4010   23.1490 C   0  0  0  0  0  0  0  0  0  0  0  0
    6.9760    4.6460   24.2300 O   0  0  0  0  0  0  0  0  0  0  0  0
    6.7180    3.4360   24.9670 C   0  0  0  0  0  0  0  0  0  0  0  0
    7.6780    2.2990   24.5580 C   0  0  0  0  0  0  0  0  0  0  0  0
    8.5770   -1.5520   21.7690 C   0  0  0  0  0  0  0  0  0  0  0  0
    7.2890   -1.0440   21.1080 C   0  0  0  0  0  0  0  0  0  0  0  0
  1  2  1  0
  2  3  1  0
  3  4  2  0
  3  5  1  0
  5  6  1  0
  6  7  1  0
  7  8  1  0
  8  9  1  0
  9 10  1  0
 10 11  2  0
 11 12  1  0
 12 13  1  0
 13 14  3  0
 12 15  2  0
 15 16  1  0
 10 17  1  0
 16 17  2  0
 17 18  1  0
 18 19  1  0
 19 20  1  0
 20 21  2  0
 20 22  1  0
 22 23  1  0
 23 24  1  0
 24 25  1  0
 25 26  1  0
 22 27  1  0
 26 27  1  0
  8 28  1  0
  5 29  1  0
 28 29  1  0
M  END
