DAR-DIA-2b784ede-32-vinylsulfonamide
     RDKit          3D

 28 29  0  0  0  0  0  0  0  0999 V2000
    7.8910   -3.9660   20.1110 C   0  0  0  0  0  0  0  0  0  0  0  0
    7.4990   -3.6500   21.4930 C   0  0  0  0  0  0  0  0  0  0  0  0
    6.3090   -2.5200   21.0160 S   0  0  0  0  0  0  0  0  0  0  0  0
    4.9070   -3.1600   21.3320 O   0  0  0  0  0  0  0  0  0  0  0  0
    6.5370   -2.2970   19.6020 O   0  0  0  0  0  0  0  0  0  0  0  0
    7.0290   -1.1270   21.7890 N   0  0  0  0  0  0  0  0  0  0  0  0
    8.4820   -0.9190   21.9850 C   0  0  0  0  0  0  0  0  0  0  0  0
    9.6540   -0.1570   22.2420 C   0  0  0  0  0  0  0  0  0  0  0  0
    9.7960    1.2500   22.4810 C   0  0  0  0  0  0  0  0  0  0  0  0
    9.4740    2.6820   22.6660 C   0  0  0  0  0  0  0  0  0  0  0  0
    9.3570    3.2160   24.0250 C   0  0  0  0  0  0  0  0  0  0  0  0
    8.4050    3.0750   21.8260 C   0  0  0  0  0  0  0  0  0  0  0  0
   10.6800    3.5240   22.2710 C   0  0  0  0  0  0  0  0  0  0  0  0
   11.8250    4.2350   21.9410 N   0  0  0  0  0  0  0  0  0  0  0  0
    8.6000    1.4110   22.3760 O   0  0  0  0  0  0  0  0  0  0  0  0
    7.7980    0.3530   22.1200 N   0  0  0  0  0  0  0  0  0  0  0  0
    6.2910   -0.0290   21.6990 C   0  0  2  0  0  0  0  0  0  0  0  0
    5.1880   -0.3830   22.7200 C   0  0  0  0  0  0  0  0  0  0  0  0
    4.4830   -1.5570   22.5450 O   0  0  0  0  0  0  0  0  0  0  0  0
    4.9060    0.3870   23.7980 N   0  0  0  0  0  0  0  0  0  0  0  0
    4.2070   -0.2240   24.7860 C   0  0  0  0  0  0  0  0  0  0  0  0
    6.0780    0.3630   20.3730 C   0  0  0  0  0  0  0  0  0  0  0  0
    6.9760   -0.2150   19.3700 C   0  0  0  0  0  0  0  0  0  0  0  0
    6.5190    0.3500   18.1760 N   0  0  0  0  0  0  0  0  0  0  0  0
    5.5180    1.2140   17.9220 C   0  0  0  0  0  0  0  0  0  0  0  0
    4.7700    1.6740   18.9320 C   0  0  0  0  0  0  0  0  0  0  0  0
    5.0490    1.2500   20.1720 C   0  0  0  0  0  0  0  0  0  0  0  0
    4.4020    1.6130   21.3390 C   0  0  0  0  0  0  0  0  0  0  0  0
  1  2  1  0
  2  3  1  0
  3  4  2  0
  3  5  2  0
  3  6  1  0
  6  7  1  0
  7  8  1  0
  8  9  2  0
  9 10  1  0
 10 11  1  0
 10 12  1  0
 10 13  1  0
 13 14  3  0
  9 15  1  0
  7 16  2  0
 15 16  1  0
  6 17  1  0
 17 18  1  6
 18 19  2  0
 18 20  1  0
 20 21  1  0
 17 22  1  0
 22 23  2  0
 23 24  1  0
 24 25  2  0
 25 26  1  0
 22 27  1  0
 26 27  2  0
 27 28  1  0
M  END
