DAR-DIA-eace69ff-34
     RDKit          3D

 18 19  0  0  0  0  0  0  0  0999 V2000
    8.8500   -3.0150   26.1740 C   0  0  0  0  0  0  0  0  0  0  0  0
    9.7420   -2.2760   25.2090 C   0  0  0  0  0  0  0  0  0  0  0  0
    9.3560   -0.8240   24.8210 C   0  0  0  0  0  0  0  0  0  0  0  0
   10.4670   -0.4080   24.0760 C   0  0  0  0  0  0  0  0  0  0  0  0
   11.2900   -1.3160   23.4960 C   0  0  0  0  0  0  0  0  0  0  0  0
   12.4170   -1.0520   22.7450 C   0  0  0  0  0  0  0  0  0  0  0  0
   13.1290   -2.0760   22.2620 C   0  0  0  0  0  0  0  0  0  0  0  0
   13.5540   -2.7360   23.3970 C   0  0  0  0  0  0  0  0  0  0  0  0
   12.7710    0.2350   22.5350 C   0  0  0  0  0  0  0  0  0  0  0  0
   12.0780    1.4350   23.0160 C   0  0  0  0  0  0  0  0  0  0  0  0
   12.0590    2.7020   23.0370 C   0  0  0  0  0  0  0  0  0  0  0  0
   12.6760    3.9350   22.6140 C   0  0  0  0  0  0  0  0  0  0  0  0
   12.2390    5.0660   23.2500 N   0  0  0  0  0  0  0  0  0  0  0  0
   10.8790    5.4210   22.7950 C   0  0  0  0  0  0  0  0  0  0  0  0
   13.1100    6.1180   22.7180 C   0  0  0  0  0  0  0  0  0  0  0  0
   10.9570    3.0590   23.8120 C   0  0  0  0  0  0  0  0  0  0  0  0
   10.3390    2.0080   24.2310 N   0  0  0  0  0  0  0  0  0  0  0  0
   10.9310    0.9480   23.7920 C   0  0  0  0  0  0  0  0  0  0  0  0
  1  2  1  0
  2  3  1  0
  3  4  1  0
  4  5  2  0
  5  6  1  0
  6  7  1  0
  7  8  1  0
  6  9  2  0
  9 10  1  0
 10 11  1  0
 11 12  1  0
 12 13  1  0
 13 14  1  0
 13 15  1  0
 11 16  2  0
 16 17  1  0
  4 18  1  0
 10 18  2  0
 17 18  1  0
M  END
