DAR-DIA-43a5904b-7
     RDKit          3D

 22 24  0  0  0  0  0  0  0  0999 V2000
   10.1230    3.1480   22.3070 N   0  0  0  0  0  0  0  0  0  0  0  0
    9.3020    2.0470   22.2890 C   0  0  0  0  0  0  0  0  0  0  0  0
    8.8220    1.6780   21.2150 O   0  0  0  0  0  0  0  0  0  0  0  0
    9.0490    1.4150   23.6520 C   0  0  1  0  0  0  0  0  0  0  0  0
    7.5320    1.1680   23.6210 C   0  0  0  0  0  0  0  0  0  0  0  0
    7.3550   -0.3280   23.5340 C   0  0  0  0  0  0  0  0  0  0  0  0
    5.9830   -0.8880   23.3380 C   0  0  0  0  0  0  0  0  0  0  0  0
    5.4180   -1.6560   24.3410 C   0  0  0  0  0  0  0  0  0  0  0  0
    4.1860   -1.2840   24.8920 C   0  0  0  0  0  0  0  0  0  0  0  0
    3.5820   -2.0270   25.9000 C   0  0  0  0  0  0  0  0  0  0  0  0
    4.2430   -3.2540   26.4280 C   0  0  0  0  0  0  0  0  0  0  0  0
    5.5820   -3.6070   25.7890 C   0  0  0  0  0  0  0  0  0  0  0  0
    6.1150   -2.8340   24.8050 C   0  0  0  0  0  0  0  0  0  0  0  0
    8.5390   -0.9050   23.6580 C   0  0  0  0  0  0  0  0  0  0  0  0
    9.6270   -0.0470   23.8540 C   0  0  1  0  0  0  0  0  0  0  0  0
   10.8210   -0.3710   23.2330 C   0  0  0  0  0  0  0  0  0  0  0  0
   10.9020   -1.5900   22.4370 C   0  0  0  0  0  0  0  0  0  0  0  0
   12.1490   -1.7430   21.8940 C   0  0  0  0  0  0  0  0  0  0  0  0
   13.3320   -1.1640   21.8340 C   0  0  0  0  0  0  0  0  0  0  0  0
   13.0570   -0.0890   22.6190 C   0  0  0  0  0  0  0  0  0  0  0  0
   11.6900   -1.1110   22.4900 Cl  0  0  0  0  0  0  0  0  0  0  0  0
   12.0110    0.4550   23.3400 C   0  0  0  0  0  0  0  0  0  0  0  0
  1  2  1  0
  2  3  2  0
  4  2  1  6
  4  5  1  0
  5  6  1  0
  6  7  1  0
  7  8  1  0
  8  9  2  0
  9 10  1  0
 10 11  2  0
 11 12  1  0
  8 13  1  0
 12 13  2  0
  6 14  2  0
  4 15  1  0
 14 15  1  0
 15 16  1  6
 16 17  2  0
 17 18  1  0
 18 19  2  0
 19 20  1  0
 20 21  1  0
 16 22  1  0
 20 22  2  0
M  END
