DAR-DIA-23aa0b97-4-acrylamide
     RDKit          3D

 20 21  0  0  0  0  0  0  0  0999 V2000
    7.5050   -3.2250   19.2160 C   0  0  0  0  0  0  0  0  0  0  0  0
    6.3480   -2.5010   19.8110 C   0  0  0  0  0  0  0  0  0  0  0  0
    6.2580   -2.8600   21.2610 C   0  0  0  0  0  0  0  0  0  0  0  0
    5.1140   -3.5950   21.5040 O   0  0  0  0  0  0  0  0  0  0  0  0
    7.5280   -2.2790   22.1230 C   0  0  0  0  0  0  0  0  0  0  0  0
    8.5330   -2.6600   23.3000 C   0  0  0  0  0  0  0  0  0  0  0  0
    7.7340   -3.4360   23.0200 C   0  0  0  0  0  0  0  0  0  0  0  0
    7.9600   -2.1030   22.4280 C   0  0  0  0  0  0  0  0  0  0  0  0
    8.9990   -0.8040   22.6140 C   0  0  0  0  0  0  0  0  0  0  0  0
    9.2230    0.4660   22.0620 N   0  0  0  0  0  0  0  0  0  0  0  0
    8.4070    1.2610   21.2310 C   0  0  0  0  0  0  0  0  0  0  0  0
    9.2800    2.0790   21.3630 O   0  0  0  0  0  0  0  0  0  0  0  0
    7.6120    0.1430   21.2740 C   0  0  0  0  0  0  0  0  0  0  0  0
    6.5050    0.4290   20.3000 C   0  0  0  0  0  0  0  0  0  0  0  0
    5.2330    0.8260   20.8600 C   0  0  0  0  0  0  0  0  0  0  0  0
    5.1320    0.8200   19.5640 C   0  0  0  0  0  0  0  0  0  0  0  0
    4.8730    0.8620   18.2880 C   0  0  0  0  0  0  0  0  0  0  0  0
    5.9780    0.5080   17.7550 N   0  0  0  0  0  0  0  0  0  0  0  0
    6.7930    0.2920   18.8540 C   0  0  0  0  0  0  0  0  0  0  0  0
    8.0540   -1.1270   21.9170 C   0  0  0  0  0  0  0  0  0  0  0  0
  1  2  1  0
  2  3  1  0
  3  4  2  0
  3  5  1  0
  5  6  2  0
  6  7  1  0
  7  8  2  0
  8  9  1  0
  9 10  1  0
 10 11  1  0
 11 12  2  0
 11 13  1  0
 13 14  1  0
 14 15  2  0
 15 16  1  0
 16 17  2  0
 17 18  1  0
 14 19  1  0
 18 19  2  0
  5 20  1  0
  9 20  2  0
M  END
