DAR-DIA-2b784ede-16-chloroacetamide
     RDKit          3D

 36 39  0  0  0  0  0  0  0  0999 V2000
    6.2340   -4.8610   19.9830 C   0  0  0  0  0  0  0  0  0  0  0  0
    6.5980   -3.4420   19.7480 C   0  0  0  0  0  0  0  0  0  0  0  0
    6.3840   -2.9370   18.6350 O   0  0  0  0  0  0  0  0  0  0  0  0
    7.1370   -2.8980   20.9010 N   0  0  0  0  0  0  0  0  0  0  0  0
    6.4510   -3.5970   21.8990 C   0  0  0  0  0  0  0  0  0  0  0  0
    7.0650   -4.4570   22.8870 C   0  0  0  0  0  0  0  0  0  0  0  0
    6.1480   -5.0200   23.7340 C   0  0  0  0  0  0  0  0  0  0  0  0
    4.6950   -4.8740   23.7750 C   0  0  0  0  0  0  0  0  0  0  0  0
    3.8950   -5.6280   24.8430 C   0  0  0  0  0  0  0  0  0  0  0  0
    2.3250   -4.7650   25.0750 Cl  0  0  0  0  0  0  0  0  0  0  0  0
    3.6170   -7.0800   24.4400 C   0  0  0  0  0  0  0  0  0  0  0  0
    3.0080   -7.6750   25.7050 C   0  0  0  0  0  0  0  0  0  0  0  0
    3.7310   -6.9630   26.8790 C   0  0  0  0  0  0  0  0  0  0  0  0
    4.5750   -5.8500   26.2060 C   0  0  0  0  0  0  0  0  0  0  0  0
    4.2110   -4.0480   22.8110 C   0  0  0  0  0  0  0  0  0  0  0  0
    5.0520   -3.4240   21.8920 C   0  0  0  0  0  0  0  0  0  0  0  0
    7.3110   -1.4260   21.0870 C   0  0  1  0  0  0  0  0  0  0  0  0
    8.6610   -0.9910   21.3100 C   0  0  0  0  0  0  0  0  0  0  0  0
    8.8990    0.2190   21.3420 O   0  0  0  0  0  0  0  0  0  0  0  0
    9.7600   -1.8940   21.5360 N   0  0  0  0  0  0  0  0  0  0  0  0
   10.6800   -1.4800   22.6210 C   0  0  0  0  0  0  0  0  0  0  0  0
   12.2000   -1.3670   22.4770 C   0  0  0  0  0  0  0  0  0  0  0  0
   12.9260   -1.6920   21.3290 C   0  0  0  0  0  0  0  0  0  0  0  0
   12.9300   -0.9190   23.5600 C   0  0  0  0  0  0  0  0  0  0  0  0
   12.2510   -0.5770   24.8410 C   0  0  0  0  0  0  0  0  0  0  0  0
   10.7800   -0.7130   24.9970 C   0  0  0  0  0  0  0  0  0  0  0  0
   10.0850   -1.1650   23.8700 C   0  0  0  0  0  0  0  0  0  0  0  0
    8.7270   -1.2850   24.0950 C   0  0  0  0  0  0  0  0  0  0  0  0
    8.1720   -2.3000   23.3480 C   0  0  0  0  0  0  0  0  0  0  0  0
    6.5150   -0.5270   20.0970 C   0  0  0  0  0  0  0  0  0  0  0  0
    6.9640   -0.2680   18.6950 C   0  0  0  0  0  0  0  0  0  0  0  0
    6.3940    0.5020   17.7390 N   0  0  0  0  0  0  0  0  0  0  0  0
    5.2570    1.1350   18.0590 C   0  0  0  0  0  0  0  0  0  0  0  0
    4.6270    1.0050   19.4100 C   0  0  0  0  0  0  0  0  0  0  0  0
    5.3040    0.1320   20.4440 C   0  0  0  0  0  0  0  0  0  0  0  0
    4.6660    0.0070   21.7960 C   0  0  0  0  0  0  0  0  0  0  0  0
  1  2  1  0
  2  3  2  0
  2  4  1  0
  4  5  1  0
  5  6  2  0
  6  7  1  0
  7  8  2  0
  8  9  1  0
  9 10  1  0
  9 11  1  0
 11 12  1  0
 12 13  1  0
  9 14  1  0
 13 14  1  0
  8 15  1  0
  5 16  1  0
 15 16  2  0
  4 17  1  0
 17 18  1  6
 18 19  2  0
 18 20  1  0
 20 21  1  0
 21 22  2  0
 22 23  1  0
 22 24  1  0
 24 25  2  0
 25 26  1  0
 21 27  1  0
 26 27  2  0
 27 28  1  0
 28 29  1  0
 17 30  1  0
 30 31  2  0
 31 32  1  0
 32 33  2  0
 33 34  1  0
 30 35  1  0
 34 35  2  0
 35 36  1  0
M  END
