DAR-DIA-23aa0b97-5-nitrile
     RDKit          3D

 18 19  0  0  0  0  0  0  0  0999 V2000
    7.4690   -3.6080   19.9950 C   0  0  0  0  0  0  0  0  0  0  0  0
    6.2290   -3.9370   19.7190 N   0  0  0  0  0  0  0  0  0  0  0  0
    7.8810   -2.4680   20.9460 C   0  0  0  0  0  0  0  0  0  0  0  0
    6.7630   -1.5460   21.3390 C   0  0  0  0  0  0  0  0  0  0  0  0
    7.6130   -0.7560   22.1380 C   0  0  0  0  0  0  0  0  0  0  0  0
    8.2660   -1.7170   21.6000 C   0  0  0  0  0  0  0  0  0  0  0  0
    9.3810   -1.2340   22.2170 C   0  0  0  0  0  0  0  0  0  0  0  0
    8.7490   -0.1320   22.8350 N   0  0  0  0  0  0  0  0  0  0  0  0
    8.8240    1.1810   22.3640 C   0  0  0  0  0  0  0  0  0  0  0  0
    9.7440    1.9580   22.6010 O   0  0  0  0  0  0  0  0  0  0  0  0
    7.7150    1.4920   21.5740 N   0  0  0  0  0  0  0  0  0  0  0  0
    7.4080    0.9550   20.2940 C   0  0  0  0  0  0  0  0  0  0  0  0
    6.0910    1.6550   20.3330 C   0  0  0  0  0  0  0  0  0  0  0  0
    4.9980    1.7190   19.4050 C   0  0  0  0  0  0  0  0  0  0  0  0
    4.9340    0.9960   18.0100 C   0  0  0  0  0  0  0  0  0  0  0  0
    6.1400    0.4170   18.0900 N   0  0  0  0  0  0  0  0  0  0  0  0
    6.6630    0.7540   19.2110 C   0  0  0  0  0  0  0  0  0  0  0  0
    9.2820   -2.3070   21.4250 C   0  0  0  0  0  0  0  0  0  0  0  0
  1  2  2  3
  1  3  1  0
  3  4  2  0
  4  5  1  0
  5  6  2  0
  6  7  1  0
  7  8  1  0
  8  9  1  0
  9 10  2  0
  9 11  1  0
 11 12  1  0
 12 13  2  0
 13 14  1  0
 14 15  2  0
 15 16  1  0
 12 17  1  0
 16 17  2  0
  3 18  1  0
  7 18  2  0
M  END
