DAR-DIA-23aa0b97-18-nitrile
     RDKit          3D

 22 24  0  0  0  0  0  0  0  0999 V2000
    7.1350   -3.5160   19.7760 C   0  0  0  0  0  0  0  0  0  0  0  0
    6.6190   -2.9220   18.7400 N   0  0  0  0  0  0  0  0  0  0  0  0
    8.2060   -2.8450   20.5700 C   0  0  0  0  0  0  0  0  0  0  0  0
    7.1750   -1.8980   20.8950 C   0  0  0  0  0  0  0  0  0  0  0  0
    5.8460   -2.0110   20.4170 C   0  0  0  0  0  0  0  0  0  0  0  0
    5.9950   -0.7750   21.2850 C   0  0  0  0  0  0  0  0  0  0  0  0
    7.5880   -1.0220   21.6030 C   0  0  0  0  0  0  0  0  0  0  0  0
    7.9530    0.0420   22.3880 N   0  0  0  0  0  0  0  0  0  0  0  0
    8.1550    1.3280   21.8910 C   0  0  0  0  0  0  0  0  0  0  0  0
    9.3980    1.9570   21.5870 O   0  0  0  0  0  0  0  0  0  0  0  0
    7.1580    2.2410   21.6100 C   0  0  0  0  0  0  0  0  0  0  0  0
    6.2800    1.7880   20.6190 C   0  0  0  0  0  0  0  0  0  0  0  0
    6.8130    1.0860   19.5360 C   0  0  0  0  0  0  0  0  0  0  0  0
    6.0560    0.6230   18.5320 N   0  0  0  0  0  0  0  0  0  0  0  0
    4.5860    0.8790   18.5930 C   0  0  0  0  0  0  0  0  0  0  0  0
    4.0520    1.5770   19.6750 C   0  0  0  0  0  0  0  0  0  0  0  0
    2.7240    1.7330   19.5910 N   0  0  0  0  0  0  0  0  0  0  0  0
    2.0510    2.3760   20.5590 C   0  0  0  0  0  0  0  0  0  0  0  0
    2.7640    2.9460   21.7530 C   0  0  0  0  0  0  0  0  0  0  0  0
    4.2600    2.7290   21.7540 C   0  0  0  0  0  0  0  0  0  0  0  0
    4.9010    2.0430   20.7140 C   0  0  0  0  0  0  0  0  0  0  0  0
    8.8000   -1.8950   21.3980 C   0  0  0  0  0  0  0  0  0  0  0  0
  1  2  2  3
  1  3  1  0
  3  4  2  0
  4  5  1  0
  5  6  2  0
  6  7  1  0
  7  8  1  0
  8  9  1  0
  9 10  2  0
  9 11  1  0
 11 12  1  0
 12 13  2  0
 13 14  1  0
 14 15  2  0
 15 16  1  0
 16 17  1  0
 17 18  2  0
 18 19  1  0
 19 20  2  0
 12 21  1  0
 16 21  2  0
 20 21  1  0
  3 22  1  0
  7 22  2  0
M  END
