DAR-DIA-2b784ede-34-nitrile
     RDKit          3D

 32 34  0  0  0  0  0  0  0  0999 V2000
    6.6650   -3.1350   19.0550 C   0  0  0  0  0  0  0  0  0  0  0  0
    6.0690   -3.1020   17.9450 N   0  0  0  0  0  0  0  0  0  0  0  0
    6.3550   -2.2270   20.0080 N   0  0  0  0  0  0  0  0  0  0  0  0
    5.8870   -2.8090   21.2660 C   0  0  0  0  0  0  0  0  0  0  0  0
    6.7880   -2.8400   22.3880 C   0  0  0  0  0  0  0  0  0  0  0  0
    6.1680   -3.4550   23.5650 C   0  0  0  0  0  0  0  0  0  0  0  0
    6.8280   -3.6520   24.9360 C   0  0  0  0  0  0  0  0  0  0  0  0
    6.8000   -2.5450   26.0140 C   0  0  0  0  0  0  0  0  0  0  0  0
    8.3180   -3.9710   24.6740 C   0  0  0  0  0  0  0  0  0  0  0  0
    6.0670   -5.1140   25.6820 Cl  0  0  0  0  0  0  0  0  0  0  0  0
    4.8960   -3.8110   23.1770 O   0  0  0  0  0  0  0  0  0  0  0  0
    4.6690   -3.4580   21.8160 N   0  0  0  0  0  0  0  0  0  0  0  0
    6.9070   -0.8110   19.8550 C   0  0  2  0  0  0  0  0  0  0  0  0
    7.9930   -0.5190   20.9030 C   0  0  0  0  0  0  0  0  0  0  0  0
    8.0160    0.6090   21.3170 O   0  0  0  0  0  0  0  0  0  0  0  0
    9.0250   -1.4960   21.4520 N   0  0  0  0  0  0  0  0  0  0  0  0
   10.4800   -1.2850   21.9370 C   0  0  0  0  0  0  0  0  0  0  0  0
    9.7370   -1.1370   23.1920 C   0  0  0  0  0  0  0  0  0  0  0  0
    8.3890   -1.3330   23.1450 C   0  0  0  0  0  0  0  0  0  0  0  0
   10.0370   -0.8430   24.5370 C   0  0  0  0  0  0  0  0  0  0  0  0
   11.3910   -0.6010   25.0100 C   0  0  0  0  0  0  0  0  0  0  0  0
   12.3480   -0.7210   23.9580 C   0  0  0  0  0  0  0  0  0  0  0  0
   11.8580   -1.0510   22.5630 C   0  0  0  0  0  0  0  0  0  0  0  0
   13.0620   -1.1230   21.8850 C   0  0  0  0  0  0  0  0  0  0  0  0
   13.0990   -2.2430   21.1080 C   0  0  0  0  0  0  0  0  0  0  0  0
    5.7410    0.3120   19.7090 C   0  0  0  0  0  0  0  0  0  0  0  0
    5.6030    1.0740   18.4780 C   0  0  0  0  0  0  0  0  0  0  0  0
    6.5600    0.4900   17.8660 N   0  0  0  0  0  0  0  0  0  0  0  0
    6.9590   -0.4560   18.9030 C   0  0  0  0  0  0  0  0  0  0  0  0
    6.3630   -0.6990   20.4500 C   0  0  0  0  0  0  0  0  0  0  0  0
    5.3080    0.1430   20.8080 C   0  0  0  0  0  0  0  0  0  0  0  0
    4.3960    0.4890   21.7980 C   0  0  0  0  0  0  0  0  0  0  0  0
  1  2  2  3
  1  3  1  0
  3  4  1  0
  4  5  1  0
  5  6  2  0
  6  7  1  0
  7  8  1  0
  7  9  1  0
  7 10  1  0
  6 11  1  0
  4 12  2  0
 11 12  1  0
  3 13  1  0
 13 14  1  1
 14 15  2  0
 14 16  1  0
 16 17  1  0
 17 18  2  0
 18 19  1  0
 18 20  1  0
 20 21  2  0
 21 22  1  0
 17 23  1  0
 22 23  2  0
 23 24  1  0
 24 25  1  0
 13 26  1  0
 26 27  2  0
 27 28  1  0
 28 29  2  0
 29 30  1  0
 26 31  1  0
 30 31  2  0
 31 32  1  0
M  END
