DAR-DIA-842b4336-8
     RDKit          3D

 16 17  0  0  0  0  0  0  0  0999 V2000
    8.8490    1.3420   21.1600 O   0  0  0  0  0  0  0  0  0  0  0  0
    8.3800    0.2880   21.6190 C   0  0  0  0  0  0  0  0  0  0  0  0
    7.2800   -0.4240   21.0450 N   0  0  0  0  0  0  0  0  0  0  0  0
    6.5450    0.1740   19.9580 C   0  0  0  0  0  0  0  0  0  0  0  0
    5.2780    0.9100   20.3400 C   0  0  0  0  0  0  0  0  0  0  0  0
    4.5440    1.5590   19.1800 C   0  0  0  0  0  0  0  0  0  0  0  0
    5.1270    1.4120   17.8060 C   0  0  0  0  0  0  0  0  0  0  0  0
    6.2830    0.7000   17.6040 N   0  0  0  0  0  0  0  0  0  0  0  0
    6.9240    0.1260   18.6570 C   0  0  0  0  0  0  0  0  0  0  0  0
    8.8510   -0.3390   22.7330 N   0  0  0  0  0  0  0  0  0  0  0  0
   10.1880   -0.4470   22.9810 C   0  0  0  0  0  0  0  0  0  0  0  0
   10.9520   -1.3680   22.6790 N   0  0  0  0  0  0  0  0  0  0  0  0
   12.0710   -0.9040   23.1790 C   0  0  0  0  0  0  0  0  0  0  0  0
   13.4520   -1.8650   23.0350 Cl  0  0  0  0  0  0  0  0  0  0  0  0
   12.0560    0.4740   23.8760 C   0  0  0  0  0  0  0  0  0  0  0  0
   10.6810    0.5000   23.5800 O   0  0  0  0  0  0  0  0  0  0  0  0
  1  2  2  0
  2  3  1  0
  3  4  1  0
  4  5  2  0
  5  6  1  0
  6  7  2  0
  7  8  1  0
  4  9  1  0
  8  9  2  0
  2 10  1  0
 10 11  1  0
 11 12  2  0
 12 13  1  0
 13 14  1  0
 13 15  2  0
 11 16  1  0
 15 16  1  0
M  END
