DAR-DIA-2b784ede-9-chloroacetamide
     RDKit          3D

 32 34  0  0  0  0  0  0  0  0999 V2000
    7.8160   -3.9600   20.4270 C   0  0  0  0  0  0  0  0  0  0  0  0
    6.6780   -2.9940   20.2710 C   0  0  0  0  0  0  0  0  0  0  0  0
    5.7970   -3.3590   19.3990 O   0  0  0  0  0  0  0  0  0  0  0  0
    6.7160   -1.7840   21.1430 N   0  0  0  0  0  0  0  0  0  0  0  0
    6.2670   -2.1250   22.4700 C   0  0  0  0  0  0  0  0  0  0  0  0
    7.2740   -2.6390   22.9850 C   0  0  0  0  0  0  0  0  0  0  0  0
    7.7910   -2.2810   21.7430 C   0  0  0  0  0  0  0  0  0  0  0  0
    6.6500   -1.5340   20.8050 C   0  0  0  0  0  0  0  0  0  0  0  0
    6.9650   -1.0590   19.5010 C   0  0  0  0  0  0  0  0  0  0  0  0
    5.5260   -1.1090   18.4950 Cl  0  0  0  0  0  0  0  0  0  0  0  0
    5.2310   -1.3050   21.2780 C   0  0  0  0  0  0  0  0  0  0  0  0
    5.0560   -1.7830   22.5590 C   0  0  0  0  0  0  0  0  0  0  0  0
    7.7900   -0.6460   20.9930 C   0  0  1  0  0  0  0  0  0  0  0  0
    7.1660    0.8260   20.9850 C   0  0  0  0  0  0  0  0  0  0  0  0
    7.7810    1.8060   20.5420 O   0  0  0  0  0  0  0  0  0  0  0  0
    5.8910    0.9150   21.5220 N   0  0  0  0  0  0  0  0  0  0  0  0
    4.7690    1.6880   21.1010 C   0  0  0  0  0  0  0  0  0  0  0  0
    4.3490    1.9430   19.6690 C   0  0  0  0  0  0  0  0  0  0  0  0
    4.9880    1.4750   18.4940 C   0  0  0  0  0  0  0  0  0  0  0  0
    3.2020    2.7270   19.4220 C   0  0  0  0  0  0  0  0  0  0  0  0
    2.4430    3.2740   20.4500 C   0  0  0  0  0  0  0  0  0  0  0  0
    2.7660    3.0880   21.8090 C   0  0  0  0  0  0  0  0  0  0  0  0
    3.9820    2.2600   22.1370 C   0  0  0  0  0  0  0  0  0  0  0  0
    4.2650    2.1010   23.6260 C   0  0  0  0  0  0  0  0  0  0  0  0
    5.3720    1.1320   24.0050 C   0  0  0  0  0  0  0  0  0  0  0  0
    9.2040   -0.6960   21.7010 C   0  0  0  0  0  0  0  0  0  0  0  0
   10.0310   -1.8490   21.7410 C   0  0  0  0  0  0  0  0  0  0  0  0
   11.2660   -1.9570   22.3130 N   0  0  0  0  0  0  0  0  0  0  0  0
   11.7920   -0.8840   22.9070 C   0  0  0  0  0  0  0  0  0  0  0  0
   11.1290    0.3420   22.9750 C   0  0  0  0  0  0  0  0  0  0  0  0
    9.7670    0.4420   22.3460 C   0  0  0  0  0  0  0  0  0  0  0  0
    9.1240    1.6810   22.4310 C   0  0  0  0  0  0  0  0  0  0  0  0
  1  2  1  0
  2  3  2  0
  2  4  1  0
  4  5  1  0
  5  6  2  0
  6  7  1  0
  7  8  2  0
  8  9  1  0
  9 10  1  0
  8 11  1  0
  5 12  1  0
 11 12  2  0
  4 13  1  0
 13 14  1  1
 14 15  2  0
 14 16  1  0
 16 17  1  0
 17 18  2  0
 18 19  1  0
 18 20  1  0
 20 21  2  0
 21 22  1  0
 17 23  1  0
 22 23  2  0
 23 24  1  0
 24 25  1  0
 13 26  1  0
 26 27  2  0
 27 28  1  0
 28 29  2  0
 29 30  1  0
 26 31  1  0
 30 31  2  0
 31 32  1  0
M  END
