DAR-DIA-2b784ede-43-chloroacetamide
     RDKit          3D

 33 35  0  0  0  0  0  0  0  0999 V2000
    7.5290   -3.4250   19.9020 C   0  0  0  0  0  0  0  0  0  0  0  0
    6.2900   -2.6510   19.5810 C   0  0  0  0  0  0  0  0  0  0  0  0
    5.3350   -3.1490   18.9610 O   0  0  0  0  0  0  0  0  0  0  0  0
    6.2690   -1.2750   20.0230 N   0  0  0  0  0  0  0  0  0  0  0  0
    5.4300   -0.3800   19.1910 C   0  0  0  0  0  0  0  0  0  0  0  0
    4.8800   -0.6240   20.3140 C   0  0  0  0  0  0  0  0  0  0  0  0
    5.8370   -1.4690   20.7660 C   0  0  0  0  0  0  0  0  0  0  0  0
    5.8550   -2.2020   22.0700 C   0  0  0  0  0  0  0  0  0  0  0  0
    7.1420   -2.7320   22.5540 C   0  0  0  0  0  0  0  0  0  0  0  0
    4.8580   -3.1680   22.1080 C   0  0  0  0  0  0  0  0  0  0  0  0
    5.4860   -1.2780   23.2170 C   0  0  0  0  0  0  0  0  0  0  0  0
    6.8160   -1.4740   19.6420 N   0  0  0  0  0  0  0  0  0  0  0  0
    6.5690   -0.6880   18.4430 N   0  0  0  0  0  0  0  0  0  0  0  0
    7.4880   -0.6450   20.4460 C   0  0  2  0  0  0  0  0  0  0  0  0
    8.3370   -1.1530   21.6700 C   0  0  0  0  0  0  0  0  0  0  0  0
    7.7050   -0.6970   22.8590 O   0  0  0  0  0  0  0  0  0  0  0  0
    9.5520   -1.8480   21.6770 N   0  0  0  0  0  0  0  0  0  0  0  0
   10.4870   -1.5340   22.6700 C   0  0  0  0  0  0  0  0  0  0  0  0
   10.0040   -1.0870   24.0520 C   0  0  0  0  0  0  0  0  0  0  0  0
    8.6710   -1.0040   24.3880 C   0  0  0  0  0  0  0  0  0  0  0  0
   10.9190   -0.7470   25.0420 C   0  0  0  0  0  0  0  0  0  0  0  0
   12.2860   -0.8140   24.8050 C   0  0  0  0  0  0  0  0  0  0  0  0
   12.7490   -1.2330   23.5650 C   0  0  0  0  0  0  0  0  0  0  0  0
   11.9260   -1.5970   22.4980 C   0  0  0  0  0  0  0  0  0  0  0  0
   12.5890   -1.9970   21.3500 C   0  0  0  0  0  0  0  0  0  0  0  0
   13.2640   -3.0030   21.3070 O   0  0  0  0  0  0  0  0  0  0  0  0
    7.2140    0.7030   20.7810 C   0  0  0  0  0  0  0  0  0  0  0  0
    8.2240    1.6230   21.4710 C   0  0  0  0  0  0  0  0  0  0  0  0
    7.9050    3.0760   21.8250 C   0  0  0  0  0  0  0  0  0  0  0  0
    6.6320    3.5490   21.4930 C   0  0  0  0  0  0  0  0  0  0  0  0
    6.2870    4.8360   21.7570 N   0  0  0  0  0  0  0  0  0  0  0  0
    5.7460    2.7010   20.8820 N   0  0  0  0  0  0  0  0  0  0  0  0
    6.0030    1.3250   20.5270 C   0  0  0  0  0  0  0  0  0  0  0  0
  1  2  1  0
  2  3  2  0
  2  4  1  0
  4  5  1  0
  5  6  2  0
  6  7  1  0
  7  8  1  0
  8  9  1  0
  8 10  1  0
  8 11  1  0
  7 12  2  0
  5 13  1  0
 12 13  1  0
  4 14  1  0
 14 15  1  1
 15 16  2  0
 15 17  1  0
 17 18  1  0
 18 19  2  0
 19 20  1  0
 19 21  1  0
 21 22  2  0
 22 23  1  0
 18 24  1  0
 23 24  2  0
 24 25  1  0
 25 26  1  0
 14 27  1  0
 27 28  2  0
 28 29  1  0
 29 30  2  0
 30 31  1  0
 30 32  1  0
 27 33  1  0
 32 33  2  0
M  END
