DAR-DIA-fb20be43-8-chloroacetamide
     RDKit          3D

 21 23  0  0  0  0  0  0  0  0999 V2000
    7.6630   -3.5720   19.6090 C   0  0  0  0  0  0  0  0  0  0  0  0
    6.3800   -2.8810   19.8330 C   0  0  0  0  0  0  0  0  0  0  0  0
    5.4390   -3.1820   19.0690 O   0  0  0  0  0  0  0  0  0  0  0  0
    6.3220   -2.0360   20.9250 N   0  0  0  0  0  0  0  0  0  0  0  0
    6.0360   -2.6260   22.2420 C   0  0  0  0  0  0  0  0  0  0  0  0
    7.3080   -3.1180   22.9490 C   0  0  0  0  0  0  0  0  0  0  0  0
    8.1910   -1.9570   23.0900 N   0  0  0  0  0  0  0  0  0  0  0  0
    9.3690   -2.2360   23.9360 C   0  0  0  0  0  0  0  0  0  0  0  0
   10.3600   -1.3560   23.5600 C   0  0  0  0  0  0  0  0  0  0  0  0
   11.3730   -1.8130   22.8010 C   0  0  0  0  0  0  0  0  0  0  0  0
   12.3340   -0.9590   22.4030 C   0  0  0  0  0  0  0  0  0  0  0  0
   13.4800   -1.6650   21.4260 Cl  0  0  0  0  0  0  0  0  0  0  0  0
   12.3490    0.3810   22.7500 C   0  0  0  0  0  0  0  0  0  0  0  0
   11.3140    0.9270   23.5180 C   0  0  0  0  0  0  0  0  0  0  0  0
   11.2410    2.2950   23.8620 C   0  0  0  0  0  0  0  0  0  0  0  0
   10.1600    2.8030   24.6130 C   0  0  0  0  0  0  0  0  0  0  0  0
    9.1590    1.9420   25.0520 C   0  0  0  0  0  0  0  0  0  0  0  0
    9.2550    0.5040   24.6910 C   0  0  0  0  0  0  0  0  0  0  0  0
   10.3080    0.0050   23.9250 C   0  0  0  0  0  0  0  0  0  0  0  0
    8.5430   -1.4690   21.7370 C   0  0  0  0  0  0  0  0  0  0  0  0
    7.4000   -1.0150   21.0390 C   0  0  0  0  0  0  0  0  0  0  0  0
  1  2  1  0
  2  3  2  0
  2  4  1  0
  4  5  1  0
  5  6  1  0
  6  7  1  0
  7  8  1  0
  8  9  1  0
  9 10  2  0
 10 11  1  0
 11 12  1  0
 11 13  2  0
 13 14  1  0
 14 15  1  0
 15 16  2  0
 16 17  1  0
 17 18  2  0
  9 19  1  0
 14 19  2  0
 18 19  1  0
  7 20  1  0
  4 21  1  0
 20 21  1  0
M  END
