DAR-DIA-caba39e3-11-nitrile
     RDKit          3D

 30 33  0  0  0  0  0  0  0  0999 V2000
    6.7770   -3.5350   19.8400 C   0  0  0  0  0  0  0  0  0  0  0  0
    5.7640   -3.2850   19.1150 N   0  0  0  0  0  0  0  0  0  0  0  0
    6.8900   -3.0360   21.1410 N   0  0  0  0  0  0  0  0  0  0  0  0
    6.3980   -3.7060   22.3060 C   0  0  0  0  0  0  0  0  0  0  0  0
    7.2940   -3.9660   23.3640 C   0  0  0  0  0  0  0  0  0  0  0  0
    6.9190   -4.7420   24.4840 C   0  0  0  0  0  0  0  0  0  0  0  0
    7.8190   -5.0040   25.5390 C   0  0  0  0  0  0  0  0  0  0  0  0
    9.2040   -4.4480   25.4790 C   0  0  0  0  0  0  0  0  0  0  0  0
    9.5060   -3.6970   24.3600 C   0  0  0  0  0  0  0  0  0  0  0  0
    8.5880   -3.4630   23.3360 C   0  0  0  0  0  0  0  0  0  0  0  0
    9.0340   -2.6930   22.2770 C   0  0  2  0  0  0  0  0  0  0  0  0
    9.8610   -1.5620   22.7800 C   0  0  0  0  0  0  0  0  0  0  0  0
   11.2890   -1.3860   22.2890 C   0  0  0  0  0  0  0  0  0  0  0  0
   12.0680   -0.3570   22.7100 C   0  0  0  0  0  0  0  0  0  0  0  0
   13.2840   -0.2440   22.2460 O   0  0  0  0  0  0  0  0  0  0  0  0
   13.5270    1.0170   22.7360 C   0  0  0  0  0  0  0  0  0  0  0  0
   11.5120    0.5590   23.6260 C   0  0  0  0  0  0  0  0  0  0  0  0
   10.2180    0.4250   24.0950 C   0  0  0  0  0  0  0  0  0  0  0  0
    9.7160    1.3280   24.9710 C   0  0  0  0  0  0  0  0  0  0  0  0
    8.4540    1.3260   25.5420 C   0  0  0  0  0  0  0  0  0  0  0  0
    8.0930    2.4280   26.5150 C   0  0  0  0  0  0  0  0  0  0  0  0
    8.3470    3.7910   25.8860 C   0  0  0  0  0  0  0  0  0  0  0  0
    7.3200    4.1610   24.9310 N   0  0  0  0  0  0  0  0  0  0  0  0
    7.6650    4.7200   23.5970 C   0  0  0  0  0  0  0  0  0  0  0  0
    8.0430    3.7270   22.6640 C   0  0  0  0  0  0  0  0  0  0  0  0
    7.6230    6.1150   23.2880 O   0  0  0  0  0  0  0  0  0  0  0  0
    7.6090    0.2950   25.1690 C   0  0  0  0  0  0  0  0  0  0  0  0
    8.0450   -0.6680   24.2610 C   0  0  0  0  0  0  0  0  0  0  0  0
    9.3590   -0.6210   23.7070 C   0  0  0  0  0  0  0  0  0  0  0  0
    7.8890   -2.0280   21.4850 C   0  0  0  0  0  0  0  0  0  0  0  0
  1  2  2  3
  1  3  1  0
  3  4  1  0
  4  5  1  0
  5  6  1  0
  6  7  2  0
  7  8  1  0
  8  9  2  0
  5 10  2  0
  9 10  1  0
 10 11  1  0
 11 12  1  1
 12 13  2  0
 13 14  1  0
 14 15  1  0
 15 16  1  0
 14 17  2  0
 17 18  1  0
 18 19  1  0
 19 20  2  0
 20 21  1  0
 21 22  1  0
 22 23  1  0
 23 24  1  0
 24 25  1  0
 24 26  2  0
 20 27  1  0
 27 28  2  0
 12 29  1  0
 18 29  2  0
 28 29  1  0
  3 30  1  0
 11 30  1  0
M  END
