DAR-DIA-2b784ede-17-vinylsulfonamide
     RDKit          3D

 38 41  0  0  0  0  0  0  0  0999 V2000
    8.1860   -3.7400   19.8640 C   0  0  0  0  0  0  0  0  0  0  0  0
    7.1880   -2.8380   19.3210 C   0  0  0  0  0  0  0  0  0  0  0  0
    5.6890   -2.9020   20.2250 S   0  0  0  0  0  0  0  0  0  0  0  0
    4.7610   -3.6710   19.4240 O   0  0  0  0  0  0  0  0  0  0  0  0
    5.9450   -3.2760   21.6020 O   0  0  0  0  0  0  0  0  0  0  0  0
    5.7870   -1.2440   19.9850 N   0  0  0  0  0  0  0  0  0  0  0  0
    6.4250   -1.0710   18.7170 C   0  0  0  0  0  0  0  0  0  0  0  0
    6.8020   -2.1960   17.8610 C   0  0  0  0  0  0  0  0  0  0  0  0
    7.4880   -1.8220   16.7150 C   0  0  0  0  0  0  0  0  0  0  0  0
    7.8460   -0.5000   16.2880 C   0  0  0  0  0  0  0  0  0  0  0  0
    8.6160   -0.0160   15.0630 C   0  0  0  0  0  0  0  0  0  0  0  0
    7.8260    1.4240   15.6290 Cl  0  0  0  0  0  0  0  0  0  0  0  0
    8.2120    0.1230   13.7650 C   0  0  0  0  0  0  0  0  0  0  0  0
    9.2150    0.1870   12.5670 C   0  0  0  0  0  0  0  0  0  0  0  0
   10.4480    0.3420   13.2080 C   0  0  0  0  0  0  0  0  0  0  0  0
   10.0190    0.0670   14.6710 C   0  0  0  0  0  0  0  0  0  0  0  0
    7.3810    0.4430   17.1710 C   0  0  0  0  0  0  0  0  0  0  0  0
    6.7250    0.1710   18.3010 N   0  0  0  0  0  0  0  0  0  0  0  0
    6.6990   -0.4540   20.9850 C   0  0  2  0  0  0  0  0  0  0  0  0
    7.8180   -1.2770   21.5020 C   0  0  0  0  0  0  0  0  0  0  0  0
    7.7010   -2.4720   21.7890 O   0  0  0  0  0  0  0  0  0  0  0  0
    9.0530   -0.6550   21.6870 N   0  0  0  0  0  0  0  0  0  0  0  0
   10.3540   -1.3460   21.7980 C   0  0  0  0  0  0  0  0  0  0  0  0
   11.6380   -2.0100   22.1540 C   0  0  0  0  0  0  0  0  0  0  0  0
   12.4600   -2.5270   21.0150 C   0  0  0  0  0  0  0  0  0  0  0  0
   12.3680   -2.3210   23.3290 C   0  0  0  0  0  0  0  0  0  0  0  0
   11.8890   -1.9820   24.6400 C   0  0  0  0  0  0  0  0  0  0  0  0
   10.6100   -1.3080   24.4920 C   0  0  0  0  0  0  0  0  0  0  0  0
    9.9540   -1.0360   23.1770 C   0  0  0  0  0  0  0  0  0  0  0  0
    8.7650   -0.3560   23.4860 C   0  0  0  0  0  0  0  0  0  0  0  0
    9.0120    1.0180   23.2410 C   0  0  0  0  0  0  0  0  0  0  0  0
    5.9000    0.4530   22.0150 C   0  0  0  0  0  0  0  0  0  0  0  0
    5.5280   -0.9510   22.0940 C   0  0  0  0  0  0  0  0  0  0  0  0
    6.4640   -0.8270   21.1520 N   0  0  0  0  0  0  0  0  0  0  0  0
    6.5040    0.4250   21.3820 C   0  0  0  0  0  0  0  0  0  0  0  0
    7.4670    0.8700   20.4790 C   0  0  0  0  0  0  0  0  0  0  0  0
    6.6770    1.5760   21.4530 C   0  0  0  0  0  0  0  0  0  0  0  0
    6.7590    3.0600   21.6940 C   0  0  0  0  0  0  0  0  0  0  0  0
  1  2  1  0
  2  3  1  0
  3  4  2  0
  3  5  2  0
  3  6  1  0
  6  7  1  0
  7  8  2  0
  8  9  1  0
  9 10  2  0
 10 11  1  0
 11 12  1  0
 11 13  1  0
 13 14  1  0
 14 15  1  0
 11 16  1  0
 15 16  1  0
 10 17  1  0
  7 18  1  0
 17 18  2  0
  6 19  1  0
 19 20  1  1
 20 21  2  0
 20 22  1  0
 22 23  1  0
 23 24  2  0
 24 25  1  0
 24 26  1  0
 26 27  2  0
 27 28  1  0
 23 29  1  0
 28 29  2  0
 29 30  1  0
 30 31  1  0
 19 32  1  0
 32 33  2  0
 33 34  1  0
 34 35  2  0
 35 36  1  0
 32 37  1  0
 36 37  2  0
 37 38  1  0
M  END
