DAR-DIA-23aa0b97-9-acrylamide
     RDKit          3D

 21 22  0  0  0  0  0  0  0  0999 V2000
    6.4090   -3.3820   19.0490 C   0  0  0  0  0  0  0  0  0  0  0  0
    6.1210   -2.3100   20.0410 C   0  0  0  0  0  0  0  0  0  0  0  0
    5.9840   -2.8860   21.4110 C   0  0  0  0  0  0  0  0  0  0  0  0
    4.9940   -3.6600   21.6870 O   0  0  0  0  0  0  0  0  0  0  0  0
    7.1120   -2.4360   22.3170 C   0  0  0  0  0  0  0  0  0  0  0  0
    8.1370   -1.6010   22.2820 C   0  0  0  0  0  0  0  0  0  0  0  0
    8.3190   -2.1620   23.7040 N   0  0  0  0  0  0  0  0  0  0  0  0
    9.4030   -1.5860   24.3280 C   0  0  0  0  0  0  0  0  0  0  0  0
    8.7930   -1.5230   23.2370 C   0  0  0  0  0  0  0  0  0  0  0  0
    9.1120   -0.6750   22.1210 N   0  0  0  0  0  0  0  0  0  0  0  0
    8.4430    0.4710   21.6390 C   0  0  0  0  0  0  0  0  0  0  0  0
    8.9700    1.5620   21.3700 O   0  0  0  0  0  0  0  0  0  0  0  0
    7.0830    0.2390   21.4770 N   0  0  0  0  0  0  0  0  0  0  0  0
    6.3800    0.5210   20.2900 C   0  0  0  0  0  0  0  0  0  0  0  0
    6.8400    0.2050   19.0420 C   0  0  0  0  0  0  0  0  0  0  0  0
    6.2620    0.4490   17.8660 N   0  0  0  0  0  0  0  0  0  0  0  0
    5.0860    1.0740   17.9770 C   0  0  0  0  0  0  0  0  0  0  0  0
    4.4690    1.4510   19.1610 C   0  0  0  0  0  0  0  0  0  0  0  0
    3.2270    2.0880   19.1330 N   0  0  0  0  0  0  0  0  0  0  0  0
    5.1360    1.1690   20.3540 C   0  0  0  0  0  0  0  0  0  0  0  0
    7.6760   -2.5430   23.4200 C   0  0  0  0  0  0  0  0  0  0  0  0
  1  2  1  0
  2  3  1  0
  3  4  2  0
  3  5  1  0
  5  6  2  0
  6  7  1  0
  7  8  2  0
  8  9  1  0
  9 10  1  0
 10 11  1  0
 11 12  2  0
 11 13  1  0
 13 14  1  0
 14 15  2  0
 15 16  1  0
 16 17  2  0
 17 18  1  0
 18 19  1  0
 14 20  1  0
 18 20  2  0
  5 21  1  0
  9 21  2  0
M  END
