DAR-DIA-2b784ede-5-nitrile
     RDKit          3D

 23 24  0  0  0  0  0  0  0  0999 V2000
    7.1470   -3.0060   20.1310 C   0  0  0  0  0  0  0  0  0  0  0  0
    6.4660   -2.5320   19.1150 N   0  0  0  0  0  0  0  0  0  0  0  0
    7.4200   -2.2940   21.5210 N   0  0  0  0  0  0  0  0  0  0  0  0
    6.7760   -2.8120   22.6960 C   0  0  0  0  0  0  0  0  0  0  0  0
    7.2630   -2.5070   23.9780 C   0  0  0  0  0  0  0  0  0  0  0  0
    6.6510   -3.0120   25.1220 C   0  0  0  0  0  0  0  0  0  0  0  0
    5.5390   -3.8370   25.0020 C   0  0  0  0  0  0  0  0  0  0  0  0
    4.8570   -4.4090   26.2150 C   0  0  0  0  0  0  0  0  0  0  0  0
    5.5680   -3.7480   27.7060 Cl  0  0  0  0  0  0  0  0  0  0  0  0
    5.0880   -4.1060   23.7080 C   0  0  0  0  0  0  0  0  0  0  0  0
    5.6740   -3.6160   22.5890 N   0  0  0  0  0  0  0  0  0  0  0  0
    8.1090   -0.9030   21.9170 C   0  0  1  0  0  0  0  0  0  0  0  0
    7.2580   -0.2100   22.8000 C   0  0  0  0  0  0  0  0  0  0  0  0
    6.0350   -0.3230   22.7750 O   0  0  0  0  0  0  0  0  0  0  0  0
    7.9480    0.6260   23.6940 N   0  0  0  0  0  0  0  0  0  0  0  0
    8.4710    0.2030   24.9470 C   0  0  0  0  0  0  0  0  0  0  0  0
    9.5860   -0.9640   22.4510 C   0  0  0  0  0  0  0  0  0  0  0  0
   10.4360    0.1790   22.2650 C   0  0  0  0  0  0  0  0  0  0  0  0
   11.7530    0.2960   22.6090 N   0  0  0  0  0  0  0  0  0  0  0  0
   12.2920   -0.7790   23.1770 C   0  0  0  0  0  0  0  0  0  0  0  0
   11.5180   -1.9200   23.4290 C   0  0  0  0  0  0  0  0  0  0  0  0
   10.1860   -2.0330   23.0930 C   0  0  0  0  0  0  0  0  0  0  0  0
    9.5030   -3.1760   23.3830 C   0  0  0  0  0  0  0  0  0  0  0  0
  1  2  2  3
  1  3  1  0
  3  4  1  0
  4  5  2  0
  5  6  1  0
  6  7  2  0
  7  8  1  0
  8  9  1  0
  7 10  1  0
  4 11  1  0
 10 11  2  0
  3 12  1  0
 12 13  1  1
 13 14  2  0
 13 15  1  0
 15 16  1  0
 12 17  1  0
 17 18  2  0
 18 19  1  0
 19 20  2  0
 20 21  1  0
 17 22  1  0
 21 22  2  0
 22 23  1  0
M  END
