DAR-DIA-2b784ede-36-acrylamide
     RDKit          3D

 35 37  0  0  0  0  0  0  0  0999 V2000
    6.9420   -2.7840   18.8380 C   0  0  0  0  0  0  0  0  0  0  0  0
    5.6700   -3.1050   19.6600 C   0  0  0  0  0  0  0  0  0  0  0  0
    5.5200   -2.7030   21.1170 C   0  0  0  0  0  0  0  0  0  0  0  0
    4.9250   -3.5950   21.7350 O   0  0  0  0  0  0  0  0  0  0  0  0
    5.8730   -1.4760   21.7350 N   0  0  0  0  0  0  0  0  0  0  0  0
    4.7670   -0.7500   22.3860 C   0  0  0  0  0  0  0  0  0  0  0  0
    4.5010   -0.8910   23.8430 C   0  0  0  0  0  0  0  0  0  0  0  0
    3.3270    0.0210   24.0050 C   0  0  0  0  0  0  0  0  0  0  0  0
    2.6290    0.2640   25.3510 C   0  0  0  0  0  0  0  0  0  0  0  0
    3.0820    1.5400   26.0500 C   0  0  0  0  0  0  0  0  0  0  0  0
    2.8380   -0.8860   26.3600 C   0  0  0  0  0  0  0  0  0  0  0  0
    1.1030    0.3640   25.1180 C   0  0  0  0  0  0  0  0  0  0  0  0
   -0.3480    0.4350   24.8800 N   0  0  0  0  0  0  0  0  0  0  0  0
    2.9820    0.5580   22.9270 O   0  0  0  0  0  0  0  0  0  0  0  0
    3.8460    0.1210   21.8720 N   0  0  0  0  0  0  0  0  0  0  0  0
    6.7720   -0.5530   21.0120 C   0  0  2  0  0  0  0  0  0  0  0  0
    8.0200   -0.2230   21.6790 C   0  0  0  0  0  0  0  0  0  0  0  0
    8.0420    0.8050   22.3690 O   0  0  0  0  0  0  0  0  0  0  0  0
    9.1810   -1.0690   21.5140 N   0  0  0  0  0  0  0  0  0  0  0  0
   10.3970   -1.1730   22.4710 C   0  0  0  0  0  0  0  0  0  0  0  0
    9.9890   -1.3550   23.8720 C   0  0  0  0  0  0  0  0  0  0  0  0
    8.5220   -1.4900   24.2160 C   0  0  0  0  0  0  0  0  0  0  0  0
   10.9280   -1.3980   24.8300 C   0  0  0  0  0  0  0  0  0  0  0  0
   12.2260   -1.3120   24.5620 C   0  0  0  0  0  0  0  0  0  0  0  0
   12.5870   -1.1750   23.3150 C   0  0  0  0  0  0  0  0  0  0  0  0
   11.7640   -1.0810   22.0200 C   0  0  0  0  0  0  0  0  0  0  0  0
   13.2840   -1.0210   21.8880 C   0  0  0  0  0  0  0  0  0  0  0  0
   13.6530   -1.3850   20.5300 C   0  0  0  0  0  0  0  0  0  0  0  0
    6.0390    0.4630   20.1670 C   0  0  0  0  0  0  0  0  0  0  0  0
    6.7330   -0.3090   19.2860 C   0  0  0  0  0  0  0  0  0  0  0  0
    6.7650   -0.1980   17.9770 N   0  0  0  0  0  0  0  0  0  0  0  0
    6.0720    0.7520   17.3450 C   0  0  0  0  0  0  0  0  0  0  0  0
    5.2480    1.7030   17.9170 C   0  0  0  0  0  0  0  0  0  0  0  0
    5.7350    0.9810   18.9360 C   0  0  0  0  0  0  0  0  0  0  0  0
    4.9440    1.8800   19.6450 C   0  0  0  0  0  0  0  0  0  0  0  0
  1  2  1  0
  2  3  1  0
  3  4  2  0
  3  5  1  0
  5  6  1  0
  6  7  1  0
  7  8  2  0
  8  9  1  0
  9 10  1  0
  9 11  1  0
  9 12  1  0
 12 13  3  0
  8 14  1  0
  6 15  2  0
 14 15  1  0
  5 16  1  0
 16 17  1  1
 17 18  2  0
 17 19  1  0
 19 20  1  0
 20 21  2  0
 21 22  1  0
 21 23  1  0
 23 24  2  0
 24 25  1  0
 20 26  1  0
 25 26  2  0
 26 27  1  0
 27 28  1  0
 16 29  1  0
 29 30  2  0
 30 31  1  0
 31 32  2  0
 32 33  1  0
 29 34  1  0
 33 34  2  0
 34 35  1  0
M  END
