DAR-DIA-a80d16a0-3
     RDKit          3D

 21 23  0  0  0  0  0  0  0  0999 V2000
    7.7230   -2.8030   26.2010 C   0  0  0  0  0  0  0  0  0  0  0  0
    8.2460   -1.7700   25.3200 N   0  0  0  0  0  0  0  0  0  0  0  0
    8.7390   -2.3470   24.0710 C   0  0  0  0  0  0  0  0  0  0  0  0
    8.6710   -1.2770   22.9810 C   0  0  0  0  0  0  0  0  0  0  0  0
    9.9720   -0.6270   22.8720 N   0  0  0  0  0  0  0  0  0  0  0  0
   11.0350   -1.4360   22.7100 C   0  0  0  0  0  0  0  0  0  0  0  0
   12.4340   -0.8810   22.7430 C   0  0  0  0  0  0  0  0  0  0  0  0
   13.4810   -1.7090   22.6270 F   0  0  0  0  0  0  0  0  0  0  0  0
   12.5570    0.6470   22.9070 C   0  0  0  0  0  0  0  0  0  0  0  0
   11.3940    1.3130   23.6670 C   0  0  1  0  0  0  0  0  0  0  0  0
   10.8030    2.5730   23.0860 C   0  0  0  0  0  0  0  0  0  0  0  0
    9.4260    2.7690   23.1070 C   0  0  0  0  0  0  0  0  0  0  0  0
    8.8470    2.5620   24.4050 C   0  0  0  0  0  0  0  0  0  0  0  0
    7.4680    2.7510   24.4970 C   0  0  0  0  0  0  0  0  0  0  0  0
    6.6180    3.1350   23.3680 C   0  0  0  0  0  0  0  0  0  0  0  0
    4.9290    3.3540   23.5420 Cl  0  0  0  0  0  0  0  0  0  0  0  0
    7.2620    3.3080   22.1550 C   0  0  0  0  0  0  0  0  0  0  0  0
    8.6250    3.1340   22.0090 C   0  0  0  0  0  0  0  0  0  0  0  0
   11.5600    3.8740   23.2460 C   0  0  0  0  0  0  0  0  0  0  0  0
   11.5550    3.3320   22.1550 C   0  0  0  0  0  0  0  0  0  0  0  0
   10.2260    0.3730   23.9760 C   0  0  0  0  0  0  0  0  0  0  0  0
  1  2  1  0
  2  3  1  0
  3  4  1  0
  4  5  1  0
  5  6  1  0
  6  7  2  0
  7  8  1  0
  7  9  1  0
  9 10  1  0
 10 11  1  6
 11 12  1  0
 12 13  2  0
 13 14  1  0
 14 15  2  0
 15 16  1  0
 15 17  1  0
 12 18  1  0
 17 18  2  0
 11 19  1  0
 11 20  1  0
 19 20  1  0
  5 21  1  0
 10 21  1  0
M  END
