DAR-DIA-fb20be43-15-chloroacetamide
     RDKit          3D

 26 28  0  0  0  0  0  0  0  0999 V2000
    7.6410   -3.6030   19.6740 C   0  0  0  0  0  0  0  0  0  0  0  0
    6.3590   -2.9200   19.8320 C   0  0  0  0  0  0  0  0  0  0  0  0
    5.4130   -3.1940   19.0790 O   0  0  0  0  0  0  0  0  0  0  0  0
    6.3400   -2.0560   20.9040 N   0  0  0  0  0  0  0  0  0  0  0  0
    6.0520   -2.6320   22.2340 C   0  0  0  0  0  0  0  0  0  0  0  0
    7.3220   -2.8870   23.0730 C   0  0  0  0  0  0  0  0  0  0  0  0
    8.0510   -1.6320   23.2250 N   0  0  0  0  0  0  0  0  0  0  0  0
    9.1230   -1.6170   24.2260 C   0  0  0  0  0  0  0  0  0  0  0  0
   10.2410   -0.7750   23.6970 C   0  0  0  0  0  0  0  0  0  0  0  0
   11.2560   -1.5760   22.9720 C   0  0  0  0  0  0  0  0  0  0  0  0
   12.3210   -0.9150   22.4200 C   0  0  0  0  0  0  0  0  0  0  0  0
   13.3860   -1.9030   21.5840 Cl  0  0  0  0  0  0  0  0  0  0  0  0
   12.5110    0.4590   22.5100 C   0  0  0  0  0  0  0  0  0  0  0  0
   11.5580    1.2130   23.1610 C   0  0  0  0  0  0  0  0  0  0  0  0
   11.4630    2.5880   23.3480 C   0  0  0  0  0  0  0  0  0  0  0  0
   12.3740    3.5520   22.8480 C   0  0  0  0  0  0  0  0  0  0  0  0
   12.2210    4.8420   23.3640 C   0  0  0  0  0  0  0  0  0  0  0  0
   11.1850    5.5940   22.6680 N   0  0  0  0  0  0  0  0  0  0  0  0
   10.1960    6.2180   23.3810 C   0  0  0  0  0  0  0  0  0  0  0  0
    9.1300    6.6610   22.5880 C   0  0  0  0  0  0  0  0  0  0  0  0
   10.2260    6.3780   24.5990 O   0  0  0  0  0  0  0  0  0  0  0  0
   10.3120    2.9000   24.0880 C   0  0  0  0  0  0  0  0  0  0  0  0
    9.7120    1.6750   24.3290 N   0  0  0  0  0  0  0  0  0  0  0  0
   10.4450    0.6290   23.7590 C   0  0  0  0  0  0  0  0  0  0  0  0
    8.4690   -1.1510   21.9060 C   0  0  0  0  0  0  0  0  0  0  0  0
    7.2850   -0.9260   20.9400 C   0  0  0  0  0  0  0  0  0  0  0  0
  1  2  1  0
  2  3  2  0
  2  4  1  0
  4  5  1  0
  5  6  1  0
  6  7  1  0
  7  8  1  0
  8  9  1  0
  9 10  2  0
 10 11  1  0
 11 12  1  0
 11 13  2  0
 13 14  1  0
 14 15  1  0
 15 16  1  0
 16 17  1  0
 17 18  1  0
 18 19  1  0
 19 20  1  0
 19 21  2  0
 15 22  2  0
 22 23  1  0
  9 24  1  0
 14 24  2  0
 23 24  1  0
  7 25  1  0
  4 26  1  0
 25 26  1  0
M  END
