DAR-DIA-2b784ede-51-nitrile
     RDKit          3D

 32 34  0  0  0  0  0  0  0  0999 V2000
    6.2600   -3.8530   20.1670 C   0  0  0  0  0  0  0  0  0  0  0  0
    5.2850   -3.6470   19.3920 N   0  0  0  0  0  0  0  0  0  0  0  0
    6.2320   -3.1430   21.3950 N   0  0  0  0  0  0  0  0  0  0  0  0
    5.3000   -2.0160   21.7120 C   0  0  0  0  0  0  0  0  0  0  0  0
    4.5540   -0.6790   21.5000 C   0  0  0  0  0  0  0  0  0  0  0  0
    4.7210    0.1090   20.2880 C   0  0  0  0  0  0  0  0  0  0  0  0
    4.1400    1.4750   19.8660 C   0  0  0  0  0  0  0  0  0  0  0  0
    2.6600    1.8660   19.9710 C   0  0  0  0  0  0  0  0  0  0  0  0
    4.8450    2.5760   20.6860 C   0  0  0  0  0  0  0  0  0  0  0  0
    4.5650    1.6920   18.4050 C   0  0  0  0  0  0  0  0  0  0  0  0
    5.5140   -0.6110   19.6020 N   0  0  0  0  0  0  0  0  0  0  0  0
    5.7970   -1.7130   20.3940 N   0  0  0  0  0  0  0  0  0  0  0  0
    7.3840   -2.3000   21.7240 C   0  0  1  0  0  0  0  0  0  0  0  0
    8.4880   -2.9090   22.1850 C   0  0  0  0  0  0  0  0  0  0  0  0
    8.3830   -4.0030   22.7580 O   0  0  0  0  0  0  0  0  0  0  0  0
    9.6960   -2.3340   22.1290 N   0  0  0  0  0  0  0  0  0  0  0  0
   10.3760   -1.7230   23.1720 C   0  0  0  0  0  0  0  0  0  0  0  0
    9.6890   -1.2620   24.3130 C   0  0  0  0  0  0  0  0  0  0  0  0
    8.3190   -1.3670   24.4780 C   0  0  0  0  0  0  0  0  0  0  0  0
   10.4150   -0.6680   25.3540 C   0  0  0  0  0  0  0  0  0  0  0  0
   11.9090   -0.5550   25.2120 C   0  0  0  0  0  0  0  0  0  0  0  0
   12.5550   -1.0420   23.9990 C   0  0  0  0  0  0  0  0  0  0  0  0
   11.7680   -1.5990   23.0330 C   0  0  0  0  0  0  0  0  0  0  0  0
   12.4700   -1.9940   21.9970 C   0  0  0  0  0  0  0  0  0  0  0  0
   13.4010   -0.8590   21.6820 C   0  0  0  0  0  0  0  0  0  0  0  0
   13.3570   -2.9360   22.7240 C   0  0  0  0  0  0  0  0  0  0  0  0
    7.3600   -1.1670   20.7420 C   0  0  0  0  0  0  0  0  0  0  0  0
    7.3120    0.2880   21.1080 C   0  0  0  0  0  0  0  0  0  0  0  0
    7.2310    1.2110   20.0720 C   0  0  0  0  0  0  0  0  0  0  0  0
    7.2000    0.7400   18.7500 C   0  0  0  0  0  0  0  0  0  0  0  0
    7.2610   -0.5590   18.4140 N   0  0  0  0  0  0  0  0  0  0  0  0
    7.3400   -1.4690   19.3840 C   0  0  0  0  0  0  0  0  0  0  0  0
  1  2  2  3
  1  3  1  0
  3  4  1  0
  4  5  2  0
  5  6  1  0
  6  7  1  0
  7  8  1  0
  7  9  1  0
  7 10  1  0
  6 11  2  0
  4 12  1  0
 11 12  1  0
  3 13  1  0
 13 14  1  6
 14 15  2  0
 14 16  1  0
 16 17  1  0
 17 18  2  0
 18 19  1  0
 18 20  1  0
 20 21  2  0
 21 22  1  0
 17 23  1  0
 22 23  2  0
 23 24  1  0
 24 25  1  0
 24 26  1  0
 13 27  1  0
 27 28  2  0
 28 29  1  0
 29 30  2  0
 30 31  1  0
 27 32  1  0
 31 32  2  0
M  END
