DAR-DIA-2b784ede-28-vinylsulfonamide
     RDKit          3D

 28 29  0  0  0  0  0  0  0  0999 V2000
    6.5300   -3.7670   20.0090 C   0  0  0  0  0  0  0  0  0  0  0  0
    6.5540   -4.2900   21.4280 C   0  0  0  0  0  0  0  0  0  0  0  0
    5.6550   -3.2000   22.5530 S   0  0  0  0  0  0  0  0  0  0  0  0
    4.3200   -3.1100   22.0250 O   0  0  0  0  0  0  0  0  0  0  0  0
    5.7580   -3.8050   23.8670 O   0  0  0  0  0  0  0  0  0  0  0  0
    6.4680   -1.6780   22.6620 N   0  0  0  0  0  0  0  0  0  0  0  0
    5.8920   -0.4880   22.1830 C   0  0  0  0  0  0  0  0  0  0  0  0
    6.3140   -1.0110   20.9890 C   0  0  0  0  0  0  0  0  0  0  0  0
    6.1150   -0.4050   19.9070 N   0  0  0  0  0  0  0  0  0  0  0  0
    5.4910    0.7300   20.0300 N   0  0  0  0  0  0  0  0  0  0  0  0
    5.7750    0.4920   18.6510 C   0  0  0  0  0  0  0  0  0  0  0  0
    7.1920    0.7140   18.4610 C   0  0  0  0  0  0  0  0  0  0  0  0
    4.9820    1.3350   17.7140 C   0  0  0  0  0  0  0  0  0  0  0  0
    5.5480   -0.9420   18.4080 C   0  0  0  0  0  0  0  0  0  0  0  0
    5.4020   -2.0840   18.2840 N   0  0  0  0  0  0  0  0  0  0  0  0
    5.3960    0.6110   21.4220 C   0  0  0  0  0  0  0  0  0  0  0  0
    7.8900   -1.7130   23.2160 C   0  0  1  0  0  0  0  0  0  0  0  0
    8.3020   -3.1630   22.9480 C   0  0  0  0  0  0  0  0  0  0  0  0
    9.1280   -3.4440   22.0950 O   0  0  0  0  0  0  0  0  0  0  0  0
    7.6590   -4.1000   23.7340 N   0  0  0  0  0  0  0  0  0  0  0  0
    7.3390   -5.4420   23.2870 C   0  0  0  0  0  0  0  0  0  0  0  0
    8.9530   -0.5960   22.9560 C   0  0  0  0  0  0  0  0  0  0  0  0
   10.1700   -0.0240   22.9140 C   0  0  0  0  0  0  0  0  0  0  0  0
   11.1880    0.7540   22.7720 N   0  0  0  0  0  0  0  0  0  0  0  0
   12.2990    0.1330   23.1280 C   0  0  0  0  0  0  0  0  0  0  0  0
   11.5590   -1.0850   23.4690 C   0  0  0  0  0  0  0  0  0  0  0  0
   10.0310   -1.4560   23.4080 C   0  0  0  0  0  0  0  0  0  0  0  0
    9.7850   -2.7450   23.8450 C   0  0  0  0  0  0  0  0  0  0  0  0
  1  2  1  0
  2  3  1  0
  3  4  2  0
  3  5  2  0
  3  6  1  0
  6  7  1  0
  7  8  1  0
  8  9  2  0
  9 10  1  0
 10 11  1  0
 11 12  1  0
 11 13  1  0
 11 14  1  0
 14 15  3  0
  7 16  2  0
 10 16  1  0
  6 17  1  0
 17 18  1  6
 18 19  2  0
 18 20  1  0
 20 21  1  0
 17 22  1  0
 22 23  2  0
 23 24  1  0
 24 25  2  0
 25 26  1  0
 22 27  1  0
 26 27  2  0
 27 28  1  0
M  END
