DAR-DIA-2b784ede-31-acrylamide
     RDKit          3D

 26 27  0  0  0  0  0  0  0  0999 V2000
    6.7810   -3.5300   19.8980 C   0  0  0  0  0  0  0  0  0  0  0  0
    6.8920   -2.2060   20.6170 C   0  0  0  0  0  0  0  0  0  0  0  0
    5.9980   -2.2380   21.8320 C   0  0  0  0  0  0  0  0  0  0  0  0
    4.7400   -3.0050   21.6060 O   0  0  0  0  0  0  0  0  0  0  0  0
    6.7150   -1.4880   23.0140 N   0  0  0  0  0  0  0  0  0  0  0  0
    6.7100   -2.1690   24.3120 C   0  0  0  0  0  0  0  0  0  0  0  0
    7.4830   -3.3290   24.3020 C   0  0  0  0  0  0  0  0  0  0  0  0
    7.0930   -3.4410   25.7270 C   0  0  0  0  0  0  0  0  0  0  0  0
    7.6290   -4.5840   26.4740 C   0  0  0  0  0  0  0  0  0  0  0  0
    8.1780   -4.4250   27.7400 C   0  0  0  0  0  0  0  0  0  0  0  0
    8.6660   -5.2540   25.5740 C   0  0  0  0  0  0  0  0  0  0  0  0
    6.5940   -5.6330   26.8390 C   0  0  0  0  0  0  0  0  0  0  0  0
    6.3540   -2.6280   26.3030 O   0  0  0  0  0  0  0  0  0  0  0  0
    6.0300   -1.6850   25.3700 N   0  0  0  0  0  0  0  0  0  0  0  0
    7.7930   -0.3520   23.0840 C   0  0  2  0  0  0  0  0  0  0  0  0
    7.1420    0.8450   22.3620 C   0  0  0  0  0  0  0  0  0  0  0  0
    7.8580    1.4140   21.3070 O   0  0  0  0  0  0  0  0  0  0  0  0
    5.9410    1.3480   22.7140 N   0  0  0  0  0  0  0  0  0  0  0  0
    5.1850    0.5960   23.7550 C   0  0  0  0  0  0  0  0  0  0  0  0
    9.2640   -0.5600   22.9400 C   0  0  0  0  0  0  0  0  0  0  0  0
   10.3210    0.6320   22.6120 C   0  0  0  0  0  0  0  0  0  0  0  0
   11.5660    0.0830   22.5490 N   0  0  0  0  0  0  0  0  0  0  0  0
   10.6450   -0.8870   22.7980 C   0  0  0  0  0  0  0  0  0  0  0  0
   11.4250   -1.8910   22.8580 C   0  0  0  0  0  0  0  0  0  0  0  0
   10.0160   -1.9290   23.0880 C   0  0  0  0  0  0  0  0  0  0  0  0
    9.3810   -3.0910   23.4180 C   0  0  0  0  0  0  0  0  0  0  0  0
  1  2  1  0
  2  3  1  0
  3  4  2  0
  3  5  1  0
  5  6  1  0
  6  7  1  0
  7  8  2  0
  8  9  1  0
  9 10  1  0
  9 11  1  0
  9 12  1  0
  8 13  1  0
  6 14  2  0
 13 14  1  0
  5 15  1  0
 15 16  1  6
 16 17  2  0
 16 18  1  0
 18 19  1  0
 15 20  1  0
 20 21  2  0
 21 22  1  0
 22 23  2  0
 23 24  1  0
 20 25  1  0
 24 25  2  0
 25 26  1  0
M  END
