DAR-DIA-2b784ede-26-vinylsulfonamide
     RDKit          3D

 36 39  0  0  0  0  0  0  0  0999 V2000
    6.7830   -3.4270   19.9590 C   0  0  0  0  0  0  0  0  0  0  0  0
    6.8910   -2.8490   21.4250 C   0  0  0  0  0  0  0  0  0  0  0  0
    5.3820   -2.0250   22.0130 S   0  0  0  0  0  0  0  0  0  0  0  0
    4.3990   -3.1680   22.0390 O   0  0  0  0  0  0  0  0  0  0  0  0
    5.1240   -0.9650   21.0590 O   0  0  0  0  0  0  0  0  0  0  0  0
    5.7720   -1.1980   23.5490 N   0  0  0  0  0  0  0  0  0  0  0  0
    5.7060   -1.8680   24.8690 C   0  0  1  0  0  0  0  0  0  0  0  0
    5.0380   -1.0950   25.8010 C   0  0  0  0  0  0  0  0  0  0  0  0
    4.4260   -1.9250   26.7320 C   0  0  0  0  0  0  0  0  0  0  0  0
    4.7720   -1.6290   28.1350 C   0  0  0  0  0  0  0  0  0  0  0  0
    3.6130   -1.1310   28.8330 C   0  0  0  0  0  0  0  0  0  0  0  0
    2.5330   -1.1140   28.0180 C   0  0  0  0  0  0  0  0  0  0  0  0
    2.8750   -1.6580   26.7690 C   0  0  0  0  0  0  0  0  0  0  0  0
    4.6580   -3.2560   26.2790 C   0  0  0  0  0  0  0  0  0  0  0  0
    5.2860   -3.1540   24.9150 N   0  0  0  0  0  0  0  0  0  0  0  0
    5.9300    0.2540   23.5980 C   0  0  1  0  0  0  0  0  0  0  0  0
    7.3630    0.7610   23.8510 C   0  0  0  0  0  0  0  0  0  0  0  0
    7.6990    1.9940   23.2810 O   0  0  0  0  0  0  0  0  0  0  0  0
    8.2550    0.1040   24.5920 N   0  0  0  0  0  0  0  0  0  0  0  0
    9.5230    0.8170   24.8300 C   0  0  0  0  0  0  0  0  0  0  0  0
   10.5770    0.2840   24.0980 C   0  0  0  0  0  0  0  0  0  0  0  0
   11.5660    1.1200   23.4650 C   0  0  0  0  0  0  0  0  0  0  0  0
   11.5970    2.5170   23.4720 C   0  0  0  0  0  0  0  0  0  0  0  0
   12.6920    0.4920   22.6980 C   0  0  0  0  0  0  0  0  0  0  0  0
   13.0060   -0.8570   22.4140 C   0  0  0  0  0  0  0  0  0  0  0  0
   11.9240   -1.5260   23.1030 C   0  0  0  0  0  0  0  0  0  0  0  0
   10.8190   -1.0730   23.8730 C   0  0  0  0  0  0  0  0  0  0  0  0
    9.9230   -2.1850   24.4330 C   0  0  0  0  0  0  0  0  0  0  0  0
   10.7700   -3.0640   25.3490 C   0  0  0  0  0  0  0  0  0  0  0  0
    5.1780    0.9980   22.5190 C   0  0  0  0  0  0  0  0  0  0  0  0
    3.6970    1.2290   22.6620 C   0  0  0  0  0  0  0  0  0  0  0  0
    2.6040    1.7390   22.1490 N   0  0  0  0  0  0  0  0  0  0  0  0
    3.3050    2.1640   21.1020 C   0  0  0  0  0  0  0  0  0  0  0  0
    4.5580    2.2490   20.4680 C   0  0  0  0  0  0  0  0  0  0  0  0
    5.6700    1.5550   21.3110 C   0  0  0  0  0  0  0  0  0  0  0  0
    7.1340    1.5050   20.8490 C   0  0  0  0  0  0  0  0  0  0  0  0
  1  2  1  0
  2  3  1  0
  3  4  2  0
  3  5  2  0
  3  6  1  0
  7  6  1  6
  7  8  1  0
  9  8  1  0
  9 10  1  0
 10 11  1  0
 11 12  1  0
  9 13  1  0
 12 13  1  0
  9 14  1  0
  7 15  1  0
 14 15  1  0
  6 16  1  0
 16 17  1  6
 17 18  2  0
 17 19  1  0
 19 20  1  0
 20 21  1  0
 21 22  2  0
 22 23  1  0
 22 24  1  0
 24 25  2  0
 25 26  1  0
 21 27  1  0
 26 27  2  0
 27 28  1  0
 28 29  1  0
 16 30  1  0
 30 31  2  0
 31 32  1  0
 32 33  2  0
 33 34  1  0
 30 35  1  0
 34 35  2  0
 35 36  1  0
M  END
