DAR-DIA-2b784ede-21-nitrile
     RDKit          3D

 27 29  0  0  0  0  0  0  0  0999 V2000
    7.3730   -3.3430   20.0470 C   0  0  0  0  0  0  0  0  0  0  0  0
    6.1650   -3.6890   19.7260 N   0  0  0  0  0  0  0  0  0  0  0  0
    7.6000   -2.2110   21.0190 N   0  0  0  0  0  0  0  0  0  0  0  0
    8.8080   -1.6720   21.7230 C   0  0  0  0  0  0  0  0  0  0  0  0
    8.7870   -0.4970   22.6450 C   0  0  0  0  0  0  0  0  0  0  0  0
    9.9930    0.0200   23.2990 C   0  0  0  0  0  0  0  0  0  0  0  0
   11.1640   -0.6090   23.0510 C   0  0  0  0  0  0  0  0  0  0  0  0
   12.4130   -0.2990   23.5580 C   0  0  0  0  0  0  0  0  0  0  0  0
   12.5490    1.4630   23.2700 Cl  0  0  0  0  0  0  0  0  0  0  0  0
   13.2890   -1.1550   22.7090 C   0  0  0  0  0  0  0  0  0  0  0  0
   13.3710   -2.5280   23.3800 C   0  0  0  0  0  0  0  0  0  0  0  0
   12.9910   -2.3060   24.8380 C   0  0  0  0  0  0  0  0  0  0  0  0
   12.4920   -0.8500   24.9860 C   0  0  0  0  0  0  0  0  0  0  0  0
   11.2290   -1.6740   22.2350 C   0  0  0  0  0  0  0  0  0  0  0  0
   10.0430   -2.2030   21.5760 C   0  0  0  0  0  0  0  0  0  0  0  0
    6.3970   -1.3280   21.2720 C   0  0  1  0  0  0  0  0  0  0  0  0
    6.5310   -0.5480   22.4280 C   0  0  0  0  0  0  0  0  0  0  0  0
    6.3250   -1.0520   23.5440 O   0  0  0  0  0  0  0  0  0  0  0  0
    6.8840    0.7650   22.2790 N   0  0  0  0  0  0  0  0  0  0  0  0
    7.7280    1.2220   21.1870 C   0  0  0  0  0  0  0  0  0  0  0  0
    5.9270   -0.3690   20.1410 C   0  0  0  0  0  0  0  0  0  0  0  0
    6.2670   -0.5610   18.6860 C   0  0  0  0  0  0  0  0  0  0  0  0
    5.9320    0.2000   17.6190 N   0  0  0  0  0  0  0  0  0  0  0  0
    5.1800    1.2830   17.8520 C   0  0  0  0  0  0  0  0  0  0  0  0
    4.7310    1.6410   19.2190 C   0  0  0  0  0  0  0  0  0  0  0  0
    5.1300    0.7800   20.3890 C   0  0  0  0  0  0  0  0  0  0  0  0
    4.6400    1.2340   21.7420 C   0  0  0  0  0  0  0  0  0  0  0  0
  1  2  2  3
  1  3  1  0
  3  4  1  0
  4  5  2  0
  5  6  1  0
  6  7  2  0
  7  8  1  0
  8  9  1  0
  8 10  1  0
 10 11  1  0
 11 12  1  0
  8 13  1  0
 12 13  1  0
  7 14  1  0
  4 15  1  0
 14 15  2  0
  3 16  1  0
 16 17  1  1
 17 18  2  0
 17 19  1  0
 19 20  1  0
 16 21  1  0
 21 22  2  0
 22 23  1  0
 23 24  2  0
 24 25  1  0
 21 26  1  0
 25 26  2  0
 26 27  1  0
M  END
