DAR-DIA-2b784ede-24-nitrile
     RDKit          3D

 28 30  0  0  0  0  0  0  0  0999 V2000
    6.5370   -3.5580   19.5840 C   0  0  0  0  0  0  0  0  0  0  0  0
    5.2710   -3.5850   19.3900 N   0  0  0  0  0  0  0  0  0  0  0  0
    7.1350   -2.3450   19.9880 N   0  0  0  0  0  0  0  0  0  0  0  0
    8.0520   -2.0560   21.0880 C   0  0  0  0  0  0  0  0  0  0  0  0
    9.1800   -2.7810   21.1010 C   0  0  0  0  0  0  0  0  0  0  0  0
   10.1120   -2.5800   22.0500 C   0  0  0  0  0  0  0  0  0  0  0  0
    9.9300   -1.6530   23.0030 C   0  0  0  0  0  0  0  0  0  0  0  0
   11.0330   -1.6380   23.8900 C   0  0  0  0  0  0  0  0  0  0  0  0
   10.8440   -2.8520   24.6400 C   0  0  0  0  0  0  0  0  0  0  0  0
    9.7000   -3.5640   24.2860 N   0  0  0  0  0  0  0  0  0  0  0  0
   11.1610   -0.3960   24.5780 C   0  0  0  0  0  0  0  0  0  0  0  0
   11.9220    0.5210   23.8600 C   0  0  0  0  0  0  0  0  0  0  0  0
   12.8170   -0.2590   22.9980 C   0  0  0  0  0  0  0  0  0  0  0  0
   12.2370   -1.6290   23.1360 C   0  0  0  0  0  0  0  0  0  0  0  0
    8.7530   -0.8940   22.9900 C   0  0  0  0  0  0  0  0  0  0  0  0
    7.7770   -1.0840   22.0200 N   0  0  0  0  0  0  0  0  0  0  0  0
    7.1020   -1.0820   19.2510 C   0  0  1  0  0  0  0  0  0  0  0  0
    7.2160   -1.0730   17.8590 C   0  0  0  0  0  0  0  0  0  0  0  0
    7.7740   -0.1360   17.2730 O   0  0  0  0  0  0  0  0  0  0  0  0
    6.7560   -2.0530   17.1080 N   0  0  0  0  0  0  0  0  0  0  0  0
    7.2710   -2.0400   15.8760 C   0  0  0  0  0  0  0  0  0  0  0  0
    6.1350   -0.0730   19.8340 C   0  0  0  0  0  0  0  0  0  0  0  0
    6.2070    0.1940   18.4400 C   0  0  0  0  0  0  0  0  0  0  0  0
    5.6550    1.0720   17.5980 N   0  0  0  0  0  0  0  0  0  0  0  0
    4.8210    1.9500   18.0830 C   0  0  0  0  0  0  0  0  0  0  0  0
    4.5620    1.9200   19.4020 C   0  0  0  0  0  0  0  0  0  0  0  0
    5.2070    0.9520   20.1750 C   0  0  0  0  0  0  0  0  0  0  0  0
    4.8450    1.0250   21.6590 C   0  0  0  0  0  0  0  0  0  0  0  0
  1  2  2  3
  1  3  1  0
  3  4  1  0
  4  5  2  0
  5  6  1  0
  6  7  2  0
  7  8  1  0
  8  9  1  0
  9 10  3  0
  8 11  1  0
 11 12  1  0
 12 13  1  0
  8 14  1  0
 13 14  1  0
  7 15  1  0
  4 16  1  0
 15 16  2  0
  3 17  1  0
 17 18  1  6
 18 19  2  0
 18 20  1  0
 20 21  1  0
 17 22  1  0
 22 23  2  0
 23 24  1  0
 24 25  2  0
 25 26  1  0
 22 27  1  0
 26 27  2  0
 27 28  1  0
M  END
