DAR-DIA-a80d16a0-2
     RDKit          3D

 21 23  0  0  0  0  0  0  0  0999 V2000
    9.1040   -0.8570   26.1450 C   0  0  0  0  0  0  0  0  0  0  0  0
    8.2110   -1.8610   25.5760 N   0  0  0  0  0  0  0  0  0  0  0  0
    8.7760   -2.4650   24.3690 C   0  0  0  0  0  0  0  0  0  0  0  0
    8.7120   -1.4400   23.2550 C   0  0  0  0  0  0  0  0  0  0  0  0
    9.9920   -0.7430   23.1920 N   0  0  0  0  0  0  0  0  0  0  0  0
   11.1310   -1.3260   22.6620 C   0  0  0  0  0  0  0  0  0  0  0  0
   12.4990   -0.6170   22.5760 C   0  0  0  0  0  0  0  0  0  0  0  0
   13.5650   -1.2450   22.0580 F   0  0  0  0  0  0  0  0  0  0  0  0
   12.5010    0.8300   23.1220 C   0  0  0  0  0  0  0  0  0  0  0  0
   11.0650    1.3020   22.9670 C   0  0  2  0  0  0  0  0  0  0  0  0
   10.7200    2.7550   22.6780 C   0  0  0  0  0  0  0  0  0  0  0  0
    9.4000    3.0340   22.3470 C   0  0  0  0  0  0  0  0  0  0  0  0
    8.7040    1.9560   21.6790 C   0  0  0  0  0  0  0  0  0  0  0  0
    7.3660    2.1960   21.3320 C   0  0  0  0  0  0  0  0  0  0  0  0
    6.6340    3.4440   21.5960 C   0  0  0  0  0  0  0  0  0  0  0  0
    5.3060    3.7540   21.2770 C   0  0  0  0  0  0  0  0  0  0  0  0
    7.4610    4.5060   22.3010 C   0  0  0  0  0  0  0  0  0  0  0  0
    8.7690    4.2720   22.6410 C   0  0  0  0  0  0  0  0  0  0  0  0
   11.3600    3.9850   23.2020 C   0  0  0  0  0  0  0  0  0  0  0  0
   11.7860    3.6160   22.1330 C   0  0  0  0  0  0  0  0  0  0  0  0
   10.1040    0.5560   23.8800 C   0  0  0  0  0  0  0  0  0  0  0  0
  1  2  1  0
  2  3  1  0
  3  4  1  0
  4  5  1  0
  5  6  1  0
  6  7  2  0
  7  8  1  0
  7  9  1  0
  9 10  1  0
 10 11  1  1
 11 12  1  0
 12 13  2  0
 13 14  1  0
 14 15  2  0
 15 16  1  0
 15 17  1  0
 12 18  1  0
 17 18  2  0
 11 19  1  0
 11 20  1  0
 19 20  1  0
  5 21  1  0
 10 21  1  0
M  END
