DAR-DIA-2b784ede-45-acrylamide
     RDKit          3D

 33 35  0  0  0  0  0  0  0  0999 V2000
    6.6180   -3.7260   19.6620 C   0  0  0  0  0  0  0  0  0  0  0  0
    6.6810   -2.9440   20.9470 C   0  0  0  0  0  0  0  0  0  0  0  0
    5.4790   -2.0370   21.1000 C   0  0  0  0  0  0  0  0  0  0  0  0
    4.9360   -3.1790   21.1520 O   0  0  0  0  0  0  0  0  0  0  0  0
    6.4550   -0.9530   20.9880 N   0  0  0  0  0  0  0  0  0  0  0  0
    6.5700   -0.3560   19.6330 C   0  0  0  0  0  0  0  0  0  0  0  0
    5.4940    0.0510   20.2610 C   0  0  0  0  0  0  0  0  0  0  0  0
    5.7540   -0.6450   21.5170 C   0  0  0  0  0  0  0  0  0  0  0  0
    4.8890   -0.5730   22.7440 C   0  0  0  0  0  0  0  0  0  0  0  0
    3.6050   -0.1040   22.5690 C   0  0  0  0  0  0  0  0  0  0  0  0
    4.8420   -1.8840   23.5300 C   0  0  0  0  0  0  0  0  0  0  0  0
    5.3960    0.5320   23.9730 Cl  0  0  0  0  0  0  0  0  0  0  0  0
    7.0280   -1.4000   21.3390 N   0  0  0  0  0  0  0  0  0  0  0  0
    7.5380   -1.1510   20.0370 N   0  0  0  0  0  0  0  0  0  0  0  0
    7.3590   -0.5380   22.0110 C   0  0  1  0  0  0  0  0  0  0  0  0
    8.6310   -1.4430   22.1550 C   0  0  0  0  0  0  0  0  0  0  0  0
    8.3200   -2.6670   22.8290 O   0  0  0  0  0  0  0  0  0  0  0  0
    9.8930   -1.1490   21.7460 N   0  0  0  0  0  0  0  0  0  0  0  0
   10.8670   -1.2960   22.6900 C   0  0  0  0  0  0  0  0  0  0  0  0
   12.2130   -1.9890   22.4000 C   0  0  0  0  0  0  0  0  0  0  0  0
   12.5570   -2.5190   21.1650 C   0  0  0  0  0  0  0  0  0  0  0  0
   13.1470   -2.0970   23.4320 C   0  0  0  0  0  0  0  0  0  0  0  0
   12.8410   -1.5720   24.6850 C   0  0  0  0  0  0  0  0  0  0  0  0
   11.6280   -0.9410   24.9490 C   0  0  0  0  0  0  0  0  0  0  0  0
   10.6380   -0.7910   24.0030 C   0  0  0  0  0  0  0  0  0  0  0  0
    9.4720   -0.1500   24.4100 C   0  0  0  0  0  0  0  0  0  0  0  0
    9.4970    0.7040   25.2790 O   0  0  0  0  0  0  0  0  0  0  0  0
    7.6930    0.8390   21.9780 C   0  0  0  0  0  0  0  0  0  0  0  0
    9.1380    1.3380   22.0230 C   0  0  0  0  0  0  0  0  0  0  0  0
    9.3450    2.8400   21.9920 C   0  0  0  0  0  0  0  0  0  0  0  0
    8.2150    3.6400   21.9240 C   0  0  0  0  0  0  0  0  0  0  0  0
    6.9460    3.1720   21.8820 N   0  0  0  0  0  0  0  0  0  0  0  0
    6.7090    1.8270   21.9090 C   0  0  0  0  0  0  0  0  0  0  0  0
  1  2  1  0
  2  3  1  0
  3  4  2  0
  3  5  1  0
  5  6  1  0
  6  7  2  0
  7  8  1  0
  8  9  1  0
  9 10  1  0
  9 11  1  0
  9 12  1  0
  8 13  2  0
  6 14  1  0
 13 14  1  0
  5 15  1  0
 15 16  1  6
 16 17  2  0
 16 18  1  0
 18 19  1  0
 19 20  2  0
 20 21  1  0
 20 22  1  0
 22 23  2  0
 23 24  1  0
 19 25  1  0
 24 25  2  0
 25 26  1  0
 26 27  1  0
 15 28  1  0
 28 29  2  0
 29 30  1  0
 30 31  2  0
 31 32  1  0
 28 33  1  0
 32 33  2  0
M  END
