DAR-DIA-842b4336-4
     RDKit          3D

 16 17  0  0  0  0  0  0  0  0999 V2000
    8.5050    0.4990   21.5190 O   0  0  0  0  0  0  0  0  0  0  0  0
    8.1990   -0.6880   21.6110 C   0  0  0  0  0  0  0  0  0  0  0  0
    6.9760   -1.1570   21.0430 N   0  0  0  0  0  0  0  0  0  0  0  0
    6.3370   -0.3420   20.0040 C   0  0  0  0  0  0  0  0  0  0  0  0
    5.0530    0.3710   20.3860 C   0  0  0  0  0  0  0  0  0  0  0  0
    4.4240    1.2290   19.2900 C   0  0  0  0  0  0  0  0  0  0  0  0
    5.1110    1.2980   17.9550 C   0  0  0  0  0  0  0  0  0  0  0  0
    6.2750    0.5960   17.7380 N   0  0  0  0  0  0  0  0  0  0  0  0
    6.8250   -0.1720   18.7340 C   0  0  0  0  0  0  0  0  0  0  0  0
    9.0130   -1.6320   22.2240 N   0  0  0  0  0  0  0  0  0  0  0  0
   10.3020   -1.1790   22.3630 C   0  0  0  0  0  0  0  0  0  0  0  0
   11.5570   -1.7250   22.1570 C   0  0  0  0  0  0  0  0  0  0  0  0
   12.7280   -0.8550   22.3820 C   0  0  0  0  0  0  0  0  0  0  0  0
   12.0900    0.4670   22.7980 C   0  0  0  0  0  0  0  0  0  0  0  0
   12.7730    1.9430   23.1640 Cl  0  0  0  0  0  0  0  0  0  0  0  0
   10.4070    0.4300   22.8780 S   0  0  0  0  0  0  0  0  0  0  0  0
  1  2  2  0
  2  3  1  0
  3  4  1  0
  4  5  2  0
  5  6  1  0
  6  7  2  0
  7  8  1  0
  4  9  1  0
  8  9  2  0
  2 10  1  0
 10 11  1  0
 11 12  2  0
 12 13  1  0
 13 14  2  0
 14 15  1  0
 11 16  1  0
 14 16  1  0
M  END
