DAR-DIA-fb20be43-12-nitrile
     RDKit          3D

 24 26  0  0  0  0  0  0  0  0999 V2000
    6.8270   -3.3010   19.6160 C   0  0  0  0  0  0  0  0  0  0  0  0
    5.8360   -3.2010   18.8270 N   0  0  0  0  0  0  0  0  0  0  0  0
    6.8770   -2.6230   20.8070 N   0  0  0  0  0  0  0  0  0  0  0  0
    7.5840   -1.3380   20.9100 C   0  0  0  0  0  0  0  0  0  0  0  0
    8.7610   -1.4910   21.8840 C   0  0  0  0  0  0  0  0  0  0  0  0
    8.3610   -2.1610   23.1380 N   0  0  0  0  0  0  0  0  0  0  0  0
    9.5010   -2.2500   24.0430 C   0  0  0  0  0  0  0  0  0  0  0  0
   10.6110   -1.3270   23.5970 C   0  0  0  0  0  0  0  0  0  0  0  0
   11.7800   -1.8740   22.8550 C   0  0  0  0  0  0  0  0  0  0  0  0
   12.8180   -0.8960   22.4320 C   0  0  0  0  0  0  0  0  0  0  0  0
   13.8320   -1.3550   21.7670 F   0  0  0  0  0  0  0  0  0  0  0  0
   12.6840    0.4690   22.7350 C   0  0  0  0  0  0  0  0  0  0  0  0
   11.5800    0.9440   23.4100 C   0  0  0  0  0  0  0  0  0  0  0  0
   11.4950    2.3170   23.6370 C   0  0  0  0  0  0  0  0  0  0  0  0
   10.3940    2.8800   24.3040 C   0  0  0  0  0  0  0  0  0  0  0  0
   10.2760    4.6250   24.5870 S   0  0  0  0  0  0  0  0  0  0  0  0
    9.2380    5.1300   23.3670 N   0  0  0  0  0  0  0  0  0  0  0  0
    9.5650    4.8490   25.8240 O   0  0  0  0  0  0  0  0  0  0  0  0
   11.5480    5.2470   24.3020 O   0  0  0  0  0  0  0  0  0  0  0  0
    9.4000    1.9960   24.7430 C   0  0  0  0  0  0  0  0  0  0  0  0
    9.4860    0.6400   24.5210 C   0  0  0  0  0  0  0  0  0  0  0  0
   10.5440    0.0620   23.8520 C   0  0  0  0  0  0  0  0  0  0  0  0
    7.7480   -3.3620   22.9170 C   0  0  0  0  0  0  0  0  0  0  0  0
    6.5900   -3.2780   22.1010 C   0  0  0  0  0  0  0  0  0  0  0  0
  1  2  2  3
  1  3  1  0
  3  4  1  0
  4  5  1  0
  5  6  1  0
  6  7  1  0
  7  8  1  0
  8  9  2  0
  9 10  1  0
 10 11  1  0
 10 12  2  0
 12 13  1  0
 13 14  1  0
 14 15  2  0
 15 16  1  0
 16 17  1  0
 16 18  2  0
 16 19  2  0
 15 20  1  0
 20 21  2  0
  8 22  1  0
 13 22  2  0
 21 22  1  0
  6 23  1  0
  3 24  1  0
 23 24  1  0
M  END
