DAR-DIA-2b784ede-37-acrylamide
     RDKit          3D

 35 37  0  0  0  0  0  0  0  0999 V2000
    7.8370   -3.2760   19.5350 C   0  0  0  0  0  0  0  0  0  0  0  0
    6.6470   -2.4750   19.9650 C   0  0  0  0  0  0  0  0  0  0  0  0
    6.2150   -2.7810   21.3750 C   0  0  0  0  0  0  0  0  0  0  0  0
    5.0520   -3.5070   21.4840 O   0  0  0  0  0  0  0  0  0  0  0  0
    7.1360   -2.1790   22.4440 N   0  0  0  0  0  0  0  0  0  0  0  0
    8.7080   -1.9240   22.5190 C   0  0  0  0  0  0  0  0  0  0  0  0
    9.4400   -2.1840   23.8370 C   0  0  0  0  0  0  0  0  0  0  0  0
    8.3400   -2.5680   24.3960 C   0  0  0  0  0  0  0  0  0  0  0  0
    9.2140   -2.0400   23.2210 C   0  0  0  0  0  0  0  0  0  0  0  0
   10.0330   -2.2010   24.3010 C   0  0  0  0  0  0  0  0  0  0  0  0
   10.0020   -1.0520   25.1150 C   0  0  0  0  0  0  0  0  0  0  0  0
    9.3590   -3.3760   24.9870 C   0  0  0  0  0  0  0  0  0  0  0  0
   11.3380   -2.6940   24.0620 C   0  0  0  0  0  0  0  0  0  0  0  0
   10.5990   -1.6030   22.6730 C   0  0  0  0  0  0  0  0  0  0  0  0
    9.6350   -1.4790   21.7090 C   0  0  0  0  0  0  0  0  0  0  0  0
    6.7800   -0.9380   22.9780 C   0  0  2  0  0  0  0  0  0  0  0  0
    7.9190   -0.0380   22.5290 C   0  0  0  0  0  0  0  0  0  0  0  0
    8.7400    0.4930   23.2680 O   0  0  0  0  0  0  0  0  0  0  0  0
    8.0310    0.2000   21.2120 N   0  0  0  0  0  0  0  0  0  0  0  0
    6.8770    0.6090   20.5880 C   0  0  0  0  0  0  0  0  0  0  0  0
    6.7380    0.7140   19.2180 C   0  0  0  0  0  0  0  0  0  0  0  0
    5.5450    1.1350   18.7230 C   0  0  0  0  0  0  0  0  0  0  0  0
    5.2710    1.3200   17.4720 C   0  0  0  0  0  0  0  0  0  0  0  0
    4.6260    2.5370   17.5860 C   0  0  0  0  0  0  0  0  0  0  0  0
    4.4910    1.4360   19.5210 C   0  0  0  0  0  0  0  0  0  0  0  0
    4.5830    1.3410   20.9800 C   0  0  0  0  0  0  0  0  0  0  0  0
    5.7860    0.9340   21.4600 C   0  0  0  0  0  0  0  0  0  0  0  0
    5.8410    0.8680   22.9750 C   0  0  0  0  0  0  0  0  0  0  0  0
    6.3320   -0.9010   24.4470 C   0  0  0  0  0  0  0  0  0  0  0  0
    6.6690    0.1730   25.3270 C   0  0  0  0  0  0  0  0  0  0  0  0
    6.3110    0.3300   26.6410 N   0  0  0  0  0  0  0  0  0  0  0  0
    5.5640   -0.6510   27.1680 C   0  0  0  0  0  0  0  0  0  0  0  0
    5.1270   -1.8520   26.3840 C   0  0  0  0  0  0  0  0  0  0  0  0
    5.5420   -1.9610   24.9450 C   0  0  0  0  0  0  0  0  0  0  0  0
    5.1050   -3.1600   24.1140 C   0  0  0  0  0  0  0  0  0  0  0  0
  1  2  1  0
  2  3  1  0
  3  4  2  0
  3  5  1  0
  5  6  1  0
  6  7  2  0
  7  8  1  0
  8  9  2  0
  9 10  1  0
 10 11  1  0
 10 12  1  0
 10 13  1  0
  9 14  1  0
  6 15  1  0
 14 15  2  0
  5 16  1  0
 16 17  1  1
 17 18  2  0
 17 19  1  0
 19 20  1  0
 20 21  2  0
 21 22  1  0
 22 23  1  0
 23 24  1  0
 22 25  2  0
 25 26  1  0
 20 27  1  0
 26 27  2  0
 27 28  1  0
 16 29  1  0
 29 30  2  0
 30 31  1  0
 31 32  2  0
 32 33  1  0
 29 34  1  0
 33 34  2  0
 34 35  1  0
M  END
