DAR-DIA-23aa0b97-18-chloroacetamide
     RDKit          3D

 23 25  0  0  0  0  0  0  0  0999 V2000
    7.4070   -4.8360   20.9750 C   0  0  0  0  0  0  0  0  0  0  0  0
    7.6750   -3.4570   20.5300 C   0  0  0  0  0  0  0  0  0  0  0  0
    7.0380   -3.2240   19.3660 O   0  0  0  0  0  0  0  0  0  0  0  0
    8.5860   -2.6140   21.5160 C   0  0  0  0  0  0  0  0  0  0  0  0
    9.1150   -3.2340   22.7430 C   0  0  0  0  0  0  0  0  0  0  0  0
    9.8940   -2.3810   23.5160 C   0  0  0  0  0  0  0  0  0  0  0  0
    9.3110   -2.0680   22.3760 C   0  0  0  0  0  0  0  0  0  0  0  0
    9.7960   -0.8540   22.5130 C   0  0  0  0  0  0  0  0  0  0  0  0
    9.9170    0.4280   22.0320 N   0  0  0  0  0  0  0  0  0  0  0  0
    8.8460    1.1120   21.5150 C   0  0  0  0  0  0  0  0  0  0  0  0
    8.8250    2.2840   21.1900 O   0  0  0  0  0  0  0  0  0  0  0  0
    7.6380    0.2330   21.3600 C   0  0  0  0  0  0  0  0  0  0  0  0
    6.7740    0.3560   20.3000 C   0  0  0  0  0  0  0  0  0  0  0  0
    7.1220   -0.3130   19.0200 C   0  0  0  0  0  0  0  0  0  0  0  0
    6.3370   -0.2230   17.9460 N   0  0  0  0  0  0  0  0  0  0  0  0
    5.2070    0.4940   18.0680 C   0  0  0  0  0  0  0  0  0  0  0  0
    4.7730    1.1480   19.1940 C   0  0  0  0  0  0  0  0  0  0  0  0
    3.5730    1.8410   19.1510 N   0  0  0  0  0  0  0  0  0  0  0  0
    3.1690    2.4670   20.2720 C   0  0  0  0  0  0  0  0  0  0  0  0
    3.9220    2.4340   21.4540 C   0  0  0  0  0  0  0  0  0  0  0  0
    5.1360    1.7310   21.4790 C   0  0  0  0  0  0  0  0  0  0  0  0
    5.5770    1.0760   20.3440 C   0  0  0  0  0  0  0  0  0  0  0  0
    9.0090   -1.2280   21.4170 C   0  0  0  0  0  0  0  0  0  0  0  0
  1  2  1  0
  2  3  2  0
  2  4  1  0
  4  5  2  0
  5  6  1  0
  6  7  2  0
  7  8  1  0
  8  9  1  0
  9 10  1  0
 10 11  2  0
 10 12  1  0
 12 13  1  0
 13 14  2  0
 14 15  1  0
 15 16  2  0
 16 17  1  0
 17 18  1  0
 18 19  2  0
 19 20  1  0
 20 21  2  0
 13 22  1  0
 17 22  2  0
 21 22  1  0
  4 23  1  0
  8 23  2  0
M  END
