DAR-DIA-fb20be43-12-acrylamide
     RDKit          3D

 26 28  0  0  0  0  0  0  0  0999 V2000
    7.9600   -3.3590   19.2340 C   0  0  0  0  0  0  0  0  0  0  0  0
    6.8330   -2.4490   18.9040 C   0  0  0  0  0  0  0  0  0  0  0  0
    5.8830   -2.5960   20.0370 C   0  0  0  0  0  0  0  0  0  0  0  0
    4.8190   -3.2080   19.9020 O   0  0  0  0  0  0  0  0  0  0  0  0
    6.3190   -2.0680   21.2290 N   0  0  0  0  0  0  0  0  0  0  0  0
    6.2200   -2.8250   22.4890 C   0  0  0  0  0  0  0  0  0  0  0  0
    7.5780   -3.2550   23.0750 C   0  0  0  0  0  0  0  0  0  0  0  0
    8.4830   -2.1140   23.1660 N   0  0  0  0  0  0  0  0  0  0  0  0
    9.7280   -2.3650   23.8880 C   0  0  0  0  0  0  0  0  0  0  0  0
   10.7410   -1.3280   23.5230 C   0  0  0  0  0  0  0  0  0  0  0  0
   11.8510   -1.7380   22.8070 C   0  0  0  0  0  0  0  0  0  0  0  0
   12.7960   -0.8270   22.4330 C   0  0  0  0  0  0  0  0  0  0  0  0
   13.8060   -1.2800   21.7470 F   0  0  0  0  0  0  0  0  0  0  0  0
   12.6810    0.5230   22.7530 C   0  0  0  0  0  0  0  0  0  0  0  0
   11.5650    0.9600   23.4590 C   0  0  0  0  0  0  0  0  0  0  0  0
   11.3790    2.3150   23.7700 C   0  0  0  0  0  0  0  0  0  0  0  0
   10.2690    2.8170   24.4740 C   0  0  0  0  0  0  0  0  0  0  0  0
   10.0910    4.5480   24.8160 S   0  0  0  0  0  0  0  0  0  0  0  0
    9.0800    4.5390   26.1580 N   0  0  0  0  0  0  0  0  0  0  0  0
   11.3400    5.1090   25.2630 O   0  0  0  0  0  0  0  0  0  0  0  0
    9.3140    5.1590   23.7630 O   0  0  0  0  0  0  0  0  0  0  0  0
    9.3050    1.9050   24.9000 C   0  0  0  0  0  0  0  0  0  0  0  0
    9.4930    0.5640   24.5820 C   0  0  0  0  0  0  0  0  0  0  0  0
   10.5830    0.0320   23.8630 C   0  0  0  0  0  0  0  0  0  0  0  0
    8.6880   -1.5010   21.8460 C   0  0  0  0  0  0  0  0  0  0  0  0
    7.3860   -1.0490   21.1620 C   0  0  0  0  0  0  0  0  0  0  0  0
  1  2  1  0
  2  3  1  0
  3  4  2  0
  3  5  1  0
  5  6  1  0
  6  7  1  0
  7  8  1  0
  8  9  1  0
  9 10  1  0
 10 11  2  0
 11 12  1  0
 12 13  1  0
 12 14  2  0
 14 15  1  0
 15 16  1  0
 16 17  2  0
 17 18  1  0
 18 19  1  0
 18 20  2  0
 18 21  2  0
 17 22  1  0
 22 23  2  0
 10 24  1  0
 15 24  2  0
 23 24  1  0
  8 25  1  0
  5 26  1  0
 25 26  1  0
M  END
