DAR-DIA-caba39e3-3-acrylamide
     RDKit          3D

 25 28  0  0  0  0  0  0  0  0999 V2000
    7.3210   -2.9830   18.4710 C   0  0  0  0  0  0  0  0  0  0  0  0
    6.6940   -1.9520   19.3690 C   0  0  0  0  0  0  0  0  0  0  0  0
    6.0320   -2.6010   20.5570 C   0  0  0  0  0  0  0  0  0  0  0  0
    5.0390   -3.3160   20.3970 O   0  0  0  0  0  0  0  0  0  0  0  0
    6.6590   -2.3560   21.7610 N   0  0  0  0  0  0  0  0  0  0  0  0
    6.1840   -3.0570   22.9240 C   0  0  0  0  0  0  0  0  0  0  0  0
    7.1430   -3.6460   23.7320 C   0  0  0  0  0  0  0  0  0  0  0  0
    6.8560   -4.6720   24.7840 C   0  0  0  0  0  0  0  0  0  0  0  0
    7.9140   -5.1940   25.5410 C   0  0  0  0  0  0  0  0  0  0  0  0
    9.2810   -4.9030   25.4750 C   0  0  0  0  0  0  0  0  0  0  0  0
    9.6400   -3.9490   24.5160 C   0  0  0  0  0  0  0  0  0  0  0  0
    8.6060   -3.2830   23.6100 C   0  0  0  0  0  0  0  0  0  0  0  0
    8.9900   -2.2270   22.5430 C   0  0  2  0  0  0  0  0  0  0  0  0
    9.9000   -1.2420   22.9060 C   0  0  0  0  0  0  0  0  0  0  0  0
    9.5730   -0.0940   23.8120 C   0  0  0  0  0  0  0  0  0  0  0  0
   10.4580    0.9350   24.1820 C   0  0  0  0  0  0  0  0  0  0  0  0
   10.1780    1.9970   24.9800 O   0  0  0  0  0  0  0  0  0  0  0  0
   10.2310    3.2690   24.3470 C   0  0  0  0  0  0  0  0  0  0  0  0
   11.7590    0.8810   23.6710 C   0  0  0  0  0  0  0  0  0  0  0  0
   12.0780   -0.1780   22.8310 C   0  0  0  0  0  0  0  0  0  0  0  0
   13.3770   -0.3920   22.1970 C   0  0  0  0  0  0  0  0  0  0  0  0
   13.2680   -1.6240   21.3800 C   0  0  0  0  0  0  0  0  0  0  0  0
   11.9400   -2.1260   21.5400 N   0  0  0  0  0  0  0  0  0  0  0  0
   11.2020   -1.2150   22.4440 C   0  0  0  0  0  0  0  0  0  0  0  0
    7.9230   -1.6010   21.8370 C   0  0  0  0  0  0  0  0  0  0  0  0
  1  2  1  0
  2  3  1  0
  3  4  2  0
  3  5  1  0
  5  6  1  0
  6  7  1  0
  7  8  1  0
  8  9  2  0
  9 10  1  0
 10 11  2  0
  7 12  2  0
 11 12  1  0
 12 13  1  0
 13 14  1  1
 14 15  2  0
 15 16  1  0
 16 17  1  0
 17 18  1  0
 16 19  2  0
 19 20  1  0
 20 21  1  0
 21 22  2  0
 22 23  1  0
 14 24  1  0
 20 24  2  0
 23 24  1  0
  5 25  1  0
 13 25  1  0
M  END
