DAR-DIA-2b784ede-33-vinylsulfonamide
     RDKit          3D

 27 28  0  0  0  0  0  0  0  0999 V2000
    7.1290   -4.0460   20.4570 C   0  0  0  0  0  0  0  0  0  0  0  0
    7.1320   -4.0860   21.9980 C   0  0  0  0  0  0  0  0  0  0  0  0
    6.0100   -2.8700   22.5680 S   0  0  0  0  0  0  0  0  0  0  0  0
    4.7270   -3.2570   21.7800 O   0  0  0  0  0  0  0  0  0  0  0  0
    6.0100   -2.9070   24.0220 O   0  0  0  0  0  0  0  0  0  0  0  0
    6.7670   -1.3860   22.0630 N   0  0  0  0  0  0  0  0  0  0  0  0
    7.6520   -0.4160   22.7840 C   0  0  0  0  0  0  0  0  0  0  0  0
    8.8570   -1.2170   22.6300 C   0  0  0  0  0  0  0  0  0  0  0  0
   10.0520   -0.4940   23.2720 C   0  0  0  0  0  0  0  0  0  0  0  0
   11.4850   -0.9150   23.3530 C   0  0  0  0  0  0  0  0  0  0  0  0
   11.7340   -1.7580   24.5260 C   0  0  0  0  0  0  0  0  0  0  0  0
   12.3500    0.1910   23.1990 C   0  0  0  0  0  0  0  0  0  0  0  0
   12.1450   -1.9300   22.1410 Cl  0  0  0  0  0  0  0  0  0  0  0  0
    9.6080    0.5890   23.7590 O   0  0  0  0  0  0  0  0  0  0  0  0
    8.8240   -0.2040   23.1600 N   0  0  0  0  0  0  0  0  0  0  0  0
    6.6230   -1.2750   20.7460 C   0  0  2  0  0  0  0  0  0  0  0  0
    7.9090   -1.5220   20.1530 C   0  0  0  0  0  0  0  0  0  0  0  0
    7.7500   -2.0950   18.8390 O   0  0  0  0  0  0  0  0  0  0  0  0
    9.0440   -1.2450   20.8100 N   0  0  0  0  0  0  0  0  0  0  0  0
    9.4180   -2.4070   21.6020 C   0  0  0  0  0  0  0  0  0  0  0  0
    5.9840   -0.1000   20.0250 C   0  0  0  0  0  0  0  0  0  0  0  0
    6.4310   -0.1000   18.5720 C   0  0  0  0  0  0  0  0  0  0  0  0
    6.0360    0.8210   17.5280 N   0  0  0  0  0  0  0  0  0  0  0  0
    5.0900    1.8870   17.8750 C   0  0  0  0  0  0  0  0  0  0  0  0
    5.2650    1.1710   19.1720 C   0  0  0  0  0  0  0  0  0  0  0  0
    5.0950    0.8820   20.5090 C   0  0  0  0  0  0  0  0  0  0  0  0
    5.2790    0.1900   21.6960 C   0  0  0  0  0  0  0  0  0  0  0  0
  1  2  1  0
  2  3  1  0
  3  4  2  0
  3  5  2  0
  3  6  1  0
  6  7  1  0
  7  8  1  0
  8  9  2  0
  9 10  1  0
 10 11  1  0
 10 12  1  0
 10 13  1  0
  9 14  1  0
  7 15  2  0
 14 15  1  0
  6 16  1  0
 16 17  1  6
 17 18  2  0
 17 19  1  0
 19 20  1  0
 16 21  1  0
 21 22  2  0
 22 23  1  0
 23 24  2  0
 24 25  1  0
 21 26  1  0
 25 26  2  0
 26 27  1  0
M  END
