DAR-DIA-2b784ede-26-vinylsulfonamide
     RDKit          3D

 36 39  0  0  0  0  0  0  0  0999 V2000
    7.3000   -3.9970   20.7020 C   0  0  0  0  0  0  0  0  0  0  0  0
    7.1680   -2.5810   21.2680 C   0  0  0  0  0  0  0  0  0  0  0  0
    5.8150   -2.6610   22.4380 S   0  0  0  0  0  0  0  0  0  0  0  0
    4.7010   -3.0180   21.4960 O   0  0  0  0  0  0  0  0  0  0  0  0
    6.2170   -3.7360   23.3270 O   0  0  0  0  0  0  0  0  0  0  0  0
    5.8200   -1.2310   23.4600 N   0  0  0  0  0  0  0  0  0  0  0  0
    5.3250   -1.3120   24.7930 C   0  0  1  0  0  0  0  0  0  0  0  0
    5.7190   -2.3600   25.6740 C   0  0  0  0  0  0  0  0  0  0  0  0
    5.4860   -1.8710   26.9370 C   0  0  0  0  0  0  0  0  0  0  0  0
    6.4250   -1.6300   28.0860 C   0  0  0  0  0  0  0  0  0  0  0  0
    5.5820   -1.3750   29.3240 C   0  0  0  0  0  0  0  0  0  0  0  0
    4.2380   -2.0450   29.0370 C   0  0  0  0  0  0  0  0  0  0  0  0
    4.4630   -2.7500   27.6880 C   0  0  0  0  0  0  0  0  0  0  0  0
    4.8220   -0.5370   26.5550 C   0  0  0  0  0  0  0  0  0  0  0  0
    5.3460   -0.2100   25.5630 N   0  0  0  0  0  0  0  0  0  0  0  0
    6.1590    0.1400   22.8980 C   0  0  2  0  0  0  0  0  0  0  0  0
    7.3750    0.8810   23.5870 C   0  0  0  0  0  0  0  0  0  0  0  0
    7.5130    2.1110   23.4990 O   0  0  0  0  0  0  0  0  0  0  0  0
    8.3000    0.1120   24.2770 N   0  0  0  0  0  0  0  0  0  0  0  0
    9.6050    0.6580   24.5780 C   0  0  0  0  0  0  0  0  0  0  0  0
   10.6600    0.0930   23.8440 C   0  0  0  0  0  0  0  0  0  0  0  0
   11.6690    0.9050   23.3590 C   0  0  0  0  0  0  0  0  0  0  0  0
   11.6330    2.2760   23.5430 C   0  0  0  0  0  0  0  0  0  0  0  0
   12.7550    0.4100   22.6550 C   0  0  0  0  0  0  0  0  0  0  0  0
   12.9140   -0.9360   22.3470 C   0  0  0  0  0  0  0  0  0  0  0  0
   11.8750   -1.8920   22.8000 C   0  0  0  0  0  0  0  0  0  0  0  0
   10.7300   -1.3000   23.5770 C   0  0  0  0  0  0  0  0  0  0  0  0
    9.7290   -2.3280   24.0010 C   0  0  0  0  0  0  0  0  0  0  0  0
    9.0240   -2.8250   22.9130 C   0  0  0  0  0  0  0  0  0  0  0  0
    4.9150    0.9790   22.7250 C   0  0  0  0  0  0  0  0  0  0  0  0
    4.1550    1.7680   22.0510 C   0  0  0  0  0  0  0  0  0  0  0  0
    3.1570    1.9530   22.8780 N   0  0  0  0  0  0  0  0  0  0  0  0
    2.9270    2.6280   21.7930 C   0  0  0  0  0  0  0  0  0  0  0  0
    4.1470    2.3610   20.8580 C   0  0  0  0  0  0  0  0  0  0  0  0
    5.2080    1.4640   21.3880 C   0  0  0  0  0  0  0  0  0  0  0  0
    6.4310    1.1510   20.5470 C   0  0  0  0  0  0  0  0  0  0  0  0
  1  2  1  0
  2  3  1  0
  3  4  2  0
  3  5  2  0
  3  6  1  0
  7  6  1  6
  7  8  1  0
  9  8  1  0
  9 10  1  0
 10 11  1  0
 11 12  1  0
  9 13  1  0
 12 13  1  0
  9 14  1  0
  7 15  1  0
 14 15  1  0
  6 16  1  0
 16 17  1  1
 17 18  2  0
 17 19  1  0
 19 20  1  0
 20 21  1  0
 21 22  2  0
 22 23  1  0
 22 24  1  0
 24 25  2  0
 25 26  1  0
 21 27  1  0
 26 27  2  0
 27 28  1  0
 28 29  1  0
 16 30  1  0
 30 31  2  0
 31 32  1  0
 32 33  2  0
 33 34  1  0
 30 35  1  0
 34 35  2  0
 35 36  1  0
M  END
