DAR-DIA-2b784ede-18-chloroacetamide
     RDKit          3D

 36 39  0  0  0  0  0  0  0  0999 V2000
    7.3110   -4.3680   20.7060 C   0  0  0  0  0  0  0  0  0  0  0  0
    5.9980   -3.6590   20.6900 C   0  0  0  0  0  0  0  0  0  0  0  0
    5.1910   -4.0040   19.7620 O   0  0  0  0  0  0  0  0  0  0  0  0
    5.7070   -2.6180   21.6560 N   0  0  0  0  0  0  0  0  0  0  0  0
    5.1430   -1.5110   21.0290 C   0  0  0  0  0  0  0  0  0  0  0  0
    4.6900   -0.4060   20.1630 C   0  0  0  0  0  0  0  0  0  0  0  0
    5.2260   -0.3590   18.9200 C   0  0  0  0  0  0  0  0  0  0  0  0
    6.1830   -1.2160   18.2840 C   0  0  0  0  0  0  0  0  0  0  0  0
    6.6280   -0.8980   16.9350 C   0  0  0  0  0  0  0  0  0  0  0  0
    6.7850    0.8840   16.8600 Cl  0  0  0  0  0  0  0  0  0  0  0  0
    8.0410   -1.2090   17.1720 C   0  0  0  0  0  0  0  0  0  0  0  0
    8.6450   -0.4590   15.9910 C   0  0  0  0  0  0  0  0  0  0  0  0
    7.5230   -0.4970   15.1330 C   0  0  0  0  0  0  0  0  0  0  0  0
    6.9370   -1.7390   15.6970 C   0  0  0  0  0  0  0  0  0  0  0  0
    6.6470   -2.1890   18.9080 N   0  0  0  0  0  0  0  0  0  0  0  0
    6.0660   -2.2310   20.2380 C   0  0  0  0  0  0  0  0  0  0  0  0
    6.6670   -2.1340   22.7390 C   0  0  1  0  0  0  0  0  0  0  0  0
    8.0470   -2.5190   22.6830 C   0  0  0  0  0  0  0  0  0  0  0  0
    8.3970   -3.6930   22.7770 O   0  0  0  0  0  0  0  0  0  0  0  0
    8.9690   -1.4940   22.5580 N   0  0  0  0  0  0  0  0  0  0  0  0
   10.4260   -1.6520   22.4790 C   0  0  0  0  0  0  0  0  0  0  0  0
   11.8970   -1.7350   22.6150 C   0  0  0  0  0  0  0  0  0  0  0  0
   12.6180   -2.2280   21.3930 C   0  0  0  0  0  0  0  0  0  0  0  0
   12.8690   -1.4670   23.6140 C   0  0  0  0  0  0  0  0  0  0  0  0
   12.4860   -0.9700   24.9140 C   0  0  0  0  0  0  0  0  0  0  0  0
   11.0520   -0.8140   24.9950 C   0  0  0  0  0  0  0  0  0  0  0  0
   10.1500   -1.1440   23.8430 C   0  0  0  0  0  0  0  0  0  0  0  0
    8.8520   -0.8710   24.2930 C   0  0  0  0  0  0  0  0  0  0  0  0
    8.8480    0.1560   25.2580 C   0  0  0  0  0  0  0  0  0  0  0  0
    6.3700   -0.6560   23.0240 C   0  0  0  0  0  0  0  0  0  0  0  0
    5.5010   -0.4080   24.1130 C   0  0  0  0  0  0  0  0  0  0  0  0
    5.0720    0.8000   24.5790 N   0  0  0  0  0  0  0  0  0  0  0  0
    5.5210    1.8940   23.9420 C   0  0  0  0  0  0  0  0  0  0  0  0
    6.3850    1.8240   22.8480 C   0  0  0  0  0  0  0  0  0  0  0  0
    6.8480    0.4920   22.3440 C   0  0  0  0  0  0  0  0  0  0  0  0
    7.7810    0.5390   21.1550 C   0  0  0  0  0  0  0  0  0  0  0  0
  1  2  1  0
  2  3  2  0
  2  4  1  0
  4  5  1  0
  5  6  2  0
  6  7  1  0
  7  8  2  0
  8  9  1  0
  9 10  1  0
  9 11  1  0
 11 12  1  0
 12 13  1  0
  9 14  1  0
 13 14  1  0
  8 15  1  0
  5 16  1  0
 15 16  2  0
  4 17  1  0
 17 18  1  6
 18 19  2  0
 18 20  1  0
 20 21  1  0
 21 22  2  0
 22 23  1  0
 22 24  1  0
 24 25  2  0
 25 26  1  0
 21 27  1  0
 26 27  2  0
 27 28  1  0
 28 29  1  0
 17 30  1  0
 30 31  2  0
 31 32  1  0
 32 33  2  0
 33 34  1  0
 30 35  1  0
 34 35  2  0
 35 36  1  0
M  END
