DAR-DIA-0cde14eb-27
     RDKit          3D

 28 31  0  0  0  0  0  0  0  0999 V2000
    4.9420    0.9820   21.7510 C   0  0  0  0  0  0  0  0  0  0  0  0
    5.3050    0.8190   20.3020 C   0  0  0  0  0  0  0  0  0  0  0  0
    4.7430    1.6650   19.3360 C   0  0  0  0  0  0  0  0  0  0  0  0
    5.1130    1.4900   18.0160 C   0  0  0  0  0  0  0  0  0  0  0  0
    5.9830    0.5500   17.6100 N   0  0  0  0  0  0  0  0  0  0  0  0
    6.5050   -0.2530   18.5550 C   0  0  0  0  0  0  0  0  0  0  0  0
    6.2060   -0.1630   19.8930 C   0  0  0  0  0  0  0  0  0  0  0  0
    6.7690   -0.9920   20.8510 N   0  0  0  0  0  0  0  0  0  0  0  0
    7.8830   -0.5670   21.4910 C   0  0  0  0  0  0  0  0  0  0  0  0
    8.4950    0.4520   21.1740 O   0  0  0  0  0  0  0  0  0  0  0  0
    8.3600   -1.3980   22.6700 C   0  0  2  0  0  0  0  0  0  0  0  0
    7.3140   -1.6770   23.7470 C   0  0  0  0  0  0  0  0  0  0  0  0
    9.4690   -0.5370   23.1200 C   0  0  0  0  0  0  0  0  0  0  0  0
    9.2380    0.7300   23.6630 C   0  0  0  0  0  0  0  0  0  0  0  0
   10.2540    1.5930   24.0550 C   0  0  0  0  0  0  0  0  0  0  0  0
    9.9250    2.8520   24.5600 N   0  0  0  0  0  0  0  0  0  0  0  0
   10.4450    3.9940   23.7740 C   0  0  0  0  0  0  0  0  0  0  0  0
   10.0490    5.3440   24.3610 C   0  0  0  0  0  0  0  0  0  0  0  0
    9.8160    5.2650   25.8700 C   0  0  0  0  0  0  0  0  0  0  0  0
    8.7810    4.2070   26.2740 C   0  0  0  0  0  0  0  0  0  0  0  0
    8.6520    3.0750   25.2590 C   0  0  0  0  0  0  0  0  0  0  0  0
   11.5290    1.0900   23.8730 C   0  0  0  0  0  0  0  0  0  0  0  0
   11.7290   -0.1680   23.3380 C   0  0  0  0  0  0  0  0  0  0  0  0
   13.0060   -0.6260   23.1220 C   0  0  0  0  0  0  0  0  0  0  0  0
   13.6780   -1.2530   24.1490 F   0  0  0  0  0  0  0  0  0  0  0  0
   13.2840   -1.1190   21.7610 C   0  0  0  0  0  0  0  0  0  0  0  0
   13.5810    0.3260   22.1490 C   0  0  0  0  0  0  0  0  0  0  0  0
   10.7240   -0.9780   22.9660 C   0  0  0  0  0  0  0  0  0  0  0  0
  1  2  1  0
  2  3  2  0
  3  4  1  0
  4  5  2  0
  5  6  1  0
  2  7  1  0
  6  7  2  0
  7  8  1  0
  8  9  1  0
  9 10  2  0
  9 11  1  0
 11 12  1  1
 11 13  1  0
 13 14  2  0
 14 15  1  0
 15 16  1  0
 16 17  1  0
 17 18  1  0
 18 19  1  0
 19 20  1  0
 16 21  1  0
 20 21  1  0
 15 22  2  0
 22 23  1  0
 23 24  1  0
 24 25  1  0
 24 26  1  0
 24 27  1  0
 26 27  1  0
 13 28  1  0
 23 28  2  0
M  END
