DAR-DIA-03336633-1
     RDKit          3D

 28 30  0  0  0  0  0  0  0  0999 V2000
    8.4320    0.7930   21.0710 O   0  0  0  0  0  0  0  0  0  0  0  0
    8.1460   -0.3370   21.4570 C   0  0  0  0  0  0  0  0  0  0  0  0
    8.9790   -1.0720   22.3660 N   0  0  0  0  0  0  0  0  0  0  0  0
   10.3170   -0.6000   22.6960 C   0  0  0  0  0  0  0  0  0  0  0  0
   11.4470   -1.4080   22.0470 C   0  0  0  0  0  0  0  0  0  0  0  0
   12.8560   -0.9270   22.3430 C   0  0  0  0  0  0  0  0  0  0  0  0
   12.9190    0.2590   23.2200 C   0  0  0  0  0  0  0  0  0  0  0  0
   11.8490    0.9130   23.7650 C   0  0  0  0  0  0  0  0  0  0  0  0
   10.5530    0.4990   23.5160 C   0  0  0  0  0  0  0  0  0  0  0  0
    7.0200   -1.0350   21.0830 N   0  0  0  0  0  0  0  0  0  0  0  0
    6.3380   -0.3370   20.2040 C   0  0  0  0  0  0  0  0  0  0  0  0
    6.9280   -0.2930   18.8150 C   0  0  0  0  0  0  0  0  0  0  0  0
    6.1600    0.4980   17.8700 N   0  0  0  0  0  0  0  0  0  0  0  0
    4.9990    1.1500   18.2030 C   0  0  0  0  0  0  0  0  0  0  0  0
    4.5030    1.0790   19.4460 C   0  0  0  0  0  0  0  0  0  0  0  0
    5.1250    0.3560   20.4770 C   0  0  0  0  0  0  0  0  0  0  0  0
    4.5560    0.3140   21.7570 C   0  0  0  0  0  0  0  0  0  0  0  0
    4.7330    1.4930   22.4870 C   0  0  0  0  0  0  0  0  0  0  0  0
    3.7800    2.4570   22.3910 N   0  0  0  0  0  0  0  0  0  0  0  0
    2.7190    2.4520   23.2540 C   0  0  0  0  0  0  0  0  0  0  0  0
    2.4800    1.5680   24.0670 O   0  0  0  0  0  0  0  0  0  0  0  0
    2.0020    3.5960   23.0510 N   0  0  0  0  0  0  0  0  0  0  0  0
    0.6930    3.7990   23.4270 C   0  0  0  0  0  0  0  0  0  0  0  0
   -0.1630    2.7230   23.3620 C   0  0  0  0  0  0  0  0  0  0  0  0
   -1.4880    2.9960   23.7200 C   0  0  0  0  0  0  0  0  0  0  0  0
   -1.6700    4.3060   24.1860 C   0  0  0  0  0  0  0  0  0  0  0  0
   -0.7180    4.8670   25.0460 C   0  0  0  0  0  0  0  0  0  0  0  0
    0.6180    4.5170   24.7830 C   0  0  0  0  0  0  0  0  0  0  0  0
  1  2  2  0
  2  3  1  0
  3  4  1  0
  4  5  2  0
  5  6  1  0
  6  7  2  0
  7  8  1  0
  4  9  1  0
  8  9  2  0
  2 10  1  0
 10 11  1  0
 11 12  2  0
 12 13  1  0
 13 14  2  0
 14 15  1  0
 11 16  1  0
 15 16  2  0
 16 17  1  0
 17 18  1  0
 18 19  1  0
 19 20  1  0
 20 21  2  0
 20 22  1  0
 22 23  1  0
 23 24  1  0
 24 25  1  0
 25 26  1  0
 26 27  1  0
 23 28  1  0
 27 28  1  0
M  END
