DAR-DIA-2b784ede-14-acrylamide
     RDKit          3D

 38 41  0  0  0  0  0  0  0  0999 V2000
    7.0310   -4.0070   20.4290 C   0  0  0  0  0  0  0  0  0  0  0  0
    6.7810   -4.0800   21.9390 C   0  0  0  0  0  0  0  0  0  0  0  0
    5.7490   -3.0420   22.3670 C   0  0  0  0  0  0  0  0  0  0  0  0
    4.5590   -3.3010   21.9840 O   0  0  0  0  0  0  0  0  0  0  0  0
    6.0390   -1.8420   23.1590 N   0  0  0  0  0  0  0  0  0  0  0  0
    5.2120   -0.7350   23.0920 C   0  0  0  0  0  0  0  0  0  0  0  0
    5.7050   -1.0980   21.8120 C   0  0  0  0  0  0  0  0  0  0  0  0
    5.4820   -0.5130   20.5250 C   0  0  0  0  0  0  0  0  0  0  0  0
    4.6160    0.5720   20.8010 C   0  0  0  0  0  0  0  0  0  0  0  0
    4.4630    1.0800   19.4150 C   0  0  0  0  0  0  0  0  0  0  0  0
    3.1580    1.8790   19.4010 C   0  0  0  0  0  0  0  0  0  0  0  0
    2.1880    2.5250   19.4560 N   0  0  0  0  0  0  0  0  0  0  0  0
    4.6160   -0.1110   18.4490 C   0  0  0  0  0  0  0  0  0  0  0  0
    6.0760   -0.2170   18.0300 C   0  0  0  0  0  0  0  0  0  0  0  0
    6.6210    1.0580   18.6090 C   0  0  0  0  0  0  0  0  0  0  0  0
    5.6150    1.9580   18.9940 C   0  0  0  0  0  0  0  0  0  0  0  0
    4.0630    1.1460   21.5030 N   0  0  0  0  0  0  0  0  0  0  0  0
    4.3830    0.4400   22.7450 C   0  0  0  0  0  0  0  0  0  0  0  0
    7.4180   -1.2740   23.4560 C   0  0  1  0  0  0  0  0  0  0  0  0
    8.5040   -1.9750   22.9810 C   0  0  0  0  0  0  0  0  0  0  0  0
    8.4610   -2.5960   21.9130 O   0  0  0  0  0  0  0  0  0  0  0  0
    9.6900   -1.9320   23.6890 N   0  0  0  0  0  0  0  0  0  0  0  0
    9.8320   -0.8310   24.4870 C   0  0  0  0  0  0  0  0  0  0  0  0
    9.0700   -1.6590   25.2330 C   0  0  0  0  0  0  0  0  0  0  0  0
    8.5060   -1.3950   26.5970 C   0  0  0  0  0  0  0  0  0  0  0  0
    8.8980   -2.8280   24.5120 C   0  0  0  0  0  0  0  0  0  0  0  0
    9.5490   -2.9480   23.1160 C   0  0  0  0  0  0  0  0  0  0  0  0
   10.3360   -1.8610   22.5580 C   0  0  0  0  0  0  0  0  0  0  0  0
   10.5020   -0.6820   23.3070 C   0  0  0  0  0  0  0  0  0  0  0  0
   11.2390    0.3740   22.8410 C   0  0  0  0  0  0  0  0  0  0  0  0
   11.8470    1.2010   23.7820 C   0  0  0  0  0  0  0  0  0  0  0  0
    7.6670    0.2040   23.0390 C   0  0  0  0  0  0  0  0  0  0  0  0
    7.9800    0.5730   21.6990 C   0  0  0  0  0  0  0  0  0  0  0  0
    8.2400    1.8130   21.1550 N   0  0  0  0  0  0  0  0  0  0  0  0
    8.2010    2.8470   22.0030 C   0  0  0  0  0  0  0  0  0  0  0  0
    7.8880    2.6520   23.4540 C   0  0  0  0  0  0  0  0  0  0  0  0
    7.6160    1.2740   23.9620 C   0  0  0  0  0  0  0  0  0  0  0  0
    7.3120    1.0980   25.4150 C   0  0  0  0  0  0  0  0  0  0  0  0
  1  2  1  0
  2  3  1  0
  3  4  2  0
  3  5  1  0
  5  6  1  0
  6  7  2  0
  7  8  1  0
  8  9  2  0
  9 10  1  0
 10 11  1  0
 11 12  3  0
 10 13  1  0
 13 14  1  0
 14 15  1  0
 10 16  1  0
 15 16  1  0
  9 17  1  0
  6 18  1  0
 17 18  2  0
  5 19  1  0
 19 20  1  6
 20 21  2  0
 20 22  1  0
 22 23  1  0
 23 24  2  0
 24 25  1  0
 24 26  1  0
 26 27  2  0
 27 28  1  0
 23 29  1  0
 28 29  2  0
 29 30  1  0
 30 31  1  0
 19 32  1  0
 32 33  2  0
 33 34  1  0
 34 35  2  0
 35 36  1  0
 32 37  1  0
 36 37  2  0
 37 38  1  0
M  END
