DAR-DIA-fb20be43-8-vinylsulfonamide
     RDKit          3D

 23 25  0  0  0  0  0  0  0  0999 V2000
    7.9720   -3.4260   19.6010 C   0  0  0  0  0  0  0  0  0  0  0  0
    7.0540   -2.5010   18.8800 C   0  0  0  0  0  0  0  0  0  0  0  0
    5.6390   -2.6310   19.8540 S   0  0  0  0  0  0  0  0  0  0  0  0
    5.1310   -3.9990   19.8600 O   0  0  0  0  0  0  0  0  0  0  0  0
    4.8420   -1.5540   19.3980 O   0  0  0  0  0  0  0  0  0  0  0  0
    6.3040   -2.1830   21.3390 N   0  0  0  0  0  0  0  0  0  0  0  0
    6.3050   -3.1910   22.4130 C   0  0  0  0  0  0  0  0  0  0  0  0
    7.6420   -3.3650   23.1380 C   0  0  0  0  0  0  0  0  0  0  0  0
    8.2800   -2.0630   23.2820 N   0  0  0  0  0  0  0  0  0  0  0  0
    9.4900   -2.1440   24.1060 C   0  0  0  0  0  0  0  0  0  0  0  0
   10.4520   -1.2930   23.6310 C   0  0  0  0  0  0  0  0  0  0  0  0
   11.4330   -1.7620   22.8400 C   0  0  0  0  0  0  0  0  0  0  0  0
   12.3850   -0.9730   22.3340 C   0  0  0  0  0  0  0  0  0  0  0  0
   13.4710   -1.7470   21.3280 Cl  0  0  0  0  0  0  0  0  0  0  0  0
   12.4180    0.3850   22.6220 C   0  0  0  0  0  0  0  0  0  0  0  0
   11.4270    0.9680   23.4140 C   0  0  0  0  0  0  0  0  0  0  0  0
   11.3970    2.3520   23.6830 C   0  0  0  0  0  0  0  0  0  0  0  0
   10.3590    2.9100   24.4640 C   0  0  0  0  0  0  0  0  0  0  0  0
    9.3550    2.0920   25.0000 C   0  0  0  0  0  0  0  0  0  0  0  0
    9.4170    0.6370   24.7110 C   0  0  0  0  0  0  0  0  0  0  0  0
   10.4270    0.0830   23.9240 C   0  0  0  0  0  0  0  0  0  0  0  0
    8.5640   -1.5800   21.9290 C   0  0  0  0  0  0  0  0  0  0  0  0
    7.3970   -1.1530   21.2850 C   0  0  0  0  0  0  0  0  0  0  0  0
  1  2  1  0
  3  2  1  0
  3  4  2  0
  3  5  2  0
  3  6  1  0
  6  7  1  0
  7  8  1  0
  8  9  1  0
  9 10  1  0
 10 11  1  0
 11 12  2  0
 12 13  1  0
 13 14  1  0
 13 15  2  0
 15 16  1  0
 16 17  1  0
 17 18  2  0
 18 19  1  0
 19 20  2  0
 11 21  1  0
 16 21  2  0
 20 21  1  0
  9 22  1  0
  6 23  1  0
 22 23  1  0
M  END
