DAR-DIA-2b784ede-28-chloroacetamide
     RDKit          3D

 26 27  0  0  0  0  0  0  0  0999 V2000
    7.4410   -2.8000   18.7130 C   0  0  0  0  0  0  0  0  0  0  0  0
    6.6150   -2.8340   19.9320 C   0  0  0  0  0  0  0  0  0  0  0  0
    5.7990   -3.8480   19.8210 O   0  0  0  0  0  0  0  0  0  0  0  0
    6.7680   -1.7240   20.9680 N   0  0  0  0  0  0  0  0  0  0  0  0
    6.2550   -0.5670   20.4400 C   0  0  0  0  0  0  0  0  0  0  0  0
    5.4610   -0.0110   19.4130 C   0  0  0  0  0  0  0  0  0  0  0  0
    4.7310   -0.6530   18.2770 N   0  0  0  0  0  0  0  0  0  0  0  0
    5.0850    0.1880   18.9010 N   0  0  0  0  0  0  0  0  0  0  0  0
    5.0450    1.5750   18.9810 C   0  0  0  0  0  0  0  0  0  0  0  0
    3.6890    2.1860   18.9300 C   0  0  0  0  0  0  0  0  0  0  0  0
    5.8880    2.1260   20.1490 C   0  0  0  0  0  0  0  0  0  0  0  0
    5.7260    1.5610   17.7300 C   0  0  0  0  0  0  0  0  0  0  0  0
    6.3580    1.3750   16.8240 N   0  0  0  0  0  0  0  0  0  0  0  0
    5.6160   -0.9790   19.5060 C   0  0  0  0  0  0  0  0  0  0  0  0
    7.6020   -1.5690   22.3450 C   0  0  1  0  0  0  0  0  0  0  0  0
    7.1930   -2.8480   23.1270 C   0  0  0  0  0  0  0  0  0  0  0  0
    6.7100   -3.6130   23.9640 O   0  0  0  0  0  0  0  0  0  0  0  0
    6.6130   -1.8890   23.9230 N   0  0  0  0  0  0  0  0  0  0  0  0
    7.1000   -1.6130   25.2510 C   0  0  0  0  0  0  0  0  0  0  0  0
    9.1730   -1.1090   22.5810 C   0  0  0  0  0  0  0  0  0  0  0  0
    9.6900    0.2080   22.1970 C   0  0  0  0  0  0  0  0  0  0  0  0
   11.0760    0.2090   22.5140 N   0  0  0  0  0  0  0  0  0  0  0  0
   11.8960   -0.7010   23.0380 C   0  0  0  0  0  0  0  0  0  0  0  0
   11.4340   -1.9030   23.4330 C   0  0  0  0  0  0  0  0  0  0  0  0
    9.9940   -2.0780   23.1870 C   0  0  0  0  0  0  0  0  0  0  0  0
    9.4110   -3.2460   23.5710 C   0  0  0  0  0  0  0  0  0  0  0  0
  1  2  1  0
  2  3  2  0
  2  4  1  0
  4  5  1  0
  5  6  1  0
  6  7  2  0
  7  8  1  0
  8  9  1  0
  9 10  1  0
  9 11  1  0
  9 12  1  0
 12 13  3  0
  5 14  2  0
  8 14  1  0
  4 15  1  0
 15 16  1  6
 16 17  2  0
 16 18  1  0
 18 19  1  0
 15 20  1  0
 20 21  2  0
 21 22  1  0
 22 23  2  0
 23 24  1  0
 20 25  1  0
 24 25  2  0
 25 26  1  0
M  END
