DAR-DIA-2b784ede-32-nitrile
     RDKit          3D

 25 26  0  0  0  0  0  0  0  0999 V2000
    7.1170   -2.8270   20.1750 C   0  0  0  0  0  0  0  0  0  0  0  0
    6.2970   -2.4440   19.2040 N   0  0  0  0  0  0  0  0  0  0  0  0
    7.2340   -2.0640   21.5950 N   0  0  0  0  0  0  0  0  0  0  0  0
    6.1110   -2.4180   22.5270 C   0  0  0  0  0  0  0  0  0  0  0  0
    5.7390   -1.7390   23.6790 C   0  0  0  0  0  0  0  0  0  0  0  0
    4.6670   -2.4680   24.1440 C   0  0  0  0  0  0  0  0  0  0  0  0
    3.8600   -2.2880   25.2710 C   0  0  0  0  0  0  0  0  0  0  0  0
    2.6040   -3.0340   25.3200 C   0  0  0  0  0  0  0  0  0  0  0  0
    3.5690   -0.8000   25.4190 C   0  0  0  0  0  0  0  0  0  0  0  0
    4.5210   -2.7490   26.5610 C   0  0  0  0  0  0  0  0  0  0  0  0
    3.8820   -2.4070   27.7780 N   0  0  0  0  0  0  0  0  0  0  0  0
    4.3730   -3.5420   23.3370 O   0  0  0  0  0  0  0  0  0  0  0  0
    5.3040   -3.5180   22.2900 N   0  0  0  0  0  0  0  0  0  0  0  0
    7.9250   -0.7950   22.0260 C   0  0  2  0  0  0  0  0  0  0  0  0
    7.7380    0.3670   21.0470 C   0  0  0  0  0  0  0  0  0  0  0  0
    8.5080    1.3390   21.0340 O   0  0  0  0  0  0  0  0  0  0  0  0
    6.6790    0.3260   20.1620 N   0  0  0  0  0  0  0  0  0  0  0  0
    6.7840    0.0430   18.7830 C   0  0  0  0  0  0  0  0  0  0  0  0
    9.5000   -0.7370   22.3520 C   0  0  0  0  0  0  0  0  0  0  0  0
   10.3330    0.5680   22.3820 C   0  0  0  0  0  0  0  0  0  0  0  0
   11.6930    0.6540   22.5960 N   0  0  0  0  0  0  0  0  0  0  0  0
   12.4080   -0.5210   22.7810 C   0  0  0  0  0  0  0  0  0  0  0  0
   11.6250   -1.8040   22.7960 C   0  0  0  0  0  0  0  0  0  0  0  0
   10.2320   -1.8640   22.6170 C   0  0  0  0  0  0  0  0  0  0  0  0
    9.4520   -2.9700   22.6710 C   0  0  0  0  0  0  0  0  0  0  0  0
  1  2  2  3
  1  3  1  0
  3  4  1  0
  4  5  1  0
  5  6  2  0
  6  7  1  0
  7  8  1  0
  7  9  1  0
  7 10  1  0
 10 11  3  0
  6 12  1  0
  4 13  2  0
 12 13  1  0
  3 14  1  0
 14 15  1  6
 15 16  2  0
 15 17  1  0
 17 18  1  0
 14 19  1  0
 19 20  2  0
 20 21  1  0
 21 22  2  0
 22 23  1  0
 19 24  1  0
 23 24  2  0
 24 25  1  0
M  END
