DAR-DIA-caba39e3-12-vinylsulfonamide
     RDKit          3D

 33 36  0  0  0  0  0  0  0  0999 V2000
    8.0400   -4.1590   20.5680 C   0  0  0  0  0  0  0  0  0  0  0  0
    6.5230   -4.3680   20.6540 C   0  0  0  0  0  0  0  0  0  0  0  0
    5.6030   -2.8940   20.3660 S   0  0  0  0  0  0  0  0  0  0  0  0
    4.6540   -2.9740   21.4400 O   0  0  0  0  0  0  0  0  0  0  0  0
    5.2220   -3.0760   18.9790 O   0  0  0  0  0  0  0  0  0  0  0  0
    6.7730   -1.6630   20.5980 N   0  0  0  0  0  0  0  0  0  0  0  0
    6.4840   -0.2660   20.9140 C   0  0  0  0  0  0  0  0  0  0  0  0
    7.4950    0.4520   21.6190 C   0  0  0  0  0  0  0  0  0  0  0  0
    7.8210    1.7410   21.4800 C   0  0  0  0  0  0  0  0  0  0  0  0
    8.9080    2.3910   22.2690 C   0  0  0  0  0  0  0  0  0  0  0  0
    9.7830    1.8420   23.2750 C   0  0  0  0  0  0  0  0  0  0  0  0
    9.3250    0.4570   23.3230 C   0  0  0  0  0  0  0  0  0  0  0  0
    8.2870   -0.1390   22.5590 C   0  0  0  0  0  0  0  0  0  0  0  0
    8.0010   -1.6330   22.7860 C   0  0  2  0  0  0  0  0  0  0  0  0
    8.9170   -2.8100   23.2280 C   0  0  0  0  0  0  0  0  0  0  0  0
    9.4400   -4.0390   23.7880 C   0  0  0  0  0  0  0  0  0  0  0  0
    8.6540   -5.1110   24.5840 C   0  0  0  0  0  0  0  0  0  0  0  0
    9.2070   -6.2930   25.0640 C   0  0  0  0  0  0  0  0  0  0  0  0
    8.9620   -7.4340   24.3660 N   0  0  0  0  0  0  0  0  0  0  0  0
    7.2850   -4.9700   24.8900 C   0  0  0  0  0  0  0  0  0  0  0  0
    6.7340   -3.8740   24.4560 N   0  0  0  0  0  0  0  0  0  0  0  0
    7.8220   -3.4130   23.8820 C   0  0  0  0  0  0  0  0  0  0  0  0
    6.9480   -2.3450   23.5760 C   0  0  0  0  0  0  0  0  0  0  0  0
    5.8430   -2.3540   24.4350 N   0  0  0  0  0  0  0  0  0  0  0  0
    5.7290   -1.3860   25.5550 C   0  0  0  0  0  0  0  0  0  0  0  0
    5.6060   -1.7960   26.8600 O   0  0  0  0  0  0  0  0  0  0  0  0
    5.7350   -0.0530   25.1950 N   0  0  0  0  0  0  0  0  0  0  0  0
    6.8530    0.7930   25.6480 C   0  0  0  0  0  0  0  0  0  0  0  0
    6.3690    2.0010   26.4190 C   0  0  0  0  0  0  0  0  0  0  0  0
    5.0250    2.3690   26.0920 O   0  0  0  0  0  0  0  0  0  0  0  0
    4.6870    2.0200   24.7450 C   0  0  0  0  0  0  0  0  0  0  0  0
    4.5920    0.6350   24.5600 C   0  0  0  0  0  0  0  0  0  0  0  0
    7.8960   -2.1350   21.3480 C   0  0  0  0  0  0  0  0  0  0  0  0
  1  2  1  0
  3  2  1  0
  3  4  2  0
  3  5  2  0
  3  6  1  0
  6  7  1  0
  7  8  1  0
  8  9  1  0
  9 10  2  0
 10 11  1  0
 11 12  2  0
  8 13  2  0
 12 13  1  0
 13 14  1  0
 14 15  1  6
 15 16  2  0
 16 17  1  0
 17 18  1  0
 18 19  3  0
 17 20  2  0
 20 21  1  0
 15 22  1  0
 21 22  2  0
 22 23  1  0
 23 24  1  0
 24 25  1  0
 25 26  2  0
 25 27  1  0
 27 28  1  0
 28 29  1  0
 29 30  1  0
 30 31  1  0
 27 32  1  0
 31 32  1  0
  6 33  1  0
 14 33  1  0
M  END
