DAR-DIA-fb20be43-2-vinylsulfonamide
     RDKit          3D

 23 25  0  0  0  0  0  0  0  0999 V2000
    6.5620   -4.3880   20.0230 C   0  0  0  0  0  0  0  0  0  0  0  0
    7.1650   -3.1820   19.3160 C   0  0  0  0  0  0  0  0  0  0  0  0
    5.8750   -2.1620   19.7950 S   0  0  0  0  0  0  0  0  0  0  0  0
    4.7750   -3.0450   20.1030 O   0  0  0  0  0  0  0  0  0  0  0  0
    5.8120   -1.1540   18.7970 O   0  0  0  0  0  0  0  0  0  0  0  0
    6.5370   -1.5960   21.2320 N   0  0  0  0  0  0  0  0  0  0  0  0
    6.3350   -2.5100   22.3610 C   0  0  0  0  0  0  0  0  0  0  0  0
    7.6650   -3.0100   22.9290 C   0  0  0  0  0  0  0  0  0  0  0  0
    8.4700   -1.8530   23.3580 N   0  0  0  0  0  0  0  0  0  0  0  0
    9.8250   -2.2960   23.7220 C   0  0  0  0  0  0  0  0  0  0  0  0
   10.7590   -1.3430   23.4170 C   0  0  0  0  0  0  0  0  0  0  0  0
   11.8620   -1.7010   22.7160 C   0  0  0  0  0  0  0  0  0  0  0  0
   12.8200   -0.8280   22.3600 C   0  0  0  0  0  0  0  0  0  0  0  0
   13.8220   -1.2900   21.6750 F   0  0  0  0  0  0  0  0  0  0  0  0
   12.6990    0.5090   22.7140 C   0  0  0  0  0  0  0  0  0  0  0  0
   11.5890    0.9800   23.4200 C   0  0  0  0  0  0  0  0  0  0  0  0
   11.4450    2.3410   23.7400 C   0  0  0  0  0  0  0  0  0  0  0  0
   10.3130    2.8060   24.4510 C   0  0  0  0  0  0  0  0  0  0  0  0
    9.3220    1.9060   24.8610 C   0  0  0  0  0  0  0  0  0  0  0  0
    9.4930    0.4720   24.5080 C   0  0  0  0  0  0  0  0  0  0  0  0
   10.6060    0.0140   23.7860 C   0  0  0  0  0  0  0  0  0  0  0  0
    8.5510   -0.8760   22.2450 C   0  0  0  0  0  0  0  0  0  0  0  0
    7.9700   -1.3080   21.0490 C   0  0  0  0  0  0  0  0  0  0  0  0
  1  2  1  0
  3  2  1  0
  3  4  2  0
  3  5  2  0
  3  6  1  0
  6  7  1  0
  7  8  1  0
  8  9  1  0
  9 10  1  0
 10 11  1  0
 11 12  2  0
 12 13  1  0
 13 14  1  0
 13 15  2  0
 15 16  1  0
 16 17  1  0
 17 18  2  0
 18 19  1  0
 19 20  2  0
 11 21  1  0
 16 21  2  0
 20 21  1  0
  9 22  1  0
  6 23  1  0
 22 23  1  0
M  END
