DAR-DIA-caba39e3-10-vinylsulfonamide
     RDKit          3D

 31 34  0  0  0  0  0  0  0  0999 V2000
    8.0270   -3.4180   19.6850 C   0  0  0  0  0  0  0  0  0  0  0  0
    7.0500   -2.4780   19.0430 C   0  0  0  0  0  0  0  0  0  0  0  0
    5.6910   -2.6290   20.1130 S   0  0  0  0  0  0  0  0  0  0  0  0
    5.1250   -3.9510   19.8720 O   0  0  0  0  0  0  0  0  0  0  0  0
    4.9440   -1.4010   19.9660 O   0  0  0  0  0  0  0  0  0  0  0  0
    6.5450   -2.5760   21.5740 N   0  0  0  0  0  0  0  0  0  0  0  0
    6.1110   -3.3170   22.7190 C   0  0  0  0  0  0  0  0  0  0  0  0
    7.0730   -3.7330   23.6330 C   0  0  0  0  0  0  0  0  0  0  0  0
    6.7680   -4.6320   24.6320 C   0  0  0  0  0  0  0  0  0  0  0  0
    7.7630   -5.1050   25.6170 C   0  0  0  0  0  0  0  0  0  0  0  0
    9.0490   -4.6030   25.5070 C   0  0  0  0  0  0  0  0  0  0  0  0
    9.4050   -3.6740   24.5030 C   0  0  0  0  0  0  0  0  0  0  0  0
    8.3950   -3.2750   23.5970 C   0  0  0  0  0  0  0  0  0  0  0  0
    8.8890   -2.2710   22.5240 C   0  0  2  0  0  0  0  0  0  0  0  0
    9.9680   -1.1990   22.8100 C   0  0  0  0  0  0  0  0  0  0  0  0
   11.2540   -1.4830   22.4360 C   0  0  0  0  0  0  0  0  0  0  0  0
   12.3410   -0.5200   22.6370 C   0  0  0  0  0  0  0  0  0  0  0  0
   13.5670   -0.8380   22.2400 O   0  0  0  0  0  0  0  0  0  0  0  0
   13.4170   -1.8340   21.2370 C   0  0  0  0  0  0  0  0  0  0  0  0
   12.0580    0.7150   23.2250 C   0  0  0  0  0  0  0  0  0  0  0  0
   10.7520    1.0280   23.6110 C   0  0  0  0  0  0  0  0  0  0  0  0
   10.5320    2.3140   24.1780 C   0  0  0  0  0  0  0  0  0  0  0  0
    9.1500    2.7630   24.6260 C   0  0  0  0  0  0  0  0  0  0  0  0
    8.8210    4.3630   25.3230 S   0  0  0  0  0  0  0  0  0  0  0  0
    8.6940    4.0710   26.9890 N   0  0  0  0  0  0  0  0  0  0  0  0
    9.9810    5.2140   25.1420 O   0  0  0  0  0  0  0  0  0  0  0  0
    7.5110    4.7970   24.8920 O   0  0  0  0  0  0  0  0  0  0  0  0
    8.0730    1.7360   24.4210 C   0  0  0  0  0  0  0  0  0  0  0  0
    8.3770    0.4010   23.8120 C   0  0  0  0  0  0  0  0  0  0  0  0
    9.6820    0.0610   23.4120 C   0  0  0  0  0  0  0  0  0  0  0  0
    7.7230   -1.7160   21.6660 C   0  0  0  0  0  0  0  0  0  0  0  0
  1  2  1  0
  3  2  1  0
  3  4  2  0
  3  5  2  0
  3  6  1  0
  6  7  1  0
  7  8  1  0
  8  9  1  0
  9 10  2  0
 10 11  1  0
 11 12  2  0
  8 13  2  0
 12 13  1  0
 13 14  1  0
 14 15  1  1
 15 16  2  0
 16 17  1  0
 17 18  1  0
 18 19  1  0
 17 20  2  0
 20 21  1  0
 21 22  1  0
 22 23  2  0
 23 24  1  0
 24 25  1  0
 24 26  2  0
 24 27  2  0
 23 28  1  0
 28 29  2  0
 15 30  1  0
 21 30  2  0
 29 30  1  0
  6 31  1  0
 14 31  1  0
M  END
