DAR-DIA-2b784ede-26-acrylamide
     RDKit          3D

 35 38  0  0  0  0  0  0  0  0999 V2000
    6.8940   -3.2510   19.7760 C   0  0  0  0  0  0  0  0  0  0  0  0
    7.0690   -2.5510   21.1640 C   0  0  0  0  0  0  0  0  0  0  0  0
    5.7340   -2.2580   21.9050 C   0  0  0  0  0  0  0  0  0  0  0  0
    4.7590   -3.0300   21.4270 O   0  0  0  0  0  0  0  0  0  0  0  0
    5.6130   -1.2480   23.0830 N   0  0  0  0  0  0  0  0  0  0  0  0
    4.7390   -1.4740   24.1980 C   0  0  2  0  0  0  0  0  0  0  0  0
    4.9580   -0.8230   25.3830 C   0  0  0  0  0  0  0  0  0  0  0  0
    4.4570   -1.3530   26.6610 C   0  0  0  0  0  0  0  0  0  0  0  0
    3.2270   -0.5970   27.1850 C   0  0  0  0  0  0  0  0  0  0  0  0
    3.2380   -0.6370   28.7180 C   0  0  0  0  0  0  0  0  0  0  0  0
    4.5890   -1.2460   29.0990 C   0  0  0  0  0  0  0  0  0  0  0  0
    5.4670   -1.2880   27.8260 C   0  0  0  0  0  0  0  0  0  0  0  0
    4.1760   -2.7350   26.1060 C   0  0  0  0  0  0  0  0  0  0  0  0
    4.7160   -2.7370   24.7090 N   0  0  0  0  0  0  0  0  0  0  0  0
    6.1390    0.2250   23.1510 C   0  0  1  0  0  0  0  0  0  0  0  0
    7.5040    0.5930   23.1400 C   0  0  0  0  0  0  0  0  0  0  0  0
    8.0730    1.0920   22.1790 O   0  0  0  0  0  0  0  0  0  0  0  0
    8.1910    0.4210   24.3150 N   0  0  0  0  0  0  0  0  0  0  0  0
    9.5140    0.9650   24.4780 C   0  0  0  0  0  0  0  0  0  0  0  0
   10.4830    0.2900   23.7550 C   0  0  0  0  0  0  0  0  0  0  0  0
   11.6040    0.9770   23.2930 C   0  0  0  0  0  0  0  0  0  0  0  0
   11.7150    2.4320   23.5100 C   0  0  0  0  0  0  0  0  0  0  0  0
   12.6570    0.3820   22.6000 C   0  0  0  0  0  0  0  0  0  0  0  0
   12.6620   -1.0630   22.2340 C   0  0  0  0  0  0  0  0  0  0  0  0
   11.4390   -1.8210   22.6830 C   0  0  0  0  0  0  0  0  0  0  0  0
   10.3670   -1.0890   23.4630 C   0  0  0  0  0  0  0  0  0  0  0  0
    9.3000   -1.9250   23.8370 C   0  0  0  0  0  0  0  0  0  0  0  0
    9.0070   -1.8160   25.2090 C   0  0  0  0  0  0  0  0  0  0  0  0
    5.1860    1.2150   22.4790 C   0  0  0  0  0  0  0  0  0  0  0  0
    3.8400    0.7180   22.6780 C   0  0  0  0  0  0  0  0  0  0  0  0
    3.0040    1.6380   22.0680 N   0  0  0  0  0  0  0  0  0  0  0  0
    3.2690    2.7750   21.4040 C   0  0  0  0  0  0  0  0  0  0  0  0
    4.5330    3.2320   21.2230 C   0  0  0  0  0  0  0  0  0  0  0  0
    5.5820    2.4010   21.8010 C   0  0  0  0  0  0  0  0  0  0  0  0
    6.9890    2.9180   21.6080 C   0  0  0  0  0  0  0  0  0  0  0  0
  1  2  1  0
  2  3  1  0
  3  4  2  0
  3  5  1  0
  6  5  1  6
  6  7  1  0
  8  7  1  0
  8  9  1  0
  9 10  1  0
 10 11  1  0
  8 12  1  0
 11 12  1  0
  8 13  1  0
  6 14  1  0
 13 14  1  0
  5 15  1  0
 15 16  1  6
 16 17  2  0
 16 18  1  0
 18 19  1  0
 19 20  1  0
 20 21  2  0
 21 22  1  0
 21 23  1  0
 23 24  2  0
 24 25  1  0
 20 26  1  0
 25 26  2  0
 26 27  1  0
 27 28  1  0
 15 29  1  0
 29 30  2  0
 30 31  1  0
 31 32  2  0
 32 33  1  0
 29 34  1  0
 33 34  2  0
 34 35  1  0
M  END
