DAR-DIA-2b784ede-43-vinylsulfonamide
     RDKit          3D

 35 37  0  0  0  0  0  0  0  0999 V2000
    7.0760   -2.9640   18.6430 C   0  0  0  0  0  0  0  0  0  0  0  0
    5.7920   -3.2560   19.4340 C   0  0  0  0  0  0  0  0  0  0  0  0
    5.9380   -2.7490   21.1130 S   0  0  0  0  0  0  0  0  0  0  0  0
    4.6110   -3.0160   21.6060 O   0  0  0  0  0  0  0  0  0  0  0  0
    6.9950   -3.5580   21.6730 O   0  0  0  0  0  0  0  0  0  0  0  0
    6.4080   -1.0520   21.1860 N   0  0  0  0  0  0  0  0  0  0  0  0
    6.5930   -0.4870   19.8290 C   0  0  0  0  0  0  0  0  0  0  0  0
    5.4590   -0.0000   20.5450 C   0  0  0  0  0  0  0  0  0  0  0  0
    5.6710   -0.6930   21.8380 C   0  0  0  0  0  0  0  0  0  0  0  0
    4.7630   -0.5220   23.0950 C   0  0  0  0  0  0  0  0  0  0  0  0
    3.3900    0.0550   22.7670 C   0  0  0  0  0  0  0  0  0  0  0  0
    5.3820    0.5450   24.0280 C   0  0  0  0  0  0  0  0  0  0  0  0
    4.5600   -1.8150   23.9120 C   0  0  0  0  0  0  0  0  0  0  0  0
    6.9020   -1.5150   21.6650 N   0  0  0  0  0  0  0  0  0  0  0  0
    7.4480   -1.3200   20.3440 N   0  0  0  0  0  0  0  0  0  0  0  0
    7.4620   -0.7950   22.2740 C   0  0  2  0  0  0  0  0  0  0  0  0
    8.6570   -0.0920   21.9140 C   0  0  0  0  0  0  0  0  0  0  0  0
    8.6270    1.1290   21.7130 O   0  0  0  0  0  0  0  0  0  0  0  0
    9.8440   -0.8100   21.7990 N   0  0  0  0  0  0  0  0  0  0  0  0
   10.8250   -1.0080   22.8140 C   0  0  0  0  0  0  0  0  0  0  0  0
   10.5100   -0.5570   24.0990 C   0  0  0  0  0  0  0  0  0  0  0  0
    9.1560    0.1200   24.3660 C   0  0  0  0  0  0  0  0  0  0  0  0
   11.3920   -0.7150   25.1270 C   0  0  0  0  0  0  0  0  0  0  0  0
   12.7260   -1.3790   24.8890 C   0  0  0  0  0  0  0  0  0  0  0  0
   13.0220   -1.8150   23.6150 C   0  0  0  0  0  0  0  0  0  0  0  0
   12.0980   -1.6420   22.5720 C   0  0  0  0  0  0  0  0  0  0  0  0
   12.5430   -2.1700   21.1910 C   0  0  0  0  0  0  0  0  0  0  0  0
   13.4790   -3.1990   21.4110 O   0  0  0  0  0  0  0  0  0  0  0  0
    7.5500   -2.0410   23.1990 C   0  0  0  0  0  0  0  0  0  0  0  0
    6.5050   -1.9050   24.3940 C   0  0  0  0  0  0  0  0  0  0  0  0
    6.8040   -3.2270   25.0140 C   0  0  0  0  0  0  0  0  0  0  0  0
    7.6860   -4.1330   24.6010 C   0  0  0  0  0  0  0  0  0  0  0  0
    7.8490   -5.3020   25.2560 N   0  0  0  0  0  0  0  0  0  0  0  0
    8.4410   -3.9800   23.5730 N   0  0  0  0  0  0  0  0  0  0  0  0
    8.5450   -2.9650   22.6840 C   0  0  0  0  0  0  0  0  0  0  0  0
  1  2  1  0
  2  3  1  0
  3  4  2  0
  3  5  2  0
  3  6  1  0
  6  7  1  0
  7  8  2  0
  8  9  1  0
  9 10  1  0
 10 11  1  0
 10 12  1  0
 10 13  1  0
  9 14  2  0
  7 15  1  0
 14 15  1  0
  6 16  1  0
 16 17  1  6
 17 18  2  0
 17 19  1  0
 19 20  1  0
 20 21  2  0
 21 22  1  0
 21 23  1  0
 23 24  2  0
 24 25  1  0
 20 26  1  0
 25 26  2  0
 26 27  1  0
 27 28  1  0
 16 29  1  0
 29 30  2  0
 30 31  1  0
 31 32  2  0
 32 33  1  0
 32 34  1  0
 29 35  1  0
 34 35  2  0
M  END
