DAR-DIA-2b784ede-27-nitrile
     RDKit          3D

 34 36  0  0  0  0  0  0  0  0999 V2000
    6.4190   -3.2280   20.2660 C   0  0  0  0  0  0  0  0  0  0  0  0
    5.4180   -3.9550   19.8080 N   0  0  0  0  0  0  0  0  0  0  0  0
    6.1030   -1.8740   21.0180 N   0  0  0  0  0  0  0  0  0  0  0  0
    4.9830   -1.1480   20.5300 C   0  0  0  0  0  0  0  0  0  0  0  0
    6.1140   -0.6080   20.1560 C   0  0  0  0  0  0  0  0  0  0  0  0
    6.0880    0.4930   19.4000 N   0  0  0  0  0  0  0  0  0  0  0  0
    4.8480    0.8440   19.1670 N   0  0  0  0  0  0  0  0  0  0  0  0
    5.7510    1.6320   18.6250 C   0  0  0  0  0  0  0  0  0  0  0  0
    5.8980    2.3480   19.8220 C   0  0  0  0  0  0  0  0  0  0  0  0
    5.0180    2.0230   17.3880 C   0  0  0  0  0  0  0  0  0  0  0  0
    6.7680    0.7280   18.3330 C   0  0  0  0  0  0  0  0  0  0  0  0
    7.5930   -0.3770   18.1130 N   0  0  0  0  0  0  0  0  0  0  0  0
    4.2910   -0.1550   19.8550 C   0  0  0  0  0  0  0  0  0  0  0  0
    6.4280   -1.3720   22.3820 C   0  0  1  0  0  0  0  0  0  0  0  0
    7.3740   -0.1640   22.7860 C   0  0  0  0  0  0  0  0  0  0  0  0
    7.5020    0.9930   21.9430 O   0  0  0  0  0  0  0  0  0  0  0  0
    8.0330   -0.1840   24.0040 N   0  0  0  0  0  0  0  0  0  0  0  0
    9.1280    0.7950   24.0890 C   0  0  0  0  0  0  0  0  0  0  0  0
   10.4150    0.2480   23.4560 C   0  0  0  0  0  0  0  0  0  0  0  0
   10.4190   -1.2300   23.0780 C   0  0  0  0  0  0  0  0  0  0  0  0
    9.3330   -2.0870   23.2660 C   0  0  0  0  0  0  0  0  0  0  0  0
   11.5800   -1.7480   22.5050 C   0  0  0  0  0  0  0  0  0  0  0  0
   12.6640   -0.8960   22.3260 C   0  0  0  0  0  0  0  0  0  0  0  0
   12.6920    0.4580   22.6600 C   0  0  0  0  0  0  0  0  0  0  0  0
   11.5570    1.0410   23.2120 C   0  0  0  0  0  0  0  0  0  0  0  0
   11.5500    2.3800   23.5020 C   0  0  0  0  0  0  0  0  0  0  0  0
   10.7460    3.0380   22.5740 C   0  0  0  0  0  0  0  0  0  0  0  0
    5.2900   -1.1930   23.2700 C   0  0  0  0  0  0  0  0  0  0  0  0
    4.7650   -2.5030   23.8650 C   0  0  0  0  0  0  0  0  0  0  0  0
    3.7360   -2.6390   24.7370 N   0  0  0  0  0  0  0  0  0  0  0  0
    3.0880   -1.5290   25.1320 C   0  0  0  0  0  0  0  0  0  0  0  0
    3.4540   -0.1330   24.6540 C   0  0  0  0  0  0  0  0  0  0  0  0
    4.6240    0.0050   23.6780 C   0  0  0  0  0  0  0  0  0  0  0  0
    4.9240    1.3230   23.2950 C   0  0  0  0  0  0  0  0  0  0  0  0
  1  2  2  3
  1  3  1  0
  3  4  1  0
  4  5  1  0
  5  6  2  0
  6  7  1  0
  7  8  1  0
  8  9  1  0
  8 10  1  0
  8 11  1  0
 11 12  3  0
  4 13  2  0
  7 13  1  0
  3 14  1  0
 14 15  1  6
 15 16  2  0
 15 17  1  0
 17 18  1  0
 18 19  1  0
 19 20  2  0
 20 21  1  0
 20 22  1  0
 22 23  2  0
 23 24  1  0
 19 25  1  0
 24 25  2  0
 25 26  1  0
 26 27  1  0
 14 28  1  0
 28 29  2  0
 29 30  1  0
 30 31  2  0
 31 32  1  0
 28 33  1  0
 32 33  2  0
 33 34  1  0
M  END
