DAR-DIA-2b784ede-47-nitrile
     RDKit          3D

 32 34  0  0  0  0  0  0  0  0999 V2000
    6.8550   -3.0450   19.3530 C   0  0  0  0  0  0  0  0  0  0  0  0
    6.0910   -2.9940   18.3460 N   0  0  0  0  0  0  0  0  0  0  0  0
    6.8060   -2.0710   20.3770 N   0  0  0  0  0  0  0  0  0  0  0  0
    5.7610   -0.9830   20.4420 C   0  0  0  0  0  0  0  0  0  0  0  0
    4.8950    0.2300   20.1720 C   0  0  0  0  0  0  0  0  0  0  0  0
    5.0560    1.0950   19.0850 C   0  0  0  0  0  0  0  0  0  0  0  0
    4.1260    2.3110   19.0020 C   0  0  0  0  0  0  0  0  0  0  0  0
    2.6320    2.2720   19.3450 C   0  0  0  0  0  0  0  0  0  0  0  0
    4.2890    3.1000   17.7090 C   0  0  0  0  0  0  0  0  0  0  0  0
    4.5510    3.1520   20.2080 C   0  0  0  0  0  0  0  0  0  0  0  0
    6.0420    0.5850   18.4140 N   0  0  0  0  0  0  0  0  0  0  0  0
    6.3920   -0.5460   19.2000 N   0  0  0  0  0  0  0  0  0  0  0  0
    6.9910   -2.5030   21.8280 C   0  0  2  0  0  0  0  0  0  0  0  0
    8.2940   -2.6590   22.3640 C   0  0  0  0  0  0  0  0  0  0  0  0
    8.5830   -3.6930   22.9840 O   0  0  0  0  0  0  0  0  0  0  0  0
    9.2640   -1.6860   22.3410 N   0  0  0  0  0  0  0  0  0  0  0  0
   10.6850   -1.6380   22.3140 C   0  0  0  0  0  0  0  0  0  0  0  0
   10.1890   -1.1260   23.5940 C   0  0  0  0  0  0  0  0  0  0  0  0
    8.8230   -1.1340   23.8270 C   0  0  0  0  0  0  0  0  0  0  0  0
   10.8200   -0.5940   24.7290 C   0  0  0  0  0  0  0  0  0  0  0  0
   12.2650   -0.4900   24.7560 C   0  0  0  0  0  0  0  0  0  0  0  0
   12.9140   -0.9820   23.5470 C   0  0  0  0  0  0  0  0  0  0  0  0
   12.1540   -1.4930   22.4950 C   0  0  0  0  0  0  0  0  0  0  0  0
   12.9250   -1.9460   21.4310 C   0  0  0  0  0  0  0  0  0  0  0  0
   13.7660   -0.9560   20.8790 O   0  0  0  0  0  0  0  0  0  0  0  0
    5.9770   -3.5340   22.2790 C   0  0  0  0  0  0  0  0  0  0  0  0
    6.1030   -5.0540   21.8900 C   0  0  0  0  0  0  0  0  0  0  0  0
    5.2470   -6.0380   22.2510 N   0  0  0  0  0  0  0  0  0  0  0  0
    4.2140   -5.6320   23.0030 C   0  0  0  0  0  0  0  0  0  0  0  0
    4.0210   -4.2090   23.4200 C   0  0  0  0  0  0  0  0  0  0  0  0
    4.8870   -3.1750   23.0670 C   0  0  0  0  0  0  0  0  0  0  0  0
    4.6490   -1.8710   23.4970 C   0  0  0  0  0  0  0  0  0  0  0  0
  1  2  2  3
  1  3  1  0
  3  4  1  0
  4  5  2  0
  5  6  1  0
  6  7  1  0
  7  8  1  0
  7  9  1  0
  7 10  1  0
  6 11  2  0
  4 12  1  0
 11 12  1  0
  3 13  1  0
 13 14  1  6
 14 15  2  0
 14 16  1  0
 16 17  1  0
 17 18  2  0
 18 19  1  0
 18 20  1  0
 20 21  2  0
 21 22  1  0
 17 23  1  0
 22 23  2  0
 23 24  1  0
 24 25  1  0
 13 26  1  0
 26 27  2  0
 27 28  1  0
 28 29  2  0
 29 30  1  0
 26 31  1  0
 30 31  2  0
 31 32  1  0
M  END
