DAR-DIA-842b4336-19-chloroacetamide
     RDKit          3D

 21 23  0  0  0  0  0  0  0  0999 V2000
    7.8860   -3.9870   20.2610 C   0  0  0  0  0  0  0  0  0  0  0  0
    6.5570   -4.2870   21.1360 C   0  0  0  0  0  0  0  0  0  0  0  0
    6.0260   -4.4280   19.9850 O   0  0  0  0  0  0  0  0  0  0  0  0
    7.5540   -4.0420   22.2900 C   0  0  0  0  0  0  0  0  0  0  0  0
    7.7640   -5.3030   22.8370 C   0  0  0  0  0  0  0  0  0  0  0  0
    6.7450   -5.0770   21.7930 C   0  0  0  0  0  0  0  0  0  0  0  0
    6.7600   -3.5400   21.4500 C   0  0  0  0  0  0  0  0  0  0  0  0
    6.0220   -2.7240   20.5900 N   0  0  0  0  0  0  0  0  0  0  0  0
    6.4810   -1.4930   20.1270 C   0  0  0  0  0  0  0  0  0  0  0  0
    6.8930   -0.6260   20.8990 O   0  0  0  0  0  0  0  0  0  0  0  0
    6.5200   -1.2130   18.7400 C   0  0  0  0  0  0  0  0  0  0  0  0
    6.0420    0.1000   18.1260 C   0  0  0  0  0  0  0  0  0  0  0  0
    5.2300   -0.0740   19.4410 C   0  0  0  0  0  0  0  0  0  0  0  0
    4.3710    0.8340   19.7700 C   0  0  0  0  0  0  0  0  0  0  0  0
    3.5470    0.9310   20.8600 C   0  0  0  0  0  0  0  0  0  0  0  0
    2.7040    2.0260   20.9660 C   0  0  0  0  0  0  0  0  0  0  0  0
    2.7300    2.9840   19.9630 C   0  0  0  0  0  0  0  0  0  0  0  0
    3.5430    2.8910   18.8970 N   0  0  0  0  0  0  0  0  0  0  0  0
    4.3320    1.7930   18.8710 C   0  0  0  0  0  0  0  0  0  0  0  0
    5.2460    1.4020   17.9650 N   0  0  0  0  0  0  0  0  0  0  0  0
    7.9780   -2.5530   22.3850 S   0  0  0  0  0  0  0  0  0  0  0  0
  1  2  1  0
  2  3  2  0
  2  4  1  0
  4  5  2  0
  5  6  1  0
  6  7  2  0
  7  8  1  0
  8  9  1  0
  9 10  2  0
  9 11  1  0
 11 12  1  0
 12 13  2  0
 13 14  1  0
 14 15  2  0
 15 16  1  0
 16 17  2  0
 17 18  1  0
 14 19  1  0
 18 19  2  0
 12 20  1  0
 19 20  1  0
  4 21  1  0
  7 21  1  0
M  END
