DAR-DIA-caba39e3-3-chloroacetamide
     RDKit          3D

 24 27  0  0  0  0  0  0  0  0999 V2000
    7.3240   -3.0530   18.8980 C   0  0  0  0  0  0  0  0  0  0  0  0
    6.4390   -3.4140   20.0620 C   0  0  0  0  0  0  0  0  0  0  0  0
    5.5180   -4.2250   19.8330 O   0  0  0  0  0  0  0  0  0  0  0  0
    6.7180   -2.8380   21.3310 N   0  0  0  0  0  0  0  0  0  0  0  0
    6.2640   -3.4890   22.5500 C   0  0  0  0  0  0  0  0  0  0  0  0
    7.2120   -3.9420   23.4730 C   0  0  0  0  0  0  0  0  0  0  0  0
    6.8890   -4.8160   24.5280 C   0  0  0  0  0  0  0  0  0  0  0  0
    7.9640   -5.2620   25.4790 C   0  0  0  0  0  0  0  0  0  0  0  0
    9.2490   -4.7840   25.2670 C   0  0  0  0  0  0  0  0  0  0  0  0
    9.5520   -3.9180   24.2260 C   0  0  0  0  0  0  0  0  0  0  0  0
    8.5250   -3.5240   23.3610 C   0  0  0  0  0  0  0  0  0  0  0  0
    8.9320   -2.5630   22.2450 C   0  0  2  0  0  0  0  0  0  0  0  0
    9.9120   -1.5250   22.7770 C   0  0  0  0  0  0  0  0  0  0  0  0
   11.2940   -1.5200   22.5330 C   0  0  0  0  0  0  0  0  0  0  0  0
   12.2030   -0.4810   23.0810 C   0  0  0  0  0  0  0  0  0  0  0  0
   13.3630   -0.4370   22.8880 O   0  0  0  0  0  0  0  0  0  0  0  0
   13.5140    0.9310   22.7220 C   0  0  0  0  0  0  0  0  0  0  0  0
   11.6200    0.5250   23.8630 C   0  0  0  0  0  0  0  0  0  0  0  0
   10.2740    0.5080   24.0870 C   0  0  0  0  0  0  0  0  0  0  0  0
    9.4880    1.3880   24.8100 C   0  0  0  0  0  0  0  0  0  0  0  0
    8.0930    0.9810   24.7920 C   0  0  0  0  0  0  0  0  0  0  0  0
    8.0840   -0.2140   23.9930 N   0  0  0  0  0  0  0  0  0  0  0  0
    9.4210   -0.4910   23.5660 C   0  0  0  0  0  0  0  0  0  0  0  0
    7.8920   -1.9570   21.4670 C   0  0  0  0  0  0  0  0  0  0  0  0
  1  2  1  0
  2  3  2  0
  2  4  1  0
  4  5  1  0
  5  6  1  0
  6  7  1  0
  7  8  2  0
  8  9  1  0
  9 10  2  0
  6 11  2  0
 10 11  1  0
 11 12  1  0
 12 13  1  1
 13 14  2  0
 14 15  1  0
 15 16  1  0
 16 17  1  0
 15 18  2  0
 18 19  1  0
 19 20  1  0
 20 21  2  0
 21 22  1  0
 13 23  1  0
 19 23  2  0
 22 23  1  0
  4 24  1  0
 12 24  1  0
M  END
