DAR-DIA-842b4336-15-acrylamide
     RDKit          3D

 19 20  0  0  0  0  0  0  0  0999 V2000
    6.3650   -3.8080   19.7790 C   0  0  0  0  0  0  0  0  0  0  0  0
    6.3990   -2.7800   20.8860 C   0  0  0  0  0  0  0  0  0  0  0  0
    6.1230   -3.4280   22.2260 C   0  0  0  0  0  0  0  0  0  0  0  0
    4.9360   -3.5180   21.6850 O   0  0  0  0  0  0  0  0  0  0  0  0
    7.6460   -3.1480   22.4710 C   0  0  0  0  0  0  0  0  0  0  0  0
    7.8800   -1.8460   22.5500 C   0  0  0  0  0  0  0  0  0  0  0  0
    6.6200   -1.3860   22.3910 N   0  0  0  0  0  0  0  0  0  0  0  0
    7.8720   -0.9510   22.5670 C   0  0  0  0  0  0  0  0  0  0  0  0
    8.2300    0.3830   22.6300 C   0  0  0  0  0  0  0  0  0  0  0  0
    7.8950    1.0620   21.4320 C   0  0  0  0  0  0  0  0  0  0  0  0
    8.8530    1.9310   21.0230 O   0  0  0  0  0  0  0  0  0  0  0  0
    6.7040    0.9310   20.7200 N   0  0  0  0  0  0  0  0  0  0  0  0
    6.4870    0.5070   19.3640 C   0  0  0  0  0  0  0  0  0  0  0  0
    5.3150    1.2950   18.4530 C   0  0  0  0  0  0  0  0  0  0  0  0
    4.8530    2.1740   19.2970 C   0  0  0  0  0  0  0  0  0  0  0  0
    5.7460    1.2080   19.2240 C   0  0  0  0  0  0  0  0  0  0  0  0
    6.2630    0.1900   18.1950 N   0  0  0  0  0  0  0  0  0  0  0  0
    7.1900   -0.5290   18.7520 C   0  0  0  0  0  0  0  0  0  0  0  0
    8.6660   -2.0790   22.6580 O   0  0  0  0  0  0  0  0  0  0  0  0
  1  2  1  0
  2  3  1  0
  3  4  2  0
  3  5  1  0
  5  6  2  0
  6  7  1  0
  7  8  2  0
  8  9  1  0
  9 10  1  0
 10 11  2  0
 10 12  1  0
 12 13  1  0
 13 14  2  0
 14 15  1  0
 15 16  2  0
 16 17  1  0
 13 18  1  0
 17 18  2  0
  5 19  1  0
  8 19  1  0
M  END
