DAR-DIA-2b784ede-38-vinylsulfonamide
     RDKit          3D

 36 38  0  0  0  0  0  0  0  0999 V2000
    6.7400   -4.3610   20.3510 C   0  0  0  0  0  0  0  0  0  0  0  0
    6.7660   -4.4950   21.8610 C   0  0  0  0  0  0  0  0  0  0  0  0
    5.8390   -3.1680   22.5180 S   0  0  0  0  0  0  0  0  0  0  0  0
    4.5940   -3.1400   21.7720 O   0  0  0  0  0  0  0  0  0  0  0  0
    5.8100   -3.3450   23.9610 O   0  0  0  0  0  0  0  0  0  0  0  0
    6.8560   -1.8060   22.1260 N   0  0  0  0  0  0  0  0  0  0  0  0
    8.3230   -1.8950   22.4120 C   0  0  0  0  0  0  0  0  0  0  0  0
    7.5770   -1.6460   23.6490 C   0  0  0  0  0  0  0  0  0  0  0  0
    8.3300   -1.5180   24.7470 C   0  0  0  0  0  0  0  0  0  0  0  0
    8.7620   -1.7400   23.4240 C   0  0  0  0  0  0  0  0  0  0  0  0
   10.2200   -1.8310   23.1580 C   0  0  0  0  0  0  0  0  0  0  0  0
   10.6840   -2.0140   21.8750 C   0  0  0  0  0  0  0  0  0  0  0  0
   10.9380   -2.8320   24.0450 C   0  0  0  0  0  0  0  0  0  0  0  0
   10.9380   -0.5120   23.4210 C   0  0  0  0  0  0  0  0  0  0  0  0
    7.6240   -1.8410   22.4430 C   0  0  0  0  0  0  0  0  0  0  0  0
    8.1420   -2.0930   21.0850 C   0  0  0  0  0  0  0  0  0  0  0  0
    6.3900   -0.4920   21.7980 C   0  0  1  0  0  0  0  0  0  0  0  0
    7.5000    0.4000   21.7670 C   0  0  0  0  0  0  0  0  0  0  0  0
    8.1160    1.3970   22.1610 O   0  0  0  0  0  0  0  0  0  0  0  0
    6.6800    0.8910   22.7770 N   0  0  0  0  0  0  0  0  0  0  0  0
    6.8560    0.6960   24.0990 C   0  0  0  0  0  0  0  0  0  0  0  0
    8.0980    0.5300   24.7560 C   0  0  0  0  0  0  0  0  0  0  0  0
    7.1700    0.4380   25.7820 C   0  0  0  0  0  0  0  0  0  0  0  0
    8.6770    0.2950   26.1260 C   0  0  0  0  0  0  0  0  0  0  0  0
    7.4980    0.2640   26.7940 C   0  0  0  0  0  0  0  0  0  0  0  0
    6.1200    0.3730   26.5950 C   0  0  0  0  0  0  0  0  0  0  0  0
    5.6290    0.6210   25.1120 C   0  0  0  0  0  0  0  0  0  0  0  0
    4.1340    0.7630   24.7520 C   0  0  0  0  0  0  0  0  0  0  0  0
    3.5060   -0.2580   25.0930 O   0  0  0  0  0  0  0  0  0  0  0  0
    5.5280   -0.3030   20.5080 C   0  0  0  0  0  0  0  0  0  0  0  0
    4.1060    0.4450   20.7950 C   0  0  0  0  0  0  0  0  0  0  0  0
    5.1220    0.0180   21.2140 N   0  0  0  0  0  0  0  0  0  0  0  0
    4.7640   -0.0510   19.7280 C   0  0  0  0  0  0  0  0  0  0  0  0
    5.2330   -0.5010   18.4070 C   0  0  0  0  0  0  0  0  0  0  0  0
    6.1120   -0.7760   19.3960 C   0  0  0  0  0  0  0  0  0  0  0  0
    7.4470   -1.4650   19.2120 C   0  0  0  0  0  0  0  0  0  0  0  0
  1  2  1  0
  2  3  1  0
  3  4  2  0
  3  5  2  0
  3  6  1  0
  6  7  1  0
  7  8  2  0
  8  9  1  0
  9 10  2  0
 10 11  1  0
 11 12  1  0
 11 13  1  0
 11 14  1  0
 10 15  1  0
  7 16  1  0
 15 16  2  0
  6 17  1  0
 17 18  1  6
 18 19  2  0
 18 20  1  0
 20 21  1  0
 21 22  2  0
 22 23  1  0
 22 24  1  0
 24 25  2  0
 25 26  1  0
 21 27  1  0
 26 27  2  0
 27 28  1  0
 28 29  1  0
 17 30  1  0
 30 31  2  0
 31 32  1  0
 32 33  2  0
 33 34  1  0
 30 35  1  0
 34 35  2  0
 35 36  1  0
M  END
