DAR-DIA-2b784ede-54-vinylsulfonamide
     RDKit          3D

 42 45  0  0  0  0  0  0  0  0999 V2000
    6.3570   -5.0260   20.2020 C   0  0  0  0  0  0  0  0  0  0  0  0
    6.9840   -3.9090   21.0150 C   0  0  0  0  0  0  0  0  0  0  0  0
    5.7370   -2.6930   20.8640 S   0  0  0  0  0  0  0  0  0  0  0  0
    4.6680   -3.1770   21.7210 O   0  0  0  0  0  0  0  0  0  0  0  0
    5.4990   -2.5430   19.4460 O   0  0  0  0  0  0  0  0  0  0  0  0
    6.4760   -1.2830   21.4520 N   0  0  0  0  0  0  0  0  0  0  0  0
    7.0890   -1.3160   22.7900 C   0  0  0  0  0  0  0  0  0  0  0  0
    8.4630   -0.8300   22.3140 C   0  0  0  0  0  0  0  0  0  0  0  0
    9.0740   -0.9060   23.9430 C   0  0  0  0  0  0  0  0  0  0  0  0
   10.1450   -0.4130   23.0680 C   0  0  0  0  0  0  0  0  0  0  0  0
   11.6060    0.0660   23.0970 C   0  0  0  0  0  0  0  0  0  0  0  0
   11.7480    1.5370   22.7640 C   0  0  0  0  0  0  0  0  0  0  0  0
   12.6510   -0.8030   22.3470 C   0  0  0  0  0  0  0  0  0  0  0  0
   12.1400    0.1630   24.4760 C   0  0  0  0  0  0  0  0  0  0  0  0
    9.1360   -0.6300   22.3700 C   0  0  0  0  0  0  0  0  0  0  0  0
    8.1580   -1.0960   23.4230 C   0  0  0  0  0  0  0  0  0  0  0  0
    8.2800   -1.2690   24.8100 C   0  0  0  0  0  0  0  0  0  0  0  0
    8.8550   -0.0020   25.4410 C   0  0  0  0  0  0  0  0  0  0  0  0
    9.0400    0.0390   26.8920 C   0  0  0  0  0  0  0  0  0  0  0  0
    8.6230   -1.2050   27.5690 C   0  0  0  0  0  0  0  0  0  0  0  0
    8.1090   -2.2920   26.8220 C   0  0  0  0  0  0  0  0  0  0  0  0
    7.8570   -2.5250   25.4100 C   0  0  0  0  0  0  0  0  0  0  0  0
    6.3310    0.0330   20.6570 C   0  0  1  0  0  0  0  0  0  0  0  0
    6.8600    1.3830   21.3530 C   0  0  0  0  0  0  0  0  0  0  0  0
    7.9330    1.9470   21.0360 O   0  0  0  0  0  0  0  0  0  0  0  0
    6.0060    1.9320   22.3390 N   0  0  0  0  0  0  0  0  0  0  0  0
    5.0670    1.1120   23.1050 C   0  0  0  0  0  0  0  0  0  0  0  0
    3.5990    1.4730   22.9090 C   0  0  0  0  0  0  0  0  0  0  0  0
    3.1460    2.1270   21.7410 C   0  0  0  0  0  0  0  0  0  0  0  0
    3.5280    1.0570   21.0680 C   0  0  0  0  0  0  0  0  0  0  0  0
    3.1780    1.4850   19.8480 C   0  0  0  0  0  0  0  0  0  0  0  0
    2.6070    2.7920   19.9420 C   0  0  0  0  0  0  0  0  0  0  0  0
    2.4340    3.5560   21.1940 C   0  0  0  0  0  0  0  0  0  0  0  0
    1.8730    4.7690   21.0850 F   0  0  0  0  0  0  0  0  0  0  0  0
    2.8070    3.1350   22.5310 C   0  0  0  0  0  0  0  0  0  0  0  0
    6.4700   -0.0280   19.1010 C   0  0  0  0  0  0  0  0  0  0  0  0
    7.2190   -0.8650   18.8200 C   0  0  0  0  0  0  0  0  0  0  0  0
    7.6230   -1.3680   19.7690 N   0  0  0  0  0  0  0  0  0  0  0  0
    6.7110   -0.3620   20.5210 C   0  0  0  0  0  0  0  0  0  0  0  0
    5.6330    0.8750   20.2280 C   0  0  0  0  0  0  0  0  0  0  0  0
    5.7630    0.7950   18.7430 C   0  0  0  0  0  0  0  0  0  0  0  0
    5.2750    1.4030   17.6120 C   0  0  0  0  0  0  0  0  0  0  0  0
  1  2  1  0
  2  3  1  0
  3  4  2  0
  3  5  2  0
  3  6  1  0
  6  7  1  0
  7  8  2  0
  8  9  1  0
  9 10  2  0
 10 11  1  0
 11 12  1  0
 11 13  1  0
 11 14  1  0
 10 15  1  0
  7 16  1  0
 15 16  2  0
 16 17  1  0
 17 18  2  0
 18 19  1  0
 19 20  2  0
 20 21  1  0
 17 22  1  0
 21 22  2  0
  6 23  1  0
 23 24  1  1
 24 25  2  0
 24 26  1  0
 26 27  1  0
 27 28  1  0
 28 29  1  0
 29 30  2  0
 30 31  1  0
 31 32  2  0
 32 33  1  0
 33 34  1  0
 29 35  1  0
 33 35  2  0
 23 36  1  0
 36 37  2  0
 37 38  1  0
 38 39  2  0
 39 40  1  0
 36 41  1  0
 40 41  2  0
 41 42  1  0
M  END
