DAR-DIA-2b784ede-36-chloroacetamide
     RDKit          3D

 34 36  0  0  0  0  0  0  0  0999 V2000
    7.2170   -3.7240   19.6680 C   0  0  0  0  0  0  0  0  0  0  0  0
    5.8820   -3.3170   20.1290 C   0  0  0  0  0  0  0  0  0  0  0  0
    4.9000   -3.7610   19.5120 O   0  0  0  0  0  0  0  0  0  0  0  0
    5.9680   -2.5030   21.3180 N   0  0  0  0  0  0  0  0  0  0  0  0
    7.2870   -2.6710   21.7360 C   0  0  0  0  0  0  0  0  0  0  0  0
    7.5750   -2.7760   22.9960 C   0  0  0  0  0  0  0  0  0  0  0  0
    8.9170   -2.8640   22.9720 C   0  0  0  0  0  0  0  0  0  0  0  0
    9.7100   -2.9560   24.1230 C   0  0  0  0  0  0  0  0  0  0  0  0
    9.3470   -1.9580   25.1420 C   0  0  0  0  0  0  0  0  0  0  0  0
   11.0130   -2.9970   23.6730 C   0  0  0  0  0  0  0  0  0  0  0  0
    9.4510   -4.2400   24.8820 C   0  0  0  0  0  0  0  0  0  0  0  0
    9.2020   -5.3870   25.6220 N   0  0  0  0  0  0  0  0  0  0  0  0
    9.4630   -2.8540   21.8540 O   0  0  0  0  0  0  0  0  0  0  0  0
    8.4700   -2.7160   20.8940 N   0  0  0  0  0  0  0  0  0  0  0  0
    5.8530   -1.1050   21.4460 C   0  0  1  0  0  0  0  0  0  0  0  0
    7.2890   -0.8450   22.1570 C   0  0  0  0  0  0  0  0  0  0  0  0
    7.2560   -1.0950   23.5070 O   0  0  0  0  0  0  0  0  0  0  0  0
    8.4970   -0.3640   21.5830 N   0  0  0  0  0  0  0  0  0  0  0  0
    9.8920   -0.7650   21.7900 C   0  0  0  0  0  0  0  0  0  0  0  0
   11.4290   -1.0260   22.2240 C   0  0  0  0  0  0  0  0  0  0  0  0
   12.2090   -1.9490   21.5240 C   0  0  0  0  0  0  0  0  0  0  0  0
   12.2270   -0.4820   23.2170 C   0  0  0  0  0  0  0  0  0  0  0  0
   11.7450    0.4280   24.0520 C   0  0  0  0  0  0  0  0  0  0  0  0
   10.4560    0.7650   23.8670 C   0  0  0  0  0  0  0  0  0  0  0  0
    9.6500    0.2210   22.8530 C   0  0  0  0  0  0  0  0  0  0  0  0
    8.3950    0.7440   22.9040 C   0  0  0  0  0  0  0  0  0  0  0  0
    8.3140    1.8530   22.0480 C   0  0  0  0  0  0  0  0  0  0  0  0
    5.7200   -0.3690   20.2710 C   0  0  0  0  0  0  0  0  0  0  0  0
    5.5540    1.1680   20.2700 C   0  0  0  0  0  0  0  0  0  0  0  0
    5.4050    1.9580   19.1740 N   0  0  0  0  0  0  0  0  0  0  0  0
    5.3990    1.3510   17.9990 C   0  0  0  0  0  0  0  0  0  0  0  0
    5.5550   -0.1240   17.9330 C   0  0  0  0  0  0  0  0  0  0  0  0
    5.7190   -0.9900   19.0810 C   0  0  0  0  0  0  0  0  0  0  0  0
    5.8500   -2.3260   18.8110 C   0  0  0  0  0  0  0  0  0  0  0  0
  1  2  1  0
  2  3  2  0
  2  4  1  0
  4  5  1  0
  5  6  1  0
  6  7  2  0
  7  8  1  0
  8  9  1  0
  8 10  1  0
  8 11  1  0
 11 12  3  0
  7 13  1  0
  5 14  2  0
 13 14  1  0
  4 15  1  0
 15 16  1  6
 16 17  2  0
 16 18  1  0
 18 19  1  0
 19 20  2  0
 20 21  1  0
 20 22  1  0
 22 23  2  0
 23 24  1  0
 19 25  1  0
 24 25  2  0
 25 26  1  0
 26 27  1  0
 15 28  1  0
 28 29  2  0
 29 30  1  0
 30 31  2  0
 31 32  1  0
 28 33  1  0
 32 33  2  0
 33 34  1  0
M  END
