DAR-DIA-43a5904b-16
     RDKit          3D

 30 33  0  0  0  0  0  0  0  0999 V2000
    8.8210    1.3820   21.1060 O   0  0  0  0  0  0  0  0  0  0  0  0
    8.9960    1.8970   22.2010 C   0  0  0  0  0  0  0  0  0  0  0  0
    9.3090    3.2950   22.2940 N   0  0  0  0  0  0  0  0  0  0  0  0
    9.1970    4.1410   23.4810 C   0  0  0  0  0  0  0  0  0  0  0  0
   10.6090    4.5870   23.8190 C   0  0  0  0  0  0  0  0  0  0  0  0
   11.3200    5.1860   22.7060 N   0  0  0  0  0  0  0  0  0  0  0  0
   12.1250    6.3030   23.1200 C   0  0  0  0  0  0  0  0  0  0  0  0
   13.2010    6.4420   22.1220 C   0  0  0  0  0  0  0  0  0  0  0  0
   14.1020    5.3610   22.1720 O   0  0  0  0  0  0  0  0  0  0  0  0
   13.3910    4.1920   22.5350 C   0  0  0  0  0  0  0  0  0  0  0  0
   12.0840    4.2380   22.0280 C   0  0  0  0  0  0  0  0  0  0  0  0
    8.8590    1.1790   23.5560 C   0  0  1  0  0  0  0  0  0  0  0  0
    7.4220    0.8420   23.8370 C   0  0  0  0  0  0  0  0  0  0  0  0
    7.2940   -0.6600   23.6730 C   0  0  0  0  0  0  0  0  0  0  0  0
    6.1190   -1.3050   23.5650 C   0  0  0  0  0  0  0  0  0  0  0  0
    6.0880   -2.6380   23.1470 C   0  0  0  0  0  0  0  0  0  0  0  0
    7.1070   -3.5560   23.4260 C   0  0  0  0  0  0  0  0  0  0  0  0
    7.0000   -4.8680   22.9760 C   0  0  0  0  0  0  0  0  0  0  0  0
    5.8440   -5.2050   22.2490 C   0  0  0  0  0  0  0  0  0  0  0  0
    4.8320   -4.3590   21.9540 N   0  0  0  0  0  0  0  0  0  0  0  0
    4.9910   -3.0990   22.4170 C   0  0  0  0  0  0  0  0  0  0  0  0
    8.5880   -1.1510   23.6650 C   0  0  0  0  0  0  0  0  0  0  0  0
    9.6030   -0.1930   23.8230 C   0  0  1  0  0  0  0  0  0  0  0  0
   10.8010   -0.4380   23.1880 C   0  0  0  0  0  0  0  0  0  0  0  0
   11.1060   -1.7150   22.7200 C   0  0  0  0  0  0  0  0  0  0  0  0
   12.3050   -1.9430   22.0800 C   0  0  0  0  0  0  0  0  0  0  0  0
   13.1870   -0.9230   21.8990 C   0  0  0  0  0  0  0  0  0  0  0  0
   12.8950    0.3500   22.3580 C   0  0  0  0  0  0  0  0  0  0  0  0
   13.9740    1.6280   22.1010 Cl  0  0  0  0  0  0  0  0  0  0  0  0
   11.7140    0.5990   23.0070 C   0  0  0  0  0  0  0  0  0  0  0  0
  1  2  2  0
  2  3  1  0
  3  4  1  0
  4  5  1  0
  5  6  1  0
  6  7  1  0
  7  8  1  0
  8  9  1  0
  9 10  1  0
  6 11  1  0
 10 11  1  0
 12  2  1  6
 12 13  1  0
 13 14  1  0
 14 15  1  0
 15 16  1  0
 16 17  2  0
 17 18  1  0
 18 19  2  0
 19 20  1  0
 16 21  1  0
 20 21  2  0
 14 22  2  0
 12 23  1  0
 22 23  1  0
 23 24  1  6
 24 25  2  0
 25 26  1  0
 26 27  2  0
 27 28  1  0
 28 29  1  0
 24 30  1  0
 28 30  2  0
M  END
