DAR-DIA-caba39e3-3-nitrile
     RDKit          3D

 23 26  0  0  0  0  0  0  0  0999 V2000
    6.8680   -3.4600   19.7620 C   0  0  0  0  0  0  0  0  0  0  0  0
    5.8960   -3.2200   18.9780 N   0  0  0  0  0  0  0  0  0  0  0  0
    6.9680   -2.9710   21.0730 N   0  0  0  0  0  0  0  0  0  0  0  0
    6.4150   -3.6470   22.2020 C   0  0  0  0  0  0  0  0  0  0  0  0
    7.2960   -3.9910   23.2440 C   0  0  0  0  0  0  0  0  0  0  0  0
    6.9080   -4.8240   24.3180 C   0  0  0  0  0  0  0  0  0  0  0  0
    7.8030   -5.1700   25.3470 C   0  0  0  0  0  0  0  0  0  0  0  0
    9.2010   -4.6430   25.3060 C   0  0  0  0  0  0  0  0  0  0  0  0
    9.5150   -3.8270   24.2380 C   0  0  0  0  0  0  0  0  0  0  0  0
    8.6000   -3.5090   23.2350 C   0  0  0  0  0  0  0  0  0  0  0  0
    9.0580   -2.6830   22.2200 C   0  0  2  0  0  0  0  0  0  0  0  0
    9.8890   -1.5860   22.8110 C   0  0  0  0  0  0  0  0  0  0  0  0
   11.4000   -1.4560   22.5540 C   0  0  0  0  0  0  0  0  0  0  0  0
   12.1740   -0.4410   23.0940 C   0  0  0  0  0  0  0  0  0  0  0  0
   13.4500   -0.3880   22.8170 O   0  0  0  0  0  0  0  0  0  0  0  0
   13.5360    0.9890   22.7070 C   0  0  0  0  0  0  0  0  0  0  0  0
   11.5550    0.5160   23.9110 C   0  0  0  0  0  0  0  0  0  0  0  0
   10.2110    0.4230   24.1540 C   0  0  0  0  0  0  0  0  0  0  0  0
    9.3850    1.2150   24.8930 C   0  0  0  0  0  0  0  0  0  0  0  0
    8.1180    0.7580   24.8720 C   0  0  0  0  0  0  0  0  0  0  0  0
    8.0950   -0.3180   24.1260 N   0  0  0  0  0  0  0  0  0  0  0  0
    9.3690   -0.5940   23.6340 C   0  0  0  0  0  0  0  0  0  0  0  0
    7.9060   -2.0160   21.4410 C   0  0  0  0  0  0  0  0  0  0  0  0
  1  2  2  3
  1  3  1  0
  3  4  1  0
  4  5  1  0
  5  6  1  0
  6  7  2  0
  7  8  1  0
  8  9  2  0
  5 10  2  0
  9 10  1  0
 10 11  1  0
 11 12  1  1
 12 13  2  0
 13 14  1  0
 14 15  1  0
 15 16  1  0
 14 17  2  0
 17 18  1  0
 18 19  1  0
 19 20  2  0
 20 21  1  0
 12 22  1  0
 18 22  2  0
 21 22  1  0
  3 23  1  0
 11 23  1  0
M  END
