DAR-DIA-2b784ede-39-acrylamide
     RDKit          3D

 36 38  0  0  0  0  0  0  0  0999 V2000
    6.2450   -4.7350   20.1030 C   0  0  0  0  0  0  0  0  0  0  0  0
    6.8620   -3.3920   20.3960 C   0  0  0  0  0  0  0  0  0  0  0  0
    6.2970   -3.1300   21.7210 C   0  0  0  0  0  0  0  0  0  0  0  0
    4.9490   -3.5130   21.7180 O   0  0  0  0  0  0  0  0  0  0  0  0
    7.3190   -2.5620   22.7290 N   0  0  0  0  0  0  0  0  0  0  0  0
    8.8470   -2.7730   22.4810 C   0  0  0  0  0  0  0  0  0  0  0  0
    9.6250   -3.3940   23.6500 C   0  0  0  0  0  0  0  0  0  0  0  0
    8.3260   -3.3710   24.2200 C   0  0  0  0  0  0  0  0  0  0  0  0
    7.1640   -2.8290   23.4360 C   0  0  0  0  0  0  0  0  0  0  0  0
    5.7870   -2.8280   24.0580 C   0  0  0  0  0  0  0  0  0  0  0  0
    5.3050   -4.1210   23.9660 C   0  0  0  0  0  0  0  0  0  0  0  0
    5.7950   -2.4840   25.5590 C   0  0  0  0  0  0  0  0  0  0  0  0
    4.8060   -1.8520   23.3720 C   0  0  0  0  0  0  0  0  0  0  0  0
    7.7650   -2.4060   22.1060 C   0  0  0  0  0  0  0  0  0  0  0  0
    8.9880   -2.3140   21.2910 C   0  0  0  0  0  0  0  0  0  0  0  0
    7.4360   -1.1050   23.2220 C   0  0  2  0  0  0  0  0  0  0  0  0
    7.4180   -0.0880   22.0940 C   0  0  0  0  0  0  0  0  0  0  0  0
    8.1660    0.8920   22.0480 O   0  0  0  0  0  0  0  0  0  0  0  0
    6.4870   -0.4420   21.1800 N   0  0  0  0  0  0  0  0  0  0  0  0
    5.9330    0.3980   20.1650 C   0  0  0  0  0  0  0  0  0  0  0  0
    6.3000    0.1680   18.8570 C   0  0  0  0  0  0  0  0  0  0  0  0
    7.1950   -0.8580   18.5990 C   0  0  0  0  0  0  0  0  0  0  0  0
    6.4250   -2.1640   18.3190 C   0  0  0  0  0  0  0  0  0  0  0  0
    5.7800    0.9560   17.8280 C   0  0  0  0  0  0  0  0  0  0  0  0
    4.8110    2.0740   18.1170 C   0  0  0  0  0  0  0  0  0  0  0  0
    4.4970    2.2290   19.5630 C   0  0  0  0  0  0  0  0  0  0  0  0
    5.0360    1.4250   20.5620 C   0  0  0  0  0  0  0  0  0  0  0  0
    4.6820    1.6590   21.8920 C   0  0  0  0  0  0  0  0  0  0  0  0
    3.5030    2.4620   21.8940 O   0  0  0  0  0  0  0  0  0  0  0  0
    8.7510   -0.8570   23.9460 C   0  0  0  0  0  0  0  0  0  0  0  0
    9.9620   -0.9070   23.2430 C   0  0  0  0  0  0  0  0  0  0  0  0
   11.2080   -0.7220   23.7190 N   0  0  0  0  0  0  0  0  0  0  0  0
   11.2540   -0.4600   25.0200 C   0  0  0  0  0  0  0  0  0  0  0  0
   10.1070   -0.3810   25.8040 C   0  0  0  0  0  0  0  0  0  0  0  0
    8.8320   -0.5730   25.3070 C   0  0  0  0  0  0  0  0  0  0  0  0
    7.7500   -0.4720   26.1810 C   0  0  0  0  0  0  0  0  0  0  0  0
  1  2  1  0
  2  3  1  0
  3  4  2  0
  3  5  1  0
  5  6  1  0
  6  7  2  0
  7  8  1  0
  8  9  2  0
  9 10  1  0
 10 11  1  0
 10 12  1  0
 10 13  1  0
  9 14  1  0
  6 15  1  0
 14 15  2  0
  5 16  1  0
 16 17  1  6
 17 18  2  0
 17 19  1  0
 19 20  1  0
 20 21  2  0
 21 22  1  0
 22 23  1  0
 21 24  1  0
 24 25  2  0
 25 26  1  0
 20 27  1  0
 26 27  2  0
 27 28  1  0
 28 29  1  0
 16 30  1  0
 30 31  2  0
 31 32  1  0
 32 33  2  0
 33 34  1  0
 30 35  1  0
 34 35  2  0
 35 36  1  0
M  END
