DAR-DIA-23aa0b97-17-chloroacetamide
     RDKit          3D

 19 20  0  0  0  0  0  0  0  0999 V2000
    7.2480   -2.8390   18.8110 C   0  0  0  0  0  0  0  0  0  0  0  0
    5.9040   -2.3330   19.0960 C   0  0  0  0  0  0  0  0  0  0  0  0
    4.9180   -3.0400   18.8210 O   0  0  0  0  0  0  0  0  0  0  0  0
    6.1780   -1.0510   19.6910 C   0  0  0  0  0  0  0  0  0  0  0  0
    5.5670   -0.1590   18.7200 C   0  0  0  0  0  0  0  0  0  0  0  0
    5.6000    1.2810   18.8690 N   0  0  0  0  0  0  0  0  0  0  0  0
    6.2520    1.8220   20.0030 C   0  0  0  0  0  0  0  0  0  0  0  0
    6.7180    0.8370   20.6990 C   0  0  0  0  0  0  0  0  0  0  0  0
    7.4370    0.5680   21.8400 C   0  0  0  0  0  0  0  0  0  0  0  0
    8.7870    1.2160   21.9740 C   0  0  0  0  0  0  0  0  0  0  0  0
    9.1400    2.0920   21.2050 O   0  0  0  0  0  0  0  0  0  0  0  0
    9.5160    0.7280   23.0220 N   0  0  0  0  0  0  0  0  0  0  0  0
   10.9010    0.5690   23.0760 C   0  0  0  0  0  0  0  0  0  0  0  0
   10.2390   -0.7080   23.1860 C   0  0  0  0  0  0  0  0  0  0  0  0
   10.6160   -2.2000   23.3490 C   0  0  0  0  0  0  0  0  0  0  0  0
   11.9820   -2.0730   23.3760 C   0  0  0  0  0  0  0  0  0  0  0  0
   12.7390   -1.0310   23.2930 N   0  0  0  0  0  0  0  0  0  0  0  0
   12.2220    0.1460   23.1560 C   0  0  0  0  0  0  0  0  0  0  0  0
    6.1960    0.1440   19.8120 C   0  0  0  0  0  0  0  0  0  0  0  0
  1  2  1  0
  2  3  2  0
  2  4  1  0
  4  5  2  0
  5  6  1  0
  6  7  2  0
  7  8  1  0
  8  9  1  0
  9 10  1  0
 10 11  2  0
 10 12  1  0
 12 13  1  0
 13 14  2  0
 14 15  1  0
 15 16  2  0
 16 17  1  0
 13 18  1  0
 17 18  2  0
  4 19  1  0
  8 19  2  0
M  END
