DAR-DIA-842b4336-20-acrylamide
     RDKit          3D

 22 24  0  0  0  0  0  0  0  0999 V2000
    7.3810   -4.3990   20.7470 C   0  0  0  0  0  0  0  0  0  0  0  0
    5.8680   -4.3340   20.6810 C   0  0  0  0  0  0  0  0  0  0  0  0
    5.3770   -3.0890   19.9810 C   0  0  0  0  0  0  0  0  0  0  0  0
    4.3180   -3.1270   19.3810 O   0  0  0  0  0  0  0  0  0  0  0  0
    6.1600   -1.8050   20.0080 C   0  0  0  0  0  0  0  0  0  0  0  0
    6.8180   -1.0180   18.7830 C   0  0  0  0  0  0  0  0  0  0  0  0
    7.4370    0.1360   19.3970 N   0  0  0  0  0  0  0  0  0  0  0  0
    6.8940   -0.5230   20.3690 C   0  0  0  0  0  0  0  0  0  0  0  0
    7.3560    0.3860   21.2910 N   0  0  0  0  0  0  0  0  0  0  0  0
    8.7270    0.4030   21.3790 C   0  0  0  0  0  0  0  0  0  0  0  0
    9.2680    1.4530   21.0260 O   0  0  0  0  0  0  0  0  0  0  0  0
    9.5660   -0.6520   21.8040 C   0  0  0  0  0  0  0  0  0  0  0  0
   10.4120   -0.5980   23.0400 C   0  0  0  0  0  0  0  0  0  0  0  0
   11.4550   -1.1100   22.2010 C   0  0  0  0  0  0  0  0  0  0  0  0
   12.0250   -1.0030   23.3630 C   0  0  0  0  0  0  0  0  0  0  0  0
   13.3520   -1.2650   23.9410 C   0  0  0  0  0  0  0  0  0  0  0  0
   13.1920   -0.9220   25.1950 C   0  0  0  0  0  0  0  0  0  0  0  0
   12.0300   -0.6910   24.6820 C   0  0  0  0  0  0  0  0  0  0  0  0
   11.2610   -0.2580   25.5330 N   0  0  0  0  0  0  0  0  0  0  0  0
   10.7790   -0.4150   24.2640 C   0  0  0  0  0  0  0  0  0  0  0  0
    9.4610   -0.1510   23.7220 N   0  0  0  0  0  0  0  0  0  0  0  0
    6.4300   -1.0840   21.1990 O   0  0  0  0  0  0  0  0  0  0  0  0
  1  2  1  0
  2  3  1  0
  3  4  2  0
  3  5  1  0
  5  6  2  0
  6  7  1  0
  7  8  2  0
  8  9  1  0
  9 10  1  0
 10 11  2  0
 10 12  1  0
 12 13  1  0
 13 14  2  0
 14 15  1  0
 15 16  2  0
 16 17  1  0
 17 18  2  0
 18 19  1  0
 15 20  1  0
 19 20  2  0
 13 21  1  0
 20 21  1  0
  5 22  1  0
  8 22  1  0
M  END
