DAR-DIA-2b784ede-25-nitrile
     RDKit          3D

 24 26  0  0  0  0  0  0  0  0999 V2000
    7.2010   -2.7650   20.1430 C   0  0  0  0  0  0  0  0  0  0  0  0
    6.5240   -2.3810   19.0470 N   0  0  0  0  0  0  0  0  0  0  0  0
    7.5280   -1.8800   21.4980 N   0  0  0  0  0  0  0  0  0  0  0  0
    6.6440   -1.6090   22.6660 C   0  0  2  0  0  0  0  0  0  0  0  0
    6.7650   -2.5410   23.6280 C   0  0  0  0  0  0  0  0  0  0  0  0
    5.5210   -2.5440   24.2080 C   0  0  0  0  0  0  0  0  0  0  0  0
    4.7050   -3.5250   23.6420 C   0  0  0  0  0  0  0  0  0  0  0  0
    4.5330   -4.5940   24.6330 C   0  0  0  0  0  0  0  0  0  0  0  0
    5.1250   -4.0760   25.8640 C   0  0  0  0  0  0  0  0  0  0  0  0
    5.6630   -2.8440   25.5710 C   0  0  0  0  0  0  0  0  0  0  0  0
    5.0080   -1.2400   23.9900 C   0  0  0  0  0  0  0  0  0  0  0  0
    5.4040   -1.0530   22.6310 N   0  0  0  0  0  0  0  0  0  0  0  0
    8.4010   -0.6710   21.8490 C   0  0  2  0  0  0  0  0  0  0  0  0
    8.0210    0.5820   21.0480 C   0  0  0  0  0  0  0  0  0  0  0  0
    7.3060    0.2340   19.8590 O   0  0  0  0  0  0  0  0  0  0  0  0
    8.3090    1.8550   21.4120 N   0  0  0  0  0  0  0  0  0  0  0  0
    7.2690    2.7070   21.5650 C   0  0  0  0  0  0  0  0  0  0  0  0
    9.7240   -0.8870   22.3700 C   0  0  0  0  0  0  0  0  0  0  0  0
   10.6090    0.1910   22.2550 C   0  0  0  0  0  0  0  0  0  0  0  0
   11.9110    0.2900   22.6010 N   0  0  0  0  0  0  0  0  0  0  0  0
   12.4160   -0.8260   23.1320 C   0  0  0  0  0  0  0  0  0  0  0  0
   11.6380   -1.9670   23.3500 C   0  0  0  0  0  0  0  0  0  0  0  0
   10.2810   -2.0030   22.9830 C   0  0  0  0  0  0  0  0  0  0  0  0
    9.4250   -3.0540   23.1690 C   0  0  0  0  0  0  0  0  0  0  0  0
  1  2  2  3
  1  3  1  0
  4  3  1  6
  4  5  1  0
  6  5  1  0
  6  7  1  0
  7  8  1  0
  8  9  1  0
  6 10  1  0
  9 10  1  0
  6 11  1  0
  4 12  1  0
 11 12  1  0
  3 13  1  0
 13 14  1  6
 14 15  2  0
 14 16  1  0
 16 17  1  0
 13 18  1  0
 18 19  2  0
 19 20  1  0
 20 21  2  0
 21 22  1  0
 18 23  1  0
 22 23  2  0
 23 24  1  0
M  END
