DAR-DIA-2b784ede-51-nitrile
     RDKit          3D

 32 34  0  0  0  0  0  0  0  0999 V2000
    6.6480   -3.2940   19.7220 C   0  0  0  0  0  0  0  0  0  0  0  0
    5.8620   -3.0060   18.7520 N   0  0  0  0  0  0  0  0  0  0  0  0
    6.5550   -2.4940   20.9180 N   0  0  0  0  0  0  0  0  0  0  0  0
    5.7280   -1.3590   20.9720 C   0  0  0  0  0  0  0  0  0  0  0  0
    4.8400   -0.1010   20.8070 C   0  0  0  0  0  0  0  0  0  0  0  0
    4.5920    0.4700   19.5230 C   0  0  0  0  0  0  0  0  0  0  0  0
    3.7760    1.7370   19.4790 C   0  0  0  0  0  0  0  0  0  0  0  0
    3.8090    2.7740   18.5490 C   0  0  0  0  0  0  0  0  0  0  0  0
    4.4990    3.0160   19.8260 C   0  0  0  0  0  0  0  0  0  0  0  0
    2.4410    1.9430   19.8930 C   0  0  0  0  0  0  0  0  0  0  0  0
    5.1820   -0.2790   18.6770 N   0  0  0  0  0  0  0  0  0  0  0  0
    5.7890   -1.2540   19.5100 N   0  0  0  0  0  0  0  0  0  0  0  0
    7.5980   -1.7020   21.5010 C   0  0  1  0  0  0  0  0  0  0  0  0
    8.9470   -2.0100   21.7350 C   0  0  0  0  0  0  0  0  0  0  0  0
    9.3130   -0.8710   21.4680 O   0  0  0  0  0  0  0  0  0  0  0  0
    9.9240   -2.5480   22.0510 N   0  0  0  0  0  0  0  0  0  0  0  0
   10.6600   -1.9420   23.0090 C   0  0  0  0  0  0  0  0  0  0  0  0
    9.9820   -1.4000   24.1120 C   0  0  0  0  0  0  0  0  0  0  0  0
    8.6100   -1.5590   24.1000 C   0  0  0  0  0  0  0  0  0  0  0  0
   10.6760   -0.7510   25.1420 C   0  0  0  0  0  0  0  0  0  0  0  0
   12.0510   -0.5980   25.1770 C   0  0  0  0  0  0  0  0  0  0  0  0
   12.7240   -1.0970   24.1640 C   0  0  0  0  0  0  0  0  0  0  0  0
   12.0540   -1.7150   23.1710 C   0  0  0  0  0  0  0  0  0  0  0  0
   13.0950   -2.1520   22.2100 C   0  0  0  0  0  0  0  0  0  0  0  0
   13.3550   -0.6510   22.1140 C   0  0  0  0  0  0  0  0  0  0  0  0
   12.5440   -2.5640   20.8980 C   0  0  0  0  0  0  0  0  0  0  0  0
    7.3940   -0.7030   20.4540 C   0  0  0  0  0  0  0  0  0  0  0  0
    7.5110   -1.2930   19.0810 C   0  0  0  0  0  0  0  0  0  0  0  0
    7.2680   -0.4130   17.9670 C   0  0  0  0  0  0  0  0  0  0  0  0
    6.9350    0.9820   18.1380 C   0  0  0  0  0  0  0  0  0  0  0  0
    6.8420    1.5510   19.3760 N   0  0  0  0  0  0  0  0  0  0  0  0
    7.0520    0.7960   20.4900 C   0  0  0  0  0  0  0  0  0  0  0  0
  1  2  2  3
  1  3  1  0
  3  4  1  0
  4  5  2  0
  5  6  1  0
  6  7  1  0
  7  8  1  0
  7  9  1  0
  7 10  1  0
  6 11  2  0
  4 12  1  0
 11 12  1  0
  3 13  1  0
 13 14  1  6
 14 15  2  0
 14 16  1  0
 16 17  1  0
 17 18  2  0
 18 19  1  0
 18 20  1  0
 20 21  2  0
 21 22  1  0
 17 23  1  0
 22 23  2  0
 23 24  1  0
 24 25  1  0
 24 26  1  0
 13 27  1  0
 27 28  2  0
 28 29  1  0
 29 30  2  0
 30 31  1  0
 27 32  1  0
 31 32  2  0
M  END
