DAR-DIA-2b784ede-3-nitrile
     RDKit          3D

 24 25  0  0  0  0  0  0  0  0999 V2000
    6.5370   -4.5200   20.2030 C   0  0  0  0  0  0  0  0  0  0  0  0
    5.2890   -4.6760   19.9750 N   0  0  0  0  0  0  0  0  0  0  0  0
    7.0320   -3.2850   20.8810 N   0  0  0  0  0  0  0  0  0  0  0  0
    7.9160   -2.5350   20.1350 C   0  0  0  0  0  0  0  0  0  0  0  0
    8.7430   -2.9170   21.1570 C   0  0  0  0  0  0  0  0  0  0  0  0
    8.0540   -3.6430   22.1280 C   0  0  0  0  0  0  0  0  0  0  0  0
    6.6440   -3.8800   21.9420 C   0  0  0  0  0  0  0  0  0  0  0  0
    5.9470   -4.6930   23.0210 C   0  0  0  0  0  0  0  0  0  0  0  0
    5.9570   -4.2440   24.3520 C   0  0  0  0  0  0  0  0  0  0  0  0
    5.9500   -3.8200   25.6410 N   0  0  0  0  0  0  0  0  0  0  0  0
    5.9240   -3.3620   20.7380 C   0  0  0  0  0  0  0  0  0  0  0  0
    6.6320   -2.6210   19.7250 C   0  0  0  0  0  0  0  0  0  0  0  0
    6.1140   -2.1900   21.4610 C   0  0  2  0  0  0  0  0  0  0  0  0
    4.9880   -2.6570   22.4680 C   0  0  0  0  0  0  0  0  0  0  0  0
    4.1100   -3.4970   22.2400 O   0  0  0  0  0  0  0  0  0  0  0  0
    5.0640   -2.0240   23.7050 N   0  0  0  0  0  0  0  0  0  0  0  0
    3.8820   -1.8470   24.5060 C   0  0  0  0  0  0  0  0  0  0  0  0
    5.7850   -1.0050   20.4910 C   0  0  0  0  0  0  0  0  0  0  0  0
    6.1080   -1.1080   19.1000 C   0  0  0  0  0  0  0  0  0  0  0  0
    5.8990   -0.1820   18.1220 N   0  0  0  0  0  0  0  0  0  0  0  0
    5.3150    0.9540   18.5240 C   0  0  0  0  0  0  0  0  0  0  0  0
    4.9520    1.1870   19.8410 C   0  0  0  0  0  0  0  0  0  0  0  0
    5.1830    0.2160   20.8450 C   0  0  0  0  0  0  0  0  0  0  0  0
    4.7540    0.5800   22.2450 C   0  0  0  0  0  0  0  0  0  0  0  0
  1  2  2  3
  1  3  1  0
  3  4  1  0
  4  5  2  0
  5  6  1  0
  6  7  2  0
  7  8  1  0
  8  9  1  0
  9 10  3  0
  7 11  1  0
  4 12  1  0
 11 12  2  0
  3 13  1  0
 13 14  1  6
 14 15  2  0
 14 16  1  0
 16 17  1  0
 13 18  1  0
 18 19  2  0
 19 20  1  0
 20 21  2  0
 21 22  1  0
 18 23  1  0
 22 23  2  0
 23 24  1  0
M  END
