DAR-DIA-fb20be43-2-acrylamide
     RDKit          3D

 22 24  0  0  0  0  0  0  0  0999 V2000
    7.4150   -3.0330   18.4470 C   0  0  0  0  0  0  0  0  0  0  0  0
    6.8400   -1.9210   19.2640 C   0  0  0  0  0  0  0  0  0  0  0  0
    5.9320   -2.4910   20.3260 C   0  0  0  0  0  0  0  0  0  0  0  0
    4.9510   -3.2610   20.1160 O   0  0  0  0  0  0  0  0  0  0  0  0
    6.3030   -2.1060   21.5810 N   0  0  0  0  0  0  0  0  0  0  0  0
    6.4590   -3.0750   22.6710 C   0  0  0  0  0  0  0  0  0  0  0  0
    7.8640   -3.0870   23.2700 C   0  0  0  0  0  0  0  0  0  0  0  0
    8.6260   -2.0240   23.3370 N   0  0  0  0  0  0  0  0  0  0  0  0
    9.8650   -2.4440   23.7190 C   0  0  0  0  0  0  0  0  0  0  0  0
   10.7580   -1.4390   23.4270 C   0  0  0  0  0  0  0  0  0  0  0  0
   11.8740   -1.7880   22.7100 C   0  0  0  0  0  0  0  0  0  0  0  0
   12.8030   -0.8530   22.3640 C   0  0  0  0  0  0  0  0  0  0  0  0
   13.8170   -1.2780   21.6690 F   0  0  0  0  0  0  0  0  0  0  0  0
   12.6620    0.4800   22.7210 C   0  0  0  0  0  0  0  0  0  0  0  0
   11.5390    0.8830   23.4340 C   0  0  0  0  0  0  0  0  0  0  0  0
   11.3960    2.2460   23.7480 C   0  0  0  0  0  0  0  0  0  0  0  0
   10.2870    2.7120   24.4520 C   0  0  0  0  0  0  0  0  0  0  0  0
    9.2700    1.7060   24.8760 C   0  0  0  0  0  0  0  0  0  0  0  0
    9.4340    0.3550   24.5500 C   0  0  0  0  0  0  0  0  0  0  0  0
   10.5500   -0.0760   23.8220 C   0  0  0  0  0  0  0  0  0  0  0  0
    8.6250   -1.3520   22.0460 C   0  0  0  0  0  0  0  0  0  0  0  0
    7.2350   -0.9440   21.5970 C   0  0  0  0  0  0  0  0  0  0  0  0
  1  2  1  0
  2  3  1  0
  3  4  2  0
  3  5  1  0
  5  6  1  0
  6  7  1  0
  7  8  1  0
  8  9  1  0
  9 10  1  0
 10 11  2  0
 11 12  1  0
 12 13  1  0
 12 14  2  0
 14 15  1  0
 15 16  1  0
 16 17  2  0
 17 18  1  0
 18 19  2  0
 10 20  1  0
 15 20  2  0
 19 20  1  0
  8 21  1  0
  5 22  1  0
 21 22  1  0
M  END
