DAR-DIA-2b784ede-53-nitrile
     RDKit          3D

 32 34  0  0  0  0  0  0  0  0999 V2000
    6.8750   -3.3580   19.6390 C   0  0  0  0  0  0  0  0  0  0  0  0
    6.0400   -3.1040   18.6790 N   0  0  0  0  0  0  0  0  0  0  0  0
    6.4850   -3.0870   21.0410 N   0  0  0  0  0  0  0  0  0  0  0  0
    6.6140   -4.2440   21.9290 C   0  0  0  0  0  0  0  0  0  0  0  0
    5.5430   -4.4340   20.9490 C   0  0  0  0  0  0  0  0  0  0  0  0
    5.3880   -3.1560   20.1550 C   0  0  0  0  0  0  0  0  0  0  0  0
    6.3620   -1.9690   20.5180 C   0  0  0  0  0  0  0  0  0  0  0  0
    6.2940   -0.6170   19.7440 C   0  0  0  0  0  0  0  0  0  0  0  0
    7.1690   -0.6320   18.5260 C   0  0  0  0  0  0  0  0  0  0  0  0
    4.9150   -0.3260   19.1190 C   0  0  0  0  0  0  0  0  0  0  0  0
    7.3670   -2.1220   21.5850 N   0  0  0  0  0  0  0  0  0  0  0  0
    7.4770   -3.3040   22.3060 C   0  0  0  0  0  0  0  0  0  0  0  0
    6.8500   -1.7930   21.8440 C   0  0  1  0  0  0  0  0  0  0  0  0
    8.1890   -1.2850   21.6920 C   0  0  0  0  0  0  0  0  0  0  0  0
    8.4200   -0.4310   20.8370 O   0  0  0  0  0  0  0  0  0  0  0  0
    9.1650   -1.7630   22.5810 N   0  0  0  0  0  0  0  0  0  0  0  0
   10.5830   -1.7040   22.4770 C   0  0  0  0  0  0  0  0  0  0  0  0
   12.0200   -1.5780   22.6220 C   0  0  0  0  0  0  0  0  0  0  0  0
   12.7240   -1.8750   21.2970 C   0  0  0  0  0  0  0  0  0  0  0  0
   13.1670   -3.2680   20.9640 C   0  0  0  0  0  0  0  0  0  0  0  0
   12.9160   -1.2450   23.6520 C   0  0  0  0  0  0  0  0  0  0  0  0
   12.5020   -0.9240   24.8870 C   0  0  0  0  0  0  0  0  0  0  0  0
   11.1760   -0.9460   25.0410 C   0  0  0  0  0  0  0  0  0  0  0  0
   10.2530   -1.3300   23.8630 C   0  0  0  0  0  0  0  0  0  0  0  0
    8.7700   -1.2560   24.3880 C   0  0  0  0  0  0  0  0  0  0  0  0
    8.4840   -0.6560   25.4260 O   0  0  0  0  0  0  0  0  0  0  0  0
    5.8050   -0.6440   21.9430 C   0  0  0  0  0  0  0  0  0  0  0  0
    4.6690   -0.3400   21.0220 C   0  0  0  0  0  0  0  0  0  0  0  0
    3.8460    0.7400   21.2550 C   0  0  0  0  0  0  0  0  0  0  0  0
    4.0340    1.5740   22.3430 C   0  0  0  0  0  0  0  0  0  0  0  0
    5.0450    1.3500   23.2230 N   0  0  0  0  0  0  0  0  0  0  0  0
    5.8880    0.2780   23.0130 C   0  0  0  0  0  0  0  0  0  0  0  0
  1  2  2  3
  1  3  1  0
  3  4  1  0
  4  5  2  0
  5  6  1  0
  6  7  2  0
  7  8  1  0
  8  9  1  0
  8 10  1  0
  7 11  1  0
  4 12  1  0
 11 12  2  0
  3 13  1  0
 13 14  1  6
 14 15  2  0
 14 16  1  0
 16 17  1  0
 17 18  2  0
 18 19  1  0
 19 20  1  0
 18 21  1  0
 21 22  2  0
 22 23  1  0
 17 24  1  0
 23 24  2  0
 24 25  1  0
 25 26  1  0
 13 27  1  0
 27 28  2  0
 28 29  1  0
 29 30  2  0
 30 31  1  0
 27 32  1  0
 31 32  2  0
M  END
