DAR-DIA-2b784ede-46-nitrile
     RDKit          3D

 31 34  0  0  0  0  0  0  0  0999 V2000
    6.8260   -4.2950   20.3350 C   0  0  0  0  0  0  0  0  0  0  0  0
    5.9670   -3.6820   19.5970 N   0  0  0  0  0  0  0  0  0  0  0  0
    6.9510   -4.0830   21.7120 N   0  0  0  0  0  0  0  0  0  0  0  0
    7.9250   -3.2310   22.1660 C   0  0  0  0  0  0  0  0  0  0  0  0
    8.4340   -1.8690   21.6220 C   0  0  0  0  0  0  0  0  0  0  0  0
    9.5650   -1.3100   22.4560 C   0  0  0  0  0  0  0  0  0  0  0  0
    9.8130   -2.2540   23.5150 C   0  0  0  0  0  0  0  0  0  0  0  0
    8.8290   -3.6620   23.5910 S   0  0  0  0  0  0  0  0  0  0  0  0
   10.8680   -1.9280   24.3800 C   0  0  0  0  0  0  0  0  0  0  0  0
   11.9010   -1.1700   23.7900 C   0  0  0  0  0  0  0  0  0  0  0  0
   11.6540   -0.4310   22.6210 C   0  0  0  0  0  0  0  0  0  0  0  0
   10.3000   -0.1630   22.3320 C   0  0  0  0  0  0  0  0  0  0  0  0
    5.7630   -3.9930   22.4360 C   0  0  2  0  0  0  0  0  0  0  0  0
    5.1160   -2.8030   22.1770 C   0  0  0  0  0  0  0  0  0  0  0  0
    4.3740   -2.3770   23.0570 O   0  0  0  0  0  0  0  0  0  0  0  0
    5.3000   -2.1460   20.9820 N   0  0  0  0  0  0  0  0  0  0  0  0
    5.8190   -0.8570   20.8610 C   0  0  0  0  0  0  0  0  0  0  0  0
    6.2580   -0.3110   19.6300 C   0  0  0  0  0  0  0  0  0  0  0  0
    6.1050   -1.1870   18.5700 C   0  0  0  0  0  0  0  0  0  0  0  0
    6.8280    1.1010   19.5620 C   0  0  0  0  0  0  0  0  0  0  0  0
    6.9160    1.8720   20.7440 C   0  0  0  0  0  0  0  0  0  0  0  0
    6.5140    1.4450   21.9740 C   0  0  0  0  0  0  0  0  0  0  0  0
    5.9860    0.0670   21.8940 C   0  0  0  0  0  0  0  0  0  0  0  0
    5.6500   -0.0600   23.3960 C   0  0  0  0  0  0  0  0  0  0  0  0
    4.5890   -0.5190   23.7850 O   0  0  0  0  0  0  0  0  0  0  0  0
    5.7670   -4.2670   23.8330 C   0  0  0  0  0  0  0  0  0  0  0  0
    5.3530   -5.6590   24.3690 C   0  0  0  0  0  0  0  0  0  0  0  0
    5.3350   -5.9200   25.9040 C   0  0  0  0  0  0  0  0  0  0  0  0
    5.7310   -4.7900   26.8330 C   0  0  0  0  0  0  0  0  0  0  0  0
    6.0980   -3.5500   26.2290 N   0  0  0  0  0  0  0  0  0  0  0  0
    6.1080   -3.3380   24.8700 C   0  0  0  0  0  0  0  0  0  0  0  0
  1  2  2  3
  1  3  1  0
  3  4  1  0
  4  5  2  0
  5  6  1  0
  6  7  2  0
  4  8  1  0
  7  8  1  0
  7  9  1  0
  9 10  1  0
 10 11  1  0
  6 12  1  0
 11 12  1  0
  3 13  1  0
 13 14  1  1
 14 15  2  0
 14 16  1  0
 16 17  1  0
 17 18  2  0
 18 19  1  0
 18 20  1  0
 20 21  2  0
 21 22  1  0
 17 23  1  0
 22 23  2  0
 23 24  1  0
 24 25  1  0
 13 26  1  0
 26 27  2  0
 27 28  1  0
 28 29  2  0
 29 30  1  0
 26 31  1  0
 30 31  2  0
M  END
