DAR-DIA-fb20be43-13-chloroacetamide
     RDKit          3D

 27 29  0  0  0  0  0  0  0  0999 V2000
    7.6390   -3.6050   19.6620 C   0  0  0  0  0  0  0  0  0  0  0  0
    6.3590   -2.9240   19.8450 C   0  0  0  0  0  0  0  0  0  0  0  0
    5.4090   -3.1980   19.0940 O   0  0  0  0  0  0  0  0  0  0  0  0
    6.3460   -2.0730   20.9340 N   0  0  0  0  0  0  0  0  0  0  0  0
    7.3620   -1.0180   21.0380 C   0  0  0  0  0  0  0  0  0  0  0  0
    8.6360   -1.5120   21.7530 C   0  0  0  0  0  0  0  0  0  0  0  0
    8.3760   -2.1390   23.0670 N   0  0  0  0  0  0  0  0  0  0  0  0
    9.6340   -2.5280   23.7150 C   0  0  0  0  0  0  0  0  0  0  0  0
   10.5820   -1.4080   23.4810 C   0  0  0  0  0  0  0  0  0  0  0  0
   11.8620   -1.6670   22.7390 C   0  0  0  0  0  0  0  0  0  0  0  0
   12.6500   -0.5450   22.5420 C   0  0  0  0  0  0  0  0  0  0  0  0
   13.7900   -0.4160   21.9410 O   0  0  0  0  0  0  0  0  0  0  0  0
   13.9410    0.9760   22.0140 C   0  0  0  0  0  0  0  0  0  0  0  0
   12.2990    0.7320   22.9800 C   0  0  0  0  0  0  0  0  0  0  0  0
   11.1250    0.9350   23.6450 C   0  0  0  0  0  0  0  0  0  0  0  0
   10.2780   -0.1340   23.9150 C   0  0  0  0  0  0  0  0  0  0  0  0
    9.1600    0.2670   24.6310 C   0  0  0  0  0  0  0  0  0  0  0  0
    9.2920    1.6280   24.7680 C   0  0  0  0  0  0  0  0  0  0  0  0
   10.4550    2.1280   24.1870 C   0  0  0  0  0  0  0  0  0  0  0  0
   10.8390    3.4870   24.1260 C   0  0  0  0  0  0  0  0  0  0  0  0
    9.8890    4.4240   23.3630 C   0  0  0  0  0  0  0  0  0  0  0  0
    9.4020    5.5150   24.1970 N   0  0  0  0  0  0  0  0  0  0  0  0
    8.6270    5.2370   25.4200 C   0  0  0  0  0  0  0  0  0  0  0  0
    7.9010    6.4580   26.0210 C   0  0  0  0  0  0  0  0  0  0  0  0
    8.5440    4.1300   25.9390 O   0  0  0  0  0  0  0  0  0  0  0  0
    7.4050   -3.2220   22.8890 C   0  0  0  0  0  0  0  0  0  0  0  0
    6.1060   -2.6990   22.2410 C   0  0  0  0  0  0  0  0  0  0  0  0
  1  2  1  0
  2  3  2  0
  2  4  1  0
  4  5  1  0
  5  6  1  0
  6  7  1  0
  7  8  1  0
  8  9  1  0
  9 10  2  0
 10 11  1  0
 11 12  1  0
 12 13  1  0
 11 14  2  0
 14 15  1  0
  9 16  1  0
 15 16  2  0
 16 17  1  0
 17 18  1  0
 15 19  1  0
 18 19  2  0
 19 20  1  0
 20 21  1  0
 21 22  1  0
 22 23  1  0
 23 24  1  0
 23 25  2  0
  7 26  1  0
  4 27  1  0
 26 27  1  0
M  END
