DAR-DIA-03336633-4-acrylamide
     RDKit          3D

 32 34  0  0  0  0  0  0  0  0999 V2000
    6.3170   -3.9420   19.8110 C   0  0  0  0  0  0  0  0  0  0  0  0
    6.6010   -3.0850   21.0470 C   0  0  0  0  0  0  0  0  0  0  0  0
    6.0240   -3.6520   22.3370 C   0  0  0  0  0  0  0  0  0  0  0  0
    5.1020   -3.9990   21.6100 O   0  0  0  0  0  0  0  0  0  0  0  0
    7.3090   -3.0400   22.7870 C   0  0  0  0  0  0  0  0  0  0  0  0
    8.6740   -3.4490   23.3070 C   0  0  0  0  0  0  0  0  0  0  0  0
    9.8020   -2.4660   23.6760 C   0  0  0  0  0  0  0  0  0  0  0  0
    9.1050   -1.1710   23.3670 C   0  0  0  0  0  0  0  0  0  0  0  0
    7.8780   -0.6860   22.8990 C   0  0  0  0  0  0  0  0  0  0  0  0
    7.1980    0.5910   22.6000 N   0  0  0  0  0  0  0  0  0  0  0  0
    7.3550    1.4320   21.4620 C   0  0  0  0  0  0  0  0  0  0  0  0
    8.6030    1.8950   21.1310 O   0  0  0  0  0  0  0  0  0  0  0  0
    6.2100    1.8170   20.6660 N   0  0  0  0  0  0  0  0  0  0  0  0
    5.6710    1.1950   19.5000 C   0  0  0  0  0  0  0  0  0  0  0  0
    6.6100    0.5890   18.5450 C   0  0  0  0  0  0  0  0  0  0  0  0
    7.1300    1.1350   19.5620 N   0  0  0  0  0  0  0  0  0  0  0  0
    5.7830    1.2530   19.6030 C   0  0  0  0  0  0  0  0  0  0  0  0
    5.0540    0.6590   18.4770 C   0  0  0  0  0  0  0  0  0  0  0  0
    4.2380    1.1800   19.2940 C   0  0  0  0  0  0  0  0  0  0  0  0
    3.8900    1.8760   20.4750 C   0  0  0  0  0  0  0  0  0  0  0  0
    2.5210    2.1180   20.5250 C   0  0  0  0  0  0  0  0  0  0  0  0
    2.0260    2.8570   21.5390 N   0  0  0  0  0  0  0  0  0  0  0  0
    1.2460    2.2030   22.4380 C   0  0  0  0  0  0  0  0  0  0  0  0
    1.5520    1.1400   22.9570 O   0  0  0  0  0  0  0  0  0  0  0  0
    0.0860    2.8980   22.6780 N   0  0  0  0  0  0  0  0  0  0  0  0
   -0.5280    2.9260   24.0070 C   0  0  0  0  0  0  0  0  0  0  0  0
   -1.8720    2.5660   23.8710 C   0  0  0  0  0  0  0  0  0  0  0  0
   -2.7990    3.0850   24.7760 C   0  0  0  0  0  0  0  0  0  0  0  0
   -2.4530    4.2850   25.3870 C   0  0  0  0  0  0  0  0  0  0  0  0
   -1.1130    4.5430   25.6720 C   0  0  0  0  0  0  0  0  0  0  0  0
   -0.2520    4.1520   24.6420 C   0  0  0  0  0  0  0  0  0  0  0  0
    7.8000   -1.9250   22.9210 C   0  0  0  0  0  0  0  0  0  0  0  0
  1  2  1  0
  2  3  1  0
  3  4  2  0
  3  5  1  0
  5  6  2  0
  6  7  1  0
  7  8  2  0
  8  9  1  0
  9 10  1  0
 10 11  1  0
 11 12  2  0
 11 13  1  0
 13 14  1  0
 14 15  2  0
 15 16  1  0
 16 17  2  0
 17 18  1  0
 14 19  1  0
 18 19  2  0
 19 20  1  0
 20 21  1  0
 21 22  1  0
 22 23  1  0
 23 24  2  0
 23 25  1  0
 25 26  1  0
 26 27  1  0
 27 28  1  0
 28 29  1  0
 29 30  1  0
 26 31  1  0
 30 31  1  0
  5 32  1  0
  9 32  2  0
M  END
