DAR-DIA-2b784ede-12-nitrile
     RDKit          3D

 32 34  0  0  0  0  0  0  0  0999 V2000
    6.5890   -3.9120   19.9490 C   0  0  0  0  0  0  0  0  0  0  0  0
    5.6780   -4.8300   20.0230 N   0  0  0  0  0  0  0  0  0  0  0  0
    6.3920   -2.5650   20.2550 N   0  0  0  0  0  0  0  0  0  0  0  0
    6.6550   -1.7130   19.2160 C   0  0  0  0  0  0  0  0  0  0  0  0
    6.8830   -0.2860   19.5030 C   0  0  0  0  0  0  0  0  0  0  0  0
    7.1740    0.6360   18.4370 C   0  0  0  0  0  0  0  0  0  0  0  0
    7.2370    0.0680   17.2120 C   0  0  0  0  0  0  0  0  0  0  0  0
    7.4770    0.3890   15.8290 C   0  0  0  0  0  0  0  0  0  0  0  0
    8.8550    0.2460   15.2120 C   0  0  0  0  0  0  0  0  0  0  0  0
    9.8760    0.1770   14.6710 N   0  0  0  0  0  0  0  0  0  0  0  0
    6.9600   -1.2720   17.3420 C   0  0  0  0  0  0  0  0  0  0  0  0
    6.7230   -2.1060   17.9310 N   0  0  0  0  0  0  0  0  0  0  0  0
    6.7760   -2.0530   21.6240 C   0  0  1  0  0  0  0  0  0  0  0  0
    8.2750   -1.5720   21.6540 C   0  0  0  0  0  0  0  0  0  0  0  0
    8.6380   -0.5560   21.0660 O   0  0  0  0  0  0  0  0  0  0  0  0
    9.2010   -2.2980   22.4060 N   0  0  0  0  0  0  0  0  0  0  0  0
   10.6240   -2.0070   22.4290 C   0  0  0  0  0  0  0  0  0  0  0  0
    9.9730   -1.5640   23.8160 C   0  0  0  0  0  0  0  0  0  0  0  0
    8.5940   -1.7610   24.0210 C   0  0  0  0  0  0  0  0  0  0  0  0
   10.5700   -0.9760   24.9420 C   0  0  0  0  0  0  0  0  0  0  0  0
   11.8800   -0.6980   24.9940 C   0  0  0  0  0  0  0  0  0  0  0  0
   12.6100   -0.9990   23.9170 C   0  0  0  0  0  0  0  0  0  0  0  0
   12.0080   -1.6180   22.7080 C   0  0  0  0  0  0  0  0  0  0  0  0
   13.0370   -1.8000   21.8000 C   0  0  0  0  0  0  0  0  0  0  0  0
   13.0420   -3.0330   20.9740 C   0  0  0  0  0  0  0  0  0  0  0  0
    5.9170   -0.9450   22.3280 C   0  0  0  0  0  0  0  0  0  0  0  0
    5.0000   -0.0420   22.1970 C   0  0  0  0  0  0  0  0  0  0  0  0
    5.6560   -1.0690   21.2900 N   0  0  0  0  0  0  0  0  0  0  0  0
    5.3950   -1.2720   19.9840 C   0  0  0  0  0  0  0  0  0  0  0  0
    4.6130   -0.4150   19.9790 C   0  0  0  0  0  0  0  0  0  0  0  0
    4.8800   -0.2110   21.3240 C   0  0  0  0  0  0  0  0  0  0  0  0
    4.0840    0.8330   21.8360 C   0  0  0  0  0  0  0  0  0  0  0  0
  1  2  2  3
  1  3  1  0
  3  4  1  0
  4  5  2  0
  5  6  1  0
  6  7  2  0
  7  8  1  0
  8  9  1  0
  9 10  3  0
  7 11  1  0
  4 12  1  0
 11 12  2  0
  3 13  1  0
 13 14  1  6
 14 15  2  0
 14 16  1  0
 16 17  1  0
 17 18  2  0
 18 19  1  0
 18 20  1  0
 20 21  2  0
 21 22  1  0
 17 23  1  0
 22 23  2  0
 23 24  1  0
 24 25  1  0
 13 26  1  0
 26 27  2  0
 27 28  1  0
 28 29  2  0
 29 30  1  0
 26 31  1  0
 30 31  2  0
 31 32  1  0
M  END
