DAR-DIA-0cde14eb-18
     RDKit          3D

 27 30  0  0  0  0  0  0  0  0999 V2000
    4.9010    1.0630   21.7040 C   0  0  0  0  0  0  0  0  0  0  0  0
    5.2520    0.8780   20.2560 C   0  0  0  0  0  0  0  0  0  0  0  0
    4.7330    1.7530   19.2930 C   0  0  0  0  0  0  0  0  0  0  0  0
    5.0920    1.5620   17.9710 C   0  0  0  0  0  0  0  0  0  0  0  0
    5.9120    0.5750   17.5550 N   0  0  0  0  0  0  0  0  0  0  0  0
    6.3900   -0.2560   18.4990 C   0  0  0  0  0  0  0  0  0  0  0  0
    6.0980   -0.1520   19.8330 C   0  0  0  0  0  0  0  0  0  0  0  0
    6.6240   -1.0160   20.7740 N   0  0  0  0  0  0  0  0  0  0  0  0
    7.7850   -0.6540   21.3520 C   0  0  0  0  0  0  0  0  0  0  0  0
    8.4180    0.3590   21.0650 O   0  0  0  0  0  0  0  0  0  0  0  0
    8.3020   -1.5440   22.4310 C   0  0  0  0  0  0  0  0  0  0  0  0
    9.4190   -0.7090   22.8330 C   0  0  0  0  0  0  0  0  0  0  0  0
    9.1420    0.4840   23.4790 C   0  0  0  0  0  0  0  0  0  0  0  0
   10.0980    1.3780   23.8790 C   0  0  0  0  0  0  0  0  0  0  0  0
    9.6000    2.5650   24.4870 N   0  0  0  0  0  0  0  0  0  0  0  0
    8.7040    2.5140   25.6580 C   0  0  0  0  0  0  0  0  0  0  0  0
    8.7260    3.8580   26.3890 C   0  0  0  0  0  0  0  0  0  0  0  0
    9.4550    4.9390   25.5840 C   0  0  0  0  0  0  0  0  0  0  0  0
    9.0530    4.9340   24.1120 C   0  0  0  0  0  0  0  0  0  0  0  0
    8.9380    3.5070   23.5690 C   0  0  0  0  0  0  0  0  0  0  0  0
   11.4360    0.9570   23.5790 C   0  0  0  0  0  0  0  0  0  0  0  0
   11.7010   -0.2870   22.8910 C   0  0  0  0  0  0  0  0  0  0  0  0
   13.0030   -0.7760   22.5090 C   0  0  0  0  0  0  0  0  0  0  0  0
   13.9470    0.1490   22.7670 F   0  0  0  0  0  0  0  0  0  0  0  0
   13.3080   -2.2380   22.4030 C   0  0  0  0  0  0  0  0  0  0  0  0
   13.2420   -1.4560   21.1620 C   0  0  0  0  0  0  0  0  0  0  0  0
   10.6750   -1.0840   22.5430 C   0  0  0  0  0  0  0  0  0  0  0  0
  1  2  1  0
  2  3  2  0
  3  4  1  0
  4  5  2  0
  5  6  1  0
  2  7  1  0
  6  7  2  0
  7  8  1  0
  8  9  1  0
  9 10  2  0
  9 11  1  0
 11 12  1  0
 12 13  2  0
 13 14  1  0
 14 15  1  0
 15 16  1  0
 16 17  1  0
 17 18  1  0
 18 19  1  0
 15 20  1  0
 19 20  1  0
 14 21  2  0
 21 22  1  0
 22 23  1  0
 23 24  1  0
 23 25  1  0
 23 26  1  0
 25 26  1  0
 12 27  1  0
 22 27  2  0
M  END
