DAR-DIA-caba39e3-2-vinylsulfonamide
     RDKit          3D

 23 25  0  0  0  0  0  0  0  0999 V2000
    7.6570   -2.9110   18.4110 C   0  0  0  0  0  0  0  0  0  0  0  0
    7.3650   -2.3110   19.7180 C   0  0  0  0  0  0  0  0  0  0  0  0
    6.2200   -3.2920   20.5940 S   0  0  0  0  0  0  0  0  0  0  0  0
    4.8810   -3.1710   20.1020 O   0  0  0  0  0  0  0  0  0  0  0  0
    6.7350   -4.5980   20.8680 O   0  0  0  0  0  0  0  0  0  0  0  0
    6.4380   -2.5170   22.0150 N   0  0  0  0  0  0  0  0  0  0  0  0
    6.0420   -3.1160   23.1690 C   0  0  0  0  0  0  0  0  0  0  0  0
    7.2440   -3.6940   23.8970 C   0  0  0  0  0  0  0  0  0  0  0  0
    6.8120   -4.6480   24.9960 C   0  0  0  0  0  0  0  0  0  0  0  0
    7.9210   -5.3010   25.8170 C   0  0  0  0  0  0  0  0  0  0  0  0
    9.3550   -4.9170   25.4390 C   0  0  0  0  0  0  0  0  0  0  0  0
    9.6200   -3.9440   24.3150 C   0  0  0  0  0  0  0  0  0  0  0  0
    8.5520   -3.3690   23.5780 C   0  0  0  0  0  0  0  0  0  0  0  0
    8.9090   -2.5150   22.5860 C   0  0  2  0  0  0  0  0  0  0  0  0
    9.9090   -1.5540   22.9050 C   0  0  0  0  0  0  0  0  0  0  0  0
    9.5650   -0.5720   23.9060 C   0  0  0  0  0  0  0  0  0  0  0  0
   10.5700    0.4070   24.2370 C   0  0  0  0  0  0  0  0  0  0  0  0
   11.8220    0.4500   23.6570 C   0  0  0  0  0  0  0  0  0  0  0  0
   12.1680   -0.5000   22.6850 C   0  0  0  0  0  0  0  0  0  0  0  0
   13.3770   -0.2880   22.2600 O   0  0  0  0  0  0  0  0  0  0  0  0
   13.4900    1.0140   22.6900 C   0  0  0  0  0  0  0  0  0  0  0  0
   11.2880   -1.4790   22.2910 C   0  0  0  0  0  0  0  0  0  0  0  0
    7.6530   -1.6920   22.1810 C   0  0  0  0  0  0  0  0  0  0  0  0
  1  2  1  0
  3  2  1  0
  3  4  2  0
  3  5  2  0
  3  6  1  0
  6  7  1  0
  7  8  1  0
  8  9  1  0
  9 10  2  0
 10 11  1  0
 11 12  2  0
  8 13  2  0
 12 13  1  0
 13 14  1  0
 14 15  1  1
 15 16  2  0
 16 17  1  0
 17 18  2  0
 18 19  1  0
 19 20  1  0
 20 21  1  0
 15 22  1  0
 19 22  2  0
  6 23  1  0
 14 23  1  0
M  END
