DAR-DIA-caba39e3-4-vinylsulfonamide
     RDKit          3D

 32 35  0  0  0  0  0  0  0  0999 V2000
    7.4410   -5.0590   20.6170 C   0  0  0  0  0  0  0  0  0  0  0  0
    6.0690   -4.6250   20.7540 C   0  0  0  0  0  0  0  0  0  0  0  0
    6.0250   -2.9980   20.1770 S   0  0  0  0  0  0  0  0  0  0  0  0
    4.6390   -2.9530   19.9550 O   0  0  0  0  0  0  0  0  0  0  0  0
    6.9630   -2.6920   19.1380 O   0  0  0  0  0  0  0  0  0  0  0  0
    6.5050   -2.2060   21.5840 N   0  0  0  0  0  0  0  0  0  0  0  0
    6.0240   -2.9210   22.8020 C   0  0  0  0  0  0  0  0  0  0  0  0
    7.0960   -3.4750   23.7110 C   0  0  0  0  0  0  0  0  0  0  0  0
    6.6920   -4.2280   24.8260 C   0  0  0  0  0  0  0  0  0  0  0  0
    7.6240   -4.7550   25.7130 C   0  0  0  0  0  0  0  0  0  0  0  0
    8.9670   -4.5310   25.5060 C   0  0  0  0  0  0  0  0  0  0  0  0
    9.3820   -3.7840   24.4070 C   0  0  0  0  0  0  0  0  0  0  0  0
    8.4580   -3.2600   23.4890 C   0  0  0  0  0  0  0  0  0  0  0  0
    8.9460   -2.4740   22.2860 C   0  0  2  0  0  0  0  0  0  0  0  0
   10.0710   -1.6120   22.7250 C   0  0  0  0  0  0  0  0  0  0  0  0
    9.8910   -0.8480   23.8090 C   0  0  0  0  0  0  0  0  0  0  0  0
   10.8200    0.0020   24.3520 C   0  0  0  0  0  0  0  0  0  0  0  0
   10.1740    0.5490   25.4160 O   0  0  0  0  0  0  0  0  0  0  0  0
    8.9170   -0.0200   25.7670 C   0  0  0  0  0  0  0  0  0  0  0  0
   12.1830    0.3380   23.9880 C   0  0  0  0  0  0  0  0  0  0  0  0
   12.2880   -0.4920   22.8180 C   0  0  0  0  0  0  0  0  0  0  0  0
   13.3700   -0.6380   21.8520 C   0  0  0  0  0  0  0  0  0  0  0  0
   13.6730   -1.2810   20.6340 C   0  0  0  0  0  0  0  0  0  0  0  0
   14.5390   -0.3630   19.5870 C   0  0  0  0  0  0  0  0  0  0  0  0
   14.4870    0.0100   18.1890 N   0  0  0  0  0  0  0  0  0  0  0  0
   15.3460    0.9650   17.7310 C   0  0  0  0  0  0  0  0  0  0  0  0
   15.4830    2.1220   18.6790 C   0  0  0  0  0  0  0  0  0  0  0  0
   15.9360    0.8960   16.6610 O   0  0  0  0  0  0  0  0  0  0  0  0
   12.1610   -1.0510   22.1630 C   0  0  0  0  0  0  0  0  0  0  0  0
   12.0700   -1.8700   21.1630 N   0  0  0  0  0  0  0  0  0  0  0  0
   11.3030   -1.4240   22.2170 C   0  0  0  0  0  0  0  0  0  0  0  0
    7.8600   -1.6210   21.5910 C   0  0  0  0  0  0  0  0  0  0  0  0
  1  2  1  0
  3  2  1  0
  3  4  2  0
  3  5  2  0
  3  6  1  0
  6  7  1  0
  7  8  1  0
  8  9  1  0
  9 10  2  0
 10 11  1  0
 11 12  2  0
  8 13  2  0
 12 13  1  0
 13 14  1  0
 14 15  1  1
 15 16  2  0
 16 17  1  0
 17 18  1  0
 18 19  1  0
 17 20  2  0
 20 21  1  0
 21 22  1  0
 22 23  1  0
 23 24  1  0
 24 25  1  0
 25 26  1  0
 26 27  1  0
 26 28  2  0
 22 29  2  0
 29 30  1  0
 15 31  1  0
 21 31  2  0
 30 31  1  0
  6 32  1  0
 14 32  1  0
M  END
