DAR-DIA-2b784ede-40-chloroacetamide
     RDKit          3D

 37 39  0  0  0  0  0  0  0  0999 V2000
    9.2730   -4.4770   20.5040 C   0  0  0  0  0  0  0  0  0  0  0  0
    8.2060   -3.3620   20.5260 C   0  0  0  0  0  0  0  0  0  0  0  0
    7.1000   -3.5650   19.6470 O   0  0  0  0  0  0  0  0  0  0  0  0
    8.6470   -2.2290   21.5330 N   0  0  0  0  0  0  0  0  0  0  0  0
    9.4820   -1.0870   21.1290 C   0  0  0  0  0  0  0  0  0  0  0  0
   10.5370   -1.9930   21.6980 C   0  0  0  0  0  0  0  0  0  0  0  0
    9.8590   -3.2070   22.2640 C   0  0  0  0  0  0  0  0  0  0  0  0
    8.3010   -3.1980   22.1250 C   0  0  0  0  0  0  0  0  0  0  0  0
    7.5510   -4.3870   22.7260 C   0  0  0  0  0  0  0  0  0  0  0  0
    7.8580   -5.7800   22.2150 C   0  0  0  0  0  0  0  0  0  0  0  0
    6.0650   -4.1000   22.5050 C   0  0  0  0  0  0  0  0  0  0  0  0
    7.7240   -4.4440   24.2550 C   0  0  0  0  0  0  0  0  0  0  0  0
    7.5700   -2.1000   21.4650 C   0  0  0  0  0  0  0  0  0  0  0  0
    8.1880   -0.9400   20.9150 C   0  0  0  0  0  0  0  0  0  0  0  0
    8.4950   -2.0070   23.0100 C   0  0  2  0  0  0  0  0  0  0  0  0
    7.6800   -0.7010   23.2290 C   0  0  0  0  0  0  0  0  0  0  0  0
    8.1430    0.2240   23.8840 O   0  0  0  0  0  0  0  0  0  0  0  0
    6.4200   -0.6900   22.6040 N   0  0  0  0  0  0  0  0  0  0  0  0
    6.0430   -0.0770   21.3080 C   0  0  0  0  0  0  0  0  0  0  0  0
    5.8920   -0.8900   20.0300 C   0  0  0  0  0  0  0  0  0  0  0  0
    5.5440   -0.2590   18.8560 C   0  0  0  0  0  0  0  0  0  0  0  0
    5.4340   -1.0320   17.7340 C   0  0  0  0  0  0  0  0  0  0  0  0
    6.8060   -1.0880   17.0260 C   0  0  0  0  0  0  0  0  0  0  0  0
    7.4710    0.3050   16.8340 C   0  0  0  0  0  0  0  0  0  0  0  0
    6.9650   -1.8530   15.7270 C   0  0  0  0  0  0  0  0  0  0  0  0
    7.6220   -1.9350   17.9680 C   0  0  0  0  0  0  0  0  0  0  0  0
    5.3220    1.1140   18.8200 C   0  0  0  0  0  0  0  0  0  0  0  0
    5.4540    1.8800   19.9860 C   0  0  0  0  0  0  0  0  0  0  0  0
    5.8110    1.3060   21.2160 C   0  0  0  0  0  0  0  0  0  0  0  0
    5.9260    2.1280   22.3240 C   0  0  0  0  0  0  0  0  0  0  0  0
    9.9220   -2.0290   23.6370 C   0  0  0  0  0  0  0  0  0  0  0  0
   10.3250   -3.2370   24.2090 C   0  0  0  0  0  0  0  0  0  0  0  0
   11.5160   -3.4820   24.7900 N   0  0  0  0  0  0  0  0  0  0  0  0
   12.4010   -2.4860   24.8260 C   0  0  0  0  0  0  0  0  0  0  0  0
   12.1160   -1.2370   24.2940 C   0  0  0  0  0  0  0  0  0  0  0  0
   10.8970   -0.9780   23.6980 C   0  0  0  0  0  0  0  0  0  0  0  0
   10.7400    0.3200   23.1910 C   0  0  0  0  0  0  0  0  0  0  0  0
  1  2  1  0
  2  3  2  0
  2  4  1  0
  4  5  1  0
  5  6  2  0
  6  7  1  0
  7  8  2  0
  8  9  1  0
  9 10  1  0
  9 11  1  0
  9 12  1  0
  8 13  1  0
  5 14  1  0
 13 14  2  0
  4 15  1  0
 15 16  1  6
 16 17  2  0
 16 18  1  0
 18 19  1  0
 19 20  2  0
 20 21  1  0
 21 22  1  0
 23 22  1  0
 23 24  1  0
 23 25  1  0
 23 26  1  0
 21 27  2  0
 27 28  1  0
 19 29  1  0
 28 29  2  0
 29 30  1  0
 15 31  1  0
 31 32  2  0
 32 33  1  0
 33 34  2  0
 34 35  1  0
 31 36  1  0
 35 36  2  0
 36 37  1  0
M  END
