DAR-DIA-2b784ede-53-acrylamide
     RDKit          3D

 34 36  0  0  0  0  0  0  0  0999 V2000
    6.3480   -4.4060   20.2480 C   0  0  0  0  0  0  0  0  0  0  0  0
    5.6170   -3.0850   20.4040 C   0  0  0  0  0  0  0  0  0  0  0  0
    5.1400   -2.8610   21.8440 C   0  0  0  0  0  0  0  0  0  0  0  0
    4.3840   -3.6990   22.3480 O   0  0  0  0  0  0  0  0  0  0  0  0
    5.5630   -1.6730   22.4490 N   0  0  0  0  0  0  0  0  0  0  0  0
    5.6070   -0.7910   21.3700 C   0  0  0  0  0  0  0  0  0  0  0  0
    6.6170   -1.1870   20.4250 C   0  0  0  0  0  0  0  0  0  0  0  0
    6.8300   -0.5500   19.2890 C   0  0  0  0  0  0  0  0  0  0  0  0
    6.0310    0.5360   19.0470 C   0  0  0  0  0  0  0  0  0  0  0  0
    6.1980    1.1630   17.9740 C   0  0  0  0  0  0  0  0  0  0  0  0
    6.6820    0.4330   16.9810 C   0  0  0  0  0  0  0  0  0  0  0  0
    5.0630    1.9660   17.7590 C   0  0  0  0  0  0  0  0  0  0  0  0
    5.0520    1.0100   19.8990 N   0  0  0  0  0  0  0  0  0  0  0  0
    4.8110    0.3930   21.0520 C   0  0  0  0  0  0  0  0  0  0  0  0
    6.7300   -1.7600   23.1970 C   0  0  2  0  0  0  0  0  0  0  0  0
    8.0100   -1.4710   22.5690 C   0  0  0  0  0  0  0  0  0  0  0  0
    8.2710   -0.4230   21.9850 O   0  0  0  0  0  0  0  0  0  0  0  0
    8.9610   -2.4820   22.6950 N   0  0  0  0  0  0  0  0  0  0  0  0
   10.3780   -2.3460   22.3940 C   0  0  0  0  0  0  0  0  0  0  0  0
   11.7870   -2.1360   22.4120 C   0  0  0  0  0  0  0  0  0  0  0  0
   12.4930   -2.3100   21.2850 C   0  0  0  0  0  0  0  0  0  0  0  0
   13.4420   -1.3300   21.3080 C   0  0  0  0  0  0  0  0  0  0  0  0
   12.7400   -1.7730   23.3410 C   0  0  0  0  0  0  0  0  0  0  0  0
   12.5380   -1.4590   24.7460 C   0  0  0  0  0  0  0  0  0  0  0  0
   11.0560   -1.6040   24.9790 C   0  0  0  0  0  0  0  0  0  0  0  0
   10.2200   -2.0260   23.7670 C   0  0  0  0  0  0  0  0  0  0  0  0
    8.8180   -2.0850   24.3590 C   0  0  0  0  0  0  0  0  0  0  0  0
    8.4890   -3.4560   24.5030 O   0  0  0  0  0  0  0  0  0  0  0  0
    6.4790   -2.9520   23.9000 C   0  0  0  0  0  0  0  0  0  0  0  0
    5.9570   -2.8670   25.2750 C   0  0  0  0  0  0  0  0  0  0  0  0
    5.6470   -4.1120   26.0280 C   0  0  0  0  0  0  0  0  0  0  0  0
    5.9120   -5.3970   25.2750 C   0  0  0  0  0  0  0  0  0  0  0  0
    6.4020   -5.4360   24.0090 N   0  0  0  0  0  0  0  0  0  0  0  0
    6.6670   -4.2460   23.3720 C   0  0  0  0  0  0  0  0  0  0  0  0
  1  2  1  0
  2  3  1  0
  3  4  2  0
  3  5  1  0
  5  6  1  0
  6  7  2  0
  7  8  1  0
  8  9  2  0
  9 10  1  0
 10 11  1  0
 10 12  1  0
  9 13  1  0
  6 14  1  0
 13 14  2  0
  5 15  1  0
 15 16  1  6
 16 17  2  0
 16 18  1  0
 18 19  1  0
 19 20  2  0
 20 21  1  0
 21 22  1  0
 20 23  1  0
 23 24  2  0
 24 25  1  0
 19 26  1  0
 25 26  2  0
 26 27  1  0
 27 28  1  0
 15 29  1  0
 29 30  2  0
 30 31  1  0
 31 32  2  0
 32 33  1  0
 29 34  1  0
 33 34  2  0
M  END
