DAR-DIA-2b784ede-52-nitrile
     RDKit          3D

 32 34  0  0  0  0  0  0  0  0999 V2000
    7.0640   -2.8920   19.3940 C   0  0  0  0  0  0  0  0  0  0  0  0
    6.0250   -3.6270   19.5840 N   0  0  0  0  0  0  0  0  0  0  0  0
    7.1810   -1.6280   20.0500 N   0  0  0  0  0  0  0  0  0  0  0  0
    6.1820   -0.6110   19.9490 C   0  0  0  0  0  0  0  0  0  0  0  0
    5.1740    0.5110   19.6260 C   0  0  0  0  0  0  0  0  0  0  0  0
    5.2000    1.0390   18.3400 C   0  0  0  0  0  0  0  0  0  0  0  0
    4.2800    2.1280   17.9140 C   0  0  0  0  0  0  0  0  0  0  0  0
    4.5460    3.4530   18.2580 C   0  0  0  0  0  0  0  0  0  0  0  0
    4.6080    3.1380   16.8330 C   0  0  0  0  0  0  0  0  0  0  0  0
    3.0650    2.3580   18.6250 C   0  0  0  0  0  0  0  0  0  0  0  0
    6.1040    0.3980   17.7560 N   0  0  0  0  0  0  0  0  0  0  0  0
    6.7400   -0.5780   18.5620 N   0  0  0  0  0  0  0  0  0  0  0  0
    7.6700   -1.7160   21.3790 C   0  0  1  0  0  0  0  0  0  0  0  0
    9.0580   -1.7270   21.6370 C   0  0  0  0  0  0  0  0  0  0  0  0
    9.2730   -0.6030   21.1850 O   0  0  0  0  0  0  0  0  0  0  0  0
   10.0810   -2.1760   22.0700 N   0  0  0  0  0  0  0  0  0  0  0  0
   11.2480   -1.4920   22.1100 C   0  0  0  0  0  0  0  0  0  0  0  0
   12.3930   -0.7160   22.5190 C   0  0  0  0  0  0  0  0  0  0  0  0
   13.3700   -0.4260   21.5980 C   0  0  0  0  0  0  0  0  0  0  0  0
   13.4580   -1.4610   20.6900 C   0  0  0  0  0  0  0  0  0  0  0  0
   12.8500   -0.1140   23.7000 C   0  0  0  0  0  0  0  0  0  0  0  0
   12.1920   -0.1840   24.8560 C   0  0  0  0  0  0  0  0  0  0  0  0
   11.0490   -0.9010   24.7750 C   0  0  0  0  0  0  0  0  0  0  0  0
   10.6600   -1.5050   23.4310 C   0  0  0  0  0  0  0  0  0  0  0  0
    9.3760   -2.1750   23.9890 C   0  0  0  0  0  0  0  0  0  0  0  0
    9.3140   -2.4470   25.1820 O   0  0  0  0  0  0  0  0  0  0  0  0
    6.9880   -0.8390   22.2520 C   0  0  0  0  0  0  0  0  0  0  0  0
    7.2340    0.6860   22.3420 C   0  0  0  0  0  0  0  0  0  0  0  0
    6.4300    1.5320   23.3400 C   0  0  0  0  0  0  0  0  0  0  0  0
    5.4300    0.7760   24.1800 C   0  0  0  0  0  0  0  0  0  0  0  0
    5.2290   -0.5520   24.0870 N   0  0  0  0  0  0  0  0  0  0  0  0
    5.9690   -1.2840   23.1820 C   0  0  0  0  0  0  0  0  0  0  0  0
  1  2  2  3
  1  3  1  0
  3  4  1  0
  4  5  2  0
  5  6  1  0
  6  7  1  0
  7  8  1  0
  7  9  1  0
  7 10  1  0
  6 11  2  0
  4 12  1  0
 11 12  1  0
  3 13  1  0
 13 14  1  6
 14 15  2  0
 14 16  1  0
 16 17  1  0
 17 18  2  0
 18 19  1  0
 19 20  1  0
 18 21  1  0
 21 22  2  0
 22 23  1  0
 17 24  1  0
 23 24  2  0
 24 25  1  0
 25 26  1  0
 13 27  1  0
 27 28  2  0
 28 29  1  0
 29 30  2  0
 30 31  1  0
 27 32  1  0
 31 32  2  0
M  END
