DAR-DIA-a80d16a0-5
     RDKit          3D

 23 25  0  0  0  0  0  0  0  0999 V2000
   12.9110   -2.5240   21.3720 C   0  0  0  0  0  0  0  0  0  0  0  0
   13.5320   -1.4290   22.0250 O   0  0  0  0  0  0  0  0  0  0  0  0
   12.6370   -0.5280   22.4790 C   0  0  0  0  0  0  0  0  0  0  0  0
   11.2360   -0.8810   22.5800 C   0  0  0  0  0  0  0  0  0  0  0  0
   10.1010   -0.3090   22.9480 N   0  0  0  0  0  0  0  0  0  0  0  0
    8.8180   -1.0010   23.0030 C   0  0  0  0  0  0  0  0  0  0  0  0
    8.9150   -2.2720   23.8690 C   0  0  0  0  0  0  0  0  0  0  0  0
    8.2350   -1.9970   25.1650 N   0  0  0  0  0  0  0  0  0  0  0  0
    7.8730   -3.2590   25.8240 C   0  0  0  0  0  0  0  0  0  0  0  0
    9.0890   -1.1640   25.9970 C   0  0  0  0  0  0  0  0  0  0  0  0
   10.2720    1.1780   23.0480 C   0  0  0  0  0  0  0  0  0  0  0  0
   11.6380    1.6610   23.1950 C   0  0  2  0  0  0  0  0  0  0  0  0
   11.7260    3.1140   22.8880 C   0  0  0  0  0  0  0  0  0  0  0  0
   10.7730    3.8960   23.5220 C   0  0  0  0  0  0  0  0  0  0  0  0
    9.3360    3.6470   23.6830 C   0  0  0  0  0  0  0  0  0  0  0  0
    8.5580    4.5940   24.3630 C   0  0  0  0  0  0  0  0  0  0  0  0
    9.0990    5.7690   24.8960 C   0  0  0  0  0  0  0  0  0  0  0  0
    8.1050    6.8990   25.7230 Cl  0  0  0  0  0  0  0  0  0  0  0  0
   10.4630    5.9970   24.7350 C   0  0  0  0  0  0  0  0  0  0  0  0
   11.2760    5.0930   24.0700 C   0  0  0  0  0  0  0  0  0  0  0  0
   13.1720    3.7530   22.7590 C   0  0  0  0  0  0  0  0  0  0  0  0
   12.2890    3.7110   21.8650 C   0  0  0  0  0  0  0  0  0  0  0  0
   12.8470    0.8850   22.9300 C   0  0  0  0  0  0  0  0  0  0  0  0
  1  2  1  0
  2  3  1  0
  3  4  2  0
  4  5  1  0
  5  6  1  0
  6  7  1  0
  7  8  1  0
  8  9  1  0
  8 10  1  0
  5 11  1  0
 11 12  1  0
 12 13  1  6
 13 14  1  0
 14 15  2  0
 15 16  1  0
 16 17  2  0
 17 18  1  0
 17 19  1  0
 14 20  1  0
 19 20  2  0
 13 21  1  0
 13 22  1  0
 21 22  1  0
  3 23  1  0
 12 23  1  0
M  END
