DAR-DIA-eace69ff-12
     RDKit          3D

 29 32  0  0  0  0  0  0  0  0999 V2000
   13.3620   -2.0970   20.8720 C   0  0  0  0  0  0  0  0  0  0  0  0
   13.2730   -1.9960   22.3430 C   0  0  0  0  0  0  0  0  0  0  0  0
   12.4780   -0.8160   22.8020 C   0  0  0  0  0  0  0  0  0  0  0  0
   11.3570   -1.3840   23.3240 C   0  0  0  0  0  0  0  0  0  0  0  0
   10.3080   -0.6950   23.8740 C   0  0  0  0  0  0  0  0  0  0  0  0
    9.2260   -1.4180   24.3710 N   0  0  0  0  0  0  0  0  0  0  0  0
    9.4140   -2.6480   25.1590 C   0  0  0  0  0  0  0  0  0  0  0  0
    8.1470   -3.1740   25.4340 C   0  0  0  0  0  0  0  0  0  0  0  0
    7.8590   -4.3230   24.6860 C   0  0  0  0  0  0  0  0  0  0  0  0
    7.4610   -3.9750   23.2970 C   0  0  0  0  0  0  0  0  0  0  0  0
    7.8980   -2.5930   23.0600 C   0  0  0  0  0  0  0  0  0  0  0  0
    8.1720   -1.4570   23.3530 C   0  0  0  0  0  0  0  0  0  0  0  0
   10.5230    0.8490   23.8350 C   0  0  0  0  0  0  0  0  0  0  0  0
   11.6970    1.3320   23.2760 C   0  0  0  0  0  0  0  0  0  0  0  0
   12.7040    0.5480   22.7580 C   0  0  0  0  0  0  0  0  0  0  0  0
   11.7140    2.8620   23.3070 C   0  0  0  0  0  0  0  0  0  0  0  0
   12.6500    4.0090   22.8620 C   0  0  0  0  0  0  0  0  0  0  0  0
   12.0990    5.3540   23.1880 N   0  0  0  0  0  0  0  0  0  0  0  0
   10.7930    5.5790   22.6180 C   0  0  0  0  0  0  0  0  0  0  0  0
   12.1490    5.7260   24.5980 C   0  0  0  0  0  0  0  0  0  0  0  0
   10.4750    3.0760   23.9380 C   0  0  0  0  0  0  0  0  0  0  0  0
    9.7470    1.8750   24.2610 N   0  0  0  0  0  0  0  0  0  0  0  0
    8.5140    1.8280   24.8730 C   0  0  0  0  0  0  0  0  0  0  0  0
    7.6200    2.9600   24.3620 C   0  0  0  0  0  0  0  0  0  0  0  0
    6.6110    3.4760   25.1340 C   0  0  0  0  0  0  0  0  0  0  0  0
    5.7150    4.5870   24.6700 C   0  0  0  0  0  0  0  0  0  0  0  0
    5.9800    5.1380   23.2600 C   0  0  0  0  0  0  0  0  0  0  0  0
    7.0500    4.5760   22.4660 C   0  0  0  0  0  0  0  0  0  0  0  0
    7.8600    3.4570   23.0880 C   0  0  0  0  0  0  0  0  0  0  0  0
  1  2  1  0
  2  3  1  0
  3  4  2  0
  4  5  1  0
  5  6  1  0
  6  7  1  0
  7  8  1  0
  8  9  1  0
  9 10  1  0
 10 11  1  0
  6 12  1  0
 11 12  1  0
  5 13  2  0
 13 14  1  0
  3 15  1  0
 14 15  2  0
 14 16  1  0
 16 17  1  0
 17 18  1  0
 18 19  1  0
 18 20  1  0
 16 21  2  0
 13 22  1  0
 21 22  1  0
 22 23  1  0
 23 24  1  0
 24 25  2  0
 25 26  1  0
 26 27  2  0
 27 28  1  0
 24 29  1  0
 28 29  2  0
M  END
