DAR-DIA-2b784ede-24-nitrile
     RDKit          3D

 28 30  0  0  0  0  0  0  0  0999 V2000
    6.8170   -3.2440   19.4310 C   0  0  0  0  0  0  0  0  0  0  0  0
    6.2620   -3.0580   18.2940 N   0  0  0  0  0  0  0  0  0  0  0  0
    6.8010   -2.2870   20.4770 N   0  0  0  0  0  0  0  0  0  0  0  0
    7.7780   -2.3590   21.4400 C   0  0  0  0  0  0  0  0  0  0  0  0
    7.5930   -3.0910   22.6760 C   0  0  0  0  0  0  0  0  0  0  0  0
    8.6680   -3.1130   23.6530 C   0  0  0  0  0  0  0  0  0  0  0  0
    9.8320   -2.4220   23.3510 C   0  0  0  0  0  0  0  0  0  0  0  0
   11.0540   -2.2870   24.1870 C   0  0  0  0  0  0  0  0  0  0  0  0
   11.0900   -3.3820   25.2560 C   0  0  0  0  0  0  0  0  0  0  0  0
   11.1030   -4.2350   26.0370 N   0  0  0  0  0  0  0  0  0  0  0  0
   11.0980   -0.8770   24.7900 C   0  0  0  0  0  0  0  0  0  0  0  0
   12.4380   -0.2950   24.3670 C   0  0  0  0  0  0  0  0  0  0  0  0
   12.6860   -0.8930   22.9740 C   0  0  0  0  0  0  0  0  0  0  0  0
   12.1830   -2.3420   23.1580 C   0  0  0  0  0  0  0  0  0  0  0  0
    9.8880   -1.7800   22.1640 C   0  0  0  0  0  0  0  0  0  0  0  0
    8.9220   -1.7470   21.2600 N   0  0  0  0  0  0  0  0  0  0  0  0
    6.2900   -0.8280   20.2820 C   0  0  1  0  0  0  0  0  0  0  0  0
    5.3480   -0.3460   21.2540 C   0  0  0  0  0  0  0  0  0  0  0  0
    5.2100    0.8850   21.3850 O   0  0  0  0  0  0  0  0  0  0  0  0
    4.5500   -1.0750   22.0770 N   0  0  0  0  0  0  0  0  0  0  0  0
    4.9670   -1.3470   23.3330 C   0  0  0  0  0  0  0  0  0  0  0  0
    7.3620    0.2970   20.3190 C   0  0  0  0  0  0  0  0  0  0  0  0
    6.8800    0.3440   18.9430 C   0  0  0  0  0  0  0  0  0  0  0  0
    5.9220   -0.5060   18.5780 N   0  0  0  0  0  0  0  0  0  0  0  0
    5.5200   -1.3460   19.6350 C   0  0  0  0  0  0  0  0  0  0  0  0
    6.0860   -1.3520   21.1130 C   0  0  0  0  0  0  0  0  0  0  0  0
    7.1920   -0.3420   21.4830 C   0  0  0  0  0  0  0  0  0  0  0  0
    7.8810   -0.1520   22.8260 C   0  0  0  0  0  0  0  0  0  0  0  0
  1  2  2  3
  1  3  1  0
  3  4  1  0
  4  5  2  0
  5  6  1  0
  6  7  2  0
  7  8  1  0
  8  9  1  0
  9 10  3  0
  8 11  1  0
 11 12  1  0
 12 13  1  0
  8 14  1  0
 13 14  1  0
  7 15  1  0
  4 16  1  0
 15 16  2  0
  3 17  1  0
 17 18  1  1
 18 19  2  0
 18 20  1  0
 20 21  1  0
 17 22  1  0
 22 23  2  0
 23 24  1  0
 24 25  2  0
 25 26  1  0
 22 27  1  0
 26 27  2  0
 27 28  1  0
M  END
