DAR-DIA-2b784ede-32-nitrile
     RDKit          3D

 25 26  0  0  0  0  0  0  0  0999 V2000
    7.1270   -3.1530   20.1820 C   0  0  0  0  0  0  0  0  0  0  0  0
    6.3600   -2.6440   19.2250 N   0  0  0  0  0  0  0  0  0  0  0  0
    7.5070   -2.5000   21.5970 N   0  0  0  0  0  0  0  0  0  0  0  0
    7.1120   -3.2070   22.7510 C   0  0  0  0  0  0  0  0  0  0  0  0
    6.2650   -2.5260   23.7570 C   0  0  0  0  0  0  0  0  0  0  0  0
    6.3090   -3.7500   24.5300 C   0  0  0  0  0  0  0  0  0  0  0  0
    5.6180   -3.6870   25.7230 C   0  0  0  0  0  0  0  0  0  0  0  0
    5.8710   -2.8040   26.9080 C   0  0  0  0  0  0  0  0  0  0  0  0
    5.7010   -5.1190   26.2910 C   0  0  0  0  0  0  0  0  0  0  0  0
    4.1870   -3.4710   25.3890 C   0  0  0  0  0  0  0  0  0  0  0  0
    3.0670   -3.3070   25.1270 N   0  0  0  0  0  0  0  0  0  0  0  0
    6.9550   -4.8340   24.1410 O   0  0  0  0  0  0  0  0  0  0  0  0
    7.4810   -4.4820   22.9990 N   0  0  0  0  0  0  0  0  0  0  0  0
    8.1180   -1.0610   21.9950 C   0  0  1  0  0  0  0  0  0  0  0  0
    7.1210   -0.2180   22.8340 C   0  0  0  0  0  0  0  0  0  0  0  0
    5.9640   -0.0330   22.4450 O   0  0  0  0  0  0  0  0  0  0  0  0
    7.5750    0.3330   24.0290 N   0  0  0  0  0  0  0  0  0  0  0  0
    8.0670   -0.5080   25.1010 C   0  0  0  0  0  0  0  0  0  0  0  0
    9.6330   -0.9130   22.4760 C   0  0  0  0  0  0  0  0  0  0  0  0
   10.4150    0.2440   22.2690 C   0  0  0  0  0  0  0  0  0  0  0  0
   11.7310    0.3990   22.6120 N   0  0  0  0  0  0  0  0  0  0  0  0
   12.3260   -0.6360   23.1950 C   0  0  0  0  0  0  0  0  0  0  0  0
   11.6630   -1.8000   23.4900 C   0  0  0  0  0  0  0  0  0  0  0  0
   10.3150   -1.9280   23.1370 C   0  0  0  0  0  0  0  0  0  0  0  0
    9.6270   -3.1780   23.4740 C   0  0  0  0  0  0  0  0  0  0  0  0
  1  2  2  3
  1  3  1  0
  3  4  1  0
  4  5  1  0
  5  6  2  0
  6  7  1  0
  7  8  1  0
  7  9  1  0
  7 10  1  0
 10 11  3  0
  6 12  1  0
  4 13  2  0
 12 13  1  0
  3 14  1  0
 14 15  1  1
 15 16  2  0
 15 17  1  0
 17 18  1  0
 14 19  1  0
 19 20  2  0
 20 21  1  0
 21 22  2  0
 22 23  1  0
 19 24  1  0
 23 24  2  0
 24 25  1  0
M  END
