DAR-DIA-0cde14eb-4
     RDKit          3D

 21 23  0  0  0  0  0  0  0  0999 V2000
    5.1490    0.7310   21.9000 C   0  0  0  0  0  0  0  0  0  0  0  0
    5.4870    0.6170   20.4410 C   0  0  0  0  0  0  0  0  0  0  0  0
    4.8130    1.4290   19.5120 C   0  0  0  0  0  0  0  0  0  0  0  0
    5.1380    1.3210   18.1740 C   0  0  0  0  0  0  0  0  0  0  0  0
    6.0720    0.4720   17.7130 N   0  0  0  0  0  0  0  0  0  0  0  0
    6.7060   -0.3020   18.6220 C   0  0  0  0  0  0  0  0  0  0  0  0
    6.4630   -0.2760   19.9770 C   0  0  0  0  0  0  0  0  0  0  0  0
    7.1620   -1.0930   20.8780 N   0  0  0  0  0  0  0  0  0  0  0  0
    8.3630   -0.6530   21.3700 C   0  0  0  0  0  0  0  0  0  0  0  0
    8.7020    0.5180   21.2690 O   0  0  0  0  0  0  0  0  0  0  0  0
    9.3040   -1.6320   22.0600 C   0  0  0  0  0  0  0  0  0  0  0  0
   10.3220   -0.8510   22.5570 C   0  0  0  0  0  0  0  0  0  0  0  0
   11.6810   -1.1700   22.4650 C   0  0  0  0  0  0  0  0  0  0  0  0
   12.6230   -0.2790   22.9890 C   0  0  0  0  0  0  0  0  0  0  0  0
   12.1990    0.9200   23.5940 C   0  0  0  0  0  0  0  0  0  0  0  0
   10.7290    1.2580   23.6870 C   0  0  0  0  0  0  0  0  0  0  0  0
   10.1140    2.5220   24.2860 C   0  0  0  0  0  0  0  0  0  0  0  0
    8.1280    2.3040   25.0490 I   0  0  0  0  0  0  0  0  0  0  0  0
   10.0500    2.4310   22.8130 C   0  0  0  0  0  0  0  0  0  0  0  0
   10.3650    3.7570   23.4690 C   0  0  0  0  0  0  0  0  0  0  0  0
    9.8870    0.3220   23.1560 C   0  0  0  0  0  0  0  0  0  0  0  0
  1  2  1  0
  2  3  2  0
  3  4  1  0
  4  5  2  0
  5  6  1  0
  2  7  1  0
  6  7  2  0
  7  8  1  0
  8  9  1  0
  9 10  2  0
  9 11  1  0
 11 12  1  0
 12 13  2  0
 13 14  1  0
 14 15  2  0
 15 16  1  0
 16 17  1  0
 17 18  1  0
 17 19  1  0
 17 20  1  0
 19 20  1  0
 12 21  1  0
 16 21  2  0
M  END
