DAR-DIA-2b784ede-29-chloroacetamide
     RDKit          3D

 34 36  0  0  0  0  0  0  0  0999 V2000
    7.5000   -3.2900   20.3940 C   0  0  0  0  0  0  0  0  0  0  0  0
    6.2850   -2.3410   20.2230 C   0  0  0  0  0  0  0  0  0  0  0  0
    5.5210   -2.8640   19.2480 O   0  0  0  0  0  0  0  0  0  0  0  0
    6.1210   -0.9500   21.0980 N   0  0  0  0  0  0  0  0  0  0  0  0
    4.9460   -0.0730   20.9720 C   0  0  0  0  0  0  0  0  0  0  0  0
    3.8430   -0.1930   21.7730 C   0  0  0  0  0  0  0  0  0  0  0  0
    2.8790    0.7280   21.5430 N   0  0  0  0  0  0  0  0  0  0  0  0
    3.3590    1.5070   20.5380 N   0  0  0  0  0  0  0  0  0  0  0  0
    2.5230    2.6160   20.1020 C   0  0  0  0  0  0  0  0  0  0  0  0
    1.1020    2.2950   20.2210 C   0  0  0  0  0  0  0  0  0  0  0  0
    2.8930    3.1410   18.7360 C   0  0  0  0  0  0  0  0  0  0  0  0
    2.6770    3.7630   21.0860 C   0  0  0  0  0  0  0  0  0  0  0  0
    4.6240    1.0970   20.0950 C   0  0  0  0  0  0  0  0  0  0  0  0
    6.4150   -0.6750   22.5390 C   0  0  1  0  0  0  0  0  0  0  0  0
    7.6760    0.1600   23.0110 C   0  0  0  0  0  0  0  0  0  0  0  0
    8.1700    1.1080   22.0620 O   0  0  0  0  0  0  0  0  0  0  0  0
    8.1930    0.0730   24.2800 N   0  0  0  0  0  0  0  0  0  0  0  0
    9.3350    0.7550   24.5780 C   0  0  0  0  0  0  0  0  0  0  0  0
   10.5710    0.1750   23.9130 C   0  0  0  0  0  0  0  0  0  0  0  0
   11.5590    0.9880   23.3810 C   0  0  0  0  0  0  0  0  0  0  0  0
   11.5540    2.5000   23.3780 C   0  0  0  0  0  0  0  0  0  0  0  0
   12.7760    0.3800   22.7170 C   0  0  0  0  0  0  0  0  0  0  0  0
   12.8730   -0.9960   22.6310 C   0  0  0  0  0  0  0  0  0  0  0  0
   11.8630   -1.7850   23.1750 C   0  0  0  0  0  0  0  0  0  0  0  0
   10.7410   -1.2400   23.8090 C   0  0  0  0  0  0  0  0  0  0  0  0
    9.8170   -2.1590   24.3180 C   0  0  0  0  0  0  0  0  0  0  0  0
   10.3660   -3.1810   25.3300 C   0  0  0  0  0  0  0  0  0  0  0  0
    5.3340    0.2810   23.1350 C   0  0  0  0  0  0  0  0  0  0  0  0
    4.3250    0.2810   23.9380 C   0  0  0  0  0  0  0  0  0  0  0  0
    3.5750   -0.3220   24.6990 N   0  0  0  0  0  0  0  0  0  0  0  0
    3.0690    0.9400   24.7500 C   0  0  0  0  0  0  0  0  0  0  0  0
    3.8930    1.9930   23.8040 C   0  0  0  0  0  0  0  0  0  0  0  0
    5.0740    1.6050   22.9740 C   0  0  0  0  0  0  0  0  0  0  0  0
    5.8320    2.6000   22.0920 C   0  0  0  0  0  0  0  0  0  0  0  0
  1  2  1  0
  2  3  2  0
  2  4  1  0
  4  5  1  0
  5  6  1  0
  6  7  2  0
  7  8  1  0
  8  9  1  0
  9 10  1  0
  9 11  1  0
  9 12  1  0
  5 13  2  0
  8 13  1  0
  4 14  1  0
 14 15  1  6
 15 16  2  0
 15 17  1  0
 17 18  1  0
 18 19  1  0
 19 20  2  0
 20 21  1  0
 20 22  1  0
 22 23  2  0
 23 24  1  0
 19 25  1  0
 24 25  2  0
 25 26  1  0
 26 27  1  0
 14 28  1  0
 28 29  2  0
 29 30  1  0
 30 31  2  0
 31 32  1  0
 28 33  1  0
 32 33  2  0
 33 34  1  0
M  END
