DAR-DIA-fb20be43-5-nitrile
     RDKit          3D

 20 21  0  0  0  0  0  0  0  0999 V2000
    6.8560   -3.2350   19.6900 C   0  0  0  0  0  0  0  0  0  0  0  0
    5.7580   -3.6100   19.2200 N   0  0  0  0  0  0  0  0  0  0  0  0
    6.9100   -2.5370   20.8560 N   0  0  0  0  0  0  0  0  0  0  0  0
    7.7430   -1.3260   20.9730 C   0  0  0  0  0  0  0  0  0  0  0  0
    9.0050   -1.6600   21.8000 C   0  0  0  0  0  0  0  0  0  0  0  0
    8.5620   -2.2260   23.0840 N   0  0  0  0  0  0  0  0  0  0  0  0
    9.6100   -2.2930   24.0770 C   0  0  0  0  0  0  0  0  0  0  0  0
   10.7830   -1.4110   23.7900 C   0  0  0  0  0  0  0  0  0  0  0  0
   11.8050   -1.8350   22.9710 C   0  0  0  0  0  0  0  0  0  0  0  0
   12.8840   -1.0390   22.6780 C   0  0  0  0  0  0  0  0  0  0  0  0
   13.8050   -1.2960   21.9990 O   0  0  0  0  0  0  0  0  0  0  0  0
   13.4530   -1.7850   20.8100 C   0  0  0  0  0  0  0  0  0  0  0  0
   12.7920    0.3270   23.3500 C   0  0  0  0  0  0  0  0  0  0  0  0
   11.7910    0.7130   24.1460 N   0  0  0  0  0  0  0  0  0  0  0  0
   10.8000   -0.1520   24.3700 C   0  0  0  0  0  0  0  0  0  0  0  0
    9.7430    0.1990   25.2090 N   0  0  0  0  0  0  0  0  0  0  0  0
    9.2200    1.5530   25.1980 C   0  0  0  0  0  0  0  0  0  0  0  0
   10.0520    2.3690   24.3810 C   0  0  0  0  0  0  0  0  0  0  0  0
    7.7080   -3.3830   22.8870 C   0  0  0  0  0  0  0  0  0  0  0  0
    6.4590   -3.1000   22.1270 C   0  0  0  0  0  0  0  0  0  0  0  0
  1  2  2  3
  1  3  1  0
  3  4  1  0
  4  5  1  0
  5  6  1  0
  6  7  1  0
  7  8  1  0
  8  9  2  0
  9 10  1  0
 10 11  1  0
 11 12  1  0
 10 13  2  0
 13 14  1  0
  8 15  1  0
 14 15  2  0
 15 16  1  0
 16 17  1  0
 17 18  1  0
  6 19  1  0
  3 20  1  0
 19 20  1  0
M  END
