DAR-DIA-2b784ede-18-acrylamide
     RDKit          3D

 37 40  0  0  0  0  0  0  0  0999 V2000
    6.7180   -3.9210   20.2660 C   0  0  0  0  0  0  0  0  0  0  0  0
    6.7200   -3.7380   21.7980 C   0  0  0  0  0  0  0  0  0  0  0  0
    5.4310   -3.0990   22.3560 C   0  0  0  0  0  0  0  0  0  0  0  0
    4.4150   -3.8170   22.3680 O   0  0  0  0  0  0  0  0  0  0  0  0
    5.3430   -1.7500   22.8560 N   0  0  0  0  0  0  0  0  0  0  0  0
    4.7250   -0.7660   22.0520 C   0  0  0  0  0  0  0  0  0  0  0  0
    4.2920    0.1330   21.0540 C   0  0  0  0  0  0  0  0  0  0  0  0
    4.7450    0.3610   19.6680 C   0  0  0  0  0  0  0  0  0  0  0  0
    5.8510   -0.5050   19.2380 C   0  0  0  0  0  0  0  0  0  0  0  0
    6.3480   -0.3260   17.8810 C   0  0  0  0  0  0  0  0  0  0  0  0
    5.7310    1.2760   17.4600 Cl  0  0  0  0  0  0  0  0  0  0  0  0
    5.7740   -1.4730   17.2010 C   0  0  0  0  0  0  0  0  0  0  0  0
    6.7140   -1.8180   15.9950 C   0  0  0  0  0  0  0  0  0  0  0  0
    8.0290   -1.7090   16.6640 C   0  0  0  0  0  0  0  0  0  0  0  0
    7.7950   -0.5600   17.6460 C   0  0  0  0  0  0  0  0  0  0  0  0
    6.3440   -1.3680   20.0170 N   0  0  0  0  0  0  0  0  0  0  0  0
    5.7470   -1.4280   21.3490 C   0  0  0  0  0  0  0  0  0  0  0  0
    6.2860   -1.0640   23.8070 C   0  0  1  0  0  0  0  0  0  0  0  0
    7.3110   -1.8460   24.3390 C   0  0  0  0  0  0  0  0  0  0  0  0
    7.1090   -2.6020   25.2880 O   0  0  0  0  0  0  0  0  0  0  0  0
    8.5960   -1.7410   23.7370 N   0  0  0  0  0  0  0  0  0  0  0  0
    9.4500   -0.5410   23.7440 C   0  0  0  0  0  0  0  0  0  0  0  0
   10.2840   -1.8210   23.4840 C   0  0  0  0  0  0  0  0  0  0  0  0
    9.5460   -2.9960   23.4780 C   0  0  0  0  0  0  0  0  0  0  0  0
   11.6540   -2.0140   23.2550 C   0  0  0  0  0  0  0  0  0  0  0  0
   12.5660   -0.8790   23.2350 C   0  0  0  0  0  0  0  0  0  0  0  0
   11.9160    0.4010   23.4760 C   0  0  0  0  0  0  0  0  0  0  0  0
   10.5180    0.4850   23.6980 C   0  0  0  0  0  0  0  0  0  0  0  0
   10.1980    1.8370   23.8880 C   0  0  0  0  0  0  0  0  0  0  0  0
   11.0750    2.7500   23.3160 C   0  0  0  0  0  0  0  0  0  0  0  0
    6.8360    0.1390   23.0640 C   0  0  0  0  0  0  0  0  0  0  0  0
    6.4410    1.5260   23.4990 C   0  0  0  0  0  0  0  0  0  0  0  0
    6.8140    2.7120   22.9700 N   0  0  0  0  0  0  0  0  0  0  0  0
    7.6470    2.6360   21.9210 C   0  0  0  0  0  0  0  0  0  0  0  0
    8.1420    1.3260   21.3580 C   0  0  0  0  0  0  0  0  0  0  0  0
    7.7080    0.0400   21.9650 C   0  0  0  0  0  0  0  0  0  0  0  0
    8.2210   -1.2540   21.3710 C   0  0  0  0  0  0  0  0  0  0  0  0
  1  2  1  0
  2  3  1  0
  3  4  2  0
  3  5  1  0
  5  6  1  0
  6  7  2  0
  7  8  1  0
  8  9  2  0
  9 10  1  0
 10 11  1  0
 10 12  1  0
 12 13  1  0
 13 14  1  0
 10 15  1  0
 14 15  1  0
  9 16  1  0
  6 17  1  0
 16 17  2  0
  5 18  1  0
 18 19  1  6
 19 20  2  0
 19 21  1  0
 21 22  1  0
 22 23  2  0
 23 24  1  0
 23 25  1  0
 25 26  2  0
 26 27  1  0
 22 28  1  0
 27 28  2  0
 28 29  1  0
 29 30  1  0
 18 31  1  0
 31 32  2  0
 32 33  1  0
 33 34  2  0
 34 35  1  0
 31 36  1  0
 35 36  2  0
 36 37  1  0
M  END
