DAR-DIA-2b784ede-33-nitrile
     RDKit          3D

 24 25  0  0  0  0  0  0  0  0999 V2000
    7.2140   -2.9180   20.1050 C   0  0  0  0  0  0  0  0  0  0  0  0
    6.3400   -2.4640   19.2190 N   0  0  0  0  0  0  0  0  0  0  0  0
    7.5850   -2.2400   21.4890 N   0  0  0  0  0  0  0  0  0  0  0  0
    7.2610   -3.0590   22.6640 C   0  0  0  0  0  0  0  0  0  0  0  0
    6.0050   -3.5310   22.7620 C   0  0  0  0  0  0  0  0  0  0  0  0
    6.0150   -4.2530   23.9040 C   0  0  0  0  0  0  0  0  0  0  0  0
    4.9650   -4.9480   24.4470 C   0  0  0  0  0  0  0  0  0  0  0  0
    5.1460   -5.4530   25.8150 C   0  0  0  0  0  0  0  0  0  0  0  0
    4.7330   -6.1530   23.5230 C   0  0  0  0  0  0  0  0  0  0  0  0
    3.5130   -4.0640   24.4500 Cl  0  0  0  0  0  0  0  0  0  0  0  0
    7.2390   -4.2340   24.5260 O   0  0  0  0  0  0  0  0  0  0  0  0
    8.0690   -3.4360   23.7000 N   0  0  0  0  0  0  0  0  0  0  0  0
    8.1150   -0.8760   21.8960 C   0  0  1  0  0  0  0  0  0  0  0  0
    7.2010   -0.0470   22.5670 C   0  0  0  0  0  0  0  0  0  0  0  0
    6.3120   -0.6910   23.0960 O   0  0  0  0  0  0  0  0  0  0  0  0
    7.3570    1.3340   22.5700 N   0  0  0  0  0  0  0  0  0  0  0  0
    7.6130    2.1530   21.4460 C   0  0  0  0  0  0  0  0  0  0  0  0
    9.5120   -0.7700   22.3490 C   0  0  0  0  0  0  0  0  0  0  0  0
   10.3580    0.5360   22.3170 C   0  0  0  0  0  0  0  0  0  0  0  0
   11.6720    0.6190   22.6850 N   0  0  0  0  0  0  0  0  0  0  0  0
   12.3520   -0.5890   23.1350 C   0  0  0  0  0  0  0  0  0  0  0  0
   11.6600   -1.7750   23.2300 C   0  0  0  0  0  0  0  0  0  0  0  0
   10.1950   -1.8610   22.8360 C   0  0  0  0  0  0  0  0  0  0  0  0
    9.5280   -3.0310   22.9520 C   0  0  0  0  0  0  0  0  0  0  0  0
  1  2  2  3
  1  3  1  0
  3  4  1  0
  4  5  1  0
  5  6  2  0
  6  7  1  0
  7  8  1  0
  7  9  1  0
  7 10  1  0
  6 11  1  0
  4 12  2  0
 11 12  1  0
  3 13  1  0
 13 14  1  1
 14 15  2  0
 14 16  1  0
 16 17  1  0
 13 18  1  0
 18 19  2  0
 19 20  1  0
 20 21  2  0
 21 22  1  0
 18 23  1  0
 22 23  2  0
 23 24  1  0
M  END
