DAR-DIA-caba39e3-1-chloroacetamide
     RDKit          3D

 20 22  0  0  0  0  0  0  0  0999 V2000
    7.3570   -2.9860   18.8530 C   0  0  0  0  0  0  0  0  0  0  0  0
    6.5200   -3.3450   20.0510 C   0  0  0  0  0  0  0  0  0  0  0  0
    5.6170   -4.1900   19.8420 O   0  0  0  0  0  0  0  0  0  0  0  0
    6.8110   -2.7360   21.3240 N   0  0  0  0  0  0  0  0  0  0  0  0
    6.3730   -3.3710   22.5440 C   0  0  0  0  0  0  0  0  0  0  0  0
    7.3290   -3.8130   23.4690 C   0  0  0  0  0  0  0  0  0  0  0  0
    6.9760   -4.6720   24.5240 C   0  0  0  0  0  0  0  0  0  0  0  0
    8.0210   -5.1370   25.4980 C   0  0  0  0  0  0  0  0  0  0  0  0
    9.3170   -4.6840   25.3040 C   0  0  0  0  0  0  0  0  0  0  0  0
    9.6610   -3.8340   24.2650 C   0  0  0  0  0  0  0  0  0  0  0  0
    8.6680   -3.4120   23.3660 C   0  0  0  0  0  0  0  0  0  0  0  0
    9.1690   -2.4720   22.2500 C   0  0  2  0  0  0  0  0  0  0  0  0
   10.2450   -1.4050   22.6470 C   0  0  0  0  0  0  0  0  0  0  0  0
   11.6090   -1.5150   22.2910 C   0  0  0  0  0  0  0  0  0  0  0  0
   12.5930   -0.4740   22.6960 C   0  0  0  0  0  0  0  0  0  0  0  0
   12.1300    0.6190   23.4320 C   0  0  0  0  0  0  0  0  0  0  0  0
   10.7900    0.7310   23.7830 C   0  0  0  0  0  0  0  0  0  0  0  0
   10.3530    1.7700   24.4760 F   0  0  0  0  0  0  0  0  0  0  0  0
    9.8830   -0.2580   23.3990 C   0  0  0  0  0  0  0  0  0  0  0  0
    7.9800   -1.8380   21.4720 C   0  0  0  0  0  0  0  0  0  0  0  0
  1  2  1  0
  2  3  2  0
  2  4  1  0
  4  5  1  0
  5  6  1  0
  6  7  1  0
  7  8  2  0
  8  9  1  0
  9 10  2  0
  6 11  2  0
 10 11  1  0
 11 12  1  0
 12 13  1  1
 13 14  2  0
 14 15  1  0
 15 16  2  0
 16 17  1  0
 17 18  1  0
 13 19  1  0
 17 19  2  0
  4 20  1  0
 12 20  1  0
M  END
