DAR-DIA-43a5904b-1
     RDKit          3D

 22 24  0  0  0  0  0  0  0  0999 V2000
    9.9630    3.0120   22.3600 N   0  0  0  0  0  0  0  0  0  0  0  0
    9.1710    1.8900   22.3030 C   0  0  0  0  0  0  0  0  0  0  0  0
    8.7550    1.5340   21.1990 O   0  0  0  0  0  0  0  0  0  0  0  0
    8.8730    1.2180   23.6510 C   0  0  1  0  0  0  0  0  0  0  0  0
    7.3330    1.1240   23.6210 C   0  0  0  0  0  0  0  0  0  0  0  0
    7.0940   -0.3460   23.4860 C   0  0  0  0  0  0  0  0  0  0  0  0
    5.7140   -0.8910   23.3190 C   0  0  0  0  0  0  0  0  0  0  0  0
    5.2320   -1.7340   24.3030 C   0  0  0  0  0  0  0  0  0  0  0  0
    5.9220   -2.9190   24.6290 C   0  0  0  0  0  0  0  0  0  0  0  0
    5.4400   -3.7680   25.6250 C   0  0  0  0  0  0  0  0  0  0  0  0
    4.1860   -3.4250   26.3490 C   0  0  0  0  0  0  0  0  0  0  0  0
    3.5180   -2.2360   26.0000 N   0  0  0  0  0  0  0  0  0  0  0  0
    4.0260   -1.3950   24.9930 C   0  0  0  0  0  0  0  0  0  0  0  0
    8.2010   -1.1460   23.5360 C   0  0  0  0  0  0  0  0  0  0  0  0
    9.3110   -0.3300   23.7510 C   0  0  1  0  0  0  0  0  0  0  0  0
   10.4900   -0.6580   23.1560 C   0  0  0  0  0  0  0  0  0  0  0  0
   10.7530   -1.8830   22.5410 C   0  0  0  0  0  0  0  0  0  0  0  0
   12.0130   -2.1180   21.9490 C   0  0  0  0  0  0  0  0  0  0  0  0
   12.9560   -1.1640   21.9820 C   0  0  0  0  0  0  0  0  0  0  0  0
   12.6370    0.0010   22.5890 C   0  0  0  0  0  0  0  0  0  0  0  0
   13.6920    1.2140   22.6490 Cl  0  0  0  0  0  0  0  0  0  0  0  0
   11.4620    0.2760   23.1680 C   0  0  0  0  0  0  0  0  0  0  0  0
  1  2  1  0
  2  3  2  0
  4  2  1  6
  4  5  1  0
  5  6  1  0
  6  7  1  0
  7  8  1  0
  8  9  2  0
  9 10  1  0
 10 11  2  0
 11 12  1  0
  8 13  1  0
 12 13  2  0
  6 14  2  0
  4 15  1  0
 14 15  1  0
 15 16  1  6
 16 17  2  0
 17 18  1  0
 18 19  2  0
 19 20  1  0
 20 21  1  0
 16 22  1  0
 20 22  2  0
M  END
