DAR-DIA-2b784ede-22-vinylsulfonamide
     RDKit          3D

 31 33  0  0  0  0  0  0  0  0999 V2000
    7.5840   -3.5360   20.5160 C   0  0  0  0  0  0  0  0  0  0  0  0
    7.0870   -2.0770   20.6040 C   0  0  0  0  0  0  0  0  0  0  0  0
    5.9070   -1.8450   21.9600 S   0  0  0  0  0  0  0  0  0  0  0  0
    4.6990   -2.9670   21.5980 O   0  0  0  0  0  0  0  0  0  0  0  0
    5.5550   -0.4100   21.9760 O   0  0  0  0  0  0  0  0  0  0  0  0
    6.9490   -1.8100   23.4490 N   0  0  0  0  0  0  0  0  0  0  0  0
    6.0790   -1.9300   24.5410 C   0  0  0  0  0  0  0  0  0  0  0  0
    5.1670   -2.0570   25.6870 C   0  0  0  0  0  0  0  0  0  0  0  0
    5.0520   -3.2250   26.3420 C   0  0  0  0  0  0  0  0  0  0  0  0
    5.6510   -4.4970   26.1830 C   0  0  0  0  0  0  0  0  0  0  0  0
    5.2300   -5.5600   27.2030 C   0  0  0  0  0  0  0  0  0  0  0  0
    3.7570   -5.9730   27.0010 C   0  0  0  0  0  0  0  0  0  0  0  0
    2.6560   -6.2920   26.8380 N   0  0  0  0  0  0  0  0  0  0  0  0
    5.4090   -4.9280   28.5950 C   0  0  0  0  0  0  0  0  0  0  0  0
    5.4900   -6.0810   29.5970 C   0  0  0  0  0  0  0  0  0  0  0  0
    6.2250   -7.1810   28.8070 C   0  0  0  0  0  0  0  0  0  0  0  0
    6.1380   -6.7960   27.3010 C   0  0  0  0  0  0  0  0  0  0  0  0
    6.4840   -4.4600   25.1340 C   0  0  0  0  0  0  0  0  0  0  0  0
    6.6710   -3.2610   24.3900 C   0  0  0  0  0  0  0  0  0  0  0  0
    7.9640   -0.5950   23.7580 C   0  0  1  0  0  0  0  0  0  0  0  0
    7.9590   -0.3960   25.1530 C   0  0  0  0  0  0  0  0  0  0  0  0
    8.9740   -0.5850   25.8170 O   0  0  0  0  0  0  0  0  0  0  0  0
    6.8190    0.0330   25.7820 N   0  0  0  0  0  0  0  0  0  0  0  0
    6.6050   -0.0120   27.2130 C   0  0  0  0  0  0  0  0  0  0  0  0
    9.5030   -0.5660   23.3580 C   0  0  0  0  0  0  0  0  0  0  0  0
   10.2350   -1.6060   22.6510 C   0  0  0  0  0  0  0  0  0  0  0  0
   11.5490   -1.6170   22.2810 N   0  0  0  0  0  0  0  0  0  0  0  0
   12.5830   -0.7110   22.4340 C   0  0  0  0  0  0  0  0  0  0  0  0
   11.7840    0.3730   23.1990 C   0  0  0  0  0  0  0  0  0  0  0  0
   10.4230    0.4640   23.6210 C   0  0  0  0  0  0  0  0  0  0  0  0
   10.1190    1.6630   24.3080 C   0  0  0  0  0  0  0  0  0  0  0  0
  1  2  1  0
  2  3  1  0
  3  4  2  0
  3  5  2  0
  3  6  1  0
  6  7  1  0
  7  8  2  0
  8  9  1  0
  9 10  2  0
 10 11  1  0
 11 12  1  0
 12 13  3  0
 11 14  1  0
 14 15  1  0
 15 16  1  0
 11 17  1  0
 16 17  1  0
 10 18  1  0
  7 19  1  0
 18 19  2  0
  6 20  1  0
 20 21  1  1
 21 22  2  0
 21 23  1  0
 23 24  1  0
 20 25  1  0
 25 26  2  0
 26 27  1  0
 27 28  2  0
 28 29  1  0
 25 30  1  0
 29 30  2  0
 30 31  1  0
M  END
