DAR-DIA-eace69ff-15
     RDKit          3D

 29 32  0  0  0  0  0  0  0  0999 V2000
   13.3750   -2.0760   20.8050 C   0  0  0  0  0  0  0  0  0  0  0  0
   13.2140   -1.9270   22.2370 C   0  0  0  0  0  0  0  0  0  0  0  0
   12.3930   -0.7470   22.6810 C   0  0  0  0  0  0  0  0  0  0  0  0
   11.2070   -1.2980   23.0840 C   0  0  0  0  0  0  0  0  0  0  0  0
   10.1370   -0.5990   23.6030 C   0  0  0  0  0  0  0  0  0  0  0  0
    9.0790   -1.1290   23.9790 O   0  0  0  0  0  0  0  0  0  0  0  0
    8.8610   -2.5060   23.5980 C   0  0  0  0  0  0  0  0  0  0  0  0
    8.8210   -3.2620   24.8120 C   0  0  0  0  0  0  0  0  0  0  0  0
    7.5980   -3.9150   25.1450 C   0  0  0  0  0  0  0  0  0  0  0  0
    6.9540   -4.6090   23.9980 C   0  0  0  0  0  0  0  0  0  0  0  0
    7.1960   -3.5810   23.0280 C   0  0  0  0  0  0  0  0  0  0  0  0
    7.7750   -2.6100   22.7280 C   0  0  0  0  0  0  0  0  0  0  0  0
   10.4180    0.9160   23.6520 C   0  0  0  0  0  0  0  0  0  0  0  0
   11.6260    1.4080   23.2070 C   0  0  0  0  0  0  0  0  0  0  0  0
   12.6510    0.6190   22.7260 C   0  0  0  0  0  0  0  0  0  0  0  0
   11.6950    2.9210   23.3000 C   0  0  0  0  0  0  0  0  0  0  0  0
   12.7000    4.0320   22.9540 C   0  0  0  0  0  0  0  0  0  0  0  0
   12.1820    5.3720   23.2920 N   0  0  0  0  0  0  0  0  0  0  0  0
   10.9700    5.6790   22.5810 C   0  0  0  0  0  0  0  0  0  0  0  0
   11.9300    5.6480   24.7090 C   0  0  0  0  0  0  0  0  0  0  0  0
   10.4450    3.2280   23.8620 C   0  0  0  0  0  0  0  0  0  0  0  0
    9.7210    2.0510   24.0580 N   0  0  0  0  0  0  0  0  0  0  0  0
    8.3770    2.0980   24.6240 C   0  0  0  0  0  0  0  0  0  0  0  0
    7.5620    1.1980   24.4760 O   0  0  0  0  0  0  0  0  0  0  0  0
    8.0140    3.3580   25.4220 C   0  0  0  0  0  0  0  0  0  0  0  0
    6.8610    4.0670   25.1860 C   0  0  0  0  0  0  0  0  0  0  0  0
    6.7150    5.2360   26.0690 C   0  0  0  0  0  0  0  0  0  0  0  0
    7.9670    5.1680   26.9200 C   0  0  0  0  0  0  0  0  0  0  0  0
    8.7890    4.0250   26.5450 C   0  0  0  0  0  0  0  0  0  0  0  0
  1  2  1  0
  2  3  1  0
  3  4  2  0
  4  5  1  0
  5  6  1  0
  6  7  1  0
  7  8  1  0
  8  9  1  0
  9 10  1  0
 10 11  1  0
  7 12  1  0
 11 12  1  0
  5 13  2  0
 13 14  1  0
  3 15  1  0
 14 15  2  0
 14 16  1  0
 16 17  1  0
 17 18  1  0
 18 19  1  0
 18 20  1  0
 16 21  2  0
 13 22  1  0
 21 22  1  0
 22 23  1  0
 23 24  2  0
 23 25  1  0
 25 26  2  0
 26 27  1  0
 27 28  2  0
 25 29  1  0
 28 29  1  0
M  END
