DAR-DIA-43a5904b-4
     RDKit          3D

 25 27  0  0  0  0  0  0  0  0999 V2000
   10.2300    2.8050   22.4410 N   0  0  0  0  0  0  0  0  0  0  0  0
    9.1520    1.9700   22.3580 C   0  0  0  0  0  0  0  0  0  0  0  0
    8.6410    1.7650   21.2510 O   0  0  0  0  0  0  0  0  0  0  0  0
    8.6710    1.3880   23.6780 C   0  0  1  0  0  0  0  0  0  0  0  0
    7.2770    0.8350   23.2870 C   0  0  0  0  0  0  0  0  0  0  0  0
    7.3040   -0.5430   23.8560 C   0  0  0  0  0  0  0  0  0  0  0  0
    6.0680   -1.3920   23.8850 C   0  0  0  0  0  0  0  0  0  0  0  0
    6.0510   -2.6740   23.3560 C   0  0  0  0  0  0  0  0  0  0  0  0
    7.0680   -3.6120   23.6020 C   0  0  0  0  0  0  0  0  0  0  0  0
    6.9960   -4.8930   23.0460 C   0  0  0  0  0  0  0  0  0  0  0  0
    5.8370   -5.2720   22.1860 C   0  0  0  0  0  0  0  0  0  0  0  0
    4.8320   -4.3020   21.9610 N   0  0  0  0  0  0  0  0  0  0  0  0
    4.9380   -3.0260   22.5360 C   0  0  0  0  0  0  0  0  0  0  0  0
    8.5120   -0.9570   24.3430 C   0  0  0  0  0  0  0  0  0  0  0  0
    9.4600    0.0700   24.1620 C   0  0  1  0  0  0  0  0  0  0  0  0
   10.6380   -0.3100   23.5090 C   0  0  0  0  0  0  0  0  0  0  0  0
   10.7280   -1.5610   22.7610 C   0  0  0  0  0  0  0  0  0  0  0  0
   11.9400   -2.0070   22.0620 C   0  0  0  0  0  0  0  0  0  0  0  0
   13.0710   -1.1990   22.1080 C   0  0  0  0  0  0  0  0  0  0  0  0
   12.7830   -0.1140   22.8360 C   0  0  0  0  0  0  0  0  0  0  0  0
   11.6830   -0.9460   22.7690 C   0  0  0  0  0  0  0  0  0  0  0  0
   11.4880   -1.6060   23.9640 F   0  0  0  0  0  0  0  0  0  0  0  0
   11.8130   -1.9270   21.8140 F   0  0  0  0  0  0  0  0  0  0  0  0
   10.5310   -0.2660   22.4630 F   0  0  0  0  0  0  0  0  0  0  0  0
   11.7990    0.4970   23.5480 C   0  0  0  0  0  0  0  0  0  0  0  0
  1  2  1  0
  2  3  2  0
  4  2  1  6
  4  5  1  0
  5  6  1  0
  6  7  1  0
  7  8  1  0
  8  9  2  0
  9 10  1  0
 10 11  2  0
 11 12  1  0
  8 13  1  0
 12 13  2  0
  6 14  2  0
  4 15  1  0
 14 15  1  0
 15 16  1  6
 16 17  2  0
 17 18  1  0
 18 19  2  0
 19 20  1  0
 20 21  1  0
 21 22  1  0
 21 23  1  0
 21 24  1  0
 16 25  1  0
 20 25  2  0
M  END
