DAR-DIA-842b4336-14-vinylsulfonamide
     RDKit          3D

 20 21  0  0  0  0  0  0  0  0999 V2000
    8.5650   -3.9660   20.2410 C   0  0  0  0  0  0  0  0  0  0  0  0
    7.3150   -3.2060   19.9820 C   0  0  0  0  0  0  0  0  0  0  0  0
    6.6770   -2.9450   21.5760 S   0  0  0  0  0  0  0  0  0  0  0  0
    5.0070   -3.2050   21.2800 O   0  0  0  0  0  0  0  0  0  0  0  0
    7.2700   -3.9990   22.3930 O   0  0  0  0  0  0  0  0  0  0  0  0
    7.9520   -1.5230   22.0210 C   0  0  0  0  0  0  0  0  0  0  0  0
    7.7230    0.0910   22.4820 C   0  0  0  0  0  0  0  0  0  0  0  0
    9.2290    0.3420   22.6520 C   0  0  0  0  0  0  0  0  0  0  0  0
    9.9060   -0.6850   22.3970 C   0  0  0  0  0  0  0  0  0  0  0  0
    8.5080   -0.6760   22.0950 C   0  0  0  0  0  0  0  0  0  0  0  0
    8.3590    0.5640   21.2450 C   0  0  0  0  0  0  0  0  0  0  0  0
    8.1000    1.4950   20.4910 O   0  0  0  0  0  0  0  0  0  0  0  0
    7.0560    0.1120   20.4740 N   0  0  0  0  0  0  0  0  0  0  0  0
    7.0890   -1.0440   19.6800 C   0  0  0  0  0  0  0  0  0  0  0  0
    7.1830   -0.7530   20.9990 C   0  0  0  0  0  0  0  0  0  0  0  0
    6.7760    0.6610   20.3870 C   0  0  0  0  0  0  0  0  0  0  0  0
    6.4100    1.5670   19.0770 C   0  0  0  0  0  0  0  0  0  0  0  0
    6.5440    0.5910   18.0870 N   0  0  0  0  0  0  0  0  0  0  0  0
    6.8120   -0.2120   18.8710 C   0  0  0  0  0  0  0  0  0  0  0  0
    9.6100   -2.1560   21.9090 S   0  0  0  0  0  0  0  0  0  0  0  0
  1  2  1  0
  3  2  1  0
  3  4  2  0
  3  5  2  0
  3  6  1  0
  6  7  2  0
  7  8  1  0
  8  9  2  0
  9 10  1  0
 10 11  1  0
 11 12  2  0
 11 13  1  0
 13 14  1  0
 14 15  2  0
 15 16  1  0
 16 17  2  0
 17 18  1  0
 14 19  1  0
 18 19  2  0
  6 20  1  0
  9 20  1  0
M  END
