DAR-DIA-43a5904b-8
     RDKit          3D

 21 23  0  0  0  0  0  0  0  0999 V2000
   10.1640    3.0410   22.3340 N   0  0  0  0  0  0  0  0  0  0  0  0
    9.3260    1.9570   22.3280 C   0  0  0  0  0  0  0  0  0  0  0  0
    8.8430    1.5940   21.2540 O   0  0  0  0  0  0  0  0  0  0  0  0
    9.0640    1.3340   23.6940 C   0  0  1  0  0  0  0  0  0  0  0  0
    7.5380    1.0380   23.6070 C   0  0  0  0  0  0  0  0  0  0  0  0
    7.4410   -0.4580   23.5670 C   0  0  0  0  0  0  0  0  0  0  0  0
    6.1190   -1.1140   23.3550 C   0  0  0  0  0  0  0  0  0  0  0  0
    6.0220   -2.4350   22.9500 C   0  0  0  0  0  0  0  0  0  0  0  0
    4.8620   -2.9250   22.3810 C   0  0  0  0  0  0  0  0  0  0  0  0
    4.8670   -4.3220   21.9860 N   0  0  0  0  0  0  0  0  0  0  0  0
    6.0730   -4.7340   22.3260 C   0  0  0  0  0  0  0  0  0  0  0  0
    7.2220   -3.6760   23.0550 S   0  0  0  0  0  0  0  0  0  0  0  0
    8.6300   -1.0980   23.7420 C   0  0  0  0  0  0  0  0  0  0  0  0
    9.7620   -0.0900   23.9690 C   0  0  1  0  0  0  0  0  0  0  0  0
   10.8870   -0.3720   23.3140 C   0  0  0  0  0  0  0  0  0  0  0  0
   12.0730    0.4490   23.3470 C   0  0  0  0  0  0  0  0  0  0  0  0
   13.2680    0.1250   22.6350 C   0  0  0  0  0  0  0  0  0  0  0  0
   13.3210   -1.0390   21.8580 C   0  0  0  0  0  0  0  0  0  0  0  0
   12.1450   -1.6500   21.9610 C   0  0  0  0  0  0  0  0  0  0  0  0
   12.1410   -0.2310   22.9060 Cl  0  0  0  0  0  0  0  0  0  0  0  0
   10.9560   -1.5500   22.5270 C   0  0  0  0  0  0  0  0  0  0  0  0
  1  2  1  0
  2  3  2  0
  4  2  1  6
  4  5  1  0
  5  6  1  0
  6  7  1  0
  7  8  1  0
  8  9  2  0
  9 10  1  0
 10 11  2  0
  8 12  1  0
 11 12  1  0
  6 13  2  0
  4 14  1  0
 13 14  1  0
 14 15  1  6
 15 16  2  0
 16 17  1  0
 17 18  2  0
 18 19  1  0
 19 20  1  0
 15 21  1  0
 19 21  2  0
M  END
