DAR-DIA-2b784ede-8-nitrile
     RDKit          3D

 31 33  0  0  0  0  0  0  0  0999 V2000
    7.5900   -3.2180   19.4510 C   0  0  0  0  0  0  0  0  0  0  0  0
    6.4480   -3.5400   18.9330 N   0  0  0  0  0  0  0  0  0  0  0  0
    7.5760   -2.0950   20.3540 N   0  0  0  0  0  0  0  0  0  0  0  0
    6.6330   -0.9130   20.1520 C   0  0  0  0  0  0  0  0  0  0  0  0
    5.9180    0.2060   19.5450 C   0  0  0  0  0  0  0  0  0  0  0  0
    6.0920    0.6410   18.2540 C   0  0  0  0  0  0  0  0  0  0  0  0
    6.9780    0.0020   17.4270 C   0  0  0  0  0  0  0  0  0  0  0  0
    7.2090    0.4380   16.0270 C   0  0  0  0  0  0  0  0  0  0  0  0
    8.7670    0.1660   15.2730 Cl  0  0  0  0  0  0  0  0  0  0  0  0
    7.7350   -1.0790   17.7430 C   0  0  0  0  0  0  0  0  0  0  0  0
    7.3500   -1.2440   19.0490 N   0  0  0  0  0  0  0  0  0  0  0  0
    8.0920   -2.4340   21.7280 C   0  0  1  0  0  0  0  0  0  0  0  0
    7.9890   -1.3760   22.6780 C   0  0  0  0  0  0  0  0  0  0  0  0
    7.0640   -0.5640   22.6700 O   0  0  0  0  0  0  0  0  0  0  0  0
    9.0540   -1.3370   23.6430 N   0  0  0  0  0  0  0  0  0  0  0  0
   10.0270   -0.3030   23.5430 C   0  0  0  0  0  0  0  0  0  0  0  0
   11.3000    0.6780   23.3810 C   0  0  0  0  0  0  0  0  0  0  0  0
   11.0810    2.0670   23.5210 C   0  0  0  0  0  0  0  0  0  0  0  0
   12.6210    0.3810   23.1020 C   0  0  0  0  0  0  0  0  0  0  0  0
   12.9510   -0.9140   22.9420 C   0  0  0  0  0  0  0  0  0  0  0  0
   12.0400   -1.8690   23.0720 C   0  0  0  0  0  0  0  0  0  0  0  0
   10.7190   -1.5890   23.3500 C   0  0  0  0  0  0  0  0  0  0  0  0
    9.9960   -2.7890   23.4560 C   0  0  0  0  0  0  0  0  0  0  0  0
   10.1340   -3.3780   24.8490 C   0  0  0  0  0  0  0  0  0  0  0  0
    7.3240   -3.7380   22.0400 C   0  0  0  0  0  0  0  0  0  0  0  0
    5.8520   -3.7660   21.7790 C   0  0  0  0  0  0  0  0  0  0  0  0
    4.9970   -4.7820   21.9570 N   0  0  0  0  0  0  0  0  0  0  0  0
    5.5800   -5.9060   22.4280 C   0  0  0  0  0  0  0  0  0  0  0  0
    6.9570   -6.0360   22.7180 C   0  0  0  0  0  0  0  0  0  0  0  0
    7.8390   -4.9710   22.5340 C   0  0  0  0  0  0  0  0  0  0  0  0
    9.1900   -5.1910   22.8390 C   0  0  0  0  0  0  0  0  0  0  0  0
  1  2  2  3
  1  3  1  0
  3  4  1  0
  4  5  2  0
  5  6  1  0
  6  7  2  0
  7  8  1  0
  8  9  1  0
  7 10  1  0
  4 11  1  0
 10 11  2  0
  3 12  1  0
 12 13  1  1
 13 14  2  0
 13 15  1  0
 15 16  1  0
 16 17  2  0
 17 18  1  0
 17 19  1  0
 19 20  2  0
 20 21  1  0
 16 22  1  0
 21 22  2  0
 22 23  1  0
 23 24  1  0
 12 25  1  0
 25 26  2  0
 26 27  1  0
 27 28  2  0
 28 29  1  0
 25 30  1  0
 29 30  2  0
 30 31  1  0
M  END
