DAR-DIA-842b4336-15-vinylsulfonamide
     RDKit          3D

 20 21  0  0  0  0  0  0  0  0999 V2000
    6.8620   -5.7360   20.9880 C   0  0  0  0  0  0  0  0  0  0  0  0
    6.8620   -5.0570   22.3850 C   0  0  0  0  0  0  0  0  0  0  0  0
    6.4990   -3.3360   22.3430 S   0  0  0  0  0  0  0  0  0  0  0  0
    5.1240   -3.5180   21.3970 O   0  0  0  0  0  0  0  0  0  0  0  0
    6.2870   -2.9320   23.7200 O   0  0  0  0  0  0  0  0  0  0  0  0
    8.2600   -2.6790   21.9790 C   0  0  0  0  0  0  0  0  0  0  0  0
    9.5330   -1.8240   21.8710 C   0  0  0  0  0  0  0  0  0  0  0  0
    9.3820   -0.6720   22.3720 N   0  0  0  0  0  0  0  0  0  0  0  0
    8.2530   -0.2840   22.9460 C   0  0  0  0  0  0  0  0  0  0  0  0
    9.0440    0.7380   22.9530 C   0  0  0  0  0  0  0  0  0  0  0  0
    8.7250    1.0640   21.6230 C   0  0  0  0  0  0  0  0  0  0  0  0
    9.1560    2.1010   21.1860 O   0  0  0  0  0  0  0  0  0  0  0  0
    7.8600    0.0010   20.9910 N   0  0  0  0  0  0  0  0  0  0  0  0
    7.0370    0.4050   20.0280 C   0  0  0  0  0  0  0  0  0  0  0  0
    5.8850    1.3150   20.3680 C   0  0  0  0  0  0  0  0  0  0  0  0
    4.9350    1.7930   19.2660 C   0  0  0  0  0  0  0  0  0  0  0  0
    5.1780    1.3730   18.0210 C   0  0  0  0  0  0  0  0  0  0  0  0
    6.2230    0.5360   17.7110 N   0  0  0  0  0  0  0  0  0  0  0  0
    7.1290    0.0530   18.6690 C   0  0  0  0  0  0  0  0  0  0  0  0
    7.7570   -1.5560   22.6690 O   0  0  0  0  0  0  0  0  0  0  0  0
  1  2  1  0
  3  2  1  0
  3  4  2  0
  3  5  2  0
  3  6  1  0
  6  7  2  0
  7  8  1  0
  8  9  2  0
  9 10  1  0
 10 11  1  0
 11 12  2  0
 11 13  1  0
 13 14  1  0
 14 15  2  0
 15 16  1  0
 16 17  2  0
 17 18  1  0
 14 19  1  0
 18 19  2  0
  6 20  1  0
  9 20  1  0
M  END
