DAR-DIA-23aa0b97-20
     RDKit          3D

 20 22  0  0  0  0  0  0  0  0999 V2000
    8.8440    1.3640   21.3220 O   0  0  0  0  0  0  0  0  0  0  0  0
    8.7800    0.2810   21.9460 C   0  0  0  0  0  0  0  0  0  0  0  0
    7.9520   -0.8650   21.4330 C   0  0  0  0  0  0  0  0  0  0  0  0
    7.1900   -0.3580   20.2330 C   0  0  0  0  0  0  0  0  0  0  0  0
    7.1940   -0.4420   18.7850 C   0  0  0  0  0  0  0  0  0  0  0  0
    6.1650    0.3230   18.2240 N   0  0  0  0  0  0  0  0  0  0  0  0
    5.2550    1.0610   19.1150 C   0  0  0  0  0  0  0  0  0  0  0  0
    5.3000    1.0930   20.7050 C   0  0  0  0  0  0  0  0  0  0  0  0
    4.1320    1.9710   20.3970 C   0  0  0  0  0  0  0  0  0  0  0  0
    3.8560    2.1410   19.0700 C   0  0  0  0  0  0  0  0  0  0  0  0
    4.7300    1.4500   18.1810 C   0  0  0  0  0  0  0  0  0  0  0  0
    5.8120    0.6320   18.6220 C   0  0  0  0  0  0  0  0  0  0  0  0
    6.1540    0.4210   20.0690 C   0  0  0  0  0  0  0  0  0  0  0  0
    9.4070   -0.0370   23.1310 N   0  0  0  0  0  0  0  0  0  0  0  0
   10.3880   -1.0800   23.3100 C   0  0  0  0  0  0  0  0  0  0  0  0
   11.5820   -1.7810   23.4190 C   0  0  0  0  0  0  0  0  0  0  0  0
   12.9310   -1.2360   23.2820 C   0  0  0  0  0  0  0  0  0  0  0  0
   13.0490    0.1970   23.0030 C   0  0  0  0  0  0  0  0  0  0  0  0
   12.0440    1.1170   22.8540 C   0  0  0  0  0  0  0  0  0  0  0  0
   10.8790    0.2750   23.0420 C   0  0  0  0  0  0  0  0  0  0  0  0
  1  2  2  0
  2  3  1  0
  3  4  1  0
  4  5  2  0
  5  6  1  0
  6  7  2  0
  7  8  1  0
  8  9  1  0
  9 10  2  0
 10 11  1  0
 11 12  2  0
  4 13  1  0
  8 13  2  0
 12 13  1  0
  2 14  1  0
 14 15  1  0
 15 16  2  0
 16 17  1  0
 17 18  2  0
 18 19  1  0
 15 20  1  0
 19 20  2  0
M  END
