DAR-DIA-2b784ede-36-nitrile
     RDKit          3D

 33 35  0  0  0  0  0  0  0  0999 V2000
    7.1410   -2.7870   19.3540 C   0  0  0  0  0  0  0  0  0  0  0  0
    6.3280   -2.5740   18.3900 N   0  0  0  0  0  0  0  0  0  0  0  0
    7.3300   -1.8070   20.5140 N   0  0  0  0  0  0  0  0  0  0  0  0
    7.8210   -0.3960   20.6210 C   0  0  0  0  0  0  0  0  0  0  0  0
    8.7380   -0.0360   21.7480 C   0  0  0  0  0  0  0  0  0  0  0  0
    9.0490    1.4140   21.7370 C   0  0  0  0  0  0  0  0  0  0  0  0
    9.9230    2.2610   22.7280 C   0  0  0  0  0  0  0  0  0  0  0  0
   11.1250    3.1640   22.3740 C   0  0  0  0  0  0  0  0  0  0  0  0
   10.5470    1.3170   23.7580 C   0  0  0  0  0  0  0  0  0  0  0  0
    8.9650    3.1940   23.5020 C   0  0  0  0  0  0  0  0  0  0  0  0
    8.2640    3.9220   24.0780 N   0  0  0  0  0  0  0  0  0  0  0  0
    8.3590    1.8640   20.6290 O   0  0  0  0  0  0  0  0  0  0  0  0
    7.6150    0.8190   19.9580 N   0  0  0  0  0  0  0  0  0  0  0  0
    6.3470   -1.5500   21.6670 C   0  0  1  0  0  0  0  0  0  0  0  0
    7.2920   -2.2800   22.4870 C   0  0  0  0  0  0  0  0  0  0  0  0
    7.0650   -3.4750   22.6270 O   0  0  0  0  0  0  0  0  0  0  0  0
    8.4200   -1.7110   23.1310 N   0  0  0  0  0  0  0  0  0  0  0  0
    9.8380   -1.7010   22.8490 C   0  0  0  0  0  0  0  0  0  0  0  0
    9.6180   -1.1660   24.1840 C   0  0  0  0  0  0  0  0  0  0  0  0
    8.3170   -1.1140   24.6450 C   0  0  0  0  0  0  0  0  0  0  0  0
   10.4990   -0.6640   25.1670 C   0  0  0  0  0  0  0  0  0  0  0  0
   11.9370   -0.6200   24.9300 C   0  0  0  0  0  0  0  0  0  0  0  0
   12.3310   -1.1310   23.6350 C   0  0  0  0  0  0  0  0  0  0  0  0
   11.3310   -1.5980   22.7690 C   0  0  0  0  0  0  0  0  0  0  0  0
   11.8340   -2.0510   21.6000 C   0  0  0  0  0  0  0  0  0  0  0  0
   13.3240   -1.9240   21.3230 C   0  0  0  0  0  0  0  0  0  0  0  0
    6.3250   -0.1520   20.9740 C   0  0  0  0  0  0  0  0  0  0  0  0
    6.1210    1.0900   19.9960 C   0  0  0  0  0  0  0  0  0  0  0  0
    5.5470    1.2670   18.7930 N   0  0  0  0  0  0  0  0  0  0  0  0
    5.0070    0.2210   18.2830 C   0  0  0  0  0  0  0  0  0  0  0  0
    5.0370   -0.9240   18.9930 C   0  0  0  0  0  0  0  0  0  0  0  0
    5.6210   -1.0580   20.2030 C   0  0  0  0  0  0  0  0  0  0  0  0
    5.4440   -2.3340   20.7390 C   0  0  0  0  0  0  0  0  0  0  0  0
  1  2  2  3
  1  3  1  0
  3  4  1  0
  4  5  1  0
  5  6  2  0
  6  7  1  0
  7  8  1  0
  7  9  1  0
  7 10  1  0
 10 11  3  0
  6 12  1  0
  4 13  2  0
 12 13  1  0
  3 14  1  0
 14 15  1  1
 15 16  2  0
 15 17  1  0
 17 18  1  0
 18 19  2  0
 19 20  1  0
 19 21  1  0
 21 22  2  0
 22 23  1  0
 18 24  1  0
 23 24  2  0
 24 25  1  0
 25 26  1  0
 14 27  1  0
 27 28  2  0
 28 29  1  0
 29 30  2  0
 30 31  1  0
 27 32  1  0
 31 32  2  0
 32 33  1  0
M  END
