DAR-DIA-2b784ede-19-acrylamide
     RDKit          3D

 29 31  0  0  0  0  0  0  0  0999 V2000
    7.4680   -3.0320   18.9420 C   0  0  0  0  0  0  0  0  0  0  0  0
    6.1300   -3.1390   19.6720 C   0  0  0  0  0  0  0  0  0  0  0  0
    6.1110   -3.8020   21.0360 C   0  0  0  0  0  0  0  0  0  0  0  0
    5.2520   -4.6850   21.2040 O   0  0  0  0  0  0  0  0  0  0  0  0
    6.9160   -3.4280   22.1300 N   0  0  0  0  0  0  0  0  0  0  0  0
    8.1910   -2.8410   22.1140 C   0  0  0  0  0  0  0  0  0  0  0  0
    8.4740   -1.5220   21.8030 C   0  0  0  0  0  0  0  0  0  0  0  0
    9.8410   -0.9390   21.8700 C   0  0  0  0  0  0  0  0  0  0  0  0
   10.9450   -1.8890   22.3070 C   0  0  0  0  0  0  0  0  0  0  0  0
   12.3430   -1.3150   22.4440 C   0  0  0  0  0  0  0  0  0  0  0  0
   13.3530   -1.6980   21.0480 Cl  0  0  0  0  0  0  0  0  0  0  0  0
   12.8990   -1.9730   23.7010 C   0  0  0  0  0  0  0  0  0  0  0  0
   12.3690   -1.1230   24.8690 C   0  0  0  0  0  0  0  0  0  0  0  0
   11.9570    0.2130   24.2170 C   0  0  0  0  0  0  0  0  0  0  0  0
   12.4570    0.1640   22.7900 C   0  0  0  0  0  0  0  0  0  0  0  0
   10.7000   -3.1750   22.5850 N   0  0  0  0  0  0  0  0  0  0  0  0
    9.2860   -3.6390   22.4770 C   0  0  0  0  0  0  0  0  0  0  0  0
    6.3670   -3.0100   23.4380 C   0  0  1  0  0  0  0  0  0  0  0  0
    6.1660   -4.1280   24.2470 C   0  0  0  0  0  0  0  0  0  0  0  0
    7.1630   -4.5810   23.6890 O   0  0  0  0  0  0  0  0  0  0  0  0
    5.1230   -3.2820   24.6170 N   0  0  0  0  0  0  0  0  0  0  0  0
    3.9410   -3.1680   23.7910 C   0  0  0  0  0  0  0  0  0  0  0  0
    7.3580   -1.9970   24.0260 C   0  0  0  0  0  0  0  0  0  0  0  0
    6.8540   -0.7180   24.3970 C   0  0  0  0  0  0  0  0  0  0  0  0
    7.4990    0.3710   24.9270 N   0  0  0  0  0  0  0  0  0  0  0  0
    8.8160    0.2370   25.1370 C   0  0  0  0  0  0  0  0  0  0  0  0
    9.5110   -1.0480   24.8060 C   0  0  0  0  0  0  0  0  0  0  0  0
    8.7430   -2.1950   24.2320 C   0  0  0  0  0  0  0  0  0  0  0  0
    9.5060   -3.3490   23.9620 C   0  0  0  0  0  0  0  0  0  0  0  0
  1  2  1  0
  2  3  1  0
  3  4  2  0
  3  5  1  0
  5  6  1  0
  6  7  2  0
  7  8  1  0
  8  9  2  0
  9 10  1  0
 10 11  1  0
 10 12  1  0
 12 13  1  0
 13 14  1  0
 10 15  1  0
 14 15  1  0
  9 16  1  0
  6 17  1  0
 16 17  2  0
  5 18  1  0
 18 19  1  1
 19 20  2  0
 19 21  1  0
 21 22  1  0
 18 23  1  0
 23 24  2  0
 24 25  1  0
 25 26  2  0
 26 27  1  0
 23 28  1  0
 27 28  2  0
 28 29  1  0
M  END
