DAR-DIA-2b784ede-37-chloroacetamide
     RDKit          3D

 34 36  0  0  0  0  0  0  0  0999 V2000
    8.6910   -4.0610   20.4520 C   0  0  0  0  0  0  0  0  0  0  0  0
    7.5250   -3.1220   20.8680 C   0  0  0  0  0  0  0  0  0  0  0  0
    6.7210   -3.7250   19.8360 O   0  0  0  0  0  0  0  0  0  0  0  0
    8.5940   -2.5560   21.9950 N   0  0  0  0  0  0  0  0  0  0  0  0
    9.8700   -1.7120   21.6770 C   0  0  0  0  0  0  0  0  0  0  0  0
   11.1900   -2.0970   22.0240 C   0  0  0  0  0  0  0  0  0  0  0  0
   10.6550   -3.1110   22.6250 C   0  0  0  0  0  0  0  0  0  0  0  0
    9.2480   -3.3250   22.6820 C   0  0  0  0  0  0  0  0  0  0  0  0
    8.5970   -4.4440   23.3730 C   0  0  0  0  0  0  0  0  0  0  0  0
    7.5230   -4.1210   24.1580 C   0  0  0  0  0  0  0  0  0  0  0  0
    9.5750   -5.2000   24.2670 C   0  0  0  0  0  0  0  0  0  0  0  0
    7.9500   -5.5010   22.4870 C   0  0  0  0  0  0  0  0  0  0  0  0
    8.7600   -2.1340   21.9050 C   0  0  0  0  0  0  0  0  0  0  0  0
    9.2330   -0.8120   21.1060 C   0  0  0  0  0  0  0  0  0  0  0  0
    8.1390   -1.5900   22.9220 C   0  0  1  0  0  0  0  0  0  0  0  0
    7.7440   -0.4950   22.1600 C   0  0  0  0  0  0  0  0  0  0  0  0
    8.2580    0.6130   22.3870 O   0  0  0  0  0  0  0  0  0  0  0  0
    6.8040   -0.8170   21.2200 N   0  0  0  0  0  0  0  0  0  0  0  0
    6.4640   -0.1540   20.1330 C   0  0  0  0  0  0  0  0  0  0  0  0
    7.0530   -0.4490   18.8810 C   0  0  0  0  0  0  0  0  0  0  0  0
    6.7820    0.1730   17.6600 C   0  0  0  0  0  0  0  0  0  0  0  0
    7.4530   -0.2310   16.4970 C   0  0  0  0  0  0  0  0  0  0  0  0
    7.4490   -1.6190   16.3860 C   0  0  0  0  0  0  0  0  0  0  0  0
    5.8330    1.1900   17.6780 C   0  0  0  0  0  0  0  0  0  0  0  0
    5.1510    1.5670   18.9800 C   0  0  0  0  0  0  0  0  0  0  0  0
    5.5000    0.8490   20.2530 C   0  0  0  0  0  0  0  0  0  0  0  0
    4.8900    1.1780   21.4510 C   0  0  0  0  0  0  0  0  0  0  0  0
    7.0510   -1.9460   23.9410 C   0  0  0  0  0  0  0  0  0  0  0  0
    7.3950   -1.8220   25.4520 C   0  0  0  0  0  0  0  0  0  0  0  0
    6.5610   -2.0880   26.5040 N   0  0  0  0  0  0  0  0  0  0  0  0
    5.3250   -2.4960   26.1770 C   0  0  0  0  0  0  0  0  0  0  0  0
    4.8640   -2.6560   24.7530 C   0  0  0  0  0  0  0  0  0  0  0  0
    5.7680   -2.3670   23.5790 C   0  0  0  0  0  0  0  0  0  0  0  0
    5.1740   -2.5700   22.1900 C   0  0  0  0  0  0  0  0  0  0  0  0
  1  2  1  0
  2  3  2  0
  2  4  1  0
  4  5  1  0
  5  6  2  0
  6  7  1  0
  7  8  2  0
  8  9  1  0
  9 10  1  0
  9 11  1  0
  9 12  1  0
  8 13  1  0
  5 14  1  0
 13 14  2  0
  4 15  1  0
 15 16  1  6
 16 17  2  0
 16 18  1  0
 18 19  1  0
 19 20  2  0
 20 21  1  0
 21 22  1  0
 22 23  1  0
 21 24  2  0
 24 25  1  0
 19 26  1  0
 25 26  2  0
 26 27  1  0
 15 28  1  0
 28 29  2  0
 29 30  1  0
 30 31  2  0
 31 32  1  0
 28 33  1  0
 32 33  2  0
 33 34  1  0
M  END
