DAR-DIA-2b784ede-24-acrylamide
     RDKit          3D

 30 32  0  0  0  0  0  0  0  0999 V2000
    7.0470   -3.6030   19.7120 C   0  0  0  0  0  0  0  0  0  0  0  0
    6.9700   -3.1600   21.1370 C   0  0  0  0  0  0  0  0  0  0  0  0
    5.8110   -2.2230   21.2930 C   0  0  0  0  0  0  0  0  0  0  0  0
    5.0630   -3.3270   21.1870 O   0  0  0  0  0  0  0  0  0  0  0  0
    6.8870   -1.2280   21.3610 N   0  0  0  0  0  0  0  0  0  0  0  0
    6.1920   -0.1250   20.8400 C   0  0  0  0  0  0  0  0  0  0  0  0
    5.2640    0.4090   21.6580 C   0  0  0  0  0  0  0  0  0  0  0  0
    4.3630    1.4940   21.3740 C   0  0  0  0  0  0  0  0  0  0  0  0
    4.4490    2.0920   20.0420 C   0  0  0  0  0  0  0  0  0  0  0  0
    3.3550    3.1920   20.0180 C   0  0  0  0  0  0  0  0  0  0  0  0
    3.7270    4.2780   21.0340 C   0  0  0  0  0  0  0  0  0  0  0  0
    3.9600    5.0830   21.8420 N   0  0  0  0  0  0  0  0  0  0  0  0
    2.0080    2.5890   20.5320 C   0  0  0  0  0  0  0  0  0  0  0  0
    0.9110    3.5590   20.0520 C   0  0  0  0  0  0  0  0  0  0  0  0
    1.6440    4.3130   18.9420 C   0  0  0  0  0  0  0  0  0  0  0  0
    2.8880    3.7480   18.6650 C   0  0  0  0  0  0  0  0  0  0  0  0
    5.4360    1.5370   19.2020 C   0  0  0  0  0  0  0  0  0  0  0  0
    6.2640    0.4780   19.5950 N   0  0  0  0  0  0  0  0  0  0  0  0
    7.6400   -1.0230   22.7200 C   0  0  2  0  0  0  0  0  0  0  0  0
    6.9850   -0.0600   23.5060 C   0  0  0  0  0  0  0  0  0  0  0  0
    6.0460   -0.3640   24.2450 O   0  0  0  0  0  0  0  0  0  0  0  0
    7.3370    1.2480   23.5410 N   0  0  0  0  0  0  0  0  0  0  0  0
    6.3380    2.1410   23.4900 C   0  0  0  0  0  0  0  0  0  0  0  0
    9.2020   -0.7550   22.8010 C   0  0  0  0  0  0  0  0  0  0  0  0
    9.9400    0.4510   22.4640 C   0  0  0  0  0  0  0  0  0  0  0  0
   10.9190   -0.1610   22.7910 N   0  0  0  0  0  0  0  0  0  0  0  0
   12.0220   -0.4530   23.0180 C   0  0  0  0  0  0  0  0  0  0  0  0
   11.8510   -1.8670   23.5120 C   0  0  0  0  0  0  0  0  0  0  0  0
   10.2700   -1.7740   23.2980 C   0  0  0  0  0  0  0  0  0  0  0  0
    9.7360   -2.9980   23.6940 C   0  0  0  0  0  0  0  0  0  0  0  0
  1  2  1  0
  2  3  1  0
  3  4  2  0
  3  5  1  0
  5  6  1  0
  6  7  2  0
  7  8  1  0
  8  9  2  0
  9 10  1  0
 10 11  1  0
 11 12  3  0
 10 13  1  0
 13 14  1  0
 14 15  1  0
 10 16  1  0
 15 16  1  0
  9 17  1  0
  6 18  1  0
 17 18  2  0
  5 19  1  0
 19 20  1  6
 20 21  2  0
 20 22  1  0
 22 23  1  0
 19 24  1  0
 24 25  2  0
 25 26  1  0
 26 27  2  0
 27 28  1  0
 24 29  1  0
 28 29  2  0
 29 30  1  0
M  END
