DAR-DIA-2b784ede-43-acrylamide
     RDKit          3D

 34 36  0  0  0  0  0  0  0  0999 V2000
    7.0400   -3.5560   19.8940 C   0  0  0  0  0  0  0  0  0  0  0  0
    5.5870   -3.1560   20.2280 C   0  0  0  0  0  0  0  0  0  0  0  0
    5.4660   -2.7790   21.7000 C   0  0  0  0  0  0  0  0  0  0  0  0
    5.0430   -3.9550   21.7310 O   0  0  0  0  0  0  0  0  0  0  0  0
    5.9510   -1.5920   21.1780 N   0  0  0  0  0  0  0  0  0  0  0  0
    5.0300   -0.8390   20.3120 C   0  0  0  0  0  0  0  0  0  0  0  0
    4.7130   -0.5140   21.8380 C   0  0  0  0  0  0  0  0  0  0  0  0
    3.5050    0.5260   21.8670 C   0  0  0  0  0  0  0  0  0  0  0  0
    3.9610    0.1770   23.3010 C   0  0  0  0  0  0  0  0  0  0  0  0
    4.4060   -1.2650   23.5400 C   0  0  0  0  0  0  0  0  0  0  0  0
    5.0860    1.0930   23.8510 C   0  0  0  0  0  0  0  0  0  0  0  0
    2.7550    0.4250   24.2330 C   0  0  0  0  0  0  0  0  0  0  0  0
    3.3340    0.6310   20.5030 N   0  0  0  0  0  0  0  0  0  0  0  0
    4.1170   -0.0760   19.7720 N   0  0  0  0  0  0  0  0  0  0  0  0
    6.7850   -0.5420   21.8170 C   0  0  1  0  0  0  0  0  0  0  0  0
    8.1770   -0.7710   21.8020 C   0  0  0  0  0  0  0  0  0  0  0  0
    8.7160   -1.2180   20.8110 O   0  0  0  0  0  0  0  0  0  0  0  0
    8.9250   -0.4790   22.9780 N   0  0  0  0  0  0  0  0  0  0  0  0
   10.0080   -1.4140   23.3900 C   0  0  0  0  0  0  0  0  0  0  0  0
   10.6920   -0.1620   22.9350 C   0  0  0  0  0  0  0  0  0  0  0  0
   12.2110    0.0830   22.8580 C   0  0  0  0  0  0  0  0  0  0  0  0
    9.7180    0.7950   22.5980 C   0  0  0  0  0  0  0  0  0  0  0  0
    8.3190    0.4600   22.7340 C   0  0  0  0  0  0  0  0  0  0  0  0
    7.7910   -0.8240   23.1960 C   0  0  0  0  0  0  0  0  0  0  0  0
    8.7840   -1.9650   23.5890 C   0  0  0  0  0  0  0  0  0  0  0  0
    8.3470   -3.3840   24.1110 C   0  0  0  0  0  0  0  0  0  0  0  0
    8.9730   -3.8740   25.0570 O   0  0  0  0  0  0  0  0  0  0  0  0
    6.3450    0.3140   20.6370 C   0  0  0  0  0  0  0  0  0  0  0  0
    5.6440    1.6280   20.6870 C   0  0  0  0  0  0  0  0  0  0  0  0
    5.2240    2.2660   19.5270 C   0  0  0  0  0  0  0  0  0  0  0  0
    5.4930    1.6260   18.3070 C   0  0  0  0  0  0  0  0  0  0  0  0
    5.1170    2.1420   17.1310 N   0  0  0  0  0  0  0  0  0  0  0  0
    6.1520    0.4470   18.1990 N   0  0  0  0  0  0  0  0  0  0  0  0
    6.5550   -0.1720   19.3360 C   0  0  0  0  0  0  0  0  0  0  0  0
  1  2  1  0
  2  3  1  0
  3  4  2  0
  3  5  1  0
  5  6  1  0
  6  7  2  0
  7  8  1  0
  8  9  1  0
  9 10  1  0
  9 11  1  0
  9 12  1  0
  8 13  2  0
  6 14  1  0
 13 14  1  0
  5 15  1  0
 15 16  1  6
 16 17  2  0
 16 18  1  0
 18 19  1  0
 19 20  2  0
 20 21  1  0
 20 22  1  0
 22 23  2  0
 23 24  1  0
 19 25  1  0
 24 25  2  0
 25 26  1  0
 26 27  1  0
 15 28  1  0
 28 29  2  0
 29 30  1  0
 30 31  2  0
 31 32  1  0
 31 33  1  0
 28 34  1  0
 33 34  2  0
M  END
