DAR-DIA-03336633-2
     RDKit          3D

 28 30  0  0  0  0  0  0  0  0999 V2000
    5.0230    3.7700   20.5270 O   0  0  0  0  0  0  0  0  0  0  0  0
    3.9150    3.6130   20.0220 C   0  0  0  0  0  0  0  0  0  0  0  0
    3.4070    2.2730   19.5540 C   0  0  0  0  0  0  0  0  0  0  0  0
    4.5920    1.3090   19.3540 C   0  0  0  0  0  0  0  0  0  0  0  0
    5.2090    1.3950   17.9510 C   0  0  0  0  0  0  0  0  0  0  0  0
    6.2590    0.5570   17.7430 N   0  0  0  0  0  0  0  0  0  0  0  0
    6.7130   -0.2890   18.7100 C   0  0  0  0  0  0  0  0  0  0  0  0
    6.1960   -0.3980   19.9650 C   0  0  0  0  0  0  0  0  0  0  0  0
    5.1130    0.4090   20.3230 C   0  0  0  0  0  0  0  0  0  0  0  0
    4.5970    0.2810   21.6320 C   0  0  0  0  0  0  0  0  0  0  0  0
    4.9220    1.3730   22.6330 C   0  0  0  0  0  0  0  0  0  0  0  0
    3.9500    2.3750   22.9010 N   0  0  0  0  0  0  0  0  0  0  0  0
    2.7350    2.2320   23.5750 C   0  0  0  0  0  0  0  0  0  0  0  0
    2.5660    1.4290   24.6590 O   0  0  0  0  0  0  0  0  0  0  0  0
    1.6800    3.0650   22.9320 N   0  0  0  0  0  0  0  0  0  0  0  0
    0.5390    3.6980   23.4550 C   0  0  0  0  0  0  0  0  0  0  0  0
    0.5750    4.3250   24.6960 C   0  0  0  0  0  0  0  0  0  0  0  0
   -0.6630    4.7860   25.1570 C   0  0  0  0  0  0  0  0  0  0  0  0
   -1.6870    4.5610   24.2310 C   0  0  0  0  0  0  0  0  0  0  0  0
   -1.7420    3.2080   23.8280 C   0  0  0  0  0  0  0  0  0  0  0  0
   -0.5030    2.7610   23.3910 C   0  0  0  0  0  0  0  0  0  0  0  0
    2.9980    4.6380   19.8220 N   0  0  0  0  0  0  0  0  0  0  0  0
    2.8660    5.7780   20.5510 C   0  0  0  0  0  0  0  0  0  0  0  0
    1.6690    6.4330   20.8110 C   0  0  0  0  0  0  0  0  0  0  0  0
    1.5410    7.6000   21.5550 C   0  0  0  0  0  0  0  0  0  0  0  0
    2.6960    8.1640   22.0880 C   0  0  0  0  0  0  0  0  0  0  0  0
    3.9290    7.5420   21.8550 C   0  0  0  0  0  0  0  0  0  0  0  0
    4.0240    6.3600   21.0990 C   0  0  0  0  0  0  0  0  0  0  0  0
  1  2  2  0
  2  3  1  0
  3  4  1  0
  4  5  2  0
  5  6  1  0
  6  7  2  0
  7  8  1  0
  4  9  1  0
  8  9  2  0
  9 10  1  0
 10 11  1  0
 11 12  1  0
 12 13  1  0
 13 14  2  0
 13 15  1  0
 15 16  1  0
 16 17  1  0
 17 18  1  0
 18 19  1  0
 19 20  1  0
 16 21  1  0
 20 21  1  0
  2 22  1  0
 22 23  1  0
 23 24  2  0
 24 25  1  0
 25 26  2  0
 26 27  1  0
 23 28  1  0
 27 28  2  0
M  END
