DAR-DIA-fb20be43-5-acrylamide
     RDKit          3D

 22 23  0  0  0  0  0  0  0  0999 V2000
    7.9250   -3.3140   19.1320 C   0  0  0  0  0  0  0  0  0  0  0  0
    6.7560   -2.4140   18.8860 C   0  0  0  0  0  0  0  0  0  0  0  0
    5.9540   -2.5330   20.1270 C   0  0  0  0  0  0  0  0  0  0  0  0
    4.9060   -3.1840   20.1540 O   0  0  0  0  0  0  0  0  0  0  0  0
    6.5110   -1.9240   21.2340 N   0  0  0  0  0  0  0  0  0  0  0  0
    7.6440   -0.9940   21.1060 C   0  0  0  0  0  0  0  0  0  0  0  0
    8.7710   -1.3030   22.0800 C   0  0  0  0  0  0  0  0  0  0  0  0
    8.5690   -1.9050   23.2280 N   0  0  0  0  0  0  0  0  0  0  0  0
    9.7950   -2.3560   23.6500 C   0  0  0  0  0  0  0  0  0  0  0  0
   10.7740   -1.3760   23.5430 C   0  0  0  0  0  0  0  0  0  0  0  0
   11.9060   -1.7010   22.8460 C   0  0  0  0  0  0  0  0  0  0  0  0
   12.8900   -0.7610   22.7100 C   0  0  0  0  0  0  0  0  0  0  0  0
   13.8210   -1.3830   22.0090 O   0  0  0  0  0  0  0  0  0  0  0  0
   13.3400   -1.8840   20.8620 C   0  0  0  0  0  0  0  0  0  0  0  0
   12.8130    0.4990   23.2230 C   0  0  0  0  0  0  0  0  0  0  0  0
   11.7550    0.9060   23.9240 N   0  0  0  0  0  0  0  0  0  0  0  0
   10.6720   -0.0820   24.1040 C   0  0  0  0  0  0  0  0  0  0  0  0
    9.5980    0.3050   24.8170 N   0  0  0  0  0  0  0  0  0  0  0  0
    9.2260    1.7060   24.9580 C   0  0  0  0  0  0  0  0  0  0  0  0
   10.2340    2.6300   24.3140 C   0  0  0  0  0  0  0  0  0  0  0  0
    7.6590   -3.0500   22.9540 C   0  0  0  0  0  0  0  0  0  0  0  0
    6.3900   -2.6220   22.5260 C   0  0  0  0  0  0  0  0  0  0  0  0
  1  2  1  0
  2  3  1  0
  3  4  2  0
  3  5  1  0
  5  6  1  0
  6  7  1  0
  7  8  1  0
  8  9  1  0
  9 10  1  0
 10 11  2  0
 11 12  1  0
 12 13  1  0
 13 14  1  0
 12 15  2  0
 15 16  1  0
 10 17  1  0
 16 17  2  0
 17 18  1  0
 18 19  1  0
 19 20  1  0
  8 21  1  0
  5 22  1  0
 21 22  1  0
M  END
