DAR-DIA-842b4336-15-chloroacetamide
     RDKit          3D

 18 19  0  0  0  0  0  0  0  0999 V2000
    6.8110   -4.1440   20.5860 C   0  0  0  0  0  0  0  0  0  0  0  0
    8.0220   -3.2780   20.1190 C   0  0  0  0  0  0  0  0  0  0  0  0
    7.8320   -3.1660   18.7960 O   0  0  0  0  0  0  0  0  0  0  0  0
    9.1610   -2.7660   21.1910 C   0  0  0  0  0  0  0  0  0  0  0  0
    8.5020   -1.4950   21.0700 C   0  0  0  0  0  0  0  0  0  0  0  0
    8.9910   -0.5820   21.7880 N   0  0  0  0  0  0  0  0  0  0  0  0
    9.9860   -0.6800   22.5850 C   0  0  0  0  0  0  0  0  0  0  0  0
    9.5200    0.5880   22.6790 C   0  0  0  0  0  0  0  0  0  0  0  0
    8.6230    0.9670   21.6270 C   0  0  0  0  0  0  0  0  0  0  0  0
    8.8990    1.9630   20.9950 O   0  0  0  0  0  0  0  0  0  0  0  0
    7.3920    0.1340   21.4000 N   0  0  0  0  0  0  0  0  0  0  0  0
    6.7600    0.4270   20.2490 C   0  0  0  0  0  0  0  0  0  0  0  0
    5.5550    1.3420   20.3410 C   0  0  0  0  0  0  0  0  0  0  0  0
    4.6300    1.8550   19.1570 C   0  0  0  0  0  0  0  0  0  0  0  0
    5.2380    1.2440   18.0870 C   0  0  0  0  0  0  0  0  0  0  0  0
    6.3200    0.4130   17.9640 N   0  0  0  0  0  0  0  0  0  0  0  0
    7.0870   -0.0140   19.0010 C   0  0  0  0  0  0  0  0  0  0  0  0
   10.0240   -2.0230   22.1320 O   0  0  0  0  0  0  0  0  0  0  0  0
  1  2  1  0
  2  3  2  0
  2  4  1  0
  4  5  2  0
  5  6  1  0
  6  7  2  0
  7  8  1  0
  8  9  1  0
  9 10  2  0
  9 11  1  0
 11 12  1  0
 12 13  2  0
 13 14  1  0
 14 15  2  0
 15 16  1  0
 12 17  1  0
 16 17  2  0
  4 18  1  0
  7 18  1  0
M  END
