DAV-CRI-d1e0885a-6-vinylsulfonamide
     RDKit          3D

 23 24  0  0  0  0  0  0  0  0999 V2000
    7.9660   -3.2750   19.0790 C   0  0  0  0  0  0  0  0  0  0  0  0
    6.8300   -2.4050   18.6010 C   0  0  0  0  0  0  0  0  0  0  0  0
    5.5970   -2.3440   19.8280 S   0  0  0  0  0  0  0  0  0  0  0  0
    4.9540   -3.6320   19.7490 O   0  0  0  0  0  0  0  0  0  0  0  0
    4.8890   -1.0920   19.7360 O   0  0  0  0  0  0  0  0  0  0  0  0
    6.5830   -2.2790   21.1850 N   0  0  0  0  0  0  0  0  0  0  0  0
    7.5540   -1.1910   21.2360 C   0  0  0  0  0  0  0  0  0  0  0  0
    8.7540   -1.5950   21.8130 C   0  0  0  0  0  0  0  0  0  0  0  0
    8.5610   -2.2740   23.1320 N   0  0  0  0  0  0  0  0  0  0  0  0
    9.8710   -2.5230   23.8010 C   0  0  0  0  0  0  0  0  0  0  0  0
   10.8100   -1.3180   23.7090 C   0  0  0  0  0  0  0  0  0  0  0  0
   11.9560   -1.3040   22.7320 C   0  0  0  0  0  0  0  0  0  0  0  0
   12.2640   -2.4280   21.8020 C   0  0  0  0  0  0  0  0  0  0  0  0
   13.3230   -2.0340   20.8730 N   0  0  0  0  0  0  0  0  0  0  0  0
   12.7020   -0.1620   22.7630 C   0  0  0  0  0  0  0  0  0  0  0  0
   12.0430    0.8880   23.9300 S   0  0  0  0  0  0  0  0  0  0  0  0
   10.7700   -0.1540   24.4250 C   0  0  0  0  0  0  0  0  0  0  0  0
    9.8410    0.2570   25.4640 N   0  0  0  0  0  0  0  0  0  0  0  0
    8.7770   -0.4830   25.9430 C   0  0  0  0  0  0  0  0  0  0  0  0
    8.3520   -0.1010   27.2540 C   0  0  0  0  0  0  0  0  0  0  0  0
    8.0750   -1.5500   25.2680 O   0  0  0  0  0  0  0  0  0  0  0  0
    7.7030   -3.4640   23.0960 C   0  0  0  0  0  0  0  0  0  0  0  0
    6.5340   -3.0570   22.4330 C   0  0  0  0  0  0  0  0  0  0  0  0
  1  2  1  0
  3  2  1  0
  3  4  2  0
  3  5  2  0
  3  6  1  0
  6  7  1  0
  7  8  1  0
  8  9  1  0
  9 10  1  0
 10 11  1  0
 11 12  1  0
 12 13  1  0
 13 14  3  0
 12 15  2  0
 15 16  1  0
 11 17  2  0
 16 17  1  0
 17 18  1  0
 18 19  1  0
 19 20  1  0
 19 21  2  0
  9 22  1  0
  6 23  1  0
 22 23  1  0
M  END
