DAV-CRI-3edb475e-2-chloroacetamide
     RDKit          3D

 14 14  0  0  0  0  0  0  0  0999 V2000
    7.9070   -3.3710   19.5590 C   0  0  0  0  0  0  0  0  0  0  0  0
    6.9090   -2.3780   20.0790 C   0  0  0  0  0  0  0  0  0  0  0  0
    6.1310   -2.9080   19.1850 O   0  0  0  0  0  0  0  0  0  0  0  0
    8.0810   -2.1160   20.8570 N   0  0  0  0  0  0  0  0  0  0  0  0
    8.2830   -2.0660   22.3350 C   0  0  2  0  0  0  0  0  0  0  0  0
    7.1730   -1.3350   23.0870 C   0  0  0  0  0  0  0  0  0  0  0  0
    9.6300   -1.3710   22.5880 C   0  0  0  0  0  0  0  0  0  0  0  0
    9.7820   -0.2250   23.3890 C   0  0  0  0  0  0  0  0  0  0  0  0
   11.0340    0.4070   23.5900 C   0  0  0  0  0  0  0  0  0  0  0  0
   11.1770    1.5170   24.3500 O   0  0  0  0  0  0  0  0  0  0  0  0
   12.1540   -0.1450   22.9660 C   0  0  0  0  0  0  0  0  0  0  0  0
   12.1140   -1.3490   22.1010 C   0  0  0  0  0  0  0  0  0  0  0  0
   13.3880   -2.0800   21.2890 Cl  0  0  0  0  0  0  0  0  0  0  0  0
   10.7410   -1.9250   21.9660 C   0  0  0  0  0  0  0  0  0  0  0  0
  1  2  1  0
  2  3  2  0
  2  4  1  0
  4  5  1  0
  5  6  1  1
  5  7  1  0
  7  8  2  0
  8  9  1  0
  9 10  1  0
  9 11  2  0
 11 12  1  0
 12 13  1  0
  7 14  1  0
 12 14  2  0
M  END
