DAV-CRI-14a23e73-6-nitrile
     RDKit          3D

 23 24  0  0  0  0  0  0  0  0999 V2000
    6.8060   -4.0020   20.1490 C   0  0  0  0  0  0  0  0  0  0  0  0
    5.9520   -3.4610   19.3560 N   0  0  0  0  0  0  0  0  0  0  0  0
    6.9140   -3.6300   21.4830 N   0  0  0  0  0  0  0  0  0  0  0  0
    7.8870   -2.6300   22.0240 C   0  0  2  0  0  0  0  0  0  0  0  0
    7.3320   -1.5910   22.8050 C   0  0  0  0  0  0  0  0  0  0  0  0
    8.4570   -2.0240   20.7900 C   0  0  0  0  0  0  0  0  0  0  0  0
    9.5010   -2.4230   21.6180 C   0  0  0  0  0  0  0  0  0  0  0  0
    9.0460   -2.9890   22.9700 C   0  0  0  0  0  0  0  0  0  0  0  0
   10.2190   -3.4910   24.1070 Cl  0  0  0  0  0  0  0  0  0  0  0  0
    7.5110   -3.0520   23.2340 C   0  0  0  0  0  0  0  0  0  0  0  0
    6.4720   -2.5570   22.1900 C   0  0  0  0  0  0  0  0  0  0  0  0
    4.9700   -2.5420   22.3730 C   0  0  0  0  0  0  0  0  0  0  0  0
    4.2880   -3.5610   22.4270 O   0  0  0  0  0  0  0  0  0  0  0  0
    4.5190   -1.0620   22.4440 C   0  0  1  0  0  0  0  0  0  0  0  0
    5.1160   -0.4130   23.6980 C   0  0  0  0  0  0  0  0  0  0  0  0
    5.8560    0.7230   23.2870 C   0  0  0  0  0  0  0  0  0  0  0  0
    5.7510    0.8340   21.7920 C   0  0  0  0  0  0  0  0  0  0  0  0
    6.4220    1.9510   20.6630 S   0  0  0  0  0  0  0  0  0  0  0  0
    5.5770    3.3560   21.0230 N   0  0  0  0  0  0  0  0  0  0  0  0
    5.9690    1.5700   19.3470 O   0  0  0  0  0  0  0  0  0  0  0  0
    7.8460    2.1310   20.9300 O   0  0  0  0  0  0  0  0  0  0  0  0
    4.9430   -0.2230   21.3630 C   0  0  0  0  0  0  0  0  0  0  0  0
    6.9720   -1.9860   20.8230 C   0  0  0  0  0  0  0  0  0  0  0  0
  1  2  2  3
  1  3  1  0
  3  4  1  0
  4  5  1  1
  4  6  1  0
  6  7  2  0
  7  8  1  0
  8  9  1  0
  8 10  2  0
 10 11  1  0
 11 12  1  0
 12 13  2  0
 14 12  1  6
 14 15  1  0
 15 16  2  0
 16 17  1  0
 17 18  1  0
 18 19  1  0
 18 20  2  0
 18 21  2  0
 14 22  1  0
 17 22  2  0
  6 23  1  0
 11 23  2  0
M  END
