DAV-CRI-3fe943ba-2-acrylamide
     RDKit          3D

 28 31  0  0  0  0  0  0  0  0999 V2000
    7.3300   -2.8260   18.3550 C   0  0  0  0  0  0  0  0  0  0  0  0
    6.6470   -2.1080   19.4680 C   0  0  0  0  0  0  0  0  0  0  0  0
    6.1640   -3.0620   20.5050 C   0  0  0  0  0  0  0  0  0  0  0  0
    5.2500   -3.8760   20.2880 O   0  0  0  0  0  0  0  0  0  0  0  0
    6.8500   -2.9320   21.6710 N   0  0  0  0  0  0  0  0  0  0  0  0
    6.4130   -3.4760   22.8780 C   0  0  0  0  0  0  0  0  0  0  0  0
    7.5330   -3.7260   23.6750 C   0  0  0  0  0  0  0  0  0  0  0  0
    7.1690   -4.6710   24.8130 C   0  0  0  0  0  0  0  0  0  0  0  0
    8.2040   -5.1290   25.8380 C   0  0  0  0  0  0  0  0  0  0  0  0
    9.6590   -4.6740   25.8070 C   0  0  0  0  0  0  0  0  0  0  0  0
   10.1160   -3.7150   24.7120 C   0  0  0  0  0  0  0  0  0  0  0  0
    9.0280   -3.3230   23.7250 C   0  0  0  0  0  0  0  0  0  0  0  0
    9.0950   -2.4270   22.4670 C   0  0  2  0  0  0  0  0  0  0  0  0
    9.8910   -1.2600   22.6390 C   0  0  0  0  0  0  0  0  0  0  0  0
   11.3810   -1.3820   22.9170 C   0  0  0  0  0  0  0  0  0  0  0  0
   12.1440   -0.2200   23.0600 C   0  0  0  0  0  0  0  0  0  0  0  0
   11.5240    1.1770   22.9370 C   0  0  0  0  0  0  0  0  0  0  0  0
   10.0780    1.2960   22.6670 C   0  0  0  0  0  0  0  0  0  0  0  0
    9.3180   -0.0040   22.5360 C   0  0  0  0  0  0  0  0  0  0  0  0
    9.4210    2.6270   22.5050 C   0  0  0  0  0  0  0  0  0  0  0  0
    9.8250    3.5480   23.4570 C   0  0  0  0  0  0  0  0  0  0  0  0
   11.3790    3.7290   23.4260 C   0  0  2  0  0  0  0  0  0  0  0  0
   11.9220    5.0050   22.2750 S   0  0  0  0  0  0  0  0  0  0  0  0
   13.4620    5.3680   22.8870 N   0  0  0  0  0  0  0  0  0  0  0  0
   12.2150    4.4030   20.9990 O   0  0  0  0  0  0  0  0  0  0  0  0
   11.1310    6.2080   22.3980 O   0  0  0  0  0  0  0  0  0  0  0  0
   12.2220    2.4770   23.0360 C   0  0  0  0  0  0  0  0  0  0  0  0
    7.7860   -1.8720   21.8980 C   0  0  0  0  0  0  0  0  0  0  0  0
  1  2  1  0
  2  3  1  0
  3  4  2  0
  3  5  1  0
  5  6  1  0
  6  7  1  0
  7  8  1  0
  8  9  2  0
  9 10  1  0
 10 11  2  0
  7 12  2  0
 11 12  1  0
 12 13  1  0
 13 14  1  1
 14 15  2  0
 15 16  1  0
 16 17  2  0
 17 18  1  0
 14 19  1  0
 18 19  2  0
 18 20  1  0
 20 21  1  0
 21 22  1  0
 22 23  1  6
 23 24  1  0
 23 25  2  0
 23 26  2  0
 17 27  1  0
 22 27  1  0
  5 28  1  0
 13 28  1  0
M  END
