DAV-CRI-d1e0885a-1-chloroacetamide
     RDKit          3D

 17 18  0  0  0  0  0  0  0  0999 V2000
    7.2430   -2.9570   18.7500 C   0  0  0  0  0  0  0  0  0  0  0  0
    6.3060   -3.2540   19.8820 C   0  0  0  0  0  0  0  0  0  0  0  0
    5.4260   -4.1070   19.7420 O   0  0  0  0  0  0  0  0  0  0  0  0
    6.5170   -2.5450   21.0530 N   0  0  0  0  0  0  0  0  0  0  0  0
    6.3940   -3.1630   22.3670 C   0  0  0  0  0  0  0  0  0  0  0  0
    7.6350   -3.3990   22.9740 C   0  0  0  0  0  0  0  0  0  0  0  0
    8.5520   -2.2100   23.0310 N   0  0  0  0  0  0  0  0  0  0  0  0
    9.9080   -2.5910   23.5220 C   0  0  0  0  0  0  0  0  0  0  0  0
   10.8700   -1.4130   23.4880 C   0  0  0  0  0  0  0  0  0  0  0  0
   10.4880    0.0940   24.3810 S   0  0  0  0  0  0  0  0  0  0  0  0
   11.9640    0.9360   23.8560 C   0  0  0  0  0  0  0  0  0  0  0  0
   12.7870    0.0520   22.9940 C   0  0  0  0  0  0  0  0  0  0  0  0
   12.1150   -1.2880   22.8110 C   0  0  0  0  0  0  0  0  0  0  0  0
   12.8120   -2.3210   21.9490 C   0  0  0  0  0  0  0  0  0  0  0  0
   13.4940   -1.6500   20.8770 N   0  0  0  0  0  0  0  0  0  0  0  0
    8.5800   -1.6180   21.7920 C   0  0  0  0  0  0  0  0  0  0  0  0
    7.4080   -1.3740   21.0060 C   0  0  0  0  0  0  0  0  0  0  0  0
  1  2  1  0
  2  3  2  0
  2  4  1  0
  4  5  1  0
  5  6  1  0
  6  7  1  0
  7  8  1  0
  8  9  1  0
  9 10  1  0
 10 11  1  0
 11 12  2  0
  9 13  2  0
 12 13  1  0
 13 14  1  0
 14 15  3  0
  7 16  1  0
  4 17  1  0
 16 17  1  0
M  END
