DAV-CRI-14a23e73-4-chloroacetamide
     RDKit          3D

 24 25  0  0  0  0  0  0  0  0999 V2000
    7.1750   -4.0010   20.5140 C   0  0  0  0  0  0  0  0  0  0  0  0
    7.5820   -2.9100   19.5230 C   0  0  0  0  0  0  0  0  0  0  0  0
    6.5010   -3.2410   18.9590 O   0  0  0  0  0  0  0  0  0  0  0  0
    8.6890   -2.8370   20.4360 N   0  0  0  0  0  0  0  0  0  0  0  0
    8.7950   -1.8080   21.5140 C   0  0  2  0  0  0  0  0  0  0  0  0
    8.1910   -0.6190   21.0990 C   0  0  0  0  0  0  0  0  0  0  0  0
   10.1820   -1.4750   22.1930 C   0  0  0  0  0  0  0  0  0  0  0  0
   11.3090   -2.3820   22.6200 C   0  0  0  0  0  0  0  0  0  0  0  0
   12.6090   -1.9730   23.3590 C   0  0  0  0  0  0  0  0  0  0  0  0
   13.8330   -2.9680   23.9040 Cl  0  0  0  0  0  0  0  0  0  0  0  0
   12.7930   -0.5440   23.6440 C   0  0  0  0  0  0  0  0  0  0  0  0
   11.6970    0.3140   23.1900 C   0  0  0  0  0  0  0  0  0  0  0  0
   11.6280    1.7340   23.3540 C   0  0  0  0  0  0  0  0  0  0  0  0
   12.6960    2.6560   22.8800 C   0  0  0  0  0  0  0  0  0  0  0  0
   12.3820    4.0260   23.0580 C   0  0  0  0  0  0  0  0  0  0  0  0
   11.0460    4.4030   23.7030 C   0  0  0  0  0  0  0  0  0  0  0  0
   10.4540    5.9650   23.9730 S   0  0  0  0  0  0  0  0  0  0  0  0
    9.0770    5.8890   22.9610 N   0  0  0  0  0  0  0  0  0  0  0  0
   11.3480    6.8990   23.3470 O   0  0  0  0  0  0  0  0  0  0  0  0
   10.0240    6.1000   25.3480 O   0  0  0  0  0  0  0  0  0  0  0  0
   10.1570    3.4310   24.1280 C   0  0  0  0  0  0  0  0  0  0  0  0
    8.8240    3.7620   24.7890 C   0  0  0  0  0  0  0  0  0  0  0  0
   10.4670    2.1280   23.9400 C   0  0  0  0  0  0  0  0  0  0  0  0
   10.5490   -0.0840   22.5580 C   0  0  0  0  0  0  0  0  0  0  0  0
  1  2  1  0
  2  3  2  0
  2  4  1  0
  4  5  1  0
  5  6  1  6
  5  7  1  0
  7  8  2  0
  8  9  1  0
  9 10  1  0
  9 11  2  0
 11 12  1  0
 12 13  1  0
 13 14  2  0
 14 15  1  0
 15 16  2  0
 16 17  1  0
 17 18  1  0
 17 19  2  0
 17 20  2  0
 16 21  1  0
 21 22  1  0
 13 23  1  0
 21 23  2  0
  7 24  1  0
 12 24  2  0
M  END
