DAV-UNK-4a4263a1-1-acrylamide
     RDKit          3D

 27 28  0  0  0  0  0  0  0  0999 V2000
    8.1680   -3.5110   19.9070 C   0  0  0  0  0  0  0  0  0  0  0  0
    6.8190   -2.9730   19.5310 C   0  0  0  0  0  0  0  0  0  0  0  0
    5.9660   -3.8960   20.3110 C   0  0  0  0  0  0  0  0  0  0  0  0
    5.1090   -4.5820   19.7840 O   0  0  0  0  0  0  0  0  0  0  0  0
    6.2880   -3.9560   21.6500 N   0  0  0  0  0  0  0  0  0  0  0  0
    6.1720   -5.2550   22.3230 C   0  0  0  0  0  0  0  0  0  0  0  0
    5.8070   -4.9770   23.7750 C   0  0  0  0  0  0  0  0  0  0  0  0
    6.1440   -3.5040   24.0520 C   0  0  1  0  0  0  0  0  0  0  0  0
    5.9590   -3.0730   25.4630 C   0  0  0  0  0  0  0  0  0  0  0  0
    4.6350   -2.5690   25.6580 O   0  0  0  0  0  0  0  0  0  0  0  0
    6.9370   -3.1970   26.3880 N   0  0  0  0  0  0  0  0  0  0  0  0
    6.9710   -4.3480   27.1890 C   0  0  0  0  0  0  0  0  0  0  0  0
    8.4850   -4.6140   27.4120 C   0  0  0  0  0  0  0  0  0  0  0  0
    8.1180   -5.8670   28.2420 C   0  0  0  0  0  0  0  0  0  0  0  0
    6.8380   -6.5700   28.6780 C   0  0  0  0  0  0  0  0  0  0  0  0
    6.7860   -7.7020   29.4140 O   0  0  0  0  0  0  0  0  0  0  0  0
    5.5790   -6.0160   28.2770 C   0  0  0  0  0  0  0  0  0  0  0  0
    5.7340   -4.9160   27.5400 C   0  0  0  0  0  0  0  0  0  0  0  0
    7.5560   -3.2110   23.5930 C   0  0  0  0  0  0  0  0  0  0  0  0
    7.5060   -3.2330   22.0970 C   0  0  2  0  0  0  0  0  0  0  0  0
    7.5500   -1.8530   21.6730 N   0  0  0  0  0  0  0  0  0  0  0  0
    8.6310   -1.0250   22.0320 C   0  0  0  0  0  0  0  0  0  0  0  0
   10.0650   -1.4290   22.3070 C   0  0  0  0  0  0  0  0  0  0  0  0
   11.1660   -0.6760   22.6670 N   0  0  0  0  0  0  0  0  0  0  0  0
   11.2010    0.6170   23.2610 C   0  0  0  0  0  0  0  0  0  0  0  0
   10.1650    1.5260   22.9030 N   0  0  0  0  0  0  0  0  0  0  0  0
   12.3500    1.4280   23.0370 N   0  0  0  0  0  0  0  0  0  0  0  0
  1  2  1  0
  2  3  1  0
  3  4  2  0
  3  5  1  0
  5  6  1  0
  6  7  1  0
  7  8  1  0
  8  9  1  1
  9 10  2  0
  9 11  1  0
 11 12  1  0
 12 13  2  0
 13 14  1  0
 14 15  2  0
 15 16  1  0
 15 17  1  0
 12 18  1  0
 17 18  2  0
  8 19  1  0
  5 20  1  0
 19 20  1  0
 20 21  1  1
 21 22  1  0
 22 23  2  3
 23 24  1  0
 24 25  1  0
 25 26  1  0
 25 27  1  0
M  END
