DAV-CRI-3fe943ba-1-nitrile
     RDKit          3D

 26 29  0  0  0  0  0  0  0  0999 V2000
    7.0010   -3.6120   19.8310 C   0  0  0  0  0  0  0  0  0  0  0  0
    5.9370   -3.3450   19.1800 N   0  0  0  0  0  0  0  0  0  0  0  0
    7.2490   -3.1490   21.1110 N   0  0  0  0  0  0  0  0  0  0  0  0
    6.5470   -3.5560   22.3610 C   0  0  0  0  0  0  0  0  0  0  0  0
    7.4790   -3.9120   23.3840 C   0  0  0  0  0  0  0  0  0  0  0  0
    7.3040   -5.0630   24.1840 C   0  0  0  0  0  0  0  0  0  0  0  0
    8.1900   -5.4920   25.2080 C   0  0  0  0  0  0  0  0  0  0  0  0
    9.4240   -4.6470   25.4360 C   0  0  0  0  0  0  0  0  0  0  0  0
    9.6530   -3.4080   24.6270 C   0  0  0  0  0  0  0  0  0  0  0  0
    8.5960   -3.1130   23.6090 C   0  0  0  0  0  0  0  0  0  0  0  0
    8.6420   -1.9190   22.7460 C   0  0  1  0  0  0  0  0  0  0  0  0
    9.7960   -0.9770   22.8330 C   0  0  0  0  0  0  0  0  0  0  0  0
   11.1990   -1.3830   22.3840 C   0  0  0  0  0  0  0  0  0  0  0  0
   12.2230   -0.3970   22.4480 C   0  0  0  0  0  0  0  0  0  0  0  0
   11.8210    0.9750   22.9490 C   0  0  0  0  0  0  0  0  0  0  0  0
   10.5460    1.2990   23.3750 C   0  0  0  0  0  0  0  0  0  0  0  0
    9.4820    0.2680   23.3140 C   0  0  0  0  0  0  0  0  0  0  0  0
   10.2000    2.5760   23.8600 C   0  0  0  0  0  0  0  0  0  0  0  0
   10.8870    3.6850   23.0760 C   0  0  1  0  0  0  0  0  0  0  0  0
   10.3380    5.2250   23.6650 S   0  0  0  0  0  0  0  0  0  0  0  0
    9.0190    5.5130   22.6800 N   0  0  0  0  0  0  0  0  0  0  0  0
    9.7260    5.2020   24.9840 O   0  0  0  0  0  0  0  0  0  0  0  0
   11.2960    6.2520   23.3170 O   0  0  0  0  0  0  0  0  0  0  0  0
   12.3760    3.4600   22.8070 C   0  0  0  0  0  0  0  0  0  0  0  0
   12.6400    2.0970   23.0560 C   0  0  0  0  0  0  0  0  0  0  0  0
    8.3920   -2.2230   21.2720 C   0  0  0  0  0  0  0  0  0  0  0  0
  1  2  2  3
  1  3  1  0
  3  4  1  0
  4  5  1  0
  5  6  1  0
  6  7  2  0
  7  8  1  0
  8  9  2  0
  5 10  2  0
  9 10  1  0
 10 11  1  0
 11 12  1  6
 12 13  2  0
 13 14  1  0
 14 15  2  0
 15 16  1  0
 12 17  1  0
 16 17  2  0
 16 18  1  0
 18 19  1  0
 19 20  1  1
 20 21  1  0
 20 22  2  0
 20 23  2  0
 19 24  1  0
 15 25  1  0
 24 25  1  0
  3 26  1  0
 11 26  1  0
M  END
