DAV-CRI-d1e0885a-6-nitrile
     RDKit          3D

 20 21  0  0  0  0  0  0  0  0999 V2000
    6.7680   -3.6400   19.9680 C   0  0  0  0  0  0  0  0  0  0  0  0
    5.7890   -4.4620   19.8890 N   0  0  0  0  0  0  0  0  0  0  0  0
    6.8080   -2.7170   20.9720 N   0  0  0  0  0  0  0  0  0  0  0  0
    6.5960   -3.0420   22.3640 C   0  0  0  0  0  0  0  0  0  0  0  0
    7.8080   -3.4130   22.9730 C   0  0  0  0  0  0  0  0  0  0  0  0
    8.6620   -2.1870   23.0010 N   0  0  0  0  0  0  0  0  0  0  0  0
   10.0000   -2.4830   23.5680 C   0  0  0  0  0  0  0  0  0  0  0  0
   10.8360   -1.3560   23.5300 C   0  0  0  0  0  0  0  0  0  0  0  0
   12.0850   -1.1580   22.6570 C   0  0  0  0  0  0  0  0  0  0  0  0
   12.6540   -2.1420   21.6720 C   0  0  0  0  0  0  0  0  0  0  0  0
   13.1400   -2.8150   20.9020 N   0  0  0  0  0  0  0  0  0  0  0  0
   12.7450    0.0260   22.7800 C   0  0  0  0  0  0  0  0  0  0  0  0
   11.9510    1.0700   23.9490 S   0  0  0  0  0  0  0  0  0  0  0  0
   10.6530   -0.0800   24.3670 C   0  0  0  0  0  0  0  0  0  0  0  0
    9.7420    0.2620   25.2710 N   0  0  0  0  0  0  0  0  0  0  0  0
    8.7830   -0.4790   25.9350 C   0  0  0  0  0  0  0  0  0  0  0  0
    8.6390    0.0270   27.3690 C   0  0  0  0  0  0  0  0  0  0  0  0
    7.9660   -1.5650   25.4510 O   0  0  0  0  0  0  0  0  0  0  0  0
    8.8510   -1.5950   21.6720 C   0  0  0  0  0  0  0  0  0  0  0  0
    7.5110   -1.4230   20.9630 C   0  0  0  0  0  0  0  0  0  0  0  0
  1  2  2  3
  1  3  1  0
  3  4  1  0
  4  5  1  0
  5  6  1  0
  6  7  1  0
  7  8  1  0
  8  9  1  0
  9 10  1  0
 10 11  3  0
  9 12  2  0
 12 13  1  0
  8 14  2  0
 13 14  1  0
 14 15  1  0
 15 16  1  0
 16 17  1  0
 16 18  2  0
  6 19  1  0
  3 20  1  0
 19 20  1  0
M  END
