DAV-CRI-0207e898-1-nitrile
     RDKit          3D

 21 23  0  0  0  0  0  0  0  0999 V2000
    6.9200   -3.4570   19.8160 C   0  0  0  0  0  0  0  0  0  0  0  0
    5.8000   -3.4950   19.2140 N   0  0  0  0  0  0  0  0  0  0  0  0
    7.0790   -2.7920   20.9800 N   0  0  0  0  0  0  0  0  0  0  0  0
    7.6580   -1.4510   21.1560 C   0  0  0  0  0  0  0  0  0  0  0  0
    8.9250   -1.4420   21.8010 C   0  0  0  0  0  0  0  0  0  0  0  0
    8.8540   -2.2480   23.0540 N   0  0  0  0  0  0  0  0  0  0  0  0
   10.2070   -2.4760   23.5760 C   0  0  0  0  0  0  0  0  0  0  0  0
   10.9730   -1.3330   23.5620 C   0  0  0  0  0  0  0  0  0  0  0  0
   12.2480   -1.3350   22.7250 C   0  0  0  0  0  0  0  0  0  0  0  0
   12.9140   -0.0070   22.8430 C   0  0  0  0  0  0  0  0  0  0  0  0
   12.1470    0.9230   23.7310 C   0  0  0  0  0  0  0  0  0  0  0  0
   10.6520    0.2100   24.4260 S   0  0  0  0  0  0  0  0  0  0  0  0
    8.4670   -3.4410   22.6740 C   0  0  0  0  0  0  0  0  0  0  0  0
    7.0940   -3.6510   22.1770 C   0  0  1  0  0  0  0  0  0  0  0  0
    6.2130   -3.5150   23.3630 C   0  0  1  0  0  0  0  0  0  0  0  0
    5.3310   -2.4470   23.0240 C   0  0  0  0  0  0  0  0  0  0  0  0
    4.5210   -2.3380   24.2940 C   0  0  0  0  0  0  0  0  0  0  0  0
    3.8210   -3.4970   24.5750 C   0  0  0  0  0  0  0  0  0  0  0  0
    4.1270   -4.6130   23.7120 N   0  0  0  0  0  0  0  0  0  0  0  0
    5.5670   -4.7340   23.5750 C   0  0  1  0  0  0  0  0  0  0  0  0
    5.7760   -5.8810   22.2310 Cl  0  0  0  0  0  0  0  0  0  0  0  0
  1  2  2  3
  1  3  1  0
  3  4  1  0
  4  5  1  0
  5  6  1  0
  6  7  1  0
  7  8  1  0
  8  9  2  0
  9 10  1  0
 10 11  2  0
  8 12  1  0
 11 12  1  0
  6 13  1  0
  3 14  1  0
 14 13  1  1
 14 15  1  0
 15 16  1  6
 16 17  1  0
 17 18  1  0
 18 19  1  0
 15 20  1  0
 19 20  1  0
 20 21  1  6
M  END
