DAV-CRI-d1e0885a-4-nitrile
     RDKit          3D

 19 20  0  0  0  0  0  0  0  0999 V2000
    6.7410   -3.7780   20.0110 C   0  0  0  0  0  0  0  0  0  0  0  0
    5.8130   -4.6590   19.9750 N   0  0  0  0  0  0  0  0  0  0  0  0
    6.8040   -2.8530   21.0110 N   0  0  0  0  0  0  0  0  0  0  0  0
    6.6220   -3.1060   22.4290 C   0  0  0  0  0  0  0  0  0  0  0  0
    7.8590   -3.1990   23.1060 C   0  0  0  0  0  0  0  0  0  0  0  0
    8.5790   -1.9020   22.9260 N   0  0  0  0  0  0  0  0  0  0  0  0
    9.8770   -1.8980   23.6190 C   0  0  0  0  0  0  0  0  0  0  0  0
   10.6520   -0.7680   23.3000 C   0  0  0  0  0  0  0  0  0  0  0  0
   12.1260   -0.7800   22.9640 C   0  0  0  0  0  0  0  0  0  0  0  0
   12.9220   -2.0560   22.9280 C   0  0  0  0  0  0  0  0  0  0  0  0
   13.5390   -3.0000   22.9050 N   0  0  0  0  0  0  0  0  0  0  0  0
   12.7140    0.4270   22.6950 C   0  0  0  0  0  0  0  0  0  0  0  0
   11.5390    1.7670   22.8000 S   0  0  0  0  0  0  0  0  0  0  0  0
   10.1750    0.6900   23.2380 C   0  0  0  0  0  0  0  0  0  0  0  0
    8.9660    1.1550   23.4850 N   0  0  0  0  0  0  0  0  0  0  0  0
    7.7740    0.5960   23.0670 C   0  0  0  0  0  0  0  0  0  0  0  0
    6.7990    0.7700   24.2350 C   0  0  0  0  0  0  0  0  0  0  0  0
    8.8200   -1.5820   21.5180 C   0  0  0  0  0  0  0  0  0  0  0  0
    7.4360   -1.5350   20.9060 C   0  0  0  0  0  0  0  0  0  0  0  0
  1  2  2  3
  1  3  1  0
  3  4  1  0
  4  5  1  0
  5  6  1  0
  6  7  1  0
  7  8  1  0
  8  9  1  0
  9 10  1  0
 10 11  3  0
  9 12  2  0
 12 13  1  0
  8 14  2  0
 13 14  1  0
 14 15  1  0
 15 16  1  0
 16 17  1  0
  6 18  1  0
  3 19  1  0
 18 19  1  0
M  END
