DAV-CRI-f9b12666-5-acrylamide
     RDKit          3D

 42 45  0  0  0  0  0  0  0  0999 V2000
    8.3260   -3.3810   19.4720 C   0  0  0  0  0  0  0  0  0  0  0  0
    6.8010   -3.4520   19.4830 C   0  0  0  0  0  0  0  0  0  0  0  0
    5.9610   -4.1190   20.5460 C   0  0  0  0  0  0  0  0  0  0  0  0
    5.1730   -4.9680   20.1530 O   0  0  0  0  0  0  0  0  0  0  0  0
    6.0290   -3.7460   21.9170 N   0  0  0  0  0  0  0  0  0  0  0  0
    7.0610   -2.7560   22.3130 C   0  0  0  0  0  0  0  0  0  0  0  0
    8.3880   -3.3300   21.8330 C   0  0  1  0  0  0  0  0  0  0  0  0
    9.6660   -3.2830   22.6940 C   0  0  0  0  0  0  0  0  0  0  0  0
   10.6730   -2.1860   23.1580 N   0  0  0  0  0  0  0  0  0  0  0  0
   11.8720   -2.7160   24.0450 C   0  0  0  0  0  0  0  0  0  0  0  0
   12.3750   -1.3150   24.1510 C   0  0  0  0  0  0  0  0  0  0  0  0
   11.6040   -0.4040   23.5020 C   0  0  0  0  0  0  0  0  0  0  0  0
   11.6870    1.0070   23.4460 C   0  0  0  0  0  0  0  0  0  0  0  0
   12.6520    1.8710   22.9840 C   0  0  0  0  0  0  0  0  0  0  0  0
   12.4070    3.3490   23.0210 C   0  0  0  0  0  0  0  0  0  0  0  0
   11.1520    3.7620   23.5610 C   0  0  0  0  0  0  0  0  0  0  0  0
   10.7460    5.4390   23.6550 S   0  0  0  0  0  0  0  0  0  0  0  0
    9.3130    5.4620   22.7800 N   0  0  0  0  0  0  0  0  0  0  0  0
   11.6840    6.2580   22.9280 O   0  0  0  0  0  0  0  0  0  0  0  0
   10.3390    5.7890   25.0090 O   0  0  0  0  0  0  0  0  0  0  0  0
   10.2550    2.8280   24.0100 C   0  0  0  0  0  0  0  0  0  0  0  0
    9.0980    3.3600   24.5030 O   0  0  0  0  0  0  0  0  0  0  0  0
   10.4970    1.4910   23.9620 C   0  0  0  0  0  0  0  0  0  0  0  0
   10.4780   -0.8070   22.7690 C   0  0  0  0  0  0  0  0  0  0  0  0
   10.0840   -2.1890   22.7370 C   0  0  0  0  0  0  0  0  0  0  0  0
   10.7270   -3.2560   23.3810 C   0  0  0  0  0  0  0  0  0  0  0  0
   10.1250   -4.7800   23.2840 S   0  0  0  0  0  0  0  0  0  0  0  0
    8.0480   -4.8620   21.6270 C   0  0  0  0  0  0  0  0  0  0  0  0
    7.2820   -5.5420   22.6960 C   0  0  0  0  0  0  0  0  0  0  0  0
    6.0140   -4.8190   22.8910 C   0  0  2  0  0  0  0  0  0  0  0  0
    4.8460   -5.6130   22.7230 N   0  0  0  0  0  0  0  0  0  0  0  0
    3.7880   -5.1430   23.4370 C   0  0  0  0  0  0  0  0  0  0  0  0
    3.8490   -4.0270   23.9440 O   0  0  0  0  0  0  0  0  0  0  0  0
    2.5550   -6.0120   23.6040 C   0  0  2  0  0  0  0  0  0  0  0  0
    2.3100   -6.5130   24.8850 C   0  0  0  0  0  0  0  0  0  0  0  0
    2.8960   -7.8730   25.1700 C   0  0  0  0  0  0  0  0  0  0  0  0
    2.1720   -8.6600   26.0190 N   0  0  0  0  0  0  0  0  0  0  0  0
    3.9470   -8.2220   24.6740 O   0  0  0  0  0  0  0  0  0  0  0  0
    2.4790   -7.1210   22.6170 N   0  0  0  0  0  0  0  0  0  0  0  0
    1.1540   -7.5880   22.2630 C   0  0  1  0  0  0  0  0  0  0  0  0
    1.2180   -8.7160   21.2320 C   0  0  0  0  0  0  0  0  0  0  0  0
    0.5770   -8.0710   23.4960 N   0  0  0  0  0  0  0  0  0  0  0  0
  1  2  1  0
  2  3  1  0
  3  4  2  0
  3  5  1  0
  5  6  1  0
  6  7  1  0
  7  8  1  1
  8  9  2  0
  9 10  1  0
 10 11  2  0
 11 12  1  0
 12 13  1  0
 13 14  2  0
 14 15  1  0
 15 16  2  0
 16 17  1  0
 17 18  1  0
 17 19  2  0
 17 20  2  0
 16 21  1  0
 21 22  1  0
 13 23  1  0
 21 23  2  0
 12 24  2  0
 24 25  1  0
 10 26  1  0
 25 26  2  0
  8 27  1  0
 26 27  1  0
  7 28  1  0
 28 29  1  0
  5 30  1  0
 29 30  1  0
 30 31  1  6
 31 32  1  0
 32 33  2  0
 32 34  1  0
 34 35  1  1
 35 36  1  0
 36 37  1  0
 36 38  2  0
 34 39  1  0
 39 40  1  0
 40 41  1  6
 40 42  1  0
M  END
