DAV-CRI-f9b12666-4-nitrile
     RDKit          3D

 39 42  0  0  0  0  0  0  0  0999 V2000
    6.5310   -4.1480   20.1380 C   0  0  0  0  0  0  0  0  0  0  0  0
    5.5510   -3.6740   19.4780 N   0  0  0  0  0  0  0  0  0  0  0  0
    6.5340   -4.0050   21.5040 N   0  0  0  0  0  0  0  0  0  0  0  0
    7.4750   -3.1640   22.2110 C   0  0  0  0  0  0  0  0  0  0  0  0
    8.2780   -4.1670   22.9820 C   0  0  1  0  0  0  0  0  0  0  0  0
    9.4260   -3.5690   23.6820 C   0  0  0  0  0  0  0  0  0  0  0  0
    9.6410   -2.2020   23.4690 N   0  0  0  0  0  0  0  0  0  0  0  0
   10.8680   -1.9260   24.1410 C   0  0  0  0  0  0  0  0  0  0  0  0
   11.7010   -0.6700   24.3190 C   0  0  0  0  0  0  0  0  0  0  0  0
   11.5440    0.8270   23.9020 C   0  0  0  0  0  0  0  0  0  0  0  0
   12.7040    1.3340   23.1820 C   0  0  0  0  0  0  0  0  0  0  0  0
   12.8790    2.6400   22.7500 C   0  0  0  0  0  0  0  0  0  0  0  0
   11.8660    3.6110   23.0050 C   0  0  0  0  0  0  0  0  0  0  0  0
   10.7240    3.2250   23.6830 C   0  0  0  0  0  0  0  0  0  0  0  0
    9.7770    4.6890   23.8270 S   0  0  0  0  0  0  0  0  0  0  0  0
    8.6430    4.5950   22.6050 N   0  0  0  0  0  0  0  0  0  0  0  0
    9.0260    4.7590   25.0700 O   0  0  0  0  0  0  0  0  0  0  0  0
   10.6510    5.7940   23.4510 O   0  0  0  0  0  0  0  0  0  0  0  0
   10.4060    1.8530   24.1900 C   0  0  0  0  0  0  0  0  0  0  0  0
   12.8780   -0.8910   25.0140 C   0  0  0  0  0  0  0  0  0  0  0  0
   13.3680   -2.0810   25.5750 C   0  0  0  0  0  0  0  0  0  0  0  0
   12.6370   -3.2190   25.4900 C   0  0  0  0  0  0  0  0  0  0  0  0
   11.4640   -3.1290   24.8150 C   0  0  0  0  0  0  0  0  0  0  0  0
   10.4340   -4.5400   24.6470 S   0  0  0  0  0  0  0  0  0  0  0  0
    7.8370   -5.2330   23.7500 C   0  0  0  0  0  0  0  0  0  0  0  0
    6.9550   -5.9180   22.9260 C   0  0  0  0  0  0  0  0  0  0  0  0
    5.9240   -4.9250   22.4460 C   0  0  2  0  0  0  0  0  0  0  0  0
    4.7750   -5.6050   22.0070 N   0  0  0  0  0  0  0  0  0  0  0  0
    3.8310   -5.6490   23.0030 C   0  0  0  0  0  0  0  0  0  0  0  0
    3.4350   -4.4540   23.6650 O   0  0  0  0  0  0  0  0  0  0  0  0
    3.2460   -6.9610   23.4980 C   0  0  2  0  0  0  0  0  0  0  0  0
    2.1960   -7.7250   22.6820 C   0  0  0  0  0  0  0  0  0  0  0  0
    0.9300   -7.0750   22.1960 C   0  0  0  0  0  0  0  0  0  0  0  0
    0.1970   -7.9630   21.2590 N   0  0  0  0  0  0  0  0  0  0  0  0
    0.5270   -5.9590   22.4980 O   0  0  0  0  0  0  0  0  0  0  0  0
    2.5480   -6.6900   24.7700 N   0  0  0  0  0  0  0  0  0  0  0  0
    2.7480   -7.8270   25.6330 C   0  0  1  0  0  0  0  0  0  0  0  0
    2.3540   -7.7170   27.0870 C   0  0  0  0  0  0  0  0  0  0  0  0
    2.0310   -8.9230   25.0300 N   0  0  0  0  0  0  0  0  0  0  0  0
  1  2  2  3
  1  3  1  0
  3  4  1  0
  4  5  1  0
  5  6  1  1
  6  7  2  0
  7  8  1  0
  8  9  2  0
  9 10  1  0
 10 11  2  0
 11 12  1  0
 12 13  2  0
 13 14  1  0
 14 15  1  0
 15 16  1  0
 15 17  2  0
 15 18  2  0
 10 19  1  0
 14 19  2  0
  9 20  1  0
 20 21  2  0
 21 22  1  0
  8 23  1  0
 22 23  2  0
  6 24  1  0
 23 24  1  0
  5 25  1  0
 25 26  1  0
  3 27  1  0
 26 27  1  0
 27 28  1  6
 28 29  1  0
 29 30  2  0
 29 31  1  0
 31 32  1  6
 32 33  1  0
 33 34  1  0
 33 35  2  0
 31 36  1  0
 36 37  1  0
 37 38  1  1
 37 39  1  0
M  END
