DAV-CRI-14a23e73-5-nitrile
     RDKit          3D

 22 23  0  0  0  0  0  0  0  0999 V2000
    6.9010   -4.1290   20.2000 C   0  0  0  0  0  0  0  0  0  0  0  0
    5.8690   -3.6760   19.5940 N   0  0  0  0  0  0  0  0  0  0  0  0
    7.5810   -3.6030   21.2620 N   0  0  0  0  0  0  0  0  0  0  0  0
    6.8690   -3.1470   22.4660 C   0  0  1  0  0  0  0  0  0  0  0  0
    7.7780   -2.7270   23.6650 C   0  0  0  0  0  0  0  0  0  0  0  0
    5.9680   -2.0400   22.0010 C   0  0  0  0  0  0  0  0  0  0  0  0
    7.3620   -1.7330   21.8840 C   0  0  0  0  0  0  0  0  0  0  0  0
    8.1840   -2.7420   22.3340 C   0  0  0  0  0  0  0  0  0  0  0  0
    9.9070   -2.5710   22.2930 Cl  0  0  0  0  0  0  0  0  0  0  0  0
    7.5220   -3.9530   22.8490 C   0  0  0  0  0  0  0  0  0  0  0  0
    6.0400   -4.1320   22.9080 C   0  0  0  0  0  0  0  0  0  0  0  0
    5.3930   -5.3900   23.4520 C   0  0  0  0  0  0  0  0  0  0  0  0
    4.6240   -5.1430   24.7600 C   0  0  2  0  0  0  0  0  0  0  0  0
    3.1070   -5.0790   24.5530 C   0  0  0  0  0  0  0  0  0  0  0  0
    2.3320   -3.9250   24.9140 C   0  0  0  0  0  0  0  0  0  0  0  0
    3.4960   -3.2470   25.3710 C   0  0  0  0  0  0  0  0  0  0  0  0
    3.2960   -1.6020   26.0360 S   0  0  0  0  0  0  0  0  0  0  0  0
    3.9970   -0.5050   24.9630 N   0  0  0  0  0  0  0  0  0  0  0  0
    1.8880   -1.2840   26.0910 O   0  0  0  0  0  0  0  0  0  0  0  0
    4.0910   -1.5440   27.2420 O   0  0  0  0  0  0  0  0  0  0  0  0
    4.7630   -3.7950   25.3320 C   0  0  0  0  0  0  0  0  0  0  0  0
    5.2020   -3.0700   22.4370 C   0  0  0  0  0  0  0  0  0  0  0  0
  1  2  2  3
  1  3  1  0
  3  4  1  0
  4  5  1  1
  4  6  1  0
  6  7  2  0
  7  8  1  0
  8  9  1  0
  8 10  2  0
 10 11  1  0
 11 12  1  0
 13 12  1  6
 13 14  1  0
 14 15  2  0
 15 16  1  0
 16 17  1  0
 17 18  1  0
 17 19  2  0
 17 20  2  0
 13 21  1  0
 16 21  2  0
  6 22  1  0
 11 22  2  0
M  END
