DAV-CRI-0207e898-1-chloroacetamide
     RDKit          3D

 22 24  0  0  0  0  0  0  0  0999 V2000
    7.4090   -2.9540   18.6270 C   0  0  0  0  0  0  0  0  0  0  0  0
    6.5170   -3.1150   19.8070 C   0  0  0  0  0  0  0  0  0  0  0  0
    5.5880   -3.9480   19.7090 O   0  0  0  0  0  0  0  0  0  0  0  0
    6.8560   -2.3010   20.9090 N   0  0  0  0  0  0  0  0  0  0  0  0
    7.8680   -1.2520   20.8340 C   0  0  0  0  0  0  0  0  0  0  0  0
    9.0420   -1.5640   21.5600 C   0  0  0  0  0  0  0  0  0  0  0  0
    8.8590   -2.0630   22.9650 N   0  0  0  0  0  0  0  0  0  0  0  0
   10.1390   -2.5630   23.5080 C   0  0  0  0  0  0  0  0  0  0  0  0
   11.0740   -1.3860   23.4890 C   0  0  0  0  0  0  0  0  0  0  0  0
   12.3670   -1.2990   22.6870 C   0  0  0  0  0  0  0  0  0  0  0  0
   13.0450    0.0030   22.8600 C   0  0  0  0  0  0  0  0  0  0  0  0
   12.2080    0.8220   23.7930 C   0  0  0  0  0  0  0  0  0  0  0  0
   10.7620    0.1200   24.4200 S   0  0  0  0  0  0  0  0  0  0  0  0
    7.7880   -3.0540   22.9640 C   0  0  0  0  0  0  0  0  0  0  0  0
    6.5450   -2.5170   22.3130 C   0  0  2  0  0  0  0  0  0  0  0  0
    5.5700   -3.4820   22.3390 C   0  0  2  0  0  0  0  0  0  0  0  0
    4.5260   -2.6510   23.0440 C   0  0  0  0  0  0  0  0  0  0  0  0
    4.5990   -2.7140   24.4230 C   0  0  0  0  0  0  0  0  0  0  0  0
    4.4060   -4.0850   25.0290 C   0  0  0  0  0  0  0  0  0  0  0  0
    5.0150   -5.0430   24.1420 N   0  0  0  0  0  0  0  0  0  0  0  0
    5.9080   -4.6200   23.0640 C   0  0  1  0  0  0  0  0  0  0  0  0
    6.0440   -6.0360   22.0050 Cl  0  0  0  0  0  0  0  0  0  0  0  0
  1  2  1  0
  2  3  2  0
  2  4  1  0
  4  5  1  0
  5  6  1  0
  6  7  1  0
  7  8  1  0
  8  9  1  0
  9 10  2  0
 10 11  1  0
 11 12  2  0
  9 13  1  0
 12 13  1  0
  7 14  1  0
  4 15  1  0
 15 14  1  1
 15 16  1  0
 16 17  1  1
 17 18  1  0
 18 19  1  0
 19 20  1  0
 16 21  1  0
 20 21  1  0
 21 22  1  6
M  END
