DAV-CRI-3edb475e-3-acrylamide
     RDKit          3D

 15 15  0  0  0  0  0  0  0  0999 V2000
    7.0590   -2.9690   18.7620 C   0  0  0  0  0  0  0  0  0  0  0  0
    6.8910   -2.0020   19.9110 C   0  0  0  0  0  0  0  0  0  0  0  0
    6.3970   -2.8630   21.0270 C   0  0  0  0  0  0  0  0  0  0  0  0
    5.1890   -3.4880   20.9840 O   0  0  0  0  0  0  0  0  0  0  0  0
    7.4520   -2.8660   22.0120 N   0  0  0  0  0  0  0  0  0  0  0  0
    7.9830   -1.6130   22.6540 C   0  0  1  0  0  0  0  0  0  0  0  0
    7.4590   -1.5600   24.0430 C   0  0  0  0  0  0  0  0  0  0  0  0
    9.5150   -1.2630   22.6980 C   0  0  0  0  0  0  0  0  0  0  0  0
   10.5590   -1.9280   21.9950 C   0  0  0  0  0  0  0  0  0  0  0  0
   11.9290   -1.5090   22.1070 C   0  0  0  0  0  0  0  0  0  0  0  0
   13.1240   -2.3590   21.2400 Cl  0  0  0  0  0  0  0  0  0  0  0  0
   12.3770   -0.3540   22.9540 C   0  0  0  0  0  0  0  0  0  0  0  0
   11.3040    0.3710   23.7100 C   0  0  0  0  0  0  0  0  0  0  0  0
    9.8810   -0.1540   23.5280 C   0  0  0  0  0  0  0  0  0  0  0  0
    8.9060    0.5730   24.2740 O   0  0  0  0  0  0  0  0  0  0  0  0
  1  2  1  0
  2  3  1  0
  3  4  2  0
  3  5  1  0
  5  6  1  0
  6  7  1  1
  6  8  1  0
  8  9  2  0
  9 10  1  0
 10 11  1  0
 10 12  2  0
 12 13  1  0
  8 14  1  0
 13 14  2  0
 14 15  1  0
M  END
