DAV-CRI-f9b12666-3-nitrile
     RDKit          3D

 39 42  0  0  0  0  0  0  0  0999 V2000
    6.5660   -4.1900   20.3130 C   0  0  0  0  0  0  0  0  0  0  0  0
    5.4450   -4.3110   19.7550 N   0  0  0  0  0  0  0  0  0  0  0  0
    6.5910   -4.1310   21.6550 N   0  0  0  0  0  0  0  0  0  0  0  0
    7.5350   -3.3520   22.3620 C   0  0  0  0  0  0  0  0  0  0  0  0
    8.3270   -4.4220   23.0250 C   0  0  1  0  0  0  0  0  0  0  0  0
    9.4220   -3.7740   23.7050 C   0  0  0  0  0  0  0  0  0  0  0  0
    9.4930   -2.4410   23.3560 N   0  0  0  0  0  0  0  0  0  0  0  0
   10.6430   -1.9580   23.9930 C   0  0  0  0  0  0  0  0  0  0  0  0
   11.1970   -0.5690   23.9480 C   0  0  0  0  0  0  0  0  0  0  0  0
   12.4880   -0.0790   24.6450 C   0  0  0  0  0  0  0  0  0  0  0  0
   12.0230    1.2440   23.9920 C   0  0  0  0  0  0  0  0  0  0  0  0
   12.9300    1.7090   23.0850 C   0  0  0  0  0  0  0  0  0  0  0  0
   12.8000    2.9880   22.4560 C   0  0  0  0  0  0  0  0  0  0  0  0
   11.7540    3.7380   22.7550 C   0  0  0  0  0  0  0  0  0  0  0  0
   10.7500    3.3460   23.6550 C   0  0  0  0  0  0  0  0  0  0  0  0
    9.6290    4.6720   23.7690 S   0  0  0  0  0  0  0  0  0  0  0  0
    8.5390    4.4200   22.5330 N   0  0  0  0  0  0  0  0  0  0  0  0
    8.9000    4.6870   25.0200 O   0  0  0  0  0  0  0  0  0  0  0  0
   10.3900    5.8550   23.3770 O   0  0  0  0  0  0  0  0  0  0  0  0
   10.8400    2.0750   24.2830 C   0  0  0  0  0  0  0  0  0  0  0  0
   12.9380   -1.4780   25.3110 C   0  0  0  0  0  0  0  0  0  0  0  0
   12.3940   -2.7350   25.3440 C   0  0  0  0  0  0  0  0  0  0  0  0
   11.3110   -2.9640   24.7430 C   0  0  0  0  0  0  0  0  0  0  0  0
   10.5080   -4.5290   24.7600 S   0  0  0  0  0  0  0  0  0  0  0  0
    7.8920   -5.4880   23.7800 C   0  0  0  0  0  0  0  0  0  0  0  0
    6.9590   -6.1140   22.9680 C   0  0  0  0  0  0  0  0  0  0  0  0
    5.9610   -5.0710   22.5460 C   0  0  2  0  0  0  0  0  0  0  0  0
    4.7980   -5.6850   22.0650 N   0  0  0  0  0  0  0  0  0  0  0  0
    3.8290   -5.6530   23.0260 C   0  0  0  0  0  0  0  0  0  0  0  0
    3.4320   -4.4150   23.6050 O   0  0  0  0  0  0  0  0  0  0  0  0
    3.2180   -6.9280   23.5640 C   0  0  2  0  0  0  0  0  0  0  0  0
    2.2010   -7.7070   22.7170 C   0  0  0  0  0  0  0  0  0  0  0  0
    0.9320   -7.0750   22.2170 C   0  0  0  0  0  0  0  0  0  0  0  0
    0.1990   -8.0010   21.3160 N   0  0  0  0  0  0  0  0  0  0  0  0
    0.5290   -5.9520   22.4880 O   0  0  0  0  0  0  0  0  0  0  0  0
    2.5010   -6.5900   24.8120 N   0  0  0  0  0  0  0  0  0  0  0  0
    2.6560   -7.6900   25.7310 C   0  0  1  0  0  0  0  0  0  0  0  0
    1.6510   -7.8570   26.8490 C   0  0  0  0  0  0  0  0  0  0  0  0
    2.6150   -8.8470   24.8900 N   0  0  0  0  0  0  0  0  0  0  0  0
  1  2  2  3
  1  3  1  0
  3  4  1  0
  4  5  1  0
  5  6  1  1
  6  7  2  0
  7  8  1  0
  8  9  2  0
  9 10  1  0
 10 11  1  0
 11 12  2  0
 12 13  1  0
 13 14  2  0
 14 15  1  0
 15 16  1  0
 16 17  1  0
 16 18  2  0
 16 19  2  0
 11 20  1  0
 15 20  2  0
 10 21  2  0
 21 22  1  0
  8 23  1  0
 22 23  2  0
  6 24  1  0
 23 24  1  0
  5 25  1  0
 25 26  1  0
  3 27  1  0
 26 27  1  0
 27 28  1  6
 28 29  1  0
 29 30  2  0
 29 31  1  0
 31 32  1  6
 32 33  1  0
 33 34  1  0
 33 35  2  0
 31 36  1  0
 36 37  1  0
 37 38  1  1
 37 39  1  0
M  END
