DAV-CRI-f9b12666-3-acrylamide
     RDKit          3D

 41 44  0  0  0  0  0  0  0  0999 V2000
    7.7270   -4.8540   21.0200 C   0  0  0  0  0  0  0  0  0  0  0  0
    6.2570   -5.0760   21.3120 C   0  0  0  0  0  0  0  0  0  0  0  0
    5.4830   -4.0310   20.5580 C   0  0  0  0  0  0  0  0  0  0  0  0
    4.8270   -3.0430   20.2940 O   0  0  0  0  0  0  0  0  0  0  0  0
    5.2940   -3.5520   21.8640 N   0  0  0  0  0  0  0  0  0  0  0  0
    5.9810   -2.3020   22.1670 C   0  0  0  0  0  0  0  0  0  0  0  0
    6.4910   -2.2520   23.6190 C   0  0  2  0  0  0  0  0  0  0  0  0
    7.4710   -1.1020   23.7610 C   0  0  0  0  0  0  0  0  0  0  0  0
    8.6230   -1.0160   22.9800 N   0  0  0  0  0  0  0  0  0  0  0  0
    9.3750    0.1870   23.3150 C   0  0  0  0  0  0  0  0  0  0  0  0
   10.6780    0.4960   22.5950 C   0  0  0  0  0  0  0  0  0  0  0  0
   11.0360    1.7480   23.2420 C   0  0  0  0  0  0  0  0  0  0  0  0
   12.2860    2.2450   22.7140 C   0  0  0  0  0  0  0  0  0  0  0  0
   12.2990    0.9930   23.1140 C   0  0  0  0  0  0  0  0  0  0  0  0
   10.9900    0.6410   23.6300 C   0  0  0  0  0  0  0  0  0  0  0  0
    9.9730    1.6970   23.6040 C   0  0  0  0  0  0  0  0  0  0  0  0
   10.2300    3.0310   23.0980 C   0  0  0  0  0  0  0  0  0  0  0  0
    8.9170    4.1710   23.1560 S   0  0  0  0  0  0  0  0  0  0  0  0
    8.1270    3.9400   21.7070 N   0  0  0  0  0  0  0  0  0  0  0  0
    7.9530    3.8190   24.1820 O   0  0  0  0  0  0  0  0  0  0  0  0
    9.4630    5.5200   23.1140 O   0  0  0  0  0  0  0  0  0  0  0  0
   11.4920    3.3460   22.6030 C   0  0  0  0  0  0  0  0  0  0  0  0
   10.4440    2.5600   24.2500 C   0  0  0  0  0  0  0  0  0  0  0  0
    9.2420    2.1310   24.8180 C   0  0  0  0  0  0  0  0  0  0  0  0
    8.6770    0.9810   24.4030 C   0  0  0  0  0  0  0  0  0  0  0  0
    7.2310    0.1860   24.8910 S   0  0  0  0  0  0  0  0  0  0  0  0
    7.1200   -3.6070   24.0350 C   0  0  0  0  0  0  0  0  0  0  0  0
    6.0900   -4.7150   23.8830 C   0  0  0  0  0  0  0  0  0  0  0  0
    4.8630   -4.2910   23.0810 C   0  0  2  0  0  0  0  0  0  0  0  0
    3.9110   -5.3670   22.8500 N   0  0  0  0  0  0  0  0  0  0  0  0
    2.7160   -5.3650   23.5760 C   0  0  0  0  0  0  0  0  0  0  0  0
    2.4500   -4.4150   24.3110 O   0  0  0  0  0  0  0  0  0  0  0  0
    1.7570   -6.5660   23.4270 C   0  0  2  0  0  0  0  0  0  0  0  0
    1.4840   -7.3450   24.5630 C   0  0  0  0  0  0  0  0  0  0  0  0
    2.5670   -8.3150   25.0170 C   0  0  0  0  0  0  0  0  0  0  0  0
    2.1330   -9.3450   25.8030 N   0  0  0  0  0  0  0  0  0  0  0  0
    3.7430   -8.1910   24.7080 O   0  0  0  0  0  0  0  0  0  0  0  0
    2.1170   -7.4920   22.3180 N   0  0  0  0  0  0  0  0  0  0  0  0
    1.1080   -8.4090   21.8290 C   0  0  2  0  0  0  0  0  0  0  0  0
    1.5740   -9.0340   20.5040 C   0  0  0  0  0  0  0  0  0  0  0  0
   -0.0690   -7.6000   21.6130 N   0  0  0  0  0  0  0  0  0  0  0  0
  1  2  1  0
  2  3  1  0
  3  4  2  0
  3  5  1  0
  5  6  1  0
  6  7  1  0
  7  8  1  6
  8  9  2  0
  9 10  1  0
 10 11  2  0
 11 12  1  0
 12 13  1  0
 13 14  2  0
 14 15  1  0
 15 16  2  0
 16 17  1  0
 17 18  1  0
 18 19  1  0
 18 20  2  0
 18 21  2  0
 13 22  1  0
 17 22  2  0
 12 23  2  0
 23 24  1  0
 10 25  1  0
 24 25  2  0
  8 26  1  0
 25 26  1  0
  7 27  1  0
 27 28  1  0
  5 29  1  0
 28 29  1  0
 29 30  1  6
 30 31  1  0
 31 32  2  0
 31 33  1  0
 33 34  1  1
 34 35  1  0
 35 36  1  0
 35 37  2  0
 33 38  1  0
 38 39  1  0
 39 40  1  6
 39 41  1  0
M  END
