DAV-CRI-14a23e73-4-chloroacetamide
     RDKit          3D

 24 25  0  0  0  0  0  0  0  0999 V2000
    7.4910   -4.4310   20.9750 C   0  0  0  0  0  0  0  0  0  0  0  0
    7.8880   -3.1810   20.2490 C   0  0  0  0  0  0  0  0  0  0  0  0
    7.0950   -3.0670   19.1550 O   0  0  0  0  0  0  0  0  0  0  0  0
    9.1170   -2.4220   20.7990 N   0  0  0  0  0  0  0  0  0  0  0  0
    9.5290   -1.4130   21.9730 C   0  0  1  0  0  0  0  0  0  0  0  0
    8.5900   -1.6660   23.1630 C   0  0  0  0  0  0  0  0  0  0  0  0
   11.1060   -1.4680   22.5640 C   0  0  0  0  0  0  0  0  0  0  0  0
   11.7620   -2.5020   22.5180 C   0  0  0  0  0  0  0  0  0  0  0  0
   12.5770   -1.7820   23.1020 C   0  0  0  0  0  0  0  0  0  0  0  0
   13.6860   -2.9710   23.2550 Cl  0  0  0  0  0  0  0  0  0  0  0  0
   11.2390   -1.1410   22.6970 C   0  0  0  0  0  0  0  0  0  0  0  0
   11.4480    0.1290   23.1420 C   0  0  0  0  0  0  0  0  0  0  0  0
   11.0690    1.5060   23.3680 C   0  0  0  0  0  0  0  0  0  0  0  0
   12.1320    2.4760   22.8870 C   0  0  0  0  0  0  0  0  0  0  0  0
   11.8230    3.8020   23.0750 C   0  0  0  0  0  0  0  0  0  0  0  0
   10.6140    4.1420   23.6760 C   0  0  0  0  0  0  0  0  0  0  0  0
   10.2360    5.8310   23.8890 S   0  0  0  0  0  0  0  0  0  0  0  0
    8.9250    5.8970   22.8340 N   0  0  0  0  0  0  0  0  0  0  0  0
   11.2790    6.6270   23.2940 O   0  0  0  0  0  0  0  0  0  0  0  0
    9.7760    6.0220   25.2450 O   0  0  0  0  0  0  0  0  0  0  0  0
    9.6670    3.2150   24.1180 C   0  0  0  0  0  0  0  0  0  0  0  0
    8.4630    3.6270   24.7270 C   0  0  0  0  0  0  0  0  0  0  0  0
    9.9090    1.8800   23.9570 C   0  0  0  0  0  0  0  0  0  0  0  0
   12.3560   -0.5670   23.3100 C   0  0  0  0  0  0  0  0  0  0  0  0
  1  2  1  0
  2  3  2  0
  2  4  1  0
  4  5  1  0
  5  6  1  1
  5  7  1  0
  7  8  2  0
  8  9  1  0
  9 10  1  0
  9 11  2  0
 11 12  1  0
 12 13  1  0
 13 14  2  0
 14 15  1  0
 15 16  2  0
 16 17  1  0
 17 18  1  0
 17 19  2  0
 17 20  2  0
 16 21  1  0
 21 22  1  0
 13 23  1  0
 21 23  2  0
  7 24  1  0
 12 24  2  0
M  END
