DAV-CRI-3edb475e-6-chloroacetamide
     RDKit          3D

 14 14  0  0  0  0  0  0  0  0999 V2000
    7.9900   -3.8660   20.3420 C   0  0  0  0  0  0  0  0  0  0  0  0
    7.2010   -2.7000   20.0140 C   0  0  0  0  0  0  0  0  0  0  0  0
    6.3780   -2.8080   19.0390 O   0  0  0  0  0  0  0  0  0  0  0  0
    7.5430   -1.6430   20.9150 N   0  0  0  0  0  0  0  0  0  0  0  0
    8.1560   -1.8850   22.2760 C   0  0  2  0  0  0  0  0  0  0  0  0
    7.2410   -1.3910   23.3940 C   0  0  0  0  0  0  0  0  0  0  0  0
    9.5580   -1.2670   22.5030 C   0  0  0  0  0  0  0  0  0  0  0  0
    9.7660   -0.1200   23.2760 C   0  0  0  0  0  0  0  0  0  0  0  0
   11.0460    0.4520   23.4930 C   0  0  0  0  0  0  0  0  0  0  0  0
   11.1440    1.5490   24.2370 F   0  0  0  0  0  0  0  0  0  0  0  0
   12.1990   -0.1230   22.9300 C   0  0  0  0  0  0  0  0  0  0  0  0
   12.0710   -1.3550   22.0880 C   0  0  0  0  0  0  0  0  0  0  0  0
   13.3350   -2.1650   21.3230 Cl  0  0  0  0  0  0  0  0  0  0  0  0
   10.6650   -1.8700   21.9260 C   0  0  0  0  0  0  0  0  0  0  0  0
  1  2  1  0
  2  3  2  0
  2  4  1  0
  4  5  1  0
  5  6  1  1
  5  7  1  0
  7  8  2  0
  8  9  1  0
  9 10  1  0
  9 11  2  0
 11 12  1  0
 12 13  1  0
  7 14  1  0
 12 14  2  0
M  END
