DAV-CRI-14a23e73-1-vinylsulfonamide
     RDKit          3D

 25 26  0  0  0  0  0  0  0  0999 V2000
    7.4300   -5.5080   20.1610 C   0  0  0  0  0  0  0  0  0  0  0  0
    7.5630   -5.6600   21.6650 C   0  0  0  0  0  0  0  0  0  0  0  0
    6.3920   -4.5110   22.3740 S   0  0  0  0  0  0  0  0  0  0  0  0
    5.1020   -4.6180   21.6580 O   0  0  0  0  0  0  0  0  0  0  0  0
    6.4720   -4.6010   23.8210 O   0  0  0  0  0  0  0  0  0  0  0  0
    7.1200   -3.0120   21.8730 N   0  0  0  0  0  0  0  0  0  0  0  0
    8.2720   -2.2620   22.5100 C   0  0  2  0  0  0  0  0  0  0  0  0
    8.8420   -1.3220   21.4100 C   0  0  0  0  0  0  0  0  0  0  0  0
    9.2770   -3.2980   22.9630 C   0  0  0  0  0  0  0  0  0  0  0  0
    8.0010   -3.8020   22.6660 C   0  0  0  0  0  0  0  0  0  0  0  0
    7.5780   -2.4160   22.3860 C   0  0  0  0  0  0  0  0  0  0  0  0
    5.9580   -1.9690   21.8890 Cl  0  0  0  0  0  0  0  0  0  0  0  0
    8.5270   -1.4200   22.5270 C   0  0  0  0  0  0  0  0  0  0  0  0
    9.8790   -1.0390   22.8510 C   0  0  0  0  0  0  0  0  0  0  0  0
   10.4310    0.4010   22.8180 C   0  0  0  0  0  0  0  0  0  0  0  0
   11.9430    0.5750   22.9530 C   0  0  0  0  0  0  0  0  0  0  0  0
   12.4060    1.9010   22.9050 C   0  0  0  0  0  0  0  0  0  0  0  0
   11.5320    2.9890   22.7450 C   0  0  0  0  0  0  0  0  0  0  0  0
   12.1750    4.6500   22.6800 S   0  0  0  0  0  0  0  0  0  0  0  0
   10.7820    5.5590   22.5470 N   0  0  0  0  0  0  0  0  0  0  0  0
   12.9020    4.7980   21.4490 O   0  0  0  0  0  0  0  0  0  0  0  0
   12.7270    4.9900   23.9570 O   0  0  0  0  0  0  0  0  0  0  0  0
   10.1520    2.8130   22.6280 C   0  0  0  0  0  0  0  0  0  0  0  0
    9.6080    1.5200   22.6650 C   0  0  0  0  0  0  0  0  0  0  0  0
   10.3300   -2.2900   23.1330 C   0  0  0  0  0  0  0  0  0  0  0  0
  1  2  1  0
  2  3  1  0
  3  4  2  0
  3  5  2  0
  3  6  1  0
  6  7  1  0
  7  8  1  6
  7  9  1  0
  9 10  2  0
 10 11  1  0
 11 12  1  0
 11 13  2  0
 13 14  1  0
 14 15  1  0
 15 16  2  0
 16 17  1  0
 17 18  2  0
 18 19  1  0
 19 20  1  0
 19 21  2  0
 19 22  2  0
 18 23  1  0
 15 24  1  0
 23 24  2  0
  9 25  1  0
 14 25  2  0
M  END
