DAV-CRI-f9b12666-7-acrylamide
     RDKit          3D

 42 45  0  0  0  0  0  0  0  0999 V2000
    6.9120   -3.3540   19.4550 C   0  0  0  0  0  0  0  0  0  0  0  0
    6.2990   -3.9420   20.7700 C   0  0  0  0  0  0  0  0  0  0  0  0
    4.9720   -3.2300   21.1520 C   0  0  0  0  0  0  0  0  0  0  0  0
    4.8950   -3.3020   19.9340 O   0  0  0  0  0  0  0  0  0  0  0  0
    5.3220   -3.2870   22.5340 N   0  0  0  0  0  0  0  0  0  0  0  0
    6.1080   -2.1760   22.9980 C   0  0  0  0  0  0  0  0  0  0  0  0
    7.2710   -2.3400   22.0830 C   0  0  1  0  0  0  0  0  0  0  0  0
    8.6020   -1.8650   22.5010 C   0  0  0  0  0  0  0  0  0  0  0  0
    8.9350   -0.5620   22.2970 N   0  0  0  0  0  0  0  0  0  0  0  0
   10.2760   -0.4540   22.7370 C   0  0  0  0  0  0  0  0  0  0  0  0
   11.0160    0.7410   22.6940 C   0  0  0  0  0  0  0  0  0  0  0  0
   12.2960    0.7850   23.1180 C   0  0  0  0  0  0  0  0  0  0  0  0
   12.6160    2.1390   22.9260 C   0  0  0  0  0  0  0  0  0  0  0  0
   11.4730    1.5780   23.4860 C   0  0  0  0  0  0  0  0  0  0  0  0
   10.2300    2.0420   24.0410 C   0  0  0  0  0  0  0  0  0  0  0  0
   10.0600    3.3550   24.0470 C   0  0  0  0  0  0  0  0  0  0  0  0
    9.0860    3.9750   24.4690 O   0  0  0  0  0  0  0  0  0  0  0  0
   11.0830    4.1020   23.5400 C   0  0  0  0  0  0  0  0  0  0  0  0
   10.7110    5.7670   23.6330 S   0  0  0  0  0  0  0  0  0  0  0  0
    9.2960    5.8570   22.7370 N   0  0  0  0  0  0  0  0  0  0  0  0
   11.7130    6.5420   22.9310 O   0  0  0  0  0  0  0  0  0  0  0  0
   10.3170    6.0790   25.0000 O   0  0  0  0  0  0  0  0  0  0  0  0
   12.2860    3.5480   23.0160 C   0  0  0  0  0  0  0  0  0  0  0  0
   13.0040   -0.3390   23.6260 C   0  0  0  0  0  0  0  0  0  0  0  0
   12.2750   -1.5690   23.6950 C   0  0  0  0  0  0  0  0  0  0  0  0
   10.9480   -1.6640   23.2760 C   0  0  0  0  0  0  0  0  0  0  0  0
    9.7930   -2.9080   23.2130 S   0  0  0  0  0  0  0  0  0  0  0  0
    7.4670   -3.8370   21.8560 C   0  0  0  0  0  0  0  0  0  0  0  0
    7.1000   -4.7530   22.9650 C   0  0  0  0  0  0  0  0  0  0  0  0
    5.6810   -4.4940   23.2630 C   0  0  2  0  0  0  0  0  0  0  0  0
    4.8000   -5.5040   22.8600 N   0  0  0  0  0  0  0  0  0  0  0  0
    3.5890   -5.4270   23.4510 C   0  0  0  0  0  0  0  0  0  0  0  0
    3.0550   -4.3550   23.7100 O   0  0  0  0  0  0  0  0  0  0  0  0
    3.0100   -6.7590   23.7840 C   0  0  1  0  0  0  0  0  0  0  0  0
    2.1590   -6.8770   24.8750 C   0  0  0  0  0  0  0  0  0  0  0  0
    2.4810   -8.1380   25.6400 C   0  0  0  0  0  0  0  0  0  0  0  0
    1.9810   -8.2790   26.8960 N   0  0  0  0  0  0  0  0  0  0  0  0
    3.1850   -8.9910   25.1470 O   0  0  0  0  0  0  0  0  0  0  0  0
    2.4540   -7.3790   22.5680 N   0  0  0  0  0  0  0  0  0  0  0  0
    1.0630   -7.6790   22.3460 C   0  0  1  0  0  0  0  0  0  0  0  0
    1.0100   -8.7190   21.2380 C   0  0  0  0  0  0  0  0  0  0  0  0
    0.5340   -8.2510   23.5590 N   0  0  0  0  0  0  0  0  0  0  0  0
  1  2  1  0
  2  3  1  0
  3  4  2  0
  3  5  1  0
  5  6  1  0
  6  7  1  0
  7  8  1  1
  8  9  2  0
  9 10  1  0
 10 11  2  0
 11 12  1  0
 12 13  1  0
 13 14  2  0
 14 15  1  0
 15 16  2  0
 16 17  1  0
 16 18  1  0
 18 19  1  0
 19 20  1  0
 19 21  2  0
 19 22  2  0
 13 23  1  0
 18 23  2  0
 12 24  2  0
 24 25  1  0
 10 26  1  0
 25 26  2  0
  8 27  1  0
 26 27  1  0
  7 28  1  0
 28 29  1  0
  5 30  1  0
 29 30  1  0
 30 31  1  6
 31 32  1  0
 32 33  2  0
 32 34  1  0
 34 35  1  1
 35 36  1  0
 36 37  1  0
 36 38  2  0
 34 39  1  0
 39 40  1  0
 40 41  1  6
 40 42  1  0
M  END
