DAV-CRI-3fe943ba-1-acrylamide
     RDKit          3D

 28 31  0  0  0  0  0  0  0  0999 V2000
    7.9760   -3.3120   19.2250 C   0  0  0  0  0  0  0  0  0  0  0  0
    6.8270   -2.3630   19.1850 C   0  0  0  0  0  0  0  0  0  0  0  0
    6.0350   -2.6980   20.3860 C   0  0  0  0  0  0  0  0  0  0  0  0
    4.9750   -3.2590   20.2680 O   0  0  0  0  0  0  0  0  0  0  0  0
    6.5950   -2.4000   21.5890 N   0  0  0  0  0  0  0  0  0  0  0  0
    6.1740   -3.0220   22.7780 C   0  0  0  0  0  0  0  0  0  0  0  0
    7.2660   -3.4830   23.5190 C   0  0  0  0  0  0  0  0  0  0  0  0
    6.7970   -4.4050   24.6430 C   0  0  0  0  0  0  0  0  0  0  0  0
    7.7760   -5.0630   25.6200 C   0  0  0  0  0  0  0  0  0  0  0  0
    9.2730   -4.8470   25.5460 C   0  0  0  0  0  0  0  0  0  0  0  0
    9.8250   -3.9340   24.4530 C   0  0  0  0  0  0  0  0  0  0  0  0
    8.7930   -3.3280   23.5260 C   0  0  0  0  0  0  0  0  0  0  0  0
    8.9750   -2.3920   22.3090 C   0  0  2  0  0  0  0  0  0  0  0  0
    9.8850   -1.3250   22.5650 C   0  0  0  0  0  0  0  0  0  0  0  0
   11.3360   -1.5870   22.2070 C   0  0  0  0  0  0  0  0  0  0  0  0
   12.2580   -0.5780   22.3880 C   0  0  0  0  0  0  0  0  0  0  0  0
   11.8620    0.7760   22.9250 C   0  0  0  0  0  0  0  0  0  0  0  0
   10.4760    1.0800   23.3140 C   0  0  0  0  0  0  0  0  0  0  0  0
    9.4980   -0.0770   23.0950 C   0  0  0  0  0  0  0  0  0  0  0  0
   10.1650    2.4500   23.8510 C   0  0  0  0  0  0  0  0  0  0  0  0
   10.6830    3.4530   22.9990 C   0  0  1  0  0  0  0  0  0  0  0  0
   10.1800    5.0740   23.6450 S   0  0  0  0  0  0  0  0  0  0  0  0
    8.8590    5.4640   22.6510 N   0  0  0  0  0  0  0  0  0  0  0  0
   11.1860    6.0670   23.3290 O   0  0  0  0  0  0  0  0  0  0  0  0
    9.6410    4.9950   24.9790 O   0  0  0  0  0  0  0  0  0  0  0  0
   12.2320    3.3040   22.7720 C   0  0  0  0  0  0  0  0  0  0  0  0
   12.7650    1.8870   23.1120 C   0  0  0  0  0  0  0  0  0  0  0  0
    7.7770   -1.6110   21.7380 C   0  0  0  0  0  0  0  0  0  0  0  0
  1  2  1  0
  2  3  1  0
  3  4  2  0
  3  5  1  0
  5  6  1  0
  6  7  1  0
  7  8  1  0
  8  9  2  0
  9 10  1  0
 10 11  2  0
  7 12  2  0
 11 12  1  0
 12 13  1  0
 13 14  1  1
 14 15  2  0
 15 16  1  0
 16 17  2  0
 17 18  1  0
 14 19  1  0
 18 19  2  0
 18 20  1  0
 20 21  1  0
 21 22  1  1
 22 23  1  0
 22 24  2  0
 22 25  2  0
 21 26  1  0
 17 27  1  0
 26 27  1  0
  5 28  1  0
 13 28  1  0
M  END
