DAV-CRI-3edb475e-4-vinylsulfonamide
     RDKit          3D

 16 16  0  0  0  0  0  0  0  0999 V2000
    7.2800   -3.0570   18.6100 C   0  0  0  0  0  0  0  0  0  0  0  0
    7.1410   -1.8930   19.5460 C   0  0  0  0  0  0  0  0  0  0  0  0
    6.2480   -2.2320   21.0270 S   0  0  0  0  0  0  0  0  0  0  0  0
    5.1130   -3.3040   20.8300 O   0  0  0  0  0  0  0  0  0  0  0  0
    5.9860   -0.8860   21.4750 O   0  0  0  0  0  0  0  0  0  0  0  0
    7.6550   -2.6120   21.9720 N   0  0  0  0  0  0  0  0  0  0  0  0
    8.1340   -1.5550   22.9000 C   0  0  1  0  0  0  0  0  0  0  0  0
    7.7240   -1.8980   24.3280 C   0  0  0  0  0  0  0  0  0  0  0  0
    8.5500   -1.8810   25.2400 O   0  0  0  0  0  0  0  0  0  0  0  0
    9.6410   -1.1820   22.8650 C   0  0  0  0  0  0  0  0  0  0  0  0
   10.1020   -0.0880   23.6070 C   0  0  0  0  0  0  0  0  0  0  0  0
   11.4290    0.3520   23.6540 C   0  0  0  0  0  0  0  0  0  0  0  0
   12.4370   -0.2820   22.9470 C   0  0  0  0  0  0  0  0  0  0  0  0
   12.1070   -1.4790   22.1000 C   0  0  0  0  0  0  0  0  0  0  0  0
   13.2450   -2.3420   21.1870 Cl  0  0  0  0  0  0  0  0  0  0  0  0
   10.6170   -1.8790   22.1150 C   0  0  0  0  0  0  0  0  0  0  0  0
  1  2  1  0
  2  3  1  0
  3  4  2  0
  3  5  2  0
  3  6  1  0
  6  7  1  0
  7  8  1  1
  8  9  1  0
  7 10  1  0
 10 11  2  0
 11 12  1  0
 12 13  2  0
 13 14  1  0
 14 15  1  0
 10 16  1  0
 14 16  2  0
M  END
