DAV-CRI-3edb475e-2-vinylsulfonamide
     RDKit          3D

 16 16  0  0  0  0  0  0  0  0999 V2000
    7.4580   -2.9280   18.7290 C   0  0  0  0  0  0  0  0  0  0  0  0
    7.2850   -2.1780   20.0460 C   0  0  0  0  0  0  0  0  0  0  0  0
    6.5990   -3.2840   21.2560 S   0  0  0  0  0  0  0  0  0  0  0  0
    5.0570   -3.3750   21.2540 O   0  0  0  0  0  0  0  0  0  0  0  0
    7.2750   -4.5270   21.1780 O   0  0  0  0  0  0  0  0  0  0  0  0
    7.4920   -2.6980   22.6130 N   0  0  0  0  0  0  0  0  0  0  0  0
    8.0050   -1.3190   22.6760 C   0  0  1  0  0  0  0  0  0  0  0  0
    7.4280   -0.6760   23.9320 C   0  0  0  0  0  0  0  0  0  0  0  0
    9.5470   -1.0690   22.6920 C   0  0  0  0  0  0  0  0  0  0  0  0
   10.0360    0.0310   23.4000 C   0  0  0  0  0  0  0  0  0  0  0  0
   11.3670    0.4630   23.5370 C   0  0  0  0  0  0  0  0  0  0  0  0
   11.6950    1.4460   24.1680 O   0  0  0  0  0  0  0  0  0  0  0  0
   12.3360   -0.3100   22.8850 C   0  0  0  0  0  0  0  0  0  0  0  0
   12.0050   -1.5320   22.0790 C   0  0  0  0  0  0  0  0  0  0  0  0
   13.1690   -2.4790   21.2740 Cl  0  0  0  0  0  0  0  0  0  0  0  0
   10.5060   -1.8590   22.0300 C   0  0  0  0  0  0  0  0  0  0  0  0
  1  2  1  0
  2  3  1  0
  3  4  2  0
  3  5  2  0
  3  6  1  0
  6  7  1  0
  7  8  1  1
  7  9  1  0
  9 10  2  0
 10 11  1  0
 11 12  1  0
 11 13  2  0
 13 14  1  0
 14 15  1  0
  9 16  1  0
 14 16  2  0
M  END
