DAV-CRI-d1e0885a-5-nitrile
     RDKit          3D

 19 20  0  0  0  0  0  0  0  0999 V2000
    6.8120   -3.6260   19.9700 C   0  0  0  0  0  0  0  0  0  0  0  0
    5.7630   -4.3440   19.8510 N   0  0  0  0  0  0  0  0  0  0  0  0
    6.9010   -2.7100   20.9810 N   0  0  0  0  0  0  0  0  0  0  0  0
    6.6040   -3.0980   22.3310 C   0  0  0  0  0  0  0  0  0  0  0  0
    7.8100   -3.3580   22.9900 C   0  0  0  0  0  0  0  0  0  0  0  0
    8.6190   -2.1070   22.9010 N   0  0  0  0  0  0  0  0  0  0  0  0
    9.9080   -2.3020   23.6030 C   0  0  0  0  0  0  0  0  0  0  0  0
   10.7100   -1.1610   23.5670 C   0  0  0  0  0  0  0  0  0  0  0  0
   11.9700   -0.9780   22.7090 C   0  0  0  0  0  0  0  0  0  0  0  0
   12.5510   -2.0070   21.7550 C   0  0  0  0  0  0  0  0  0  0  0  0
   13.0310   -2.7100   20.9910 N   0  0  0  0  0  0  0  0  0  0  0  0
   12.6120    0.2180   22.8180 C   0  0  0  0  0  0  0  0  0  0  0  0
   11.7800    1.2920   23.9480 S   0  0  0  0  0  0  0  0  0  0  0  0
   10.4910    0.1470   24.3740 C   0  0  0  0  0  0  0  0  0  0  0  0
    9.5550    0.5150   25.2560 N   0  0  0  0  0  0  0  0  0  0  0  0
    8.7270   -0.2290   26.0830 C   0  0  0  0  0  0  0  0  0  0  0  0
    7.7840   -1.2120   25.6130 O   0  0  0  0  0  0  0  0  0  0  0  0
    8.8620   -1.6980   21.5970 C   0  0  0  0  0  0  0  0  0  0  0  0
    7.6220   -1.4010   20.9140 C   0  0  0  0  0  0  0  0  0  0  0  0
  1  2  2  3
  1  3  1  0
  3  4  1  0
  4  5  1  0
  5  6  1  0
  6  7  1  0
  7  8  1  0
  8  9  1  0
  9 10  1  0
 10 11  3  0
  9 12  2  0
 12 13  1  0
  8 14  2  0
 13 14  1  0
 14 15  1  0
 15 16  1  0
 16 17  1  0
  6 18  1  0
  3 19  1  0
 18 19  1  0
M  END
