DAV-CRI-d1e0885a-4-nitrile
     RDKit          3D

 19 20  0  0  0  0  0  0  0  0999 V2000
    6.7160   -3.5800   19.9150 C   0  0  0  0  0  0  0  0  0  0  0  0
    5.7800   -4.4500   19.8730 N   0  0  0  0  0  0  0  0  0  0  0  0
    6.7380   -2.6220   20.9180 N   0  0  0  0  0  0  0  0  0  0  0  0
    6.2990   -3.0700   22.2480 C   0  0  0  0  0  0  0  0  0  0  0  0
    7.5760   -3.3330   23.0860 C   0  0  0  0  0  0  0  0  0  0  0  0
    8.4740   -2.1700   23.0530 N   0  0  0  0  0  0  0  0  0  0  0  0
    9.8070   -2.4830   23.5640 C   0  0  0  0  0  0  0  0  0  0  0  0
   10.7560   -1.3210   23.6040 C   0  0  0  0  0  0  0  0  0  0  0  0
   11.8590   -1.3580   22.5840 C   0  0  0  0  0  0  0  0  0  0  0  0
   12.0650   -2.3320   21.6520 C   0  0  0  0  0  0  0  0  0  0  0  0
   13.2990   -2.0910   20.9380 N   0  0  0  0  0  0  0  0  0  0  0  0
   12.6970   -0.2550   22.6800 C   0  0  0  0  0  0  0  0  0  0  0  0
   12.1510    0.7620   23.9370 S   0  0  0  0  0  0  0  0  0  0  0  0
   10.8050   -0.2180   24.4090 C   0  0  0  0  0  0  0  0  0  0  0  0
   10.0110    0.1790   25.4440 N   0  0  0  0  0  0  0  0  0  0  0  0
    9.0030   -0.5410   25.9690 C   0  0  0  0  0  0  0  0  0  0  0  0
    8.6450   -0.2900   27.4950 C   0  0  0  0  0  0  0  0  0  0  0  0
    8.6140   -1.5720   21.7120 C   0  0  0  0  0  0  0  0  0  0  0  0
    7.4580   -1.5130   20.9340 C   0  0  0  0  0  0  0  0  0  0  0  0
  1  2  2  3
  1  3  1  0
  3  4  1  0
  4  5  1  0
  5  6  1  0
  6  7  1  0
  7  8  1  0
  8  9  1  0
  9 10  1  0
 10 11  3  0
  9 12  2  0
 12 13  1  0
  8 14  2  0
 13 14  1  0
 14 15  1  0
 15 16  1  0
 16 17  1  0
  6 18  1  0
  3 19  1  0
 18 19  1  0
M  END
