DAV-CRI-f9b12666-4-vinylsulfonamide
     RDKit          3D

 42 45  0  0  0  0  0  0  0  0999 V2000
    8.1050   -4.0500   20.0970 C   0  0  0  0  0  0  0  0  0  0  0  0
    7.2050   -2.9730   19.5950 C   0  0  0  0  0  0  0  0  0  0  0  0
    5.6910   -3.3650   20.3840 S   0  0  0  0  0  0  0  0  0  0  0  0
    5.0420   -4.4010   19.6400 O   0  0  0  0  0  0  0  0  0  0  0  0
    5.0400   -2.1320   20.5580 O   0  0  0  0  0  0  0  0  0  0  0  0
    6.2030   -3.9260   21.9130 N   0  0  0  0  0  0  0  0  0  0  0  0
    7.5320   -3.4470   22.3530 C   0  0  0  0  0  0  0  0  0  0  0  0
    7.7190   -3.5760   23.8490 C   0  0  2  0  0  0  0  0  0  0  0  0
    9.1010   -2.9750   24.0660 C   0  0  0  0  0  0  0  0  0  0  0  0
    9.2780   -1.5230   23.6730 N   0  0  0  0  0  0  0  0  0  0  0  0
   10.7070   -1.1990   23.8640 C   0  0  0  0  0  0  0  0  0  0  0  0
   11.2870    0.3340   23.4660 C   0  0  0  0  0  0  0  0  0  0  0  0
   12.5080    1.3730   23.3090 C   0  0  0  0  0  0  0  0  0  0  0  0
   12.5350    0.1190   23.3010 C   0  0  0  0  0  0  0  0  0  0  0  0
   11.1650   -0.0930   23.4680 C   0  0  0  0  0  0  0  0  0  0  0  0
   10.3400    1.0800   23.5900 C   0  0  0  0  0  0  0  0  0  0  0  0
   10.7400    2.4980   23.5530 C   0  0  0  0  0  0  0  0  0  0  0  0
    9.8240    4.0720   23.7010 S   0  0  0  0  0  0  0  0  0  0  0  0
    8.6880    4.0850   22.4690 N   0  0  0  0  0  0  0  0  0  0  0  0
    9.0420    4.2170   24.9220 O   0  0  0  0  0  0  0  0  0  0  0  0
   10.7420    5.1560   23.3340 O   0  0  0  0  0  0  0  0  0  0  0  0
   12.0450    2.7570   23.3720 C   0  0  0  0  0  0  0  0  0  0  0  0
   12.7680   -0.1380   23.8610 C   0  0  0  0  0  0  0  0  0  0  0  0
   13.2480   -1.3810   24.3600 C   0  0  0  0  0  0  0  0  0  0  0  0
   12.6440   -2.4860   24.6440 C   0  0  0  0  0  0  0  0  0  0  0  0
   11.3990   -2.4900   24.4180 C   0  0  0  0  0  0  0  0  0  0  0  0
   10.4040   -3.8640   24.6710 S   0  0  0  0  0  0  0  0  0  0  0  0
    7.6750   -5.0770   24.2270 C   0  0  0  0  0  0  0  0  0  0  0  0
    7.1130   -5.8440   23.0190 C   0  0  0  0  0  0  0  0  0  0  0  0
    5.8290   -5.2510   22.4380 C   0  0  1  0  0  0  0  0  0  0  0  0
    4.7250   -5.0400   23.2180 N   0  0  0  0  0  0  0  0  0  0  0  0
    4.0300   -6.1020   23.7360 C   0  0  0  0  0  0  0  0  0  0  0  0
    4.5600   -7.1270   24.1300 O   0  0  0  0  0  0  0  0  0  0  0  0
    2.5020   -5.9230   23.8070 C   0  0  2  0  0  0  0  0  0  0  0  0
    1.8740   -5.2870   25.0520 C   0  0  0  0  0  0  0  0  0  0  0  0
    2.1510   -3.9510   25.4000 C   0  0  0  0  0  0  0  0  0  0  0  0
    1.5710   -3.5090   26.5540 N   0  0  0  0  0  0  0  0  0  0  0  0
    2.8550   -3.1990   24.7420 O   0  0  0  0  0  0  0  0  0  0  0  0
    1.9370   -7.2680   23.5030 N   0  0  0  0  0  0  0  0  0  0  0  0
    0.8250   -7.3640   22.5960 C   0  0  1  0  0  0  0  0  0  0  0  0
    0.9270   -8.5370   21.6130 C   0  0  0  0  0  0  0  0  0  0  0  0
   -0.2910   -7.6030   23.4810 N   0  0  0  0  0  0  0  0  0  0  0  0
  1  2  1  0
  3  2  1  0
  3  4  2  0
  3  5  2  0
  3  6  1  0
  6  7  1  0
  7  8  1  0
  8  9  1  6
  9 10  2  0
 10 11  1  0
 11 12  2  0
 12 13  1  0
 13 14  2  0
 14 15  1  0
 15 16  2  0
 16 17  1  0
 17 18  1  0
 18 19  1  0
 18 20  2  0
 18 21  2  0
 13 22  1  0
 17 22  2  0
 12 23  1  0
 23 24  2  0
 24 25  1  0
 11 26  1  0
 25 26  2  0
  9 27  1  0
 26 27  1  0
  8 28  1  0
 28 29  1  0
  6 30  1  0
 29 30  1  0
 30 31  1  1
 31 32  1  0
 32 33  2  0
 32 34  1  0
 34 35  1  1
 35 36  1  0
 36 37  1  0
 36 38  2  0
 34 39  1  0
 39 40  1  0
 40 41  1  6
 40 42  1  0
M  END
