DAV-CRI-f9b12666-2-nitrile
     RDKit          3D

 39 42  0  0  0  0  0  0  0  0999 V2000
    6.7670   -3.9660   20.1200 C   0  0  0  0  0  0  0  0  0  0  0  0
    5.6430   -3.9930   19.5490 N   0  0  0  0  0  0  0  0  0  0  0  0
    6.8590   -4.2710   21.4130 N   0  0  0  0  0  0  0  0  0  0  0  0
    7.5070   -3.3220   22.2670 C   0  0  0  0  0  0  0  0  0  0  0  0
    8.1530   -4.2370   23.2140 C   0  0  1  0  0  0  0  0  0  0  0  0
    9.3800   -3.6610   23.8300 C   0  0  0  0  0  0  0  0  0  0  0  0
    9.6390   -2.3000   23.5700 N   0  0  0  0  0  0  0  0  0  0  0  0
   10.9170   -2.0310   24.1710 C   0  0  0  0  0  0  0  0  0  0  0  0
   11.7930   -0.7930   24.2860 C   0  0  0  0  0  0  0  0  0  0  0  0
   11.5580    0.6790   23.8680 C   0  0  0  0  0  0  0  0  0  0  0  0
   12.4860    1.6400   23.1690 C   0  0  0  0  0  0  0  0  0  0  0  0
   12.1700    3.0110   22.9720 C   0  0  0  0  0  0  0  0  0  0  0  0
   10.8790    3.4780   23.4900 C   0  0  0  0  0  0  0  0  0  0  0  0
   10.4330    5.1510   23.3880 S   0  0  0  0  0  0  0  0  0  0  0  0
    8.9810    5.1450   22.5650 N   0  0  0  0  0  0  0  0  0  0  0  0
   10.0590    5.5650   24.7280 O   0  0  0  0  0  0  0  0  0  0  0  0
   11.3820    5.9310   22.6220 O   0  0  0  0  0  0  0  0  0  0  0  0
   10.0050    2.6010   24.0900 C   0  0  0  0  0  0  0  0  0  0  0  0
   10.2320    1.2120   24.3180 C   0  0  0  0  0  0  0  0  0  0  0  0
   12.9860   -0.9850   24.9270 C   0  0  0  0  0  0  0  0  0  0  0  0
   13.4760   -2.1710   25.5040 C   0  0  0  0  0  0  0  0  0  0  0  0
   12.7230   -3.2990   25.4810 C   0  0  0  0  0  0  0  0  0  0  0  0
   11.5140   -3.2240   24.8510 C   0  0  0  0  0  0  0  0  0  0  0  0
   10.4350   -4.6200   24.7650 S   0  0  0  0  0  0  0  0  0  0  0  0
    7.4730   -5.0340   24.0880 C   0  0  0  0  0  0  0  0  0  0  0  0
    6.6530   -5.8900   23.3250 C   0  0  0  0  0  0  0  0  0  0  0  0
    6.0130   -5.2970   22.0420 C   0  0  1  0  0  0  0  0  0  0  0  0
    4.7300   -4.7040   22.3260 N   0  0  0  0  0  0  0  0  0  0  0  0
    4.0180   -5.0650   23.4570 C   0  0  0  0  0  0  0  0  0  0  0  0
    3.6960   -4.0700   24.4090 O   0  0  0  0  0  0  0  0  0  0  0  0
    3.5880   -6.4890   23.8090 C   0  0  2  0  0  0  0  0  0  0  0  0
    2.7460   -7.3340   22.8650 C   0  0  0  0  0  0  0  0  0  0  0  0
    1.3510   -6.9650   22.3820 C   0  0  0  0  0  0  0  0  0  0  0  0
    0.7200   -8.0730   21.6090 N   0  0  0  0  0  0  0  0  0  0  0  0
    0.7740   -5.9000   22.5700 O   0  0  0  0  0  0  0  0  0  0  0  0
    2.7340   -6.4590   25.0040 N   0  0  0  0  0  0  0  0  0  0  0  0
    2.8130   -7.7720   25.5950 C   0  0  1  0  0  0  0  0  0  0  0  0
    1.9210   -8.0980   26.7750 C   0  0  0  0  0  0  0  0  0  0  0  0
    2.5470   -8.6990   24.5190 N   0  0  0  0  0  0  0  0  0  0  0  0
  1  2  2  3
  1  3  1  0
  3  4  1  0
  4  5  1  0
  5  6  1  1
  6  7  2  0
  7  8  1  0
  8  9  2  0
  9 10  1  0
 10 11  2  0
 11 12  1  0
 12 13  2  0
 13 14  1  0
 14 15  1  0
 14 16  2  0
 14 17  2  0
 13 18  1  0
 10 19  1  0
 18 19  2  0
  9 20  1  0
 20 21  2  0
 21 22  1  0
  8 23  1  0
 22 23  2  0
  6 24  1  0
 23 24  1  0
  5 25  1  0
 25 26  1  0
  3 27  1  0
 26 27  1  0
 27 28  1  1
 28 29  1  0
 29 30  2  0
 29 31  1  0
 31 32  1  6
 32 33  1  0
 33 34  1  0
 33 35  2  0
 31 36  1  0
 36 37  1  0
 37 38  1  1
 37 39  1  0
M  END
