DAV-CRI-f9b12666-5-vinylsulfonamide
     RDKit          3D

 43 46  0  0  0  0  0  0  0  0999 V2000
    7.3480   -2.9600   18.7810 C   0  0  0  0  0  0  0  0  0  0  0  0
    7.3050   -2.4620   20.1960 C   0  0  0  0  0  0  0  0  0  0  0  0
    5.6570   -2.7830   20.7470 S   0  0  0  0  0  0  0  0  0  0  0  0
    5.1140   -3.8480   19.9190 O   0  0  0  0  0  0  0  0  0  0  0  0
    5.0210   -1.4910   20.8290 O   0  0  0  0  0  0  0  0  0  0  0  0
    5.8300   -3.3870   22.3330 N   0  0  0  0  0  0  0  0  0  0  0  0
    6.9330   -2.7210   23.0880 C   0  0  0  0  0  0  0  0  0  0  0  0
    8.1820   -3.6130   23.1800 C   0  0  2  0  0  0  0  0  0  0  0  0
    9.4890   -2.7170   23.3210 C   0  0  0  0  0  0  0  0  0  0  0  0
   10.8100   -3.3800   23.5500 N   0  0  0  0  0  0  0  0  0  0  0  0
   11.6550   -2.1720   23.6110 C   0  0  0  0  0  0  0  0  0  0  0  0
   13.0860   -1.6150   23.7810 C   0  0  0  0  0  0  0  0  0  0  0  0
   12.1910   -0.4540   23.6200 C   0  0  0  0  0  0  0  0  0  0  0  0
   11.9360    0.9270   23.5420 C   0  0  0  0  0  0  0  0  0  0  0  0
   10.6930    1.2580   24.1480 C   0  0  0  0  0  0  0  0  0  0  0  0
   10.2830    2.5520   24.1570 C   0  0  0  0  0  0  0  0  0  0  0  0
   11.0060    3.6670   23.5940 C   0  0  0  0  0  0  0  0  0  0  0  0
   10.3840    5.3270   23.6720 S   0  0  0  0  0  0  0  0  0  0  0  0
    9.0240    5.2780   22.6910 N   0  0  0  0  0  0  0  0  0  0  0  0
   11.3020    6.2360   23.0310 O   0  0  0  0  0  0  0  0  0  0  0  0
    9.8600    5.5720   25.0040 O   0  0  0  0  0  0  0  0  0  0  0  0
   12.2390    3.3530   22.9860 C   0  0  0  0  0  0  0  0  0  0  0  0
   13.0690    4.2580   22.3950 O   0  0  0  0  0  0  0  0  0  0  0  0
   12.6860    1.9970   22.9740 C   0  0  0  0  0  0  0  0  0  0  0  0
   11.3600   -1.6150   23.5470 C   0  0  0  0  0  0  0  0  0  0  0  0
   12.6240   -1.2050   23.7090 C   0  0  0  0  0  0  0  0  0  0  0  0
   11.3190   -0.6770   23.4930 C   0  0  0  0  0  0  0  0  0  0  0  0
    9.5700   -0.9730   23.2490 S   0  0  0  0  0  0  0  0  0  0  0  0
    8.2690   -4.6440   22.0160 C   0  0  0  0  0  0  0  0  0  0  0  0
    6.9440   -5.1290   21.4870 C   0  0  0  0  0  0  0  0  0  0  0  0
    5.9030   -4.8430   22.4620 C   0  0  2  0  0  0  0  0  0  0  0  0
    4.6840   -5.4110   22.3900 N   0  0  0  0  0  0  0  0  0  0  0  0
    3.9890   -5.2390   23.5220 C   0  0  0  0  0  0  0  0  0  0  0  0
    4.4370   -4.3930   24.4750 O   0  0  0  0  0  0  0  0  0  0  0  0
    2.6830   -6.0160   23.7110 C   0  0  2  0  0  0  0  0  0  0  0  0
    2.4530   -6.5720   25.1020 C   0  0  0  0  0  0  0  0  0  0  0  0
    2.9540   -7.8450   25.3050 C   0  0  0  0  0  0  0  0  0  0  0  0
    2.2810   -8.6310   26.1930 N   0  0  0  0  0  0  0  0  0  0  0  0
    3.9440   -8.2390   24.7290 O   0  0  0  0  0  0  0  0  0  0  0  0
    2.5240   -7.0190   22.6230 N   0  0  0  0  0  0  0  0  0  0  0  0
    1.2050   -7.4850   22.2570 C   0  0  1  0  0  0  0  0  0  0  0  0
    1.1870   -8.6750   21.2880 C   0  0  0  0  0  0  0  0  0  0  0  0
    0.6240   -7.9030   23.5090 N   0  0  0  0  0  0  0  0  0  0  0  0
  1  2  1  0
  3  2  1  0
  3  4  2  0
  3  5  2  0
  3  6  1  0
  6  7  1  0
  7  8  1  0
  8  9  1  6
  9 10  2  0
 10 11  1  0
 11 12  2  0
 12 13  1  0
 13 14  1  0
 14 15  2  0
 15 16  1  0
 16 17  2  0
 17 18  1  0
 18 19  1  0
 18 20  2  0
 18 21  2  0
 17 22  1  0
 22 23  1  0
 14 24  1  0
 22 24  2  0
 13 25  2  0
 25 26  1  0
 11 27  1  0
 26 27  2  0
  9 28  1  0
 27 28  1  0
  8 29  1  0
 29 30  1  0
  6 31  1  0
 30 31  1  0
 31 32  1  6
 32 33  1  0
 33 34  2  0
 33 35  1  0
 35 36  1  1
 36 37  1  0
 37 38  1  0
 37 39  2  0
 35 40  1  0
 40 41  1  0
 41 42  1  6
 41 43  1  0
M  END
