DAV-CRI-d1e0885a-3-nitrile
     RDKit          3D

 20 21  0  0  0  0  0  0  0  0999 V2000
    6.3500   -4.5150   20.2660 C   0  0  0  0  0  0  0  0  0  0  0  0
    5.7320   -5.6080   20.0020 N   0  0  0  0  0  0  0  0  0  0  0  0
    6.1280   -3.7930   21.4310 N   0  0  0  0  0  0  0  0  0  0  0  0
    6.2050   -2.3150   21.4440 C   0  0  0  0  0  0  0  0  0  0  0  0
    7.5490   -1.8820   22.1250 C   0  0  0  0  0  0  0  0  0  0  0  0
    8.0140   -2.7780   23.2190 N   0  0  0  0  0  0  0  0  0  0  0  0
    9.4880   -2.8680   23.2930 C   0  0  0  0  0  0  0  0  0  0  0  0
   10.3370   -1.6120   23.4800 C   0  0  0  0  0  0  0  0  0  0  0  0
   11.6090   -1.5010   22.5880 C   0  0  0  0  0  0  0  0  0  0  0  0
   12.4060   -0.3570   22.7500 C   0  0  0  0  0  0  0  0  0  0  0  0
   11.2220   -0.3200   23.6020 N   0  0  0  0  0  0  0  0  0  0  0  0
   10.3770    0.8240   23.4190 C   0  0  0  0  0  0  0  0  0  0  0  0
   11.0450    1.7770   22.6160 O   0  0  0  0  0  0  0  0  0  0  0  0
   12.3990    0.8400   23.5480 N   0  0  0  0  0  0  0  0  0  0  0  0
   11.2630    0.5030   24.1910 C   0  0  0  0  0  0  0  0  0  0  0  0
   10.1250   -0.5270   24.3710 C   0  0  0  0  0  0  0  0  0  0  0  0
    8.9720   -0.2500   25.4380 C   0  0  0  0  0  0  0  0  0  0  0  0
    8.1220   -0.0200   26.2000 N   0  0  0  0  0  0  0  0  0  0  0  0
    7.4930   -4.1630   23.1720 C   0  0  0  0  0  0  0  0  0  0  0  0
    6.2380   -4.3240   22.6170 C   0  0  0  0  0  0  0  0  0  0  0  0
  1  2  2  3
  1  3  1  0
  3  4  1  0
  4  5  1  0
  5  6  1  0
  6  7  1  0
  7  8  1  0
  8  9  2  0
  9 10  1  0
 10 11  1  0
 11 12  1  0
 12 13  1  0
 10 14  2  0
 14 15  1  0
  8 16  1  0
 15 16  2  0
 16 17  1  0
 17 18  3  0
  6 19  1  0
  3 20  1  0
 19 20  1  0
M  END
