DAV-CRI-d1e0885a-5-nitrile
     RDKit          3D

 19 20  0  0  0  0  0  0  0  0999 V2000
    6.7250   -3.5300   19.8610 C   0  0  0  0  0  0  0  0  0  0  0  0
    5.7840   -4.3860   19.8470 N   0  0  0  0  0  0  0  0  0  0  0  0
    6.8130   -2.6480   20.9170 N   0  0  0  0  0  0  0  0  0  0  0  0
    6.4290   -3.1820   22.2360 C   0  0  0  0  0  0  0  0  0  0  0  0
    7.7370   -3.4500   23.0310 C   0  0  0  0  0  0  0  0  0  0  0  0
    8.5680   -2.2390   23.0880 N   0  0  0  0  0  0  0  0  0  0  0  0
    9.8350   -2.4230   23.7920 C   0  0  0  0  0  0  0  0  0  0  0  0
   10.7210   -1.2000   23.7320 C   0  0  0  0  0  0  0  0  0  0  0  0
   11.8980   -1.2630   22.7880 C   0  0  0  0  0  0  0  0  0  0  0  0
   12.2520   -2.3150   21.9790 C   0  0  0  0  0  0  0  0  0  0  0  0
   13.2100   -1.9180   20.9610 N   0  0  0  0  0  0  0  0  0  0  0  0
   12.6420   -0.0890   22.8130 C   0  0  0  0  0  0  0  0  0  0  0  0
   11.9300    1.0150   23.9170 S   0  0  0  0  0  0  0  0  0  0  0  0
   10.6230   -0.0100   24.4170 C   0  0  0  0  0  0  0  0  0  0  0  0
    9.7040    0.4110   25.3490 N   0  0  0  0  0  0  0  0  0  0  0  0
    9.2060   -0.4650   26.2680 C   0  0  0  0  0  0  0  0  0  0  0  0
    8.3580    0.1220   26.9490 O   0  0  0  0  0  0  0  0  0  0  0  0
    8.7430   -1.6310   21.7640 C   0  0  0  0  0  0  0  0  0  0  0  0
    7.4760   -1.5120   20.9480 C   0  0  0  0  0  0  0  0  0  0  0  0
  1  2  2  3
  1  3  1  0
  3  4  1  0
  4  5  1  0
  5  6  1  0
  6  7  1  0
  7  8  1  0
  8  9  1  0
  9 10  1  0
 10 11  3  0
  9 12  2  0
 12 13  1  0
  8 14  2  0
 13 14  1  0
 14 15  1  0
 15 16  1  0
 16 17  1  0
  6 18  1  0
  3 19  1  0
 18 19  1  0
M  END
