DAV-CRI-25b90884-4-acrylamide
     RDKit          3D

 28 29  0  0  0  0  0  0  0  0999 V2000
    8.5720   -3.4950   20.4370 C   0  0  0  0  0  0  0  0  0  0  0  0
    7.7220   -2.2900   20.4970 C   0  0  0  0  0  0  0  0  0  0  0  0
    6.3330   -2.8900   20.7100 C   0  0  0  0  0  0  0  0  0  0  0  0
    5.1370   -3.4340   21.1660 O   0  0  0  0  0  0  0  0  0  0  0  0
    7.0390   -2.6920   21.9390 N   0  0  0  0  0  0  0  0  0  0  0  0
    6.9290   -1.4630   22.7660 C   0  0  2  0  0  0  0  0  0  0  0  0
    8.0740   -0.4380   22.7070 N   0  0  0  0  0  0  0  0  0  0  0  0
    7.7870    0.9400   22.7680 C   0  0  0  0  0  0  0  0  0  0  0  0
    8.7670    1.9600   22.9440 O   0  0  0  0  0  0  0  0  0  0  0  0
    6.4670    1.2540   22.6030 C   0  0  1  0  0  0  0  0  0  0  0  0
    6.3290    2.6480   23.0370 N   0  0  0  0  0  0  0  0  0  0  0  0
    5.2980    3.2360   23.6030 C   0  0  0  0  0  0  0  0  0  0  0  0
    4.0010    2.9580   23.1300 C   0  0  0  0  0  0  0  0  0  0  0  0
    5.4860    4.0190   24.5280 O   0  0  0  0  0  0  0  0  0  0  0  0
    6.1720    1.1300   21.1300 C   0  0  0  0  0  0  0  0  0  0  0  0
    5.0360    1.8520   20.4530 C   0  0  0  0  0  0  0  0  0  0  0  0
    4.8670    1.6470   18.9780 C   0  0  0  0  0  0  0  0  0  0  0  0
    5.7490    0.8120   18.3110 C   0  0  0  0  0  0  0  0  0  0  0  0
    5.6080    0.6300   17.0090 O   0  0  0  0  0  0  0  0  0  0  0  0
    6.7970    0.1420   18.9420 C   0  0  0  0  0  0  0  0  0  0  0  0
    6.9810    0.3150   20.3160 C   0  0  0  0  0  0  0  0  0  0  0  0
    6.5500   -1.8960   24.0590 C   0  0  0  0  0  0  0  0  0  0  0  0
    6.4620   -3.2440   24.3490 C   0  0  0  0  0  0  0  0  0  0  0  0
    6.0940   -3.7830   25.5630 C   0  0  0  0  0  0  0  0  0  0  0  0
    5.7640   -2.7680   26.6650 C   0  0  0  0  0  0  0  0  0  0  0  0
    5.8710   -1.2890   26.3100 C   0  0  0  0  0  0  0  0  0  0  0  0
    5.5130   -0.0850   27.4880 Cl  0  0  0  0  0  0  0  0  0  0  0  0
    6.2500   -0.9630   25.0560 C   0  0  0  0  0  0  0  0  0  0  0  0
  1  2  1  0
  2  3  1  0
  3  4  2  0
  3  5  1  0
  6  5  1  6
  6  7  1  0
  7  8  1  0
  8  9  2  0
  8 10  1  0
 10 11  1  6
 11 12  1  0
 12 13  1  0
 12 14  2  0
 10 15  1  0
 15 16  2  0
 16 17  1  0
 17 18  2  0
 18 19  1  0
 18 20  1  0
 15 21  1  0
 20 21  2  0
  6 22  1  0
 22 23  2  0
 23 24  1  0
 24 25  2  0
 25 26  1  0
 26 27  1  0
 22 28  1  0
 26 28  2  0
M  END
