DAV-CRI-f9b12666-3-chloroacetamide
     RDKit          3D

 40 43  0  0  0  0  0  0  0  0999 V2000
    7.3380   -3.0760   19.2200 C   0  0  0  0  0  0  0  0  0  0  0  0
    6.0890   -3.5950   19.9910 C   0  0  0  0  0  0  0  0  0  0  0  0
    5.0450   -3.8810   19.4410 O   0  0  0  0  0  0  0  0  0  0  0  0
    6.0390   -3.7160   21.3880 N   0  0  0  0  0  0  0  0  0  0  0  0
    6.5860   -2.6480   22.2130 C   0  0  0  0  0  0  0  0  0  0  0  0
    7.6140   -3.2640   23.1500 C   0  0  2  0  0  0  0  0  0  0  0  0
    8.7510   -2.2670   23.2150 C   0  0  0  0  0  0  0  0  0  0  0  0
    8.5430   -0.7820   23.2290 N   0  0  0  0  0  0  0  0  0  0  0  0
    9.9330   -0.3010   23.2050 C   0  0  0  0  0  0  0  0  0  0  0  0
   10.4000    1.1820   23.1630 C   0  0  0  0  0  0  0  0  0  0  0  0
   11.9310    1.3490   23.0950 C   0  0  0  0  0  0  0  0  0  0  0  0
   12.8990    2.3780   22.9590 C   0  0  0  0  0  0  0  0  0  0  0  0
   12.7830    1.0360   22.9520 C   0  0  0  0  0  0  0  0  0  0  0  0
   11.3940    0.9500   23.2880 C   0  0  0  0  0  0  0  0  0  0  0  0
   10.4440    2.1440   23.5440 C   0  0  0  0  0  0  0  0  0  0  0  0
   10.9460    3.4740   23.4430 C   0  0  0  0  0  0  0  0  0  0  0  0
    9.9910    4.9050   23.7100 S   0  0  0  0  0  0  0  0  0  0  0  0
    8.7560    4.8000   22.5900 N   0  0  0  0  0  0  0  0  0  0  0  0
    9.3570    4.9120   25.0070 O   0  0  0  0  0  0  0  0  0  0  0  0
   10.7880    6.0630   23.3130 O   0  0  0  0  0  0  0  0  0  0  0  0
   12.2390    3.5770   23.1320 C   0  0  0  0  0  0  0  0  0  0  0  0
   12.8110    0.1810   23.1090 C   0  0  0  0  0  0  0  0  0  0  0  0
   12.3230   -1.1190   23.1670 C   0  0  0  0  0  0  0  0  0  0  0  0
   11.0090   -1.3660   23.2020 C   0  0  0  0  0  0  0  0  0  0  0  0
   10.4240   -3.0180   23.2340 S   0  0  0  0  0  0  0  0  0  0  0  0
    8.2570   -4.5830   22.6040 C   0  0  0  0  0  0  0  0  0  0  0  0
    7.2080   -5.5600   22.1640 C   0  0  0  0  0  0  0  0  0  0  0  0
    5.9030   -4.9150   22.1990 C   0  0  2  0  0  0  0  0  0  0  0  0
    4.7550   -5.5300   22.0180 N   0  0  0  0  0  0  0  0  0  0  0  0
    3.9830   -5.4050   23.1120 C   0  0  0  0  0  0  0  0  0  0  0  0
    3.7390   -4.3130   23.6210 O   0  0  0  0  0  0  0  0  0  0  0  0
    3.4880   -6.7160   23.6660 C   0  0  1  0  0  0  0  0  0  0  0  0
    2.6790   -6.6360   24.9240 C   0  0  0  0  0  0  0  0  0  0  0  0
    2.5940   -7.8670   25.5520 C   0  0  0  0  0  0  0  0  0  0  0  0
    1.7620   -7.9730   26.6140 N   0  0  0  0  0  0  0  0  0  0  0  0
    3.2310   -8.8370   25.1750 O   0  0  0  0  0  0  0  0  0  0  0  0
    2.7410   -7.3000   22.5300 N   0  0  0  0  0  0  0  0  0  0  0  0
    1.3170   -7.4970   22.3950 C   0  0  1  0  0  0  0  0  0  0  0  0
    0.9980   -8.6080   21.3870 C   0  0  0  0  0  0  0  0  0  0  0  0
    0.8140   -7.8890   23.6890 N   0  0  0  0  0  0  0  0  0  0  0  0
  1  2  1  0
  2  3  2  0
  2  4  1  0
  4  5  1  0
  5  6  1  0
  6  7  1  6
  7  8  2  0
  8  9  1  0
  9 10  2  0
 10 11  1  0
 11 12  1  0
 12 13  2  0
 13 14  1  0
 14 15  2  0
 15 16  1  0
 16 17  1  0
 17 18  1  0
 17 19  2  0
 17 20  2  0
 12 21  1  0
 16 21  2  0
 11 22  2  0
 22 23  1  0
  9 24  1  0
 23 24  2  0
  7 25  1  0
 24 25  1  0
  6 26  1  0
 26 27  1  0
  4 28  1  0
 27 28  1  0
 28 29  1  6
 29 30  1  0
 30 31  2  0
 30 32  1  0
 32 33  1  1
 33 34  1  0
 34 35  1  0
 34 36  2  0
 32 37  1  0
 37 38  1  0
 38 39  1  6
 38 40  1  0
M  END
