DAV-CRI-f9b12666-10-chloroacetamide
     RDKit          3D

 41 44  0  0  0  0  0  0  0  0999 V2000
    7.2910   -3.2550   19.4580 C   0  0  0  0  0  0  0  0  0  0  0  0
    6.3950   -4.0760   20.3710 C   0  0  0  0  0  0  0  0  0  0  0  0
    5.3560   -4.5610   19.9250 O   0  0  0  0  0  0  0  0  0  0  0  0
    6.7750   -4.3110   21.7380 N   0  0  0  0  0  0  0  0  0  0  0  0
    8.0180   -5.0690   22.0470 C   0  0  0  0  0  0  0  0  0  0  0  0
    8.4410   -5.2250   23.5080 C   0  0  1  0  0  0  0  0  0  0  0  0
    9.4890   -4.2040   23.7580 C   0  0  0  0  0  0  0  0  0  0  0  0
    9.5960   -3.0760   22.8510 N   0  0  0  0  0  0  0  0  0  0  0  0
   10.7270   -2.4240   23.4110 C   0  0  0  0  0  0  0  0  0  0  0  0
   11.2380   -1.1900   22.7480 C   0  0  0  0  0  0  0  0  0  0  0  0
   12.4190   -0.6180   23.3880 C   0  0  0  0  0  0  0  0  0  0  0  0
   13.1010    0.4870   22.9100 C   0  0  0  0  0  0  0  0  0  0  0  0
   12.6440    1.8580   22.9040 C   0  0  0  0  0  0  0  0  0  0  0  0
   11.7880    0.9980   23.5610 C   0  0  0  0  0  0  0  0  0  0  0  0
   10.5210    1.1620   24.2440 C   0  0  0  0  0  0  0  0  0  0  0  0
    9.9930    2.4100   24.3030 C   0  0  0  0  0  0  0  0  0  0  0  0
   10.7330    3.3830   23.7010 C   0  0  0  0  0  0  0  0  0  0  0  0
   10.0510    4.9730   23.8080 S   0  0  0  0  0  0  0  0  0  0  0  0
    8.8400    4.9640   22.6510 N   0  0  0  0  0  0  0  0  0  0  0  0
    9.3440    5.1670   25.0760 O   0  0  0  0  0  0  0  0  0  0  0  0
   11.0430    5.9490   23.3650 O   0  0  0  0  0  0  0  0  0  0  0  0
   11.9400    3.1120   23.0620 C   0  0  0  0  0  0  0  0  0  0  0  0
   12.9520   -1.2190   24.5330 C   0  0  0  0  0  0  0  0  0  0  0  0
   12.4860   -2.3620   25.1540 C   0  0  0  0  0  0  0  0  0  0  0  0
   11.4030   -2.9960   24.6500 C   0  0  0  0  0  0  0  0  0  0  0  0
   10.6080   -4.4230   25.1850 S   0  0  0  0  0  0  0  0  0  0  0  0
    7.4230   -5.0590   24.5970 C   0  0  0  0  0  0  0  0  0  0  0  0
    6.0600   -4.9990   24.0300 C   0  0  0  0  0  0  0  0  0  0  0  0
    5.8600   -4.0560   22.8590 C   0  0  2  0  0  0  0  0  0  0  0  0
    4.4800   -4.1520   22.5190 N   0  0  0  0  0  0  0  0  0  0  0  0
    3.6000   -4.3360   23.5680 C   0  0  0  0  0  0  0  0  0  0  0  0
    3.0360   -3.3960   24.1210 O   0  0  0  0  0  0  0  0  0  0  0  0
    3.4640   -5.7930   24.0010 C   0  0  2  0  0  0  0  0  0  0  0  0
    3.9650   -6.8010   23.1660 C   0  0  0  0  0  0  0  0  0  0  0  0
    5.3540   -6.6490   22.5090 C   0  0  0  0  0  0  0  0  0  0  0  0
    5.3740   -6.0900   21.2750 N   0  0  0  0  0  0  0  0  0  0  0  0
    6.4060   -7.0180   23.0140 O   0  0  0  0  0  0  0  0  0  0  0  0
    2.0400   -6.1470   24.2680 N   0  0  0  0  0  0  0  0  0  0  0  0
    1.7650   -7.5660   24.3660 C   0  0  1  0  0  0  0  0  0  0  0  0
    2.6630   -8.2250   25.4180 C   0  0  0  0  0  0  0  0  0  0  0  0
    0.3850   -7.6180   24.7840 N   0  0  0  0  0  0  0  0  0  0  0  0
  1  2  1  0
  2  3  2  0
  2  4  1  0
  4  5  1  0
  5  6  1  0
  6  7  1  1
  7  8  2  0
  8  9  1  0
  9 10  2  0
 10 11  1  0
 11 12  1  0
 12 13  1  0
 13 14  2  0
 14 15  1  0
 15 16  2  0
 16 17  1  0
 17 18  1  0
 18 19  1  0
 18 20  2  0
 18 21  2  0
 13 22  1  0
 17 22  2  0
 11 23  2  0
 23 24  1  0
  9 25  1  0
 24 25  2  0
  7 26  1  0
 25 26  1  0
  6 27  1  0
 27 28  1  0
  4 29  1  0
 28 29  1  0
 29 30  1  6
 30 31  1  0
 31 32  2  0
 31 33  1  0
 33 34  1  6
 34 35  1  0
 35 36  1  0
 35 37  2  0
 33 38  1  0
 38 39  1  0
 39 40  1  1
 39 41  1  0
M  END
