DAV-CRI-f9b12666-4-chloroacetamide
     RDKit          3D

 40 43  0  0  0  0  0  0  0  0999 V2000
    7.1990   -3.1990   19.3150 C   0  0  0  0  0  0  0  0  0  0  0  0
    6.1220   -3.8880   20.1170 C   0  0  0  0  0  0  0  0  0  0  0  0
    5.0390   -4.1440   19.6510 O   0  0  0  0  0  0  0  0  0  0  0  0
    6.3850   -4.2850   21.4250 N   0  0  0  0  0  0  0  0  0  0  0  0
    7.1680   -3.3990   22.2910 C   0  0  0  0  0  0  0  0  0  0  0  0
    8.1070   -4.2850   23.0380 C   0  0  1  0  0  0  0  0  0  0  0  0
    9.2440   -3.5290   23.6490 C   0  0  0  0  0  0  0  0  0  0  0  0
    9.4710   -2.0700   23.4500 N   0  0  0  0  0  0  0  0  0  0  0  0
   10.7420   -1.9130   24.1340 C   0  0  0  0  0  0  0  0  0  0  0  0
   11.5600   -0.6360   24.2720 C   0  0  0  0  0  0  0  0  0  0  0  0
   11.4890    0.8530   23.8760 C   0  0  0  0  0  0  0  0  0  0  0  0
   12.6450    1.2470   23.2170 C   0  0  0  0  0  0  0  0  0  0  0  0
   12.8740    2.5870   22.7820 C   0  0  0  0  0  0  0  0  0  0  0  0
   11.9260    3.5030   23.0170 C   0  0  0  0  0  0  0  0  0  0  0  0
   10.7010    3.2090   23.6840 C   0  0  0  0  0  0  0  0  0  0  0  0
    9.7800    4.6920   23.8020 S   0  0  0  0  0  0  0  0  0  0  0  0
    8.6080    4.6630   22.6080 N   0  0  0  0  0  0  0  0  0  0  0  0
    9.0590    4.8120   25.0650 O   0  0  0  0  0  0  0  0  0  0  0  0
   10.6800    5.7820   23.4230 O   0  0  0  0  0  0  0  0  0  0  0  0
   10.4550    1.8650   24.1240 C   0  0  0  0  0  0  0  0  0  0  0  0
   12.8720   -0.8460   24.9910 C   0  0  0  0  0  0  0  0  0  0  0  0
   13.2790   -2.0820   25.4980 C   0  0  0  0  0  0  0  0  0  0  0  0
   12.5490   -3.2130   25.4190 C   0  0  0  0  0  0  0  0  0  0  0  0
   11.3480   -3.1650   24.7810 C   0  0  0  0  0  0  0  0  0  0  0  0
   10.3470   -4.5900   24.6220 S   0  0  0  0  0  0  0  0  0  0  0  0
    7.4410   -5.2700   23.9870 C   0  0  0  0  0  0  0  0  0  0  0  0
    6.5720   -6.0870   23.0400 C   0  0  0  0  0  0  0  0  0  0  0  0
    5.6170   -5.2930   22.1630 C   0  0  1  0  0  0  0  0  0  0  0  0
    4.5770   -4.6090   22.7090 N   0  0  0  0  0  0  0  0  0  0  0  0
    3.5880   -5.3380   23.2970 C   0  0  0  0  0  0  0  0  0  0  0  0
    3.1710   -6.3800   22.8040 O   0  0  0  0  0  0  0  0  0  0  0  0
    3.0330   -4.7790   24.6140 C   0  0  1  0  0  0  0  0  0  0  0  0
    3.3150   -3.2860   24.7730 C   0  0  0  0  0  0  0  0  0  0  0  0
    2.4260   -2.4790   25.5020 C   0  0  0  0  0  0  0  0  0  0  0  0
    2.9690   -1.3550   26.0480 N   0  0  0  0  0  0  0  0  0  0  0  0
    1.2350   -2.7340   25.6520 O   0  0  0  0  0  0  0  0  0  0  0  0
    1.5680   -5.0210   24.4790 N   0  0  0  0  0  0  0  0  0  0  0  0
    1.1010   -6.3300   24.1100 C   0  0  2  0  0  0  0  0  0  0  0  0
    0.5270   -6.4290   22.6950 C   0  0  0  0  0  0  0  0  0  0  0  0
    0.0510   -6.5970   25.0640 N   0  0  0  0  0  0  0  0  0  0  0  0
  1  2  1  0
  2  3  2  0
  2  4  1  0
  4  5  1  0
  5  6  1  0
  6  7  1  1
  7  8  2  0
  8  9  1  0
  9 10  2  0
 10 11  1  0
 11 12  2  0
 12 13  1  0
 13 14  2  0
 14 15  1  0
 15 16  1  0
 16 17  1  0
 16 18  2  0
 16 19  2  0
 11 20  1  0
 15 20  2  0
 10 21  1  0
 21 22  2  0
 22 23  1  0
  9 24  1  0
 23 24  2  0
  7 25  1  0
 24 25  1  0
  6 26  1  0
 26 27  1  0
  4 28  1  0
 27 28  1  0
 28 29  1  1
 29 30  1  0
 30 31  2  0
 30 32  1  0
 32 33  1  6
 33 34  1  0
 34 35  1  0
 34 36  2  0
 32 37  1  0
 37 38  1  0
 38 39  1  6
 38 40  1  0
M  END
