DAV-CRI-f9b12666-10-nitrile
     RDKit          3D

 40 43  0  0  0  0  0  0  0  0999 V2000
    6.6500   -4.3010   20.1570 C   0  0  0  0  0  0  0  0  0  0  0  0
    5.5890   -3.9270   19.5590 N   0  0  0  0  0  0  0  0  0  0  0  0
    6.7000   -4.6250   21.4520 N   0  0  0  0  0  0  0  0  0  0  0  0
    7.4190   -3.7780   22.3740 C   0  0  0  0  0  0  0  0  0  0  0  0
    8.0960   -4.7130   23.3290 C   0  0  1  0  0  0  0  0  0  0  0  0
    9.3020   -4.0560   23.8760 C   0  0  0  0  0  0  0  0  0  0  0  0
    9.5270   -2.9540   23.1220 N   0  0  0  0  0  0  0  0  0  0  0  0
   10.6950   -2.3930   23.6010 C   0  0  0  0  0  0  0  0  0  0  0  0
   11.2960   -1.1790   23.0080 C   0  0  0  0  0  0  0  0  0  0  0  0
   12.5650   -0.7640   23.6540 C   0  0  0  0  0  0  0  0  0  0  0  0
   13.1930    0.4550   22.9840 C   0  0  0  0  0  0  0  0  0  0  0  0
   12.7470    1.7900   22.9850 C   0  0  0  0  0  0  0  0  0  0  0  0
   11.7940    0.9190   23.6000 C   0  0  0  0  0  0  0  0  0  0  0  0
   10.5820    1.2410   24.1390 C   0  0  0  0  0  0  0  0  0  0  0  0
   10.0480    2.5520   24.1890 C   0  0  0  0  0  0  0  0  0  0  0  0
   10.8750    3.4760   23.6370 C   0  0  0  0  0  0  0  0  0  0  0  0
   10.2600    5.1000   23.6950 S   0  0  0  0  0  0  0  0  0  0  0  0
    8.9200    5.0640   22.6960 N   0  0  0  0  0  0  0  0  0  0  0  0
    9.7210    5.3920   25.0020 O   0  0  0  0  0  0  0  0  0  0  0  0
   11.2100    6.0060   23.0750 O   0  0  0  0  0  0  0  0  0  0  0  0
   12.1060    3.1050   23.0860 C   0  0  0  0  0  0  0  0  0  0  0  0
   13.0580   -1.5340   24.7520 C   0  0  0  0  0  0  0  0  0  0  0  0
   12.4760   -2.6640   25.2930 C   0  0  0  0  0  0  0  0  0  0  0  0
   11.3240   -3.0950   24.7420 C   0  0  0  0  0  0  0  0  0  0  0  0
   10.3470   -4.4960   25.1890 S   0  0  0  0  0  0  0  0  0  0  0  0
    7.1610   -5.4470   24.1960 C   0  0  0  0  0  0  0  0  0  0  0  0
    6.4170   -6.3140   23.1820 C   0  0  0  0  0  0  0  0  0  0  0  0
    5.7550   -5.5790   22.0250 C   0  0  1  0  0  0  0  0  0  0  0  0
    4.6360   -4.7620   22.4290 N   0  0  0  0  0  0  0  0  0  0  0  0
    3.9670   -4.9980   23.6110 C   0  0  0  0  0  0  0  0  0  0  0  0
    3.8320   -4.0780   24.4070 O   0  0  0  0  0  0  0  0  0  0  0  0
    3.4430   -6.4080   23.9000 C   0  0  2  0  0  0  0  0  0  0  0  0
    2.7190   -7.2510   22.8640 C   0  0  0  0  0  0  0  0  0  0  0  0
    1.4140   -7.0690   22.3730 C   0  0  0  0  0  0  0  0  0  0  0  0
    0.9140   -8.1360   21.6600 N   0  0  0  0  0  0  0  0  0  0  0  0
    0.7300   -6.0660   22.5110 O   0  0  0  0  0  0  0  0  0  0  0  0
    2.6590   -6.4570   25.1410 N   0  0  0  0  0  0  0  0  0  0  0  0
    2.8350   -7.7690   25.7110 C   0  0  2  0  0  0  0  0  0  0  0  0
    2.3800   -8.8590   24.7640 C   0  0  0  0  0  0  0  0  0  0  0  0
    2.1840   -7.9310   26.9770 N   0  0  0  0  0  0  0  0  0  0  0  0
  1  2  2  3
  1  3  1  0
  3  4  1  0
  4  5  1  0
  5  6  1  1
  6  7  2  0
  7  8  1  0
  8  9  2  0
  9 10  1  0
 10 11  1  0
 11 12  1  0
 12 13  2  0
 13 14  1  0
 14 15  2  0
 15 16  1  0
 16 17  1  0
 17 18  1  0
 17 19  2  0
 17 20  2  0
 12 21  1  0
 16 21  2  0
 10 22  2  0
 22 23  1  0
  8 24  1  0
 23 24  2  0
  6 25  1  0
 24 25  1  0
  5 26  1  0
 26 27  1  0
  3 28  1  0
 27 28  1  0
 28 29  1  1
 29 30  1  0
 30 31  2  0
 30 32  1  0
 32 33  1  6
 33 34  1  0
 34 35  1  0
 34 36  2  0
 32 37  1  0
 37 38  1  0
 38 39  1  6
 38 40  1  0
M  END
