DAV-CRI-f4772df7-8-chloroacetamide
     RDKit          3D

 35 39  0  0  0  0  0  0  0  0999 V2000
    7.2550   -3.0130   19.0670 C   0  0  0  0  0  0  0  0  0  0  0  0
    6.3170   -3.4160   20.1970 C   0  0  0  0  0  0  0  0  0  0  0  0
    5.4470   -4.2620   19.8820 O   0  0  0  0  0  0  0  0  0  0  0  0
    6.5010   -2.8640   21.5240 N   0  0  0  0  0  0  0  0  0  0  0  0
    7.6060   -1.8460   21.7150 C   0  0  0  0  0  0  0  0  0  0  0  0
    7.4330   -0.6460   21.4790 O   0  0  0  0  0  0  0  0  0  0  0  0
    8.9830   -2.3930   22.2310 C   0  0  1  0  0  0  0  0  0  0  0  0
   10.0100   -1.3370   22.6270 C   0  0  0  0  0  0  0  0  0  0  0  0
   11.3490   -1.3860   22.1890 C   0  0  0  0  0  0  0  0  0  0  0  0
   12.2510   -0.3970   22.5730 C   0  0  0  0  0  0  0  0  0  0  0  0
   11.8190    0.6380   23.3880 C   0  0  0  0  0  0  0  0  0  0  0  0
   12.7020    1.5730   23.7190 O   0  0  0  0  0  0  0  0  0  0  0  0
   10.5140    0.6970   23.8390 C   0  0  0  0  0  0  0  0  0  0  0  0
    9.6100   -0.2820   23.4650 C   0  0  0  0  0  0  0  0  0  0  0  0
    8.7990   -3.3170   23.3770 C   0  0  0  0  0  0  0  0  0  0  0  0
    9.8280   -3.5030   24.3020 C   0  0  0  0  0  0  0  0  0  0  0  0
    9.6680   -4.3600   25.3860 C   0  0  0  0  0  0  0  0  0  0  0  0
   10.7840   -4.5180   26.3110 C   0  0  0  0  0  0  0  0  0  0  0  0
    8.4800   -5.0410   25.5730 C   0  0  0  0  0  0  0  0  0  0  0  0
    7.5100   -4.8230   24.6380 C   0  0  0  0  0  0  0  0  0  0  0  0
    7.6220   -3.9890   23.5390 C   0  0  0  0  0  0  0  0  0  0  0  0
    6.4680   -3.8990   22.6200 C   0  0  1  0  0  0  0  0  0  0  0  0
    5.2350   -4.5160   23.3900 C   0  0  2  0  0  0  0  0  0  0  0  0
    4.9660   -5.7530   22.5650 C   0  0  0  0  0  0  0  0  0  0  0  0
    3.6680   -6.6310   23.3640 S   0  0  0  0  0  0  0  0  0  0  0  0
    2.7120   -7.1530   22.4200 O   0  0  0  0  0  0  0  0  0  0  0  0
    4.1710   -7.4760   24.4430 O   0  0  0  0  0  0  0  0  0  0  0  0
    2.9230   -5.1720   24.0180 C   0  0  0  0  0  0  0  0  0  0  0  0
    3.8470   -3.9450   23.8520 C   0  0  1  0  0  0  0  0  0  0  0  0
    3.6850   -3.2980   25.1900 N   0  0  0  0  0  0  0  0  0  0  0  0
    2.4450   -3.5430   25.9160 C   0  0  0  0  0  0  0  0  0  0  0  0
    2.2100   -2.2720   26.6950 C   0  0  0  0  0  0  0  0  0  0  0  0
    3.6200   -1.8320   27.0370 C   0  0  0  0  0  0  0  0  0  0  0  0
    4.4180   -2.3050   25.8400 C   0  0  0  0  0  0  0  0  0  0  0  0
    5.5050   -1.8720   25.5220 O   0  0  0  0  0  0  0  0  0  0  0  0
  1  2  1  0
  2  3  2  0
  2  4  1  0
  4  5  1  0
  5  6  2  0
  5  7  1  0
  7  8  1  1
  8  9  2  0
  9 10  1  0
 10 11  2  0
 11 12  1  0
 11 13  1  0
  8 14  1  0
 13 14  2  0
  7 15  1  0
 15 16  1  0
 16 17  2  0
 17 18  1  0
 17 19  1  0
 19 20  2  0
 15 21  2  0
 20 21  1  0
 22  4  1  1
 21 22  1  0
 22 23  1  0
 23 24  1  6
 25 24  1  0
 25 26  2  0
 25 27  2  0
 25 28  1  0
 23 29  1  0
 28 29  1  0
 29 30  1  1
 30 31  1  0
 31 32  1  0
 32 33  1  0
 30 34  1  0
 33 34  1  0
 34 35  2  0
M  END
