DAV-CRI-14a23e73-4-nitrile
     RDKit          3D

 23 24  0  0  0  0  0  0  0  0999 V2000
    7.9840   -3.8200   20.0270 C   0  0  0  0  0  0  0  0  0  0  0  0
    6.7070   -3.7820   19.6180 N   0  0  0  0  0  0  0  0  0  0  0  0
    8.7600   -2.9700   20.8790 N   0  0  0  0  0  0  0  0  0  0  0  0
    9.2020   -3.2070   22.3150 C   0  0  1  0  0  0  0  0  0  0  0  0
    9.3040   -4.7130   22.6230 C   0  0  0  0  0  0  0  0  0  0  0  0
   10.4300   -2.3860   22.9630 C   0  0  0  0  0  0  0  0  0  0  0  0
   11.4940   -2.9880   23.7690 C   0  0  0  0  0  0  0  0  0  0  0  0
   12.5320   -2.3140   24.3640 C   0  0  0  0  0  0  0  0  0  0  0  0
   13.6970   -3.0700   25.3120 Cl  0  0  0  0  0  0  0  0  0  0  0  0
   12.6500   -0.9540   24.2340 C   0  0  0  0  0  0  0  0  0  0  0  0
   11.6890   -0.2790   23.5160 C   0  0  0  0  0  0  0  0  0  0  0  0
   11.6700    1.1920   23.4100 C   0  0  0  0  0  0  0  0  0  0  0  0
   10.3530    1.5710   24.0180 C   0  0  0  0  0  0  0  0  0  0  0  0
   10.0260    3.0290   24.0690 C   0  0  0  0  0  0  0  0  0  0  0  0
   10.9550    3.9170   23.5540 C   0  0  0  0  0  0  0  0  0  0  0  0
   10.4600    5.6090   23.6730 S   0  0  0  0  0  0  0  0  0  0  0  0
    9.0490    5.5580   22.7560 N   0  0  0  0  0  0  0  0  0  0  0  0
   10.0580    5.8530   25.0390 O   0  0  0  0  0  0  0  0  0  0  0  0
   11.4240    6.4400   23.0040 O   0  0  0  0  0  0  0  0  0  0  0  0
   12.1880    3.5360   22.9830 C   0  0  0  0  0  0  0  0  0  0  0  0
   13.0740    4.4820   22.4800 C   0  0  0  0  0  0  0  0  0  0  0  0
   12.5410    2.1560   22.9230 C   0  0  0  0  0  0  0  0  0  0  0  0
   10.6170   -0.9860   22.8910 C   0  0  0  0  0  0  0  0  0  0  0  0
  1  2  2  3
  1  3  1  0
  3  4  1  0
  4  5  1  6
  4  6  1  0
  6  7  2  0
  7  8  1  0
  8  9  1  0
  8 10  2  0
 10 11  1  0
 11 12  1  0
 12 13  2  0
 13 14  1  0
 14 15  2  0
 15 16  1  0
 16 17  1  0
 16 18  2  0
 16 19  2  0
 15 20  1  0
 20 21  1  0
 12 22  1  0
 20 22  2  0
  6 23  1  0
 11 23  2  0
M  END
