DAV-CRI-14a23e73-1-vinylsulfonamide
     RDKit          3D

 25 26  0  0  0  0  0  0  0  0999 V2000
    8.5830   -3.9100   20.3450 C   0  0  0  0  0  0  0  0  0  0  0  0
    7.9640   -4.7340   21.4870 C   0  0  0  0  0  0  0  0  0  0  0  0
    6.3230   -4.1720   21.9330 S   0  0  0  0  0  0  0  0  0  0  0  0
    5.3370   -4.4360   20.8800 O   0  0  0  0  0  0  0  0  0  0  0  0
    6.0660   -4.6150   23.2840 O   0  0  0  0  0  0  0  0  0  0  0  0
    6.5330   -2.4840   21.9610 N   0  0  0  0  0  0  0  0  0  0  0  0
    6.9280   -1.8850   23.2660 C   0  0  2  0  0  0  0  0  0  0  0  0
    8.0880   -2.5780   23.6910 C   0  0  0  0  0  0  0  0  0  0  0  0
    5.8000   -2.2850   24.1400 C   0  0  0  0  0  0  0  0  0  0  0  0
    5.4960   -2.1410   22.7260 C   0  0  0  0  0  0  0  0  0  0  0  0
    6.8060   -1.5790   22.1410 C   0  0  0  0  0  0  0  0  0  0  0  0
    7.0620   -1.1730   20.4760 Cl  0  0  0  0  0  0  0  0  0  0  0  0
    8.0390   -1.3250   23.1240 C   0  0  0  0  0  0  0  0  0  0  0  0
    8.3830   -1.4910   24.7040 C   0  0  0  0  0  0  0  0  0  0  0  0
    9.5820   -0.9250   23.9120 C   0  0  0  0  0  0  0  0  0  0  0  0
   10.6200    0.0430   23.1930 C   0  0  0  0  0  0  0  0  0  0  0  0
   10.6030    1.4850   23.1000 C   0  0  0  0  0  0  0  0  0  0  0  0
    9.5340    2.2910   23.7060 C   0  0  0  0  0  0  0  0  0  0  0  0
    9.5230    3.9870   23.5750 S   0  0  0  0  0  0  0  0  0  0  0  0
    8.4340    4.2470   22.2910 N   0  0  0  0  0  0  0  0  0  0  0  0
   10.8050    4.4380   23.0820 O   0  0  0  0  0  0  0  0  0  0  0  0
    8.8900    4.5870   24.7380 O   0  0  0  0  0  0  0  0  0  0  0  0
    8.6170    1.5680   24.3390 C   0  0  0  0  0  0  0  0  0  0  0  0
    8.6650    0.0650   24.4210 C   0  0  0  0  0  0  0  0  0  0  0  0
    6.9590   -2.0540   25.0630 C   0  0  0  0  0  0  0  0  0  0  0  0
  1  2  1  0
  2  3  1  0
  3  4  2  0
  3  5  2  0
  3  6  1  0
  6  7  1  0
  7  8  1  1
  7  9  1  0
  9 10  2  0
 10 11  1  0
 11 12  1  0
 11 13  2  0
 13 14  1  0
 14 15  1  0
 15 16  2  0
 16 17  1  0
 17 18  2  0
 18 19  1  0
 19 20  1  0
 19 21  2  0
 19 22  2  0
 18 23  1  0
 15 24  1  0
 23 24  2  0
  9 25  1  0
 14 25  2  0
M  END
