DAV-CRI-14a23e73-5-nitrile
     RDKit          3D

 22 23  0  0  0  0  0  0  0  0999 V2000
    7.2300   -3.7920   20.1120 C   0  0  0  0  0  0  0  0  0  0  0  0
    6.0370   -3.8520   19.6160 N   0  0  0  0  0  0  0  0  0  0  0  0
    7.4850   -3.7850   21.4610 N   0  0  0  0  0  0  0  0  0  0  0  0
    7.9670   -2.5950   22.1930 C   0  0  2  0  0  0  0  0  0  0  0  0
    7.7290   -2.6020   23.5890 C   0  0  0  0  0  0  0  0  0  0  0  0
    7.1800   -1.4820   21.5860 C   0  0  0  0  0  0  0  0  0  0  0  0
    8.5490   -1.2090   21.5690 C   0  0  0  0  0  0  0  0  0  0  0  0
    9.4270   -2.3150   22.2410 C   0  0  0  0  0  0  0  0  0  0  0  0
   11.1410   -2.1420   22.3290 Cl  0  0  0  0  0  0  0  0  0  0  0  0
    8.6890   -3.5720   22.8360 C   0  0  0  0  0  0  0  0  0  0  0  0
    7.1490   -3.7640   22.7900 C   0  0  0  0  0  0  0  0  0  0  0  0
    6.4050   -4.9850   23.3700 C   0  0  0  0  0  0  0  0  0  0  0  0
    5.7640   -4.6230   24.7320 C   0  0  2  0  0  0  0  0  0  0  0  0
    4.2960   -4.3460   24.4460 C   0  0  0  0  0  0  0  0  0  0  0  0
    3.6670   -3.0650   24.8590 C   0  0  0  0  0  0  0  0  0  0  0  0
    5.0360   -2.6160   25.4500 C   0  0  0  0  0  0  0  0  0  0  0  0
    5.3600   -1.1090   26.2360 S   0  0  0  0  0  0  0  0  0  0  0  0
    4.1980   -1.0790   27.4450 N   0  0  0  0  0  0  0  0  0  0  0  0
    6.6260   -1.1470   26.9450 O   0  0  0  0  0  0  0  0  0  0  0  0
    5.0240   -0.0150   25.3540 O   0  0  0  0  0  0  0  0  0  0  0  0
    6.0960   -3.4650   25.3510 C   0  0  0  0  0  0  0  0  0  0  0  0
    6.3240   -2.6170   22.1030 C   0  0  0  0  0  0  0  0  0  0  0  0
  1  2  2  3
  1  3  1  0
  3  4  1  0
  4  5  1  1
  4  6  1  0
  6  7  2  0
  7  8  1  0
  8  9  1  0
  8 10  2  0
 10 11  1  0
 11 12  1  0
 13 12  1  6
 13 14  1  0
 14 15  2  0
 15 16  1  0
 16 17  1  0
 17 18  1  0
 17 19  2  0
 17 20  2  0
 13 21  1  0
 16 21  2  0
  6 22  1  0
 11 22  2  0
M  END
