DAV-CRI-f9b12666-7-chloroacetamide
     RDKit          3D

 41 44  0  0  0  0  0  0  0  0999 V2000
    5.9850   -5.9550   19.8340 C   0  0  0  0  0  0  0  0  0  0  0  0
    5.5600   -4.5960   20.2600 C   0  0  0  0  0  0  0  0  0  0  0  0
    5.2570   -3.6990   19.4890 O   0  0  0  0  0  0  0  0  0  0  0  0
    5.4990   -4.3830   21.6260 N   0  0  0  0  0  0  0  0  0  0  0  0
    6.4650   -3.3690   21.9900 C   0  0  0  0  0  0  0  0  0  0  0  0
    5.9330   -2.4640   23.0550 C   0  0  2  0  0  0  0  0  0  0  0  0
    7.1270   -1.5630   23.3080 C   0  0  0  0  0  0  0  0  0  0  0  0
    8.2880   -1.7780   22.4090 N   0  0  0  0  0  0  0  0  0  0  0  0
    9.2530   -0.8150   22.9090 C   0  0  0  0  0  0  0  0  0  0  0  0
   10.6590   -0.6260   22.3540 C   0  0  0  0  0  0  0  0  0  0  0  0
   11.5070    0.4380   23.0590 C   0  0  0  0  0  0  0  0  0  0  0  0
   12.8410    0.7560   22.7810 C   0  0  0  0  0  0  0  0  0  0  0  0
   12.4510   -0.5550   22.8540 C   0  0  0  0  0  0  0  0  0  0  0  0
   11.0760   -0.4250   23.0580 C   0  0  0  0  0  0  0  0  0  0  0  0
   10.3680    0.9300   23.1530 C   0  0  0  0  0  0  0  0  0  0  0  0
    9.1430    1.0310   23.3170 O   0  0  0  0  0  0  0  0  0  0  0  0
   11.0830    2.1500   23.0530 C   0  0  0  0  0  0  0  0  0  0  0  0
   10.1410    3.5870   23.2030 S   0  0  0  0  0  0  0  0  0  0  0  0
    9.0670    3.4770   21.9250 N   0  0  0  0  0  0  0  0  0  0  0  0
   10.9760    4.7550   22.9690 O   0  0  0  0  0  0  0  0  0  0  0  0
    9.2960    3.5060   24.3840 O   0  0  0  0  0  0  0  0  0  0  0  0
   12.4390    2.0820   22.8440 C   0  0  0  0  0  0  0  0  0  0  0  0
   11.0100    1.2180   24.1420 C   0  0  0  0  0  0  0  0  0  0  0  0
    9.6910    1.0050   24.6220 C   0  0  0  0  0  0  0  0  0  0  0  0
    8.8430    0.0620   24.0780 C   0  0  0  0  0  0  0  0  0  0  0  0
    7.1850   -0.2760   24.6430 S   0  0  0  0  0  0  0  0  0  0  0  0
    5.4970   -3.2840   24.2850 C   0  0  0  0  0  0  0  0  0  0  0  0
    5.8320   -4.7660   23.9970 C   0  0  0  0  0  0  0  0  0  0  0  0
    5.4030   -5.4250   22.6720 C   0  0  1  0  0  0  0  0  0  0  0  0
    4.2140   -6.1030   22.5160 N   0  0  0  0  0  0  0  0  0  0  0  0
    3.1140   -5.6570   23.1900 C   0  0  0  0  0  0  0  0  0  0  0  0
    3.0650   -4.5140   23.6150 O   0  0  0  0  0  0  0  0  0  0  0  0
    1.8980   -6.5980   23.4240 C   0  0  2  0  0  0  0  0  0  0  0  0
    1.7940   -6.9890   24.8910 C   0  0  0  0  0  0  0  0  0  0  0  0
    2.6660   -7.9820   25.3430 C   0  0  0  0  0  0  0  0  0  0  0  0
    2.2200   -8.7540   26.3710 N   0  0  0  0  0  0  0  0  0  0  0  0
    3.7720   -8.1420   24.8450 O   0  0  0  0  0  0  0  0  0  0  0  0
    2.0480   -7.8590   22.6270 N   0  0  0  0  0  0  0  0  0  0  0  0
    1.0600   -8.2560   21.6390 C   0  0  1  0  0  0  0  0  0  0  0  0
    1.5970   -9.0080   20.4130 C   0  0  0  0  0  0  0  0  0  0  0  0
    0.1680   -9.1540   22.3290 N   0  0  0  0  0  0  0  0  0  0  0  0
  1  2  1  0
  2  3  2  0
  2  4  1  0
  4  5  1  0
  5  6  1  0
  6  7  1  1
  7  8  2  0
  8  9  1  0
  9 10  2  0
 10 11  1  0
 11 12  1  0
 12 13  2  0
 13 14  1  0
 14 15  2  0
 15 16  1  0
 15 17  1  0
 17 18  1  0
 18 19  1  0
 18 20  2  0
 18 21  2  0
 12 22  1  0
 17 22  2  0
 11 23  2  0
 23 24  1  0
  9 25  1  0
 24 25  2  0
  7 26  1  0
 25 26  1  0
  6 27  1  0
 27 28  1  0
  4 29  1  0
 28 29  1  0
 29 30  1  1
 30 31  1  0
 31 32  2  0
 31 33  1  0
 33 34  1  1
 34 35  1  0
 35 36  1  0
 35 37  2  0
 33 38  1  0
 38 39  1  0
 39 40  1  6
 39 41  1  0
M  END
