DAV-CRI-8c8dd668-1-nitrile
     RDKit          3D

 30 34  0  0  0  0  0  0  0  0999 V2000
    7.0220   -3.3960   19.8560 C   0  0  0  0  0  0  0  0  0  0  0  0
    5.9100   -3.3800   19.2200 N   0  0  0  0  0  0  0  0  0  0  0  0
    7.2270   -2.8330   21.1240 N   0  0  0  0  0  0  0  0  0  0  0  0
    8.2680   -1.8210   21.4980 C   0  0  0  0  0  0  0  0  0  0  0  0
    9.4470   -2.4560   22.2920 C   0  0  1  0  0  0  0  0  0  0  0  0
   10.2700   -1.4130   22.7370 C   0  0  0  0  0  0  0  0  0  0  0  0
   11.5890   -1.3350   22.2840 C   0  0  0  0  0  0  0  0  0  0  0  0
   12.4920   -0.2850   22.7130 C   0  0  0  0  0  0  0  0  0  0  0  0
   12.0460    0.6880   23.6040 C   0  0  0  0  0  0  0  0  0  0  0  0
   10.7380    0.6470   24.0830 C   0  0  0  0  0  0  0  0  0  0  0  0
    9.8200   -0.4320   23.6400 C   0  0  0  0  0  0  0  0  0  0  0  0
    8.8750   -3.3600   23.3550 C   0  0  0  0  0  0  0  0  0  0  0  0
    9.3890   -3.8410   24.2760 C   0  0  0  0  0  0  0  0  0  0  0  0
    9.2100   -4.6590   25.3780 C   0  0  0  0  0  0  0  0  0  0  0  0
    7.8820   -5.0750   25.4040 C   0  0  0  0  0  0  0  0  0  0  0  0
    7.0310   -4.6050   24.3520 C   0  0  0  0  0  0  0  0  0  0  0  0
    7.5350   -3.7470   23.3270 C   0  0  0  0  0  0  0  0  0  0  0  0
    6.5660   -3.2900   22.2320 C   0  0  1  0  0  0  0  0  0  0  0  0
    5.6200   -2.3270   22.5760 C   0  0  0  0  0  0  0  0  0  0  0  0
    5.6030   -1.1030   21.8930 C   0  0  0  0  0  0  0  0  0  0  0  0
    4.6810   -0.1350   22.2200 C   0  0  0  0  0  0  0  0  0  0  0  0
    3.6630   -0.3220   23.2970 C   0  0  0  0  0  0  0  0  0  0  0  0
    3.7010   -1.6650   24.0210 C   0  0  0  0  0  0  0  0  0  0  0  0
    2.7820   -1.9770   25.0650 N   0  0  0  0  0  0  0  0  0  0  0  0
    2.0830   -0.9310   25.7690 C   0  0  0  0  0  0  0  0  0  0  0  0
    0.6470   -1.3420   25.6440 C   0  0  0  0  0  0  0  0  0  0  0  0
    0.7260   -2.8540   25.6750 C   0  0  0  0  0  0  0  0  0  0  0  0
    2.0090   -3.1570   25.1210 C   0  0  0  0  0  0  0  0  0  0  0  0
    2.3040   -4.2890   24.7730 O   0  0  0  0  0  0  0  0  0  0  0  0
    4.6840   -2.5890   23.6130 C   0  0  0  0  0  0  0  0  0  0  0  0
  1  2  2  3
  1  3  1  0
  3  4  1  0
  4  5  1  0
  5  6  1  1
  6  7  2  0
  7  8  1  0
  8  9  2  0
  9 10  1  0
  6 11  1  0
 10 11  2  0
  5 12  1  0
 12 13  1  0
 13 14  2  0
 14 15  1  0
 15 16  2  0
 12 17  2  0
 16 17  1  0
  3 18  1  0
 17 18  1  0
 18 19  1  1
 19 20  2  0
 20 21  1  0
 21 22  2  0
 22 23  1  0
 23 24  1  0
 24 25  1  0
 25 26  1  0
 26 27  1  0
 24 28  1  0
 27 28  1  0
 28 29  2  0
 19 30  1  0
 23 30  2  0
M  END
