DAV-CRI-d1e0885a-2-chloroacetamide
     RDKit          3D

 21 22  0  0  0  0  0  0  0  0999 V2000
    7.1230   -2.9710   18.7300 C   0  0  0  0  0  0  0  0  0  0  0  0
    6.1390   -3.2500   19.8440 C   0  0  0  0  0  0  0  0  0  0  0  0
    5.3840   -4.2200   19.7570 O   0  0  0  0  0  0  0  0  0  0  0  0
    6.1120   -2.4050   20.9360 N   0  0  0  0  0  0  0  0  0  0  0  0
    6.8530   -1.1560   20.9370 C   0  0  0  0  0  0  0  0  0  0  0  0
    8.2630   -1.4210   21.4160 C   0  0  0  0  0  0  0  0  0  0  0  0
    8.3340   -2.3230   22.5800 N   0  0  0  0  0  0  0  0  0  0  0  0
    8.5340   -1.5410   23.7670 C   0  0  0  0  0  0  0  0  0  0  0  0
    9.9970   -1.3030   23.8360 C   0  0  0  0  0  0  0  0  0  0  0  0
   10.8210   -1.7770   22.7870 C   0  0  0  0  0  0  0  0  0  0  0  0
   12.3950   -1.6830   22.7140 C   0  0  0  0  0  0  0  0  0  0  0  0
   13.5960   -1.3280   23.2540 N   0  0  0  0  0  0  0  0  0  0  0  0
   13.2820   -1.4740   24.7120 C   0  0  0  0  0  0  0  0  0  0  0  0
   14.0140   -2.6080   25.4060 C   0  0  0  0  0  0  0  0  0  0  0  0
   12.6000   -1.0280   23.8740 N   0  0  0  0  0  0  0  0  0  0  0  0
   11.8560   -0.5590   24.8260 C   0  0  0  0  0  0  0  0  0  0  0  0
   10.4430   -0.6400   24.9290 C   0  0  0  0  0  0  0  0  0  0  0  0
    9.6070   -0.1640   25.9260 C   0  0  0  0  0  0  0  0  0  0  0  0
    8.9250    0.2540   26.7730 N   0  0  0  0  0  0  0  0  0  0  0  0
    7.4890   -3.3330   22.6270 C   0  0  0  0  0  0  0  0  0  0  0  0
    6.1920   -3.0720   22.2430 C   0  0  0  0  0  0  0  0  0  0  0  0
  1  2  1  0
  2  3  2  0
  2  4  1  0
  4  5  1  0
  5  6  1  0
  6  7  1  0
  7  8  1  0
  8  9  1  0
  9 10  2  0
 10 11  1  0
 11 12  1  0
 12 13  1  0
 13 14  1  0
 11 15  2  0
 15 16  1  0
  9 17  1  0
 16 17  2  0
 17 18  1  0
 18 19  3  0
  7 20  1  0
  4 21  1  0
 20 21  1  0
M  END
