DAV-CRI-7ebcceed-1-vinylsulfonamide
     RDKit          3D

 24 25  0  0  0  0  0  0  0  0999 V2000
    7.9620   -3.5760   19.9140 C   0  0  0  0  0  0  0  0  0  0  0  0
    7.2110   -2.6820   18.9390 C   0  0  0  0  0  0  0  0  0  0  0  0
    5.6780   -2.4200   19.7140 S   0  0  0  0  0  0  0  0  0  0  0  0
    5.0150   -3.7150   19.7880 O   0  0  0  0  0  0  0  0  0  0  0  0
    5.0620   -1.2670   19.0940 O   0  0  0  0  0  0  0  0  0  0  0  0
    6.3070   -1.9370   21.1980 N   0  0  0  0  0  0  0  0  0  0  0  0
    6.4450   -2.8120   22.2940 C   0  0  0  0  0  0  0  0  0  0  0  0
    7.5900   -2.8890   23.0940 C   0  0  0  0  0  0  0  0  0  0  0  0
    8.6390   -2.0610   22.5820 C   0  0  2  0  0  0  0  0  0  0  0  0
    9.7230   -2.2180   23.4210 C   0  0  0  0  0  0  0  0  0  0  0  0
    9.6440   -3.1290   24.2260 O   0  0  0  0  0  0  0  0  0  0  0  0
   10.8970   -1.3710   23.4240 N   0  0  0  0  0  0  0  0  0  0  0  0
   11.9540   -1.4390   22.4100 C   0  0  0  0  0  0  0  0  0  0  0  0
   11.2130   -0.8750   24.6860 C   0  0  0  0  0  0  0  0  0  0  0  0
   10.0250   -0.2320   25.4080 C   0  0  0  0  0  0  0  0  0  0  0  0
   12.4380   -0.2190   24.6410 C   0  0  0  0  0  0  0  0  0  0  0  0
    8.2260   -0.7860   22.1650 C   0  0  1  0  0  0  0  0  0  0  0  0
    9.2500    0.1200   21.9780 C   0  0  0  0  0  0  0  0  0  0  0  0
    9.5220    1.0940   23.0820 C   0  0  1  0  0  0  0  0  0  0  0  0
   11.0590    1.4450   23.1690 C   0  0  0  0  0  0  0  0  0  0  0  0
   11.4620    2.7850   23.0030 C   0  0  0  0  0  0  0  0  0  0  0  0
   10.2490    3.6850   22.7500 C   0  0  0  0  0  0  0  0  0  0  0  0
    8.8560    2.6220   22.7770 S   0  0  0  0  0  0  0  0  0  0  0  0
    7.3240   -0.8640   21.1020 C   0  0  0  0  0  0  0  0  0  0  0  0
  1  2  1  0
  3  2  1  0
  3  4  2  0
  3  5  2  0
  3  6  1  0
  6  7  1  0
  7  8  1  0
  8  9  1  0
  9 10  1  1
 10 11  2  0
 10 12  1  0
 12 13  1  0
 12 14  1  0
 14 15  1  0
 14 16  1  0
  9 17  1  0
 17 18  1  6
 19 18  1  6
 19 20  1  0
 20 21  2  0
 21 22  1  0
 19 23  1  0
 22 23  2  0
  6 24  1  0
 17 24  1  0
M  END
