DAV-CRI-25b90884-1-vinylsulfonamide
     RDKit          3D

 28 29  0  0  0  0  0  0  0  0999 V2000
    6.4280   -5.1440   20.6730 C   0  0  0  0  0  0  0  0  0  0  0  0
    6.8260   -4.7120   22.1040 C   0  0  0  0  0  0  0  0  0  0  0  0
    5.8360   -3.3960   22.7460 S   0  0  0  0  0  0  0  0  0  0  0  0
    4.7130   -3.2590   21.7750 O   0  0  0  0  0  0  0  0  0  0  0  0
    5.5400   -3.7600   24.1110 O   0  0  0  0  0  0  0  0  0  0  0  0
    6.9920   -2.0570   22.9450 N   0  0  0  0  0  0  0  0  0  0  0  0
    8.4190   -2.2640   22.5430 C   0  0  1  0  0  0  0  0  0  0  0  0
    8.6360   -1.8710   21.1110 C   0  0  0  0  0  0  0  0  0  0  0  0
    7.5510   -1.1510   20.3880 C   0  0  0  0  0  0  0  0  0  0  0  0
    7.1190    0.0280   20.9760 C   0  0  1  0  0  0  0  0  0  0  0  0
    7.9480    1.0330   20.5970 N   0  0  0  0  0  0  0  0  0  0  0  0
    8.2700    1.8790   21.6250 C   0  0  0  0  0  0  0  0  0  0  0  0
    9.4140    1.7810   22.4210 C   0  0  0  0  0  0  0  0  0  0  0  0
    7.4900    2.7960   21.8450 O   0  0  0  0  0  0  0  0  0  0  0  0
    5.7970    0.6280   20.5500 C   0  0  0  0  0  0  0  0  0  0  0  0
    5.5860    1.1780   19.1560 C   0  0  0  0  0  0  0  0  0  0  0  0
    4.2590    1.8050   18.7830 C   0  0  0  0  0  0  0  0  0  0  0  0
    3.2880    1.8280   19.7930 C   0  0  0  0  0  0  0  0  0  0  0  0
    2.0570    2.3730   19.5720 O   0  0  0  0  0  0  0  0  0  0  0  0
    3.5240    1.3040   21.0650 C   0  0  0  0  0  0  0  0  0  0  0  0
    4.7330    0.7160   21.4520 C   0  0  0  0  0  0  0  0  0  0  0  0
    9.7040   -1.4840   22.9000 C   0  0  0  0  0  0  0  0  0  0  0  0
   10.0710   -0.4670   23.7060 C   0  0  0  0  0  0  0  0  0  0  0  0
   11.1490    0.2800   24.0460 C   0  0  0  0  0  0  0  0  0  0  0  0
   12.3550   -0.1960   23.2400 C   0  0  0  0  0  0  0  0  0  0  0  0
   12.0830   -1.3700   22.2720 C   0  0  0  0  0  0  0  0  0  0  0  0
   13.2950   -2.0340   21.2930 Cl  0  0  0  0  0  0  0  0  0  0  0  0
   10.8320   -1.9020   22.1810 C   0  0  0  0  0  0  0  0  0  0  0  0
  1  2  1  0
  2  3  1  0
  3  4  2  0
  3  5  2  0
  3  6  1  0
  6  7  1  0
  7  8  1  6
  8  9  1  0
 10  9  1  6
 10 11  1  0
 11 12  1  0
 12 13  1  0
 12 14  2  0
 10 15  1  0
 15 16  2  0
 16 17  1  0
 17 18  2  0
 18 19  1  0
 18 20  1  0
 15 21  1  0
 20 21  2  0
  7 22  1  0
 22 23  2  0
 23 24  1  0
 24 25  2  0
 25 26  1  0
 26 27  1  0
 22 28  1  0
 26 28  2  0
M  END
