DAV-CRI-d1e0885a-2-acrylamide
     RDKit          3D

 22 23  0  0  0  0  0  0  0  0999 V2000
    7.9300   -3.2790   19.0890 C   0  0  0  0  0  0  0  0  0  0  0  0
    6.7260   -2.4290   18.8240 C   0  0  0  0  0  0  0  0  0  0  0  0
    5.8670   -2.6410   20.0120 C   0  0  0  0  0  0  0  0  0  0  0  0
    4.8450   -3.2810   19.8870 O   0  0  0  0  0  0  0  0  0  0  0  0
    6.3380   -2.1380   21.2100 N   0  0  0  0  0  0  0  0  0  0  0  0
    6.2760   -3.0560   22.3730 C   0  0  0  0  0  0  0  0  0  0  0  0
    7.6270   -3.5010   22.9460 C   0  0  0  0  0  0  0  0  0  0  0  0
    8.5480   -2.3730   23.1020 N   0  0  0  0  0  0  0  0  0  0  0  0
    9.8740   -2.7820   23.5610 C   0  0  0  0  0  0  0  0  0  0  0  0
   10.6790   -1.6930   23.5630 C   0  0  0  0  0  0  0  0  0  0  0  0
   11.9190   -1.6910   22.6200 C   0  0  0  0  0  0  0  0  0  0  0  0
   12.3990   -0.4850   22.8890 C   0  0  0  0  0  0  0  0  0  0  0  0
   13.4090   -0.3050   22.1850 N   0  0  0  0  0  0  0  0  0  0  0  0
   13.4480    1.0940   22.3140 C   0  0  0  0  0  0  0  0  0  0  0  0
   14.6400    1.9250   21.7790 C   0  0  0  0  0  0  0  0  0  0  0  0
   12.4280    0.4970   23.3850 N   0  0  0  0  0  0  0  0  0  0  0  0
   11.4200    0.5850   24.2050 C   0  0  0  0  0  0  0  0  0  0  0  0
   10.4760   -0.4110   24.4100 C   0  0  0  0  0  0  0  0  0  0  0  0
    9.4380   -0.1370   25.3550 C   0  0  0  0  0  0  0  0  0  0  0  0
    8.6270    0.1100   26.1550 N   0  0  0  0  0  0  0  0  0  0  0  0
    8.6870   -1.6600   21.8140 C   0  0  0  0  0  0  0  0  0  0  0  0
    7.3670   -1.1080   21.2930 C   0  0  0  0  0  0  0  0  0  0  0  0
  1  2  1  0
  2  3  1  0
  3  4  2  0
  3  5  1  0
  5  6  1  0
  6  7  1  0
  7  8  1  0
  8  9  1  0
  9 10  1  0
 10 11  2  0
 11 12  1  0
 12 13  1  0
 13 14  1  0
 14 15  1  0
 12 16  2  0
 16 17  1  0
 10 18  1  0
 17 18  2  0
 18 19  1  0
 19 20  3  0
  8 21  1  0
  5 22  1  0
 21 22  1  0
M  END
