DAV-CRI-f9b12666-9-vinylsulfonamide
     RDKit          3D

 43 46  0  0  0  0  0  0  0  0999 V2000
    6.4150   -5.5510   20.5490 C   0  0  0  0  0  0  0  0  0  0  0  0
    6.0980   -5.9980   22.0600 C   0  0  0  0  0  0  0  0  0  0  0  0
    5.2760   -4.7180   23.1860 S   0  0  0  0  0  0  0  0  0  0  0  0
    4.0290   -4.1770   22.6570 O   0  0  0  0  0  0  0  0  0  0  0  0
    5.5640   -4.8930   24.6030 O   0  0  0  0  0  0  0  0  0  0  0  0
    6.3130   -3.6690   22.6600 N   0  0  0  0  0  0  0  0  0  0  0  0
    7.5850   -3.4860   23.3340 C   0  0  0  0  0  0  0  0  0  0  0  0
    8.6560   -3.8080   22.2950 C   0  0  2  0  0  0  0  0  0  0  0  0
    9.9950   -3.2920   22.8830 C   0  0  0  0  0  0  0  0  0  0  0  0
   10.7070   -4.0820   23.8260 N   0  0  0  0  0  0  0  0  0  0  0  0
   11.2330   -2.8280   23.4150 C   0  0  0  0  0  0  0  0  0  0  0  0
   12.5990   -2.2000   23.8980 C   0  0  0  0  0  0  0  0  0  0  0  0
   12.4480   -1.2310   23.2370 C   0  0  0  0  0  0  0  0  0  0  0  0
   13.3830   -0.2120   23.2260 C   0  0  0  0  0  0  0  0  0  0  0  0
   12.6890    1.0660   23.3690 C   0  0  0  0  0  0  0  0  0  0  0  0
   11.4860    1.1730   24.0200 C   0  0  0  0  0  0  0  0  0  0  0  0
   10.7450    2.4080   24.1720 C   0  0  0  0  0  0  0  0  0  0  0  0
   11.2860    3.5760   23.6270 C   0  0  0  0  0  0  0  0  0  0  0  0
   10.4120    5.0410   23.8170 S   0  0  0  0  0  0  0  0  0  0  0  0
    9.0750    4.8060   22.8200 N   0  0  0  0  0  0  0  0  0  0  0  0
   11.1100    6.1250   23.1900 O   0  0  0  0  0  0  0  0  0  0  0  0
    9.8690    5.1640   25.1560 O   0  0  0  0  0  0  0  0  0  0  0  0
   12.5180    3.4840   22.9470 C   0  0  0  0  0  0  0  0  0  0  0  0
   13.2190    2.2580   22.8210 C   0  0  0  0  0  0  0  0  0  0  0  0
   11.6600   -0.8400   22.5050 C   0  0  0  0  0  0  0  0  0  0  0  0
   12.9580   -0.7950   23.2980 C   0  0  0  0  0  0  0  0  0  0  0  0
   12.4240   -2.2810   23.8360 C   0  0  0  0  0  0  0  0  0  0  0  0
   11.0460   -1.8430   22.7030 S   0  0  0  0  0  0  0  0  0  0  0  0
    8.2260   -3.3660   20.8100 C   0  0  0  0  0  0  0  0  0  0  0  0
    6.7790   -3.7960   20.4950 C   0  0  0  0  0  0  0  0  0  0  0  0
    6.3970   -4.6340   21.6590 C   0  0  2  0  0  0  0  0  0  0  0  0
    5.0730   -5.3860   21.7700 N   0  0  0  0  0  0  0  0  0  0  0  0
    4.5500   -6.0440   22.9680 C   0  0  0  0  0  0  0  0  0  0  0  0
    5.2480   -6.6170   23.8140 O   0  0  0  0  0  0  0  0  0  0  0  0
    3.0100   -6.0160   23.2290 C   0  0  2  0  0  0  0  0  0  0  0  0
    2.4920   -6.4960   24.4500 C   0  0  0  0  0  0  0  0  0  0  0  0
    3.0940   -7.7960   25.0080 C   0  0  0  0  0  0  0  0  0  0  0  0
    2.3670   -8.4780   25.9500 N   0  0  0  0  0  0  0  0  0  0  0  0
    4.1640   -8.2120   24.6520 O   0  0  0  0  0  0  0  0  0  0  0  0
    2.3050   -6.6760   22.0910 N   0  0  0  0  0  0  0  0  0  0  0  0
    1.0480   -7.3600   22.2160 C   0  0  2  0  0  0  0  0  0  0  0  0
    1.1190   -8.6530   21.3800 C   0  0  0  0  0  0  0  0  0  0  0  0
    0.0780   -6.4760   21.6440 N   0  0  0  0  0  0  0  0  0  0  0  0
  1  2  1  0
  3  2  1  0
  3  4  2  0
  3  5  2  0
  3  6  1  0
  6  7  1  0
  7  8  1  0
  8  9  1  1
  9 10  2  0
 10 11  1  0
 11 12  2  0
 12 13  1  0
 13 14  1  0
 14 15  1  0
 15 16  2  0
 16 17  1  0
 17 18  2  0
 18 19  1  0
 19 20  1  0
 19 21  2  0
 19 22  2  0
 18 23  1  0
 15 24  1  0
 23 24  2  0
 13 25  2  0
 25 26  1  0
 11 27  1  0
 26 27  2  0
  9 28  1  0
 27 28  1  0
  8 29  1  0
 29 30  1  0
  6 31  1  0
 30 31  1  0
 31 32  1  6
 32 33  1  0
 33 34  2  0
 33 35  1  0
 35 36  1  1
 36 37  1  0
 37 38  1  0
 37 39  2  0
 35 40  1  0
 40 41  1  0
 41 42  1  6
 41 43  1  0
M  END
