DAV-CRI-f4772df7-5-chloroacetamide
     RDKit          3D

 34 38  0  0  0  0  0  0  0  0999 V2000
    7.2610   -3.0030   18.9810 C   0  0  0  0  0  0  0  0  0  0  0  0
    6.4100   -3.4190   20.1740 C   0  0  0  0  0  0  0  0  0  0  0  0
    5.5070   -4.2480   19.8900 O   0  0  0  0  0  0  0  0  0  0  0  0
    6.7070   -2.8860   21.4910 N   0  0  0  0  0  0  0  0  0  0  0  0
    7.8120   -1.8430   21.6010 C   0  0  0  0  0  0  0  0  0  0  0  0
    8.0120   -1.0270   20.7000 O   0  0  0  0  0  0  0  0  0  0  0  0
    8.6620   -1.7950   22.8970 C   0  0  2  0  0  0  0  0  0  0  0  0
    9.9900   -1.0250   22.9700 C   0  0  0  0  0  0  0  0  0  0  0  0
   10.0140    0.1570   23.7230 C   0  0  0  0  0  0  0  0  0  0  0  0
   11.1750    0.9060   23.8580 C   0  0  0  0  0  0  0  0  0  0  0  0
   12.3470    0.4900   23.2440 C   0  0  0  0  0  0  0  0  0  0  0  0
   12.3560   -0.6820   22.4920 C   0  0  0  0  0  0  0  0  0  0  0  0
   11.1860   -1.4450   22.3450 C   0  0  0  0  0  0  0  0  0  0  0  0
    8.7130   -3.0430   23.6780 C   0  0  0  0  0  0  0  0  0  0  0  0
    9.7830   -3.2400   24.5720 C   0  0  0  0  0  0  0  0  0  0  0  0
    9.8440   -4.3920   25.3370 C   0  0  0  0  0  0  0  0  0  0  0  0
   10.8420   -4.6490   26.2140 O   0  0  0  0  0  0  0  0  0  0  0  0
    8.7730   -5.3940   25.1940 C   0  0  0  0  0  0  0  0  0  0  0  0
    7.7440   -5.1530   24.2890 C   0  0  0  0  0  0  0  0  0  0  0  0
    7.7040   -3.9900   23.5250 C   0  0  0  0  0  0  0  0  0  0  0  0
    6.6300   -3.8700   22.6550 C   0  0  1  0  0  0  0  0  0  0  0  0
    5.4100   -4.4490   23.3880 C   0  0  2  0  0  0  0  0  0  0  0  0
    5.0480   -5.6800   22.4890 C   0  0  0  0  0  0  0  0  0  0  0  0
    3.7360   -6.5900   23.2630 S   0  0  0  0  0  0  0  0  0  0  0  0
    2.5710   -6.7760   22.4380 O   0  0  0  0  0  0  0  0  0  0  0  0
    4.2840   -7.6740   24.0710 O   0  0  0  0  0  0  0  0  0  0  0  0
    3.3480   -5.3170   24.3830 C   0  0  0  0  0  0  0  0  0  0  0  0
    3.9650   -4.0210   23.8700 C   0  0  1  0  0  0  0  0  0  0  0  0
    3.6040   -3.0440   24.9220 N   0  0  0  0  0  0  0  0  0  0  0  0
    2.3370   -3.2310   25.6240 C   0  0  0  0  0  0  0  0  0  0  0  0
    2.2740   -2.1350   26.6690 C   0  0  0  0  0  0  0  0  0  0  0  0
    3.7220   -2.0500   27.0820 C   0  0  0  0  0  0  0  0  0  0  0  0
    4.4830   -2.3940   25.8030 C   0  0  0  0  0  0  0  0  0  0  0  0
    5.6510   -2.1210   25.6230 O   0  0  0  0  0  0  0  0  0  0  0  0
  1  2  1  0
  2  3  2  0
  2  4  1  0
  4  5  1  0
  5  6  2  0
  5  7  1  0
  7  8  1  6
  8  9  2  0
  9 10  1  0
 10 11  2  0
 11 12  1  0
  8 13  1  0
 12 13  2  0
  7 14  1  0
 14 15  1  0
 15 16  2  0
 16 17  1  0
 16 18  1  0
 18 19  2  0
 14 20  2  0
 19 20  1  0
 21  4  1  1
 20 21  1  0
 21 22  1  0
 22 23  1  6
 24 23  1  0
 24 25  2  0
 24 26  2  0
 24 27  1  0
 22 28  1  0
 27 28  1  0
 28 29  1  1
 29 30  1  0
 30 31  1  0
 31 32  1  0
 29 33  1  0
 32 33  1  0
 33 34  2  0
M  END
