DAV-CRI-f9b12666-2-chloroacetamide
     RDKit          3D

 40 43  0  0  0  0  0  0  0  0999 V2000
    6.3830   -5.9880   19.7570 C   0  0  0  0  0  0  0  0  0  0  0  0
    6.1950   -4.7220   20.2930 C   0  0  0  0  0  0  0  0  0  0  0  0
    5.8390   -3.7460   19.6420 O   0  0  0  0  0  0  0  0  0  0  0  0
    6.4430   -4.8560   21.6480 N   0  0  0  0  0  0  0  0  0  0  0  0
    7.7530   -4.5690   22.2530 C   0  0  0  0  0  0  0  0  0  0  0  0
    7.6010   -3.1530   22.7230 C   0  0  1  0  0  0  0  0  0  0  0  0
    8.9970   -2.6680   23.1300 C   0  0  0  0  0  0  0  0  0  0  0  0
    9.4530   -1.2540   23.0930 N   0  0  0  0  0  0  0  0  0  0  0  0
   10.8460   -1.3870   23.5660 C   0  0  0  0  0  0  0  0  0  0  0  0
   11.8060   -0.2610   23.7290 C   0  0  0  0  0  0  0  0  0  0  0  0
   11.5710    1.1810   23.5560 C   0  0  0  0  0  0  0  0  0  0  0  0
   10.3770    1.6430   24.0770 C   0  0  0  0  0  0  0  0  0  0  0  0
   10.0480    3.0160   24.0410 C   0  0  0  0  0  0  0  0  0  0  0  0
   10.9640    3.8380   23.4700 C   0  0  0  0  0  0  0  0  0  0  0  0
   10.3690    5.4550   23.5690 S   0  0  0  0  0  0  0  0  0  0  0  0
    8.9530    5.4500   22.6780 N   0  0  0  0  0  0  0  0  0  0  0  0
    9.9470    5.6960   24.9380 O   0  0  0  0  0  0  0  0  0  0  0  0
   11.2830    6.3760   22.9250 O   0  0  0  0  0  0  0  0  0  0  0  0
   12.2290    3.4290   22.8840 C   0  0  0  0  0  0  0  0  0  0  0  0
   12.5100    2.0610   22.9490 C   0  0  0  0  0  0  0  0  0  0  0  0
   13.1600   -0.6070   24.1710 C   0  0  0  0  0  0  0  0  0  0  0  0
   13.4750   -1.9120   24.4770 C   0  0  0  0  0  0  0  0  0  0  0  0
   12.6370   -2.9350   24.3820 C   0  0  0  0  0  0  0  0  0  0  0  0
   11.3750   -2.7410   23.9350 C   0  0  0  0  0  0  0  0  0  0  0  0
   10.1490   -3.9950   23.7130 S   0  0  0  0  0  0  0  0  0  0  0  0
    6.8020   -2.4770   21.5900 C   0  0  0  0  0  0  0  0  0  0  0  0
    5.4000   -3.0190   21.8620 C   0  0  0  0  0  0  0  0  0  0  0  0
    5.4570   -4.3900   22.4750 C   0  0  1  0  0  0  0  0  0  0  0  0
    4.5060   -5.3300   22.4840 N   0  0  0  0  0  0  0  0  0  0  0  0
    3.9000   -5.3450   23.6680 C   0  0  0  0  0  0  0  0  0  0  0  0
    4.4680   -4.8780   24.6540 O   0  0  0  0  0  0  0  0  0  0  0  0
    2.4940   -5.9240   23.7690 C   0  0  2  0  0  0  0  0  0  0  0  0
    2.2940   -6.5460   25.1300 C   0  0  0  0  0  0  0  0  0  0  0  0
    2.8400   -7.8140   25.3230 C   0  0  0  0  0  0  0  0  0  0  0  0
    2.2310   -8.5830   26.2630 N   0  0  0  0  0  0  0  0  0  0  0  0
    3.8120   -8.2020   24.6900 O   0  0  0  0  0  0  0  0  0  0  0  0
    2.4270   -6.9920   22.7440 N   0  0  0  0  0  0  0  0  0  0  0  0
    1.1220   -7.4800   22.3610 C   0  0  2  0  0  0  0  0  0  0  0  0
    1.1080   -8.5760   21.2840 C   0  0  0  0  0  0  0  0  0  0  0  0
    0.3600   -6.3260   21.9550 N   0  0  0  0  0  0  0  0  0  0  0  0
  1  2  1  0
  2  3  2  0
  2  4  1  0
  4  5  1  0
  5  6  1  0
  6  7  1  6
  7  8  2  0
  8  9  1  0
  9 10  2  0
 10 11  1  0
 11 12  2  0
 12 13  1  0
 13 14  2  0
 14 15  1  0
 15 16  1  0
 15 17  2  0
 15 18  2  0
 14 19  1  0
 11 20  1  0
 19 20  2  0
 10 21  1  0
 21 22  2  0
 22 23  1  0
  9 24  1  0
 23 24  2  0
  7 25  1  0
 24 25  1  0
  6 26  1  0
 26 27  1  0
  4 28  1  0
 27 28  1  0
 28 29  1  6
 29 30  1  0
 30 31  2  0
 30 32  1  0
 32 33  1  1
 33 34  1  0
 34 35  1  0
 34 36  2  0
 32 37  1  0
 37 38  1  0
 38 39  1  6
 38 40  1  0
M  END
