DAV-CRI-f9b12666-1-chloroacetamide
     RDKit          3D

 40 43  0  0  0  0  0  0  0  0999 V2000
    6.9950   -5.8840   19.7550 C   0  0  0  0  0  0  0  0  0  0  0  0
    6.5760   -4.5510   20.1890 C   0  0  0  0  0  0  0  0  0  0  0  0
    6.2180   -3.6070   19.4980 O   0  0  0  0  0  0  0  0  0  0  0  0
    6.6080   -4.6140   21.5390 N   0  0  0  0  0  0  0  0  0  0  0  0
    7.9950   -4.8800   22.0130 C   0  0  0  0  0  0  0  0  0  0  0  0
    8.1270   -4.7270   23.4770 C   0  0  1  0  0  0  0  0  0  0  0  0
    9.0720   -3.5930   23.6000 C   0  0  0  0  0  0  0  0  0  0  0  0
    8.7080   -2.2180   23.2140 N   0  0  0  0  0  0  0  0  0  0  0  0
   10.0070   -1.6450   23.4750 C   0  0  0  0  0  0  0  0  0  0  0  0
   10.5300   -0.2720   23.3550 C   0  0  0  0  0  0  0  0  0  0  0  0
   11.9800    0.0850   23.7040 C   0  0  0  0  0  0  0  0  0  0  0  0
   11.9260    1.4050   23.5320 C   0  0  0  0  0  0  0  0  0  0  0  0
   12.8520    2.2890   22.9350 C   0  0  0  0  0  0  0  0  0  0  0  0
   12.4150    3.6230   22.9490 C   0  0  0  0  0  0  0  0  0  0  0  0
   11.1200    4.0270   23.5400 C   0  0  0  0  0  0  0  0  0  0  0  0
   10.6040    5.6590   23.5720 S   0  0  0  0  0  0  0  0  0  0  0  0
    9.1720    5.6580   22.7050 N   0  0  0  0  0  0  0  0  0  0  0  0
   10.2080    5.9610   24.9400 O   0  0  0  0  0  0  0  0  0  0  0  0
   11.5450    6.4990   22.8680 O   0  0  0  0  0  0  0  0  0  0  0  0
   10.3000    3.0990   24.0860 C   0  0  0  0  0  0  0  0  0  0  0  0
   10.7000    1.8150   24.0800 C   0  0  0  0  0  0  0  0  0  0  0  0
   13.1370   -0.7100   24.1510 C   0  0  0  0  0  0  0  0  0  0  0  0
   12.0950   -1.4890   24.0310 C   0  0  0  0  0  0  0  0  0  0  0  0
   11.1060   -2.3710   23.9480 C   0  0  0  0  0  0  0  0  0  0  0  0
   10.7440   -4.0240   24.2160 S   0  0  0  0  0  0  0  0  0  0  0  0
    6.7420   -4.6170   23.9920 C   0  0  0  0  0  0  0  0  0  0  0  0
    6.2750   -5.8950   23.4030 C   0  0  0  0  0  0  0  0  0  0  0  0
    5.7550   -5.6570   22.0870 C   0  0  1  0  0  0  0  0  0  0  0  0
    4.5190   -5.2570   22.0180 N   0  0  0  0  0  0  0  0  0  0  0  0
    3.8350   -5.2460   23.1770 C   0  0  0  0  0  0  0  0  0  0  0  0
    3.9670   -4.3330   23.9870 O   0  0  0  0  0  0  0  0  0  0  0  0
    2.9110   -6.4450   23.4070 C   0  0  1  0  0  0  0  0  0  0  0  0
    2.5120   -6.5970   24.8520 C   0  0  0  0  0  0  0  0  0  0  0  0
    2.9180   -7.8060   25.3580 C   0  0  0  0  0  0  0  0  0  0  0  0
    2.1540   -8.3910   26.3160 N   0  0  0  0  0  0  0  0  0  0  0  0
    3.9320   -8.3000   24.9240 O   0  0  0  0  0  0  0  0  0  0  0  0
    1.7050   -6.1850   22.6040 N   0  0  0  0  0  0  0  0  0  0  0  0
    0.7360   -7.2200   22.3350 C   0  0  2  0  0  0  0  0  0  0  0  0
    1.1500   -8.4290   21.4770 C   0  0  0  0  0  0  0  0  0  0  0  0
   -0.3370   -6.5060   21.6810 N   0  0  0  0  0  0  0  0  0  0  0  0
  1  2  1  0
  2  3  2  0
  2  4  1  0
  4  5  1  0
  5  6  1  0
  6  7  1  6
  7  8  2  0
  8  9  1  0
  9 10  2  0
 10 11  1  0
 11 12  1  0
 12 13  2  0
 13 14  1  0
 14 15  2  0
 15 16  1  0
 16 17  1  0
 16 18  2  0
 16 19  2  0
 15 20  1  0
 12 21  1  0
 20 21  2  0
 11 22  2  0
 22 23  1  0
  9 24  1  0
 23 24  2  0
  7 25  1  0
 24 25  1  0
  6 26  1  0
 26 27  1  0
  4 28  1  0
 27 28  1  0
 28 29  1  1
 29 30  1  0
 30 31  2  0
 30 32  1  0
 32 33  1  1
 33 34  1  0
 34 35  1  0
 34 36  2  0
 32 37  1  0
 37 38  1  0
 38 39  1  6
 38 40  1  0
M  END
