DAV-CRI-7ebcceed-1-acrylamide
     RDKit          3D

 23 24  0  0  0  0  0  0  0  0999 V2000
    7.1510   -2.8780   18.6410 C   0  0  0  0  0  0  0  0  0  0  0  0
    6.1180   -2.4830   19.6660 C   0  0  0  0  0  0  0  0  0  0  0  0
    5.7500   -3.7370   20.4300 C   0  0  0  0  0  0  0  0  0  0  0  0
    5.1400   -4.6460   19.8770 O   0  0  0  0  0  0  0  0  0  0  0  0
    6.2060   -3.8920   21.7140 N   0  0  0  0  0  0  0  0  0  0  0  0
    7.3420   -3.1440   22.2450 C   0  0  0  0  0  0  0  0  0  0  0  0
    7.3420   -3.3100   23.6800 C   0  0  0  0  0  0  0  0  0  0  0  0
    6.1500   -3.6610   24.3140 C   0  0  2  0  0  0  0  0  0  0  0  0
    6.4180   -3.5640   25.6900 C   0  0  0  0  0  0  0  0  0  0  0  0
    5.1930   -3.0210   25.9220 O   0  0  0  0  0  0  0  0  0  0  0  0
    6.9730   -3.6370   26.7040 N   0  0  0  0  0  0  0  0  0  0  0  0
    7.8530   -2.4630   26.8960 C   0  0  0  0  0  0  0  0  0  0  0  0
    7.5080   -4.9570   27.0820 C   0  0  0  0  0  0  0  0  0  0  0  0
    6.4800   -5.7330   27.9100 C   0  0  0  0  0  0  0  0  0  0  0  0
    8.8050   -4.9200   27.5900 C   0  0  0  0  0  0  0  0  0  0  0  0
    5.3710   -4.7360   23.8120 C   0  0  2  0  0  0  0  0  0  0  0  0
    5.2840   -5.9080   24.7030 C   0  0  0  0  0  0  0  0  0  0  0  0
    3.9560   -6.1790   25.2700 C   0  0  1  0  0  0  0  0  0  0  0  0
    2.7130   -5.3620   24.8680 C   0  0  0  0  0  0  0  0  0  0  0  0
    1.4750   -6.0200   24.2330 C   0  0  0  0  0  0  0  0  0  0  0  0
    1.6580   -7.3980   24.0920 C   0  0  0  0  0  0  0  0  0  0  0  0
    3.2770   -7.7750   24.7280 S   0  0  0  0  0  0  0  0  0  0  0  0
    5.8970   -5.1190   22.4320 C   0  0  0  0  0  0  0  0  0  0  0  0
  1  2  1  0
  2  3  1  0
  3  4  2  0
  3  5  1  0
  5  6  1  0
  6  7  1  0
  7  8  1  0
  8  9  1  1
  9 10  2  0
  9 11  1  0
 11 12  1  0
 11 13  1  0
 13 14  1  0
 13 15  1  0
  8 16  1  0
 16 17  1  1
 18 17  1  6
 18 19  1  0
 19 20  2  0
 20 21  1  0
 18 22  1  0
 21 22  2  0
  5 23  1  0
 16 23  1  0
M  END
