DAV-CRI-10b5d502-1
     RDKit          3D

 21 22  0  0  0  0  0  0  0  0999 V2000
    5.4770   -4.7410   19.7180 O   0  0  0  0  0  0  0  0  0  0  0  0
    5.9770   -4.0720   20.6000 C   0  0  0  0  0  0  0  0  0  0  0  0
    6.1940   -2.5850   20.4510 C   0  0  0  0  0  0  0  0  0  0  0  0
    7.8710   -2.0750   20.5960 Cl  0  0  0  0  0  0  0  0  0  0  0  0
    6.3760   -4.7930   21.8880 C   0  0  2  0  0  0  0  0  0  0  0  0
    5.4020   -5.6920   22.1680 N   0  0  0  0  0  0  0  0  0  0  0  0
    4.5870   -5.4110   23.2300 C   0  0  0  0  0  0  0  0  0  0  0  0
    5.4110   -5.1950   24.4430 N   0  0  0  0  0  0  0  0  0  0  0  0
    4.7120   -5.2690   25.9860 S   0  0  0  0  0  0  0  0  0  0  0  0
    5.8160   -5.1560   26.9080 O   0  0  0  0  0  0  0  0  0  0  0  0
    3.8480   -6.4300   25.9900 O   0  0  0  0  0  0  0  0  0  0  0  0
    3.6840   -3.7960   26.1990 C   0  0  2  0  0  0  0  0  0  0  0  0
    2.4140   -3.9890   25.6510 C   0  0  0  0  0  0  0  0  0  0  0  0
    1.4570   -2.9880   25.8360 C   0  0  0  0  0  0  0  0  0  0  0  0
    1.9860   -1.6280   26.3520 C   0  0  0  0  0  0  0  0  0  0  0  0
    3.4060   -1.3680   25.7670 C   0  0  0  0  0  0  0  0  0  0  0  0
    4.3070   -2.6080   25.8090 C   0  0  1  0  0  0  0  0  0  0  0  0
    5.4700   -2.5690   26.4810 F   0  0  0  0  0  0  0  0  0  0  0  0
    6.6570   -4.4030   24.2920 C   0  0  0  0  0  0  0  0  0  0  0  0
    6.7310   -3.9080   22.8590 C   0  0  0  0  0  0  0  0  0  0  0  0
    7.0890   -2.7580   22.6430 O   0  0  0  0  0  0  0  0  0  0  0  0
  1  2  2  0
  2  3  1  0
  3  4  1  0
  5  2  1  6
  5  6  1  0
  6  7  1  0
  7  8  1  0
  9  8  1  0
  9 10  2  0
  9 11  2  0
 12  9  1  6
 12 13  1  0
 13 14  1  0
 14 15  1  0
 15 16  1  0
 12 17  1  0
 16 17  1  0
 17 18  1  1
  8 19  1  0
  5 20  1  0
 19 20  1  0
 20 21  2  0
M  END
