DAV-CRI-d1e0885a-2-nitrile
     RDKit          3D

 20 21  0  0  0  0  0  0  0  0999 V2000
    6.6280   -3.8280   19.9580 C   0  0  0  0  0  0  0  0  0  0  0  0
    5.7700   -4.7880   19.9840 N   0  0  0  0  0  0  0  0  0  0  0  0
    6.5820   -2.8530   20.9060 N   0  0  0  0  0  0  0  0  0  0  0  0
    7.3110   -1.5950   20.8650 C   0  0  0  0  0  0  0  0  0  0  0  0
    8.4740   -1.6570   21.6610 C   0  0  0  0  0  0  0  0  0  0  0  0
    8.0630   -2.0600   23.0430 N   0  0  0  0  0  0  0  0  0  0  0  0
    9.2190   -2.2520   23.9260 C   0  0  0  0  0  0  0  0  0  0  0  0
   10.3050   -1.4090   23.6950 C   0  0  0  0  0  0  0  0  0  0  0  0
   11.2780   -1.6720   22.5360 C   0  0  0  0  0  0  0  0  0  0  0  0
   12.2640   -0.5810   22.6380 C   0  0  0  0  0  0  0  0  0  0  0  0
   12.0380    0.1550   23.5190 N   0  0  0  0  0  0  0  0  0  0  0  0
   11.1680    1.3050   23.2190 C   0  0  0  0  0  0  0  0  0  0  0  0
   11.9370    2.6150   22.9660 C   0  0  0  0  0  0  0  0  0  0  0  0
   12.8170    0.4440   23.0790 N   0  0  0  0  0  0  0  0  0  0  0  0
   11.8060    0.4800   24.0680 C   0  0  0  0  0  0  0  0  0  0  0  0
   10.4960   -0.1880   24.6690 C   0  0  0  0  0  0  0  0  0  0  0  0
    9.5090   -0.0760   25.6990 C   0  0  0  0  0  0  0  0  0  0  0  0
    8.6830    0.0020   26.5120 N   0  0  0  0  0  0  0  0  0  0  0  0
    7.2100   -3.3040   23.1010 C   0  0  0  0  0  0  0  0  0  0  0  0
    6.1260   -3.2100   22.2430 C   0  0  0  0  0  0  0  0  0  0  0  0
  1  2  2  3
  1  3  1  0
  3  4  1  0
  4  5  1  0
  5  6  1  0
  6  7  1  0
  7  8  1  0
  8  9  2  0
  9 10  1  0
 10 11  1  0
 11 12  1  0
 12 13  1  0
 10 14  2  0
 14 15  1  0
  8 16  1  0
 15 16  2  0
 16 17  1  0
 17 18  3  0
  6 19  1  0
  3 20  1  0
 19 20  1  0
M  END
