DAV-CRI-3fe943ba-1-chloroacetamide
     RDKit          3D

 27 30  0  0  0  0  0  0  0  0999 V2000
    7.3870   -3.0520   18.8640 C   0  0  0  0  0  0  0  0  0  0  0  0
    6.5630   -3.4900   20.0560 C   0  0  0  0  0  0  0  0  0  0  0  0
    5.6060   -4.2660   19.8550 O   0  0  0  0  0  0  0  0  0  0  0  0
    6.9260   -3.0220   21.3260 N   0  0  0  0  0  0  0  0  0  0  0  0
    6.3440   -3.4570   22.6230 C   0  0  0  0  0  0  0  0  0  0  0  0
    7.4180   -3.9170   23.6370 C   0  0  0  0  0  0  0  0  0  0  0  0
    7.0990   -5.1320   24.4660 C   0  0  0  0  0  0  0  0  0  0  0  0
    8.2390   -5.4900   25.4070 C   0  0  0  0  0  0  0  0  0  0  0  0
    9.4180   -4.8000   25.4870 C   0  0  0  0  0  0  0  0  0  0  0  0
    9.6660   -3.5400   24.5970 C   0  0  0  0  0  0  0  0  0  0  0  0
    8.6180   -3.2190   23.7530 C   0  0  0  0  0  0  0  0  0  0  0  0
    8.6110   -2.0500   22.8340 C   0  0  1  0  0  0  0  0  0  0  0  0
    9.7850   -1.0460   22.8690 C   0  0  0  0  0  0  0  0  0  0  0  0
   11.2020   -1.2830   22.4360 C   0  0  0  0  0  0  0  0  0  0  0  0
   12.1680   -0.3000   22.4700 C   0  0  0  0  0  0  0  0  0  0  0  0
   11.7780    1.0050   22.9370 C   0  0  0  0  0  0  0  0  0  0  0  0
   10.5160    1.2730   23.3720 C   0  0  0  0  0  0  0  0  0  0  0  0
    9.4990    0.1940   23.3260 C   0  0  0  0  0  0  0  0  0  0  0  0
   10.1290    2.6270   23.8720 C   0  0  0  0  0  0  0  0  0  0  0  0
   10.7680    3.5910   23.1010 C   0  0  1  0  0  0  0  0  0  0  0  0
   10.3270    5.2410   23.7040 S   0  0  0  0  0  0  0  0  0  0  0  0
    9.0100    5.6180   22.7110 N   0  0  0  0  0  0  0  0  0  0  0  0
   11.3310    6.2050   23.3170 O   0  0  0  0  0  0  0  0  0  0  0  0
    9.7080    5.2460   25.0170 O   0  0  0  0  0  0  0  0  0  0  0  0
   12.1440    3.4190   22.8150 C   0  0  0  0  0  0  0  0  0  0  0  0
   12.7210    2.1290   22.9650 C   0  0  0  0  0  0  0  0  0  0  0  0
    8.2810   -2.4510   21.4240 C   0  0  0  0  0  0  0  0  0  0  0  0
  1  2  1  0
  2  3  2  0
  2  4  1  0
  4  5  1  0
  5  6  1  0
  6  7  1  0
  7  8  2  0
  8  9  1  0
  9 10  2  0
  6 11  2  0
 10 11  1  0
 11 12  1  0
 12 13  1  6
 13 14  2  0
 14 15  1  0
 15 16  2  0
 16 17  1  0
 13 18  1  0
 17 18  2  0
 17 19  1  0
 19 20  1  0
 20 21  1  1
 21 22  1  0
 21 23  2  0
 21 24  2  0
 20 25  1  0
 16 26  1  0
 25 26  1  0
  4 27  1  0
 12 27  1  0
M  END
