DAV-CRI-e1c2b579-1
     RDKit          3D

 22 22  0  0  0  0  0  0  0  0999 V2000
    1.6180   -8.3310   22.0380 C   0  0  0  0  0  0  0  0  0  0  0  0
    1.4800   -6.8760   22.3750 C   0  0  0  0  0  0  0  0  0  0  0  0
    0.3570   -6.3790   22.3000 O   0  0  0  0  0  0  0  0  0  0  0  0
    2.5650   -6.1120   22.7280 N   0  0  0  0  0  0  0  0  0  0  0  0
    3.5170   -6.5950   23.6000 C   0  0  2  0  0  0  0  0  0  0  0  0
    2.8910   -6.6520   24.8200 C   0  0  0  0  0  0  0  0  0  0  0  0
    2.6690   -7.8580   25.4210 C   0  0  0  0  0  0  0  0  0  0  0  0
    1.7910   -7.8730   26.4570 N   0  0  0  0  0  0  0  0  0  0  0  0
    3.2160   -8.8750   25.0570 O   0  0  0  0  0  0  0  0  0  0  0  0
    4.9890   -5.9310   23.5130 C   0  0  1  0  0  0  0  0  0  0  0  0
    5.2010   -5.4150   22.1600 C   0  0  0  0  0  0  0  0  0  0  0  0
    6.4410   -4.8480   21.8970 N   0  0  0  0  0  0  0  0  0  0  0  0
    6.2410   -3.7440   21.1050 C   0  0  2  0  0  0  0  0  0  0  0  0
    5.3270   -4.0450   20.0420 O   0  0  0  0  0  0  0  0  0  0  0  0
    7.3460   -2.9840   20.6670 C   0  0  0  0  0  0  0  0  0  0  0  0
    7.6540   -1.5840   21.7200 Cl  0  0  0  0  0  0  0  0  0  0  0  0
    7.1640   -4.6210   23.0130 C   0  0  0  0  0  0  0  0  0  0  0  0
    6.2650   -4.1270   24.1500 C   0  0  0  0  0  0  0  0  0  0  0  0
    5.2490   -4.9710   24.5000 N   0  0  0  0  0  0  0  0  0  0  0  0
    5.3680   -5.4290   25.8910 C   0  0  1  0  0  0  0  0  0  0  0  0
    4.4930   -6.3680   26.3940 C   0  0  0  0  0  0  0  0  0  0  0  0
    6.5640   -5.9870   26.0810 O   0  0  0  0  0  0  0  0  0  0  0  0
  1  2  1  0
  2  3  2  0
  2  4  1  0
  4  5  1  0
  5  6  1  1
  6  7  1  0
  7  8  1  0
  7  9  2  0
  5 10  1  0
 10 11  1  6
 11 12  1  0
 12 13  1  0
 13 14  1  6
 13 15  1  0
 15 16  1  0
 12 17  1  0
 17 18  1  0
 10 19  1  0
 18 19  1  0
 19 20  1  0
 20 21  1  6
 20 22  1  0
M  END
