DAV-CRI-14a23e73-5-acrylamide
     RDKit          3D

 24 25  0  0  0  0  0  0  0  0999 V2000
    6.3840   -4.5350   20.2360 C   0  0  0  0  0  0  0  0  0  0  0  0
    5.9730   -4.7640   21.6800 C   0  0  0  0  0  0  0  0  0  0  0  0
    5.8160   -3.4490   22.3830 C   0  0  0  0  0  0  0  0  0  0  0  0
    4.6320   -3.5780   22.0790 O   0  0  0  0  0  0  0  0  0  0  0  0
    7.1680   -3.6800   22.5210 N   0  0  0  0  0  0  0  0  0  0  0  0
    7.7160   -3.8710   23.8370 C   0  0  2  0  0  0  0  0  0  0  0  0
    6.8770   -3.1870   24.7250 C   0  0  0  0  0  0  0  0  0  0  0  0
    9.1910   -3.4750   24.0510 C   0  0  0  0  0  0  0  0  0  0  0  0
   10.6370   -2.7980   23.8870 C   0  0  0  0  0  0  0  0  0  0  0  0
   11.1390   -1.7600   22.7970 C   0  0  0  0  0  0  0  0  0  0  0  0
   12.7520   -1.1380   22.7900 Cl  0  0  0  0  0  0  0  0  0  0  0  0
   10.1490   -1.3020   21.7120 C   0  0  0  0  0  0  0  0  0  0  0  0
    8.8690   -1.9620   21.8990 C   0  0  0  0  0  0  0  0  0  0  0  0
    7.6020   -1.8510   21.0730 C   0  0  0  0  0  0  0  0  0  0  0  0
    6.7660   -0.9410   21.7640 C   0  0  1  0  0  0  0  0  0  0  0  0
    7.5370   -0.4640   22.9120 C   0  0  0  0  0  0  0  0  0  0  0  0
    7.7720    0.8550   22.7090 C   0  0  0  0  0  0  0  0  0  0  0  0
    7.2550    1.6080   21.4610 C   0  0  0  0  0  0  0  0  0  0  0  0
    8.0360    2.9340   22.1990 S   0  0  0  0  0  0  0  0  0  0  0  0
    7.0370    4.2750   21.8860 N   0  0  0  0  0  0  0  0  0  0  0  0
    8.0110    2.8140   23.6440 O   0  0  0  0  0  0  0  0  0  0  0  0
    9.2670    3.0870   21.4710 O   0  0  0  0  0  0  0  0  0  0  0  0
    6.6430    0.2380   21.0330 C   0  0  0  0  0  0  0  0  0  0  0  0
    9.0840   -2.7010   22.9810 C   0  0  0  0  0  0  0  0  0  0  0  0
  1  2  1  0
  2  3  1  0
  3  4  2  0
  3  5  1  0
  5  6  1  0
  6  7  1  1
  6  8  1  0
  8  9  2  0
  9 10  1  0
 10 11  1  0
 10 12  2  0
 12 13  1  0
 13 14  1  0
 15 14  1  6
 15 16  1  0
 16 17  2  0
 17 18  1  0
 18 19  1  0
 19 20  1  0
 19 21  2  0
 19 22  2  0
 15 23  1  0
 18 23  2  0
  8 24  1  0
 13 24  2  0
M  END
