DAV-CRI-f4772df7-2-nitrile
     RDKit          3D

 32 36  0  0  0  0  0  0  0  0999 V2000
    6.9160   -3.5250   20.0150 C   0  0  0  0  0  0  0  0  0  0  0  0
    5.7840   -3.5300   19.4390 N   0  0  0  0  0  0  0  0  0  0  0  0
    7.1460   -3.0630   21.3520 N   0  0  0  0  0  0  0  0  0  0  0  0
    8.0660   -1.9030   21.5900 C   0  0  0  0  0  0  0  0  0  0  0  0
    9.3510   -2.3710   22.3280 C   0  0  1  0  0  0  0  0  0  0  0  0
   10.2650   -1.2430   22.8120 C   0  0  0  0  0  0  0  0  0  0  0  0
   11.6870   -1.3020   22.2940 C   0  0  0  0  0  0  0  0  0  0  0  0
   12.5780   -0.3040   22.6990 C   0  0  0  0  0  0  0  0  0  0  0  0
   12.1410    0.7090   23.5600 C   0  0  0  0  0  0  0  0  0  0  0  0
   10.8220    0.7530   24.0390 C   0  0  0  0  0  0  0  0  0  0  0  0
    9.8840   -0.2120   23.6740 C   0  0  0  0  0  0  0  0  0  0  0  0
    9.0260   -3.3340   23.4530 C   0  0  0  0  0  0  0  0  0  0  0  0
   10.0380   -3.5880   24.4070 C   0  0  0  0  0  0  0  0  0  0  0  0
    9.8260   -4.4700   25.4760 C   0  0  0  0  0  0  0  0  0  0  0  0
   10.8160   -4.6770   26.3450 F   0  0  0  0  0  0  0  0  0  0  0  0
    8.6130   -5.1190   25.6330 C   0  0  0  0  0  0  0  0  0  0  0  0
    7.5590   -4.8440   24.6290 C   0  0  0  0  0  0  0  0  0  0  0  0
    7.7670   -3.9660   23.5600 C   0  0  0  0  0  0  0  0  0  0  0  0
    6.7520   -3.7510   22.6520 C   0  0  1  0  0  0  0  0  0  0  0  0
    5.4360   -3.6540   23.1270 C   0  0  1  0  0  0  0  0  0  0  0  0
    4.6090   -4.5000   22.2950 C   0  0  0  0  0  0  0  0  0  0  0  0
    4.7460   -6.1270   22.9650 S   0  0  0  0  0  0  0  0  0  0  0  0
    6.0750   -6.6880   22.8590 O   0  0  0  0  0  0  0  0  0  0  0  0
    3.5420   -6.8460   22.6220 O   0  0  0  0  0  0  0  0  0  0  0  0
    4.4510   -5.5150   24.5730 C   0  0  0  0  0  0  0  0  0  0  0  0
    4.9530   -4.0430   24.5960 C   0  0  2  0  0  0  0  0  0  0  0  0
    3.9800   -3.1610   25.2680 N   0  0  0  0  0  0  0  0  0  0  0  0
    2.6120   -3.5660   25.5710 C   0  0  0  0  0  0  0  0  0  0  0  0
    2.0910   -2.5020   26.5320 C   0  0  0  0  0  0  0  0  0  0  0  0
    3.3350   -2.0090   27.2430 C   0  0  0  0  0  0  0  0  0  0  0  0
    4.4070   -2.2060   26.1890 C   0  0  0  0  0  0  0  0  0  0  0  0
    5.4730   -1.6210   26.1600 O   0  0  0  0  0  0  0  0  0  0  0  0
  1  2  2  3
  1  3  1  0
  3  4  1  0
  4  5  1  0
  5  6  1  1
  6  7  2  0
  7  8  1  0
  8  9  2  0
  9 10  1  0
  6 11  1  0
 10 11  2  0
  5 12  1  0
 12 13  1  0
 13 14  2  0
 14 15  1  0
 14 16  1  0
 16 17  2  0
 12 18  2  0
 17 18  1  0
 19  3  1  1
 18 19  1  0
 19 20  1  0
 20 21  1  6
 22 21  1  0
 22 23  2  0
 22 24  2  0
 22 25  1  0
 20 26  1  0
 25 26  1  0
 26 27  1  6
 27 28  1  0
 28 29  1  0
 29 30  1  0
 27 31  1  0
 30 31  1  0
 31 32  2  0
M  END
