DAV-CRI-d1e0885a-2-nitrile
     RDKit          3D

 20 21  0  0  0  0  0  0  0  0999 V2000
    6.6390   -4.1010   20.2740 C   0  0  0  0  0  0  0  0  0  0  0  0
    5.5370   -3.9300   19.6650 N   0  0  0  0  0  0  0  0  0  0  0  0
    6.8170   -3.6050   21.5490 N   0  0  0  0  0  0  0  0  0  0  0  0
    7.0440   -2.1660   21.7770 C   0  0  0  0  0  0  0  0  0  0  0  0
    8.4900   -1.9710   22.3210 C   0  0  0  0  0  0  0  0  0  0  0  0
    8.8210   -2.9100   23.4160 N   0  0  0  0  0  0  0  0  0  0  0  0
   10.2770   -2.9900   23.6360 C   0  0  0  0  0  0  0  0  0  0  0  0
   11.0940   -1.7090   23.5690 C   0  0  0  0  0  0  0  0  0  0  0  0
   12.2350   -1.6570   22.5110 C   0  0  0  0  0  0  0  0  0  0  0  0
   12.9930   -0.4940   22.4320 C   0  0  0  0  0  0  0  0  0  0  0  0
   11.9220   -0.3870   23.4230 N   0  0  0  0  0  0  0  0  0  0  0  0
   10.8500    0.4970   23.0580 C   0  0  0  0  0  0  0  0  0  0  0  0
   11.0860    1.8320   23.3520 C   0  0  0  0  0  0  0  0  0  0  0  0
   13.0590    0.7840   23.0690 N   0  0  0  0  0  0  0  0  0  0  0  0
   12.0440    0.5380   23.9130 C   0  0  0  0  0  0  0  0  0  0  0  0
   10.9620   -0.5440   24.3580 C   0  0  0  0  0  0  0  0  0  0  0  0
    9.9820   -0.2400   25.4710 C   0  0  0  0  0  0  0  0  0  0  0  0
    9.1980   -0.0210   26.2990 N   0  0  0  0  0  0  0  0  0  0  0  0
    8.2450   -4.2610   23.1390 C   0  0  0  0  0  0  0  0  0  0  0  0
    6.9140   -4.3230   22.6430 C   0  0  0  0  0  0  0  0  0  0  0  0
  1  2  2  3
  1  3  1  0
  3  4  1  0
  4  5  1  0
  5  6  1  0
  6  7  1  0
  7  8  1  0
  8  9  2  0
  9 10  1  0
 10 11  1  0
 11 12  1  0
 12 13  1  0
 10 14  2  0
 14 15  1  0
  8 16  1  0
 15 16  2  0
 16 17  1  0
 17 18  3  0
  6 19  1  0
  3 20  1  0
 19 20  1  0
M  END
