DAV-CRI-3edb475e-4-chloroacetamide
     RDKit          3D

 14 14  0  0  0  0  0  0  0  0999 V2000
    8.0870   -3.7060   19.6570 C   0  0  0  0  0  0  0  0  0  0  0  0
    7.1070   -2.8490   20.1450 C   0  0  0  0  0  0  0  0  0  0  0  0
    6.1530   -2.8420   19.2710 O   0  0  0  0  0  0  0  0  0  0  0  0
    7.3870   -2.3820   21.4890 N   0  0  0  0  0  0  0  0  0  0  0  0
    7.9660   -1.1230   22.0640 C   0  0  1  0  0  0  0  0  0  0  0  0
    7.2550   -0.8880   23.3980 C   0  0  0  0  0  0  0  0  0  0  0  0
    5.8930   -1.3220   23.3520 O   0  0  0  0  0  0  0  0  0  0  0  0
    9.4990   -0.9730   22.3690 C   0  0  0  0  0  0  0  0  0  0  0  0
    9.8900    0.0470   23.2780 C   0  0  0  0  0  0  0  0  0  0  0  0
   11.2320    0.3270   23.6350 C   0  0  0  0  0  0  0  0  0  0  0  0
   12.2260   -0.4420   23.0550 C   0  0  0  0  0  0  0  0  0  0  0  0
   11.9910   -1.5460   22.0910 C   0  0  0  0  0  0  0  0  0  0  0  0
   13.2200   -2.4660   21.3770 Cl  0  0  0  0  0  0  0  0  0  0  0  0
   10.5090   -1.7650   21.7910 C   0  0  0  0  0  0  0  0  0  0  0  0
  1  2  1  0
  2  3  2  0
  2  4  1  0
  4  5  1  0
  5  6  1  1
  6  7  1  0
  5  8  1  0
  8  9  2  0
  9 10  1  0
 10 11  2  0
 11 12  1  0
 12 13  1  0
  8 14  1  0
 12 14  2  0
M  END
