DAV-CRI-14a23e73-6-acrylamide
     RDKit          3D

 25 26  0  0  0  0  0  0  0  0999 V2000
    8.1550   -3.4210   19.5240 C   0  0  0  0  0  0  0  0  0  0  0  0
    7.2710   -2.2770   19.9810 C   0  0  0  0  0  0  0  0  0  0  0  0
    6.0070   -2.8010   20.5610 C   0  0  0  0  0  0  0  0  0  0  0  0
    4.9650   -3.1780   21.2300 O   0  0  0  0  0  0  0  0  0  0  0  0
    6.7200   -2.1120   21.6400 N   0  0  0  0  0  0  0  0  0  0  0  0
    7.9510   -2.5640   22.4260 C   0  0  2  0  0  0  0  0  0  0  0  0
    7.5330   -2.6950   23.8470 C   0  0  0  0  0  0  0  0  0  0  0  0
    9.2210   -1.6430   22.4490 C   0  0  0  0  0  0  0  0  0  0  0  0
   10.5570   -2.1350   22.3940 C   0  0  0  0  0  0  0  0  0  0  0  0
   11.6850   -1.2820   22.4320 C   0  0  0  0  0  0  0  0  0  0  0  0
   13.2460   -1.9670   22.3450 Cl  0  0  0  0  0  0  0  0  0  0  0  0
   11.5160    0.1890   22.5370 C   0  0  0  0  0  0  0  0  0  0  0  0
   10.0690    0.6620   22.5720 C   0  0  0  0  0  0  0  0  0  0  0  0
    9.7320    2.1320   22.6210 C   0  0  0  0  0  0  0  0  0  0  0  0
    8.9570    2.6810   21.5490 O   0  0  0  0  0  0  0  0  0  0  0  0
   10.1570    2.9580   23.6160 C   0  0  2  0  0  0  0  0  0  0  0  0
    9.6550    4.2740   23.5520 C   0  0  0  0  0  0  0  0  0  0  0  0
   10.5860    5.2170   23.1900 C   0  0  0  0  0  0  0  0  0  0  0  0
   11.7790    4.5720   22.9980 C   0  0  0  0  0  0  0  0  0  0  0  0
   13.2760    5.2210   22.5490 S   0  0  0  0  0  0  0  0  0  0  0  0
   13.1370    6.8630   22.8450 N   0  0  0  0  0  0  0  0  0  0  0  0
   13.5250    4.9800   21.1660 O   0  0  0  0  0  0  0  0  0  0  0  0
   14.2210    4.7500   23.5040 O   0  0  0  0  0  0  0  0  0  0  0  0
   11.6100    3.2290   23.2410 C   0  0  0  0  0  0  0  0  0  0  0  0
    9.0340   -0.2650   22.5360 C   0  0  0  0  0  0  0  0  0  0  0  0
  1  2  1  0
  2  3  1  0
  3  4  2  0
  3  5  1  0
  5  6  1  0
  6  7  1  1
  6  8  1  0
  8  9  2  0
  9 10  1  0
 10 11  1  0
 10 12  2  0
 12 13  1  0
 13 14  1  0
 14 15  2  0
 16 14  1  6
 16 17  1  0
 17 18  2  0
 18 19  1  0
 19 20  1  0
 20 21  1  0
 20 22  2  0
 20 23  2  0
 16 24  1  0
 19 24  2  0
  8 25  1  0
 13 25  2  0
M  END
