DAV-CRI-0207e898-1-vinylsulfonamide
     RDKit          3D

 24 26  0  0  0  0  0  0  0  0999 V2000
    7.7610   -2.9680   18.1560 C   0  0  0  0  0  0  0  0  0  0  0  0
    7.2190   -2.2320   19.3050 C   0  0  0  0  0  0  0  0  0  0  0  0
    6.2210   -3.2430   20.3550 S   0  0  0  0  0  0  0  0  0  0  0  0
    4.8230   -3.1270   20.0510 O   0  0  0  0  0  0  0  0  0  0  0  0
    6.7290   -4.5460   20.6410 O   0  0  0  0  0  0  0  0  0  0  0  0
    6.5990   -2.3710   21.7150 N   0  0  0  0  0  0  0  0  0  0  0  0
    7.4430   -1.1920   21.4810 C   0  0  0  0  0  0  0  0  0  0  0  0
    8.7820   -1.4530   21.7820 C   0  0  0  0  0  0  0  0  0  0  0  0
    9.0000   -1.7520   23.2320 N   0  0  0  0  0  0  0  0  0  0  0  0
   10.3710   -2.2090   23.4740 C   0  0  0  0  0  0  0  0  0  0  0  0
   11.2430   -1.0190   23.4290 C   0  0  0  0  0  0  0  0  0  0  0  0
   12.5830   -1.0100   22.7370 C   0  0  0  0  0  0  0  0  0  0  0  0
   13.2030    0.3270   22.8330 C   0  0  0  0  0  0  0  0  0  0  0  0
   12.2580    1.2170   23.5990 C   0  0  0  0  0  0  0  0  0  0  0  0
   10.8060    0.4830   24.1420 S   0  0  0  0  0  0  0  0  0  0  0  0
    8.0740   -2.7680   23.6810 C   0  0  0  0  0  0  0  0  0  0  0  0
    7.1180   -3.3250   22.6860 C   0  0  1  0  0  0  0  0  0  0  0  0
    6.0340   -3.7230   23.4180 C   0  0  1  0  0  0  0  0  0  0  0  0
    5.2520   -2.4740   23.7370 C   0  0  0  0  0  0  0  0  0  0  0  0
    4.1710   -2.6750   24.5780 C   0  0  0  0  0  0  0  0  0  0  0  0
    3.5240   -4.0670   24.6280 C   0  0  0  0  0  0  0  0  0  0  0  0
    4.0410   -4.9750   23.6140 N   0  0  0  0  0  0  0  0  0  0  0  0
    5.2570   -4.6910   22.8760 C   0  0  2  0  0  0  0  0  0  0  0  0
    6.1030   -6.2180   22.5490 Cl  0  0  0  0  0  0  0  0  0  0  0  0
  1  2  1  0
  3  2  1  0
  3  4  2  0
  3  5  2  0
  3  6  1  0
  6  7  1  0
  7  8  1  0
  8  9  1  0
  9 10  1  0
 10 11  1  0
 11 12  2  0
 12 13  1  0
 13 14  2  0
 11 15  1  0
 14 15  1  0
  9 16  1  0
  6 17  1  0
 17 16  1  1
 17 18  1  0
 18 19  1  6
 19 20  1  0
 20 21  1  0
 21 22  1  0
 18 23  1  0
 22 23  1  0
 23 24  1  1
M  END
