DAV-CRI-3edb475e-1-acrylamide
     RDKit          3D

 15 15  0  0  0  0  0  0  0  0999 V2000
    8.0730   -3.7530   20.2280 C   0  0  0  0  0  0  0  0  0  0  0  0
    6.8560   -2.9260   20.0050 C   0  0  0  0  0  0  0  0  0  0  0  0
    6.2270   -2.9510   21.3830 C   0  0  0  0  0  0  0  0  0  0  0  0
    5.0880   -3.2700   20.8170 O   0  0  0  0  0  0  0  0  0  0  0  0
    7.6090   -2.6170   21.6490 N   0  0  0  0  0  0  0  0  0  0  0  0
    8.0060   -1.5360   22.5980 C   0  0  1  0  0  0  0  0  0  0  0  0
    7.5090   -1.8540   23.9660 C   0  0  0  0  0  0  0  0  0  0  0  0
    9.5150   -1.1800   22.6780 C   0  0  0  0  0  0  0  0  0  0  0  0
    9.8940   -0.0870   23.4920 C   0  0  0  0  0  0  0  0  0  0  0  0
   11.2400    0.3170   23.6300 C   0  0  0  0  0  0  0  0  0  0  0  0
   12.3580   -0.3750   22.9330 C   0  0  0  0  0  0  0  0  0  0  0  0
   13.6600    0.1360   23.1580 O   0  0  0  0  0  0  0  0  0  0  0  0
   11.9920   -1.5520   22.0590 C   0  0  0  0  0  0  0  0  0  0  0  0
   13.1580   -2.4520   21.2000 Cl  0  0  0  0  0  0  0  0  0  0  0  0
   10.5070   -1.9000   21.9780 C   0  0  0  0  0  0  0  0  0  0  0  0
  1  2  1  0
  2  3  1  0
  3  4  2  0
  3  5  1  0
  5  6  1  0
  6  7  1  1
  6  8  1  0
  8  9  2  0
  9 10  1  0
 10 11  2  0
 11 12  1  0
 11 13  1  0
 13 14  1  0
  8 15  1  0
 13 15  2  0
M  END
