DAV-CRI-f4772df7-6-chloroacetamide
     RDKit          3D

 34 38  0  0  0  0  0  0  0  0999 V2000
    7.2700   -2.9920   18.9060 C   0  0  0  0  0  0  0  0  0  0  0  0
    6.3960   -3.3730   20.0870 C   0  0  0  0  0  0  0  0  0  0  0  0
    5.4790   -4.1900   19.8400 O   0  0  0  0  0  0  0  0  0  0  0  0
    6.6850   -2.8200   21.3760 N   0  0  0  0  0  0  0  0  0  0  0  0
    7.8050   -1.8100   21.5160 C   0  0  0  0  0  0  0  0  0  0  0  0
    8.0580   -0.9960   20.6260 O   0  0  0  0  0  0  0  0  0  0  0  0
    8.6010   -1.8000   22.8440 C   0  0  2  0  0  0  0  0  0  0  0  0
    9.9520   -1.0660   22.9480 C   0  0  0  0  0  0  0  0  0  0  0  0
    9.9950    0.1080   23.7170 C   0  0  0  0  0  0  0  0  0  0  0  0
   11.1710    0.8310   23.8750 C   0  0  0  0  0  0  0  0  0  0  0  0
   12.3410    0.3980   23.2690 C   0  0  0  0  0  0  0  0  0  0  0  0
   12.3330   -0.7650   22.5020 C   0  0  0  0  0  0  0  0  0  0  0  0
   11.1470   -1.5020   22.3340 C   0  0  0  0  0  0  0  0  0  0  0  0
    8.5430   -3.0390   23.6540 C   0  0  0  0  0  0  0  0  0  0  0  0
    9.5740   -3.2980   24.5550 C   0  0  0  0  0  0  0  0  0  0  0  0
    9.5500   -4.4360   25.3430 C   0  0  0  0  0  0  0  0  0  0  0  0
   10.6590   -4.6880   26.2630 C   0  0  0  0  0  0  0  0  0  0  0  0
    8.4960   -5.3220   25.2530 C   0  0  0  0  0  0  0  0  0  0  0  0
    7.5120   -5.0210   24.3440 C   0  0  0  0  0  0  0  0  0  0  0  0
    7.4850   -3.9170   23.5250 C   0  0  0  0  0  0  0  0  0  0  0  0
    6.3650   -3.7240   22.5480 C   0  0  1  0  0  0  0  0  0  0  0  0
    4.8430   -3.7950   23.0090 C   0  0  1  0  0  0  0  0  0  0  0  0
    4.4090   -5.1140   22.3940 C   0  0  0  0  0  0  0  0  0  0  0  0
    4.8210   -6.4490   23.4780 S   0  0  0  0  0  0  0  0  0  0  0  0
    6.1010   -6.9690   23.0470 O   0  0  0  0  0  0  0  0  0  0  0  0
    3.6540   -7.2870   23.6710 O   0  0  0  0  0  0  0  0  0  0  0  0
    4.9580   -5.4210   24.9080 C   0  0  0  0  0  0  0  0  0  0  0  0
    4.2490   -4.1880   24.4010 C   0  0  1  0  0  0  0  0  0  0  0  0
    3.7650   -3.2180   25.3980 N   0  0  0  0  0  0  0  0  0  0  0  0
    2.4060   -3.3800   25.8860 C   0  0  0  0  0  0  0  0  0  0  0  0
    2.1780   -2.2020   26.8020 C   0  0  0  0  0  0  0  0  0  0  0  0
    3.5720   -1.8740   27.3030 C   0  0  0  0  0  0  0  0  0  0  0  0
    4.4430   -2.2540   26.1310 C   0  0  0  0  0  0  0  0  0  0  0  0
    5.5300   -1.7710   25.8920 O   0  0  0  0  0  0  0  0  0  0  0  0
  1  2  1  0
  2  3  2  0
  2  4  1  0
  4  5  1  0
  5  6  2  0
  5  7  1  0
  7  8  1  6
  8  9  2  0
  9 10  1  0
 10 11  2  0
 11 12  1  0
  8 13  1  0
 12 13  2  0
  7 14  1  0
 14 15  1  0
 15 16  2  0
 16 17  1  0
 16 18  1  0
 18 19  2  0
 14 20  2  0
 19 20  1  0
 21  4  1  1
 20 21  1  0
 21 22  1  0
 22 23  1  6
 24 23  1  0
 24 25  2  0
 24 26  2  0
 24 27  1  0
 22 28  1  0
 27 28  1  0
 28 29  1  1
 29 30  1  0
 30 31  1  0
 31 32  1  0
 29 33  1  0
 32 33  1  0
 33 34  2  0
M  END
