DAV-CRI-25b90884-4-vinylsulfonamide
     RDKit          3D

 29 30  0  0  0  0  0  0  0  0999 V2000
    8.3800   -3.5950   20.2550 C   0  0  0  0  0  0  0  0  0  0  0  0
    7.4410   -2.4510   20.0430 C   0  0  0  0  0  0  0  0  0  0  0  0
    6.1850   -2.5230   21.2840 S   0  0  0  0  0  0  0  0  0  0  0  0
    5.2120   -3.6790   21.1080 O   0  0  0  0  0  0  0  0  0  0  0  0
    5.6440   -1.1980   21.3780 O   0  0  0  0  0  0  0  0  0  0  0  0
    7.2810   -2.6230   22.5880 N   0  0  0  0  0  0  0  0  0  0  0  0
    7.3060   -1.4140   23.4110 C   0  0  2  0  0  0  0  0  0  0  0  0
    8.1550   -0.2860   22.9990 N   0  0  0  0  0  0  0  0  0  0  0  0
    7.6640    1.0490   22.9540 C   0  0  0  0  0  0  0  0  0  0  0  0
    8.4650    1.9750   23.0170 O   0  0  0  0  0  0  0  0  0  0  0  0
    6.2060    1.3970   22.7750 C   0  0  2  0  0  0  0  0  0  0  0  0
    5.2110    0.6260   23.5320 N   0  0  0  0  0  0  0  0  0  0  0  0
    5.0720    0.7900   24.8930 C   0  0  0  0  0  0  0  0  0  0  0  0
    4.8450   -0.4000   25.5860 C   0  0  0  0  0  0  0  0  0  0  0  0
    5.1250    1.8800   25.4570 O   0  0  0  0  0  0  0  0  0  0  0  0
    6.0140    1.2220   21.2540 C   0  0  0  0  0  0  0  0  0  0  0  0
    4.8050    1.8850   20.6640 C   0  0  0  0  0  0  0  0  0  0  0  0
    4.6450    1.7070   19.1580 C   0  0  0  0  0  0  0  0  0  0  0  0
    5.6920    0.8950   18.4030 C   0  0  0  0  0  0  0  0  0  0  0  0
    5.6180    0.7050   17.0910 O   0  0  0  0  0  0  0  0  0  0  0  0
    6.7530    0.3410   19.1060 C   0  0  0  0  0  0  0  0  0  0  0  0
    6.9140    0.4950   20.4700 C   0  0  0  0  0  0  0  0  0  0  0  0
    7.5380   -1.8060   24.8530 C   0  0  0  0  0  0  0  0  0  0  0  0
    7.3150   -3.0910   25.3270 C   0  0  0  0  0  0  0  0  0  0  0  0
    7.4870   -3.5240   26.6340 C   0  0  0  0  0  0  0  0  0  0  0  0
    7.9220   -2.6540   27.6430 C   0  0  0  0  0  0  0  0  0  0  0  0
    8.2130   -1.1910   27.2320 C   0  0  0  0  0  0  0  0  0  0  0  0
    8.7590   -0.0120   28.3610 Cl  0  0  0  0  0  0  0  0  0  0  0  0
    7.9830   -0.8610   25.7720 C   0  0  0  0  0  0  0  0  0  0  0  0
  1  2  1  0
  2  3  1  0
  3  4  2  0
  3  5  2  0
  3  6  1  0
  7  6  1  6
  7  8  1  0
  8  9  1  0
  9 10  2  0
  9 11  1  0
 11 12  1  1
 12 13  1  0
 13 14  1  0
 13 15  2  0
 11 16  1  0
 16 17  2  0
 17 18  1  0
 18 19  2  0
 19 20  1  0
 19 21  1  0
 16 22  1  0
 21 22  2  0
  7 23  1  0
 23 24  2  0
 24 25  1  0
 25 26  2  0
 26 27  1  0
 27 28  1  0
 23 29  1  0
 27 29  2  0
M  END
