DAV-CRI-de95a6f4-1
     RDKit          3D

 26 28  0  0  0  0  0  0  0  0999 V2000
   10.0160    6.8100   22.2540 N   0  0  0  0  0  0  0  0  0  0  0  0
    8.9410    5.9600   23.2590 S   0  0  0  0  0  0  0  0  0  0  0  0
    8.9170    6.6560   24.5250 O   0  0  0  0  0  0  0  0  0  0  0  0
    7.7390    5.7310   22.4810 O   0  0  0  0  0  0  0  0  0  0  0  0
    9.8010    4.4230   23.4640 C   0  0  0  0  0  0  0  0  0  0  0  0
    9.1330    3.3520   24.2510 C   0  0  0  0  0  0  0  0  0  0  0  0
    9.8300    2.0430   24.4680 C   0  0  0  0  0  0  0  0  0  0  0  0
   11.2100    1.8430   23.8750 C   0  0  0  0  0  0  0  0  0  0  0  0
   11.9310    0.5070   24.1400 C   0  0  2  0  0  0  0  0  0  0  0  0
   12.4950   -0.1150   22.8790 C   0  0  0  0  0  0  0  0  0  0  0  0
   11.6000   -1.2960   22.5100 C   0  0  0  0  0  0  0  0  0  0  0  0
   10.9880   -1.8490   23.7560 C   0  0  2  0  0  0  0  0  0  0  0  0
    9.8350   -2.6260   23.7270 C   0  0  0  0  0  0  0  0  0  0  0  0
    8.6370   -2.0680   23.0330 N   0  0  0  0  0  0  0  0  0  0  0  0
    8.8930   -1.5440   21.6810 C   0  0  0  0  0  0  0  0  0  0  0  0
    7.6840   -1.2820   21.0670 C   0  0  0  0  0  0  0  0  0  0  0  0
    7.0410   -2.4930   20.7630 N   0  0  0  0  0  0  0  0  0  0  0  0
    5.9460   -2.6720   19.9340 C   0  0  2  0  0  0  0  0  0  0  0  0
    5.4520   -3.9210   19.6300 O   0  0  0  0  0  0  0  0  0  0  0  0
    6.2880   -2.0670   18.7050 C   0  0  0  0  0  0  0  0  0  0  0  0
    5.5470   -0.4460   18.5300 Cl  0  0  0  0  0  0  0  0  0  0  0  0
    6.7500   -3.1690   21.9060 C   0  0  0  0  0  0  0  0  0  0  0  0
    7.6310   -3.1630   22.9850 C   0  0  0  0  0  0  0  0  0  0  0  0
   10.5590   -0.5690   24.7680 S   0  0  0  0  0  0  0  0  0  0  0  0
   11.8250    2.9950   23.0580 C   0  0  0  0  0  0  0  0  0  0  0  0
   11.0860    4.1940   22.9120 C   0  0  0  0  0  0  0  0  0  0  0  0
  2  1  1  0
  2  3  2  0
  2  4  2  0
  2  5  1  0
  5  6  2  0
  6  7  1  0
  7  8  2  0
  9  8  1  6
  9 10  1  0
 10 11  1  0
 11 12  1  0
 12 13  1  6
 13 14  1  0
 14 15  1  0
 15 16  1  0
 16 17  1  0
 17 18  1  0
 18 19  1  6
 18 20  1  0
 20 21  1  0
 17 22  1  0
 14 23  1  0
 22 23  1  0
  9 24  1  0
 12 24  1  0
  8 25  1  0
  5 26  1  0
 25 26  2  0
M  END
