DAV-CRI-f4772df7-1-chloroacetamide
     RDKit          3D

 33 37  0  0  0  0  0  0  0  0999 V2000
    7.3170   -3.0500   18.9360 C   0  0  0  0  0  0  0  0  0  0  0  0
    6.4930   -3.4730   20.1490 C   0  0  0  0  0  0  0  0  0  0  0  0
    5.5770   -4.3020   19.9180 O   0  0  0  0  0  0  0  0  0  0  0  0
    6.8880   -2.8770   21.4040 N   0  0  0  0  0  0  0  0  0  0  0  0
    8.1480   -2.0430   21.4410 C   0  0  0  0  0  0  0  0  0  0  0  0
    8.6890   -1.7450   22.8480 C   0  0  2  0  0  0  0  0  0  0  0  0
   10.0490   -1.0500   22.9440 C   0  0  0  0  0  0  0  0  0  0  0  0
   11.2510   -1.4620   22.3330 C   0  0  0  0  0  0  0  0  0  0  0  0
   12.4250   -0.7160   22.5190 C   0  0  0  0  0  0  0  0  0  0  0  0
   12.4040    0.4360   23.3050 C   0  0  0  0  0  0  0  0  0  0  0  0
   11.2240    0.8430   23.9080 C   0  0  0  0  0  0  0  0  0  0  0  0
   10.0620    0.1090   23.7330 C   0  0  0  0  0  0  0  0  0  0  0  0
    8.5640   -2.9310   23.7370 C   0  0  0  0  0  0  0  0  0  0  0  0
    9.6020   -3.3390   24.5620 C   0  0  0  0  0  0  0  0  0  0  0  0
    9.4280   -4.4420   25.3790 C   0  0  0  0  0  0  0  0  0  0  0  0
   10.5200   -4.8840   26.2500 C   0  0  0  0  0  0  0  0  0  0  0  0
    8.2210   -5.1280   25.3670 C   0  0  0  0  0  0  0  0  0  0  0  0
    7.1950   -4.7140   24.5350 C   0  0  0  0  0  0  0  0  0  0  0  0
    7.3660   -3.6030   23.7080 C   0  0  0  0  0  0  0  0  0  0  0  0
    6.2750   -3.1210   22.7880 C   0  0  2  0  0  0  0  0  0  0  0  0
    4.9700   -3.9770   22.9840 C   0  0  1  0  0  0  0  0  0  0  0  0
    5.1930   -5.4010   22.4590 C   0  0  0  0  0  0  0  0  0  0  0  0
    4.0610   -6.4950   23.2970 S   0  0  0  0  0  0  0  0  0  0  0  0
    2.7820   -6.5910   22.6330 O   0  0  0  0  0  0  0  0  0  0  0  0
    4.7610   -7.6640   23.8010 O   0  0  0  0  0  0  0  0  0  0  0  0
    3.8420   -5.5070   24.7040 C   0  0  0  0  0  0  0  0  0  0  0  0
    4.4860   -4.1480   24.4800 C   0  0  2  0  0  0  0  0  0  0  0  0
    3.6860   -3.0940   25.1380 N   0  0  0  0  0  0  0  0  0  0  0  0
    2.3430   -3.4290   25.5910 C   0  0  0  0  0  0  0  0  0  0  0  0
    1.9660   -2.3460   26.5770 C   0  0  0  0  0  0  0  0  0  0  0  0
    3.2960   -1.9530   27.1810 C   0  0  0  0  0  0  0  0  0  0  0  0
    4.2500   -2.1830   26.0360 C   0  0  0  0  0  0  0  0  0  0  0  0
    5.3380   -1.6500   25.9370 O   0  0  0  0  0  0  0  0  0  0  0  0
  1  2  1  0
  2  3  2  0
  2  4  1  0
  4  5  1  0
  5  6  1  0
  6  7  1  6
  7  8  2  0
  8  9  1  0
  9 10  2  0
 10 11  1  0
  7 12  1  0
 11 12  2  0
  6 13  1  0
 13 14  1  0
 14 15  2  0
 15 16  1  0
 15 17  1  0
 17 18  2  0
 13 19  2  0
 18 19  1  0
 20  4  1  6
 19 20  1  0
 20 21  1  0
 21 22  1  1
 23 22  1  0
 23 24  2  0
 23 25  2  0
 23 26  1  0
 21 27  1  0
 26 27  1  0
 27 28  1  6
 28 29  1  0
 29 30  1  0
 30 31  1  0
 28 32  1  0
 31 32  1  0
 32 33  2  0
M  END
