DAV-CRI-d1e0885a-3-chloroacetamide
     RDKit          3D

 21 22  0  0  0  0  0  0  0  0999 V2000
    7.1980   -2.9610   18.7500 C   0  0  0  0  0  0  0  0  0  0  0  0
    6.2630   -3.2620   19.8860 C   0  0  0  0  0  0  0  0  0  0  0  0
    5.3910   -4.1270   19.7320 O   0  0  0  0  0  0  0  0  0  0  0  0
    6.4280   -2.5780   21.0850 N   0  0  0  0  0  0  0  0  0  0  0  0
    7.2180   -1.3520   21.1640 C   0  0  0  0  0  0  0  0  0  0  0  0
    8.5750   -1.6000   21.8260 C   0  0  0  0  0  0  0  0  0  0  0  0
    8.5620   -2.5360   22.9870 N   0  0  0  0  0  0  0  0  0  0  0  0
    9.9670   -2.8130   23.3460 C   0  0  0  0  0  0  0  0  0  0  0  0
   10.6420   -1.4820   23.5020 C   0  0  0  0  0  0  0  0  0  0  0  0
   11.8280   -0.9820   22.8380 C   0  0  0  0  0  0  0  0  0  0  0  0
   12.2650    0.5350   23.2040 C   0  0  0  0  0  0  0  0  0  0  0  0
   13.3470    1.1930   22.6420 N   0  0  0  0  0  0  0  0  0  0  0  0
   13.1150    2.6860   22.5540 C   0  0  0  0  0  0  0  0  0  0  0  0
   12.3500    3.2030   21.7490 O   0  0  0  0  0  0  0  0  0  0  0  0
   11.6690    1.3260   24.0280 N   0  0  0  0  0  0  0  0  0  0  0  0
   10.7100    0.6410   24.4460 C   0  0  0  0  0  0  0  0  0  0  0  0
    9.9940   -0.6450   24.3900 C   0  0  0  0  0  0  0  0  0  0  0  0
    8.7530   -0.7930   25.2400 C   0  0  0  0  0  0  0  0  0  0  0  0
    7.7820   -0.8440   25.8810 N   0  0  0  0  0  0  0  0  0  0  0  0
    7.8510   -3.6110   22.7180 C   0  0  0  0  0  0  0  0  0  0  0  0
    6.5060   -3.2930   22.3570 C   0  0  0  0  0  0  0  0  0  0  0  0
  1  2  1  0
  2  3  2  0
  2  4  1  0
  4  5  1  0
  5  6  1  0
  6  7  1  0
  7  8  1  0
  8  9  1  0
  9 10  2  0
 10 11  1  0
 11 12  1  0
 12 13  1  0
 13 14  1  0
 11 15  2  0
 15 16  1  0
  9 17  1  0
 16 17  2  0
 17 18  1  0
 18 19  3  0
  7 20  1  0
  4 21  1  0
 20 21  1  0
M  END
