DAV-CRI-14a23e73-5-acrylamide
     RDKit          3D

 24 25  0  0  0  0  0  0  0  0999 V2000
    8.2150   -3.6330   19.5080 C   0  0  0  0  0  0  0  0  0  0  0  0
    7.2640   -2.5610   19.7050 C   0  0  0  0  0  0  0  0  0  0  0  0
    6.6370   -3.0360   20.9730 C   0  0  0  0  0  0  0  0  0  0  0  0
    5.2860   -3.5880   20.9560 O   0  0  0  0  0  0  0  0  0  0  0  0
    7.7710   -2.8360   22.0410 N   0  0  0  0  0  0  0  0  0  0  0  0
    8.9460   -1.7050   22.2070 C   0  0  2  0  0  0  0  0  0  0  0  0
    8.8880   -0.6220   21.1210 C   0  0  0  0  0  0  0  0  0  0  0  0
   10.6230   -1.9170   22.4190 C   0  0  0  0  0  0  0  0  0  0  0  0
   12.0590   -2.1350   22.6890 C   0  0  0  0  0  0  0  0  0  0  0  0
   11.8870   -1.5790   21.5800 C   0  0  0  0  0  0  0  0  0  0  0  0
   13.4550   -1.2160   20.8240 Cl  0  0  0  0  0  0  0  0  0  0  0  0
   10.3110   -1.4430   21.4360 C   0  0  0  0  0  0  0  0  0  0  0  0
    9.3980   -2.0360   22.6870 C   0  0  0  0  0  0  0  0  0  0  0  0
    7.8350   -2.1030   22.7190 C   0  0  0  0  0  0  0  0  0  0  0  0
    7.1350   -0.9560   22.3950 C   0  0  1  0  0  0  0  0  0  0  0  0
    7.7320    0.3290   22.3410 C   0  0  0  0  0  0  0  0  0  0  0  0
    7.5280    0.9900   21.1290 C   0  0  0  0  0  0  0  0  0  0  0  0
    6.8510    0.1320   20.2400 C   0  0  0  0  0  0  0  0  0  0  0  0
    6.4520    0.4010   18.6670 S   0  0  0  0  0  0  0  0  0  0  0  0
    5.1570    1.4660   18.6210 N   0  0  0  0  0  0  0  0  0  0  0  0
    5.9090   -0.7350   18.0540 O   0  0  0  0  0  0  0  0  0  0  0  0
    7.6950    0.9340   18.0760 O   0  0  0  0  0  0  0  0  0  0  0  0
    6.6750   -1.1180   20.9340 C   0  0  0  0  0  0  0  0  0  0  0  0
   10.2240   -2.3850   23.5670 C   0  0  0  0  0  0  0  0  0  0  0  0
  1  2  1  0
  2  3  1  0
  3  4  2  0
  3  5  1  0
  5  6  1  0
  6  7  1  6
  6  8  1  0
  8  9  2  0
  9 10  1  0
 10 11  1  0
 10 12  2  0
 12 13  1  0
 13 14  1  0
 15 14  1  6
 15 16  1  0
 16 17  2  0
 17 18  1  0
 18 19  1  0
 19 20  1  0
 19 21  2  0
 19 22  2  0
 15 23  1  0
 18 23  2  0
  8 24  1  0
 13 24  2  0
M  END
