DAV-CRI-14a23e73-6-chloroacetamide
     RDKit          3D

 24 25  0  0  0  0  0  0  0  0999 V2000
    7.6740   -4.7160   20.6820 C   0  0  0  0  0  0  0  0  0  0  0  0
    6.3370   -4.0310   20.7590 C   0  0  0  0  0  0  0  0  0  0  0  0
    5.5230   -4.0700   19.8100 O   0  0  0  0  0  0  0  0  0  0  0  0
    6.1180   -3.3730   21.9540 N   0  0  0  0  0  0  0  0  0  0  0  0
    6.9120   -3.6590   23.1780 C   0  0  2  0  0  0  0  0  0  0  0  0
    6.8950   -2.6730   24.1970 C   0  0  0  0  0  0  0  0  0  0  0  0
    8.3330   -3.9670   22.8180 C   0  0  0  0  0  0  0  0  0  0  0  0
    7.7050   -5.0060   23.6950 C   0  0  0  0  0  0  0  0  0  0  0  0
    6.2400   -4.6130   24.0280 C   0  0  0  0  0  0  0  0  0  0  0  0
    5.1620   -5.5310   25.0160 Cl  0  0  0  0  0  0  0  0  0  0  0  0
    5.7040   -3.2580   23.4080 C   0  0  0  0  0  0  0  0  0  0  0  0
    6.5210   -2.2650   22.4800 C   0  0  0  0  0  0  0  0  0  0  0  0
    5.8910   -0.9650   21.9070 C   0  0  0  0  0  0  0  0  0  0  0  0
    5.4480   -0.8700   20.7550 O   0  0  0  0  0  0  0  0  0  0  0  0
    5.8040    0.2690   22.8130 C   0  0  2  0  0  0  0  0  0  0  0  0
    5.9750   -0.0690   24.1790 C   0  0  0  0  0  0  0  0  0  0  0  0
    4.9150    0.2290   25.2810 C   0  0  0  0  0  0  0  0  0  0  0  0
    4.1030    0.8210   24.2600 C   0  0  0  0  0  0  0  0  0  0  0  0
    2.5450    1.5130   24.4950 S   0  0  0  0  0  0  0  0  0  0  0  0
    2.5360    2.0130   26.1230 N   0  0  0  0  0  0  0  0  0  0  0  0
    1.5790    0.4480   24.3340 O   0  0  0  0  0  0  0  0  0  0  0  0
    2.4550    2.7400   23.7290 O   0  0  0  0  0  0  0  0  0  0  0  0
    4.6030    0.8600   22.8450 C   0  0  0  0  0  0  0  0  0  0  0  0
    7.9760   -2.6590   22.1580 C   0  0  0  0  0  0  0  0  0  0  0  0
  1  2  1  0
  2  3  2  0
  2  4  1  0
  4  5  1  0
  5  6  1  1
  5  7  1  0
  7  8  2  0
  8  9  1  0
  9 10  1  0
  9 11  2  0
 11 12  1  0
 12 13  1  0
 13 14  2  0
 15 13  1  6
 15 16  1  0
 16 17  2  0
 17 18  1  0
 18 19  1  0
 19 20  1  0
 19 21  2  0
 19 22  2  0
 15 23  1  0
 18 23  2  0
  7 24  1  0
 12 24  2  0
M  END
