DAV-CRI-d1e0885a-4-vinylsulfonamide
     RDKit          3D

 22 23  0  0  0  0  0  0  0  0999 V2000
    7.4750   -2.8720   18.7930 C   0  0  0  0  0  0  0  0  0  0  0  0
    6.0010   -2.5470   19.0940 C   0  0  0  0  0  0  0  0  0  0  0  0
    5.5480   -3.3920   20.5960 S   0  0  0  0  0  0  0  0  0  0  0  0
    4.5470   -2.8370   21.4010 O   0  0  0  0  0  0  0  0  0  0  0  0
    5.3510   -4.7800   20.2460 O   0  0  0  0  0  0  0  0  0  0  0  0
    6.8820   -3.0000   21.5220 N   0  0  0  0  0  0  0  0  0  0  0  0
    7.4580   -1.6740   21.3420 C   0  0  0  0  0  0  0  0  0  0  0  0
    8.7670   -1.5980   22.1060 C   0  0  0  0  0  0  0  0  0  0  0  0
    8.7430   -2.3110   23.4200 N   0  0  0  0  0  0  0  0  0  0  0  0
   10.1200   -2.5170   23.8610 C   0  0  0  0  0  0  0  0  0  0  0  0
   10.9830   -1.2810   23.6500 C   0  0  0  0  0  0  0  0  0  0  0  0
   12.0750   -1.1620   22.8340 C   0  0  0  0  0  0  0  0  0  0  0  0
   12.4730   -2.4140   22.0360 C   0  0  0  0  0  0  0  0  0  0  0  0
   13.2120   -2.0520   20.8760 N   0  0  0  0  0  0  0  0  0  0  0  0
   12.7470    0.0450   22.7790 C   0  0  0  0  0  0  0  0  0  0  0  0
   11.9530    1.1180   23.8110 S   0  0  0  0  0  0  0  0  0  0  0  0
   10.7840   -0.0670   24.2830 C   0  0  0  0  0  0  0  0  0  0  0  0
    9.8120    0.2530   25.1830 N   0  0  0  0  0  0  0  0  0  0  0  0
    9.1070   -0.5770   25.9800 C   0  0  0  0  0  0  0  0  0  0  0  0
    8.8830   -0.2220   27.4290 C   0  0  0  0  0  0  0  0  0  0  0  0
    8.1230   -3.4800   23.3690 C   0  0  0  0  0  0  0  0  0  0  0  0
    6.7920   -3.3640   22.9060 C   0  0  0  0  0  0  0  0  0  0  0  0
  1  2  1  0
  3  2  1  0
  3  4  2  0
  3  5  2  0
  3  6  1  0
  6  7  1  0
  7  8  1  0
  8  9  1  0
  9 10  1  0
 10 11  1  0
 11 12  1  0
 12 13  1  0
 13 14  3  0
 12 15  2  0
 15 16  1  0
 11 17  2  0
 16 17  1  0
 17 18  1  0
 18 19  1  0
 19 20  1  0
  9 21  1  0
  6 22  1  0
 21 22  1  0
M  END
