DAV-CRI-3fe943ba-2-vinylsulfonamide
     RDKit          3D

 29 32  0  0  0  0  0  0  0  0999 V2000
    7.4540   -3.2300   18.7180 C   0  0  0  0  0  0  0  0  0  0  0  0
    7.3430   -2.4130   19.9380 C   0  0  0  0  0  0  0  0  0  0  0  0
    6.1110   -3.2370   20.9310 S   0  0  0  0  0  0  0  0  0  0  0  0
    4.9150   -3.2120   20.1680 O   0  0  0  0  0  0  0  0  0  0  0  0
    6.5270   -4.4420   21.6280 O   0  0  0  0  0  0  0  0  0  0  0  0
    6.1050   -2.2140   22.1890 N   0  0  0  0  0  0  0  0  0  0  0  0
    5.7900   -2.9810   23.3850 C   0  0  0  0  0  0  0  0  0  0  0  0
    7.0210   -3.6050   24.0690 C   0  0  0  0  0  0  0  0  0  0  0  0
    6.7320   -4.4290   25.2760 C   0  0  0  0  0  0  0  0  0  0  0  0
    7.9020   -5.0560   25.9960 C   0  0  0  0  0  0  0  0  0  0  0  0
    9.2040   -4.8880   25.5780 C   0  0  0  0  0  0  0  0  0  0  0  0
    9.4440   -4.0000   24.2910 C   0  0  0  0  0  0  0  0  0  0  0  0
    8.3390   -3.4510   23.6480 C   0  0  0  0  0  0  0  0  0  0  0  0
    8.5500   -2.6280   22.4000 C   0  0  2  0  0  0  0  0  0  0  0  0
    9.6490   -1.6330   22.6860 C   0  0  0  0  0  0  0  0  0  0  0  0
    9.1960   -0.5620   23.5700 C   0  0  0  0  0  0  0  0  0  0  0  0
    9.8590    0.4600   23.9780 C   0  0  0  0  0  0  0  0  0  0  0  0
   11.1400    0.5550   23.5270 C   0  0  0  0  0  0  0  0  0  0  0  0
   11.7480   -0.3940   22.6980 C   0  0  0  0  0  0  0  0  0  0  0  0
   10.9490   -1.5890   22.2330 C   0  0  0  0  0  0  0  0  0  0  0  0
   13.1670   -0.2150   22.2690 C   0  0  0  0  0  0  0  0  0  0  0  0
   13.4740    1.0770   22.6520 C   0  0  0  0  0  0  0  0  0  0  0  0
   12.4160    2.0080   22.8020 C   0  0  2  0  0  0  0  0  0  0  0  0
   12.4930    3.7340   22.6740 S   0  0  0  0  0  0  0  0  0  0  0  0
   14.1060    4.1700   22.7520 N   0  0  0  0  0  0  0  0  0  0  0  0
   12.0470    4.2070   21.3900 O   0  0  0  0  0  0  0  0  0  0  0  0
   11.8900    4.3330   23.8380 O   0  0  0  0  0  0  0  0  0  0  0  0
   11.8180    1.6980   23.9420 C   0  0  0  0  0  0  0  0  0  0  0  0
    7.4000   -1.5900   22.2800 C   0  0  0  0  0  0  0  0  0  0  0  0
  1  2  1  0
  3  2  1  0
  3  4  2  0
  3  5  2  0
  3  6  1  0
  6  7  1  0
  7  8  1  0
  8  9  1  0
  9 10  2  0
 10 11  1  0
 11 12  2  0
  8 13  2  0
 12 13  1  0
 13 14  1  0
 14 15  1  1
 15 16  2  0
 16 17  1  0
 17 18  2  0
 18 19  1  0
 15 20  1  0
 19 20  2  0
 19 21  1  0
 21 22  1  0
 22 23  1  0
 23 24  1  1
 24 25  1  0
 24 26  2  0
 24 27  2  0
 18 28  1  0
 23 28  1  0
  6 29  1  0
 14 29  1  0
M  END
