DAV-CRI-3edb475e-2-acrylamide
     RDKit          3D

 15 15  0  0  0  0  0  0  0  0999 V2000
    7.7360   -3.3090   19.5320 C   0  0  0  0  0  0  0  0  0  0  0  0
    6.5820   -2.4330   19.9660 C   0  0  0  0  0  0  0  0  0  0  0  0
    6.1970   -2.7550   21.3980 C   0  0  0  0  0  0  0  0  0  0  0  0
    5.0600   -3.2400   20.9350 O   0  0  0  0  0  0  0  0  0  0  0  0
    7.5010   -2.1630   21.5470 N   0  0  0  0  0  0  0  0  0  0  0  0
    8.2370   -2.1420   22.8510 C   0  0  2  0  0  0  0  0  0  0  0  0
    7.3740   -1.5530   23.9120 C   0  0  0  0  0  0  0  0  0  0  0  0
    9.6200   -1.4350   22.8610 C   0  0  0  0  0  0  0  0  0  0  0  0
    9.8170   -0.2320   23.5940 C   0  0  0  0  0  0  0  0  0  0  0  0
   11.0740    0.4290   23.6290 C   0  0  0  0  0  0  0  0  0  0  0  0
   11.1340    1.4610   24.2830 O   0  0  0  0  0  0  0  0  0  0  0  0
   12.2590   -0.1100   22.9030 C   0  0  0  0  0  0  0  0  0  0  0  0
   12.0860   -1.3880   22.1110 C   0  0  0  0  0  0  0  0  0  0  0  0
   13.3090   -2.1420   21.2170 Cl  0  0  0  0  0  0  0  0  0  0  0  0
   10.6920   -1.9990   22.1450 C   0  0  0  0  0  0  0  0  0  0  0  0
  1  2  1  0
  2  3  1  0
  3  4  2  0
  3  5  1  0
  5  6  1  0
  6  7  1  1
  6  8  1  0
  8  9  2  0
  9 10  1  0
 10 11  1  0
 10 12  2  0
 12 13  1  0
 13 14  1  0
  8 15  1  0
 13 15  2  0
M  END
