DAV-CRI-d1e0885a-1-acrylamide
     RDKit          3D

 18 19  0  0  0  0  0  0  0  0999 V2000
    7.4230   -2.9310   18.3400 C   0  0  0  0  0  0  0  0  0  0  0  0
    6.6390   -1.9020   19.0990 C   0  0  0  0  0  0  0  0  0  0  0  0
    5.9100   -2.5430   20.2490 C   0  0  0  0  0  0  0  0  0  0  0  0
    4.9780   -3.3400   20.0850 O   0  0  0  0  0  0  0  0  0  0  0  0
    6.4200   -2.1840   21.4590 N   0  0  0  0  0  0  0  0  0  0  0  0
    7.3440   -1.0660   21.5480 C   0  0  0  0  0  0  0  0  0  0  0  0
    8.5900   -1.5340   21.9650 C   0  0  0  0  0  0  0  0  0  0  0  0
    8.6800   -2.2080   23.1220 N   0  0  0  0  0  0  0  0  0  0  0  0
   10.0680   -2.5980   23.5150 C   0  0  0  0  0  0  0  0  0  0  0  0
   10.9000   -1.3290   23.5610 C   0  0  0  0  0  0  0  0  0  0  0  0
   10.5340    0.1750   24.4270 S   0  0  0  0  0  0  0  0  0  0  0  0
   12.0170    0.9470   23.8250 C   0  0  0  0  0  0  0  0  0  0  0  0
   12.8230    0.0280   22.9510 C   0  0  0  0  0  0  0  0  0  0  0  0
   12.0920   -1.3040   22.8430 C   0  0  0  0  0  0  0  0  0  0  0  0
   12.7440   -2.3710   21.9950 C   0  0  0  0  0  0  0  0  0  0  0  0
   13.3820   -1.7340   20.9780 N   0  0  0  0  0  0  0  0  0  0  0  0
    7.7850   -3.3960   23.0900 C   0  0  0  0  0  0  0  0  0  0  0  0
    6.3690   -3.0620   22.6350 C   0  0  0  0  0  0  0  0  0  0  0  0
  1  2  1  0
  2  3  1  0
  3  4  2  0
  3  5  1  0
  5  6  1  0
  6  7  1  0
  7  8  1  0
  8  9  1  0
  9 10  1  0
 10 11  1  0
 11 12  1  0
 12 13  2  0
 10 14  2  0
 13 14  1  0
 14 15  1  0
 15 16  3  0
  8 17  1  0
  5 18  1  0
 17 18  1  0
M  END
