DAV-CRI-14a23e73-4-acrylamide
     RDKit          3D

 25 26  0  0  0  0  0  0  0  0999 V2000
    6.5510   -5.5130   20.9480 C   0  0  0  0  0  0  0  0  0  0  0  0
    6.2810   -4.8870   22.3050 C   0  0  0  0  0  0  0  0  0  0  0  0
    5.9610   -3.4630   22.0860 C   0  0  0  0  0  0  0  0  0  0  0  0
    4.8100   -3.2140   21.5810 O   0  0  0  0  0  0  0  0  0  0  0  0
    7.0600   -2.5740   22.4560 N   0  0  0  0  0  0  0  0  0  0  0  0
    7.8630   -2.6250   23.7520 C   0  0  2  0  0  0  0  0  0  0  0  0
    7.1740   -1.7380   24.7400 C   0  0  0  0  0  0  0  0  0  0  0  0
    9.4440   -2.2790   23.7780 C   0  0  0  0  0  0  0  0  0  0  0  0
    9.1770   -1.0870   23.5670 C   0  0  0  0  0  0  0  0  0  0  0  0
    9.9380   -0.0850   23.4550 C   0  0  0  0  0  0  0  0  0  0  0  0
    8.5250    0.8750   23.1830 Cl  0  0  0  0  0  0  0  0  0  0  0  0
   10.7400    1.0250   23.3280 C   0  0  0  0  0  0  0  0  0  0  0  0
   11.7200   -0.2110   23.6090 C   0  0  0  0  0  0  0  0  0  0  0  0
   11.9410    1.2720   23.4240 C   0  0  0  0  0  0  0  0  0  0  0  0
   10.7620    1.7220   23.9800 C   0  0  0  0  0  0  0  0  0  0  0  0
   10.4160    3.0290   24.0410 C   0  0  0  0  0  0  0  0  0  0  0  0
   11.2470    3.9850   23.5420 C   0  0  0  0  0  0  0  0  0  0  0  0
   10.6460    5.6470   23.6870 S   0  0  0  0  0  0  0  0  0  0  0  0
    9.2170    5.5540   22.7940 N   0  0  0  0  0  0  0  0  0  0  0  0
   11.5090    6.5490   22.9800 O   0  0  0  0  0  0  0  0  0  0  0  0
   10.2540    5.8770   25.0600 O   0  0  0  0  0  0  0  0  0  0  0  0
   12.4960    3.6010   22.9610 C   0  0  0  0  0  0  0  0  0  0  0  0
   13.3500    4.5810   22.4540 C   0  0  0  0  0  0  0  0  0  0  0  0
   12.8430    2.1970   22.9150 C   0  0  0  0  0  0  0  0  0  0  0  0
   10.5690   -1.2090   23.6880 C   0  0  0  0  0  0  0  0  0  0  0  0
  1  2  1  0
  2  3  1  0
  3  4  2  0
  3  5  1  0
  5  6  1  0
  6  7  1  1
  6  8  1  0
  8  9  2  0
  9 10  1  0
 10 11  1  0
 10 12  2  0
 12 13  1  0
 13 14  1  0
 14 15  2  0
 15 16  1  0
 16 17  2  0
 17 18  1  0
 18 19  1  0
 18 20  2  0
 18 21  2  0
 17 22  1  0
 22 23  1  0
 14 24  1  0
 22 24  2  0
  8 25  1  0
 13 25  2  0
M  END
