DAV-AUT-fa25ac7f-1
     RDKit          3D

 23 25  0  0  0  0  0  0  0  0999 V2000
   13.6640    0.2450   22.0090 C   0  0  0  0  0  0  0  0  0  0  0  0
   12.9240   -0.1540   23.1850 C   0  0  1  0  0  0  0  0  0  0  0  0
   12.1640    1.0890   23.3240 C   0  0  0  0  0  0  0  0  0  0  0  0
   12.7840    2.2930   22.9450 C   0  0  0  0  0  0  0  0  0  0  0  0
   12.2310    3.4950   23.0040 N   0  0  0  0  0  0  0  0  0  0  0  0
   10.9820    3.4800   23.4740 C   0  0  0  0  0  0  0  0  0  0  0  0
   10.2770    5.1140   23.5540 S   0  0  1  0  0  0  0  0  0  0  0  0
    9.8290    5.2710   25.2400 C   0  0  0  0  0  0  0  0  0  0  0  0
   11.4140    6.1350   23.2740 N   0  0  0  0  0  0  0  0  0  0  0  0
    9.0130    5.0720   22.8520 O   0  0  0  0  0  0  0  0  0  0  0  0
   10.2620    2.3440   23.8750 C   0  0  0  0  0  0  0  0  0  0  0  0
   10.8810    1.0830   23.7920 C   0  0  0  0  0  0  0  0  0  0  0  0
   10.2740   -0.1500   24.1470 N   0  0  0  0  0  0  0  0  0  0  0  0
    8.9920   -0.2870   24.8990 C   0  0  0  0  0  0  0  0  0  0  0  0
    7.7190    0.1840   24.1910 C   0  0  0  0  0  0  0  0  0  0  0  0
    6.5070   -0.1760   25.0450 C   0  0  0  0  0  0  0  0  0  0  0  0
    6.6250    0.3880   26.3560 O   0  0  0  0  0  0  0  0  0  0  0  0
    7.8030   -0.0230   27.0530 C   0  0  0  0  0  0  0  0  0  0  0  0
    9.0600    0.3490   26.2810 C   0  0  0  0  0  0  0  0  0  0  0  0
   11.0750   -1.3980   24.0890 C   0  0  0  0  0  0  0  0  0  0  0  0
   12.0840   -1.3810   22.9610 C   0  0  0  0  0  0  0  0  0  0  0  0
   11.4230   -1.3450   21.7890 F   0  0  0  0  0  0  0  0  0  0  0  0
   12.8750   -2.4740   22.8970 F   0  0  0  0  0  0  0  0  0  0  0  0
  2  1  1  6
  2  3  1  0
  3  4  1  0
  4  5  2  0
  5  6  1  0
  6  7  1  0
  7  8  1  1
  7  9  2  0
  7 10  2  0
  6 11  2  0
  3 12  2  0
 11 12  1  0
 12 13  1  0
 13 14  1  0
 14 15  1  0
 15 16  1  0
 16 17  1  0
 17 18  1  0
 14 19  1  0
 18 19  1  0
 13 20  1  0
  2 21  1  0
 20 21  1  0
 21 22  1  0
 21 23  1  0
M  END
