DAV-CRI-f4772df7-2-acrylamide
     RDKit          3D

 34 38  0  0  0  0  0  0  0  0999 V2000
    7.3500   -3.1170   18.5700 C   0  0  0  0  0  0  0  0  0  0  0  0
    6.8990   -2.0150   19.4680 C   0  0  0  0  0  0  0  0  0  0  0  0
    6.1160   -2.6090   20.6320 C   0  0  0  0  0  0  0  0  0  0  0  0
    5.0180   -3.2270   20.4740 O   0  0  0  0  0  0  0  0  0  0  0  0
    6.7290   -2.4570   21.8700 N   0  0  0  0  0  0  0  0  0  0  0  0
    7.8310   -1.5140   22.0970 C   0  0  0  0  0  0  0  0  0  0  0  0
    9.1800   -2.1250   22.4860 C   0  0  1  0  0  0  0  0  0  0  0  0
   10.2110   -1.2390   22.8270 C   0  0  0  0  0  0  0  0  0  0  0  0
   11.5070   -1.3770   22.3180 C   0  0  0  0  0  0  0  0  0  0  0  0
   12.5090   -0.4700   22.6710 C   0  0  0  0  0  0  0  0  0  0  0  0
   12.2200    0.5800   23.5360 C   0  0  0  0  0  0  0  0  0  0  0  0
   10.9400    0.7300   24.0530 C   0  0  0  0  0  0  0  0  0  0  0  0
    9.9370   -0.1790   23.7010 C   0  0  0  0  0  0  0  0  0  0  0  0
    8.9730   -3.1620   23.5680 C   0  0  0  0  0  0  0  0  0  0  0  0
   10.0230   -3.4400   24.4350 C   0  0  0  0  0  0  0  0  0  0  0  0
    9.8270   -4.4590   25.4950 C   0  0  0  0  0  0  0  0  0  0  0  0
   10.8290   -4.7340   26.3290 F   0  0  0  0  0  0  0  0  0  0  0  0
    8.5990   -5.1140   25.6070 C   0  0  0  0  0  0  0  0  0  0  0  0
    7.5790   -4.8040   24.7190 C   0  0  0  0  0  0  0  0  0  0  0  0
    7.7500   -3.8480   23.7110 C   0  0  0  0  0  0  0  0  0  0  0  0
    6.5880   -3.6050   22.7950 C   0  0  1  0  0  0  0  0  0  0  0  0
    5.1540   -3.6400   23.4010 C   0  0  1  0  0  0  0  0  0  0  0  0
    4.4370   -4.6220   22.5350 C   0  0  0  0  0  0  0  0  0  0  0  0
    4.7090   -6.1890   23.2610 S   0  0  0  0  0  0  0  0  0  0  0  0
    3.6310   -7.0430   22.8620 O   0  0  0  0  0  0  0  0  0  0  0  0
    6.1000   -6.5690   23.1160 O   0  0  0  0  0  0  0  0  0  0  0  0
    4.4270   -5.5740   24.8840 C   0  0  0  0  0  0  0  0  0  0  0  0
    4.8660   -4.1020   24.8640 C   0  0  2  0  0  0  0  0  0  0  0  0
    3.9000   -3.2390   25.5610 N   0  0  0  0  0  0  0  0  0  0  0  0
    2.5190   -3.6210   25.7980 C   0  0  0  0  0  0  0  0  0  0  0  0
    1.9560   -2.5020   26.6560 C   0  0  0  0  0  0  0  0  0  0  0  0
    3.1730   -1.9230   27.3560 C   0  0  0  0  0  0  0  0  0  0  0  0
    4.2790   -2.1900   26.3740 C   0  0  0  0  0  0  0  0  0  0  0  0
    5.3300   -1.5850   26.3110 O   0  0  0  0  0  0  0  0  0  0  0  0
  1  2  1  0
  2  3  1  0
  3  4  2  0
  3  5  1  0
  5  6  1  0
  6  7  1  0
  7  8  1  1
  8  9  2  0
  9 10  1  0
 10 11  2  0
 11 12  1  0
  8 13  1  0
 12 13  2  0
  7 14  1  0
 14 15  1  0
 15 16  2  0
 16 17  1  0
 16 18  1  0
 18 19  2  0
 14 20  2  0
 19 20  1  0
 21  5  1  1
 20 21  1  0
 21 22  1  0
 22 23  1  6
 24 23  1  0
 24 25  2  0
 24 26  2  0
 24 27  1  0
 22 28  1  0
 27 28  1  0
 28 29  1  6
 29 30  1  0
 30 31  1  0
 31 32  1  0
 29 33  1  0
 32 33  1  0
 33 34  2  0
M  END
