DAV-CRI-f4772df7-8-acrylamide
     RDKit          3D

 36 40  0  0  0  0  0  0  0  0999 V2000
    7.9780   -3.3940   19.3070 C   0  0  0  0  0  0  0  0  0  0  0  0
    6.8450   -2.4120   19.3250 C   0  0  0  0  0  0  0  0  0  0  0  0
    6.0430   -2.6820   20.5780 C   0  0  0  0  0  0  0  0  0  0  0  0
    4.9640   -3.1930   20.4540 O   0  0  0  0  0  0  0  0  0  0  0  0
    6.5750   -2.4090   21.8400 N   0  0  0  0  0  0  0  0  0  0  0  0
    7.8710   -1.6770   21.8220 C   0  0  0  0  0  0  0  0  0  0  0  0
    8.3310   -1.2050   20.7880 O   0  0  0  0  0  0  0  0  0  0  0  0
    8.6010   -1.4870   23.1360 C   0  0  2  0  0  0  0  0  0  0  0  0
    9.8850   -0.9410   23.1010 C   0  0  0  0  0  0  0  0  0  0  0  0
   10.0800    0.2390   23.8120 C   0  0  0  0  0  0  0  0  0  0  0  0
   11.3110    0.8620   23.8310 C   0  0  0  0  0  0  0  0  0  0  0  0
   12.3700    0.3020   23.1340 C   0  0  0  0  0  0  0  0  0  0  0  0
   13.5660    0.9100   23.1420 O   0  0  0  0  0  0  0  0  0  0  0  0
   12.2130   -0.8750   22.4270 C   0  0  0  0  0  0  0  0  0  0  0  0
   10.9660   -1.5090   22.4010 C   0  0  0  0  0  0  0  0  0  0  0  0
    8.6760   -2.7840   23.8540 C   0  0  0  0  0  0  0  0  0  0  0  0
    9.7330   -3.0400   24.7030 C   0  0  0  0  0  0  0  0  0  0  0  0
    9.7970   -4.3260   25.4470 C   0  0  0  0  0  0  0  0  0  0  0  0
   10.8630   -4.5520   26.2640 C   0  0  0  0  0  0  0  0  0  0  0  0
    8.8120   -5.2930   25.3240 C   0  0  0  0  0  0  0  0  0  0  0  0
    7.7860   -5.0110   24.4660 C   0  0  0  0  0  0  0  0  0  0  0  0
    7.7000   -3.7350   23.6980 C   0  0  0  0  0  0  0  0  0  0  0  0
    6.4890   -3.6010   22.7850 C   0  0  1  0  0  0  0  0  0  0  0  0
    5.3800   -4.2830   23.6400 C   0  0  2  0  0  0  0  0  0  0  0  0
    5.1730   -5.5390   22.7990 C   0  0  0  0  0  0  0  0  0  0  0  0
    3.8660   -6.5140   23.4740 S   0  0  0  0  0  0  0  0  0  0  0  0
    2.8720   -6.8380   22.4880 O   0  0  0  0  0  0  0  0  0  0  0  0
    4.4000   -7.5230   24.3800 O   0  0  0  0  0  0  0  0  0  0  0  0
    3.2030   -5.1740   24.4020 C   0  0  0  0  0  0  0  0  0  0  0  0
    3.8830   -3.8780   23.9360 C   0  0  1  0  0  0  0  0  0  0  0  0
    3.5370   -2.9400   25.0140 N   0  0  0  0  0  0  0  0  0  0  0  0
    2.2690   -3.1940   25.6790 C   0  0  0  0  0  0  0  0  0  0  0  0
    2.1660   -2.1320   26.7500 C   0  0  0  0  0  0  0  0  0  0  0  0
    3.5980   -2.0020   27.1860 C   0  0  0  0  0  0  0  0  0  0  0  0
    4.3850   -2.3050   25.9270 C   0  0  0  0  0  0  0  0  0  0  0  0
    5.5540   -2.0290   25.7630 O   0  0  0  0  0  0  0  0  0  0  0  0
  1  2  1  0
  2  3  1  0
  3  4  2  0
  3  5  1  0
  5  6  1  0
  6  7  2  0
  6  8  1  0
  8  9  1  6
  9 10  2  0
 10 11  1  0
 11 12  2  0
 12 13  1  0
 12 14  1  0
  9 15  1  0
 14 15  2  0
  8 16  1  0
 16 17  1  0
 17 18  2  0
 18 19  1  0
 18 20  1  0
 20 21  2  0
 16 22  2  0
 21 22  1  0
 23  5  1  1
 22 23  1  0
 23 24  1  0
 24 25  1  6
 26 25  1  0
 26 27  2  0
 26 28  2  0
 26 29  1  0
 24 30  1  0
 29 30  1  0
 30 31  1  1
 31 32  1  0
 32 33  1  0
 33 34  1  0
 31 35  1  0
 34 35  1  0
 35 36  2  0
M  END
