DAV-CRI-14a23e73-6-vinylsulfonamide
     RDKit          3D

 26 27  0  0  0  0  0  0  0  0999 V2000
    6.0740   -4.7820   20.1250 C   0  0  0  0  0  0  0  0  0  0  0  0
    6.5490   -3.3470   20.1640 C   0  0  0  0  0  0  0  0  0  0  0  0
    5.6370   -2.5910   21.4790 S   0  0  0  0  0  0  0  0  0  0  0  0
    4.7360   -3.6110   21.9950 O   0  0  0  0  0  0  0  0  0  0  0  0
    5.1020   -1.3380   21.0240 O   0  0  0  0  0  0  0  0  0  0  0  0
    6.9010   -2.2360   22.5810 N   0  0  0  0  0  0  0  0  0  0  0  0
    7.6950   -0.9560   22.5290 C   0  0  1  0  0  0  0  0  0  0  0  0
    7.7900   -0.2650   21.1490 C   0  0  0  0  0  0  0  0  0  0  0  0
    7.1070   -0.0750   23.6130 C   0  0  0  0  0  0  0  0  0  0  0  0
    8.0490   -0.8920   24.1000 C   0  0  0  0  0  0  0  0  0  0  0  0
    8.6620   -1.6780   23.1200 C   0  0  0  0  0  0  0  0  0  0  0  0
    9.9140   -2.8000   23.5040 Cl  0  0  0  0  0  0  0  0  0  0  0  0
    8.1740   -1.4700   21.7450 C   0  0  0  0  0  0  0  0  0  0  0  0
    7.0280   -0.4360   21.3770 C   0  0  0  0  0  0  0  0  0  0  0  0
    6.5720   -0.2790   19.8910 C   0  0  0  0  0  0  0  0  0  0  0  0
    6.4490   -1.2300   19.1390 O   0  0  0  0  0  0  0  0  0  0  0  0
    6.2920    1.1660   19.4290 C   0  0  2  0  0  0  0  0  0  0  0  0
    6.4890    2.0410   20.5010 C   0  0  0  0  0  0  0  0  0  0  0  0
    5.3350    2.7290   20.8050 C   0  0  0  0  0  0  0  0  0  0  0  0
    4.3560    2.2950   19.9270 C   0  0  0  0  0  0  0  0  0  0  0  0
    2.7210    2.8500   19.8860 S   0  0  0  0  0  0  0  0  0  0  0  0
    2.4610    3.4620   18.3510 N   0  0  0  0  0  0  0  0  0  0  0  0
    1.8090    1.7530   20.0950 O   0  0  0  0  0  0  0  0  0  0  0  0
    2.6000    4.0170   20.7350 O   0  0  0  0  0  0  0  0  0  0  0  0
    4.9230    1.3140   19.0680 C   0  0  0  0  0  0  0  0  0  0  0  0
    6.4840    0.2950   22.4570 C   0  0  0  0  0  0  0  0  0  0  0  0
  1  2  1  0
  2  3  1  0
  3  4  2  0
  3  5  2  0
  3  6  1  0
  6  7  1  0
  7  8  1  6
  7  9  1  0
  9 10  2  0
 10 11  1  0
 11 12  1  0
 11 13  2  0
 13 14  1  0
 14 15  1  0
 15 16  2  0
 17 15  1  1
 17 18  1  0
 18 19  2  0
 19 20  1  0
 20 21  1  0
 21 22  1  0
 21 23  2  0
 21 24  2  0
 17 25  1  0
 20 25  2  0
  9 26  1  0
 14 26  2  0
M  END
