DAV-CRI-14a23e73-2-acrylamide
     RDKit          3D

 25 26  0  0  0  0  0  0  0  0999 V2000
    7.4860   -3.4080   19.5620 C   0  0  0  0  0  0  0  0  0  0  0  0
    6.9880   -3.9620   20.8760 C   0  0  0  0  0  0  0  0  0  0  0  0
    6.1290   -2.9030   21.4420 C   0  0  0  0  0  0  0  0  0  0  0  0
    4.8330   -3.1650   21.4990 O   0  0  0  0  0  0  0  0  0  0  0  0
    6.9610   -1.7040   21.7720 N   0  0  0  0  0  0  0  0  0  0  0  0
    7.9690   -1.4380   22.9360 C   0  0  2  0  0  0  0  0  0  0  0  0
    7.4520   -0.2790   23.7430 C   0  0  0  0  0  0  0  0  0  0  0  0
    9.6040   -1.3160   22.7160 C   0  0  0  0  0  0  0  0  0  0  0  0
    9.3020   -2.4360   22.4560 C   0  0  0  0  0  0  0  0  0  0  0  0
   10.6900   -2.6290   22.2190 C   0  0  0  0  0  0  0  0  0  0  0  0
    9.2620   -3.5870   22.1690 Cl  0  0  0  0  0  0  0  0  0  0  0  0
   11.7650   -1.3710   22.3930 C   0  0  0  0  0  0  0  0  0  0  0  0
   10.8370   -0.1760   22.8300 C   0  0  0  0  0  0  0  0  0  0  0  0
   11.3190    1.2460   23.0360 C   0  0  0  0  0  0  0  0  0  0  0  0
   10.1540    1.8360   23.4300 C   0  0  0  0  0  0  0  0  0  0  0  0
    9.7740    3.1370   23.7400 C   0  0  0  0  0  0  0  0  0  0  0  0
   11.0050    3.8000   23.5230 C   0  0  0  0  0  0  0  0  0  0  0  0
   10.7500    5.5430   23.8040 S   0  0  0  0  0  0  0  0  0  0  0  0
    9.3600    5.7570   22.8630 N   0  0  0  0  0  0  0  0  0  0  0  0
   11.7610    6.3180   23.1420 O   0  0  0  0  0  0  0  0  0  0  0  0
   10.3460    5.7950   25.1680 O   0  0  0  0  0  0  0  0  0  0  0  0
   12.2920    3.3030   23.1350 C   0  0  0  0  0  0  0  0  0  0  0  0
   13.3530    4.1480   23.0040 O   0  0  0  0  0  0  0  0  0  0  0  0
   12.4700    1.9550   22.8910 C   0  0  0  0  0  0  0  0  0  0  0  0
    9.4680   -0.0980   23.0710 C   0  0  0  0  0  0  0  0  0  0  0  0
  1  2  1  0
  2  3  1  0
  3  4  2  0
  3  5  1  0
  5  6  1  0
  6  7  1  6
  6  8  1  0
  8  9  2  0
  9 10  1  0
 10 11  1  0
 10 12  2  0
 12 13  1  0
 13 14  1  0
 14 15  2  0
 15 16  1  0
 16 17  2  0
 17 18  1  0
 18 19  1  0
 18 20  2  0
 18 21  2  0
 17 22  1  0
 22 23  1  0
 14 24  1  0
 22 24  2  0
  8 25  1  0
 13 25  2  0
M  END
