DAV-CRI-f9b12666-8-vinylsulfonamide
     RDKit          3D

 43 46  0  0  0  0  0  0  0  0999 V2000
    8.5560   -4.1750   20.3810 C   0  0  0  0  0  0  0  0  0  0  0  0
    7.3810   -3.3270   19.8390 C   0  0  0  0  0  0  0  0  0  0  0  0
    5.8490   -4.0490   20.3570 S   0  0  0  0  0  0  0  0  0  0  0  0
    4.8080   -3.1260   20.0180 O   0  0  0  0  0  0  0  0  0  0  0  0
    5.7650   -5.3610   19.8120 O   0  0  0  0  0  0  0  0  0  0  0  0
    5.9120   -4.0880   22.0510 N   0  0  0  0  0  0  0  0  0  0  0  0
    6.9540   -3.3040   22.7210 C   0  0  0  0  0  0  0  0  0  0  0  0
    8.1380   -4.1990   22.8880 C   0  0  1  0  0  0  0  0  0  0  0  0
    9.2760   -3.5460   23.5850 C   0  0  0  0  0  0  0  0  0  0  0  0
    9.5130   -2.0840   23.3960 N   0  0  0  0  0  0  0  0  0  0  0  0
   10.7580   -1.9250   24.1090 C   0  0  0  0  0  0  0  0  0  0  0  0
   11.5730   -0.6440   24.2690 C   0  0  0  0  0  0  0  0  0  0  0  0
   11.5110    0.8480   23.8750 C   0  0  0  0  0  0  0  0  0  0  0  0
   12.6620    1.2520   23.2250 C   0  0  0  0  0  0  0  0  0  0  0  0
   12.9080    2.5690   22.7940 C   0  0  0  0  0  0  0  0  0  0  0  0
   11.9850    3.4890   23.0140 C   0  0  0  0  0  0  0  0  0  0  0  0
   12.1540    4.7870   22.6280 O   0  0  0  0  0  0  0  0  0  0  0  0
   10.7380    3.2790   23.6630 C   0  0  0  0  0  0  0  0  0  0  0  0
    9.7110    4.7280   23.8390 S   0  0  0  0  0  0  0  0  0  0  0  0
    8.6020    4.6090   22.5890 N   0  0  0  0  0  0  0  0  0  0  0  0
   10.5630    5.8550   23.4650 O   0  0  0  0  0  0  0  0  0  0  0  0
    8.9710    4.7750   25.0930 O   0  0  0  0  0  0  0  0  0  0  0  0
   10.4950    1.9100   24.1020 C   0  0  0  0  0  0  0  0  0  0  0  0
   12.8680   -0.8590   25.0180 C   0  0  0  0  0  0  0  0  0  0  0  0
   13.2410   -2.1010   25.5170 C   0  0  0  0  0  0  0  0  0  0  0  0
   12.5070   -3.2140   25.4110 C   0  0  0  0  0  0  0  0  0  0  0  0
   11.3210   -3.1930   24.7560 C   0  0  0  0  0  0  0  0  0  0  0  0
   10.2770   -4.5070   24.5220 S   0  0  0  0  0  0  0  0  0  0  0  0
    7.9090   -5.6060   23.4760 C   0  0  0  0  0  0  0  0  0  0  0  0
    6.7700   -6.2050   22.6690 C   0  0  0  0  0  0  0  0  0  0  0  0
    5.6080   -5.2750   22.8350 C   0  0  2  0  0  0  0  0  0  0  0  0
    4.3020   -5.5890   22.7410 N   0  0  0  0  0  0  0  0  0  0  0  0
    3.5460   -4.9780   23.6930 C   0  0  0  0  0  0  0  0  0  0  0  0
    3.3030   -3.6480   23.6570 O   0  0  0  0  0  0  0  0  0  0  0  0
    3.0330   -5.8550   24.8420 C   0  0  2  0  0  0  0  0  0  0  0  0
    4.0600   -6.7360   25.5590 C   0  0  0  0  0  0  0  0  0  0  0  0
    4.1200   -6.7310   26.9680 C   0  0  0  0  0  0  0  0  0  0  0  0
    5.3710   -6.6260   27.5140 N   0  0  0  0  0  0  0  0  0  0  0  0
    3.1440   -6.8050   27.7040 O   0  0  0  0  0  0  0  0  0  0  0  0
    1.8200   -6.5500   24.3290 N   0  0  0  0  0  0  0  0  0  0  0  0
    1.2770   -7.6250   25.1120 C   0  0  2  0  0  0  0  0  0  0  0  0
    2.1190   -8.8970   25.0570 C   0  0  0  0  0  0  0  0  0  0  0  0
    0.0130   -7.8850   24.4640 N   0  0  0  0  0  0  0  0  0  0  0  0
  1  2  1  0
  3  2  1  0
  3  4  2  0
  3  5  2  0
  3  6  1  0
  6  7  1  0
  7  8  1  0
  8  9  1  1
  9 10  2  0
 10 11  1  0
 11 12  2  0
 12 13  1  0
 13 14  2  0
 14 15  1  0
 15 16  2  0
 16 17  1  0
 16 18  1  0
 18 19  1  0
 19 20  1  0
 19 21  2  0
 19 22  2  0
 13 23  1  0
 18 23  2  0
 12 24  1  0
 24 25  2  0
 25 26  1  0
 11 27  1  0
 26 27  2  0
  9 28  1  0
 27 28  1  0
  8 29  1  0
 29 30  1  0
  6 31  1  0
 30 31  1  0
 31 32  1  6
 32 33  1  0
 33 34  2  0
 33 35  1  0
 35 36  1  6
 36 37  1  0
 37 38  1  0
 37 39  2  0
 35 40  1  0
 40 41  1  0
 41 42  1  6
 41 43  1  0
M  END
