DAV-CRI-3fe943ba-1-vinylsulfonamide
     RDKit          3D

 29 32  0  0  0  0  0  0  0  0999 V2000
    7.5870   -4.7050   20.4970 C   0  0  0  0  0  0  0  0  0  0  0  0
    6.1310   -4.5510   20.4640 C   0  0  0  0  0  0  0  0  0  0  0  0
    5.9690   -2.8350   20.4500 S   0  0  0  0  0  0  0  0  0  0  0  0
    4.6850   -2.8230   20.8900 O   0  0  0  0  0  0  0  0  0  0  0  0
    6.3550   -2.1660   19.2250 O   0  0  0  0  0  0  0  0  0  0  0  0
    6.9000   -2.4110   21.7690 N   0  0  0  0  0  0  0  0  0  0  0  0
    6.4380   -3.0570   23.0150 C   0  0  0  0  0  0  0  0  0  0  0  0
    7.5570   -3.6590   23.8800 C   0  0  0  0  0  0  0  0  0  0  0  0
    7.2400   -4.8590   24.6890 C   0  0  0  0  0  0  0  0  0  0  0  0
    8.3570   -5.4210   25.5290 C   0  0  0  0  0  0  0  0  0  0  0  0
    9.6290   -4.8660   25.5520 C   0  0  0  0  0  0  0  0  0  0  0  0
    9.8960   -3.5770   24.6590 C   0  0  0  0  0  0  0  0  0  0  0  0
    8.8260   -3.1040   23.9160 C   0  0  0  0  0  0  0  0  0  0  0  0
    8.8390   -1.8940   23.0310 C   0  0  1  0  0  0  0  0  0  0  0  0
   10.1190   -1.0270   22.9180 C   0  0  0  0  0  0  0  0  0  0  0  0
   11.5040   -1.4910   22.3640 C   0  0  0  0  0  0  0  0  0  0  0  0
   12.0760   -0.2280   22.5070 C   0  0  0  0  0  0  0  0  0  0  0  0
   11.8800    1.1130   22.9130 C   0  0  0  0  0  0  0  0  0  0  0  0
   10.6850    1.3640   23.3900 C   0  0  0  0  0  0  0  0  0  0  0  0
    9.7640    0.2240   23.3820 C   0  0  0  0  0  0  0  0  0  0  0  0
   10.2620    2.6950   23.8850 C   0  0  0  0  0  0  0  0  0  0  0  0
   10.7700    3.6380   23.0040 C   0  0  1  0  0  0  0  0  0  0  0  0
   10.3800    5.2140   23.6390 S   0  0  0  0  0  0  0  0  0  0  0  0
    9.0690    5.6010   22.6690 N   0  0  0  0  0  0  0  0  0  0  0  0
   11.3810    6.2040   23.3060 O   0  0  0  0  0  0  0  0  0  0  0  0
    9.7480    5.1770   24.9490 O   0  0  0  0  0  0  0  0  0  0  0  0
   12.1690    3.5000   22.7490 C   0  0  0  0  0  0  0  0  0  0  0  0
   12.8270    2.2330   22.8580 C   0  0  0  0  0  0  0  0  0  0  0  0
    8.3490   -2.2460   21.6500 C   0  0  0  0  0  0  0  0  0  0  0  0
  1  2  1  0
  3  2  1  0
  3  4  2  0
  3  5  2  0
  3  6  1  0
  6  7  1  0
  7  8  1  0
  8  9  1  0
  9 10  2  0
 10 11  1  0
 11 12  2  0
  8 13  2  0
 12 13  1  0
 13 14  1  0
 14 15  1  6
 15 16  2  0
 16 17  1  0
 17 18  2  0
 18 19  1  0
 15 20  1  0
 19 20  2  0
 19 21  1  0
 21 22  1  0
 22 23  1  1
 23 24  1  0
 23 25  2  0
 23 26  2  0
 22 27  1  0
 18 28  1  0
 27 28  1  0
  6 29  1  0
 14 29  1  0
M  END
