DAV-CRI-d1e0885a-6-vinylsulfonamide
     RDKit          3D

 23 24  0  0  0  0  0  0  0  0999 V2000
    7.8560   -3.3480   19.5860 C   0  0  0  0  0  0  0  0  0  0  0  0
    6.9650   -2.4910   18.7360 C   0  0  0  0  0  0  0  0  0  0  0  0
    5.5670   -2.4860   19.7660 S   0  0  0  0  0  0  0  0  0  0  0  0
    5.0760   -3.8670   19.8070 O   0  0  0  0  0  0  0  0  0  0  0  0
    4.7640   -1.3650   19.3550 O   0  0  0  0  0  0  0  0  0  0  0  0
    6.3050   -2.0440   21.2220 N   0  0  0  0  0  0  0  0  0  0  0  0
    7.3620   -1.0270   21.0950 C   0  0  0  0  0  0  0  0  0  0  0  0
    8.6240   -1.2850   21.9200 C   0  0  0  0  0  0  0  0  0  0  0  0
    8.3940   -2.1420   23.1000 N   0  0  0  0  0  0  0  0  0  0  0  0
    9.6760   -2.4070   23.7730 C   0  0  0  0  0  0  0  0  0  0  0  0
   10.7190   -1.3150   23.6140 C   0  0  0  0  0  0  0  0  0  0  0  0
   11.7950   -1.2900   22.7430 C   0  0  0  0  0  0  0  0  0  0  0  0
   11.9710   -2.5140   21.8060 C   0  0  0  0  0  0  0  0  0  0  0  0
   13.1130   -2.3670   20.9570 N   0  0  0  0  0  0  0  0  0  0  0  0
   12.6430   -0.1960   22.7480 C   0  0  0  0  0  0  0  0  0  0  0  0
   12.0650    0.8880   23.9050 S   0  0  0  0  0  0  0  0  0  0  0  0
   10.7430   -0.1360   24.3510 C   0  0  0  0  0  0  0  0  0  0  0  0
    9.8840    0.2890   25.3250 N   0  0  0  0  0  0  0  0  0  0  0  0
    8.9390   -0.3610   26.0300 C   0  0  0  0  0  0  0  0  0  0  0  0
    8.5560   -0.0380   27.4530 C   0  0  0  0  0  0  0  0  0  0  0  0
    8.3930   -1.2370   25.3700 O   0  0  0  0  0  0  0  0  0  0  0  0
    7.8470   -3.2560   22.6620 C   0  0  0  0  0  0  0  0  0  0  0  0
    6.4980   -3.0980   22.2280 C   0  0  0  0  0  0  0  0  0  0  0  0
  1  2  1  0
  3  2  1  0
  3  4  2  0
  3  5  2  0
  3  6  1  0
  6  7  1  0
  7  8  1  0
  8  9  1  0
  9 10  1  0
 10 11  1  0
 11 12  1  0
 12 13  1  0
 13 14  3  0
 12 15  2  0
 15 16  1  0
 11 17  2  0
 16 17  1  0
 17 18  1  0
 18 19  1  0
 19 20  1  0
 19 21  2  0
  9 22  1  0
  6 23  1  0
 22 23  1  0
M  END
