DAV-CRI-d1e0885a-6-acrylamide
     RDKit          3D

 22 23  0  0  0  0  0  0  0  0999 V2000
    7.4540   -2.8120   18.2730 C   0  0  0  0  0  0  0  0  0  0  0  0
    6.3600   -2.0800   18.9910 C   0  0  0  0  0  0  0  0  0  0  0  0
    5.8160   -2.8970   20.1290 C   0  0  0  0  0  0  0  0  0  0  0  0
    5.1570   -3.9420   19.9450 O   0  0  0  0  0  0  0  0  0  0  0  0
    6.1800   -2.3620   21.3330 N   0  0  0  0  0  0  0  0  0  0  0  0
    6.3430   -3.1920   22.5120 C   0  0  0  0  0  0  0  0  0  0  0  0
    7.7090   -3.3180   22.8520 C   0  0  0  0  0  0  0  0  0  0  0  0
    8.5150   -2.2510   23.0610 N   0  0  0  0  0  0  0  0  0  0  0  0
    9.8260   -2.5800   23.6980 C   0  0  0  0  0  0  0  0  0  0  0  0
   10.7300   -1.3440   23.6340 C   0  0  0  0  0  0  0  0  0  0  0  0
   11.8620   -1.1580   22.6670 C   0  0  0  0  0  0  0  0  0  0  0  0
   12.1600   -2.2250   21.6720 C   0  0  0  0  0  0  0  0  0  0  0  0
   13.3370   -1.9510   20.8670 N   0  0  0  0  0  0  0  0  0  0  0  0
   12.5710   -0.0010   22.7520 C   0  0  0  0  0  0  0  0  0  0  0  0
   11.9180    0.9470   23.9770 S   0  0  0  0  0  0  0  0  0  0  0  0
   10.6360   -0.2290   24.4410 C   0  0  0  0  0  0  0  0  0  0  0  0
    9.8220    0.2750   25.5340 N   0  0  0  0  0  0  0  0  0  0  0  0
    8.7460   -0.4340   26.0430 C   0  0  0  0  0  0  0  0  0  0  0  0
    8.3540   -0.0460   27.4570 C   0  0  0  0  0  0  0  0  0  0  0  0
    7.9910   -1.4550   25.3640 O   0  0  0  0  0  0  0  0  0  0  0  0
    8.5610   -1.4590   21.8310 C   0  0  0  0  0  0  0  0  0  0  0  0
    7.1070   -1.1910   21.4940 C   0  0  0  0  0  0  0  0  0  0  0  0
  1  2  1  0
  2  3  1  0
  3  4  2  0
  3  5  1  0
  5  6  1  0
  6  7  1  0
  7  8  1  0
  8  9  1  0
  9 10  1  0
 10 11  1  0
 11 12  1  0
 12 13  3  0
 11 14  2  0
 14 15  1  0
 10 16  2  0
 15 16  1  0
 16 17  1  0
 17 18  1  0
 18 19  1  0
 18 20  2  0
  8 21  1  0
  5 22  1  0
 21 22  1  0
M  END
