DAV-CRI-3edb475e-1-acrylamide
     RDKit          3D

 15 15  0  0  0  0  0  0  0  0999 V2000
    6.6800   -3.3270   19.0600 C   0  0  0  0  0  0  0  0  0  0  0  0
    6.5780   -2.2320   20.0700 C   0  0  0  0  0  0  0  0  0  0  0  0
    6.2390   -2.8230   21.4210 C   0  0  0  0  0  0  0  0  0  0  0  0
    5.0860   -3.2680   20.9080 O   0  0  0  0  0  0  0  0  0  0  0  0
    7.5200   -2.2130   21.6090 N   0  0  0  0  0  0  0  0  0  0  0  0
    8.1780   -2.0300   22.9210 C   0  0  2  0  0  0  0  0  0  0  0  0
    7.3350   -1.2480   23.7060 C   0  0  0  0  0  0  0  0  0  0  0  0
    9.6040   -1.4280   22.8930 C   0  0  0  0  0  0  0  0  0  0  0  0
    9.9340   -0.1680   23.7150 C   0  0  0  0  0  0  0  0  0  0  0  0
   11.3390    0.4040   23.6930 C   0  0  0  0  0  0  0  0  0  0  0  0
   12.4710   -0.1990   22.8970 C   0  0  0  0  0  0  0  0  0  0  0  0
   13.6080    0.2370   22.8590 O   0  0  0  0  0  0  0  0  0  0  0  0
   12.0840   -1.4500   22.1030 C   0  0  0  0  0  0  0  0  0  0  0  0
   13.2300   -2.2620   21.1570 Cl  0  0  0  0  0  0  0  0  0  0  0  0
   10.6550   -1.9820   22.1510 C   0  0  0  0  0  0  0  0  0  0  0  0
  1  2  1  0
  2  3  1  0
  3  4  2  0
  3  5  1  0
  5  6  1  0
  6  7  1  1
  6  8  1  0
  8  9  2  0
  9 10  1  0
 10 11  2  0
 11 12  1  0
 11 13  1  0
 13 14  1  0
  8 15  1  0
 13 15  2  0
M  END
