DAV-CRI-d1e0885a-4-acrylamide
     RDKit          3D

 21 22  0  0  0  0  0  0  0  0999 V2000
    7.9480   -3.3130   19.1610 C   0  0  0  0  0  0  0  0  0  0  0  0
    6.7690   -2.4450   18.8640 C   0  0  0  0  0  0  0  0  0  0  0  0
    5.8620   -2.6540   20.0110 C   0  0  0  0  0  0  0  0  0  0  0  0
    4.8360   -3.2830   19.8660 O   0  0  0  0  0  0  0  0  0  0  0  0
    6.3240   -2.1360   21.1880 N   0  0  0  0  0  0  0  0  0  0  0  0
    6.3550   -2.9460   22.3960 C   0  0  0  0  0  0  0  0  0  0  0  0
    7.6830   -3.2050   22.8090 C   0  0  0  0  0  0  0  0  0  0  0  0
    8.5570   -2.2040   23.0200 N   0  0  0  0  0  0  0  0  0  0  0  0
    9.7870   -2.5750   23.7740 C   0  0  0  0  0  0  0  0  0  0  0  0
   10.7400   -1.3890   23.6640 C   0  0  0  0  0  0  0  0  0  0  0  0
   11.8780   -1.2730   22.6920 C   0  0  0  0  0  0  0  0  0  0  0  0
   12.1370   -2.3830   21.7270 C   0  0  0  0  0  0  0  0  0  0  0  0
   13.2910   -2.1360   20.8830 N   0  0  0  0  0  0  0  0  0  0  0  0
   12.6230   -0.1290   22.7560 C   0  0  0  0  0  0  0  0  0  0  0  0
   11.9980    0.8720   23.9650 S   0  0  0  0  0  0  0  0  0  0  0  0
   10.6860   -0.2560   24.4450 C   0  0  0  0  0  0  0  0  0  0  0  0
    9.8710    0.2570   25.5270 N   0  0  0  0  0  0  0  0  0  0  0  0
    8.9520   -0.5560   26.1780 C   0  0  0  0  0  0  0  0  0  0  0  0
    8.7290   -0.1310   27.6150 C   0  0  0  0  0  0  0  0  0  0  0  0
    8.7700   -1.5460   21.7360 C   0  0  0  0  0  0  0  0  0  0  0  0
    7.3870   -1.0940   21.3080 C   0  0  0  0  0  0  0  0  0  0  0  0
  1  2  1  0
  2  3  1  0
  3  4  2  0
  3  5  1  0
  5  6  1  0
  6  7  1  0
  7  8  1  0
  8  9  1  0
  9 10  1  0
 10 11  1  0
 11 12  1  0
 12 13  3  0
 11 14  2  0
 14 15  1  0
 10 16  2  0
 15 16  1  0
 16 17  1  0
 17 18  1  0
 18 19  1  0
  8 20  1  0
  5 21  1  0
 20 21  1  0
M  END
