DAV-CRI-8c8dd668-1-chloroacetamide
     RDKit          3D

 31 35  0  0  0  0  0  0  0  0999 V2000
    7.3920   -2.9890   18.8480 C   0  0  0  0  0  0  0  0  0  0  0  0
    6.5930   -3.3820   20.0320 C   0  0  0  0  0  0  0  0  0  0  0  0
    5.6490   -4.1830   19.8420 O   0  0  0  0  0  0  0  0  0  0  0  0
    6.9650   -2.8630   21.3010 N   0  0  0  0  0  0  0  0  0  0  0  0
    8.0750   -1.8820   21.5220 C   0  0  0  0  0  0  0  0  0  0  0  0
    9.2570   -2.3920   22.1320 C   0  0  1  0  0  0  0  0  0  0  0  0
   10.1510   -1.4400   22.6520 C   0  0  0  0  0  0  0  0  0  0  0  0
    9.7520   -0.4520   23.6390 C   0  0  0  0  0  0  0  0  0  0  0  0
   10.6600    0.4840   24.1340 C   0  0  0  0  0  0  0  0  0  0  0  0
   11.9860    0.5020   23.6960 C   0  0  0  0  0  0  0  0  0  0  0  0
   12.4820   -0.4730   22.6940 C   0  0  0  0  0  0  0  0  0  0  0  0
   11.4850   -1.4420   22.2010 C   0  0  0  0  0  0  0  0  0  0  0  0
    8.7660   -3.2800   23.2660 C   0  0  0  0  0  0  0  0  0  0  0  0
    9.6490   -3.8280   24.2480 C   0  0  0  0  0  0  0  0  0  0  0  0
    9.2170   -4.6500   25.2900 C   0  0  0  0  0  0  0  0  0  0  0  0
    7.8770   -5.0040   25.4690 C   0  0  0  0  0  0  0  0  0  0  0  0
    6.8740   -4.5660   24.6150 C   0  0  0  0  0  0  0  0  0  0  0  0
    7.2780   -3.6710   23.4530 C   0  0  0  0  0  0  0  0  0  0  0  0
    6.3240   -3.2120   22.5570 C   0  0  1  0  0  0  0  0  0  0  0  0
    5.4320   -2.1930   22.9110 C   0  0  0  0  0  0  0  0  0  0  0  0
    4.8760   -2.1290   24.1730 C   0  0  0  0  0  0  0  0  0  0  0  0
    3.9170   -1.0470   24.5620 C   0  0  0  0  0  0  0  0  0  0  0  0
    3.6120   -0.0350   23.4640 C   0  0  0  0  0  0  0  0  0  0  0  0
    4.1940   -0.1320   22.1950 C   0  0  0  0  0  0  0  0  0  0  0  0
    3.9000    0.8180   21.1740 N   0  0  0  0  0  0  0  0  0  0  0  0
    4.6470    0.8900   19.9490 C   0  0  0  0  0  0  0  0  0  0  0  0
    4.2590    2.2440   19.3830 C   0  0  0  0  0  0  0  0  0  0  0  0
    2.9340    2.5000   19.8710 C   0  0  0  0  0  0  0  0  0  0  0  0
    2.6740    1.4390   20.9260 C   0  0  0  0  0  0  0  0  0  0  0  0
    1.5720    1.2260   21.4140 O   0  0  0  0  0  0  0  0  0  0  0  0
    5.0850   -1.2020   21.9520 C   0  0  0  0  0  0  0  0  0  0  0  0
  1  2  1  0
  2  3  2  0
  2  4  1  0
  4  5  1  0
  5  6  1  0
  6  7  1  1
  7  8  2  0
  8  9  1  0
  9 10  2  0
 10 11  1  0
  7 12  1  0
 11 12  2  0
  6 13  1  0
 13 14  1  0
 14 15  2  0
 15 16  1  0
 16 17  2  0
 13 18  2  0
 17 18  1  0
  4 19  1  0
 18 19  1  0
 19 20  1  1
 20 21  2  0
 21 22  1  0
 22 23  2  0
 23 24  1  0
 24 25  1  0
 25 26  1  0
 26 27  1  0
 27 28  1  0
 25 29  1  0
 28 29  1  0
 29 30  2  0
 20 31  1  0
 24 31  2  0
M  END
