DAV-CRI-d1e0885a-4-chloroacetamide
     RDKit          3D

 20 21  0  0  0  0  0  0  0  0999 V2000
    7.2310   -2.9510   18.7230 C   0  0  0  0  0  0  0  0  0  0  0  0
    6.3060   -3.2180   19.8690 C   0  0  0  0  0  0  0  0  0  0  0  0
    5.4400   -4.1000   19.7420 O   0  0  0  0  0  0  0  0  0  0  0  0
    6.4820   -2.4710   21.0340 N   0  0  0  0  0  0  0  0  0  0  0  0
    7.2970   -1.2520   21.0520 C   0  0  0  0  0  0  0  0  0  0  0  0
    8.6190   -1.4560   21.8010 C   0  0  0  0  0  0  0  0  0  0  0  0
    8.4650   -2.1850   23.0850 N   0  0  0  0  0  0  0  0  0  0  0  0
    9.7930   -2.4460   23.6770 C   0  0  0  0  0  0  0  0  0  0  0  0
   10.7810   -1.2800   23.5640 C   0  0  0  0  0  0  0  0  0  0  0  0
   11.8560   -1.1910   22.7070 C   0  0  0  0  0  0  0  0  0  0  0  0
   12.0850   -2.3740   21.7600 C   0  0  0  0  0  0  0  0  0  0  0  0
   13.2240   -2.1410   20.9380 N   0  0  0  0  0  0  0  0  0  0  0  0
   12.6640   -0.0760   22.7270 C   0  0  0  0  0  0  0  0  0  0  0  0
   12.0460    0.9630   23.8900 S   0  0  0  0  0  0  0  0  0  0  0  0
   10.7510   -0.1070   24.3270 C   0  0  0  0  0  0  0  0  0  0  0  0
    9.8570    0.2280   25.2990 N   0  0  0  0  0  0  0  0  0  0  0  0
    9.0930   -0.5820   26.0580 C   0  0  0  0  0  0  0  0  0  0  0  0
    8.8120   -0.2410   27.4990 C   0  0  0  0  0  0  0  0  0  0  0  0
    7.8060   -3.3060   22.8680 C   0  0  0  0  0  0  0  0  0  0  0  0
    6.4860   -3.1030   22.3530 C   0  0  0  0  0  0  0  0  0  0  0  0
  1  2  1  0
  2  3  2  0
  2  4  1  0
  4  5  1  0
  5  6  1  0
  6  7  1  0
  7  8  1  0
  8  9  1  0
  9 10  1  0
 10 11  1  0
 11 12  3  0
 10 13  2  0
 13 14  1  0
  9 15  2  0
 14 15  1  0
 15 16  1  0
 16 17  1  0
 17 18  1  0
  7 19  1  0
  4 20  1  0
 19 20  1  0
M  END
