DAV-CRI-25b90884-2-vinylsulfonamide
     RDKit          3D

 28 29  0  0  0  0  0  0  0  0999 V2000
    7.1130   -3.4470   19.5610 C   0  0  0  0  0  0  0  0  0  0  0  0
    6.6680   -4.0450   20.9040 C   0  0  0  0  0  0  0  0  0  0  0  0
    5.7650   -2.8900   21.9170 S   0  0  0  0  0  0  0  0  0  0  0  0
    4.5370   -3.6510   22.2320 O   0  0  0  0  0  0  0  0  0  0  0  0
    5.6220   -1.6880   21.1380 O   0  0  0  0  0  0  0  0  0  0  0  0
    6.9470   -2.4750   23.1880 N   0  0  0  0  0  0  0  0  0  0  0  0
    8.2820   -2.3530   22.5560 C   0  0  1  0  0  0  0  0  0  0  0  0
    7.8160   -1.9190   21.2110 C   0  0  0  0  0  0  0  0  0  0  0  0
    7.8020   -0.5500   20.6560 C   0  0  0  0  0  0  0  0  0  0  0  0
    8.1920    0.6930   21.1490 C   0  0  1  0  0  0  0  0  0  0  0  0
    7.3620    1.6490   20.5820 N   0  0  0  0  0  0  0  0  0  0  0  0
    6.1100    1.1850   20.2230 C   0  0  0  0  0  0  0  0  0  0  0  0
    5.7330    0.6770   18.9590 C   0  0  0  0  0  0  0  0  0  0  0  0
    5.2450    1.2580   21.0880 O   0  0  0  0  0  0  0  0  0  0  0  0
    7.9260    0.8480   22.6460 C   0  0  0  0  0  0  0  0  0  0  0  0
    8.7560    1.8190   23.4900 C   0  0  0  0  0  0  0  0  0  0  0  0
    8.4340    1.9080   24.9810 C   0  0  0  0  0  0  0  0  0  0  0  0
    7.4200    1.1220   25.5270 C   0  0  0  0  0  0  0  0  0  0  0  0
    7.1130    1.1730   26.8600 O   0  0  0  0  0  0  0  0  0  0  0  0
    6.6930    0.2570   24.6980 C   0  0  0  0  0  0  0  0  0  0  0  0
    6.9310    0.1250   23.3210 C   0  0  0  0  0  0  0  0  0  0  0  0
    9.5650   -1.5350   22.9380 C   0  0  0  0  0  0  0  0  0  0  0  0
    9.6890   -0.5040   23.8530 C   0  0  0  0  0  0  0  0  0  0  0  0
   10.9060    0.1600   24.0790 C   0  0  0  0  0  0  0  0  0  0  0  0
   12.1440   -0.2840   23.2890 C   0  0  0  0  0  0  0  0  0  0  0  0
   11.9330   -1.4190   22.3190 C   0  0  0  0  0  0  0  0  0  0  0  0
   13.2070   -2.0340   21.3610 Cl  0  0  0  0  0  0  0  0  0  0  0  0
   10.7030   -1.9360   22.2200 C   0  0  0  0  0  0  0  0  0  0  0  0
  1  2  1  0
  2  3  1  0
  3  4  2  0
  3  5  2  0
  3  6  1  0
  6  7  1  0
  7  8  1  6
  8  9  2  3
 10  9  1  6
 10 11  1  0
 11 12  1  0
 12 13  1  0
 12 14  2  0
 10 15  1  0
 15 16  2  0
 16 17  1  0
 17 18  2  0
 18 19  1  0
 18 20  1  0
 15 21  1  0
 20 21  2  0
  7 22  1  0
 22 23  2  0
 23 24  1  0
 24 25  2  0
 25 26  1  0
 26 27  1  0
 22 28  1  0
 26 28  2  0
M  END
