DAV-CRI-f4772df7-4-vinylsulfonamide
     RDKit          3D

 36 40  0  0  0  0  0  0  0  0999 V2000
    7.8260   -2.7960   18.6520 C   0  0  0  0  0  0  0  0  0  0  0  0
    6.4420   -3.0000   19.1670 C   0  0  0  0  0  0  0  0  0  0  0  0
    6.5650   -3.4980   20.8090 S   0  0  0  0  0  0  0  0  0  0  0  0
    5.2600   -3.9000   20.9840 O   0  0  0  0  0  0  0  0  0  0  0  0
    7.6160   -4.4340   21.0820 O   0  0  0  0  0  0  0  0  0  0  0  0
    6.7580   -2.2610   21.9130 N   0  0  0  0  0  0  0  0  0  0  0  0
    8.0120   -1.4870   21.9120 C   0  0  0  0  0  0  0  0  0  0  0  0
    8.0370   -0.3400   21.4760 O   0  0  0  0  0  0  0  0  0  0  0  0
    9.2250   -2.2160   22.4910 C   0  0  1  0  0  0  0  0  0  0  0  0
   10.3130   -1.2130   22.8330 C   0  0  0  0  0  0  0  0  0  0  0  0
   11.6220   -1.3190   22.3350 C   0  0  0  0  0  0  0  0  0  0  0  0
   12.5820   -0.3680   22.6780 C   0  0  0  0  0  0  0  0  0  0  0  0
   12.2400    0.6890   23.5130 C   0  0  0  0  0  0  0  0  0  0  0  0
   10.9500    0.8010   24.0140 C   0  0  0  0  0  0  0  0  0  0  0  0
    9.9900   -0.1440   23.6790 C   0  0  0  0  0  0  0  0  0  0  0  0
    8.8640   -3.0920   23.6630 C   0  0  0  0  0  0  0  0  0  0  0  0
    9.9150   -3.5310   24.4890 C   0  0  0  0  0  0  0  0  0  0  0  0
    9.6680   -4.3630   25.5680 C   0  0  0  0  0  0  0  0  0  0  0  0
   10.6690   -4.7800   26.3390 F   0  0  0  0  0  0  0  0  0  0  0  0
    8.2640   -4.7690   25.8350 C   0  0  0  0  0  0  0  0  0  0  0  0
    7.2400   -4.3120   25.0150 C   0  0  0  0  0  0  0  0  0  0  0  0
    7.5140   -3.4800   23.9320 C   0  0  0  0  0  0  0  0  0  0  0  0
    6.4690   -3.0640   23.1180 C   0  0  2  0  0  0  0  0  0  0  0  0
    5.0470   -3.5790   23.2760 C   0  0  1  0  0  0  0  0  0  0  0  0
    5.1490   -4.8900   22.4250 C   0  0  0  0  0  0  0  0  0  0  0  0
    4.5580   -6.3030   23.2910 S   0  0  0  0  0  0  0  0  0  0  0  0
    3.2130   -6.6060   22.8460 O   0  0  0  0  0  0  0  0  0  0  0  0
    5.6440   -7.2440   23.2510 O   0  0  0  0  0  0  0  0  0  0  0  0
    4.4760   -5.5230   24.8680 C   0  0  0  0  0  0  0  0  0  0  0  0
    4.1700   -4.0880   24.4770 C   0  0  1  0  0  0  0  0  0  0  0  0
    3.5720   -3.2250   25.4790 N   0  0  0  0  0  0  0  0  0  0  0  0
    2.2280   -3.4340   25.9890 C   0  0  0  0  0  0  0  0  0  0  0  0
    1.9540   -2.2200   26.8580 C   0  0  0  0  0  0  0  0  0  0  0  0
    3.3310   -1.8810   27.3860 C   0  0  0  0  0  0  0  0  0  0  0  0
    4.2510   -2.2880   26.2520 C   0  0  0  0  0  0  0  0  0  0  0  0
    5.3720   -1.8430   26.0810 O   0  0  0  0  0  0  0  0  0  0  0  0
  1  2  1  0
  3  2  1  0
  3  4  2  0
  3  5  2  0
  3  6  1  0
  6  7  1  0
  7  8  2  0
  7  9  1  0
  9 10  1  1
 10 11  2  0
 11 12  1  0
 12 13  2  0
 13 14  1  0
 10 15  1  0
 14 15  2  0
  9 16  1  0
 16 17  1  0
 17 18  2  0
 18 19  1  0
 18 20  1  0
 20 21  2  0
 16 22  2  0
 21 22  1  0
 23  6  1  6
 22 23  1  0
 23 24  1  0
 24 25  1  6
 26 25  1  0
 26 27  2  0
 26 28  2  0
 26 29  1  0
 24 30  1  0
 29 30  1  0
 30 31  1  1
 31 32  1  0
 32 33  1  0
 33 34  1  0
 31 35  1  0
 34 35  1  0
 35 36  2  0
M  END
