DAV-CRI-25b90884-1-chloroacetamide
     RDKit          3D

 26 27  0  0  0  0  0  0  0  0999 V2000
    8.6830   -3.6120   20.1490 C   0  0  0  0  0  0  0  0  0  0  0  0
    7.7300   -2.5960   19.9310 C   0  0  0  0  0  0  0  0  0  0  0  0
    6.6260   -2.9810   19.2190 O   0  0  0  0  0  0  0  0  0  0  0  0
    8.2710   -1.4080   20.4760 N   0  0  0  0  0  0  0  0  0  0  0  0
    8.3380   -0.9580   21.8900 C   0  0  2  0  0  0  0  0  0  0  0  0
    8.5700    0.5680   21.9040 C   0  0  0  0  0  0  0  0  0  0  0  0
    7.5570    1.3450   22.6850 C   0  0  0  0  0  0  0  0  0  0  0  0
    6.2170    1.0030   22.6990 C   0  0  2  0  0  0  0  0  0  0  0  0
    6.1770   -0.3010   23.1200 N   0  0  0  0  0  0  0  0  0  0  0  0
    4.8940   -0.6550   23.4910 C   0  0  0  0  0  0  0  0  0  0  0  0
    4.0360    0.1530   24.2580 C   0  0  0  0  0  0  0  0  0  0  0  0
    4.3990   -1.8730   23.1080 O   0  0  0  0  0  0  0  0  0  0  0  0
    5.9510    0.9800   21.2140 C   0  0  0  0  0  0  0  0  0  0  0  0
    4.9830    1.9380   20.5370 C   0  0  0  0  0  0  0  0  0  0  0  0
    4.8530    1.8090   19.0310 C   0  0  0  0  0  0  0  0  0  0  0  0
    5.6080    0.8460   18.3790 C   0  0  0  0  0  0  0  0  0  0  0  0
    5.5590    0.6820   17.0680 O   0  0  0  0  0  0  0  0  0  0  0  0
    6.4650   -0.0050   19.0470 C   0  0  0  0  0  0  0  0  0  0  0  0
    6.6250    0.0620   20.4070 C   0  0  0  0  0  0  0  0  0  0  0  0
    9.4340   -1.5320   22.7840 C   0  0  0  0  0  0  0  0  0  0  0  0
   10.7750   -1.4690   22.4370 C   0  0  0  0  0  0  0  0  0  0  0  0
   11.7780   -1.9620   23.2620 C   0  0  0  0  0  0  0  0  0  0  0  0
   11.3380   -2.5970   24.5990 C   0  0  0  0  0  0  0  0  0  0  0  0
    9.8400   -2.6330   24.8920 C   0  0  0  0  0  0  0  0  0  0  0  0
    9.2080   -3.3290   26.3370 Cl  0  0  0  0  0  0  0  0  0  0  0  0
    9.0220   -2.1070   23.9820 C   0  0  0  0  0  0  0  0  0  0  0  0
  1  2  1  0
  2  3  2  0
  2  4  1  0
  4  5  1  0
  5  6  1  6
  6  7  1  0
  8  7  1  6
  8  9  1  0
  9 10  1  0
 10 11  1  0
 10 12  2  0
  8 13  1  0
 13 14  2  0
 14 15  1  0
 15 16  2  0
 16 17  1  0
 16 18  1  0
 13 19  1  0
 18 19  2  0
  5 20  1  0
 20 21  2  0
 21 22  1  0
 22 23  2  0
 23 24  1  0
 24 25  1  0
 20 26  1  0
 24 26  2  0
M  END
