DAV-CRI-7ebcceed-1-acrylamide
     RDKit          3D

 23 24  0  0  0  0  0  0  0  0999 V2000
    8.1400   -3.5270   19.9320 C   0  0  0  0  0  0  0  0  0  0  0  0
    6.7700   -3.0520   19.5950 C   0  0  0  0  0  0  0  0  0  0  0  0
    6.0180   -4.0800   20.3470 C   0  0  0  0  0  0  0  0  0  0  0  0
    5.1150   -4.6950   19.8280 O   0  0  0  0  0  0  0  0  0  0  0  0
    6.5290   -4.2820   21.6110 N   0  0  0  0  0  0  0  0  0  0  0  0
    7.2970   -3.3660   22.2580 C   0  0  0  0  0  0  0  0  0  0  0  0
    6.6450   -2.8080   23.3840 C   0  0  0  0  0  0  0  0  0  0  0  0
    6.4590   -3.8590   24.2690 C   0  0  1  0  0  0  0  0  0  0  0  0
    6.1410   -3.4490   25.5420 C   0  0  0  0  0  0  0  0  0  0  0  0
    5.0320   -2.9720   25.7900 O   0  0  0  0  0  0  0  0  0  0  0  0
    7.1940   -3.6160   26.5490 N   0  0  0  0  0  0  0  0  0  0  0  0
    7.8370   -2.4870   27.0700 C   0  0  0  0  0  0  0  0  0  0  0  0
    7.4730   -4.9300   26.9180 C   0  0  0  0  0  0  0  0  0  0  0  0
    6.5110   -5.5320   27.8770 C   0  0  0  0  0  0  0  0  0  0  0  0
    8.8520   -5.1470   27.5040 C   0  0  0  0  0  0  0  0  0  0  0  0
    5.5380   -4.8100   23.7780 C   0  0  2  0  0  0  0  0  0  0  0  0
    5.2710   -5.8850   24.7820 C   0  0  0  0  0  0  0  0  0  0  0  0
    4.2530   -6.8700   24.1780 C   0  0  2  0  0  0  0  0  0  0  0  0
    3.2880   -6.2700   23.3510 C   0  0  0  0  0  0  0  0  0  0  0  0
    1.7990   -6.5630   23.7210 C   0  0  0  0  0  0  0  0  0  0  0  0
    1.6240   -7.4560   24.9380 C   0  0  0  0  0  0  0  0  0  0  0  0
    3.2780   -7.7860   25.4280 S   0  0  0  0  0  0  0  0  0  0  0  0
    6.0550   -5.3670   22.4380 C   0  0  0  0  0  0  0  0  0  0  0  0
  1  2  1  0
  2  3  1  0
  3  4  2  0
  3  5  1  0
  5  6  1  0
  6  7  1  0
  7  8  1  0
  8  9  1  1
  9 10  2  0
  9 11  1  0
 11 12  1  0
 11 13  1  0
 13 14  1  0
 13 15  1  0
  8 16  1  0
 16 17  1  1
 18 17  1  1
 18 19  1  0
 19 20  2  0
 20 21  1  0
 18 22  1  0
 21 22  2  0
  5 23  1  0
 16 23  1  0
M  END
