DAV-CRI-3fe943ba-2-acrylamide
     RDKit          3D

 28 31  0  0  0  0  0  0  0  0999 V2000
    7.9200   -3.3400   19.1340 C   0  0  0  0  0  0  0  0  0  0  0  0
    6.7420   -2.4230   19.1280 C   0  0  0  0  0  0  0  0  0  0  0  0
    6.0750   -2.7260   20.4140 C   0  0  0  0  0  0  0  0  0  0  0  0
    4.9710   -3.2050   20.4140 O   0  0  0  0  0  0  0  0  0  0  0  0
    6.7990   -2.5030   21.5600 N   0  0  0  0  0  0  0  0  0  0  0  0
    6.2270   -3.1110   22.8100 C   0  0  0  0  0  0  0  0  0  0  0  0
    7.2590   -3.7440   23.7400 C   0  0  0  0  0  0  0  0  0  0  0  0
    6.9110   -4.9070   24.6210 C   0  0  0  0  0  0  0  0  0  0  0  0
    7.8450   -5.4740   25.4500 C   0  0  0  0  0  0  0  0  0  0  0  0
    9.3080   -4.9320   25.4890 C   0  0  0  0  0  0  0  0  0  0  0  0
    9.6020   -3.8560   24.6690 C   0  0  0  0  0  0  0  0  0  0  0  0
    8.5230   -3.2520   23.7850 C   0  0  0  0  0  0  0  0  0  0  0  0
    8.7610   -2.0290   22.8920 C   0  0  1  0  0  0  0  0  0  0  0  0
    9.9320   -1.1440   22.8780 C   0  0  0  0  0  0  0  0  0  0  0  0
   11.2910   -1.3050   22.5590 C   0  0  0  0  0  0  0  0  0  0  0  0
   12.1380   -0.1160   22.6220 C   0  0  0  0  0  0  0  0  0  0  0  0
   11.6190    1.1390   22.9790 C   0  0  0  0  0  0  0  0  0  0  0  0
   10.2030    1.2490   23.3370 C   0  0  0  0  0  0  0  0  0  0  0  0
    9.3900    0.0460   23.2650 C   0  0  0  0  0  0  0  0  0  0  0  0
    9.5990    2.5530   23.7350 C   0  0  0  0  0  0  0  0  0  0  0  0
   10.2010    3.5390   22.9510 C   0  0  0  0  0  0  0  0  0  0  0  0
   11.5840    3.5720   23.1750 C   0  0  2  0  0  0  0  0  0  0  0  0
   12.3130    4.8170   22.2670 S   0  0  0  0  0  0  0  0  0  0  0  0
   11.1210    6.0180   22.3110 N   0  0  0  0  0  0  0  0  0  0  0  0
   12.3610    4.4190   20.8860 O   0  0  0  0  0  0  0  0  0  0  0  0
   13.4450    5.4060   22.9350 O   0  0  0  0  0  0  0  0  0  0  0  0
   12.3680    2.4070   23.0120 C   0  0  0  0  0  0  0  0  0  0  0  0
    8.2570   -2.2750   21.5040 C   0  0  0  0  0  0  0  0  0  0  0  0
  1  2  1  0
  2  3  1  0
  3  4  2  0
  3  5  1  0
  5  6  1  0
  6  7  1  0
  7  8  1  0
  8  9  2  0
  9 10  1  0
 10 11  2  0
  7 12  2  0
 11 12  1  0
 12 13  1  0
 13 14  1  6
 14 15  2  0
 15 16  1  0
 16 17  2  0
 17 18  1  0
 14 19  1  0
 18 19  2  0
 18 20  1  0
 20 21  1  0
 21 22  1  0
 22 23  1  6
 23 24  1  0
 23 25  2  0
 23 26  2  0
 17 27  1  0
 22 27  1  0
  5 28  1  0
 13 28  1  0
M  END
