DAV-CRI-3fe943ba-2-nitrile
     RDKit          3D

 26 29  0  0  0  0  0  0  0  0999 V2000
    7.0120   -3.6900   19.9340 C   0  0  0  0  0  0  0  0  0  0  0  0
    5.8740   -3.5050   19.3900 N   0  0  0  0  0  0  0  0  0  0  0  0
    7.3280   -3.1710   21.1730 N   0  0  0  0  0  0  0  0  0  0  0  0
    6.6270   -3.4910   22.4490 C   0  0  0  0  0  0  0  0  0  0  0  0
    7.5500   -3.9060   23.4500 C   0  0  0  0  0  0  0  0  0  0  0  0
    7.3140   -5.0390   24.2560 C   0  0  0  0  0  0  0  0  0  0  0  0
    8.1920   -5.5200   25.2570 C   0  0  0  0  0  0  0  0  0  0  0  0
    9.4840   -4.7570   25.4530 C   0  0  0  0  0  0  0  0  0  0  0  0
    9.7790   -3.5350   24.6360 C   0  0  0  0  0  0  0  0  0  0  0  0
    8.7200   -3.1760   23.6440 C   0  0  0  0  0  0  0  0  0  0  0  0
    8.7870   -2.0040   22.7630 C   0  0  1  0  0  0  0  0  0  0  0  0
    9.8770   -0.9920   22.8440 C   0  0  0  0  0  0  0  0  0  0  0  0
   11.3560   -1.2720   22.5530 C   0  0  0  0  0  0  0  0  0  0  0  0
   12.2720   -0.1630   22.6120 C   0  0  0  0  0  0  0  0  0  0  0  0
   11.6570    1.1910   22.9540 C   0  0  0  0  0  0  0  0  0  0  0  0
   10.3260    1.3690   23.2330 C   0  0  0  0  0  0  0  0  0  0  0  0
    9.3910    0.2350   23.1800 C   0  0  0  0  0  0  0  0  0  0  0  0
    9.8240    2.6380   23.5520 C   0  0  0  0  0  0  0  0  0  0  0  0
   10.2770    3.6150   22.4740 C   0  0  0  0  0  0  0  0  0  0  0  0
   11.7880    3.6270   22.2960 C   0  0  1  0  0  0  0  0  0  0  0  0
   12.3070    5.2740   22.8420 S   0  0  0  0  0  0  0  0  0  0  0  0
   11.0320    6.2440   22.3710 N   0  0  0  0  0  0  0  0  0  0  0  0
   13.4280    5.7160   22.0380 O   0  0  0  0  0  0  0  0  0  0  0  0
   12.2860    5.3360   24.2880 O   0  0  0  0  0  0  0  0  0  0  0  0
   12.1590    2.5070   23.0630 C   0  0  0  0  0  0  0  0  0  0  0  0
    8.5380   -2.3220   21.2970 C   0  0  0  0  0  0  0  0  0  0  0  0
  1  2  2  3
  1  3  1  0
  3  4  1  0
  4  5  1  0
  5  6  1  0
  6  7  2  0
  7  8  1  0
  8  9  2  0
  5 10  2  0
  9 10  1  0
 10 11  1  0
 11 12  1  6
 12 13  2  0
 13 14  1  0
 14 15  2  0
 15 16  1  0
 12 17  1  0
 16 17  2  0
 16 18  1  0
 18 19  1  0
 19 20  1  0
 20 21  1  1
 21 22  1  0
 21 23  2  0
 21 24  2  0
 15 25  1  0
 20 25  1  0
  3 26  1  0
 11 26  1  0
M  END
