DAV-CRI-3edb475e-1-nitrile
     RDKit          3D

 13 13  0  0  0  0  0  0  0  0999 V2000
    7.5170   -3.3590   19.8790 C   0  0  0  0  0  0  0  0  0  0  0  0
    6.2720   -3.5310   19.5250 N   0  0  0  0  0  0  0  0  0  0  0  0
    8.0350   -3.2600   21.2130 N   0  0  0  0  0  0  0  0  0  0  0  0
    8.0750   -2.1990   22.2930 C   0  0  2  0  0  0  0  0  0  0  0  0
    7.2220   -1.1390   22.0060 C   0  0  0  0  0  0  0  0  0  0  0  0
    9.4660   -1.5550   22.5770 C   0  0  0  0  0  0  0  0  0  0  0  0
    9.6540   -0.4890   23.5070 C   0  0  0  0  0  0  0  0  0  0  0  0
   11.0460    0.1320   23.7570 C   0  0  0  0  0  0  0  0  0  0  0  0
   12.2600   -0.3760   23.0170 C   0  0  0  0  0  0  0  0  0  0  0  0
   13.3320    0.1480   23.2430 O   0  0  0  0  0  0  0  0  0  0  0  0
   12.0870   -1.4990   22.0400 C   0  0  0  0  0  0  0  0  0  0  0  0
   13.3410   -2.1720   21.1370 Cl  0  0  0  0  0  0  0  0  0  0  0  0
   10.6870   -2.0480   21.8580 C   0  0  0  0  0  0  0  0  0  0  0  0
  1  2  2  3
  1  3  1  0
  3  4  1  0
  4  5  1  6
  4  6  1  0
  6  7  2  0
  7  8  1  0
  8  9  2  0
  9 10  1  0
  9 11  1  0
 11 12  1  0
  6 13  1  0
 11 13  2  0
M  END
