DAV-CRI-d1e0885a-1-nitrile
     RDKit          3D

 16 17  0  0  0  0  0  0  0  0999 V2000
    6.7810   -3.5910   19.9530 C   0  0  0  0  0  0  0  0  0  0  0  0
    5.7920   -4.3990   19.8630 N   0  0  0  0  0  0  0  0  0  0  0  0
    6.8340   -2.6620   20.9600 N   0  0  0  0  0  0  0  0  0  0  0  0
    6.5480   -3.0250   22.3290 C   0  0  0  0  0  0  0  0  0  0  0  0
    7.7450   -3.3640   22.9790 C   0  0  0  0  0  0  0  0  0  0  0  0
    8.6180   -2.1540   22.9700 N   0  0  0  0  0  0  0  0  0  0  0  0
    9.9450   -2.4870   23.5280 C   0  0  0  0  0  0  0  0  0  0  0  0
   10.8290   -1.4140   23.4760 C   0  0  0  0  0  0  0  0  0  0  0  0
   10.4400    0.1110   24.3360 S   0  0  0  0  0  0  0  0  0  0  0  0
   11.8880    1.0050   23.8510 C   0  0  0  0  0  0  0  0  0  0  0  0
   12.6950    0.0650   23.0110 C   0  0  0  0  0  0  0  0  0  0  0  0
   12.0650   -1.2950   22.8190 C   0  0  0  0  0  0  0  0  0  0  0  0
   12.8010   -2.3180   21.9790 C   0  0  0  0  0  0  0  0  0  0  0  0
   13.4400   -1.7070   20.9200 N   0  0  0  0  0  0  0  0  0  0  0  0
    8.7900   -1.6060   21.6950 C   0  0  0  0  0  0  0  0  0  0  0  0
    7.4970   -1.4600   20.8820 C   0  0  0  0  0  0  0  0  0  0  0  0
  1  2  2  3
  1  3  1  0
  3  4  1  0
  4  5  1  0
  5  6  1  0
  6  7  1  0
  7  8  1  0
  8  9  1  0
  9 10  1  0
 10 11  2  0
  8 12  2  0
 11 12  1  0
 12 13  1  0
 13 14  3  0
  6 15  1  0
  3 16  1  0
 15 16  1  0
M  END
