DAV-CRI-7ebcceed-1-nitrile
     RDKit          3D

 21 22  0  0  0  0  0  0  0  0999 V2000
    6.7570   -3.9510   19.9610 C   0  0  0  0  0  0  0  0  0  0  0  0
    5.7210   -3.5830   19.3270 N   0  0  0  0  0  0  0  0  0  0  0  0
    6.8140   -4.0760   21.3330 N   0  0  0  0  0  0  0  0  0  0  0  0
    6.4260   -5.3530   21.9590 C   0  0  0  0  0  0  0  0  0  0  0  0
    6.4320   -5.1960   23.4910 C   0  0  0  0  0  0  0  0  0  0  0  0
    6.3810   -3.7720   24.0910 C   0  0  1  0  0  0  0  0  0  0  0  0
    6.6110   -3.6240   25.5260 C   0  0  0  0  0  0  0  0  0  0  0  0
    5.3020   -3.3340   25.7780 O   0  0  0  0  0  0  0  0  0  0  0  0
    7.1480   -3.5830   26.5630 N   0  0  0  0  0  0  0  0  0  0  0  0
    7.6680   -2.2420   26.8820 C   0  0  0  0  0  0  0  0  0  0  0  0
    7.7040   -4.8610   27.0460 C   0  0  0  0  0  0  0  0  0  0  0  0
    6.8150   -5.5090   27.8640 C   0  0  0  0  0  0  0  0  0  0  0  0
    9.1200   -4.6870   27.4880 C   0  0  0  0  0  0  0  0  0  0  0  0
    7.3450   -2.8240   23.3170 C   0  0  2  0  0  0  0  0  0  0  0  0
    6.9030   -1.4080   23.3130 C   0  0  0  0  0  0  0  0  0  0  0  0
    5.4930   -1.2700   22.6940 C   0  0  1  0  0  0  0  0  0  0  0  0
    5.1490    0.1730   22.4430 C   0  0  0  0  0  0  0  0  0  0  0  0
    4.8430    0.6170   21.0620 C   0  0  0  0  0  0  0  0  0  0  0  0
    4.9160   -0.4960   20.0290 C   0  0  0  0  0  0  0  0  0  0  0  0
    5.3590   -1.9170   20.9940 S   0  0  0  0  0  0  0  0  0  0  0  0
    7.8290   -3.3570   22.1140 C   0  0  0  0  0  0  0  0  0  0  0  0
  1  2  2  3
  1  3  1  0
  3  4  1  0
  4  5  1  0
  5  6  1  0
  6  7  1  1
  7  8  2  0
  7  9  1  0
  9 10  1  0
  9 11  1  0
 11 12  1  0
 11 13  1  0
  6 14  1  0
 14 15  1  6
 16 15  1  6
 16 17  1  0
 17 18  2  0
 18 19  1  0
 16 20  1  0
 19 20  2  0
  3 21  1  0
 14 21  1  0
M  END
