DAV-CRI-f9b12666-8-nitrile
     RDKit          3D

 40 43  0  0  0  0  0  0  0  0999 V2000
    6.6450   -4.2120   20.1570 C   0  0  0  0  0  0  0  0  0  0  0  0
    5.6170   -3.7560   19.5570 N   0  0  0  0  0  0  0  0  0  0  0  0
    6.7620   -4.1490   21.5150 N   0  0  0  0  0  0  0  0  0  0  0  0
    7.8230   -3.4200   22.1840 C   0  0  0  0  0  0  0  0  0  0  0  0
    7.8960   -3.9720   23.6010 C   0  0  2  0  0  0  0  0  0  0  0  0
    9.2150   -3.5180   24.1090 C   0  0  0  0  0  0  0  0  0  0  0  0
    9.4580   -2.1560   23.8740 N   0  0  0  0  0  0  0  0  0  0  0  0
   10.7740   -1.9140   24.3650 C   0  0  0  0  0  0  0  0  0  0  0  0
   11.6500   -0.6730   24.4160 C   0  0  0  0  0  0  0  0  0  0  0  0
   11.4640    0.8280   23.9800 C   0  0  0  0  0  0  0  0  0  0  0  0
   12.6180    1.3180   23.2110 C   0  0  0  0  0  0  0  0  0  0  0  0
   12.7840    2.6100   22.7250 C   0  0  0  0  0  0  0  0  0  0  0  0
   11.7640    3.5690   22.9700 C   0  0  0  0  0  0  0  0  0  0  0  0
   11.7950    4.8980   22.5360 O   0  0  0  0  0  0  0  0  0  0  0  0
   10.6410    3.2270   23.6860 C   0  0  0  0  0  0  0  0  0  0  0  0
    9.7070    4.7010   23.7940 S   0  0  0  0  0  0  0  0  0  0  0  0
    8.5780    4.5810   22.5680 N   0  0  0  0  0  0  0  0  0  0  0  0
   10.5830    5.8010   23.4050 O   0  0  0  0  0  0  0  0  0  0  0  0
    8.9810    4.8270   25.0580 O   0  0  0  0  0  0  0  0  0  0  0  0
   10.3320    1.8710   24.2580 C   0  0  0  0  0  0  0  0  0  0  0  0
   12.9010   -0.9150   24.9610 C   0  0  0  0  0  0  0  0  0  0  0  0
   13.4250   -2.1230   25.4680 C   0  0  0  0  0  0  0  0  0  0  0  0
   12.6690   -3.2490   25.4700 C   0  0  0  0  0  0  0  0  0  0  0  0
   11.4230   -3.1380   24.9450 C   0  0  0  0  0  0  0  0  0  0  0  0
   10.3560   -4.5410   24.8880 S   0  0  0  0  0  0  0  0  0  0  0  0
    7.8670   -5.3480   23.9070 C   0  0  0  0  0  0  0  0  0  0  0  0
    7.1040   -5.9850   22.9360 C   0  0  0  0  0  0  0  0  0  0  0  0
    6.0780   -5.0070   22.4550 C   0  0  2  0  0  0  0  0  0  0  0  0
    4.9100   -5.6860   22.0280 N   0  0  0  0  0  0  0  0  0  0  0  0
    3.8820   -5.5650   22.9430 C   0  0  0  0  0  0  0  0  0  0  0  0
    3.5290   -4.4620   23.3650 O   0  0  0  0  0  0  0  0  0  0  0  0
    3.2710   -6.8790   23.4220 C   0  0  2  0  0  0  0  0  0  0  0  0
    2.2310   -7.6280   22.5700 C   0  0  0  0  0  0  0  0  0  0  0  0
    0.9070   -7.0060   22.2330 C   0  0  0  0  0  0  0  0  0  0  0  0
    0.1370   -7.9140   21.3450 N   0  0  0  0  0  0  0  0  0  0  0  0
    0.4650   -5.9290   22.5820 O   0  0  0  0  0  0  0  0  0  0  0  0
    2.5450   -6.5860   24.6760 N   0  0  0  0  0  0  0  0  0  0  0  0
    2.8760   -7.6030   25.6370 C   0  0  1  0  0  0  0  0  0  0  0  0
    3.9210   -7.2210   26.6800 C   0  0  0  0  0  0  0  0  0  0  0  0
    1.6480   -8.0380   26.2500 N   0  0  0  0  0  0  0  0  0  0  0  0
  1  2  2  3
  1  3  1  0
  3  4  1  0
  4  5  1  0
  5  6  1  6
  6  7  2  0
  7  8  1  0
  8  9  2  0
  9 10  1  0
 10 11  2  0
 11 12  1  0
 12 13  2  0
 13 14  1  0
 13 15  1  0
 15 16  1  0
 16 17  1  0
 16 18  2  0
 16 19  2  0
 10 20  1  0
 15 20  2  0
  9 21  1  0
 21 22  2  0
 22 23  1  0
  8 24  1  0
 23 24  2  0
  6 25  1  0
 24 25  1  0
  5 26  1  0
 26 27  1  0
  3 28  1  0
 27 28  1  0
 28 29  1  6
 29 30  1  0
 30 31  2  0
 30 32  1  0
 32 33  1  6
 33 34  1  0
 34 35  1  0
 34 36  2  0
 32 37  1  0
 37 38  1  0
 38 39  1  1
 38 40  1  0
M  END
