DAV-CRI-d1e0885a-2-vinylsulfonamide
     RDKit          3D

 23 24  0  0  0  0  0  0  0  0999 V2000
    8.1260   -3.6440   19.9330 C   0  0  0  0  0  0  0  0  0  0  0  0
    6.9530   -2.8060   19.5550 C   0  0  0  0  0  0  0  0  0  0  0  0
    5.6110   -3.6560   20.2920 S   0  0  0  0  0  0  0  0  0  0  0  0
    4.5160   -2.9630   19.7680 O   0  0  0  0  0  0  0  0  0  0  0  0
    5.6640   -5.0590   19.9970 O   0  0  0  0  0  0  0  0  0  0  0  0
    5.7690   -3.3940   21.9700 N   0  0  0  0  0  0  0  0  0  0  0  0
    6.9090   -4.0480   22.6280 C   0  0  0  0  0  0  0  0  0  0  0  0
    8.0720   -3.0950   22.9760 C   0  0  0  0  0  0  0  0  0  0  0  0
    7.6880   -1.6780   23.2220 N   0  0  0  0  0  0  0  0  0  0  0  0
    8.8470   -0.7460   23.1370 C   0  0  0  0  0  0  0  0  0  0  0  0
   10.2660   -1.3660   23.2050 C   0  0  0  0  0  0  0  0  0  0  0  0
   10.8520   -2.0530   22.1780 C   0  0  0  0  0  0  0  0  0  0  0  0
   12.1550   -2.4050   22.7800 C   0  0  0  0  0  0  0  0  0  0  0  0
   11.3780   -1.5820   23.6360 N   0  0  0  0  0  0  0  0  0  0  0  0
   11.5740   -0.1000   23.4380 C   0  0  0  0  0  0  0  0  0  0  0  0
   13.0100    0.1700   22.9720 C   0  0  0  0  0  0  0  0  0  0  0  0
   12.9140   -2.3170   23.8100 N   0  0  0  0  0  0  0  0  0  0  0  0
   12.4810   -1.6520   24.9370 C   0  0  0  0  0  0  0  0  0  0  0  0
   11.0090   -1.1940   24.4620 C   0  0  0  0  0  0  0  0  0  0  0  0
   10.2260   -0.4920   25.3750 C   0  0  0  0  0  0  0  0  0  0  0  0
    9.5200    0.0530   26.1120 N   0  0  0  0  0  0  0  0  0  0  0  0
    6.7350   -1.3160   22.3810 C   0  0  0  0  0  0  0  0  0  0  0  0
    5.5430   -2.0130   22.4300 C   0  0  0  0  0  0  0  0  0  0  0  0
  1  2  1  0
  3  2  1  0
  3  4  2  0
  3  5  2  0
  3  6  1  0
  6  7  1  0
  7  8  1  0
  8  9  1  0
  9 10  1  0
 10 11  1  0
 11 12  2  0
 12 13  1  0
 13 14  1  0
 14 15  1  0
 15 16  1  0
 13 17  2  0
 17 18  1  0
 11 19  1  0
 18 19  2  0
 19 20  1  0
 20 21  3  0
  9 22  1  0
  6 23  1  0
 22 23  1  0
M  END
