DAV-CRI-14a23e73-2-acrylamide
     RDKit          3D

 25 26  0  0  0  0  0  0  0  0999 V2000
    8.5180   -5.1120   20.5720 C   0  0  0  0  0  0  0  0  0  0  0  0
    7.0090   -5.3480   20.6510 C   0  0  0  0  0  0  0  0  0  0  0  0
    6.4040   -4.1420   21.3280 C   0  0  0  0  0  0  0  0  0  0  0  0
    5.1870   -3.9160   21.3610 O   0  0  0  0  0  0  0  0  0  0  0  0
    7.3380   -3.3100   21.9070 N   0  0  0  0  0  0  0  0  0  0  0  0
    7.9740   -3.4690   23.2400 C   0  0  1  0  0  0  0  0  0  0  0  0
    7.0460   -3.4300   24.3160 C   0  0  0  0  0  0  0  0  0  0  0  0
    9.1070   -4.5360   23.2820 C   0  0  0  0  0  0  0  0  0  0  0  0
    8.9590   -5.9860   23.3430 C   0  0  0  0  0  0  0  0  0  0  0  0
    7.4750   -5.6350   23.3590 C   0  0  0  0  0  0  0  0  0  0  0  0
    5.8750   -4.9780   23.3650 Cl  0  0  0  0  0  0  0  0  0  0  0  0
    7.8280   -4.0390   23.2860 C   0  0  0  0  0  0  0  0  0  0  0  0
    9.2290   -3.2550   23.2300 C   0  0  0  0  0  0  0  0  0  0  0  0
    9.4220   -1.7310   23.1560 C   0  0  0  0  0  0  0  0  0  0  0  0
    8.2350   -0.9160   23.1620 C   0  0  0  0  0  0  0  0  0  0  0  0
    8.4420    0.6010   23.0900 C   0  0  0  0  0  0  0  0  0  0  0  0
    9.6900    1.2310   23.0220 C   0  0  0  0  0  0  0  0  0  0  0  0
    9.9520    2.9330   22.9540 S   0  0  0  0  0  0  0  0  0  0  0  0
    8.7120    3.4920   21.9380 N   0  0  0  0  0  0  0  0  0  0  0  0
   11.1950    3.2030   22.2700 O   0  0  0  0  0  0  0  0  0  0  0  0
    9.7050    3.4850   24.2670 O   0  0  0  0  0  0  0  0  0  0  0  0
   10.9160    0.3340   23.0160 C   0  0  0  0  0  0  0  0  0  0  0  0
   12.1850    0.8280   22.9530 O   0  0  0  0  0  0  0  0  0  0  0  0
   10.7010   -1.1580   23.0860 C   0  0  0  0  0  0  0  0  0  0  0  0
   10.3450   -3.9870   23.2520 C   0  0  0  0  0  0  0  0  0  0  0  0
  1  2  1  0
  2  3  1  0
  3  4  2  0
  3  5  1  0
  5  6  1  0
  6  7  1  1
  6  8  1  0
  8  9  2  0
  9 10  1  0
 10 11  1  0
 10 12  2  0
 12 13  1  0
 13 14  1  0
 14 15  2  0
 15 16  1  0
 16 17  2  0
 17 18  1  0
 18 19  1  0
 18 20  2  0
 18 21  2  0
 17 22  1  0
 22 23  1  0
 14 24  1  0
 22 24  2  0
  8 25  1  0
 13 25  2  0
M  END
