DAV-CRI-25b90884-3-nitrile
     RDKit          3D

 25 26  0  0  0  0  0  0  0  0999 V2000
    7.0510   -3.7840   20.0980 C   0  0  0  0  0  0  0  0  0  0  0  0
    6.3810   -3.1270   19.2250 N   0  0  0  0  0  0  0  0  0  0  0  0
    7.8610   -3.3920   21.2000 N   0  0  0  0  0  0  0  0  0  0  0  0
    7.9380   -2.1150   21.9880 C   0  0  1  0  0  0  0  0  0  0  0  0
    6.9160   -2.0390   23.1230 C   0  0  0  0  0  0  0  0  0  0  0  0
    5.8530   -0.9240   23.0010 C   0  0  0  0  0  0  0  0  0  0  0  0
    6.2620    0.5110   22.7040 C   0  0  1  0  0  0  0  0  0  0  0  0
    7.6380    0.8890   23.0300 N   0  0  0  0  0  0  0  0  0  0  0  0
    8.5900    1.0020   22.0360 C   0  0  0  0  0  0  0  0  0  0  0  0
    9.3950   -0.1140   21.9010 C   0  0  0  0  0  0  0  0  0  0  0  0
    8.7430    2.1130   21.2560 O   0  0  0  0  0  0  0  0  0  0  0  0
    6.1210    0.6600   21.1780 C   0  0  0  0  0  0  0  0  0  0  0  0
    6.9440   -0.2820   20.3530 C   0  0  0  0  0  0  0  0  0  0  0  0
    6.8420   -0.1670   18.8680 C   0  0  0  0  0  0  0  0  0  0  0  0
    5.9120    0.8970   18.3350 C   0  0  0  0  0  0  0  0  0  0  0  0
    5.7800    1.0600   16.9570 O   0  0  0  0  0  0  0  0  0  0  0  0
    5.1790    1.7310   19.1820 C   0  0  0  0  0  0  0  0  0  0  0  0
    5.2760    1.6200   20.5760 C   0  0  0  0  0  0  0  0  0  0  0  0
    9.3670   -1.7600   22.4860 C   0  0  0  0  0  0  0  0  0  0  0  0
    9.5720   -0.9810   23.6510 C   0  0  0  0  0  0  0  0  0  0  0  0
   10.8290   -0.5960   24.1460 C   0  0  0  0  0  0  0  0  0  0  0  0
   12.0350   -0.9450   23.5320 C   0  0  0  0  0  0  0  0  0  0  0  0
   11.9010   -1.8020   22.2600 C   0  0  0  0  0  0  0  0  0  0  0  0
   13.2240   -2.3380   21.3470 Cl  0  0  0  0  0  0  0  0  0  0  0  0
   10.5080   -2.1600   21.8280 C   0  0  0  0  0  0  0  0  0  0  0  0
  1  2  2  3
  1  3  1  0
  3  4  1  0
  4  5  1  1
  5  6  3  0
  7  6  1  6
  7  8  1  0
  8  9  1  0
  9 10  1  0
  9 11  2  0
  7 12  1  0
 12 13  2  0
 13 14  1  0
 14 15  2  0
 15 16  1  0
 15 17  1  0
 12 18  1  0
 17 18  2  0
  4 19  1  0
 19 20  2  0
 20 21  1  0
 21 22  2  0
 22 23  1  0
 23 24  1  0
 19 25  1  0
 23 25  2  0
M  END
