DAV-CRI-14a23e73-4-vinylsulfonamide
     RDKit          3D

 26 27  0  0  0  0  0  0  0  0999 V2000
    6.1480   -4.5180   20.1170 C   0  0  0  0  0  0  0  0  0  0  0  0
    6.6310   -3.1070   19.8280 C   0  0  0  0  0  0  0  0  0  0  0  0
    5.8700   -2.1770   21.1130 S   0  0  0  0  0  0  0  0  0  0  0  0
    4.7840   -3.1500   21.5590 O   0  0  0  0  0  0  0  0  0  0  0  0
    5.4950   -0.9050   20.5420 O   0  0  0  0  0  0  0  0  0  0  0  0
    7.2710   -1.7640   22.1480 N   0  0  0  0  0  0  0  0  0  0  0  0
    8.6000   -1.5740   21.4310 C   0  0  2  0  0  0  0  0  0  0  0  0
    8.7150   -2.8910   20.7930 C   0  0  0  0  0  0  0  0  0  0  0  0
   10.0100   -1.2310   22.1270 C   0  0  0  0  0  0  0  0  0  0  0  0
   11.0880   -2.0070   22.3750 C   0  0  0  0  0  0  0  0  0  0  0  0
   12.3430   -1.6800   23.0190 C   0  0  0  0  0  0  0  0  0  0  0  0
   13.5020   -2.8720   23.2180 Cl  0  0  0  0  0  0  0  0  0  0  0  0
   12.8350   -0.4560   23.5570 C   0  0  0  0  0  0  0  0  0  0  0  0
   11.5900    0.2800   23.1770 C   0  0  0  0  0  0  0  0  0  0  0  0
   11.4490    1.6920   23.4120 C   0  0  0  0  0  0  0  0  0  0  0  0
   12.5170    2.6560   22.9730 C   0  0  0  0  0  0  0  0  0  0  0  0
   12.1760    3.9850   23.1720 C   0  0  0  0  0  0  0  0  0  0  0  0
   10.9350    4.3030   23.7450 C   0  0  0  0  0  0  0  0  0  0  0  0
   10.4460    5.9620   23.9640 S   0  0  0  0  0  0  0  0  0  0  0  0
    9.1080    5.9110   22.9540 N   0  0  0  0  0  0  0  0  0  0  0  0
   11.4300    6.7970   23.3450 O   0  0  0  0  0  0  0  0  0  0  0  0
    9.9840    6.1030   25.3220 O   0  0  0  0  0  0  0  0  0  0  0  0
   10.0010    3.3720   24.1640 C   0  0  0  0  0  0  0  0  0  0  0  0
    8.7740    3.7490   24.7450 C   0  0  0  0  0  0  0  0  0  0  0  0
   10.2770    2.0640   23.9880 C   0  0  0  0  0  0  0  0  0  0  0  0
   10.3740   -0.0390   22.5720 C   0  0  0  0  0  0  0  0  0  0  0  0
  1  2  1  0
  2  3  1  0
  3  4  2  0
  3  5  2  0
  3  6  1  0
  6  7  1  0
  7  8  1  1
  7  9  1  0
  9 10  2  0
 10 11  1  0
 11 12  1  0
 11 13  2  0
 13 14  1  0
 14 15  1  0
 15 16  2  0
 16 17  1  0
 17 18  2  0
 18 19  1  0
 19 20  1  0
 19 21  2  0
 19 22  2  0
 18 23  1  0
 23 24  1  0
 15 25  1  0
 23 25  2  0
  9 26  1  0
 14 26  2  0
M  END
