DEM-REL-172c3d60-1
     RDKit          3D

 25 27  0  0  0  0  0  0  0  0999 V2000
    7.7340   -0.3080   20.1690 O   0  0  0  0  0  0  0  0  0  0  0  0
    7.5880   -1.5330   20.1000 C   0  0  0  0  0  0  0  0  0  0  0  0
    6.6000   -2.0830   19.1490 C   0  0  0  0  0  0  0  0  0  0  0  0
    5.8400   -3.1320   19.9220 C   0  0  0  0  0  0  0  0  0  0  0  0
    5.1890   -4.0460   19.4150 O   0  0  0  0  0  0  0  0  0  0  0  0
    6.0480   -2.9590   21.4200 C   0  0  0  0  0  0  0  0  0  0  0  0
    7.4090   -3.5100   21.7150 C   0  0  0  0  0  0  0  0  0  0  0  0
    7.7380   -3.6870   23.0490 C   0  0  1  0  0  0  0  0  0  0  0  0
    7.8880   -2.3560   23.6260 N   0  0  0  0  0  0  0  0  0  0  0  0
    7.9960   -2.1720   25.2870 S   0  0  0  0  0  0  0  0  0  0  0  0
    9.1280   -1.3220   25.5190 O   0  0  0  0  0  0  0  0  0  0  0  0
    6.6780   -1.8620   25.7900 O   0  0  0  0  0  0  0  0  0  0  0  0
    8.4400   -3.7550   25.9390 C   0  0  0  0  0  0  0  0  0  0  0  0
    9.2160   -4.8010   25.4640 C   0  0  0  0  0  0  0  0  0  0  0  0
    9.2900   -5.8620   26.3410 C   0  0  0  0  0  0  0  0  0  0  0  0
    8.5760   -5.6640   27.5150 C   0  0  0  0  0  0  0  0  0  0  0  0
    7.8110   -4.1280   27.4970 S   0  0  0  0  0  0  0  0  0  0  0  0
    6.8730   -4.5670   23.7130 C   0  0  0  0  0  0  0  0  0  0  0  0
    7.0190   -5.9500   23.4910 C   0  0  0  0  0  0  0  0  0  0  0  0
    6.1830   -6.8660   24.1170 C   0  0  0  0  0  0  0  0  0  0  0  0
    5.1840   -6.4090   24.9790 C   0  0  0  0  0  0  0  0  0  0  0  0
    4.3710   -7.2800   25.5850 F   0  0  0  0  0  0  0  0  0  0  0  0
    5.0220   -5.0480   25.2150 C   0  0  0  0  0  0  0  0  0  0  0  0
    5.8600   -4.1410   24.5860 C   0  0  0  0  0  0  0  0  0  0  0  0
    8.3440   -2.5310   20.9830 C   0  0  0  0  0  0  0  0  0  0  0  0
  1  2  2  0
  2  3  1  0
  3  4  1  0
  4  5  2  0
  4  6  1  0
  6  7  1  0
  7  8  1  0
  8  9  1  1
 10  9  1  0
 10 11  2  0
 10 12  2  0
 10 13  1  0
 13 14  2  0
 14 15  1  0
 15 16  2  0
 13 17  1  0
 16 17  1  0
  8 18  1  0
 18 19  2  0
 19 20  1  0
 20 21  2  0
 21 22  1  0
 21 23  1  0
 18 24  1  0
 23 24  2  0
  2 25  1  0
  7 25  1  0
M  END
