DEM-REL-172c3d60-2
     RDKit          3D

 24 26  0  0  0  0  0  0  0  0999 V2000
    6.8500    0.1980   18.5610 O   0  0  0  0  0  0  0  0  0  0  0  0
    6.6360   -0.6450   19.4370 C   0  0  0  0  0  0  0  0  0  0  0  0
    5.9530   -1.9010   19.0340 C   0  0  0  0  0  0  0  0  0  0  0  0
    5.8140   -2.9930   20.1020 C   0  0  0  0  0  0  0  0  0  0  0  0
    5.3730   -4.1120   19.7830 O   0  0  0  0  0  0  0  0  0  0  0  0
    6.2600   -2.6620   21.5540 C   0  0  0  0  0  0  0  0  0  0  0  0
    7.4850   -1.7410   21.5690 C   0  0  0  0  0  0  0  0  0  0  0  0
    8.1270   -1.5320   22.8100 C   0  0  1  0  0  0  0  0  0  0  0  0
    7.9970   -2.6660   23.7590 N   0  0  0  0  0  0  0  0  0  0  0  0
    7.8890   -2.4680   25.1280 C   0  0  0  0  0  0  0  0  0  0  0  0
    7.6160   -1.3500   25.5500 O   0  0  0  0  0  0  0  0  0  0  0  0
    8.0990   -3.5630   25.9750 C   0  0  0  0  0  0  0  0  0  0  0  0
    8.5710   -4.8110   25.6160 C   0  0  0  0  0  0  0  0  0  0  0  0
    8.6940   -5.6880   26.6750 C   0  0  0  0  0  0  0  0  0  0  0  0
    8.3000   -5.1320   27.8850 C   0  0  0  0  0  0  0  0  0  0  0  0
    7.7840   -3.5060   27.6730 S   0  0  0  0  0  0  0  0  0  0  0  0
    9.6190   -1.2690   22.6730 C   0  0  0  0  0  0  0  0  0  0  0  0
   10.3770   -2.0720   21.8370 C   0  0  0  0  0  0  0  0  0  0  0  0
   11.7460   -1.8920   21.6840 C   0  0  0  0  0  0  0  0  0  0  0  0
   12.3830   -0.8790   22.3740 C   0  0  0  0  0  0  0  0  0  0  0  0
   13.6750   -0.6900   22.2430 F   0  0  0  0  0  0  0  0  0  0  0  0
   11.6420   -0.0750   23.1920 C   0  0  0  0  0  0  0  0  0  0  0  0
   10.2610   -0.2390   23.3680 C   0  0  0  0  0  0  0  0  0  0  0  0
    7.0680   -0.4340   20.8790 C   0  0  0  0  0  0  0  0  0  0  0  0
  1  2  2  0
  2  3  1  0
  3  4  1  0
  4  5  2  0
  4  6  1  0
  6  7  1  0
  7  8  1  0
  8  9  1  1
  9 10  1  0
 10 11  2  0
 10 12  1  0
 12 13  2  0
 13 14  1  0
 14 15  2  0
 12 16  1  0
 15 16  1  0
  8 17  1  0
 17 18  2  0
 18 19  1  0
 19 20  2  0
 20 21  1  0
 20 22  1  0
 17 23  1  0
 22 23  2  0
  2 24  1  0
  7 24  1  0
M  END
