DEN-EUR-293438d2-1
     RDKit          3D

 15 16  0  0  0  0  0  0  0  0999 V2000
   11.2730    0.6000   24.5030 O   0  0  0  0  0  0  0  0  0  0  0  0
   10.5530    1.1980   23.7100 C   0  0  0  0  0  0  0  0  0  0  0  0
    9.8770    0.5900   22.6790 O   0  0  0  0  0  0  0  0  0  0  0  0
   10.3220    2.6730   23.7250 C   0  0  0  0  0  0  0  0  0  0  0  0
    9.2130    2.0250   24.4640 C   0  0  0  0  0  0  0  0  0  0  0  0
    9.3850    0.6660   24.5660 N   0  0  0  0  0  0  0  0  0  0  0  0
   10.6270    0.0810   24.1710 C   0  0  0  0  0  0  0  0  0  0  0  0
   10.8980   -1.2670   24.4440 C   0  0  0  0  0  0  0  0  0  0  0  0
   12.0990   -1.8920   24.0860 C   0  0  0  0  0  0  0  0  0  0  0  0
   12.2720   -3.1790   24.3920 F   0  0  0  0  0  0  0  0  0  0  0  0
   13.0910   -1.1900   23.4210 C   0  0  0  0  0  0  0  0  0  0  0  0
   13.0180    0.2850   23.0180 C   0  0  0  0  0  0  0  0  0  0  0  0
   11.6560    0.8610   23.4690 C   0  0  0  0  0  0  0  0  0  0  0  0
   11.4600    2.3500   23.1220 C   0  0  0  0  0  0  0  0  0  0  0  0
   12.1500    3.1130   22.4620 O   0  0  0  0  0  0  0  0  0  0  0  0
  1  2  2  0
  2  3  1  0
  2  4  1  0
  4  5  2  0
  5  6  1  0
  6  7  1  0
  7  8  1  0
  8  9  2  0
  9 10  1  0
  9 11  1  0
 11 12  2  0
  7 13  2  0
 12 13  1  0
  4 14  1  0
 13 14  1  0
 14 15  2  0
M  END
