DEN-EUR-293438d2-2
     RDKit          3D

 17 18  0  0  0  0  0  0  0  0999 V2000
    9.7640    1.1840   22.4380 O   0  0  0  0  0  0  0  0  0  0  0  0
   10.3540    1.7990   23.3380 C   0  0  0  0  0  0  0  0  0  0  0  0
   10.9710    1.2130   24.4040 O   0  0  0  0  0  0  0  0  0  0  0  0
   10.4760    3.2790   23.3550 C   0  0  0  0  0  0  0  0  0  0  0  0
    9.1270    2.8840   23.8200 C   0  0  0  0  0  0  0  0  0  0  0  0
    8.9730    1.5120   23.8540 N   0  0  0  0  0  0  0  0  0  0  0  0
   10.0940    0.6550   23.6310 C   0  0  0  0  0  0  0  0  0  0  0  0
   10.0050   -0.7390   23.8210 C   0  0  0  0  0  0  0  0  0  0  0  0
    8.8310   -1.2670   24.2170 F   0  0  0  0  0  0  0  0  0  0  0  0
   11.0990   -1.6070   23.6110 C   0  0  0  0  0  0  0  0  0  0  0  0
   10.9170   -2.9180   23.8200 F   0  0  0  0  0  0  0  0  0  0  0  0
   12.3660   -1.1670   23.1970 C   0  0  0  0  0  0  0  0  0  0  0  0
   13.3500   -2.0570   23.0210 F   0  0  0  0  0  0  0  0  0  0  0  0
   12.6360    0.3270   22.9430 C   0  0  0  0  0  0  0  0  0  0  0  0
   11.3830    1.1950   23.1970 C   0  0  0  0  0  0  0  0  0  0  0  0
   11.6060    2.7020   22.9540 C   0  0  0  0  0  0  0  0  0  0  0  0
   12.5700    3.2900   22.4930 O   0  0  0  0  0  0  0  0  0  0  0  0
  1  2  2  0
  2  3  1  0
  2  4  1  0
  4  5  2  0
  5  6  1  0
  6  7  1  0
  7  8  1  0
  8  9  1  0
  8 10  2  0
 10 11  1  0
 10 12  1  0
 12 13  1  0
 12 14  2  0
  7 15  2  0
 14 15  1  0
  4 16  1  0
 15 16  1  0
 16 17  2  0
M  END
