DOU-UNK-b5326f8f-2
     RDKit          3D

 23 24  0  0  0  0  0  0  0  0999 V2000
    7.8880   -0.9220   25.4330 C   0  0  0  0  0  0  0  0  0  0  0  0
    7.2540   -2.1540   25.2280 C   0  0  0  0  0  0  0  0  0  0  0  0
    6.3680   -2.5290   26.0030 O   0  0  0  0  0  0  0  0  0  0  0  0
    7.6840   -2.9130   24.1340 N   0  0  0  0  0  0  0  0  0  0  0  0
    6.9070   -3.0360   22.8870 C   0  0  0  0  0  0  0  0  0  0  0  0
    6.3830   -1.6180   22.1920 C   0  0  0  0  0  0  0  0  0  0  0  0
    5.5470   -1.4150   20.8890 N   0  0  0  0  0  0  0  0  0  0  0  0
    5.4220   -2.7870   20.5710 C   0  0  0  0  0  0  0  0  0  0  0  0
    6.1950   -3.1840   21.7370 C   0  0  0  0  0  0  0  0  0  0  0  0
    6.6470   -2.0920   22.4930 C   0  0  0  0  0  0  0  0  0  0  0  0
    8.0060   -1.4250   22.1140 C   0  0  0  0  0  0  0  0  0  0  0  0
    9.0180   -2.2100   21.7670 N   0  0  0  0  0  0  0  0  0  0  0  0
    9.9180   -2.1400   22.8150 C   0  0  0  0  0  0  0  0  0  0  0  0
    9.9930   -3.0150   23.6720 O   0  0  0  0  0  0  0  0  0  0  0  0
   10.8330   -0.9650   22.9160 C   0  0  0  0  0  0  0  0  0  0  0  0
   10.1450    0.3130   23.4280 C   0  0  0  0  0  0  0  0  0  0  0  0
   10.8810    1.5230   23.5700 C   0  0  0  0  0  0  0  0  0  0  0  0
   12.3490    1.5770   23.2260 C   0  0  0  0  0  0  0  0  0  0  0  0
   13.0100    0.3130   22.7340 C   0  0  0  0  0  0  0  0  0  0  0  0
   12.1970   -0.9640   22.5880 C   0  0  0  0  0  0  0  0  0  0  0  0
   12.8150   -2.0700   22.1430 F   0  0  0  0  0  0  0  0  0  0  0  0
    6.5880   -4.3100   22.2650 C   0  0  0  0  0  0  0  0  0  0  0  0
    7.3260   -5.0940   23.3520 C   0  0  0  0  0  0  0  0  0  0  0  0
  1  2  1  0
  2  3  2  0
  2  4  1  0
  4  5  1  0
  5  6  2  0
  6  7  1  0
  7  8  2  0
  8  9  1  0
  9 10  1  0
 10 11  1  0
 11 12  1  0
 12 13  1  0
 13 14  2  0
 13 15  1  0
 15 16  2  0
 16 17  1  0
 17 18  2  0
 18 19  1  0
 15 20  1  0
 19 20  2  0
 20 21  1  0
  5 22  1  0
  9 22  2  0
 22 23  1  0
M  END
