DOU-UNK-b5326f8f-1-acrylamide
     RDKit          3D

 19 20  0  0  0  0  0  0  0  0999 V2000
    7.0390   -3.2940   19.3420 C   0  0  0  0  0  0  0  0  0  0  0  0
    5.7690   -2.7620   19.9930 C   0  0  0  0  0  0  0  0  0  0  0  0
    5.7530   -3.0920   21.4690 C   0  0  0  0  0  0  0  0  0  0  0  0
    4.7810   -3.6760   21.9730 O   0  0  0  0  0  0  0  0  0  0  0  0
    7.0430   -2.6740   22.2140 C   0  0  1  0  0  0  0  0  0  0  0  0
    6.9710   -1.2590   22.8550 C   0  0  0  0  0  0  0  0  0  0  0  0
    8.3010   -0.8980   23.6180 C   0  0  0  0  0  0  0  0  0  0  0  0
    8.8990   -1.7810   24.5910 C   0  0  2  0  0  0  0  0  0  0  0  0
   10.2530   -1.8270   24.3350 O   0  0  0  0  0  0  0  0  0  0  0  0
   10.9070   -0.6660   24.6800 C   0  0  0  0  0  0  0  0  0  0  0  0
   12.4020   -0.6860   24.5600 C   0  0  0  0  0  0  0  0  0  0  0  0
    8.4410   -3.2310   24.4050 C   0  0  0  0  0  0  0  0  0  0  0  0
    8.8770   -4.6710   25.4960 S   0  0  0  0  0  0  0  0  0  0  0  0
    7.9930   -4.5160   24.1770 C   0  0  0  0  0  0  0  0  0  0  0  0
    8.0480   -3.1680   23.8230 C   0  0  0  0  0  0  0  0  0  0  0  0
    9.0400   -2.8250   22.9160 N   0  0  0  0  0  0  0  0  0  0  0  0
    7.1780   -2.2530   24.3780 O   0  0  0  0  0  0  0  0  0  0  0  0
    7.2800   -5.2370   23.3900 C   0  0  0  0  0  0  0  0  0  0  0  0
    7.5470   -3.7070   23.2790 C   0  0  0  0  0  0  0  0  0  0  0  0
  1  2  1  0
  2  3  1  0
  3  4  2  0
  5  3  1  1
  5  6  1  0
  6  7  1  0
  7  8  1  0
  8  9  1  6
  9 10  1  0
 10 11  1  0
  8 12  1  0
 12 13  1  0
 13 14  1  0
 14 15  1  0
 15 16  1  0
 15 17  2  0
 14 18  2  0
  5 19  1  0
 12 19  2  0
 18 19  1  0
M  END
