DRA-CSI-3ab97369-15
     RDKit          3D

 19 21  0  0  0  0  0  0  0  0999 V2000
    8.4660   -0.2080   25.0820 O   0  0  0  0  0  0  0  0  0  0  0  0
    8.0960   -1.0020   25.9320 C   0  0  0  0  0  0  0  0  0  0  0  0
    8.1420   -2.3700   25.7990 N   0  0  0  0  0  0  0  0  0  0  0  0
    7.4820   -2.9740   24.7610 C   0  0  0  0  0  0  0  0  0  0  0  0
    7.8630   -3.6680   23.7930 N   0  0  0  0  0  0  0  0  0  0  0  0
    6.7680   -4.0240   23.0320 N   0  0  0  0  0  0  0  0  0  0  0  0
    5.4410   -3.7010   23.2460 C   0  0  0  0  0  0  0  0  0  0  0  0
    5.3950   -4.4910   22.0360 C   0  0  0  0  0  0  0  0  0  0  0  0
    5.4840   -3.6380   21.1210 C   0  0  0  0  0  0  0  0  0  0  0  0
    5.4300   -3.5020   22.5500 C   0  0  0  0  0  0  0  0  0  0  0  0
    5.3000   -4.8670   23.2730 C   0  0  0  0  0  0  0  0  0  0  0  0
    5.1670   -5.2690   25.1530 Br  0  0  0  0  0  0  0  0  0  0  0  0
    5.2730   -6.1060   22.0940 S   0  0  0  0  0  0  0  0  0  0  0  0
    5.8190   -2.7710   24.7340 S   0  0  0  0  0  0  0  0  0  0  0  0
    7.4950   -0.5440   27.2690 C   0  0  0  0  0  0  0  0  0  0  0  0
    7.2590    0.8160   27.2660 C   0  0  0  0  0  0  0  0  0  0  0  0
    7.8560    1.3260   28.4890 C   0  0  0  0  0  0  0  0  0  0  0  0
    8.4290    0.2340   29.1380 C   0  0  0  0  0  0  0  0  0  0  0  0
    8.2810   -0.9370   28.3760 C   0  0  0  0  0  0  0  0  0  0  0  0
  1  2  2  0
  2  3  1  0
  3  4  1  0
  4  5  2  0
  5  6  1  0
  6  7  2  0
  7  8  1  0
  8  9  2  0
  9 10  1  0
 10 11  2  0
 11 12  1  0
  8 13  1  0
 11 13  1  0
  4 14  1  0
  7 14  1  0
  2 15  1  0
 15 16  1  0
 16 17  1  0
 17 18  1  0
 15 19  1  0
 18 19  1  0
M  END
