DRA-CSI-3ab97369-10
     RDKit          3D

 31 35  0  0  0  0  0  0  0  0999 V2000
    2.0500  -10.2880   19.7280 C   0  0  0  0  0  0  0  0  0  0  0  0
    0.6340  -10.4890   19.8870 O   0  0  0  0  0  0  0  0  0  0  0  0
    0.0920   -9.6970   20.8190 C   0  0  0  0  0  0  0  0  0  0  0  0
   -1.1220   -9.7200   21.5310 C   0  0  0  0  0  0  0  0  0  0  0  0
   -1.5160   -8.7530   22.5320 C   0  0  0  0  0  0  0  0  0  0  0  0
   -0.5250   -7.7930   22.6990 C   0  0  0  0  0  0  0  0  0  0  0  0
   -0.3940   -6.7140   23.5050 C   0  0  0  0  0  0  0  0  0  0  0  0
   -1.0140   -5.8310   24.3800 N   0  0  0  0  0  0  0  0  0  0  0  0
    0.1240   -4.9530   24.7280 C   0  0  0  0  0  0  0  0  0  0  0  0
    0.2260   -3.7330   25.6450 C   0  0  0  0  0  0  0  0  0  0  0  0
    1.5100   -3.1470   25.7150 C   0  0  0  0  0  0  0  0  0  0  0  0
    2.6280   -3.7520   24.9150 C   0  0  0  0  0  0  0  0  0  0  0  0
    3.9200   -3.3160   24.8550 C   0  0  0  0  0  0  0  0  0  0  0  0
    4.4820   -2.8100   23.7840 C   0  0  0  0  0  0  0  0  0  0  0  0
    5.6000   -2.6610   24.4340 C   0  0  0  0  0  0  0  0  0  0  0  0
    6.7600   -2.2140   24.1780 C   0  0  0  0  0  0  0  0  0  0  0  0
    8.0300   -1.9460   24.6240 N   0  0  0  0  0  0  0  0  0  0  0  0
    8.4270   -0.7300   25.2800 C   0  0  0  0  0  0  0  0  0  0  0  0
    7.3870   -0.3210   26.3670 C   0  0  0  0  0  0  0  0  0  0  0  0
    7.7710   -0.2310   27.7100 C   0  0  0  0  0  0  0  0  0  0  0  0
    6.8430    0.1400   28.6850 C   0  0  0  0  0  0  0  0  0  0  0  0
    5.5210    0.4250   28.3260 C   0  0  0  0  0  0  0  0  0  0  0  0
    5.1310    0.3370   26.9900 C   0  0  0  0  0  0  0  0  0  0  0  0
    6.0550   -0.0340   26.0190 C   0  0  0  0  0  0  0  0  0  0  0  0
    6.4400   -2.7580   25.5790 N   0  0  0  0  0  0  0  0  0  0  0  0
    4.9850   -3.2940   25.8230 C   0  0  0  0  0  0  0  0  0  0  0  0
    2.4680   -4.8480   24.1200 C   0  0  0  0  0  0  0  0  0  0  0  0
    1.2410   -5.3870   24.0630 C   0  0  0  0  0  0  0  0  0  0  0  0
    0.9670   -6.4470   23.3180 O   0  0  0  0  0  0  0  0  0  0  0  0
    0.6590   -7.7890   21.9750 C   0  0  0  0  0  0  0  0  0  0  0  0
    0.9680   -8.7090   21.0560 C   0  0  0  0  0  0  0  0  0  0  0  0
  1  2  1  0
  2  3  1  0
  3  4  2  0
  4  5  1  0
  5  6  2  0
  6  7  1  0
  7  8  2  0
  8  9  1  0
  9 10  2  0
 10 11  1  0
 11 12  2  0
 12 13  1  0
 13 14  2  0
 14 15  1  0
 15 16  2  0
 16 17  1  0
 17 18  1  0
 18 19  1  0
 19 20  2  0
 20 21  1  0
 21 22  2  0
 22 23  1  0
 19 24  1  0
 23 24  2  0
 16 25  1  0
 13 26  1  0
 25 26  2  0
 12 27  1  0
  9 28  1  0
 27 28  2  0
  7 29  1  0
 28 29  1  0
  6 30  1  0
  3 31  1  0
 30 31  2  0
M  END
