DRA-CSI-7ec17797-3
     RDKit          3D

 29 32  0  0  0  0  0  0  0  0999 V2000
    7.3250    1.1110   16.7120 C   0  0  0  0  0  0  0  0  0  0  0  0
    6.7970    1.1610   18.0930 N   0  0  0  0  0  0  0  0  0  0  0  0
    5.3770    1.5880   18.0470 C   0  0  0  0  0  0  0  0  0  0  0  0
    6.9630   -0.0930   18.3860 C   0  0  0  0  0  0  0  0  0  0  0  0
    7.0660   -0.7310   19.5620 N   0  0  0  0  0  0  0  0  0  0  0  0
    7.2210   -2.0790   19.4970 C   0  0  0  0  0  0  0  0  0  0  0  0
    7.3370   -2.8560   20.6240 N   0  0  0  0  0  0  0  0  0  0  0  0
    6.0450   -3.2610   21.1080 C   0  0  0  0  0  0  0  0  0  0  0  0
    5.2930   -4.1310   20.6610 O   0  0  0  0  0  0  0  0  0  0  0  0
    5.7790   -2.4810   22.2200 C   0  0  0  0  0  0  0  0  0  0  0  0
    6.5090   -1.2790   22.3730 C   0  0  0  0  0  0  0  0  0  0  0  0
    7.9960   -1.3900   22.7060 C   0  0  0  0  0  0  0  0  0  0  0  0
    8.2530   -2.4090   23.7350 N   0  0  0  0  0  0  0  0  0  0  0  0
    9.6850   -2.7060   23.9240 C   0  0  0  0  0  0  0  0  0  0  0  0
   10.1280   -3.7640   24.3550 O   0  0  0  0  0  0  0  0  0  0  0  0
   10.6600   -1.5910   23.5550 C   0  0  0  0  0  0  0  0  0  0  0  0
   12.0840   -1.9690   23.2550 C   0  0  0  0  0  0  0  0  0  0  0  0
   13.0910   -0.9280   22.8880 C   0  0  0  0  0  0  0  0  0  0  0  0
   12.7170    0.5400   22.8220 C   0  0  0  0  0  0  0  0  0  0  0  0
   11.2810    0.9570   23.1180 C   0  0  0  0  0  0  0  0  0  0  0  0
   10.2370   -0.1180   23.4860 C   0  0  0  0  0  0  0  0  0  0  0  0
    7.3340   -3.5520   23.7260 C   0  0  0  0  0  0  0  0  0  0  0  0
    5.9780   -3.3980   23.4400 C   0  0  0  0  0  0  0  0  0  0  0  0
    7.2750   -2.8480   18.4380 N   0  0  0  0  0  0  0  0  0  0  0  0
    7.1680   -2.1370   17.3030 C   0  0  0  0  0  0  0  0  0  0  0  0
    7.1630   -2.5490   16.0300 N   0  0  0  0  0  0  0  0  0  0  0  0
    7.0300   -1.5140   15.2340 C   0  0  0  0  0  0  0  0  0  0  0  0
    6.9710   -0.4600   15.9870 N   0  0  0  0  0  0  0  0  0  0  0  0
    7.0280   -0.8200   17.2470 C   0  0  0  0  0  0  0  0  0  0  0  0
  1  2  1  0
  2  3  1  0
  2  4  1  0
  4  5  2  0
  5  6  1  0
  6  7  1  0
  7  8  1  0
  8  9  2  0
  8 10  1  0
 10 11  1  0
 11 12  1  0
 12 13  1  0
 13 14  1  0
 14 15  2  0
 14 16  1  0
 16 17  2  0
 17 18  1  0
 18 19  2  0
 19 20  1  0
 16 21  1  0
 20 21  2  0
 13 22  1  0
 10 23  1  0
 22 23  1  0
  6 24  2  0
 24 25  1  0
 25 26  1  0
 26 27  1  0
 27 28  2  0
  4 29  1  0
 25 29  2  0
 28 29  1  0
M  END
