DRA-CSI-3ab97369-1
     RDKit          3D

 35 39  0  0  0  0  0  0  0  0999 V2000
    5.6300   -6.1270   19.9160 C   0  0  0  0  0  0  0  0  0  0  0  0
    5.2290   -4.8870   19.3780 O   0  0  0  0  0  0  0  0  0  0  0  0
    5.5360   -4.0250   20.2700 C   0  0  0  0  0  0  0  0  0  0  0  0
    5.4610   -2.6530   20.3060 C   0  0  0  0  0  0  0  0  0  0  0  0
    5.8770   -1.9060   21.4150 C   0  0  0  0  0  0  0  0  0  0  0  0
    6.3460   -2.7520   22.3990 C   0  0  0  0  0  0  0  0  0  0  0  0
    6.8010   -2.3970   23.5580 C   0  0  0  0  0  0  0  0  0  0  0  0
    7.9900   -1.8420   23.8830 N   0  0  0  0  0  0  0  0  0  0  0  0
    7.8710   -1.7790   25.2920 C   0  0  0  0  0  0  0  0  0  0  0  0
    8.8800   -1.2630   26.2470 C   0  0  0  0  0  0  0  0  0  0  0  0
    8.4910   -1.3220   27.5660 C   0  0  0  0  0  0  0  0  0  0  0  0
    7.1550   -1.8820   27.9160 C   0  0  0  0  0  0  0  0  0  0  0  0
    6.8340   -1.9020   29.2550 N   0  0  0  0  0  0  0  0  0  0  0  0
    6.9030   -0.7460   29.9790 C   0  0  0  0  0  0  0  0  0  0  0  0
    7.7010   -0.4270   30.8390 O   0  0  0  0  0  0  0  0  0  0  0  0
    5.9690    0.2260   29.6880 C   0  0  0  0  0  0  0  0  0  0  0  0
    5.1890   -0.0190   28.5490 C   0  0  0  0  0  0  0  0  0  0  0  0
    4.0980    0.8360   28.3840 C   0  0  0  0  0  0  0  0  0  0  0  0
    4.5730    2.2370   28.6090 N   0  0  0  0  0  0  0  0  0  0  0  0
    3.8440    3.1000   29.9050 S   0  0  0  0  0  0  0  0  0  0  0  0
    2.4620    3.3520   29.5650 O   0  0  0  0  0  0  0  0  0  0  0  0
    4.7360    4.1920   30.2400 O   0  0  0  0  0  0  0  0  0  0  0  0
    3.8570    1.9350   31.2450 C   0  0  0  0  0  0  0  0  0  0  0  0
    5.0070    1.9690   32.2760 C   0  0  0  0  0  0  0  0  0  0  0  0
    4.9910    1.0420   33.3150 C   0  0  0  0  0  0  0  0  0  0  0  0
    3.9430    0.1100   33.4000 C   0  0  0  0  0  0  0  0  0  0  0  0
    2.8950    0.0830   32.4600 C   0  0  0  0  0  0  0  0  0  0  0  0
    2.8440    0.9840   31.3880 C   0  0  0  0  0  0  0  0  0  0  0  0
    6.0410    2.4280   28.4610 C   0  0  0  0  0  0  0  0  0  0  0  0
    6.8070    1.4750   29.3640 C   0  0  0  0  0  0  0  0  0  0  0  0
    6.2490   -2.3560   26.9770 C   0  0  0  0  0  0  0  0  0  0  0  0
    6.6580   -2.2790   25.6860 C   0  0  0  0  0  0  0  0  0  0  0  0
    5.9630   -2.6710   24.5980 O   0  0  0  0  0  0  0  0  0  0  0  0
    6.4170   -4.1190   22.3630 C   0  0  0  0  0  0  0  0  0  0  0  0
    6.0120   -4.7620   21.2970 C   0  0  0  0  0  0  0  0  0  0  0  0
  1  2  1  0
  2  3  1  0
  3  4  2  0
  4  5  1  0
  5  6  2  0
  6  7  1  0
  7  8  2  0
  8  9  1  0
  9 10  2  0
 10 11  1  0
 11 12  2  0
 12 13  1  0
 13 14  1  0
 14 15  2  0
 14 16  1  0
 16 17  1  0
 17 18  1  0
 18 19  1  0
 19 20  1  0
 20 21  2  0
 20 22  2  0
 20 23  1  0
 23 24  2  0
 24 25  1  0
 25 26  2  0
 26 27  1  0
 23 28  1  0
 27 28  2  0
 19 29  1  0
 16 30  1  0
 29 30  1  0
 12 31  1  0
  9 32  1  0
 31 32  2  0
  7 33  1  0
 32 33  1  0
  6 34  1  0
  3 35  1  0
 34 35  2  0
M  END
