DRA-CSI-47e38074-13
     RDKit          3D

 23 25  0  0  0  0  0  0  0  0999 V2000
    0.2930   -2.9120   26.5760 C   0  0  0  0  0  0  0  0  0  0  0  0
    1.2820   -2.6430   27.5720 O   0  0  0  0  0  0  0  0  0  0  0  0
    2.5070   -2.3660   27.0490 C   0  0  0  0  0  0  0  0  0  0  0  0
    3.5620   -3.1140   27.5190 C   0  0  0  0  0  0  0  0  0  0  0  0
    4.8810   -2.9690   27.1010 C   0  0  0  0  0  0  0  0  0  0  0  0
    5.1520   -1.9930   26.1360 C   0  0  0  0  0  0  0  0  0  0  0  0
    6.4540   -1.7870   25.6770 C   0  0  0  0  0  0  0  0  0  0  0  0
    7.3220   -1.4850   26.4770 O   0  0  0  0  0  0  0  0  0  0  0  0
    6.6530   -1.9430   24.2440 N   0  0  0  0  0  0  0  0  0  0  0  0
    7.9250   -1.8390   23.7780 C   0  0  0  0  0  0  0  0  0  0  0  0
    8.4110   -3.1960   23.3400 C   0  0  0  0  0  0  0  0  0  0  0  0
    7.6330   -3.5790   22.0900 C   0  0  0  0  0  0  0  0  0  0  0  0
    8.3060   -2.8630   20.9370 C   0  0  0  0  0  0  0  0  0  0  0  0
    7.3270   -2.0150   20.2200 C   0  0  0  0  0  0  0  0  0  0  0  0
    6.2490   -2.8450   19.7050 C   0  0  0  0  0  0  0  0  0  0  0  0
    5.1600   -2.2230   18.9450 C   0  0  0  0  0  0  0  0  0  0  0  0
    5.1940   -0.6950   18.7150 C   0  0  0  0  0  0  0  0  0  0  0  0
    6.3550    0.1280   19.2890 C   0  0  0  0  0  0  0  0  0  0  0  0
    7.4330   -0.6240   20.0670 C   0  0  0  0  0  0  0  0  0  0  0  0
    6.1400   -3.1870   22.2420 C   0  0  0  0  0  0  0  0  0  0  0  0
    5.8090   -2.9540   23.5830 C   0  0  0  0  0  0  0  0  0  0  0  0
    4.1070   -1.2110   25.6290 C   0  0  0  0  0  0  0  0  0  0  0  0
    2.8060   -1.4000   26.0860 C   0  0  0  0  0  0  0  0  0  0  0  0
  1  2  1  0
  2  3  1  0
  3  4  2  0
  4  5  1  0
  5  6  2  0
  6  7  1  0
  7  8  2  0
  7  9  1  0
  9 10  1  0
 10 11  1  0
 11 12  1  0
 12 13  1  0
 13 14  1  0
 14 15  2  0
 15 16  1  0
 16 17  2  0
 17 18  1  0
 14 19  1  0
 18 19  2  0
 12 20  1  0
  9 21  1  0
 20 21  1  0
  6 22  1  0
  3 23  1  0
 22 23  2  0
M  END
