DRA-CSI-3ab97369-2
     RDKit          3D

 32 36  0  0  0  0  0  0  0  0999 V2000
   14.8520   -5.1990   20.2310 C   0  0  0  0  0  0  0  0  0  0  0  0
   14.5070   -3.8260   20.0460 O   0  0  0  0  0  0  0  0  0  0  0  0
   13.3010   -3.4430   20.5010 C   0  0  0  0  0  0  0  0  0  0  0  0
   12.2170   -4.0680   20.0620 C   0  0  0  0  0  0  0  0  0  0  0  0
   10.9430   -3.7950   20.4380 C   0  0  0  0  0  0  0  0  0  0  0  0
   10.7810   -2.7870   21.3610 C   0  0  0  0  0  0  0  0  0  0  0  0
    9.4720   -2.6720   21.7260 C   0  0  0  0  0  0  0  0  0  0  0  0
    8.3780   -3.1900   21.0620 N   0  0  0  0  0  0  0  0  0  0  0  0
    7.2950   -3.0150   21.9800 C   0  0  0  0  0  0  0  0  0  0  0  0
    5.8370   -3.4570   21.8600 C   0  0  0  0  0  0  0  0  0  0  0  0
    5.0490   -3.1570   22.9760 C   0  0  0  0  0  0  0  0  0  0  0  0
    5.6980   -2.4510   24.1220 C   0  0  0  0  0  0  0  0  0  0  0  0
    5.0500   -2.1120   25.3060 N   0  0  0  0  0  0  0  0  0  0  0  0
    5.7520   -2.1050   26.5100 C   0  0  0  0  0  0  0  0  0  0  0  0
    6.5030   -2.9530   26.9690 O   0  0  0  0  0  0  0  0  0  0  0  0
    5.6300   -1.0020   27.3210 C   0  0  0  0  0  0  0  0  0  0  0  0
    6.8330   -0.5930   27.9060 C   0  0  0  0  0  0  0  0  0  0  0  0
    6.7710    0.6130   28.6040 C   0  0  0  0  0  0  0  0  0  0  0  0
    5.3470    1.0510   28.6730 N   0  0  0  0  0  0  0  0  0  0  0  0
    4.4440    0.5180   30.0330 S   0  0  0  0  0  0  0  0  0  0  0  0
    4.6610   -0.9030   30.2100 O   0  0  0  0  0  0  0  0  0  0  0  0
    3.1060    1.0570   29.8920 O   0  0  0  0  0  0  0  0  0  0  0  0
    5.2400    1.3350   31.3940 C   0  0  0  0  0  0  0  0  0  0  0  0
    4.4400    1.7620   32.5140 C   0  0  0  0  0  0  0  0  0  0  0  0
    4.6030    2.8280   31.7520 C   0  0  0  0  0  0  0  0  0  0  0  0
    4.6470    1.1460   27.3680 C   0  0  0  0  0  0  0  0  0  0  0  0
    5.0760    0.1510   26.4870 C   0  0  0  0  0  0  0  0  0  0  0  0
    7.0410   -2.0580   24.1510 C   0  0  0  0  0  0  0  0  0  0  0  0
    7.7980   -2.3650   23.0730 C   0  0  0  0  0  0  0  0  0  0  0  0
    9.1490   -2.1070   22.9300 O   0  0  0  0  0  0  0  0  0  0  0  0
   11.8510   -2.0670   21.8530 C   0  0  0  0  0  0  0  0  0  0  0  0
   13.1260   -2.3890   21.4210 C   0  0  0  0  0  0  0  0  0  0  0  0
  1  2  1  0
  2  3  1  0
  3  4  2  0
  4  5  1  0
  5  6  2  0
  6  7  1  0
  7  8  2  0
  8  9  1  0
  9 10  2  0
 10 11  1  0
 11 12  2  0
 12 13  1  0
 13 14  1  0
 14 15  2  0
 14 16  1  0
 16 17  1  0
 17 18  1  0
 18 19  1  0
 20 19  1  0
 20 21  2  0
 20 22  2  0
 20 23  1  0
 23 24  1  0
 23 25  1  0
 24 25  1  0
 19 26  1  0
 16 27  1  0
 26 27  1  0
 12 28  1  0
  9 29  1  0
 28 29  2  0
  7 30  1  0
 29 30  1  0
  6 31  1  0
  3 32  1  0
 31 32  2  0
M  END
