DRA-CSI-47e38074-4
     RDKit          3D

 23 25  0  0  0  0  0  0  0  0999 V2000
    5.4950   -3.9840   19.7950 O   0  0  0  0  0  0  0  0  0  0  0  0
    6.1060   -2.9140   19.9600 C   0  0  0  0  0  0  0  0  0  0  0  0
    6.5290   -2.1040   18.9500 O   0  0  0  0  0  0  0  0  0  0  0  0
    5.6320   -1.0530   18.5540 C   0  0  0  0  0  0  0  0  0  0  0  0
    5.6380    0.0400   19.4000 C   0  0  0  0  0  0  0  0  0  0  0  0
    6.8100    0.7790   19.5730 C   0  0  0  0  0  0  0  0  0  0  0  0
    6.8190    1.8840   20.4360 C   0  0  0  0  0  0  0  0  0  0  0  0
    5.6960    2.3010   21.1410 C   0  0  0  0  0  0  0  0  0  0  0  0
    4.4960    1.6220   21.0160 C   0  0  0  0  0  0  0  0  0  0  0  0
    4.4790    0.4280   20.0930 C   0  0  0  0  0  0  0  0  0  0  0  0
    6.5000   -2.3560   21.2440 N   0  0  0  0  0  0  0  0  0  0  0  0
    7.3640   -1.1690   21.2970 C   0  0  0  0  0  0  0  0  0  0  0  0
    8.6750   -1.4390   22.0020 C   0  0  0  0  0  0  0  0  0  0  0  0
    8.4310   -2.1540   23.3220 C   0  0  0  0  0  0  0  0  0  0  0  0
    9.7660   -2.4300   23.9990 C   0  0  0  0  0  0  0  0  0  0  0  0
   10.8060   -1.3490   23.6680 C   0  0  0  0  0  0  0  0  0  0  0  0
   10.4740    0.0020   24.2750 C   0  0  0  0  0  0  0  0  0  0  0  0
   11.4710    1.1170   23.9700 C   0  0  0  0  0  0  0  0  0  0  0  0
   12.6760    0.7380   23.1010 C   0  0  0  0  0  0  0  0  0  0  0  0
   12.8520   -0.5510   22.6130 C   0  0  0  0  0  0  0  0  0  0  0  0
   11.9460   -1.5550   22.8900 C   0  0  0  0  0  0  0  0  0  0  0  0
    7.6080   -3.4360   23.0980 C   0  0  0  0  0  0  0  0  0  0  0  0
    6.3880   -3.1750   22.4550 C   0  0  0  0  0  0  0  0  0  0  0  0
  1  2  2  0
  2  3  1  0
  3  4  1  0
  4  5  1  0
  5  6  2  0
  6  7  1  0
  7  8  2  0
  8  9  1  0
  5 10  1  0
  9 10  2  0
  2 11  1  0
 11 12  1  0
 12 13  1  0
 13 14  1  0
 14 15  1  0
 15 16  1  0
 16 17  2  0
 17 18  1  0
 18 19  2  0
 19 20  1  0
 16 21  1  0
 20 21  2  0
 14 22  1  0
 11 23  1  0
 22 23  1  0
M  END
