DRA-CSI-0a78d9ba-16
     RDKit          3D

 36 40  0  0  0  0  0  0  0  0999 V2000
   11.0650    1.6580   12.1140 C   0  0  0  0  0  0  0  0  0  0  0  0
   10.5870    0.9630   13.5380 O   0  0  0  0  0  0  0  0  0  0  0  0
    9.4200    0.6810   14.6190 C   0  0  0  0  0  0  0  0  0  0  0  0
    9.4680   -0.4130   15.1470 C   0  0  0  0  0  0  0  0  0  0  0  0
    8.6450   -1.0280   16.1760 C   0  0  0  0  0  0  0  0  0  0  0  0
    7.6270   -0.3880   16.7920 C   0  0  0  0  0  0  0  0  0  0  0  0
    6.8990   -0.9660   17.9580 C   0  0  0  0  0  0  0  0  0  0  0  0
    6.6820   -2.2280   18.3370 N   0  0  0  0  0  0  0  0  0  0  0  0
    6.0710   -2.1560   19.5940 C   0  0  0  0  0  0  0  0  0  0  0  0
    5.6120   -3.0230   20.5930 C   0  0  0  0  0  0  0  0  0  0  0  0
    5.7100   -4.6940   20.4630 Cl  0  0  0  0  0  0  0  0  0  0  0  0
    5.0720   -2.5940   21.7420 N   0  0  0  0  0  0  0  0  0  0  0  0
    4.9660   -1.2760   21.9260 C   0  0  0  0  0  0  0  0  0  0  0  0
    4.4080   -0.9470   23.1520 N   0  0  0  0  0  0  0  0  0  0  0  0
    4.6880   -1.5580   24.3540 C   0  0  0  0  0  0  0  0  0  0  0  0
    3.9020   -2.2170   25.0300 O   0  0  0  0  0  0  0  0  0  0  0  0
    6.1380   -1.3260   24.7940 C   0  0  0  0  0  0  0  0  0  0  0  0
    6.6070    0.0410   24.2780 C   0  0  0  0  0  0  0  0  0  0  0  0
    8.0760    0.3350   24.5850 C   0  0  0  0  0  0  0  0  0  0  0  0
    8.9030   -0.8450   24.8200 N   0  0  0  0  0  0  0  0  0  0  0  0
   10.3630   -0.6350   24.7910 C   0  0  0  0  0  0  0  0  0  0  0  0
   10.8550    0.6460   24.1320 C   0  0  0  0  0  0  0  0  0  0  0  0
   12.1560    0.6900   23.6240 C   0  0  0  0  0  0  0  0  0  0  0  0
   12.6430    1.8470   23.0240 C   0  0  0  0  0  0  0  0  0  0  0  0
   11.8390    2.9780   22.9200 C   0  0  0  0  0  0  0  0  0  0  0  0
   12.5140    4.5520   22.1090 Br  0  0  0  0  0  0  0  0  0  0  0  0
   10.5440    2.9580   23.4120 C   0  0  0  0  0  0  0  0  0  0  0  0
   10.0540    1.7980   24.0170 C   0  0  0  0  0  0  0  0  0  0  0  0
    8.4740   -1.9780   23.9960 C   0  0  0  0  0  0  0  0  0  0  0  0
    7.0620   -2.4650   24.3190 C   0  0  0  0  0  0  0  0  0  0  0  0
    5.3430   -0.3400   21.0560 N   0  0  0  0  0  0  0  0  0  0  0  0
    5.8850   -0.8400   19.9400 C   0  0  0  0  0  0  0  0  0  0  0  0
    6.3840   -0.1250   18.9170 N   0  0  0  0  0  0  0  0  0  0  0  0
    6.3990    1.2900   18.8860 C   0  0  0  0  0  0  0  0  0  0  0  0
    7.4440    0.8310   16.2680 C   0  0  0  0  0  0  0  0  0  0  0  0
    8.3060    1.2890   15.2570 C   0  0  0  0  0  0  0  0  0  0  0  0
  1  2  1  0
  2  3  1  0
  3  4  2  0
  4  5  1  0
  5  6  2  0
  6  7  1  0
  7  8  2  0
  8  9  1  0
  9 10  2  0
 10 11  1  0
 10 12  1  0
 12 13  2  0
 13 14  1  0
 14 15  1  0
 15 16  2  0
 15 17  1  0
 17 18  1  0
 18 19  1  0
 19 20  1  0
 20 21  1  0
 21 22  1  0
 22 23  2  0
 23 24  1  0
 24 25  2  0
 25 26  1  0
 25 27  1  0
 22 28  1  0
 27 28  2  0
 20 29  1  0
 17 30  1  0
 29 30  1  0
 13 31  1  0
  9 32  1  0
 31 32  2  0
  7 33  1  0
 32 33  1  0
 33 34  1  0
  6 35  1  0
  3 36  1  0
 35 36  2  0
M  END
