DRA-CSI-3ab97369-16
     RDKit          3D

 21 23  0  0  0  0  0  0  0  0999 V2000
    7.0210   -0.9180   26.9780 O   0  0  0  0  0  0  0  0  0  0  0  0
    6.3300   -1.8490   26.5980 C   0  0  0  0  0  0  0  0  0  0  0  0
    6.7460   -2.9520   25.9430 N   0  0  0  0  0  0  0  0  0  0  0  0
    7.5170   -2.7580   24.8920 C   0  0  0  0  0  0  0  0  0  0  0  0
    6.2540   -3.0350   24.5240 N   0  0  0  0  0  0  0  0  0  0  0  0
    5.7360   -3.1080   23.2950 N   0  0  0  0  0  0  0  0  0  0  0  0
    6.6590   -2.8550   22.5400 C   0  0  0  0  0  0  0  0  0  0  0  0
    6.5640   -2.7660   21.2300 C   0  0  0  0  0  0  0  0  0  0  0  0
    5.3600   -3.1910   20.6770 C   0  0  0  0  0  0  0  0  0  0  0  0
    5.7720   -2.8660   19.4140 C   0  0  0  0  0  0  0  0  0  0  0  0
    6.9890   -2.3490   19.2000 C   0  0  0  0  0  0  0  0  0  0  0  0
    7.5980   -1.9170   17.5730 Br  0  0  0  0  0  0  0  0  0  0  0  0
    7.9150   -2.1310   20.4770 S   0  0  0  0  0  0  0  0  0  0  0  0
    8.1210   -2.5820   23.2990 S   0  0  0  0  0  0  0  0  0  0  0  0
    4.8360   -1.9410   26.7880 C   0  0  0  0  0  0  0  0  0  0  0  0
    4.4490   -2.8770   27.7180 C   0  0  0  0  0  0  0  0  0  0  0  0
    3.0160   -3.0430   27.9700 C   0  0  0  0  0  0  0  0  0  0  0  0
    2.1000   -2.2580   27.2690 C   0  0  0  0  0  0  0  0  0  0  0  0
    0.7900   -2.4050   27.4950 F   0  0  0  0  0  0  0  0  0  0  0  0
    2.5490   -1.3280   26.3400 C   0  0  0  0  0  0  0  0  0  0  0  0
    3.9130   -1.1570   26.0870 C   0  0  0  0  0  0  0  0  0  0  0  0
  1  2  2  0
  2  3  1  0
  3  4  1  0
  4  5  2  0
  5  6  1  0
  6  7  2  0
  7  8  1  0
  8  9  2  0
  9 10  1  0
 10 11  2  0
 11 12  1  0
  8 13  1  0
 11 13  1  0
  4 14  1  0
  7 14  1  0
  2 15  1  0
 15 16  2  0
 16 17  1  0
 17 18  2  0
 18 19  1  0
 18 20  1  0
 15 21  1  0
 20 21  2  0
M  END
