DRA-CSI-0a78d9ba-2
     RDKit          3D

 34 38  0  0  0  0  0  0  0  0999 V2000
   -2.3140    5.3050   19.1880 C   0  0  0  0  0  0  0  0  0  0  0  0
   -1.3670    5.1720   20.2410 O   0  0  0  0  0  0  0  0  0  0  0  0
   -0.2420    4.4640   19.9350 C   0  0  0  0  0  0  0  0  0  0  0  0
    0.7210    4.8080   18.9900 C   0  0  0  0  0  0  0  0  0  0  0  0
    1.8620    4.0740   18.6840 C   0  0  0  0  0  0  0  0  0  0  0  0
    2.1030    2.8760   19.3590 C   0  0  0  0  0  0  0  0  0  0  0  0
    3.2290    2.1320   19.0390 C   0  0  0  0  0  0  0  0  0  0  0  0
    4.1680    2.4240   18.0620 N   0  0  0  0  0  0  0  0  0  0  0  0
    5.0430    1.3040   18.1490 C   0  0  0  0  0  0  0  0  0  0  0  0
    6.2740    1.0260   17.3120 C   0  0  0  0  0  0  0  0  0  0  0  0
    6.9780   -0.2510   17.6580 C   0  0  0  0  0  0  0  0  0  0  0  0
    6.4470   -1.1480   18.7730 C   0  0  0  0  0  0  0  0  0  0  0  0
    6.9900   -2.2580   19.1400 N   0  0  0  0  0  0  0  0  0  0  0  0
    6.3460   -2.9510   20.1060 C   0  0  0  0  0  0  0  0  0  0  0  0
    5.5110   -4.1260   19.9180 O   0  0  0  0  0  0  0  0  0  0  0  0
    6.3900   -2.6400   21.4580 C   0  0  0  0  0  0  0  0  0  0  0  0
    7.1510   -1.5140   21.7580 C   0  0  0  0  0  0  0  0  0  0  0  0
    8.4410   -1.9010   22.0950 C   0  0  0  0  0  0  0  0  0  0  0  0
    8.4350   -2.4670   23.4480 N   0  0  0  0  0  0  0  0  0  0  0  0
    9.8040   -2.6230   23.9750 C   0  0  0  0  0  0  0  0  0  0  0  0
   10.5650   -1.3490   23.7120 C   0  0  0  0  0  0  0  0  0  0  0  0
   11.8240   -1.3670   22.8350 C   0  0  0  0  0  0  0  0  0  0  0  0
   12.5240   -0.2230   22.5270 C   0  0  0  0  0  0  0  0  0  0  0  0
   11.9980    1.0920   23.0880 C   0  0  0  0  0  0  0  0  0  0  0  0
   12.7300    2.7890   22.7320 Br  0  0  0  0  0  0  0  0  0  0  0  0
   10.8830    1.1180   23.9100 C   0  0  0  0  0  0  0  0  0  0  0  0
   10.1170   -0.1560   24.2500 C   0  0  0  0  0  0  0  0  0  0  0  0
    7.6820   -3.5800   23.5210 C   0  0  0  0  0  0  0  0  0  0  0  0
    6.9000   -3.8820   22.2250 C   0  0  0  0  0  0  0  0  0  0  0  0
    5.2860   -0.8160   19.5060 C   0  0  0  0  0  0  0  0  0  0  0  0
    4.5810    0.4850   19.1380 C   0  0  0  0  0  0  0  0  0  0  0  0
    3.4330    1.0620   19.6660 O   0  0  0  0  0  0  0  0  0  0  0  0
    1.1930    2.4420   20.3340 C   0  0  0  0  0  0  0  0  0  0  0  0
   -0.0530    3.2830   20.6420 C   0  0  0  0  0  0  0  0  0  0  0  0
  1  2  1  0
  2  3  1  0
  3  4  2  0
  4  5  1  0
  5  6  2  0
  6  7  1  0
  7  8  2  0
  8  9  1  0
  9 10  2  0
 10 11  1  0
 11 12  2  0
 12 13  1  0
 13 14  1  0
 14 15  2  0
 14 16  1  0
 16 17  1  0
 17 18  1  0
 18 19  1  0
 19 20  1  0
 20 21  1  0
 21 22  2  0
 22 23  1  0
 23 24  2  0
 24 25  1  0
 24 26  1  0
 21 27  1  0
 26 27  2  0
 19 28  1  0
 16 29  1  0
 28 29  1  0
 12 30  1  0
  9 31  1  0
 30 31  2  0
  7 32  1  0
 31 32  1  0
  6 33  1  0
  3 34  1  0
 33 34  2  0
M  END
