DRA-CSI-47e38074-5
     RDKit          3D

 16 17  0  0  0  0  0  0  0  0999 V2000
    5.4570   -3.5730   19.7130 N   0  0  0  0  0  0  0  0  0  0  0  0
    6.3430   -2.6930   20.0140 C   0  0  0  0  0  0  0  0  0  0  0  0
    7.0410   -1.9970   19.0730 N   0  0  0  0  0  0  0  0  0  0  0  0
    6.6740   -2.3600   21.2890 N   0  0  0  0  0  0  0  0  0  0  0  0
    7.4520   -1.1560   21.5750 C   0  0  0  0  0  0  0  0  0  0  0  0
    8.6250   -1.5460   22.1530 C   0  0  0  0  0  0  0  0  0  0  0  0
    8.5440   -2.0860   23.4250 C   0  0  0  0  0  0  0  0  0  0  0  0
    9.7480   -2.2750   24.0860 C   0  0  0  0  0  0  0  0  0  0  0  0
   10.7010   -1.3000   23.7830 C   0  0  0  0  0  0  0  0  0  0  0  0
   10.5570    0.0160   24.2490 C   0  0  0  0  0  0  0  0  0  0  0  0
   11.5180    1.1450   23.9660 C   0  0  0  0  0  0  0  0  0  0  0  0
   12.7510    0.8320   23.1060 C   0  0  0  0  0  0  0  0  0  0  0  0
   12.9010   -0.5910   22.6080 C   0  0  0  0  0  0  0  0  0  0  0  0
   11.8260   -1.5960   22.9970 C   0  0  0  0  0  0  0  0  0  0  0  0
    7.7560   -3.4080   23.3400 C   0  0  0  0  0  0  0  0  0  0  0  0
    6.5330   -3.3320   22.3950 C   0  0  0  0  0  0  0  0  0  0  0  0
  1  2  2  3
  2  3  1  0
  2  4  1  0
  4  5  1  0
  5  6  1  0
  6  7  1  0
  7  8  1  0
  8  9  1  0
  9 10  2  0
 10 11  1  0
 11 12  2  0
 12 13  1  0
  9 14  1  0
 13 14  2  0
  7 15  1  0
  4 16  1  0
 15 16  1  0
M  END
