DRA-CSI-0a78d9ba-11
     RDKit          3D

 37 41  0  0  0  0  0  0  0  0999 V2000
    3.0220   13.2810   15.1970 C   0  0  0  0  0  0  0  0  0  0  0  0
    2.2430   12.8090   16.2920 O   0  0  0  0  0  0  0  0  0  0  0  0
    2.9190   12.0910   17.2390 C   0  0  0  0  0  0  0  0  0  0  0  0
    3.1690   10.7330   17.0920 C   0  0  0  0  0  0  0  0  0  0  0  0
    3.8510    9.9380   17.9950 C   0  0  0  0  0  0  0  0  0  0  0  0
    4.3380   10.5260   19.1520 C   0  0  0  0  0  0  0  0  0  0  0  0
    5.0400    9.7260   20.0440 C   0  0  0  0  0  0  0  0  0  0  0  0
    5.9230    8.7410   19.6980 N   0  0  0  0  0  0  0  0  0  0  0  0
    6.3620    8.2540   20.9690 C   0  0  0  0  0  0  0  0  0  0  0  0
    7.3660    7.1460   21.1570 C   0  0  0  0  0  0  0  0  0  0  0  0
    7.6710    6.8170   22.5960 C   0  0  0  0  0  0  0  0  0  0  0  0
    6.9960    7.5630   23.7550 C   0  0  0  0  0  0  0  0  0  0  0  0
    7.2610    7.2760   25.0180 N   0  0  0  0  0  0  0  0  0  0  0  0
    7.9380    6.1260   25.2590 C   0  0  0  0  0  0  0  0  0  0  0  0
    9.3120    5.8680   24.9270 O   0  0  0  0  0  0  0  0  0  0  0  0
    7.4400    4.9800   25.8820 C   0  0  0  0  0  0  0  0  0  0  0  0
    8.3440    4.2730   26.6510 C   0  0  0  0  0  0  0  0  0  0  0  0
    7.7170    3.1150   27.1020 C   0  0  0  0  0  0  0  0  0  0  0  0
    7.7460    2.1040   26.0410 N   0  0  0  0  0  0  0  0  0  0  0  0
    9.0410    1.4210   26.0990 C   0  0  0  0  0  0  0  0  0  0  0  0
    9.0890    0.0780   25.3920 C   0  0  0  0  0  0  0  0  0  0  0  0
    8.0080   -0.8510   25.6090 O   0  0  0  0  0  0  0  0  0  0  0  0
   10.2320   -0.3240   24.4120 C   0  0  0  0  0  0  0  0  0  0  0  0
   10.2030   -1.5890   23.8350 C   0  0  0  0  0  0  0  0  0  0  0  0
   11.2630   -1.9750   22.8730 C   0  0  0  0  0  0  0  0  0  0  0  0
   12.2490   -1.0820   22.5780 C   0  0  0  0  0  0  0  0  0  0  0  0
   13.4050   -1.5740   21.4570 Cl  0  0  0  0  0  0  0  0  0  0  0  0
   12.2670    0.2920   23.2390 C   0  0  0  0  0  0  0  0  0  0  0  0
   11.2510    0.6180   24.1340 C   0  0  0  0  0  0  0  0  0  0  0  0
    7.4310    2.5930   24.8150 C   0  0  0  0  0  0  0  0  0  0  0  0
    6.8890    4.0490   24.7720 C   0  0  0  0  0  0  0  0  0  0  0  0
    6.0560    8.5980   23.4740 C   0  0  0  0  0  0  0  0  0  0  0  0
    5.7630    8.9190   21.9910 C   0  0  0  0  0  0  0  0  0  0  0  0
    4.9050    9.8690   21.4330 O   0  0  0  0  0  0  0  0  0  0  0  0
    4.1060   11.8950   19.3590 C   0  0  0  0  0  0  0  0  0  0  0  0
    4.7000   12.8390   20.9040 Br  0  0  0  0  0  0  0  0  0  0  0  0
    3.4060   12.6660   18.4130 C   0  0  0  0  0  0  0  0  0  0  0  0
  1  2  1  0
  2  3  1  0
  3  4  2  0
  4  5  1  0
  5  6  2  0
  6  7  1  0
  7  8  2  0
  8  9  1  0
  9 10  2  0
 10 11  1  0
 11 12  2  0
 12 13  1  0
 13 14  1  0
 14 15  2  0
 14 16  1  0
 16 17  1  0
 17 18  1  0
 18 19  1  0
 19 20  1  0
 20 21  1  0
 21 22  2  0
 21 23  1  0
 23 24  2  0
 24 25  1  0
 25 26  2  0
 26 27  1  0
 26 28  1  0
 23 29  1  0
 28 29  2  0
 19 30  1  0
 16 31  1  0
 30 31  1  0
 12 32  1  0
  9 33  1  0
 32 33  2  0
  7 34  1  0
 33 34  1  0
  6 35  1  0
 35 36  1  0
  3 37  1  0
 35 37  2  0
M  END
