DRA-CSI-47e38074-16
     RDKit          3D

 18 19  0  0  0  0  0  0  0  0999 V2000
    7.6860   -1.8540   17.5600 C   0  0  0  0  0  0  0  0  0  0  0  0
    7.3490   -1.6860   19.0170 C   0  0  0  0  0  0  0  0  0  0  0  0
    6.0340   -2.2090   19.2430 N   0  0  0  0  0  0  0  0  0  0  0  0
    5.8750   -3.1270   20.2210 C   0  0  0  0  0  0  0  0  0  0  0  0
    5.3920   -4.3680   19.9870 N   0  0  0  0  0  0  0  0  0  0  0  0
    6.2600   -2.6980   21.5840 N   0  0  0  0  0  0  0  0  0  0  0  0
    7.0180   -1.4380   21.7280 C   0  0  0  0  0  0  0  0  0  0  0  0
    8.3480   -1.6150   22.1080 C   0  0  0  0  0  0  0  0  0  0  0  0
    8.6890   -2.5910   23.0580 C   0  0  0  0  0  0  0  0  0  0  0  0
    9.6550   -2.3270   24.0460 C   0  0  0  0  0  0  0  0  0  0  0  0
   10.6790   -1.2450   23.7560 C   0  0  0  0  0  0  0  0  0  0  0  0
   10.4330    0.1550   24.3060 C   0  0  0  0  0  0  0  0  0  0  0  0
   11.4790    1.2090   23.9730 C   0  0  0  0  0  0  0  0  0  0  0  0
   12.7060    0.8140   23.1260 C   0  0  0  0  0  0  0  0  0  0  0  0
   12.8720   -0.6210   22.6210 C   0  0  0  0  0  0  0  0  0  0  0  0
   11.7940   -1.6420   22.9780 C   0  0  0  0  0  0  0  0  0  0  0  0
    7.4170   -3.1420   23.7070 C   0  0  0  0  0  0  0  0  0  0  0  0
    6.4510   -3.6250   22.6280 C   0  0  0  0  0  0  0  0  0  0  0  0
  1  2  1  0
  2  3  1  0
  3  4  1  0
  4  5  2  3
  4  6  1  0
  6  7  1  0
  7  8  1  0
  8  9  1  0
  9 10  1  0
 10 11  1  0
 11 12  2  0
 12 13  1  0
 13 14  2  0
 14 15  1  0
 11 16  1  0
 15 16  2  0
  9 17  1  0
  6 18  1  0
 17 18  1  0
M  END
