DRA-CSI-0a78d9ba-3
     RDKit          3D

 36 40  0  0  0  0  0  0  0  0999 V2000
   -0.3410    7.5990   20.1960 C   0  0  0  0  0  0  0  0  0  0  0  0
   -0.6610    6.2240   20.3580 O   0  0  0  0  0  0  0  0  0  0  0  0
    0.3070    5.3170   20.0260 C   0  0  0  0  0  0  0  0  0  0  0  0
    0.2440    3.9340   20.1660 C   0  0  0  0  0  0  0  0  0  0  0  0
    1.2450    3.0310   19.8200 C   0  0  0  0  0  0  0  0  0  0  0  0
    2.4410    3.5170   19.2770 C   0  0  0  0  0  0  0  0  0  0  0  0
    3.4220    2.6060   18.9270 C   0  0  0  0  0  0  0  0  0  0  0  0
    4.4420    2.8000   18.0250 N   0  0  0  0  0  0  0  0  0  0  0  0
    5.1210    1.5360   18.0460 C   0  0  0  0  0  0  0  0  0  0  0  0
    6.3410    1.1720   17.2240 C   0  0  0  0  0  0  0  0  0  0  0  0
    6.8430   -0.2280   17.4350 C   0  0  0  0  0  0  0  0  0  0  0  0
    6.1400   -1.1640   18.4170 C   0  0  0  0  0  0  0  0  0  0  0  0
    6.4980   -2.3890   18.6510 N   0  0  0  0  0  0  0  0  0  0  0  0
    6.2520   -2.9200   19.8700 C   0  0  0  0  0  0  0  0  0  0  0  0
    5.1670   -3.7930   20.2290 O   0  0  0  0  0  0  0  0  0  0  0  0
    7.0510   -2.7760   20.9800 C   0  0  0  0  0  0  0  0  0  0  0  0
    7.2890   -1.5040   21.4180 C   0  0  0  0  0  0  0  0  0  0  0  0
    8.4330   -1.5940   22.1900 C   0  0  0  0  0  0  0  0  0  0  0  0
    8.2310   -2.4190   23.4040 N   0  0  0  0  0  0  0  0  0  0  0  0
    9.5450   -2.7010   23.9620 C   0  0  0  0  0  0  0  0  0  0  0  0
   10.3950   -1.4740   23.7760 C   0  0  0  0  0  0  0  0  0  0  0  0
   11.6410   -1.5360   22.8860 C   0  0  0  0  0  0  0  0  0  0  0  0
   12.4320   -0.4480   22.6560 C   0  0  0  0  0  0  0  0  0  0  0  0
   12.0180    0.8350   23.3190 C   0  0  0  0  0  0  0  0  0  0  0  0
   12.7630    2.0280   23.1150 N   0  0  0  0  0  0  0  0  0  0  0  0
   12.1150    3.0650   22.9050 O   0  0  0  0  0  0  0  0  0  0  0  0
   13.8710    1.8150   22.6860 O   0  0  0  0  0  0  0  0  0  0  0  0
   10.9130    0.9300   24.1390 C   0  0  0  0  0  0  0  0  0  0  0  0
   10.0380   -0.2890   24.3970 C   0  0  0  0  0  0  0  0  0  0  0  0
    7.4850   -3.5540   23.2980 C   0  0  0  0  0  0  0  0  0  0  0  0
    6.4630   -3.5400   22.1610 C   0  0  0  0  0  0  0  0  0  0  0  0
    5.0170   -0.7480   19.1530 C   0  0  0  0  0  0  0  0  0  0  0  0
    4.5080    0.6770   18.9270 C   0  0  0  0  0  0  0  0  0  0  0  0
    3.4280    1.3360   19.5010 O   0  0  0  0  0  0  0  0  0  0  0  0
    2.6080    4.8940   19.0970 C   0  0  0  0  0  0  0  0  0  0  0  0
    1.4750    5.8530   19.4940 C   0  0  0  0  0  0  0  0  0  0  0  0
  1  2  1  0
  2  3  1  0
  3  4  2  0
  4  5  1  0
  5  6  2  0
  6  7  1  0
  7  8  2  0
  8  9  1  0
  9 10  2  0
 10 11  1  0
 11 12  2  0
 12 13  1  0
 13 14  1  0
 14 15  2  0
 14 16  1  0
 16 17  1  0
 17 18  1  0
 18 19  1  0
 19 20  1  0
 20 21  1  0
 21 22  2  0
 22 23  1  0
 23 24  2  0
 24 25  1  0
 25 26  2  0
 25 27  1  0
 24 28  1  0
 21 29  1  0
 28 29  2  0
 19 30  1  0
 16 31  1  0
 30 31  1  0
 12 32  1  0
  9 33  1  0
 32 33  2  0
  7 34  1  0
 33 34  1  0
  6 35  1  0
  3 36  1  0
 35 36  2  0
M  CHG  2  25   1  27  -1
M  END
