DRA-CSI-3ab97369-9
     RDKit          3D

 33 37  0  0  0  0  0  0  0  0999 V2000
    7.1960    0.6550   11.3410 C   0  0  0  0  0  0  0  0  0  0  0  0
    8.1680    0.8450   12.3710 O   0  0  0  0  0  0  0  0  0  0  0  0
    7.9770    0.1740   13.5360 C   0  0  0  0  0  0  0  0  0  0  0  0
    7.0540   -0.7800   13.7170 C   0  0  0  0  0  0  0  0  0  0  0  0
    6.7610   -1.6260   14.9040 C   0  0  0  0  0  0  0  0  0  0  0  0
    7.5130   -1.3040   15.9620 C   0  0  0  0  0  0  0  0  0  0  0  0
    7.2940   -1.8710   17.2090 C   0  0  0  0  0  0  0  0  0  0  0  0
    6.3720   -2.7720   17.6090 N   0  0  0  0  0  0  0  0  0  0  0  0
    6.5180   -2.8820   19.0340 C   0  0  0  0  0  0  0  0  0  0  0  0
    5.6940   -3.7460   19.9460 C   0  0  0  0  0  0  0  0  0  0  0  0
    6.0220   -3.6990   21.2740 C   0  0  0  0  0  0  0  0  0  0  0  0
    7.1330   -2.8300   21.7300 C   0  0  0  0  0  0  0  0  0  0  0  0
    7.3680   -2.8760   23.1050 C   0  0  0  0  0  0  0  0  0  0  0  0
    8.1220   -1.9280   23.7700 C   0  0  0  0  0  0  0  0  0  0  0  0
    8.3290   -1.9910   25.1660 C   0  0  0  0  0  0  0  0  0  0  0  0
    7.7880   -3.0140   25.9650 C   0  0  0  0  0  0  0  0  0  0  0  0
    7.9080   -3.1870   27.3430 N   0  0  0  0  0  0  0  0  0  0  0  0
    7.2160   -2.4620   28.3800 C   0  0  0  0  0  0  0  0  0  0  0  0
    6.3830   -2.8970   29.1760 O   0  0  0  0  0  0  0  0  0  0  0  0
    7.6320   -0.9660   28.4510 C   0  0  0  0  0  0  0  0  0  0  0  0
    8.4180   -0.5160   29.5130 C   0  0  0  0  0  0  0  0  0  0  0  0
    8.7860    0.8250   29.5920 C   0  0  0  0  0  0  0  0  0  0  0  0
    8.3740    1.7290   28.6120 C   0  0  0  0  0  0  0  0  0  0  0  0
    8.7290    3.0140   28.6970 F   0  0  0  0  0  0  0  0  0  0  0  0
    7.5920    1.2870   27.5420 C   0  0  0  0  0  0  0  0  0  0  0  0
    7.2230   -0.0520   27.4610 C   0  0  0  0  0  0  0  0  0  0  0  0
    6.9780   -4.0650   25.3040 N   0  0  0  0  0  0  0  0  0  0  0  0
    6.8270   -3.9030   23.8610 C   0  0  0  0  0  0  0  0  0  0  0  0
    7.8870   -2.0170   20.8290 C   0  0  0  0  0  0  0  0  0  0  0  0
    7.5220   -2.0870   19.4710 C   0  0  0  0  0  0  0  0  0  0  0  0
    8.0390   -1.4230   18.3450 O   0  0  0  0  0  0  0  0  0  0  0  0
    8.4590   -0.3310   15.8120 C   0  0  0  0  0  0  0  0  0  0  0  0
    8.7380    0.3960   14.6610 C   0  0  0  0  0  0  0  0  0  0  0  0
  1  2  1  0
  2  3  1  0
  3  4  2  0
  4  5  1  0
  5  6  2  0
  6  7  1  0
  7  8  2  0
  8  9  1  0
  9 10  2  0
 10 11  1  0
 11 12  2  0
 12 13  1  0
 13 14  2  0
 14 15  1  0
 15 16  2  0
 16 17  1  0
 17 18  1  0
 18 19  2  0
 18 20  1  0
 20 21  2  0
 21 22  1  0
 22 23  2  0
 23 24  1  0
 23 25  1  0
 20 26  1  0
 25 26  2  0
 16 27  1  0
 13 28  1  0
 27 28  2  0
 12 29  1  0
  9 30  1  0
 29 30  2  0
  7 31  1  0
 30 31  1  0
  6 32  1  0
  3 33  1  0
 32 33  2  0
M  END
