DRA-CSI-3ab97369-13
     RDKit          3D

 28 31  0  0  0  0  0  0  0  0999 V2000
    5.1970   -1.9200   19.8890 O   0  0  0  0  0  0  0  0  0  0  0  0
    6.3780   -1.6750   20.0930 C   0  0  0  0  0  0  0  0  0  0  0  0
    7.3240   -1.4980   19.0920 N   0  0  0  0  0  0  0  0  0  0  0  0
    7.1060   -2.0330   17.8480 C   0  0  0  0  0  0  0  0  0  0  0  0
    7.7420   -2.9080   17.1880 N   0  0  0  0  0  0  0  0  0  0  0  0
    7.2120   -3.2170   15.9290 N   0  0  0  0  0  0  0  0  0  0  0  0
    6.1570   -2.6090   15.5140 C   0  0  0  0  0  0  0  0  0  0  0  0
    5.5560   -2.7660   13.9800 C   0  0  0  0  0  0  0  0  0  0  0  0
    6.1360   -3.3580   13.1360 C   0  0  0  0  0  0  0  0  0  0  0  0
    5.5390   -3.1050   11.8950 C   0  0  0  0  0  0  0  0  0  0  0  0
    4.6220   -2.5910   11.7570 C   0  0  0  0  0  0  0  0  0  0  0  0
    4.3390   -2.4620   10.2580 Br  0  0  0  0  0  0  0  0  0  0  0  0
    3.9400   -2.1370   12.8200 S   0  0  0  0  0  0  0  0  0  0  0  0
    5.8030   -1.4700   16.9880 S   0  0  0  0  0  0  0  0  0  0  0  0
    6.9090   -1.5520   21.5330 C   0  0  0  0  0  0  0  0  0  0  0  0
    6.4050   -2.5730   22.3310 C   0  0  0  0  0  0  0  0  0  0  0  0
    7.3060   -3.1320   23.3550 C   0  0  0  0  0  0  0  0  0  0  0  0
    7.9560   -2.1030   23.9650 N   0  0  0  0  0  0  0  0  0  0  0  0
    7.5710   -1.3760   25.1070 C   0  0  0  0  0  0  0  0  0  0  0  0
    8.2380   -0.5640   25.7300 O   0  0  0  0  0  0  0  0  0  0  0  0
    6.3100   -1.5450   25.6460 C   0  0  0  0  0  0  0  0  0  0  0  0
    5.1690   -1.1120   24.9400 C   0  0  0  0  0  0  0  0  0  0  0  0
    3.8800   -1.2670   25.4550 C   0  0  0  0  0  0  0  0  0  0  0  0
    3.6890   -1.8690   26.7060 C   0  0  0  0  0  0  0  0  0  0  0  0
    4.9310   -2.3460   27.4840 C   0  0  0  0  0  0  0  0  0  0  0  0
    6.1820   -2.1580   26.9100 C   0  0  0  0  0  0  0  0  0  0  0  0
    8.7870   -1.3490   23.0200 C   0  0  0  0  0  0  0  0  0  0  0  0
    8.4440   -1.4900   21.6630 C   0  0  0  0  0  0  0  0  0  0  0  0
  1  2  2  0
  2  3  1  0
  3  4  1  0
  4  5  2  0
  5  6  1  0
  6  7  2  0
  7  8  1  0
  8  9  2  0
  9 10  1  0
 10 11  2  0
 11 12  1  0
  8 13  1  0
 11 13  1  0
  4 14  1  0
  7 14  1  0
  2 15  1  0
 15 16  1  0
 16 17  1  0
 17 18  1  0
 18 19  1  0
 19 20  2  0
 19 21  1  0
 21 22  2  0
 22 23  1  0
 23 24  2  0
 24 25  1  0
 21 26  1  0
 25 26  2  0
 18 27  1  0
 15 28  1  0
 27 28  1  0
M  END
