DRA-CSI-47e38074-11
     RDKit          3D

 21 23  0  0  0  0  0  0  0  0999 V2000
    7.2670   -1.6310   26.2280 O   0  0  0  0  0  0  0  0  0  0  0  0
    6.3290   -1.8820   25.4850 C   0  0  0  0  0  0  0  0  0  0  0  0
    4.9650   -2.0810   26.1220 C   0  0  0  0  0  0  0  0  0  0  0  0
    4.0210   -1.2160   25.6240 C   0  0  0  0  0  0  0  0  0  0  0  0
    2.6830   -1.3520   26.2090 N   0  0  0  0  0  0  0  0  0  0  0  0
    2.4360   -2.3640   27.2390 C   0  0  0  0  0  0  0  0  0  0  0  0
    3.4900   -3.1810   27.6500 C   0  0  0  0  0  0  0  0  0  0  0  0
    4.7680   -3.0320   27.0820 N   0  0  0  0  0  0  0  0  0  0  0  0
    6.5110   -1.9630   24.1270 N   0  0  0  0  0  0  0  0  0  0  0  0
    7.8620   -1.8620   23.6470 C   0  0  0  0  0  0  0  0  0  0  0  0
    8.2000   -3.0560   23.0360 C   0  0  0  0  0  0  0  0  0  0  0  0
    7.3610   -3.4120   21.8300 C   0  0  0  0  0  0  0  0  0  0  0  0
    7.9010   -2.5400   20.6780 C   0  0  0  0  0  0  0  0  0  0  0  0
    7.0060   -1.5480   19.9580 C   0  0  0  0  0  0  0  0  0  0  0  0
    6.1400   -1.9270   18.7780 C   0  0  0  0  0  0  0  0  0  0  0  0
    5.3010   -0.8830   18.0910 C   0  0  0  0  0  0  0  0  0  0  0  0
    5.2750    0.5860   18.5370 C   0  0  0  0  0  0  0  0  0  0  0  0
    6.1500    0.9760   19.7390 C   0  0  0  0  0  0  0  0  0  0  0  0
    7.0150   -0.0870   20.4480 C   0  0  0  0  0  0  0  0  0  0  0  0
    5.8560   -3.3190   22.1620 C   0  0  0  0  0  0  0  0  0  0  0  0
    5.5440   -2.3910   23.1840 C   0  0  0  0  0  0  0  0  0  0  0  0
  1  2  2  0
  2  3  1  0
  3  4  2  0
  4  5  1  0
  5  6  2  0
  6  7  1  0
  3  8  1  0
  7  8  2  0
  2  9  1  0
  9 10  1  0
 10 11  1  0
 11 12  1  0
 12 13  1  0
 13 14  1  0
 14 15  2  0
 15 16  1  0
 16 17  2  0
 17 18  1  0
 14 19  1  0
 18 19  2  0
 12 20  1  0
  9 21  1  0
 20 21  1  0
M  END
