DRA-CSI-0a78d9ba-9
     RDKit          3D

 36 40  0  0  0  0  0  0  0  0999 V2000
    6.1700   -3.0530   10.0060 C   0  0  0  0  0  0  0  0  0  0  0  0
    4.6690   -3.1890    9.7170 O   0  0  0  0  0  0  0  0  0  0  0  0
    4.7810   -3.1720   10.7110 C   0  0  0  0  0  0  0  0  0  0  0  0
    4.1630   -3.3650   11.6090 C   0  0  0  0  0  0  0  0  0  0  0  0
    4.6080   -3.2960   12.6170 C   0  0  0  0  0  0  0  0  0  0  0  0
    5.9910   -2.9440   13.1100 C   0  0  0  0  0  0  0  0  0  0  0  0
    6.3870   -2.9130   14.7440 C   0  0  0  0  0  0  0  0  0  0  0  0
    7.2980   -3.4710   15.6950 N   0  0  0  0  0  0  0  0  0  0  0  0
    7.0590   -2.8540   17.0380 C   0  0  0  0  0  0  0  0  0  0  0  0
    7.7800   -3.0470   18.3260 C   0  0  0  0  0  0  0  0  0  0  0  0
    7.2340   -2.2760   19.4910 C   0  0  0  0  0  0  0  0  0  0  0  0
    6.0380   -1.3640   19.3480 C   0  0  0  0  0  0  0  0  0  0  0  0
    5.5730   -0.7400   20.4100 N   0  0  0  0  0  0  0  0  0  0  0  0
    5.2610   -1.6100   21.4200 C   0  0  0  0  0  0  0  0  0  0  0  0
    4.8350   -2.9970   21.2740 O   0  0  0  0  0  0  0  0  0  0  0  0
    5.2560   -1.3550   22.7880 C   0  0  0  0  0  0  0  0  0  0  0  0
    6.2610   -0.5250   23.2720 C   0  0  0  0  0  0  0  0  0  0  0  0
    7.4060   -1.2730   23.5300 C   0  0  0  0  0  0  0  0  0  0  0  0
    7.2450   -2.0680   24.7530 N   0  0  0  0  0  0  0  0  0  0  0  0
    8.4090   -2.9430   24.9210 C   0  0  0  0  0  0  0  0  0  0  0  0
    9.6410   -2.3170   24.2850 C   0  0  0  0  0  0  0  0  0  0  0  0
    9.9290   -2.5350   22.8030 C   0  0  0  0  0  0  0  0  0  0  0  0
   11.0310   -1.9880   22.1970 C   0  0  0  0  0  0  0  0  0  0  0  0
   11.9540   -1.1570   23.0300 C   0  0  0  0  0  0  0  0  0  0  0  0
   13.0610   -0.5920   22.4740 C   0  0  0  0  0  0  0  0  0  0  0  0
   13.5350   -1.2250   21.3930 F   0  0  0  0  0  0  0  0  0  0  0  0
   11.6770   -0.9650   24.3760 C   0  0  0  0  0  0  0  0  0  0  0  0
   10.5560   -1.5260   24.9900 C   0  0  0  0  0  0  0  0  0  0  0  0
    6.0350   -2.6560   24.8500 C   0  0  0  0  0  0  0  0  0  0  0  0
    5.2960   -2.7240   23.5030 C   0  0  0  0  0  0  0  0  0  0  0  0
    5.4600   -1.2180   18.0620 C   0  0  0  0  0  0  0  0  0  0  0  0
    6.0900   -2.0600   16.9210 C   0  0  0  0  0  0  0  0  0  0  0  0
    5.8060   -2.1660   15.5580 O   0  0  0  0  0  0  0  0  0  0  0  0
    6.6400   -2.6830   11.6720 C   0  0  0  0  0  0  0  0  0  0  0  0
    7.9720   -2.2210   10.1910 Br  0  0  0  0  0  0  0  0  0  0  0  0
    5.9430   -2.8560   10.7060 C   0  0  0  0  0  0  0  0  0  0  0  0
  1  2  1  0
  2  3  1  0
  3  4  2  0
  4  5  1  0
  5  6  2  0
  6  7  1  0
  7  8  2  0
  8  9  1  0
  9 10  2  0
 10 11  1  0
 11 12  2  0
 12 13  1  0
 13 14  1  0
 14 15  2  0
 14 16  1  0
 16 17  1  0
 17 18  1  0
 18 19  1  0
 19 20  1  0
 20 21  1  0
 21 22  2  0
 22 23  1  0
 23 24  2  0
 24 25  1  0
 25 26  1  0
 24 27  1  0
 21 28  1  0
 27 28  2  0
 19 29  1  0
 16 30  1  0
 29 30  1  0
 12 31  1  0
  9 32  1  0
 31 32  2  0
  7 33  1  0
 32 33  1  0
  6 34  1  0
 34 35  1  0
  3 36  1  0
 34 36  2  0
M  END
