DRA-CSI-47e38074-3
     RDKit          3D

 17 18  0  0  0  0  0  0  0  0999 V2000
    5.6840   -1.8320   18.0710 C   0  0  0  0  0  0  0  0  0  0  0  0
    6.6990   -2.2770   18.9450 O   0  0  0  0  0  0  0  0  0  0  0  0
    6.2190   -2.9350   20.0370 C   0  0  0  0  0  0  0  0  0  0  0  0
    5.5560   -3.9780   19.8870 O   0  0  0  0  0  0  0  0  0  0  0  0
    6.5440   -2.3720   21.3300 N   0  0  0  0  0  0  0  0  0  0  0  0
    6.4790   -3.1750   22.4310 C   0  0  0  0  0  0  0  0  0  0  0  0
    7.7080   -3.3570   23.0870 C   0  0  0  0  0  0  0  0  0  0  0  0
    8.3770   -2.1620   23.4070 C   0  0  0  0  0  0  0  0  0  0  0  0
    9.6670   -2.3590   23.9210 C   0  0  0  0  0  0  0  0  0  0  0  0
   10.6000   -1.3260   23.6960 C   0  0  0  0  0  0  0  0  0  0  0  0
   10.3790    0.0600   24.2900 C   0  0  0  0  0  0  0  0  0  0  0  0
   11.4420    1.1430   23.9890 C   0  0  0  0  0  0  0  0  0  0  0  0
   12.6660    0.8430   23.1420 C   0  0  0  0  0  0  0  0  0  0  0  0
   12.8140   -0.5570   22.5930 C   0  0  0  0  0  0  0  0  0  0  0  0
   11.7400   -1.5740   22.9170 C   0  0  0  0  0  0  0  0  0  0  0  0
    8.6050   -1.4590   22.0590 C   0  0  0  0  0  0  0  0  0  0  0  0
    7.3030   -1.1920   21.3260 C   0  0  0  0  0  0  0  0  0  0  0  0
  1  2  1  0
  2  3  1  0
  3  4  2  0
  3  5  1  0
  5  6  1  0
  6  7  1  0
  7  8  1  0
  8  9  1  0
  9 10  1  0
 10 11  2  0
 11 12  1  0
 12 13  2  0
 13 14  1  0
 10 15  1  0
 14 15  2  0
  8 16  1  0
  5 17  1  0
 16 17  1  0
M  END
