DRA-CSI-0a78d9ba-1
     RDKit          3D

 33 37  0  0  0  0  0  0  0  0999 V2000
   12.9060    6.4160   22.8840 C   0  0  0  0  0  0  0  0  0  0  0  0
   11.7600    6.4830   23.7240 O   0  0  0  0  0  0  0  0  0  0  0  0
   10.7540    5.7030   23.2660 C   0  0  0  0  0  0  0  0  0  0  0  0
    9.4380    6.0750   22.9900 C   0  0  0  0  0  0  0  0  0  0  0  0
    8.4480    5.2260   22.4960 C   0  0  0  0  0  0  0  0  0  0  0  0
    8.7710    3.8820   22.2420 C   0  0  0  0  0  0  0  0  0  0  0  0
    7.8250    3.0210   21.7270 C   0  0  0  0  0  0  0  0  0  0  0  0
    6.4530    3.1490   21.8040 N   0  0  0  0  0  0  0  0  0  0  0  0
    6.0280    1.9740   21.1140 C   0  0  0  0  0  0  0  0  0  0  0  0
    4.6060    1.5430   20.8680 C   0  0  0  0  0  0  0  0  0  0  0  0
    4.4870    0.2290   20.1240 C   0  0  0  0  0  0  0  0  0  0  0  0
    5.7140   -0.5720   19.6730 C   0  0  0  0  0  0  0  0  0  0  0  0
    5.6870   -1.7420   19.0500 N   0  0  0  0  0  0  0  0  0  0  0  0
    5.8490   -2.7480   19.9450 C   0  0  0  0  0  0  0  0  0  0  0  0
    5.4410   -4.1300   19.7940 O   0  0  0  0  0  0  0  0  0  0  0  0
    6.5030   -2.5840   21.1770 C   0  0  0  0  0  0  0  0  0  0  0  0
    6.4460   -3.5850   22.1360 C   0  0  0  0  0  0  0  0  0  0  0  0
    7.5030   -3.4820   23.0860 C   0  0  0  0  0  0  0  0  0  0  0  0
    8.2150   -2.1710   23.1550 N   0  0  0  0  0  0  0  0  0  0  0  0
    9.2890   -2.1790   24.1660 C   0  0  0  0  0  0  0  0  0  0  0  0
   10.4540   -1.2410   23.8020 C   0  0  0  0  0  0  0  0  0  0  0  0
   10.3880    0.2390   24.2300 C   0  0  0  0  0  0  0  0  0  0  0  0
   11.3950    1.1470   23.9330 C   0  0  0  0  0  0  0  0  0  0  0  0
   12.5940    0.6640   23.1650 C   0  0  0  0  0  0  0  0  0  0  0  0
   12.6890   -0.6650   22.7640 C   0  0  0  0  0  0  0  0  0  0  0  0
   11.5770   -1.6740   23.0930 C   0  0  0  0  0  0  0  0  0  0  0  0
    8.7000   -1.7530   21.9720 C   0  0  0  0  0  0  0  0  0  0  0  0
    7.9630   -2.3860   20.8180 C   0  0  0  0  0  0  0  0  0  0  0  0
    7.0180   -0.0740   19.9370 C   0  0  0  0  0  0  0  0  0  0  0  0
    7.1270    1.2680   20.7000 C   0  0  0  0  0  0  0  0  0  0  0  0
    8.2420    1.9990   21.1080 O   0  0  0  0  0  0  0  0  0  0  0  0
   10.0680    3.4190   22.5030 C   0  0  0  0  0  0  0  0  0  0  0  0
   11.1190    4.3850   23.0470 C   0  0  0  0  0  0  0  0  0  0  0  0
  1  2  1  0
  2  3  1  0
  3  4  2  0
  4  5  1  0
  5  6  2  0
  6  7  1  0
  7  8  2  0
  8  9  1  0
  9 10  2  0
 10 11  1  0
 11 12  2  0
 12 13  1  0
 13 14  1  0
 14 15  2  0
 14 16  1  0
 16 17  1  0
 17 18  1  0
 18 19  1  0
 19 20  1  0
 20 21  1  0
 21 22  2  0
 22 23  1  0
 23 24  2  0
 24 25  1  0
 21 26  1  0
 25 26  2  0
 19 27  1  0
 16 28  1  0
 27 28  1  0
 12 29  1  0
  9 30  1  0
 29 30  2  0
  7 31  1  0
 30 31  1  0
  6 32  1  0
  3 33  1  0
 32 33  2  0
M  END
