DRE-WAB-ae4a693c-1
     RDKit          3D

 22 23  0  0  0  0  0  0  0  0999 V2000
    8.5980   -1.3130   26.6440 C   0  0  0  0  0  0  0  0  0  0  0  0
    7.7230   -2.7240   25.9970 S   0  0  0  0  0  0  0  0  0  0  0  0
    8.2510   -3.9430   26.5560 O   0  0  0  0  0  0  0  0  0  0  0  0
    6.3110   -2.4200   26.0190 O   0  0  0  0  0  0  0  0  0  0  0  0
    8.1670   -2.6540   24.3910 N   0  0  0  0  0  0  0  0  0  0  0  0
    8.3930   -1.3930   23.8210 C   0  0  0  0  0  0  0  0  0  0  0  0
    9.0780   -1.2120   22.4750 C   0  0  1  0  0  0  0  0  0  0  0  0
    8.3190   -0.2620   21.5620 C   0  0  0  0  0  0  0  0  0  0  0  0
    8.7670    0.8710   21.3500 O   0  0  0  0  0  0  0  0  0  0  0  0
    7.1610   -0.7730   21.0470 N   0  0  0  0  0  0  0  0  0  0  0  0
    6.4860   -0.0870   20.0280 C   0  0  0  0  0  0  0  0  0  0  0  0
    5.1930    0.7200   20.2930 C   0  0  0  0  0  0  0  0  0  0  0  0
    4.5610    1.4440   19.1220 C   0  0  0  0  0  0  0  0  0  0  0  0
    5.1920    1.3290   17.8910 C   0  0  0  0  0  0  0  0  0  0  0  0
    6.2750    0.6490   17.6540 N   0  0  0  0  0  0  0  0  0  0  0  0
    6.9570   -0.0860   18.7220 C   0  0  0  0  0  0  0  0  0  0  0  0
   10.3820   -0.7680   22.6590 C   0  0  0  0  0  0  0  0  0  0  0  0
   10.6130    0.3650   23.4380 C   0  0  0  0  0  0  0  0  0  0  0  0
   11.8400    0.9620   23.7000 C   0  0  0  0  0  0  0  0  0  0  0  0
   12.9840    0.4020   23.1450 C   0  0  0  0  0  0  0  0  0  0  0  0
   12.8770   -0.8570   22.2790 C   0  0  0  0  0  0  0  0  0  0  0  0
   11.4810   -1.4190   22.0640 C   0  0  0  0  0  0  0  0  0  0  0  0
  1  2  1  0
  2  3  2  0
  2  4  2  0
  2  5  1  0
  5  6  1  0
  7  6  1  1
  7  8  1  0
  8  9  2  0
  8 10  1  0
 10 11  1  0
 11 12  2  0
 12 13  1  0
 13 14  2  0
 14 15  1  0
 11 16  1  0
 15 16  2  0
  7 17  1  0
 17 18  2  0
 18 19  1  0
 19 20  2  0
 20 21  1  0
 17 22  1  0
 21 22  2  0
M  END
