DRV-UNK-dd7f8c68-3-nitrile
     RDKit          3D

 28 31  0  0  0  0  0  0  0  0999 V2000
    8.9330   -4.2730   15.5290 C   0  0  0  0  0  0  0  0  0  0  0  0
    7.5180   -4.0980   15.7200 N   0  0  0  0  0  0  0  0  0  0  0  0
    8.7700   -3.6860   12.2290 N   0  0  0  0  0  0  0  0  0  0  0  0
    8.2210   -2.5130    9.9120 C   0  0  0  0  0  0  0  0  0  0  0  0
    7.8280   -2.2610    7.4280 C   0  0  0  0  0  0  0  0  0  0  0  0
    8.0860   -3.2250    5.9270 N   0  0  0  0  0  0  0  0  0  0  0  0
    8.4450   -2.4600    3.6220 C   0  0  0  0  0  0  0  0  0  0  0  0
    7.7530   -2.8630    2.2010 C   0  0  0  0  0  0  0  0  0  0  0  0
    8.6150   -1.8880    1.2970 C   0  0  0  0  0  0  0  0  0  0  0  0
    7.7360   -2.6600    0.7800 C   0  0  0  0  0  0  0  0  0  0  0  0
    7.4350   -2.6970   -0.6710 C   0  0  1  0  0  0  0  0  0  0  0  0
    6.9670   -2.1170   -1.7100 N   0  0  0  0  0  0  0  0  0  0  0  0
    7.9750   -1.2700   -1.9050 C   0  0  0  0  0  0  0  0  0  0  0  0
    7.4240   -0.4000   -2.8080 O   0  0  0  0  0  0  0  0  0  0  0  0
    7.9300   -2.3240   -1.1240 C   0  0  0  0  0  0  0  0  0  0  0  0
    8.6730   -3.6110   -0.5360 C   0  0  0  0  0  0  0  0  0  0  0  0
    8.4760   -4.8230    0.3720 C   0  0  0  0  0  0  0  0  0  0  0  0
    7.5620   -4.0610    0.1910 C   0  0  0  0  0  0  0  0  0  0  0  0
    8.8870   -3.8680   -0.4510 C   0  0  0  0  0  0  0  0  0  0  0  0
    8.9450   -2.8150   -1.1960 C   0  0  0  0  0  0  0  0  0  0  0  0
    7.5170   -3.1800    2.4740 C   0  0  0  0  0  0  0  0  0  0  0  0
    8.3340   -2.6960    4.3330 C   0  0  0  0  0  0  0  0  0  0  0  0
    7.3050   -3.8910    5.1920 S   0  0  0  0  0  0  0  0  0  0  0  0
    6.6850   -4.8740    3.9730 N   0  0  0  0  0  0  0  0  0  0  0  0
    6.1500   -3.2350    5.7670 O   0  0  0  0  0  0  0  0  0  0  0  0
    8.1230   -4.8510    5.9270 O   0  0  0  0  0  0  0  0  0  0  0  0
    8.8980   -3.7420    7.9210 C   0  0  0  0  0  0  0  0  0  0  0  0
    8.6490   -4.2970   10.1420 C   0  0  0  0  0  0  0  0  0  0  0  0
  1  2  2  3
  1  3  1  0
  3  4  1  0
  4  5  1  0
  5  6  1  0
  6  7  1  0
  7  8  2  0
  8  9  1  0
  9 10  2  0
 11 10  1  1
 11 12  1  0
 12 13  1  0
 13 14  2  0
 13 15  1  0
 15 16  1  0
 16 17  2  0
 17 18  1  0
 18 19  2  0
 11 20  1  0
 15 20  2  0
 19 20  1  0
 10 21  1  0
  7 22  1  0
 21 22  2  0
 22 23  1  0
 23 24  1  0
 23 25  2  0
 23 26  2  0
  6 27  1  0
  3 28  1  0
 27 28  1  0
M  END
