DRV-UNK-7620afc8-1-vinylsulfonamide
     RDKit          3D

 17 17  0  0  0  0  0  0  0  0999 V2000
    7.2720   -5.4750   21.2690 C   0  0  0  0  0  0  0  0  0  0  0  0
    5.8920   -6.0770   21.4550 C   0  0  0  0  0  0  0  0  0  0  0  0
    4.8440   -5.0780   22.4820 S   0  0  0  0  0  0  0  0  0  0  0  0
    4.8240   -3.7540   21.9540 O   0  0  0  0  0  0  0  0  0  0  0  0
    3.5820   -5.7790   22.5220 O   0  0  0  0  0  0  0  0  0  0  0  0
    5.3040   -5.0540   24.1980 C   0  0  0  0  0  0  0  0  0  0  0  0
    4.7210   -5.9290   24.8060 N   0  0  0  0  0  0  0  0  0  0  0  0
    5.4350   -5.3850   25.8510 C   0  0  0  0  0  0  0  0  0  0  0  0
    5.9530   -4.3800   24.5250 C   0  0  0  0  0  0  0  0  0  0  0  0
    6.9560   -3.2110   24.6440 N   0  0  0  0  0  0  0  0  0  0  0  0
    6.1950   -4.2280   25.0180 C   0  0  0  0  0  0  0  0  0  0  0  0
    6.3840   -3.6350   23.6360 N   0  0  0  0  0  0  0  0  0  0  0  0
    7.8230   -3.8560   23.2360 C   0  0  0  0  0  0  0  0  0  0  0  0
    5.9480   -1.9960   23.5200 S   0  0  0  0  0  0  0  0  0  0  0  0
    5.7070   -1.7130   21.7750 C   0  0  0  0  0  0  0  0  0  0  0  0
    7.1160   -1.2220   23.9080 O   0  0  0  0  0  0  0  0  0  0  0  0
    4.6660   -1.7970   24.1700 O   0  0  0  0  0  0  0  0  0  0  0  0
  1  2  1  0
  3  2  1  0
  3  4  2  0
  3  5  2  0
  3  6  1  0
  6  7  2  0
  7  8  1  0
  8  9  2  0
  9 10  1  0
  6 11  1  0
 10 11  2  0
 11 12  1  0
 12 13  1  0
 14 12  1  0
 14 15  1  0
 14 16  2  0
 14 17  2  0
M  END
