DRV-DNY-3e405af9-3
     RDKit          3D

 34 38  0  0  0  0  0  0  0  0999 V2000
    2.6030   -5.4480   22.9170 O   0  0  0  0  0  0  0  0  0  0  0  0
    3.6850   -6.0260   23.1150 N   0  0  0  0  0  0  0  0  0  0  0  0
    3.7730   -7.0780   23.7630 O   0  0  0  0  0  0  0  0  0  0  0  0
    4.8020   -5.2370   23.1470 C   0  0  0  0  0  0  0  0  0  0  0  0
    5.6180   -5.3710   24.3690 C   0  0  0  0  0  0  0  0  0  0  0  0
    6.8640   -4.5170   24.4600 C   0  0  0  0  0  0  0  0  0  0  0  0
    7.1350   -3.5980   23.2650 C   0  0  0  0  0  0  0  0  0  0  0  0
    8.3160   -2.8710   23.4790 N   0  0  0  0  0  0  0  0  0  0  0  0
    8.7300   -1.8860   22.6230 N   0  0  0  0  0  0  0  0  0  0  0  0
    9.9150   -1.5180   23.2490 C   0  0  0  0  0  0  0  0  0  0  0  0
   10.9250   -0.6730   23.0840 C   0  0  0  0  0  0  0  0  0  0  0  0
   12.1110   -1.3300   22.8470 C   0  0  0  0  0  0  0  0  0  0  0  0
   13.2610   -0.6290   22.6880 C   0  0  0  0  0  0  0  0  0  0  0  0
   13.2830    0.8560   22.7650 C   0  0  0  0  0  0  0  0  0  0  0  0
   11.9420    1.5110   23.0120 C   0  0  0  0  0  0  0  0  0  0  0  0
   11.8430    2.8450   23.0840 C   0  0  0  0  0  0  0  0  0  0  0  0
   10.6420    3.5100   23.3100 C   0  0  0  0  0  0  0  0  0  0  0  0
    9.4910    2.7540   23.4720 C   0  0  0  0  0  0  0  0  0  0  0  0
    9.5770    1.3710   23.4000 C   0  0  0  0  0  0  0  0  0  0  0  0
   10.8030    0.7280   23.1660 C   0  0  0  0  0  0  0  0  0  0  0  0
   10.1600   -2.2780   24.4500 C   0  0  0  0  0  0  0  0  0  0  0  0
    9.1110   -3.1040   24.5260 C   0  0  0  0  0  0  0  0  0  0  0  0
    8.9250   -4.0240   25.5390 C   0  0  0  0  0  0  0  0  0  0  0  0
    8.0910   -3.6580   26.6790 C   0  0  0  0  0  0  0  0  0  0  0  0
    7.9010   -4.5750   27.7230 C   0  0  0  0  0  0  0  0  0  0  0  0
    8.5900   -5.6660   27.4000 C   0  0  0  0  0  0  0  0  0  0  0  0
    8.7120   -4.7350   26.4550 F   0  0  0  0  0  0  0  0  0  0  0  0
    9.3880   -6.2130   26.4600 C   0  0  0  0  0  0  0  0  0  0  0  0
    9.5710   -5.3070   25.4290 C   0  0  0  0  0  0  0  0  0  0  0  0
    6.3050   -3.5510   22.1800 C   0  0  0  0  0  0  0  0  0  0  0  0
    6.4770   -2.7570   21.0940 N   0  0  0  0  0  0  0  0  0  0  0  0
    7.1150   -1.7050   21.2370 O   0  0  0  0  0  0  0  0  0  0  0  0
    6.1640   -3.2610   20.0130 O   0  0  0  0  0  0  0  0  0  0  0  0
    5.1850   -4.3460   22.1160 C   0  0  0  0  0  0  0  0  0  0  0  0
  1  2  2  0
  2  3  1  0
  2  4  1  0
  4  5  2  0
  5  6  1  0
  6  7  2  0
  7  8  1  0
  8  9  1  0
  9 10  2  0
 10 11  1  0
 11 12  2  0
 12 13  1  0
 13 14  2  0
 14 15  1  0
 15 16  1  0
 16 17  2  0
 17 18  1  0
 18 19  2  0
 11 20  1  0
 15 20  2  0
 19 20  1  0
 10 21  1  0
  8 22  1  0
 21 22  2  0
 22 23  1  0
 23 24  2  0
 24 25  1  0
 25 26  2  0
 26 27  1  0
 26 28  1  0
 23 29  1  0
 28 29  2  0
  7 30  1  0
 30 31  1  0
 31 32  2  0
 31 33  1  0
  4 34  1  0
 30 34  2  0
M  CHG  4   2   1   3  -1  31   1  33  -1
M  END
