DRV-DNY-3e405af9-1
     RDKit          3D

 33 36  0  0  0  0  0  0  0  0999 V2000
   13.3870    4.1410   21.4610 O   0  0  0  0  0  0  0  0  0  0  0  0
   12.3900    4.1020   22.1880 N   0  0  0  0  0  0  0  0  0  0  0  0
   11.7840    5.1150   22.5640 O   0  0  0  0  0  0  0  0  0  0  0  0
   11.8400    2.8790   22.4820 C   0  0  0  0  0  0  0  0  0  0  0  0
   10.3520    2.7590   22.3270 C   0  0  0  0  0  0  0  0  0  0  0  0
    9.6900    1.4200   22.6510 C   0  0  0  0  0  0  0  0  0  0  0  0
   10.6480    0.3150   23.1210 C   0  0  0  0  0  0  0  0  0  0  0  0
    9.9450   -0.9590   23.4730 C   0  0  0  0  0  0  0  0  0  0  0  0
   10.2200   -1.8190   24.5220 C   0  0  0  0  0  0  0  0  0  0  0  0
    9.3260   -2.8520   24.5640 C   0  0  0  0  0  0  0  0  0  0  0  0
    9.2160   -3.9180   25.4750 C   0  0  0  0  0  0  0  0  0  0  0  0
    9.8880   -5.2930   25.2970 C   0  0  0  0  0  0  0  0  0  0  0  0
    9.5790   -6.2560   26.4270 C   0  0  0  0  0  0  0  0  0  0  0  0
    8.8150   -5.6640   27.2700 C   0  0  0  0  0  0  0  0  0  0  0  0
    9.0600   -4.7810   26.3040 F   0  0  0  0  0  0  0  0  0  0  0  0
    8.1470   -4.5700   27.6260 C   0  0  0  0  0  0  0  0  0  0  0  0
    8.3770   -3.6290   26.6250 C   0  0  0  0  0  0  0  0  0  0  0  0
    8.4630   -2.5950   23.4580 N   0  0  0  0  0  0  0  0  0  0  0  0
    7.3940   -3.3440   23.1260 C   0  0  0  0  0  0  0  0  0  0  0  0
    7.2620   -4.3830   24.0650 C   0  0  0  0  0  0  0  0  0  0  0  0
    6.2260   -5.2810   23.9770 C   0  0  0  0  0  0  0  0  0  0  0  0
    5.3160   -5.1620   22.9560 C   0  0  0  0  0  0  0  0  0  0  0  0
    4.3600   -6.0900   23.0100 N   0  0  0  0  0  0  0  0  0  0  0  0
    4.4450   -6.8950   23.9480 O   0  0  0  0  0  0  0  0  0  0  0  0
    3.2670   -5.7290   22.5660 O   0  0  0  0  0  0  0  0  0  0  0  0
    5.4500   -4.1360   22.0080 C   0  0  0  0  0  0  0  0  0  0  0  0
    6.4850   -3.2220   22.0920 C   0  0  0  0  0  0  0  0  0  0  0  0
    6.5270   -2.1860   21.0730 N   0  0  0  0  0  0  0  0  0  0  0  0
    7.5210   -1.4580   21.0680 O   0  0  0  0  0  0  0  0  0  0  0  0
    5.8100   -2.3930   20.0870 O   0  0  0  0  0  0  0  0  0  0  0  0
    8.8530   -1.4550   22.7910 N   0  0  0  0  0  0  0  0  0  0  0  0
   12.0360    0.5450   23.2150 C   0  0  0  0  0  0  0  0  0  0  0  0
   12.6100    1.7820   22.9020 C   0  0  0  0  0  0  0  0  0  0  0  0
  1  2  2  0
  2  3  1  0
  2  4  1  0
  4  5  2  0
  5  6  1  0
  6  7  2  0
  7  8  1  0
  8  9  1  0
  9 10  2  0
 10 11  1  0
 11 12  2  0
 12 13  1  0
 13 14  2  0
 14 15  1  0
 14 16  1  0
 11 17  1  0
 16 17  2  0
 10 18  1  0
 18 19  1  0
 19 20  2  0
 20 21  1  0
 21 22  2  0
 22 23  1  0
 23 24  2  0
 23 25  1  0
 22 26  1  0
 19 27  1  0
 26 27  2  0
 27 28  1  0
 28 29  2  0
 28 30  1  0
  8 31  2  0
 18 31  1  0
  7 32  1  0
  4 33  1  0
 32 33  2  0
M  CHG  6   2   1   3  -1  23   1  25  -1  28   1  30  -1
M  END
