DRV-UNK-64047f27-2-acrylamide
     RDKit          3D

 30 33  0  0  0  0  0  0  0  0999 V2000
    6.6370   -3.3580   18.2500 C   0  0  0  0  0  0  0  0  0  0  0  0
    6.1960   -3.9350   16.7060 C   0  0  0  0  0  0  0  0  0  0  0  0
    4.6130   -3.8700   16.0360 C   0  0  0  0  0  0  0  0  0  0  0  0
    3.7860   -4.1170   18.3760 O   0  0  0  0  0  0  0  0  0  0  0  0
    4.7520   -3.6390   13.3260 N   0  0  0  0  0  0  0  0  0  0  0  0
    5.8920   -3.4540   11.6120 C   0  0  0  0  0  0  0  0  0  0  0  0
    6.1750   -3.2900    9.3690 C   0  0  0  0  0  0  0  0  0  0  0  0
    5.3770   -2.9490    7.5930 N   0  0  0  0  0  0  0  0  0  0  0  0
    5.7460   -2.5870    4.8280 C   0  0  0  0  0  0  0  0  0  0  0  0
    6.1180   -1.7470    3.0550 C   0  0  0  0  0  0  0  0  0  0  0  0
    5.9410   -2.7440    1.5600 C   0  0  0  0  0  0  0  0  0  0  0  0
    5.7870   -3.6150    0.2550 C   0  0  0  0  0  0  0  0  0  0  0  0
    5.4240   -4.9560   -0.0190 C   0  0  2  0  0  0  0  0  0  0  0  0
    5.6550   -5.9870   -0.3380 N   0  0  0  0  0  0  0  0  0  0  0  0
    4.7680   -6.7830   -0.5450 C   0  0  0  0  0  0  0  0  0  0  0  0
    4.7300   -8.1660   -0.7190 O   0  0  0  0  0  0  0  0  0  0  0  0
    3.6370   -6.0970   -0.6540 C   0  0  0  0  0  0  0  0  0  0  0  0
    2.5870   -6.8140   -1.0370 C   0  0  0  0  0  0  0  0  0  0  0  0
    1.4670   -6.3450   -1.1190 C   0  0  0  0  0  0  0  0  0  0  0  0
    1.0000   -5.1140   -0.8280 C   0  0  0  0  0  0  0  0  0  0  0  0
    2.2890   -4.5100   -0.4410 C   0  0  0  0  0  0  0  0  0  0  0  0
    3.9460   -4.7420   -0.2170 C   0  0  0  0  0  0  0  0  0  0  0  0
    5.5850   -3.8940    1.6120 C   0  0  0  0  0  0  0  0  0  0  0  0
    5.8520   -2.8350    2.8260 C   0  0  0  0  0  0  0  0  0  0  0  0
    6.2840   -2.1470    0.9070 S   0  0  0  0  0  0  0  0  0  0  0  0
    6.3920   -0.6790   -0.1670 N   0  0  0  0  0  0  0  0  0  0  0  0
    4.9960   -2.4560    0.3540 O   0  0  0  0  0  0  0  0  0  0  0  0
    7.4700   -2.9470    0.4870 O   0  0  0  0  0  0  0  0  0  0  0  0
    4.1800   -3.1550    9.2840 C   0  0  0  0  0  0  0  0  0  0  0  0
    4.0350   -3.1380   11.4680 C   0  0  0  0  0  0  0  0  0  0  0  0
  1  2  1  0
  2  3  1  0
  3  4  2  0
  3  5  1  0
  5  6  1  0
  6  7  1  0
  7  8  1  0
  8  9  1  0
  9 10  2  0
 10 11  1  0
 11 12  2  0
 13 12  1  6
 13 14  1  0
 14 15  1  0
 15 16  2  0
 15 17  1  0
 17 18  1  0
 18 19  2  0
 19 20  1  0
 20 21  2  0
 13 22  1  0
 17 22  2  0
 21 22  1  0
 12 23  1  0
  9 24  1  0
 23 24  2  0
 24 25  1  0
 25 26  1  0
 25 27  2  0
 25 28  2  0
  8 29  1  0
  5 30  1  0
 29 30  1  0
M  END
