DRV-DNY-ae159ed1-1
     RDKit          3D

 20 22  0  0  0  0  0  0  0  0999 V2000
   10.0690    2.0520   25.0400 O   0  0  0  0  0  0  0  0  0  0  0  0
    9.7660    1.0050   24.5420 C   0  0  0  0  0  0  0  0  0  0  0  0
    8.3850    0.6120   24.6090 C   0  0  0  0  0  0  0  0  0  0  0  0
    7.4800    1.5200   23.8290 C   0  0  0  0  0  0  0  0  0  0  0  0
    5.9850    1.3260   23.7630 C   0  0  0  0  0  0  0  0  0  0  0  0
    5.2300    0.8320   24.9760 C   0  0  0  0  0  0  0  0  0  0  0  0
    3.8670    0.7420   24.7840 N   0  0  0  0  0  0  0  0  0  0  0  0
    3.1780    1.0730   23.5840 C   0  0  0  0  0  0  0  0  0  0  0  0
    1.6480    0.9580   23.5070 C   0  0  0  0  0  0  0  0  0  0  0  0
    0.9540    1.3320   22.1880 C   0  0  0  0  0  0  0  0  0  0  0  0
    1.8380    1.7900   21.0290 C   0  0  0  0  0  0  0  0  0  0  0  0
    3.2190    1.8720   21.1660 C   0  0  0  0  0  0  0  0  0  0  0  0
    3.8910    1.5120   22.4680 C   0  0  0  0  0  0  0  0  0  0  0  0
    5.3550    1.6800   22.4380 N   0  0  0  0  0  0  0  0  0  0  0  0
   10.7920    0.2660   23.8020 C   0  0  0  0  0  0  0  0  0  0  0  0
   10.5250   -1.0310   23.3710 C   0  0  0  0  0  0  0  0  0  0  0  0
   11.4940   -1.7260   22.6450 C   0  0  0  0  0  0  0  0  0  0  0  0
   12.7230   -1.1310   22.3530 C   0  0  0  0  0  0  0  0  0  0  0  0
   12.9810    0.2680   22.8430 C   0  0  0  0  0  0  0  0  0  0  0  0
   12.0180    0.8800   23.5270 C   0  0  0  0  0  0  0  0  0  0  0  0
  1  2  2  0
  2  3  1  0
  3  4  2  3
  4  5  1  0
  5  6  2  0
  6  7  1  0
  7  8  2  0
  8  9  1  0
  9 10  2  0
 10 11  1  0
 11 12  2  0
  8 13  1  0
 12 13  1  0
  5 14  1  0
 13 14  2  0
  2 15  1  0
 15 16  2  0
 16 17  1  0
 17 18  2  0
 18 19  1  0
 15 20  1  0
 19 20  2  0
M  END
