DRV-UNK-64047f27-2-chloroacetamide
     RDKit          3D

 29 32  0  0  0  0  0  0  0  0999 V2000
   10.0100   -4.7730   15.7820 C   0  0  0  0  0  0  0  0  0  0  0  0
    8.6860   -4.2320   13.9070 C   0  0  0  0  0  0  0  0  0  0  0  0
    7.4280   -4.0310   14.7640 O   0  0  0  0  0  0  0  0  0  0  0  0
    8.6580   -3.9600   11.3450 N   0  0  0  0  0  0  0  0  0  0  0  0
    7.7020   -3.6620    9.7010 C   0  0  0  0  0  0  0  0  0  0  0  0
    7.7680   -3.9660    7.5740 C   0  0  0  0  0  0  0  0  0  0  0  0
    8.6650   -3.3520    5.8970 N   0  0  0  0  0  0  0  0  0  0  0  0
    8.3060   -2.8770    3.2130 C   0  0  0  0  0  0  0  0  0  0  0  0
    9.4280   -3.4470    1.9540 C   0  0  0  0  0  0  0  0  0  0  0  0
    8.7890   -2.8140    0.4930 C   0  0  0  0  0  0  0  0  0  0  0  0
    8.5870   -2.4790   -0.9330 C   0  0  0  0  0  0  0  0  0  0  0  0
    7.9200   -1.9140   -2.0130 C   0  0  2  0  0  0  0  0  0  0  0  0
    7.5590   -1.5410   -3.0820 N   0  0  0  0  0  0  0  0  0  0  0  0
    8.3530   -0.2860   -3.3880 C   0  0  0  0  0  0  0  0  0  0  0  0
    8.3230    0.3600   -4.5080 O   0  0  0  0  0  0  0  0  0  0  0  0
    9.2050    0.1060   -2.2150 C   0  0  0  0  0  0  0  0  0  0  0  0
    9.2980    0.9270   -3.2460 C   0  0  0  0  0  0  0  0  0  0  0  0
    9.4910    1.8180   -4.1870 C   0  0  0  0  0  0  0  0  0  0  0  0
    8.4930    0.9510   -4.8230 C   0  0  0  0  0  0  0  0  0  0  0  0
    8.5020    0.1080   -3.6360 C   0  0  0  0  0  0  0  0  0  0  0  0
    8.4410   -0.7890   -2.5040 C   0  0  0  0  0  0  0  0  0  0  0  0
    7.4370   -2.0080   -0.1510 C   0  0  0  0  0  0  0  0  0  0  0  0
    7.2040   -2.0350    1.6280 C   0  0  0  0  0  0  0  0  0  0  0  0
    6.1220   -1.2080    0.0700 S   0  0  0  0  0  0  0  0  0  0  0  0
    6.5270   -0.5870   -1.6620 N   0  0  0  0  0  0  0  0  0  0  0  0
    5.3480   -2.3690   -0.3480 O   0  0  0  0  0  0  0  0  0  0  0  0
    5.5040   -0.1140    0.7220 O   0  0  0  0  0  0  0  0  0  0  0  0
    9.5480   -3.0980    7.7080 C   0  0  0  0  0  0  0  0  0  0  0  0
    9.6050   -3.8240    9.6230 C   0  0  0  0  0  0  0  0  0  0  0  0
  1  2  1  0
  2  3  2  0
  2  4  1  0
  4  5  1  0
  5  6  1  0
  6  7  1  0
  7  8  1  0
  8  9  2  0
  9 10  1  0
 10 11  2  0
 12 11  1  6
 12 13  1  0
 13 14  1  0
 14 15  2  0
 14 16  1  0
 16 17  1  0
 17 18  2  0
 18 19  1  0
 19 20  2  0
 12 21  1  0
 16 21  2  0
 20 21  1  0
 11 22  1  0
  8 23  1  0
 22 23  2  0
 23 24  1  0
 24 25  1  0
 24 26  2  0
 24 27  2  0
  7 28  1  0
  4 29  1  0
 28 29  1  0
M  END
