DRV-UNK-7620afc8-1-nitrile
     RDKit          3D

 14 14  0  0  0  0  0  0  0  0999 V2000
    6.0550   -5.7410   20.4190 C   0  0  0  0  0  0  0  0  0  0  0  0
    5.5020   -6.4780   19.5700 N   0  0  0  0  0  0  0  0  0  0  0  0
    5.2560   -5.4990   21.6990 C   0  0  0  0  0  0  0  0  0  0  0  0
    4.2800   -6.4430   22.1710 N   0  0  0  0  0  0  0  0  0  0  0  0
    3.4230   -6.3180   23.3460 C   0  0  0  0  0  0  0  0  0  0  0  0
    3.3860   -5.2290   24.2780 C   0  0  0  0  0  0  0  0  0  0  0  0
    4.2250   -5.1510   23.3020 N   0  0  0  0  0  0  0  0  0  0  0  0
    5.2180   -4.5100   22.5980 C   0  0  0  0  0  0  0  0  0  0  0  0
    5.8470   -3.2650   22.8590 N   0  0  0  0  0  0  0  0  0  0  0  0
    5.8060   -2.3490   21.8340 C   0  0  0  0  0  0  0  0  0  0  0  0
    7.3100   -3.5490   23.6260 S   0  0  0  0  0  0  0  0  0  0  0  0
    7.3290   -5.3400   23.6410 C   0  0  0  0  0  0  0  0  0  0  0  0
    8.3760   -3.0720   22.7710 O   0  0  0  0  0  0  0  0  0  0  0  0
    7.1330   -3.0790   24.9800 O   0  0  0  0  0  0  0  0  0  0  0  0
  1  2  2  3
  1  3  1  0
  3  4  2  0
  4  5  1  0
  5  6  2  0
  6  7  1  0
  3  8  1  0
  7  8  2  0
  8  9  1  0
  9 10  1  0
 11  9  1  0
 11 12  1  0
 11 13  2  0
 11 14  2  0
M  END
