DRV-UNK-dd7f8c68-2-acrylamide
     RDKit          3D

 30 33  0  0  0  0  0  0  0  0999 V2000
    7.5920   -3.4540   19.1950 C   0  0  0  0  0  0  0  0  0  0  0  0
    7.0240   -2.5770   18.1630 C   0  0  0  0  0  0  0  0  0  0  0  0
    6.0110   -3.3990   17.2840 C   0  0  0  0  0  0  0  0  0  0  0  0
    4.7370   -3.8650   18.9340 O   0  0  0  0  0  0  0  0  0  0  0  0
    5.6580   -3.5950   13.8920 N   0  0  0  0  0  0  0  0  0  0  0  0
    4.2890   -3.7670   11.8870 C   0  0  0  0  0  0  0  0  0  0  0  0
    4.3170   -3.2510    9.6120 C   0  0  0  0  0  0  0  0  0  0  0  0
    3.3420   -2.9930    6.9760 N   0  0  0  0  0  0  0  0  0  0  0  0
    4.1520   -2.5900    3.1930 C   0  0  0  0  0  0  0  0  0  0  0  0
    5.0930   -1.9910    1.2010 C   0  0  0  0  0  0  0  0  0  0  0  0
    5.8050   -1.5390   -0.3180 C   0  0  0  0  0  0  0  0  0  0  0  0
    6.6730   -0.9370   -1.3780 C   0  0  0  0  0  0  0  0  0  0  0  0
    7.7670    0.0070   -1.6550 C   0  0  1  0  0  0  0  0  0  0  0  0
    8.4700    0.8090   -2.1320 N   0  0  0  0  0  0  0  0  0  0  0  0
    7.5850    1.7040   -2.9180 C   0  0  0  0  0  0  0  0  0  0  0  0
    7.3270    3.0520   -2.9210 O   0  0  0  0  0  0  0  0  0  0  0  0
    6.8550    0.8930   -3.8080 C   0  0  0  0  0  0  0  0  0  0  0  0
    6.5220    1.8640   -4.8560 C   0  0  0  0  0  0  0  0  0  0  0  0
    7.1280    3.0900   -4.2330 C   0  0  0  0  0  0  0  0  0  0  0  0
    7.8390    3.3660   -3.0120 C   0  0  0  0  0  0  0  0  0  0  0  0
    7.4640    2.1530   -3.2050 C   0  0  0  0  0  0  0  0  0  0  0  0
    7.4330    0.8220   -2.6760 C   0  0  0  0  0  0  0  0  0  0  0  0
    5.6230   -1.7240   -0.4200 C   0  0  0  0  0  0  0  0  0  0  0  0
    4.6030   -2.3660    1.0860 C   0  0  0  0  0  0  0  0  0  0  0  0
    6.1280   -1.3130   -0.5890 S   0  0  0  0  0  0  0  0  0  0  0  0
    6.1290   -0.2630   -2.1720 N   0  0  0  0  0  0  0  0  0  0  0  0
    6.5910   -2.3000   -1.5680 O   0  0  0  0  0  0  0  0  0  0  0  0
    7.2190   -0.5930   -0.2170 O   0  0  0  0  0  0  0  0  0  0  0  0
    4.1170   -2.8790    9.6410 C   0  0  0  0  0  0  0  0  0  0  0  0
    4.0510   -3.5240   11.9490 C   0  0  0  0  0  0  0  0  0  0  0  0
  1  2  1  0
  2  3  1  0
  3  4  2  0
  3  5  1  0
  5  6  1  0
  6  7  1  0
  7  8  1  0
  8  9  1  0
  9 10  2  0
 10 11  1  0
 11 12  2  0
 13 12  1  6
 13 14  1  0
 14 15  1  0
 15 16  2  0
 15 17  1  0
 17 18  1  0
 18 19  2  0
 19 20  1  0
 20 21  2  0
 13 22  1  0
 17 22  2  0
 21 22  1  0
 12 23  1  0
  9 24  1  0
 23 24  2  0
 24 25  1  0
 25 26  1  0
 25 27  2  0
 25 28  2  0
  8 29  1  0
  5 30  1  0
 29 30  1  0
M  END
