DRV-UNK-7620afc8-1-vinylsulfonamide
     RDKit          3D

 17 17  0  0  0  0  0  0  0  0999 V2000
    6.0530   -5.4400   20.3080 C   0  0  0  0  0  0  0  0  0  0  0  0
    6.3320   -6.1100   21.6410 C   0  0  0  0  0  0  0  0  0  0  0  0
    5.6220   -5.1500   22.9240 S   0  0  0  0  0  0  0  0  0  0  0  0
    4.4240   -4.4870   22.4350 O   0  0  0  0  0  0  0  0  0  0  0  0
    5.5710   -5.9710   24.1180 O   0  0  0  0  0  0  0  0  0  0  0  0
    6.7760   -3.8500   23.2310 C   0  0  0  0  0  0  0  0  0  0  0  0
    6.2360   -3.4650   24.2080 N   0  0  0  0  0  0  0  0  0  0  0  0
    7.4660   -2.7160   23.8440 C   0  0  0  0  0  0  0  0  0  0  0  0
    8.0570   -1.6310   24.4710 C   0  0  0  0  0  0  0  0  0  0  0  0
    7.1850   -1.6650   25.2680 N   0  0  0  0  0  0  0  0  0  0  0  0
    6.9170   -2.8060   24.2590 C   0  0  0  0  0  0  0  0  0  0  0  0
    8.0920   -2.2630   23.6390 N   0  0  0  0  0  0  0  0  0  0  0  0
    9.3210   -3.0800   23.5530 C   0  0  0  0  0  0  0  0  0  0  0  0
    7.8280   -1.0810   22.3730 S   0  0  0  0  0  0  0  0  0  0  0  0
    6.4310   -1.6710   21.4190 C   0  0  0  0  0  0  0  0  0  0  0  0
    9.0010   -1.1150   21.5230 O   0  0  0  0  0  0  0  0  0  0  0  0
    7.3990    0.1470   23.0130 O   0  0  0  0  0  0  0  0  0  0  0  0
  1  2  1  0
  3  2  1  0
  3  4  2  0
  3  5  2  0
  3  6  1  0
  6  7  2  0
  7  8  1  0
  8  9  2  0
  9 10  1  0
  6 11  1  0
 10 11  2  0
 11 12  1  0
 12 13  1  0
 14 12  1  0
 14 15  1  0
 14 16  2  0
 14 17  2  0
M  END
