DRV-UNK-64047f27-6
     RDKit          3D

 34 38  0  0  0  0  0  0  0  0999 V2000
   11.4830   -2.2560   -6.7180 N   0  0  0  0  0  0  0  0  0  0  0  0
   10.0770   -1.3250   -6.7370 S   0  0  0  0  0  0  0  0  0  0  0  0
   10.3730   -0.2620   -7.6300 O   0  0  0  0  0  0  0  0  0  0  0  0
    9.8620   -1.1080   -5.3400 O   0  0  0  0  0  0  0  0  0  0  0  0
    8.6610   -2.2050   -7.4100 C   0  0  0  0  0  0  0  0  0  0  0  0
    8.7090   -3.4530   -8.2570 C   0  0  0  0  0  0  0  0  0  0  0  0
    7.3900   -4.0760   -8.7500 C   0  0  0  0  0  0  0  0  0  0  0  0
    7.3950   -5.3360   -9.6370 C   0  0  2  0  0  0  0  0  0  0  0  0
    8.6880   -6.1100   -9.5810 N   0  0  0  0  0  0  0  0  0  0  0  0
    9.4720   -5.8630  -10.7970 C   0  0  0  0  0  0  0  0  0  0  0  0
   10.6520   -6.0860  -11.0160 O   0  0  0  0  0  0  0  0  0  0  0  0
    8.4520   -5.2510  -11.6900 C   0  0  0  0  0  0  0  0  0  0  0  0
    8.6440   -4.9620  -13.1630 C   0  0  0  0  0  0  0  0  0  0  0  0
    7.5760   -4.3700  -13.8560 C   0  0  0  0  0  0  0  0  0  0  0  0
    6.3810   -4.0670  -13.1980 C   0  0  0  0  0  0  0  0  0  0  0  0
    6.2240   -4.3460  -11.8340 C   0  0  0  0  0  0  0  0  0  0  0  0
    7.2620   -4.9330  -11.1010 C   0  0  0  0  0  0  0  0  0  0  0  0
    6.2080   -3.4390   -8.3700 C   0  0  0  0  0  0  0  0  0  0  0  0
    6.2220   -2.2790   -7.5850 C   0  0  0  0  0  0  0  0  0  0  0  0
    7.4060   -1.6900   -7.1320 C   0  0  0  0  0  0  0  0  0  0  0  0
    7.2180   -0.5020   -6.3600 N   0  0  0  0  0  0  0  0  0  0  0  0
    6.1110    0.2180   -6.6250 C   0  0  0  0  0  0  0  0  0  0  0  0
    6.0600    1.5550   -6.1470 C   0  0  0  0  0  0  0  0  0  0  0  0
    6.9090    1.9040   -5.1300 N   0  0  0  0  0  0  0  0  0  0  0  0
    6.4720    3.0990   -4.5650 C   0  0  0  0  0  0  0  0  0  0  0  0
    5.7350    3.8400   -5.2020 O   0  0  0  0  0  0  0  0  0  0  0  0
    6.7970    3.6060   -3.1060 C   0  0  0  0  0  0  0  0  0  0  0  0
    5.9610    4.7710   -2.6210 C   0  0  0  0  0  0  0  0  0  0  0  0
    6.0120    5.3610   -1.4130 N   0  0  0  0  0  0  0  0  0  0  0  0
    6.9010    4.8580   -0.5900 C   0  0  0  0  0  0  0  0  0  0  0  0
    7.7910    3.7230   -1.0180 C   0  0  0  0  0  0  0  0  0  0  0  0
    7.7340    3.1000   -2.2500 N   0  0  0  0  0  0  0  0  0  0  0  0
    7.3970    0.8250   -4.3060 C   0  0  0  0  0  0  0  0  0  0  0  0
    7.5180   -0.5840   -4.9410 C   0  0  0  0  0  0  0  0  0  0  0  0
  2  1  1  0
  2  3  2  0
  2  4  2  0
  2  5  1  0
  5  6  2  0
  6  7  1  0
  8  7  1  1
  8  9  1  0
  9 10  1  0
 10 11  2  0
 10 12  1  0
 12 13  1  0
 13 14  2  0
 14 15  1  0
 15 16  2  0
  8 17  1  0
 12 17  2  0
 16 17  1  0
  7 18  2  0
 18 19  1  0
  5 20  1  0
 19 20  2  0
 20 21  1  0
 21 22  1  0
 22 23  1  0
 23 24  1  0
 24 25  1  0
 25 26  2  0
 25 27  1  0
 27 28  2  0
 28 29  1  0
 29 30  2  0
 30 31  1  0
 27 32  1  0
 31 32  2  0
 24 33  1  0
 21 34  1  0
 33 34  1  0
M  END
