DRV-DNY-3e405af9-4
     RDKit          3D

 30 33  0  0  0  0  0  0  0  0999 V2000
    2.5330   -4.4530   31.0140 O   0  0  0  0  0  0  0  0  0  0  0  0
    2.8810   -5.3180   30.1900 N   0  0  0  0  0  0  0  0  0  0  0  0
    2.3450   -6.4310   30.1040 O   0  0  0  0  0  0  0  0  0  0  0  0
    3.6490   -4.9070   29.1290 C   0  0  0  0  0  0  0  0  0  0  0  0
    4.0900   -5.9690   28.1640 C   0  0  0  0  0  0  0  0  0  0  0  0
    4.9380   -5.5540   26.9640 C   0  0  0  0  0  0  0  0  0  0  0  0
    5.2540   -4.0630   26.8810 C   0  0  0  0  0  0  0  0  0  0  0  0
    6.0550   -3.7550   25.7010 N   0  0  0  0  0  0  0  0  0  0  0  0
    6.0670   -2.4940   25.1370 N   0  0  0  0  0  0  0  0  0  0  0  0
    6.9080   -2.6860   23.9870 C   0  0  0  0  0  0  0  0  0  0  0  0
    7.2960   -1.9860   22.9590 C   0  0  0  0  0  0  0  0  0  0  0  0
    6.1210   -1.9750   22.0040 C   0  0  0  0  0  0  0  0  0  0  0  0
    6.6340   -1.2590   20.8990 C   0  0  0  0  0  0  0  0  0  0  0  0
    7.9660   -0.7880   20.9480 C   0  0  0  0  0  0  0  0  0  0  0  0
    9.0410   -0.8240   21.8780 C   0  0  0  0  0  0  0  0  0  0  0  0
    8.5810   -1.4960   22.9460 N   0  0  0  0  0  0  0  0  0  0  0  0
    7.3940   -3.9030   23.9100 C   0  0  0  0  0  0  0  0  0  0  0  0
    6.8680   -4.5350   24.8940 C   0  0  0  0  0  0  0  0  0  0  0  0
    7.3650   -5.6680   24.6030 C   0  0  0  0  0  0  0  0  0  0  0  0
    8.4370   -6.3340   25.0600 C   0  0  0  0  0  0  0  0  0  0  0  0
    8.6970   -7.5010   24.4050 C   0  0  0  0  0  0  0  0  0  0  0  0
    7.8930   -7.9590   23.3520 C   0  0  0  0  0  0  0  0  0  0  0  0
    8.1270   -9.0740   22.7370 F   0  0  0  0  0  0  0  0  0  0  0  0
    6.8370   -7.2730   22.9390 C   0  0  0  0  0  0  0  0  0  0  0  0
    6.5720   -6.1320   23.5600 C   0  0  0  0  0  0  0  0  0  0  0  0
    4.7810   -3.1530   27.8570 C   0  0  0  0  0  0  0  0  0  0  0  0
    5.0470   -1.7900   27.8040 N   0  0  0  0  0  0  0  0  0  0  0  0
    5.7100   -1.3460   28.7550 O   0  0  0  0  0  0  0  0  0  0  0  0
    4.2450   -1.1110   27.1470 O   0  0  0  0  0  0  0  0  0  0  0  0
    4.0010   -3.5570   28.9520 C   0  0  0  0  0  0  0  0  0  0  0  0
  1  2  2  0
  2  3  1  0
  2  4  1  0
  4  5  2  0
  5  6  1  0
  6  7  2  0
  7  8  1  0
  8  9  1  0
  9 10  2  0
 10 11  1  0
 11 12  2  0
 12 13  1  0
 13 14  2  0
 14 15  1  0
 11 16  1  0
 15 16  2  0
 10 17  1  0
  8 18  1  0
 17 18  2  0
 18 19  1  0
 19 20  2  0
 20 21  1  0
 21 22  2  0
 22 23  1  0
 22 24  1  0
 19 25  1  0
 24 25  2  0
  7 26  1  0
 26 27  1  0
 27 28  2  0
 27 29  1  0
  4 30  1  0
 26 30  2  0
M  CHG  4   2   1   3  -1  27   1  29  -1
M  END
