DRV-UNK-dd7f8c68-7
     RDKit          3D

 30 33  0  0  0  0  0  0  0  0999 V2000
    5.2420   -4.1960   28.2810 C   0  0  0  0  0  0  0  0  0  0  0  0
    4.2610   -4.4060   27.2630 O   0  0  0  0  0  0  0  0  0  0  0  0
    4.7290   -4.8670   26.0620 C   0  0  0  0  0  0  0  0  0  0  0  0
    5.9650   -4.1880   25.5230 C   0  0  0  0  0  0  0  0  0  0  0  0
    6.5750   -4.6300   24.2110 C   0  0  0  0  0  0  0  0  0  0  0  0
    7.6750   -4.0830   23.6730 N   0  0  0  0  0  0  0  0  0  0  0  0
    7.4820   -3.2600   22.6250 C   0  0  0  0  0  0  0  0  0  0  0  0
    6.2030   -3.2690   21.7740 C   0  0  0  0  0  0  0  0  0  0  0  0
    6.0670   -2.3010   20.5970 C   0  0  0  0  0  0  0  0  0  0  0  0
    7.1030   -1.3930   20.2750 C   0  0  0  0  0  0  0  0  0  0  0  0
    7.1090   -0.4710   19.2570 C   0  0  1  0  0  0  0  0  0  0  0  0
    5.9310   -0.3310   18.4170 N   0  0  0  0  0  0  0  0  0  0  0  0
    5.0570    0.6720   18.9690 C   0  0  0  0  0  0  0  0  0  0  0  0
    3.8490    0.8350   18.7390 O   0  0  0  0  0  0  0  0  0  0  0  0
    5.9010    1.4090   19.8310 C   0  0  0  0  0  0  0  0  0  0  0  0
    5.5820    2.5190   20.3820 C   0  0  0  0  0  0  0  0  0  0  0  0
    4.4180    2.5220   19.8530 C   0  0  0  0  0  0  0  0  0  0  0  0
    4.1660    1.3620   19.0170 C   0  0  0  0  0  0  0  0  0  0  0  0
    5.5080    0.5610   19.1370 C   0  0  0  0  0  0  0  0  0  0  0  0
    6.8480    0.6980   19.8270 C   0  0  0  0  0  0  0  0  0  0  0  0
    8.2590   -1.3930   21.0650 C   0  0  0  0  0  0  0  0  0  0  0  0
    8.4640   -2.3230   22.2470 C   0  0  0  0  0  0  0  0  0  0  0  0
   10.0380   -2.0770   23.0590 S   0  0  0  0  0  0  0  0  0  0  0  0
   11.1750   -2.2160   21.8270 N   0  0  0  0  0  0  0  0  0  0  0  0
   10.2800   -3.1590   23.9770 O   0  0  0  0  0  0  0  0  0  0  0  0
   10.1260   -0.6930   23.4730 O   0  0  0  0  0  0  0  0  0  0  0  0
    5.8940   -5.6850   23.5730 C   0  0  0  0  0  0  0  0  0  0  0  0
    6.3830   -6.2650   22.2250 C   0  0  0  0  0  0  0  0  0  0  0  0
    4.7360   -6.2340   24.1810 C   0  0  0  0  0  0  0  0  0  0  0  0
    4.1500   -5.8680   25.3720 N   0  0  0  0  0  0  0  0  0  0  0  0
  1  2  1  0
  2  3  1  0
  3  4  2  0
  4  5  1  0
  5  6  1  0
  6  7  1  0
  7  8  2  0
  8  9  1  0
  9 10  2  0
 11 10  1  1
 11 12  1  0
 12 13  1  0
 13 14  2  0
 13 15  1  0
 15 16  1  0
 16 17  2  0
 17 18  1  0
 18 19  2  0
 11 20  1  0
 15 20  2  0
 19 20  1  0
 10 21  1  0
  7 22  1  0
 21 22  2  0
 22 23  1  0
 23 24  1  0
 23 25  2  0
 23 26  2  0
  5 27  2  0
 27 28  1  0
 27 29  1  0
  3 30  1  0
 29 30  2  0
M  END
