DRV-UNK-7620afc8-1-chloroacetamide
     RDKit          3D

 15 15  0  0  0  0  0  0  0  0999 V2000
    7.4210   -4.7350   20.9250 C   0  0  0  0  0  0  0  0  0  0  0  0
    5.9280   -4.8790   21.0230 C   0  0  0  0  0  0  0  0  0  0  0  0
    5.2350   -4.9780   20.0040 O   0  0  0  0  0  0  0  0  0  0  0  0
    5.2020   -4.9010   22.3320 C   0  0  0  0  0  0  0  0  0  0  0  0
    4.1260   -4.4890   22.4520 N   0  0  0  0  0  0  0  0  0  0  0  0
    4.8110   -5.0520   23.6250 C   0  0  0  0  0  0  0  0  0  0  0  0
    5.9640   -5.2070   22.3090 C   0  0  0  0  0  0  0  0  0  0  0  0
    6.6950   -5.7820   23.4750 N   0  0  0  0  0  0  0  0  0  0  0  0
    5.5150   -5.3650   23.6940 C   0  0  0  0  0  0  0  0  0  0  0  0
    4.8060   -5.4130   25.0440 N   0  0  0  0  0  0  0  0  0  0  0  0
    5.6170   -4.8950   26.1750 C   0  0  0  0  0  0  0  0  0  0  0  0
    3.8210   -6.7380   25.3710 S   0  0  0  0  0  0  0  0  0  0  0  0
    4.2210   -7.1330   27.0660 C   0  0  0  0  0  0  0  0  0  0  0  0
    4.3250   -7.8330   24.5770 O   0  0  0  0  0  0  0  0  0  0  0  0
    2.4360   -6.3190   25.3460 O   0  0  0  0  0  0  0  0  0  0  0  0
  1  2  1  0
  2  3  2  0
  2  4  1  0
  4  5  2  0
  5  6  1  0
  6  7  2  0
  7  8  1  0
  4  9  1  0
  8  9  2  0
  9 10  1  0
 10 11  1  0
 12 10  1  0
 12 13  1  0
 12 14  2  0
 12 15  2  0
M  END
