DRV-UNK-dd7f8c68-3-chloroacetamide
     RDKit          3D

 29 32  0  0  0  0  0  0  0  0999 V2000
    7.7750   -3.1980   17.2750 C   0  0  0  0  0  0  0  0  0  0  0  0
    7.3020   -3.8280   15.5170 C   0  0  0  0  0  0  0  0  0  0  0  0
    7.8100   -4.7400   15.3660 O   0  0  0  0  0  0  0  0  0  0  0  0
    6.2590   -3.4680   13.6920 N   0  0  0  0  0  0  0  0  0  0  0  0
    6.4860   -2.6420   12.3910 C   0  0  0  0  0  0  0  0  0  0  0  0
    7.0290   -3.0560   10.9610 C   0  0  0  0  0  0  0  0  0  0  0  0
    7.0650   -2.1190   10.1600 N   0  0  0  0  0  0  0  0  0  0  0  0
    8.0880   -1.7870    8.8900 C   0  0  0  0  0  0  0  0  0  0  0  0
    9.3220   -2.5720    8.1490 C   0  0  0  0  0  0  0  0  0  0  0  0
   10.1930   -1.8620    6.8610 C   0  0  0  0  0  0  0  0  0  0  0  0
    9.8590   -0.4850    6.3550 C   0  0  0  0  0  0  0  0  0  0  0  0
    9.1370   -0.8140    7.3270 C   0  0  1  0  0  0  0  0  0  0  0  0
    8.1730   -0.0630    6.6340 N   0  0  0  0  0  0  0  0  0  0  0  0
    7.5600   -0.0260    7.7960 C   0  0  0  0  0  0  0  0  0  0  0  0
    6.8110    1.0810    7.9040 O   0  0  0  0  0  0  0  0  0  0  0  0
    8.0580   -1.3770    8.5380 C   0  0  0  0  0  0  0  0  0  0  0  0
    7.4560   -2.3180    9.6760 C   0  0  0  0  0  0  0  0  0  0  0  0
    8.1010   -3.5200   10.1440 C   0  0  0  0  0  0  0  0  0  0  0  0
    9.3420   -3.8700    9.5310 C   0  0  0  0  0  0  0  0  0  0  0  0
    9.0750   -2.7860    8.8810 C   0  0  0  0  0  0  0  0  0  0  0  0
    9.3250   -1.8680    7.9890 C   0  0  0  0  0  0  0  0  0  0  0  0
    8.8240    0.1900    6.9370 C   0  0  0  0  0  0  0  0  0  0  0  0
    8.2140   -0.6310    8.0550 C   0  0  0  0  0  0  0  0  0  0  0  0
    9.5550   -1.4920    7.2090 S   0  0  0  0  0  0  0  0  0  0  0  0
    9.3140   -1.4720    5.5060 N   0  0  0  0  0  0  0  0  0  0  0  0
   10.8220   -0.7980    7.3850 O   0  0  0  0  0  0  0  0  0  0  0  0
    9.4070   -2.9150    7.4740 O   0  0  0  0  0  0  0  0  0  0  0  0
    5.5370   -2.8010   10.7630 C   0  0  0  0  0  0  0  0  0  0  0  0
    5.0720   -3.2150   12.5110 C   0  0  0  0  0  0  0  0  0  0  0  0
  1  2  1  0
  2  3  2  0
  2  4  1  0
  4  5  1  0
  5  6  1  0
  6  7  1  0
  7  8  1  0
  8  9  2  0
  9 10  1  0
 10 11  2  0
 12 11  1  6
 12 13  1  0
 13 14  1  0
 14 15  2  0
 14 16  1  0
 16 17  1  0
 17 18  2  0
 18 19  1  0
 19 20  2  0
 12 21  1  0
 16 21  2  0
 20 21  1  0
 11 22  1  0
  8 23  1  0
 22 23  2  0
 23 24  1  0
 24 25  1  0
 24 26  2  0
 24 27  2  0
  7 28  1  0
  4 29  1  0
 28 29  1  0
M  END
