DRV-UNK-dd7f8c68-3-vinylsulfonamide
     RDKit          3D

 31 34  0  0  0  0  0  0  0  0999 V2000
    8.1990   -3.5470   19.4070 C   0  0  0  0  0  0  0  0  0  0  0  0
    7.0050   -4.1130   20.1400 C   0  0  0  0  0  0  0  0  0  0  0  0
    6.2050   -2.6410   20.6180 S   0  0  0  0  0  0  0  0  0  0  0  0
    4.8730   -3.0670   21.0870 O   0  0  0  0  0  0  0  0  0  0  0  0
    7.1010   -1.8320   21.4120 O   0  0  0  0  0  0  0  0  0  0  0  0
    6.0250   -1.9580   19.0490 N   0  0  0  0  0  0  0  0  0  0  0  0
    6.9830   -1.5010   18.0120 C   0  0  0  0  0  0  0  0  0  0  0  0
    6.0550   -1.8830   16.7600 C   0  0  0  0  0  0  0  0  0  0  0  0
    6.3190   -2.9520   15.3350 N   0  0  0  0  0  0  0  0  0  0  0  0
    5.4560   -2.7970   13.6610 C   0  0  0  0  0  0  0  0  0  0  0  0
    6.3690   -2.9110   12.8640 C   0  0  0  0  0  0  0  0  0  0  0  0
    6.6190   -2.7100   11.4570 C   0  0  0  0  0  0  0  0  0  0  0  0
    5.5820   -2.4010   10.8010 C   0  0  0  0  0  0  0  0  0  0  0  0
    6.4800   -2.2680    9.8190 C   0  0  2  0  0  0  0  0  0  0  0  0
    6.1480   -3.5760    9.7450 N   0  0  0  0  0  0  0  0  0  0  0  0
    7.1940   -4.2690    9.0830 C   0  0  0  0  0  0  0  0  0  0  0  0
    8.5790   -4.2840    8.8090 O   0  0  0  0  0  0  0  0  0  0  0  0
    7.8780   -3.1550    9.6570 C   0  0  0  0  0  0  0  0  0  0  0  0
    9.1490   -3.1600    9.7920 C   0  0  0  0  0  0  0  0  0  0  0  0
    9.6650   -4.1220    9.3810 C   0  0  0  0  0  0  0  0  0  0  0  0
   10.5460   -3.2710    9.9800 C   0  0  0  0  0  0  0  0  0  0  0  0
    9.3390   -2.1810   10.2910 C   0  0  0  0  0  0  0  0  0  0  0  0
    7.7510   -2.0620   10.1050 C   0  0  0  0  0  0  0  0  0  0  0  0
    4.3730   -2.3620   11.1800 C   0  0  0  0  0  0  0  0  0  0  0  0
    4.1800   -2.6100   12.6020 C   0  0  0  0  0  0  0  0  0  0  0  0
    2.4240   -2.6660   12.7410 S   0  0  0  0  0  0  0  0  0  0  0  0
    1.2670   -1.7870   11.9050 N   0  0  0  0  0  0  0  0  0  0  0  0
    1.9530   -2.3410   13.9510 O   0  0  0  0  0  0  0  0  0  0  0  0
    2.2590   -4.1070   12.6310 O   0  0  0  0  0  0  0  0  0  0  0  0
    6.5020   -2.8020   16.9300 C   0  0  0  0  0  0  0  0  0  0  0  0
    5.6110   -2.9990   18.1760 C   0  0  0  0  0  0  0  0  0  0  0  0
  1  2  1  0
  3  2  1  0
  3  4  2  0
  3  5  2  0
  3  6  1  0
  6  7  1  0
  7  8  1  0
  8  9  1  0
  9 10  1  0
 10 11  2  0
 11 12  1  0
 12 13  2  0
 14 13  1  1
 14 15  1  0
 15 16  1  0
 16 17  2  0
 16 18  1  0
 18 19  1  0
 19 20  2  0
 20 21  1  0
 21 22  2  0
 14 23  1  0
 18 23  2  0
 22 23  1  0
 13 24  1  0
 10 25  1  0
 24 25  2  0
 25 26  1  0
 26 27  1  0
 26 28  2  0
 26 29  2  0
  9 30  1  0
  6 31  1  0
 30 31  1  0
M  END
