DRV-DNY-5c7d8ee8-4
     RDKit          3D

 21 24  0  0  0  0  0  0  0  0999 V2000
    8.3120   -4.8000   24.2350 Cl  0  0  0  0  0  0  0  0  0  0  0  0
    7.5490   -4.1060   22.8610 C   0  0  0  0  0  0  0  0  0  0  0  0
    6.4560   -4.8440   22.5190 N   0  0  0  0  0  0  0  0  0  0  0  0
    5.8760   -4.3130   21.4650 C   0  0  0  0  0  0  0  0  0  0  0  0
    6.9510   -3.3190   21.5170 C   0  0  0  0  0  0  0  0  0  0  0  0
    7.0900   -2.1730   20.5400 C   0  0  0  0  0  0  0  0  0  0  0  0
    6.1770   -1.9330   19.4490 C   0  0  0  0  0  0  0  0  0  0  0  0
    5.3040   -2.9030   19.5670 C   0  0  0  0  0  0  0  0  0  0  0  0
    5.9420   -3.3720   20.6260 C   0  0  0  0  0  0  0  0  0  0  0  0
    7.1590   -2.5480   21.0120 C   0  0  0  0  0  0  0  0  0  0  0  0
    7.9390   -2.9380   22.1430 C   0  0  0  0  0  0  0  0  0  0  0  0
    8.9860   -2.0480   22.3560 C   0  0  0  0  0  0  0  0  0  0  0  0
    8.8070   -0.7670   22.3730 N   0  0  0  0  0  0  0  0  0  0  0  0
   10.0260   -0.2560   22.5500 C   0  0  0  0  0  0  0  0  0  0  0  0
   10.3710    1.0020   22.6140 C   0  0  0  0  0  0  0  0  0  0  0  0
   11.7770    1.2770   22.7930 C   0  0  0  0  0  0  0  0  0  0  0  0
   12.1180    3.1450   22.8220 Br  0  0  0  0  0  0  0  0  0  0  0  0
   12.9810    0.3370   22.9420 C   0  0  0  0  0  0  0  0  0  0  0  0
   12.5110   -1.1840   22.8730 C   0  0  0  0  0  0  0  0  0  0  0  0
   10.9930   -1.2120   22.6660 C   0  0  0  0  0  0  0  0  0  0  0  0
   10.3030   -2.4150   22.5460 O   0  0  0  0  0  0  0  0  0  0  0  0
  1  2  1  0
  2  3  2  0
  3  4  1  0
  4  5  2  0
  5  6  1  0
  6  7  2  0
  7  8  1  0
  4  9  1  0
  8  9  2  0
  9 10  1  0
  2 11  1  0
 10 11  2  0
 11 12  1  0
 12 13  2  0
 13 14  1  0
 14 15  2  0
 15 16  1  0
 16 17  1  0
 16 18  2  0
 18 19  1  0
 14 20  1  0
 19 20  2  0
 12 21  1  0
 20 21  1  0
M  END
