DRV-UNK-64047f27-7
     RDKit          3D

 30 33  0  0  0  0  0  0  0  0999 V2000
   11.6380    1.5740   -5.2750 C   0  0  0  0  0  0  0  0  0  0  0  0
   12.7010    0.7170   -4.6850 C   0  0  0  0  0  0  0  0  0  0  0  0
   12.1190   -0.6100   -4.2090 C   0  0  2  0  0  0  0  0  0  0  0  0
   13.0260   -1.8080   -4.5380 C   0  0  0  0  0  0  0  0  0  0  0  0
   10.8540   -0.7840   -4.7640 N   0  0  0  0  0  0  0  0  0  0  0  0
   11.0050   -0.8920   -6.0780 C   0  0  0  0  0  0  0  0  0  0  0  0
   10.0550   -0.1110   -6.8450 C   0  0  0  0  0  0  0  0  0  0  0  0
    8.6850   -0.2060   -6.7100 N   0  0  0  0  0  0  0  0  0  0  0  0
    7.9590   -1.2060   -7.2780 C   0  0  0  0  0  0  0  0  0  0  0  0
    8.6290   -2.4090   -7.3710 C   0  0  0  0  0  0  0  0  0  0  0  0
    8.0010   -3.4930   -7.9220 C   0  0  0  0  0  0  0  0  0  0  0  0
    6.6970   -3.4670   -8.4060 C   0  0  0  0  0  0  0  0  0  0  0  0
    6.1500   -4.6280   -8.9490 C   0  0  1  0  0  0  0  0  0  0  0  0
    6.5180   -4.7560  -10.2540 N   0  0  0  0  0  0  0  0  0  0  0  0
    7.4860   -5.6930  -10.4220 C   0  0  0  0  0  0  0  0  0  0  0  0
    8.2380   -5.8100  -11.3880 O   0  0  0  0  0  0  0  0  0  0  0  0
    7.4590   -6.4960   -9.2980 C   0  0  0  0  0  0  0  0  0  0  0  0
    8.1260   -7.7110   -9.1170 C   0  0  0  0  0  0  0  0  0  0  0  0
    7.9350   -8.3590   -7.8880 C   0  0  0  0  0  0  0  0  0  0  0  0
    7.1230   -7.8490   -6.8530 C   0  0  0  0  0  0  0  0  0  0  0  0
    6.4060   -6.5190   -7.0520 C   0  0  0  0  0  0  0  0  0  0  0  0
    6.6290   -5.8370   -8.4040 C   0  0  0  0  0  0  0  0  0  0  0  0
    5.9990   -2.2570   -8.3280 C   0  0  0  0  0  0  0  0  0  0  0  0
    6.6510   -1.0020   -7.7350 C   0  0  0  0  0  0  0  0  0  0  0  0
    5.6680    0.4470   -7.7560 S   0  0  0  0  0  0  0  0  0  0  0  0
    5.8480    1.2470   -6.2850 N   0  0  0  0  0  0  0  0  0  0  0  0
    4.3630   -0.0320   -8.0280 O   0  0  0  0  0  0  0  0  0  0  0  0
    6.2030    1.3350   -8.6920 O   0  0  0  0  0  0  0  0  0  0  0  0
    8.3890    0.1120   -5.3320 C   0  0  0  0  0  0  0  0  0  0  0  0
    9.6720    0.1140   -4.4290 C   0  0  0  0  0  0  0  0  0  0  0  0
  1  2  1  0
  2  3  1  0
  3  4  1  6
  3  5  1  0
  5  6  1  0
  6  7  1  0
  7  8  1  0
  8  9  1  0
  9 10  2  0
 10 11  1  0
 11 12  2  0
 13 12  1  1
 13 14  1  0
 14 15  1  0
 15 16  2  0
 15 17  1  0
 17 18  1  0
 18 19  2  0
 19 20  1  0
 20 21  2  0
 13 22  1  0
 17 22  2  0
 21 22  1  0
 12 23  1  0
  9 24  1  0
 23 24  2  0
 24 25  1  0
 25 26  1  0
 25 27  2  0
 25 28  2  0
  8 29  1  0
  5 30  1  0
 29 30  1  0
M  END
