DRV-UNK-dd7f8c68-2-nitrile
     RDKit          3D

 28 31  0  0  0  0  0  0  0  0999 V2000
    9.1740   -4.3600   15.4100 C   0  0  0  0  0  0  0  0  0  0  0  0
    7.8840   -4.3580   15.2950 N   0  0  0  0  0  0  0  0  0  0  0  0
    8.9900   -3.7280   12.1730 N   0  0  0  0  0  0  0  0  0  0  0  0
    8.3760   -2.5250    9.9380 C   0  0  0  0  0  0  0  0  0  0  0  0
    8.1480   -2.1750    7.4930 C   0  0  0  0  0  0  0  0  0  0  0  0
    8.1620   -3.2290    6.1260 N   0  0  0  0  0  0  0  0  0  0  0  0
    7.9990   -2.8870    3.7010 C   0  0  0  0  0  0  0  0  0  0  0  0
    7.5640   -3.0640    1.7940 C   0  0  0  0  0  0  0  0  0  0  0  0
    6.7680   -4.2090    1.4000 C   0  0  0  0  0  0  0  0  0  0  0  0
    7.1330   -3.3460    0.1110 C   0  0  0  0  0  0  0  0  0  0  0  0
    6.3590   -4.4860   -0.2520 C   0  0  1  0  0  0  0  0  0  0  0  0
    5.6110   -5.3060   -0.1190 N   0  0  0  0  0  0  0  0  0  0  0  0
    6.1200   -6.1750   -1.0150 C   0  0  0  0  0  0  0  0  0  0  0  0
    7.0310   -7.2270   -0.6310 O   0  0  0  0  0  0  0  0  0  0  0  0
    5.7410   -5.9550   -2.2820 C   0  0  0  0  0  0  0  0  0  0  0  0
    5.3140   -5.3930   -3.7190 C   0  0  0  0  0  0  0  0  0  0  0  0
    5.0050   -4.1430   -4.6770 C   0  0  0  0  0  0  0  0  0  0  0  0
    5.2580   -3.2760   -3.6630 C   0  0  0  0  0  0  0  0  0  0  0  0
    5.5760   -4.0220   -2.7110 C   0  0  0  0  0  0  0  0  0  0  0  0
    5.9060   -4.6090   -1.7010 C   0  0  0  0  0  0  0  0  0  0  0  0
    7.8790   -2.4210    1.0760 C   0  0  0  0  0  0  0  0  0  0  0  0
    8.5170   -1.7920    2.5870 C   0  0  0  0  0  0  0  0  0  0  0  0
    9.0800   -1.2960    4.1900 S   0  0  0  0  0  0  0  0  0  0  0  0
   10.4640   -0.4310    3.7270 N   0  0  0  0  0  0  0  0  0  0  0  0
    8.0820   -0.4480    4.8200 O   0  0  0  0  0  0  0  0  0  0  0  0
    9.6380   -2.4550    4.8980 O   0  0  0  0  0  0  0  0  0  0  0  0
    8.4370   -4.2680    7.9610 C   0  0  0  0  0  0  0  0  0  0  0  0
    9.0820   -4.3990   10.1240 C   0  0  0  0  0  0  0  0  0  0  0  0
  1  2  2  3
  1  3  1  0
  3  4  1  0
  4  5  1  0
  5  6  1  0
  6  7  1  0
  7  8  2  0
  8  9  1  0
  9 10  2  0
 11 10  1  1
 11 12  1  0
 12 13  1  0
 13 14  2  0
 13 15  1  0
 15 16  1  0
 16 17  2  0
 17 18  1  0
 18 19  2  0
 11 20  1  0
 15 20  2  0
 19 20  1  0
 10 21  1  0
  7 22  1  0
 21 22  2  0
 22 23  1  0
 23 24  1  0
 23 25  2  0
 23 26  2  0
  6 27  1  0
  3 28  1  0
 27 28  1  0
M  END
