DRV-UNK-64047f27-1
     RDKit          3D

 30 33  0  0  0  0  0  0  0  0999 V2000
   13.7010   -1.2960   -4.9140 C   0  0  0  0  0  0  0  0  0  0  0  0
   12.9240   -0.2680   -4.1390 C   0  0  0  0  0  0  0  0  0  0  0  0
   12.8370    1.1390   -4.7590 C   0  0  0  0  0  0  0  0  0  0  0  0
   11.5500   -0.9090   -3.8110 C   0  0  0  0  0  0  0  0  0  0  0  0
   10.5250   -0.7230   -4.6580 N   0  0  0  0  0  0  0  0  0  0  0  0
   10.9090   -0.8120   -5.8640 C   0  0  0  0  0  0  0  0  0  0  0  0
    9.9650   -0.6580   -7.0020 C   0  0  0  0  0  0  0  0  0  0  0  0
    8.5900   -0.3340   -6.8470 N   0  0  0  0  0  0  0  0  0  0  0  0
    7.6700   -1.1640   -7.3990 C   0  0  0  0  0  0  0  0  0  0  0  0
    8.1930   -2.4100   -7.5980 C   0  0  0  0  0  0  0  0  0  0  0  0
    7.4510   -3.3960   -8.1480 C   0  0  0  0  0  0  0  0  0  0  0  0
    6.1350   -3.2180   -8.5290 C   0  0  0  0  0  0  0  0  0  0  0  0
    5.4190   -4.2670   -9.0920 C   0  0  2  0  0  0  0  0  0  0  0  0
    5.6660   -5.4370   -8.4360 N   0  0  0  0  0  0  0  0  0  0  0  0
    6.2910   -6.3550   -9.2150 C   0  0  0  0  0  0  0  0  0  0  0  0
    6.7330   -7.4440   -8.8550 O   0  0  0  0  0  0  0  0  0  0  0  0
    6.3340   -5.8440  -10.4970 C   0  0  0  0  0  0  0  0  0  0  0  0
    6.8230   -6.4850  -11.6380 C   0  0  0  0  0  0  0  0  0  0  0  0
    6.7630   -5.7750  -12.8470 C   0  0  0  0  0  0  0  0  0  0  0  0
    6.2430   -4.4660  -12.9700 C   0  0  0  0  0  0  0  0  0  0  0  0
    5.7090   -3.7670  -11.7190 C   0  0  0  0  0  0  0  0  0  0  0  0
    5.7920   -4.5740  -10.4140 C   0  0  0  0  0  0  0  0  0  0  0  0
    5.5690   -1.9480   -8.3410 C   0  0  0  0  0  0  0  0  0  0  0  0
    6.3720   -0.7840   -7.7350 C   0  0  0  0  0  0  0  0  0  0  0  0
    5.6140    0.8040   -7.5860 S   0  0  0  0  0  0  0  0  0  0  0  0
    5.6250    1.4320   -6.0370 N   0  0  0  0  0  0  0  0  0  0  0  0
    4.2970    0.7400   -8.1420 O   0  0  0  0  0  0  0  0  0  0  0  0
    6.5160    1.6900   -8.1320 O   0  0  0  0  0  0  0  0  0  0  0  0
    8.3130   -0.0270   -5.4410 C   0  0  0  0  0  0  0  0  0  0  0  0
    9.5910    0.3870   -4.7020 C   0  0  0  0  0  0  0  0  0  0  0  0
  1  2  1  0
  2  3  1  0
  2  4  1  0
  4  5  1  0
  5  6  1  0
  6  7  1  0
  7  8  1  0
  8  9  1  0
  9 10  2  0
 10 11  1  0
 11 12  2  0
 13 12  1  1
 13 14  1  0
 14 15  1  0
 15 16  2  0
 15 17  1  0
 17 18  1  0
 18 19  2  0
 19 20  1  0
 20 21  2  0
 13 22  1  0
 17 22  2  0
 21 22  1  0
 12 23  1  0
  9 24  1  0
 23 24  2  0
 24 25  1  0
 25 26  1  0
 25 27  2  0
 25 28  2  0
  8 29  1  0
  5 30  1  0
 29 30  1  0
M  END
