DRV-UNK-64047f27-2-vinylsulfonamide
     RDKit          3D

 31 34  0  0  0  0  0  0  0  0999 V2000
    6.4270   -3.6500   18.2980 C   0  0  0  0  0  0  0  0  0  0  0  0
    6.2120   -4.0040   16.6570 C   0  0  0  0  0  0  0  0  0  0  0  0
    4.4530   -3.6740   15.9120 S   0  0  0  0  0  0  0  0  0  0  0  0
    3.6910   -4.1040   18.3260 O   0  0  0  0  0  0  0  0  0  0  0  0
    4.4220   -2.2270   15.8580 O   0  0  0  0  0  0  0  0  0  0  0  0
    4.5560   -3.6150   12.9520 N   0  0  0  0  0  0  0  0  0  0  0  0
    5.6240   -3.3780   11.2530 C   0  0  0  0  0  0  0  0  0  0  0  0
    5.6470   -3.6890    9.1090 C   0  0  0  0  0  0  0  0  0  0  0  0
    5.0110   -2.9710    7.3140 N   0  0  0  0  0  0  0  0  0  0  0  0
    5.1560   -2.6980    4.4700 C   0  0  0  0  0  0  0  0  0  0  0  0
    6.3640   -2.1340    3.0110 C   0  0  0  0  0  0  0  0  0  0  0  0
    5.7790   -2.3110    1.1020 C   0  0  0  0  0  0  0  0  0  0  0  0
    6.6130   -1.8350   -0.1020 C   0  0  0  0  0  0  0  0  0  0  0  0
    7.8520   -1.2290   -0.3560 C   0  0  1  0  0  0  0  0  0  0  0  0
    9.0830   -1.1330   -0.3740 N   0  0  0  0  0  0  0  0  0  0  0  0
    9.6490   -1.3000   -1.5940 C   0  0  0  0  0  0  0  0  0  0  0  0
   10.8430   -1.7860   -2.0480 O   0  0  0  0  0  0  0  0  0  0  0  0
    8.5780   -0.8060   -2.1660 C   0  0  0  0  0  0  0  0  0  0  0  0
    8.0530   -0.2740   -3.2830 C   0  0  0  0  0  0  0  0  0  0  0  0
    6.5960    0.1060   -3.2060 C   0  0  0  0  0  0  0  0  0  0  0  0
    7.1480    0.3290   -4.2820 C   0  0  0  0  0  0  0  0  0  0  0  0
    7.8260   -0.2530   -3.1420 C   0  0  0  0  0  0  0  0  0  0  0  0
    7.4630   -0.6580   -1.6770 C   0  0  0  0  0  0  0  0  0  0  0  0
    6.6290   -1.8960    1.1610 C   0  0  0  0  0  0  0  0  0  0  0  0
    5.9700   -2.2550    2.6420 C   0  0  0  0  0  0  0  0  0  0  0  0
    5.0570   -2.3250    0.7820 S   0  0  0  0  0  0  0  0  0  0  0  0
    5.4820   -1.0270   -0.5570 N   0  0  0  0  0  0  0  0  0  0  0  0
    3.6560   -2.0250    1.0470 O   0  0  0  0  0  0  0  0  0  0  0  0
    5.4270   -3.6220    0.2020 O   0  0  0  0  0  0  0  0  0  0  0  0
    4.0620   -2.6300    9.0770 C   0  0  0  0  0  0  0  0  0  0  0  0
    3.7420   -3.3170   11.1200 C   0  0  0  0  0  0  0  0  0  0  0  0
  1  2  1  0
  3  2  1  0
  3  4  2  0
  3  5  2  0
  3  6  1  0
  6  7  1  0
  7  8  1  0
  8  9  1  0
  9 10  1  0
 10 11  2  0
 11 12  1  0
 12 13  2  0
 14 13  1  6
 14 15  1  0
 15 16  1  0
 16 17  2  0
 16 18  1  0
 18 19  1  0
 19 20  2  0
 20 21  1  0
 21 22  2  0
 14 23  1  0
 18 23  2  0
 22 23  1  0
 13 24  1  0
 10 25  1  0
 24 25  2  0
 25 26  1  0
 26 27  1  0
 26 28  2  0
 26 29  2  0
  9 30  1  0
  6 31  1  0
 30 31  1  0
M  END
