DRV-DNY-ae159ed1-20
     RDKit          3D

 21 23  0  0  0  0  0  0  0  0999 V2000
    9.3940   -2.1280   23.7060 N   0  0  0  0  0  0  0  0  0  0  0  0
   10.4860   -1.1790   23.5020 C   0  0  0  0  0  0  0  0  0  0  0  0
   11.5980   -1.7210   22.6410 C   0  0  0  0  0  0  0  0  0  0  0  0
   12.7110   -0.9030   22.3720 C   0  0  0  0  0  0  0  0  0  0  0  0
   12.7060    0.3670   22.9290 C   0  0  0  0  0  0  0  0  0  0  0  0
   11.6990    0.8670   23.7090 C   0  0  0  0  0  0  0  0  0  0  0  0
   10.5660    0.1250   24.0200 C   0  0  0  0  0  0  0  0  0  0  0  0
    9.5020    0.6570   24.8370 C   0  0  0  0  0  0  0  0  0  0  0  0
    9.6900    1.3600   25.7820 O   0  0  0  0  0  0  0  0  0  0  0  0
    8.1760    0.4200   24.5840 C   0  0  0  0  0  0  0  0  0  0  0  0
    7.4890    1.4330   23.9420 C   0  0  0  0  0  0  0  0  0  0  0  0
    6.0390    1.3030   23.6780 C   0  0  0  0  0  0  0  0  0  0  0  0
    5.1400    0.8290   24.8140 C   0  0  0  0  0  0  0  0  0  0  0  0
    3.8180    0.7230   24.6270 N   0  0  0  0  0  0  0  0  0  0  0  0
    3.3560    1.0660   23.3830 C   0  0  0  0  0  0  0  0  0  0  0  0
    1.9890    1.0040   23.1160 C   0  0  0  0  0  0  0  0  0  0  0  0
    1.4340    1.3390   21.8700 C   0  0  0  0  0  0  0  0  0  0  0  0
    2.2360    1.7500   20.8260 C   0  0  0  0  0  0  0  0  0  0  0  0
    3.5910    1.8380   21.0160 C   0  0  0  0  0  0  0  0  0  0  0  0
    4.2120    1.4920   22.3400 C   0  0  0  0  0  0  0  0  0  0  0  0
    5.5500    1.6120   22.4710 N   0  0  0  0  0  0  0  0  0  0  0  0
  1  2  1  0
  2  3  2  0
  3  4  1  0
  4  5  2  0
  5  6  1  0
  2  7  1  0
  6  7  2  0
  7  8  1  0
  8  9  2  0
  8 10  1  0
 10 11  2  3
 11 12  1  0
 12 13  2  0
 13 14  1  0
 14 15  2  0
 15 16  1  0
 16 17  2  0
 17 18  1  0
 18 19  2  0
 15 20  1  0
 19 20  1  0
 12 21  1  0
 20 21  2  0
M  END
