DRV-DNY-ae159ed1-3
     RDKit          3D

 21 23  0  0  0  0  0  0  0  0999 V2000
    9.7520    0.2320   26.5940 O   0  0  0  0  0  0  0  0  0  0  0  0
    9.4970    0.2400   25.4030 C   0  0  0  0  0  0  0  0  0  0  0  0
    8.1120    0.3870   25.0160 C   0  0  0  0  0  0  0  0  0  0  0  0
    7.6030    1.3910   24.0140 C   0  0  0  0  0  0  0  0  0  0  0  0
    6.1030    1.3220   23.7700 C   0  0  0  0  0  0  0  0  0  0  0  0
    5.2250    0.9170   24.9370 C   0  0  0  0  0  0  0  0  0  0  0  0
    3.8800    0.8780   24.6580 N   0  0  0  0  0  0  0  0  0  0  0  0
    3.2910    1.1820   23.3990 C   0  0  0  0  0  0  0  0  0  0  0  0
    1.7660    1.1150   23.2150 C   0  0  0  0  0  0  0  0  0  0  0  0
    1.1830    1.4510   21.8380 C   0  0  0  0  0  0  0  0  0  0  0  0
    2.1700    1.8330   20.7320 C   0  0  0  0  0  0  0  0  0  0  0  0
    3.5380    1.8760   20.9660 C   0  0  0  0  0  0  0  0  0  0  0  0
    4.1060    1.5470   22.3270 C   0  0  0  0  0  0  0  0  0  0  0  0
    5.5820    1.6560   22.3920 N   0  0  0  0  0  0  0  0  0  0  0  0
   10.5360   -0.0480   24.3940 C   0  0  0  0  0  0  0  0  0  0  0  0
   10.3860   -1.3170   23.8490 C   0  0  0  0  0  0  0  0  0  0  0  0
   11.2550   -1.7800   22.8950 C   0  0  0  0  0  0  0  0  0  0  0  0
   12.2980   -0.9950   22.4600 C   0  0  0  0  0  0  0  0  0  0  0  0
   13.2710   -1.7260   21.2850 Cl  0  0  0  0  0  0  0  0  0  0  0  0
   12.4830    0.3890   23.0350 C   0  0  0  0  0  0  0  0  0  0  0  0
   11.5950    0.7900   23.9660 C   0  0  0  0  0  0  0  0  0  0  0  0
  1  2  2  0
  2  3  1  0
  3  4  2  3
  4  5  1  0
  5  6  2  0
  6  7  1  0
  7  8  2  0
  8  9  1  0
  9 10  2  0
 10 11  1  0
 11 12  2  0
  8 13  1  0
 12 13  1  0
  5 14  1  0
 13 14  2  0
  2 15  1  0
 15 16  2  0
 16 17  1  0
 17 18  2  0
 18 19  1  0
 18 20  1  0
 15 21  1  0
 20 21  2  0
M  END
