DRV-DNY-5c7d8ee8-1
     RDKit          3D

 19 22  0  0  0  0  0  0  0  0999 V2000
    5.7710   -6.1900   21.6590 C   0  0  0  0  0  0  0  0  0  0  0  0
    5.8870   -5.6100   23.0050 C   0  0  0  0  0  0  0  0  0  0  0  0
    5.8940   -4.2420   23.1240 C   0  0  1  0  0  0  0  0  0  0  0  0
    6.7300   -3.8380   24.0490 N   0  0  0  0  0  0  0  0  0  0  0  0
    7.8740   -3.7470   23.4140 C   0  0  0  0  0  0  0  0  0  0  0  0
    9.1930   -3.4250   23.9750 C   0  0  0  0  0  0  0  0  0  0  0  0
    9.7650   -4.3850   24.9450 C   0  0  0  0  0  0  0  0  0  0  0  0
   10.8220   -4.6210   25.6820 N   0  0  0  0  0  0  0  0  0  0  0  0
   11.6120   -3.4680   25.2780 C   0  0  0  0  0  0  0  0  0  0  0  0
   12.9600   -3.3990   25.8750 C   0  0  0  0  0  0  0  0  0  0  0  0
   13.8170   -2.2480   25.5060 C   0  0  0  0  0  0  0  0  0  0  0  0
   13.2500   -1.2940   24.5980 C   0  0  0  0  0  0  0  0  0  0  0  0
   11.9970   -1.3890   24.0600 C   0  0  0  0  0  0  0  0  0  0  0  0
   11.1850   -2.4370   24.3650 C   0  0  0  0  0  0  0  0  0  0  0  0
    9.9060   -2.3630   23.6590 N   0  0  0  0  0  0  0  0  0  0  0  0
    7.8580   -3.9770   22.0860 O   0  0  0  0  0  0  0  0  0  0  0  0
    6.5270   -3.5640   21.8750 C   0  0  1  0  0  0  0  0  0  0  0  0
    6.1130   -3.9300   20.6050 C   0  0  0  0  0  0  0  0  0  0  0  0
    5.6890   -5.3780   20.4960 C   0  0  0  0  0  0  0  0  0  0  0  0
  1  2  2  0
  3  2  1  6
  3  4  1  0
  4  5  2  0
  5  6  1  0
  6  7  2  0
  7  8  1  0
  8  9  2  0
  9 10  1  0
 10 11  2  0
 11 12  1  0
 12 13  2  0
  9 14  1  0
 13 14  1  0
  6 15  1  0
 14 15  2  0
  5 16  1  0
  3 17  1  0
 16 17  1  0
 17 18  1  6
  1 19  1  0
 18 19  2  0
M  END
