DRV-DNY-3e405af9-5
     RDKit          3D

 30 33  0  0  0  0  0  0  0  0999 V2000
    5.8430    7.2170   24.6730 O   0  0  0  0  0  0  0  0  0  0  0  0
    6.3790    6.8700   23.6100 N   0  0  0  0  0  0  0  0  0  0  0  0
    6.8780    7.6650   22.8000 O   0  0  0  0  0  0  0  0  0  0  0  0
    6.6830    5.5330   23.4680 C   0  0  0  0  0  0  0  0  0  0  0  0
    7.6900    5.1650   22.4150 C   0  0  0  0  0  0  0  0  0  0  0  0
    8.0460    3.6860   22.2380 C   0  0  0  0  0  0  0  0  0  0  0  0
    7.3120    2.7250   23.1820 C   0  0  0  0  0  0  0  0  0  0  0  0
    7.6990    1.3370   22.9620 N   0  0  0  0  0  0  0  0  0  0  0  0
    6.7600    0.3470   22.8440 N   0  0  0  0  0  0  0  0  0  0  0  0
    7.5330   -0.8370   22.6370 C   0  0  0  0  0  0  0  0  0  0  0  0
    7.1570   -2.0980   22.4660 C   0  0  0  0  0  0  0  0  0  0  0  0
    7.9250   -3.1370   23.0260 C   0  0  0  0  0  0  0  0  0  0  0  0
    7.2370   -4.2240   22.6580 C   0  0  0  0  0  0  0  0  0  0  0  0
    6.0570   -4.6450   21.9260 C   0  0  0  0  0  0  0  0  0  0  0  0
    5.3760   -3.5930   21.4060 N   0  0  0  0  0  0  0  0  0  0  0  0
    5.9560   -2.3380   21.6970 C   0  0  0  0  0  0  0  0  0  0  0  0
    8.8420   -0.5690   22.6280 C   0  0  0  0  0  0  0  0  0  0  0  0
    8.9450    0.7560   22.8280 C   0  0  0  0  0  0  0  0  0  0  0  0
   10.2130    1.1030   22.8330 C   0  0  0  0  0  0  0  0  0  0  0  0
   10.7840    2.3560   22.8630 C   0  0  0  0  0  0  0  0  0  0  0  0
   12.1750    2.4250   22.8360 C   0  0  0  0  0  0  0  0  0  0  0  0
   12.8860    1.2290   22.7760 C   0  0  0  0  0  0  0  0  0  0  0  0
   14.1580    1.2040   22.7140 F   0  0  0  0  0  0  0  0  0  0  0  0
   12.3190    0.0170   22.7640 C   0  0  0  0  0  0  0  0  0  0  0  0
   10.9880   -0.0530   22.7910 C   0  0  0  0  0  0  0  0  0  0  0  0
    6.3760    3.2020   24.1360 C   0  0  0  0  0  0  0  0  0  0  0  0
    5.6850    2.3700   25.0070 N   0  0  0  0  0  0  0  0  0  0  0  0
    4.5470    2.0370   24.6540 O   0  0  0  0  0  0  0  0  0  0  0  0
    6.1130    2.3030   26.1750 O   0  0  0  0  0  0  0  0  0  0  0  0
    6.0680    4.5650   24.2790 C   0  0  0  0  0  0  0  0  0  0  0  0
  1  2  2  0
  2  3  1  0
  2  4  1  0
  4  5  2  0
  5  6  1  0
  6  7  2  0
  7  8  1  0
  8  9  1  0
  9 10  2  0
 10 11  1  0
 11 12  2  0
 12 13  1  0
 13 14  2  0
 14 15  1  0
 11 16  1  0
 15 16  2  0
 10 17  1  0
  8 18  1  0
 17 18  2  0
 18 19  1  0
 19 20  2  0
 20 21  1  0
 21 22  2  0
 22 23  1  0
 22 24  1  0
 19 25  1  0
 24 25  2  0
  7 26  1  0
 26 27  1  0
 27 28  2  0
 27 29  1  0
  4 30  1  0
 26 30  2  0
M  CHG  4   2   1   3  -1  27   1  29  -1
M  END
