DRV-UNK-64047f27-4-nitrile
     RDKit          3D

 29 32  0  0  0  0  0  0  0  0999 V2000
    8.6990   -4.0890   16.3390 C   0  0  0  0  0  0  0  0  0  0  0  0
    7.4740   -3.4390   16.6170 N   0  0  0  0  0  0  0  0  0  0  0  0
    8.5680   -4.4560   14.2470 C   0  0  0  0  0  0  0  0  0  0  0  0
    8.6090   -3.8770   12.1070 N   0  0  0  0  0  0  0  0  0  0  0  0
    9.7340   -3.2210   10.9660 C   0  0  0  0  0  0  0  0  0  0  0  0
    9.5080   -2.0470    9.6880 C   0  0  0  0  0  0  0  0  0  0  0  0
    8.9260   -2.4780    8.3530 N   0  0  0  0  0  0  0  0  0  0  0  0
    8.8770   -2.4940    6.6630 C   0  0  0  0  0  0  0  0  0  0  0  0
    8.6180   -2.1270    5.0620 C   0  0  0  0  0  0  0  0  0  0  0  0
    7.7380   -0.7290    4.4880 C   0  0  0  0  0  0  0  0  0  0  0  0
    7.2140   -0.5570    3.0180 C   0  0  0  0  0  0  0  0  0  0  0  0
    6.7180   -0.7770    1.0380 C   0  0  2  0  0  0  0  0  0  0  0  0
    7.1800   -1.5680   -0.0990 N   0  0  0  0  0  0  0  0  0  0  0  0
    8.0080   -0.8920   -1.1320 C   0  0  0  0  0  0  0  0  0  0  0  0
    9.1480   -0.9280   -1.3280 O   0  0  0  0  0  0  0  0  0  0  0  0
    7.1960   -0.1410   -1.8290 C   0  0  0  0  0  0  0  0  0  0  0  0
    6.2460    0.5260   -2.2030 C   0  0  0  0  0  0  0  0  0  0  0  0
    7.2530    0.4210   -3.1970 C   0  0  0  0  0  0  0  0  0  0  0  0
    8.3910   -0.5290   -2.7090 C   0  0  0  0  0  0  0  0  0  0  0  0
    8.1880   -0.9800   -1.2270 C   0  0  0  0  0  0  0  0  0  0  0  0
    7.2190   -0.6090   -0.3800 C   0  0  0  0  0  0  0  0  0  0  0  0
    7.9710   -1.4210    4.1950 C   0  0  0  0  0  0  0  0  0  0  0  0
    8.3420   -1.3420    5.9100 C   0  0  0  0  0  0  0  0  0  0  0  0
    8.0290   -0.0720    7.0810 S   0  0  0  0  0  0  0  0  0  0  0  0
    6.6220    0.8410    6.8570 N   0  0  0  0  0  0  0  0  0  0  0  0
    7.8180   -0.8380    8.2630 O   0  0  0  0  0  0  0  0  0  0  0  0
    9.1570    0.7970    7.0530 O   0  0  0  0  0  0  0  0  0  0  0  0
    8.1940   -3.5880    9.2970 C   0  0  0  0  0  0  0  0  0  0  0  0
    7.6870   -3.3620   10.9410 C   0  0  0  0  0  0  0  0  0  0  0  0
  1  2  2  3
  1  3  1  0
  3  4  1  0
  4  5  1  0
  5  6  1  0
  6  7  1  0
  7  8  1  0
  8  9  2  0
  9 10  1  0
 10 11  2  0
 12 11  1  1
 12 13  1  0
 13 14  1  0
 14 15  2  0
 14 16  1  0
 16 17  1  0
 17 18  2  0
 18 19  1  0
 19 20  2  0
 12 21  1  0
 16 21  2  0
 20 21  1  0
 11 22  1  0
  8 23  1  0
 22 23  2  0
 23 24  1  0
 24 25  1  0
 24 26  2  0
 24 27  2  0
  7 28  1  0
  4 29  1  0
 28 29  1  0
M  END
