DRV-UNK-64047f27-4-chloroacetamide
     RDKit          3D

 30 33  0  0  0  0  0  0  0  0999 V2000
    8.3610   -3.1840   17.0640 C   0  0  0  0  0  0  0  0  0  0  0  0
    6.9250   -3.2180   15.7970 C   0  0  0  0  0  0  0  0  0  0  0  0
    6.0970   -3.1310   16.7450 O   0  0  0  0  0  0  0  0  0  0  0  0
    6.3880   -3.1330   13.6870 C   0  0  0  0  0  0  0  0  0  0  0  0
    6.8590   -2.7030   11.7960 N   0  0  0  0  0  0  0  0  0  0  0  0
    6.9000   -3.2070   10.2640 C   0  0  0  0  0  0  0  0  0  0  0  0
    7.9540   -2.4310    9.0430 C   0  0  0  0  0  0  0  0  0  0  0  0
    8.4150   -0.9220    8.4920 N   0  0  0  0  0  0  0  0  0  0  0  0
    8.7800   -1.0510    6.7910 C   0  0  0  0  0  0  0  0  0  0  0  0
    8.1300   -0.6550    5.4910 C   0  0  0  0  0  0  0  0  0  0  0  0
    8.2850   -0.9550    4.0140 C   0  0  0  0  0  0  0  0  0  0  0  0
    7.2360   -0.5180    2.9520 C   0  0  0  0  0  0  0  0  0  0  0  0
    7.1400   -0.6200    0.0220 C   0  0  1  0  0  0  0  0  0  0  0  0
    7.3740   -0.2290   -1.0490 N   0  0  0  0  0  0  0  0  0  0  0  0
    8.5510   -0.2120   -1.5380 C   0  0  0  0  0  0  0  0  0  0  0  0
    9.7490    0.1300   -1.6360 O   0  0  0  0  0  0  0  0  0  0  0  0
    8.3690   -0.9260   -2.2930 C   0  0  0  0  0  0  0  0  0  0  0  0
    9.0410   -0.9460   -3.4840 C   0  0  0  0  0  0  0  0  0  0  0  0
    8.6100   -1.8660   -4.1740 C   0  0  0  0  0  0  0  0  0  0  0  0
    7.6890   -2.4590   -3.4170 C   0  0  0  0  0  0  0  0  0  0  0  0
    6.8930   -2.6600   -2.2890 C   0  0  0  0  0  0  0  0  0  0  0  0
    7.3830   -1.4810   -1.4330 C   0  0  0  0  0  0  0  0  0  0  0  0
    8.0750   -0.8080    4.6160 C   0  0  0  0  0  0  0  0  0  0  0  0
    9.4060   -1.4380    5.8030 C   0  0  0  0  0  0  0  0  0  0  0  0
    9.8070   -1.5300    7.3940 S   0  0  0  0  0  0  0  0  0  0  0  0
    9.6810   -3.0880    7.9540 N   0  0  0  0  0  0  0  0  0  0  0  0
    8.7450   -0.8190    8.0390 O   0  0  0  0  0  0  0  0  0  0  0  0
   11.0430   -0.9340    7.3650 O   0  0  0  0  0  0  0  0  0  0  0  0
    8.9940   -1.4950    9.7220 C   0  0  0  0  0  0  0  0  0  0  0  0
    7.9860   -2.5570   10.4680 C   0  0  0  0  0  0  0  0  0  0  0  0
  1  2  1  0
  2  3  2  0
  2  4  1  0
  4  5  1  0
  5  6  1  0
  6  7  1  0
  7  8  1  0
  8  9  1  0
  9 10  2  0
 10 11  1  0
 11 12  2  0
 13 12  1  1
 13 14  1  0
 14 15  1  0
 15 16  2  0
 15 17  1  0
 17 18  1  0
 18 19  2  0
 19 20  1  0
 20 21  2  0
 13 22  1  0
 17 22  2  0
 21 22  1  0
 12 23  1  0
  9 24  1  0
 23 24  2  0
 24 25  1  0
 25 26  1  0
 25 27  2  0
 25 28  2  0
  8 29  1  0
  5 30  1  0
 29 30  1  0
M  END
