DRV-UNK-dd7f8c68-2-vinylsulfonamide
     RDKit          3D

 31 34  0  0  0  0  0  0  0  0999 V2000
    6.6360   -3.4630   18.2680 C   0  0  0  0  0  0  0  0  0  0  0  0
    6.2380   -4.0850   16.7510 C   0  0  0  0  0  0  0  0  0  0  0  0
    4.5440   -3.6590   15.9960 S   0  0  0  0  0  0  0  0  0  0  0  0
    3.7120   -4.1170   18.3150 O   0  0  0  0  0  0  0  0  0  0  0  0
    4.6110   -2.2620   15.9270 O   0  0  0  0  0  0  0  0  0  0  0  0
    4.7140   -3.5020   13.0520 N   0  0  0  0  0  0  0  0  0  0  0  0
    5.6210   -2.7800   11.4250 C   0  0  0  0  0  0  0  0  0  0  0  0
    5.9610   -3.0710    9.2740 C   0  0  0  0  0  0  0  0  0  0  0  0
    5.2120   -2.7780    7.4670 N   0  0  0  0  0  0  0  0  0  0  0  0
    5.4230   -3.1570    4.7030 C   0  0  0  0  0  0  0  0  0  0  0  0
    5.5550   -3.3920    2.9820 C   0  0  0  0  0  0  0  0  0  0  0  0
    6.0500   -2.6690    1.7010 C   0  0  0  0  0  0  0  0  0  0  0  0
    5.9430   -3.5740    0.6310 C   0  0  0  0  0  0  0  0  0  0  0  0
    6.3540   -3.4010   -0.6870 C   0  0  2  0  0  0  0  0  0  0  0  0
    6.9720   -3.8300   -1.4580 N   0  0  0  0  0  0  0  0  0  0  0  0
    8.1630   -4.2510   -0.8010 C   0  0  0  0  0  0  0  0  0  0  0  0
    8.8490   -5.4030   -0.5060 O   0  0  0  0  0  0  0  0  0  0  0  0
    8.2090   -2.9370   -0.6240 C   0  0  0  0  0  0  0  0  0  0  0  0
    6.8190   -3.5130   -0.8070 C   0  0  0  0  0  0  0  0  0  0  0  0
    5.6050   -2.8170   -0.8840 C   0  0  0  0  0  0  0  0  0  0  0  0
    5.7630   -1.4450   -0.8200 C   0  0  0  0  0  0  0  0  0  0  0  0
    6.8690   -0.7710   -0.6750 C   0  0  0  0  0  0  0  0  0  0  0  0
    7.1780   -2.1680   -0.6650 C   0  0  0  0  0  0  0  0  0  0  0  0
    6.2280   -2.3920    1.0090 C   0  0  0  0  0  0  0  0  0  0  0  0
    6.0570   -1.8770    2.8840 C   0  0  0  0  0  0  0  0  0  0  0  0
    6.6080   -0.7650    1.3040 S   0  0  0  0  0  0  0  0  0  0  0  0
    6.2510   -0.7830   -0.5810 N   0  0  0  0  0  0  0  0  0  0  0  0
    8.0640   -0.9630    1.2640 O   0  0  0  0  0  0  0  0  0  0  0  0
    6.1210    0.5790    1.6850 O   0  0  0  0  0  0  0  0  0  0  0  0
    4.1150   -3.1430    9.0840 C   0  0  0  0  0  0  0  0  0  0  0  0
    4.0670   -3.8470   11.2070 C   0  0  0  0  0  0  0  0  0  0  0  0
  1  2  1  0
  3  2  1  0
  3  4  2  0
  3  5  2  0
  3  6  1  0
  6  7  1  0
  7  8  1  0
  8  9  1  0
  9 10  1  0
 10 11  2  0
 11 12  1  0
 12 13  2  0
 14 13  1  1
 14 15  1  0
 15 16  1  0
 16 17  2  0
 16 18  1  0
 18 19  1  0
 19 20  2  0
 20 21  1  0
 21 22  2  0
 14 23  1  0
 18 23  2  0
 22 23  1  0
 13 24  1  0
 10 25  1  0
 24 25  2  0
 25 26  1  0
 26 27  1  0
 26 28  2  0
 26 29  2  0
  9 30  1  0
  6 31  1  0
 30 31  1  0
M  END
