DRV-UNK-dd7f8c68-4
     RDKit          3D

 30 33  0  0  0  0  0  0  0  0999 V2000
    8.0090    0.0150   -6.4900 N   0  0  0  0  0  0  0  0  0  0  0  0
    9.1330   -1.0620   -7.0490 S   0  0  0  0  0  0  0  0  0  0  0  0
   10.0670   -1.0770   -5.9720 O   0  0  0  0  0  0  0  0  0  0  0  0
    9.5080   -0.6620   -8.3610 O   0  0  0  0  0  0  0  0  0  0  0  0
    8.2100   -2.5440   -7.2260 C   0  0  0  0  0  0  0  0  0  0  0  0
    8.7700   -3.8830   -7.3910 C   0  0  0  0  0  0  0  0  0  0  0  0
    7.8090   -5.0560   -7.5560 C   0  0  0  0  0  0  0  0  0  0  0  0
    8.4940   -6.3960   -7.7580 C   0  0  2  0  0  0  0  0  0  0  0  0
    9.2300   -6.4170   -9.0770 N   0  0  0  0  0  0  0  0  0  0  0  0
    8.8640   -7.6110   -9.8440 C   0  0  0  0  0  0  0  0  0  0  0  0
    9.1630   -7.9230  -10.9780 O   0  0  0  0  0  0  0  0  0  0  0  0
    8.0120   -8.3500   -8.8820 C   0  0  0  0  0  0  0  0  0  0  0  0
    7.4330   -9.7200   -9.1380 C   0  0  0  0  0  0  0  0  0  0  0  0
    6.6430  -10.2900   -8.1270 C   0  0  0  0  0  0  0  0  0  0  0  0
    6.4160   -9.5970   -6.9400 C   0  0  0  0  0  0  0  0  0  0  0  0
    6.9700   -8.3220   -6.7320 C   0  0  0  0  0  0  0  0  0  0  0  0
    7.7580   -7.7200   -7.7000 C   0  0  0  0  0  0  0  0  0  0  0  0
    6.4320   -4.8010   -7.5150 C   0  0  0  0  0  0  0  0  0  0  0  0
    5.9640   -3.4860   -7.3660 C   0  0  0  0  0  0  0  0  0  0  0  0
    6.8540   -2.4160   -7.2470 C   0  0  0  0  0  0  0  0  0  0  0  0
    6.3250   -1.1040   -7.2200 N   0  0  0  0  0  0  0  0  0  0  0  0
    6.0710   -0.3590   -6.2010 C   0  0  0  0  0  0  0  0  0  0  0  0
    5.9270    1.0430   -6.4810 C   0  0  0  0  0  0  0  0  0  0  0  0
    5.4680    1.3700   -7.7540 N   0  0  0  0  0  0  0  0  0  0  0  0
    4.7580    2.5620   -7.7450 C   0  0  0  0  0  0  0  0  0  0  0  0
    3.6290    2.7230   -8.2160 O   0  0  0  0  0  0  0  0  0  0  0  0
    5.4420    3.7840   -7.0920 C   0  0  0  0  0  0  0  0  0  0  0  0
    4.5930    4.8970   -6.9250 O   0  0  0  0  0  0  0  0  0  0  0  0
    4.9890    0.3600   -8.5860 C   0  0  0  0  0  0  0  0  0  0  0  0
    5.1460   -1.0720   -8.0360 C   0  0  0  0  0  0  0  0  0  0  0  0
  2  1  1  0
  2  3  2  0
  2  4  2  0
  2  5  1  0
  5  6  2  0
  6  7  1  0
  8  7  1  6
  8  9  1  0
  9 10  1  0
 10 11  2  0
 10 12  1  0
 12 13  1  0
 13 14  2  0
 14 15  1  0
 15 16  2  0
  8 17  1  0
 12 17  2  0
 16 17  1  0
  7 18  2  0
 18 19  1  0
  5 20  1  0
 19 20  2  0
 20 21  1  0
 21 22  1  0
 22 23  1  0
 23 24  1  0
 24 25  1  0
 25 26  2  0
 25 27  1  0
 27 28  1  0
 24 29  1  0
 21 30  1  0
 29 30  1  0
M  END
