DRV-UNK-dd7f8c68-9
     RDKit          3D

 34 38  0  0  0  0  0  0  0  0999 V2000
    9.3290   -1.3230   -6.7730 N   0  0  0  0  0  0  0  0  0  0  0  0
   10.2320   -2.0890   -7.9550 S   0  0  0  0  0  0  0  0  0  0  0  0
   10.3260   -1.0380   -8.8970 O   0  0  0  0  0  0  0  0  0  0  0  0
   11.3790   -2.6050   -7.2540 O   0  0  0  0  0  0  0  0  0  0  0  0
    9.2720   -3.4680   -8.5930 C   0  0  0  0  0  0  0  0  0  0  0  0
    9.7570   -4.3100   -9.7370 C   0  0  0  0  0  0  0  0  0  0  0  0
    8.8840   -5.4760  -10.2390 C   0  0  0  0  0  0  0  0  0  0  0  0
    9.2950   -6.3500  -11.4380 C   0  0  2  0  0  0  0  0  0  0  0  0
    9.9070   -7.7050  -11.2250 N   0  0  0  0  0  0  0  0  0  0  0  0
   10.3870   -8.0690  -12.5650 C   0  0  0  0  0  0  0  0  0  0  0  0
   10.3810   -9.1350  -13.1400 O   0  0  0  0  0  0  0  0  0  0  0  0
   10.8450   -6.7400  -13.0480 C   0  0  0  0  0  0  0  0  0  0  0  0
   11.8740   -6.4740  -14.1180 C   0  0  0  0  0  0  0  0  0  0  0  0
   12.1570   -5.1240  -14.4210 C   0  0  0  0  0  0  0  0  0  0  0  0
   11.4990   -4.0880  -13.7450 C   0  0  0  0  0  0  0  0  0  0  0  0
   10.5490   -4.3660  -12.7540 C   0  0  0  0  0  0  0  0  0  0  0  0
   10.2430   -5.6920  -12.4260 C   0  0  0  0  0  0  0  0  0  0  0  0
    7.6780   -5.7020   -9.5740 C   0  0  0  0  0  0  0  0  0  0  0  0
    7.2640   -4.8940   -8.5190 C   0  0  0  0  0  0  0  0  0  0  0  0
    8.0140   -3.8150   -8.0510 C   0  0  0  0  0  0  0  0  0  0  0  0
    7.3720   -3.1000   -6.9860 N   0  0  0  0  0  0  0  0  0  0  0  0
    7.8530   -1.9250   -6.5110 C   0  0  0  0  0  0  0  0  0  0  0  0
    7.5080   -0.7940   -7.1830 C   0  0  0  0  0  0  0  0  0  0  0  0
    6.1920   -0.6550   -7.2540 N   0  0  0  0  0  0  0  0  0  0  0  0
    6.2730    0.1620   -6.2220 C   0  0  0  0  0  0  0  0  0  0  0  0
    6.7560   -0.1120   -5.1250 O   0  0  0  0  0  0  0  0  0  0  0  0
    5.8270    1.5460   -6.4890 C   0  0  0  0  0  0  0  0  0  0  0  0
    5.3400    1.9340   -7.8850 C   0  0  0  0  0  0  0  0  0  0  0  0
    4.9360    3.1730   -8.1530 N   0  0  0  0  0  0  0  0  0  0  0  0
    5.0040    3.9970   -7.1040 C   0  0  0  0  0  0  0  0  0  0  0  0
    5.4970    3.5800   -5.7190 C   0  0  0  0  0  0  0  0  0  0  0  0
    5.8980    2.3700   -5.4500 N   0  0  0  0  0  0  0  0  0  0  0  0
    5.2800   -1.8430   -7.1240 C   0  0  0  0  0  0  0  0  0  0  0  0
    5.9330   -3.2190   -6.8270 C   0  0  0  0  0  0  0  0  0  0  0  0
  2  1  1  0
  2  3  2  0
  2  4  2  0
  2  5  1  0
  5  6  2  0
  6  7  1  0
  8  7  1  1
  8  9  1  0
  9 10  1  0
 10 11  2  0
 10 12  1  0
 12 13  1  0
 13 14  2  0
 14 15  1  0
 15 16  2  0
  8 17  1  0
 12 17  2  0
 16 17  1  0
  7 18  2  0
 18 19  1  0
  5 20  1  0
 19 20  2  0
 20 21  1  0
 21 22  1  0
 22 23  1  0
 23 24  1  0
 24 25  1  0
 25 26  2  0
 25 27  1  0
 27 28  2  0
 28 29  1  0
 29 30  2  0
 30 31  1  0
 27 32  1  0
 31 32  2  0
 24 33  1  0
 21 34  1  0
 33 34  1  0
M  END
