DUN-NEW-f8ce3686-12-nitrile
     RDKit          3D

 17 18  0  0  0  0  0  0  0  0999 V2000
    8.0850   -3.4650   20.4570 C   0  0  0  0  0  0  0  0  0  0  0  0
    6.8420   -4.0590   20.2200 N   0  0  0  0  0  0  0  0  0  0  0  0
    9.0610   -3.3430   22.0330 C   0  0  0  0  0  0  0  0  0  0  0  0
    9.7400   -2.2000   21.6200 C   0  0  0  0  0  0  0  0  0  0  0  0
   10.8070   -1.4340   21.9910 C   0  0  0  0  0  0  0  0  0  0  0  0
   10.4260   -2.8140   22.7050 C   0  0  0  0  0  0  0  0  0  0  0  0
   11.5760   -1.8410   22.9260 N   0  0  0  0  0  0  0  0  0  0  0  0
   10.7510   -1.2070   21.9250 C   0  0  0  0  0  0  0  0  0  0  0  0
    9.5300   -1.8510   21.4430 C   0  0  0  0  0  0  0  0  0  0  0  0
    8.6150   -1.3180   20.6530 C   0  0  0  0  0  0  0  0  0  0  0  0
    7.4410   -1.6880   21.6830 C   0  0  0  0  0  0  0  0  0  0  0  0
    7.5960   -1.6880   23.1020 N   0  0  0  0  0  0  0  0  0  0  0  0
    6.7040   -0.7290   23.7960 C   0  0  0  0  0  0  0  0  0  0  0  0
    5.2470   -1.2900   23.8850 C   0  0  0  0  0  0  0  0  0  0  0  0
    7.0840    0.3570   24.2550 O   0  0  0  0  0  0  0  0  0  0  0  0
    9.1570   -3.1050   21.9150 C   0  0  0  0  0  0  0  0  0  0  0  0
    8.1930   -4.2790   21.9630 C   0  0  0  0  0  0  0  0  0  0  0  0
  1  2  2  3
  1  3  1  0
  3  4  2  0
  4  5  1  0
  5  6  2  0
  6  7  1  0
  7  8  1  0
  8  9  2  0
  9 10  1  0
 10 11  1  0
 11 12  1  0
 12 13  1  0
 13 14  1  0
 13 15  2  0
  6 16  1  0
  9 16  1  0
  3 17  1  0
 16 17  2  0
M  END
