DUN-NEW-f8ce3686-2-nitrile
     RDKit          3D

 23 25  0  0  0  0  0  0  0  0999 V2000
    6.4440   -4.9090   20.4310 C   0  0  0  0  0  0  0  0  0  0  0  0
    5.8710   -3.9730   19.7660 N   0  0  0  0  0  0  0  0  0  0  0  0
    6.1870   -5.1220   21.8070 N   0  0  0  0  0  0  0  0  0  0  0  0
    5.6760   -4.0780   22.6890 C   0  0  0  0  0  0  0  0  0  0  0  0
    6.5110   -4.0010   23.9790 C   0  0  0  0  0  0  0  0  0  0  0  0
    7.9510   -4.2220   23.7130 N   0  0  0  0  0  0  0  0  0  0  0  0
    8.6550   -3.2620   22.9460 C   0  0  0  0  0  0  0  0  0  0  0  0
    9.4760   -2.3330   23.5950 C   0  0  0  0  0  0  0  0  0  0  0  0
   10.8580   -2.6500   23.4540 C   0  0  0  0  0  0  0  0  0  0  0  0
   11.8980   -1.9030   23.9860 C   0  0  0  0  0  0  0  0  0  0  0  0
   11.6110   -0.7100   24.7430 C   0  0  0  0  0  0  0  0  0  0  0  0
   10.1180   -0.3380   24.9140 C   0  0  0  0  0  0  0  0  0  0  0  0
    9.0460   -1.2250   24.2910 C   0  0  0  0  0  0  0  0  0  0  0  0
    7.7310   -0.8830   24.4470 N   0  0  0  0  0  0  0  0  0  0  0  0
    7.1640   -0.4070   23.2930 C   0  0  0  0  0  0  0  0  0  0  0  0
    6.0900   -1.2640   23.1040 C   0  0  0  0  0  0  0  0  0  0  0  0
    5.6390   -1.7230   24.3120 C   0  0  0  0  0  0  0  0  0  0  0  0
    6.7190   -1.6970   25.1910 C   0  0  2  0  0  0  0  0  0  0  0  0
    6.4860   -1.2130   26.4770 C   0  0  0  0  0  0  0  0  0  0  0  0
    6.4860   -2.1330   27.4920 N   0  0  0  0  0  0  0  0  0  0  0  0
    6.2790   -0.0240   26.6920 O   0  0  0  0  0  0  0  0  0  0  0  0
    8.0460   -5.4940   23.1380 C   0  0  0  0  0  0  0  0  0  0  0  0
    6.8950   -6.0980   22.6500 C   0  0  0  0  0  0  0  0  0  0  0  0
  1  2  2  3
  1  3  1  0
  3  4  1  0
  4  5  1  0
  5  6  1  0
  6  7  1  0
  7  8  1  0
  8  9  2  0
  9 10  1  0
 10 11  2  0
 11 12  1  0
  8 13  1  0
 12 13  2  0
 13 14  1  0
 14 15  1  0
 15 16  1  0
 16 17  1  0
 14 18  1  0
 17 18  1  0
 18 19  1  1
 19 20  1  0
 19 21  2  0
  6 22  1  0
  3 23  1  0
 22 23  1  0
M  END
