DUN-NEW-f8ce3686-22-acrylamide
     RDKit          3D

 20 21  0  0  0  0  0  0  0  0999 V2000
    7.8950   -4.9020   21.3020 C   0  0  0  0  0  0  0  0  0  0  0  0
    6.5270   -5.0180   22.0300 C   0  0  0  0  0  0  0  0  0  0  0  0
    5.9110   -3.7710   22.7200 C   0  0  0  0  0  0  0  0  0  0  0  0
    4.9480   -4.1140   21.9360 O   0  0  0  0  0  0  0  0  0  0  0  0
    7.1740   -3.6630   23.4700 N   0  0  0  0  0  0  0  0  0  0  0  0
    7.5870   -4.3950   24.7060 C   0  0  0  0  0  0  0  0  0  0  0  0
    8.7610   -4.9480   24.3760 C   0  0  0  0  0  0  0  0  0  0  0  0
    9.7160   -3.8280   24.3280 N   0  0  0  0  0  0  0  0  0  0  0  0
   10.4190   -3.7360   25.8700 S   0  0  0  0  0  0  0  0  0  0  0  0
    9.7350   -5.0490   26.8840 C   0  0  0  0  0  0  0  0  0  0  0  0
    9.9120   -2.4830   26.3340 O   0  0  0  0  0  0  0  0  0  0  0  0
   11.8370   -3.9710   25.7560 O   0  0  0  0  0  0  0  0  0  0  0  0
    9.4070   -2.5590   23.8800 C   0  0  1  0  0  0  0  0  0  0  0  0
   10.4840   -1.6230   23.5880 C   0  0  0  0  0  0  0  0  0  0  0  0
   10.5990   -0.2680   24.3020 C   0  0  0  0  0  0  0  0  0  0  0  0
   11.8210    0.5730   23.9120 C   0  0  0  0  0  0  0  0  0  0  0  0
   12.7660   -0.0100   22.8900 C   0  0  0  0  0  0  0  0  0  0  0  0
   12.5420   -1.2690   22.3020 C   0  0  0  0  0  0  0  0  0  0  0  0
   11.4350   -2.0720   22.6250 C   0  0  0  0  0  0  0  0  0  0  0  0
    8.2560   -2.6560   23.0340 C   0  0  0  0  0  0  0  0  0  0  0  0
  1  2  1  0
  2  3  1  0
  3  4  2  0
  3  5  1  0
  5  6  1  0
  6  7  1  0
  7  8  1  0
  8  9  1  0
  9 10  1  0
  9 11  2  0
  9 12  2  0
  8 13  1  0
 13 14  1  6
 14 15  2  0
 15 16  1  0
 16 17  2  0
 17 18  1  0
 14 19  1  0
 18 19  2  0
  5 20  1  0
 13 20  1  0
M  END
