DUN-NEW-d8381160-1
     RDKit          3D

 21 23  0  0  0  0  0  0  0  0999 V2000
   10.0870    3.0250   23.2970 N   0  0  0  0  0  0  0  0  0  0  0  0
    9.3280    2.3320   22.4070 C   0  0  0  0  0  0  0  0  0  0  0  0
    8.9370    2.8980   21.1850 O   0  0  0  0  0  0  0  0  0  0  0  0
    8.8780    0.9340   22.6420 C   0  0  2  0  0  0  0  0  0  0  0  0
    7.4600    0.8450   22.9870 C   0  0  0  0  0  0  0  0  0  0  0  0
    7.2030   -0.4800   22.8740 N   0  0  0  0  0  0  0  0  0  0  0  0
    7.4510   -0.9360   21.4760 C   0  0  0  0  0  0  0  0  0  0  0  0
    6.7490   -0.2830   20.3960 C   0  0  0  0  0  0  0  0  0  0  0  0
    5.6450    0.4680   20.7880 C   0  0  0  0  0  0  0  0  0  0  0  0
    4.9380    1.1130   19.7830 C   0  0  0  0  0  0  0  0  0  0  0  0
    5.3210    1.0230   18.3590 C   0  0  0  0  0  0  0  0  0  0  0  0
    6.4050    0.2810   18.0030 N   0  0  0  0  0  0  0  0  0  0  0  0
    7.0980   -0.3610   19.0320 C   0  0  0  0  0  0  0  0  0  0  0  0
    8.3290   -0.9610   23.7390 C   0  0  0  0  0  0  0  0  0  0  0  0
    9.4770    0.0220   23.6930 C   0  0  1  0  0  0  0  0  0  0  0  0
   10.6120   -0.4230   23.1290 C   0  0  0  0  0  0  0  0  0  0  0  0
   11.8770    0.4120   23.3310 C   0  0  0  0  0  0  0  0  0  0  0  0
   13.1160   -0.1440   22.6010 C   0  0  0  0  0  0  0  0  0  0  0  0
   13.3340   -1.2230   21.8090 C   0  0  0  0  0  0  0  0  0  0  0  0
   12.0180   -1.8520   21.7850 C   0  0  0  0  0  0  0  0  0  0  0  0
   10.6680   -1.6040   22.3430 C   0  0  0  0  0  0  0  0  0  0  0  0
  1  2  1  0
  2  3  2  0
  4  2  1  1
  4  5  1  0
  5  6  1  0
  6  7  1  0
  7  8  1  0
  8  9  2  0
  9 10  1  0
 10 11  2  0
 11 12  1  0
  8 13  1  0
 12 13  2  0
  6 14  1  0
  4 15  1  0
 14 15  1  0
 15 16  1  6
 16 17  2  0
 17 18  1  0
 18 19  2  0
 19 20  1  0
 16 21  1  0
 20 21  2  0
M  END
