DUN-NEW-f8ce3686-22-nitrile
     RDKit          3D

 18 19  0  0  0  0  0  0  0  0999 V2000
    6.6660   -4.1650   20.0770 C   0  0  0  0  0  0  0  0  0  0  0  0
    5.6240   -3.6810   19.5530 N   0  0  0  0  0  0  0  0  0  0  0  0
    6.9050   -4.1840   21.4310 N   0  0  0  0  0  0  0  0  0  0  0  0
    6.7610   -5.3890   22.2690 C   0  0  0  0  0  0  0  0  0  0  0  0
    6.0730   -4.8110   23.5540 C   0  0  0  0  0  0  0  0  0  0  0  0
    6.9050   -3.7080   24.1760 N   0  0  0  0  0  0  0  0  0  0  0  0
    6.0780   -3.0070   25.4750 S   0  0  0  0  0  0  0  0  0  0  0  0
    7.1640   -3.2290   26.8700 C   0  0  0  0  0  0  0  0  0  0  0  0
    5.9810   -1.5810   25.2450 O   0  0  0  0  0  0  0  0  0  0  0  0
    4.8710   -3.7670   25.6940 O   0  0  0  0  0  0  0  0  0  0  0  0
    7.3520   -2.6530   23.2140 C   0  0  1  0  0  0  0  0  0  0  0  0
    8.4350   -1.6940   23.7470 C   0  0  0  0  0  0  0  0  0  0  0  0
    9.4560   -1.5130   22.5890 C   0  0  0  0  0  0  0  0  0  0  0  0
   10.5550   -0.5740   23.0110 C   0  0  0  0  0  0  0  0  0  0  0  0
   10.6090    0.0680   24.3710 C   0  0  0  0  0  0  0  0  0  0  0  0
    9.6000   -0.2090   25.3080 C   0  0  0  0  0  0  0  0  0  0  0  0
    8.5280   -1.0750   25.0050 C   0  0  0  0  0  0  0  0  0  0  0  0
    7.7900   -3.1730   22.0040 C   0  0  0  0  0  0  0  0  0  0  0  0
  1  2  2  3
  1  3  1  0
  3  4  1  0
  4  5  1  0
  5  6  1  0
  6  7  1  0
  7  8  1  0
  7  9  2  0
  7 10  2  0
  6 11  1  0
 11 12  1  1
 12 13  2  0
 13 14  1  0
 14 15  2  0
 15 16  1  0
 12 17  1  0
 16 17  2  0
  3 18  1  0
 11 18  1  0
M  END
