DUN-NEW-f8ce3686-21-nitrile
     RDKit          3D

 19 20  0  0  0  0  0  0  0  0999 V2000
    6.3430   -4.7750   20.3790 C   0  0  0  0  0  0  0  0  0  0  0  0
    5.7990   -3.9040   19.6030 N   0  0  0  0  0  0  0  0  0  0  0  0
    5.7460   -5.2180   21.5520 N   0  0  0  0  0  0  0  0  0  0  0  0
    5.9510   -4.6880   22.9470 C   0  0  0  0  0  0  0  0  0  0  0  0
    7.4740   -4.3090   23.0680 C   0  0  0  0  0  0  0  0  0  0  0  0
    6.7650   -3.2990   22.0500 C   0  0  0  0  0  0  0  0  0  0  0  0
    7.9540   -2.4470   21.6680 C   0  0  0  0  0  0  0  0  0  0  0  0
    7.9620   -1.2480   20.6800 C   0  0  0  0  0  0  0  0  0  0  0  0
    8.7140   -2.1230   21.6080 C   0  0  0  0  0  0  0  0  0  0  0  0
    7.2990   -1.9320   21.0650 C   0  0  0  0  0  0  0  0  0  0  0  0
    7.1090   -0.8050   20.0480 C   0  0  0  0  0  0  0  0  0  0  0  0
    6.0530   -1.0120   19.1290 C   0  0  0  0  0  0  0  0  0  0  0  0
    5.9960    0.0240   18.2210 N   0  0  0  0  0  0  0  0  0  0  0  0
    5.7690    1.3120   18.8770 C   0  0  0  0  0  0  0  0  0  0  0  0
    4.7370    2.0490   18.2940 C   0  0  0  0  0  0  0  0  0  0  0  0
    6.4040    1.7300   19.8460 O   0  0  0  0  0  0  0  0  0  0  0  0
    6.1190   -2.5790   21.2950 C   0  0  0  0  0  0  0  0  0  0  0  0
    6.9910   -3.3000   22.1220 N   0  0  0  0  0  0  0  0  0  0  0  0
    8.4420   -3.2420   22.4570 C   0  0  0  0  0  0  0  0  0  0  0  0
  1  2  2  3
  1  3  1  0
  3  4  1  0
  4  5  1  0
  5  6  2  0
  6  7  1  0
  7  8  2  0
  8  9  1  0
  9 10  1  0
 10 11  1  0
 11 12  1  0
 12 13  1  0
 13 14  1  0
 14 15  1  0
 14 16  2  0
 10 17  2  0
 17 18  1  0
  5 19  1  0
  9 19  2  0
 18 19  1  0
M  END
