DUN-NEW-f8ce3686-25-nitrile
     RDKit          3D

 22 23  0  0  0  0  0  0  0  0999 V2000
    6.7610   -3.9270   20.0140 C   0  0  0  0  0  0  0  0  0  0  0  0
    5.8100   -3.5040   19.2820 N   0  0  0  0  0  0  0  0  0  0  0  0
    6.7750   -4.0130   21.3890 N   0  0  0  0  0  0  0  0  0  0  0  0
    7.6360   -3.0910   22.1380 C   0  0  0  0  0  0  0  0  0  0  0  0
    7.0860   -2.6690   23.5150 C   0  0  0  0  0  0  0  0  0  0  0  0
    5.9810   -3.6160   24.0120 C   0  0  0  0  0  0  0  0  0  0  0  0
    5.7180   -3.5020   25.4090 C   0  0  0  0  0  0  0  0  0  0  0  0
    6.9080   -3.3870   26.3250 N   0  0  0  0  0  0  0  0  0  0  0  0
    7.3160   -4.6390   27.0340 C   0  0  0  0  0  0  0  0  0  0  0  0
    8.8180   -4.9200   26.8130 C   0  0  0  0  0  0  0  0  0  0  0  0
    8.8020   -5.2640   25.3610 C   0  0  0  0  0  0  0  0  0  0  0  0
    8.8560   -4.2500   24.4190 C   0  0  0  0  0  0  0  0  0  0  0  0
    8.7880   -4.5710   23.0730 C   0  0  0  0  0  0  0  0  0  0  0  0
    8.6660   -5.8900   22.6620 C   0  0  0  0  0  0  0  0  0  0  0  0
    8.6370   -6.9120   23.5810 C   0  0  0  0  0  0  0  0  0  0  0  0
    8.7080   -6.5750   24.9120 C   0  0  0  0  0  0  0  0  0  0  0  0
    6.7150   -2.0850   27.4010 S   0  0  0  0  0  0  0  0  0  0  0  0
    6.8240   -0.7070   26.2800 C   0  0  0  0  0  0  0  0  0  0  0  0
    7.8090   -2.1330   28.3250 O   0  0  0  0  0  0  0  0  0  0  0  0
    5.3520   -2.1170   27.8860 O   0  0  0  0  0  0  0  0  0  0  0  0
    6.1600   -5.0580   23.5060 C   0  0  0  0  0  0  0  0  0  0  0  0
    6.1910   -5.1740   22.0950 C   0  0  0  0  0  0  0  0  0  0  0  0
  1  2  2  3
  1  3  1  0
  3  4  1  0
  4  5  1  0
  5  6  1  0
  6  7  1  0
  7  8  1  0
  8  9  1  0
  9 10  1  0
 10 11  1  0
 11 12  2  0
 12 13  1  0
 13 14  2  0
 14 15  1  0
 11 16  1  0
 15 16  2  0
 17  8  1  0
 17 18  1  0
 17 19  2  0
 17 20  2  0
  6 21  1  0
  3 22  1  0
 21 22  1  0
M  END
