DUN-NEW-f8ce3686-25-vinylsulfonamide
     RDKit          3D

 25 26  0  0  0  0  0  0  0  0999 V2000
    8.7420   -4.0350   20.3960 C   0  0  0  0  0  0  0  0  0  0  0  0
    7.4560   -3.2520   20.0030 C   0  0  0  0  0  0  0  0  0  0  0  0
    6.0550   -4.0510   20.7700 S   0  0  0  0  0  0  0  0  0  0  0  0
    5.1110   -4.4330   19.7490 O   0  0  0  0  0  0  0  0  0  0  0  0
    6.5950   -5.0560   21.6540 O   0  0  0  0  0  0  0  0  0  0  0  0
    5.3380   -2.8650   21.7390 N   0  0  0  0  0  0  0  0  0  0  0  0
    4.5940   -3.4000   22.7680 C   0  0  0  0  0  0  0  0  0  0  0  0
    5.1770   -3.0550   24.1410 C   0  0  0  0  0  0  0  0  0  0  0  0
    6.3570   -2.3440   23.9320 C   0  0  0  0  0  0  0  0  0  0  0  0
    7.2010   -2.2600   25.0510 C   0  0  0  0  0  0  0  0  0  0  0  0
    8.1300   -3.4250   24.9890 N   0  0  0  0  0  0  0  0  0  0  0  0
    9.3860   -3.2160   24.1790 C   0  0  0  0  0  0  0  0  0  0  0  0
    9.3950   -1.8520   23.5110 C   0  0  0  0  0  0  0  0  0  0  0  0
   10.6020   -1.1440   23.4120 C   0  0  0  0  0  0  0  0  0  0  0  0
   10.7530    0.0400   24.2450 C   0  0  0  0  0  0  0  0  0  0  0  0
   11.8860   -0.0410   23.5770 C   0  0  0  0  0  0  0  0  0  0  0  0
   13.0680    0.0150   22.9880 C   0  0  0  0  0  0  0  0  0  0  0  0
   12.9930   -1.0700   22.2030 C   0  0  0  0  0  0  0  0  0  0  0  0
   11.6060   -1.6810   22.4680 C   0  0  0  0  0  0  0  0  0  0  0  0
    8.2490   -4.4490   26.3610 S   0  0  0  0  0  0  0  0  0  0  0  0
    6.6540   -5.2280   26.4400 C   0  0  0  0  0  0  0  0  0  0  0  0
    8.3620   -3.5930   27.5180 O   0  0  0  0  0  0  0  0  0  0  0  0
    9.2100   -5.4800   26.0490 O   0  0  0  0  0  0  0  0  0  0  0  0
    6.2860   -1.1670   23.1670 C   0  0  0  0  0  0  0  0  0  0  0  0
    5.8610   -1.4930   21.8610 C   0  0  0  0  0  0  0  0  0  0  0  0
  1  2  1  0
  3  2  1  0
  3  4  2  0
  3  5  2  0
  3  6  1  0
  6  7  1  0
  7  8  1  0
  8  9  1  0
  9 10  1  0
 10 11  1  0
 11 12  1  0
 12 13  1  0
 13 14  1  0
 14 15  2  0
 15 16  1  0
 16 17  2  0
 17 18  1  0
 14 19  1  0
 18 19  2  0
 20 11  1  0
 20 21  1  0
 20 22  2  0
 20 23  2  0
  9 24  1  0
  6 25  1  0
 24 25  1  0
M  END
