DUN-NEW-f8ce3686-20
     RDKit          3D

 26 28  0  0  0  0  0  0  0  0999 V2000
    6.5090   -3.1140   28.8470 C   0  0  0  0  0  0  0  0  0  0  0  0
    5.3840   -2.4810   27.6280 S   0  0  0  0  0  0  0  0  0  0  0  0
    4.0370   -2.7840   28.0600 O   0  0  0  0  0  0  0  0  0  0  0  0
    5.7740   -1.1300   27.2850 O   0  0  0  0  0  0  0  0  0  0  0  0
    5.6780   -3.4880   26.3190 N   0  0  0  0  0  0  0  0  0  0  0  0
    6.6830   -4.4890   26.3930 C   0  0  0  0  0  0  0  0  0  0  0  0
    8.1640   -4.1840   26.0810 C   0  0  0  0  0  0  0  0  0  0  0  0
    8.1600   -3.3290   25.0330 N   0  0  0  0  0  0  0  0  0  0  0  0
    9.3460   -2.8210   24.6310 C   0  0  0  0  0  0  0  0  0  0  0  0
   10.5670   -3.1290   25.2860 O   0  0  0  0  0  0  0  0  0  0  0  0
    9.3820   -1.9790   23.5280 C   0  0  0  0  0  0  0  0  0  0  0  0
   10.6300   -1.3460   23.3210 C   0  0  0  0  0  0  0  0  0  0  0  0
   10.8110   -0.1760   24.0190 C   0  0  0  0  0  0  0  0  0  0  0  0
   12.0140    0.5560   23.8830 C   0  0  0  0  0  0  0  0  0  0  0  0
   13.0760   -0.0110   22.9490 C   0  0  0  0  0  0  0  0  0  0  0  0
   12.9630   -1.1510   22.2430 N   0  0  0  0  0  0  0  0  0  0  0  0
   11.6300   -1.8320   22.4750 C   0  0  0  0  0  0  0  0  0  0  0  0
    7.2620   -3.5730   23.8530 C   0  0  0  0  0  0  0  0  0  0  0  0
    6.6800   -2.4100   23.3190 C   0  0  0  0  0  0  0  0  0  0  0  0
    5.8160   -2.3780   22.2150 C   0  0  0  0  0  0  0  0  0  0  0  0
    5.4930   -3.5780   21.5760 C   0  0  0  0  0  0  0  0  0  0  0  0
    6.0490   -4.7510   22.0810 C   0  0  0  0  0  0  0  0  0  0  0  0
    5.8860   -6.0570   21.6340 C   0  0  0  0  0  0  0  0  0  0  0  0
    6.6110   -6.9120   22.4190 C   0  0  0  0  0  0  0  0  0  0  0  0
    7.2450   -6.0760   23.3800 N   0  0  0  0  0  0  0  0  0  0  0  0
    6.9140   -4.7540   23.1930 C   0  0  0  0  0  0  0  0  0  0  0  0
  1  2  1  0
  2  3  2  0
  2  4  2  0
  2  5  1  0
  5  6  1  0
  6  7  1  0
  7  8  1  0
  8  9  1  0
  9 10  2  0
  9 11  1  0
 11 12  1  0
 12 13  2  0
 13 14  1  0
 14 15  2  0
 15 16  1  0
 12 17  1  0
 16 17  2  0
  8 18  1  0
 18 19  2  0
 19 20  1  0
 20 21  2  0
 21 22  1  0
 22 23  1  0
 23 24  2  0
 24 25  1  0
 18 26  1  0
 22 26  2  0
 25 26  1  0
M  END
