DUN-NEW-f8ce3686-14
     RDKit          3D

 21 22  0  0  0  0  0  0  0  0999 V2000
    6.4980   -5.2170   26.4880 C   0  0  0  0  0  0  0  0  0  0  0  0
    8.1790   -4.6800   26.2660 S   0  0  0  0  0  0  0  0  0  0  0  0
    8.5070   -3.8390   27.3810 O   0  0  0  0  0  0  0  0  0  0  0  0
    9.0010   -5.8120   25.9220 O   0  0  0  0  0  0  0  0  0  0  0  0
    8.0950   -3.6630   24.9380 N   0  0  0  0  0  0  0  0  0  0  0  0
    9.3000   -3.0820   24.5120 C   0  0  0  0  0  0  0  0  0  0  0  0
    9.3560   -2.0310   23.4030 C   0  0  0  0  0  0  0  0  0  0  0  0
   10.5440   -1.4490   23.5830 N   0  0  0  0  0  0  0  0  0  0  0  0
   11.5100   -1.9480   22.7910 C   0  0  0  0  0  0  0  0  0  0  0  0
   12.8130   -1.4970   22.8590 C   0  0  0  0  0  0  0  0  0  0  0  0
   12.9290   -0.0680   22.8810 C   0  0  0  0  0  0  0  0  0  0  0  0
   11.8340    0.6180   23.3510 C   0  0  0  0  0  0  0  0  0  0  0  0
   12.0220    2.0190   23.4130 C   0  0  0  0  0  0  0  0  0  0  0  0
   10.8880    2.9080   23.9330 C   0  0  0  0  0  0  0  0  0  0  0  0
    9.5740    2.2830   24.3810 C   0  0  0  0  0  0  0  0  0  0  0  0
    8.2050    3.2050   25.0170 S   0  0  0  0  0  0  0  0  0  0  0  0
    8.8940    4.7290   25.2350 N   0  0  0  0  0  0  0  0  0  0  0  0
    7.8590    2.6780   26.3260 O   0  0  0  0  0  0  0  0  0  0  0  0
    7.2120    3.3620   23.9750 O   0  0  0  0  0  0  0  0  0  0  0  0
    9.5310    0.7780   24.2360 C   0  0  0  0  0  0  0  0  0  0  0  0
   10.6260    0.0380   23.7380 C   0  0  0  0  0  0  0  0  0  0  0  0
  1  2  1  0
  2  3  2  0
  2  4  2  0
  2  5  1  0
  5  6  1  0
  6  7  1  0
  7  8  1  0
  8  9  1  0
  9 10  1  0
 10 11  1  0
 11 12  1  0
 12 13  1  0
 13 14  2  0
 14 15  1  0
 15 16  1  0
 16 17  1  0
 16 18  2  0
 16 19  2  0
 15 20  2  0
  8 21  1  0
 12 21  2  0
 20 21  1  0
M  END
