DUN-NEW-f8ce3686-22-vinylsulfonamide
     RDKit          3D

 21 22  0  0  0  0  0  0  0  0999 V2000
    7.4160   -3.8570   20.3630 C   0  0  0  0  0  0  0  0  0  0  0  0
    6.2230   -3.0260   19.8990 C   0  0  0  0  0  0  0  0  0  0  0  0
    5.4360   -2.3480   21.3370 S   0  0  0  0  0  0  0  0  0  0  0  0
    4.6030   -3.3580   21.9580 O   0  0  0  0  0  0  0  0  0  0  0  0
    4.8900   -1.0720   20.9310 O   0  0  0  0  0  0  0  0  0  0  0  0
    6.6970   -2.0040   22.4110 N   0  0  0  0  0  0  0  0  0  0  0  0
    7.0640   -2.9660   23.4490 C   0  0  0  0  0  0  0  0  0  0  0  0
    8.5900   -3.0280   23.6190 C   0  0  0  0  0  0  0  0  0  0  0  0
    9.2930   -1.7280   23.3220 N   0  0  0  0  0  0  0  0  0  0  0  0
   10.3190   -1.9120   21.9970 S   0  0  0  0  0  0  0  0  0  0  0  0
   12.0180   -2.0900   22.5060 C   0  0  0  0  0  0  0  0  0  0  0  0
   10.2040   -0.6590   21.3080 O   0  0  0  0  0  0  0  0  0  0  0  0
    9.8790   -3.1320   21.3800 O   0  0  0  0  0  0  0  0  0  0  0  0
    8.4710   -0.5950   23.2220 C   0  0  1  0  0  0  0  0  0  0  0  0
    9.1480    0.5950   23.0010 C   0  0  0  0  0  0  0  0  0  0  0  0
    8.3100    1.7210   22.7120 C   0  0  0  0  0  0  0  0  0  0  0  0
    8.9560    3.0850   22.4510 C   0  0  0  0  0  0  0  0  0  0  0  0
   10.4650    3.1940   22.5080 C   0  0  0  0  0  0  0  0  0  0  0  0
   11.2440    1.9480   22.8220 C   0  0  0  0  0  0  0  0  0  0  0  0
   10.5670    0.7220   23.0490 C   0  0  0  0  0  0  0  0  0  0  0  0
    7.4780   -0.7670   22.2500 C   0  0  0  0  0  0  0  0  0  0  0  0
  1  2  1  0
  3  2  1  0
  3  4  2  0
  3  5  2  0
  3  6  1  0
  6  7  1  0
  7  8  1  0
  8  9  1  0
  9 10  1  0
 10 11  1  0
 10 12  2  0
 10 13  2  0
  9 14  1  0
 14 15  1  6
 15 16  2  0
 16 17  1  0
 17 18  2  0
 18 19  1  0
 15 20  1  0
 19 20  2  0
  6 21  1  0
 14 21  1  0
M  END
