DUN-NEW-f8ce3686-10
     RDKit          3D

 22 23  0  0  0  0  0  0  0  0999 V2000
   13.1660    6.1740   22.7330 C   0  0  0  0  0  0  0  0  0  0  0  0
   12.2410    5.2640   22.0190 C   0  0  0  0  0  0  0  0  0  0  0  0
   12.6580    4.3880   21.2760 O   0  0  0  0  0  0  0  0  0  0  0  0
   10.9380    5.5080   22.2660 N   0  0  0  0  0  0  0  0  0  0  0  0
   10.2270    4.4560   22.9880 C   0  0  0  0  0  0  0  0  0  0  0  0
   11.1630    3.5050   23.7460 C   0  0  0  0  0  0  0  0  0  0  0  0
   10.7750    2.1860   23.6220 C   0  0  0  0  0  0  0  0  0  0  0  0
    9.4160    1.9270   23.8950 C   0  0  0  0  0  0  0  0  0  0  0  0
    9.1960    0.6050   23.7060 N   0  0  0  0  0  0  0  0  0  0  0  0
   10.3690   -0.0190   23.3150 C   0  0  0  0  0  0  0  0  0  0  0  0
   10.5900   -1.3760   22.9920 C   0  0  0  0  0  0  0  0  0  0  0  0
    9.3530   -2.2880   23.0940 C   0  0  0  0  0  0  0  0  0  0  0  0
    9.3900   -3.0140   24.4350 C   0  0  0  0  0  0  0  0  0  0  0  0
    8.1150   -3.7020   24.7460 N   0  0  0  0  0  0  0  0  0  0  0  0
    8.1350   -4.5510   26.2290 S   0  0  0  0  0  0  0  0  0  0  0  0
    6.4840   -5.2100   26.3310 C   0  0  0  0  0  0  0  0  0  0  0  0
    8.2640   -3.5600   27.2720 O   0  0  0  0  0  0  0  0  0  0  0  0
    9.0780   -5.6330   26.0910 O   0  0  0  0  0  0  0  0  0  0  0  0
   11.8750   -1.7790   22.6110 C   0  0  0  0  0  0  0  0  0  0  0  0
   12.9210   -0.8610   22.5660 C   0  0  0  0  0  0  0  0  0  0  0  0
   12.6770    0.4820   22.8940 C   0  0  0  0  0  0  0  0  0  0  0  0
   11.4000    0.9330   23.2620 C   0  0  0  0  0  0  0  0  0  0  0  0
  1  2  1  0
  2  3  2  0
  2  4  1  0
  4  5  1  0
  5  6  1  0
  6  7  1  0
  7  8  2  0
  8  9  1  0
  9 10  1  0
 10 11  1  0
 11 12  1  0
 12 13  1  0
 13 14  1  0
 15 14  1  0
 15 16  1  0
 15 17  2  0
 15 18  2  0
 11 19  2  0
 19 20  1  0
 20 21  2  0
  7 22  1  0
 10 22  2  0
 21 22  1  0
M  END
