DUN-NEW-f8ce3686-16
     RDKit          3D

 26 29  0  0  0  0  0  0  0  0999 V2000
   11.7460   -3.9450   24.1630 O   0  0  0  0  0  0  0  0  0  0  0  0
   10.8770   -3.3560   23.4970 C   0  0  0  0  0  0  0  0  0  0  0  0
    9.5390   -3.6000   23.8940 N   0  0  0  0  0  0  0  0  0  0  0  0
    8.3550   -3.9900   23.2550 C   0  0  0  0  0  0  0  0  0  0  0  0
    7.3930   -4.9420   23.9880 C   0  0  0  0  0  0  0  0  0  0  0  0
    6.0910   -5.4390   23.3660 C   0  0  0  0  0  0  0  0  0  0  0  0
    5.7840   -4.9950   22.0910 C   0  0  0  0  0  0  0  0  0  0  0  0
    6.7220   -4.0540   21.4000 N   0  0  0  0  0  0  0  0  0  0  0  0
    7.9220   -3.6130   21.9590 C   0  0  0  0  0  0  0  0  0  0  0  0
   11.3420   -2.4880   22.5100 N   0  0  0  0  0  0  0  0  0  0  0  0
   11.9870   -1.3230   23.1810 C   0  0  0  0  0  0  0  0  0  0  0  0
   12.5610   -0.2840   23.7790 C   0  0  0  0  0  0  0  0  0  0  0  0
   11.9710    0.6200   24.7620 C   0  0  0  0  0  0  0  0  0  0  0  0
   10.5880    0.4300   25.2070 C   0  0  0  0  0  0  0  0  0  0  0  0
    9.9740   -0.6400   24.5550 C   0  0  0  0  0  0  0  0  0  0  0  0
    8.6850   -1.0610   24.7430 C   0  0  0  0  0  0  0  0  0  0  0  0
    8.1960   -2.1430   23.9970 C   0  0  0  0  0  0  0  0  0  0  0  0
    9.5230   -2.1960   23.4030 N   0  0  0  0  0  0  0  0  0  0  0  0
   10.6690   -1.3160   23.7070 C   0  0  0  0  0  0  0  0  0  0  0  0
   12.4860   -2.6820   21.9060 C   0  0  2  0  0  0  0  0  0  0  0  0
   13.2810   -1.8830   22.7200 C   0  0  0  0  0  0  0  0  0  0  0  0
   13.3110   -0.5980   22.2390 C   0  0  0  0  0  0  0  0  0  0  0  0
   13.9400   -0.5720   21.0480 C   0  0  2  0  0  0  0  0  0  0  0  0
   13.9640    0.5230   20.5510 O   0  0  0  0  0  0  0  0  0  0  0  0
   13.6230   -1.5350   20.1570 C   0  0  0  0  0  0  0  0  0  0  0  0
   12.5220   -2.3590   20.5600 C   0  0  0  0  0  0  0  0  0  0  0  0
  1  2  2  0
  2  3  1  0
  3  4  1  0
  4  5  2  0
  5  6  1  0
  6  7  2  0
  7  8  1  0
  4  9  1  0
  8  9  2  0
  2 10  1  0
 10 11  1  0
 11 12  2  0
 12 13  1  0
 13 14  2  0
 14 15  1  0
 15 16  1  0
 16 17  2  0
 17 18  1  0
 11 19  1  0
 15 19  2  0
 18 19  1  0
 20 10  1  1
 20 21  1  0
 21 22  1  0
 22 23  1  0
 23 24  1  6
 23 25  1  0
 20 26  1  0
 25 26  1  0
M  END
