DUN-NEW-f8ce3686-12-acrylamide
     RDKit          3D

 19 20  0  0  0  0  0  0  0  0999 V2000
    7.4470   -5.5940   22.3180 C   0  0  0  0  0  0  0  0  0  0  0  0
    6.3200   -5.5990   23.4130 C   0  0  0  0  0  0  0  0  0  0  0  0
    5.7480   -4.3430   22.8780 C   0  0  0  0  0  0  0  0  0  0  0  0
    4.5260   -4.1130   22.3810 O   0  0  0  0  0  0  0  0  0  0  0  0
    6.5460   -3.1510   22.8280 C   0  0  0  0  0  0  0  0  0  0  0  0
    6.6780   -3.5670   24.0870 C   0  0  0  0  0  0  0  0  0  0  0  0
    5.9700   -4.1270   22.7130 C   0  0  0  0  0  0  0  0  0  0  0  0
    6.2620   -3.0930   21.3180 C   0  0  0  0  0  0  0  0  0  0  0  0
    5.6120   -3.6370   20.2880 N   0  0  0  0  0  0  0  0  0  0  0  0
    5.6770   -4.1760   21.7030 C   0  0  0  0  0  0  0  0  0  0  0  0
    6.5800   -3.1240   22.5660 C   0  0  0  0  0  0  0  0  0  0  0  0
    6.9510   -2.8990   24.0860 C   0  0  0  0  0  0  0  0  0  0  0  0
    6.6210   -1.6630   24.5160 C   0  0  0  0  0  0  0  0  0  0  0  0
    5.2060   -1.3790   24.0470 N   0  0  0  0  0  0  0  0  0  0  0  0
    4.9010   -0.4240   22.9940 C   0  0  0  0  0  0  0  0  0  0  0  0
    3.5140   -0.3080   22.5740 C   0  0  0  0  0  0  0  0  0  0  0  0
    6.0620    0.0270   22.0180 O   0  0  0  0  0  0  0  0  0  0  0  0
    6.9820   -2.0770   21.6350 C   0  0  0  0  0  0  0  0  0  0  0  0
    7.4030   -1.9110   22.9440 C   0  0  0  0  0  0  0  0  0  0  0  0
  1  2  1  0
  2  3  1  0
  3  4  2  0
  3  5  1  0
  5  6  2  0
  6  7  1  0
  7  8  2  0
  8  9  1  0
  9 10  1  0
 10 11  2  0
 11 12  1  0
 12 13  1  0
 13 14  1  0
 14 15  1  0
 15 16  1  0
 15 17  2  0
  8 18  1  0
 11 18  1  0
  5 19  1  0
 18 19  2  0
M  END
