DUN-NEW-f8ce3686-22-chloroacetamide
     RDKit          3D

 19 20  0  0  0  0  0  0  0  0999 V2000
    8.2360   -4.4390   20.6880 C   0  0  0  0  0  0  0  0  0  0  0  0
    6.9200   -4.1930   21.1840 C   0  0  0  0  0  0  0  0  0  0  0  0
    5.9350   -4.4780   20.2330 O   0  0  0  0  0  0  0  0  0  0  0  0
    7.1000   -3.6500   22.6110 N   0  0  0  0  0  0  0  0  0  0  0  0
    7.3940   -4.3720   24.0370 C   0  0  0  0  0  0  0  0  0  0  0  0
    7.1180   -3.3010   25.1400 C   0  0  0  0  0  0  0  0  0  0  0  0
    8.2410   -2.3380   25.0140 N   0  0  0  0  0  0  0  0  0  0  0  0
    7.9420   -0.8380   25.6580 S   0  0  0  0  0  0  0  0  0  0  0  0
    9.4700   -0.4330   26.4700 C   0  0  0  0  0  0  0  0  0  0  0  0
    6.9480   -1.0640   26.6830 O   0  0  0  0  0  0  0  0  0  0  0  0
    7.7290    0.1340   24.6040 O   0  0  0  0  0  0  0  0  0  0  0  0
    8.9260   -2.4640   23.8140 C   0  0  2  0  0  0  0  0  0  0  0  0
   10.2460   -1.6480   23.4660 C   0  0  0  0  0  0  0  0  0  0  0  0
   10.4540   -0.3310   24.1710 C   0  0  0  0  0  0  0  0  0  0  0  0
   11.6940    0.4960   23.9330 C   0  0  0  0  0  0  0  0  0  0  0  0
   12.6740    0.0370   23.0400 C   0  0  0  0  0  0  0  0  0  0  0  0
   12.5310   -1.1840   22.3430 C   0  0  0  0  0  0  0  0  0  0  0  0
   11.4060   -2.0370   22.4910 C   0  0  0  0  0  0  0  0  0  0  0  0
    7.8940   -2.4640   22.6650 C   0  0  0  0  0  0  0  0  0  0  0  0
  1  2  1  0
  2  3  2  0
  2  4  1  0
  4  5  1  0
  5  6  1  0
  6  7  1  0
  7  8  1  0
  8  9  1  0
  8 10  2  0
  8 11  2  0
  7 12  1  0
 12 13  1  6
 13 14  2  0
 14 15  1  0
 15 16  2  0
 16 17  1  0
 13 18  1  0
 17 18  2  0
  4 19  1  0
 12 19  1  0
M  END
