DUN-NEW-f8ce3686-2-acrylamide
     RDKit          3D

 25 27  0  0  0  0  0  0  0  0999 V2000
    7.5090   -4.4110   20.9940 C   0  0  0  0  0  0  0  0  0  0  0  0
    6.4750   -3.4430   21.5510 C   0  0  0  0  0  0  0  0  0  0  0  0
    5.7500   -4.1390   22.6950 C   0  0  0  0  0  0  0  0  0  0  0  0
    4.4870   -4.3500   22.4350 O   0  0  0  0  0  0  0  0  0  0  0  0
    6.6150   -4.5530   23.8840 N   0  0  0  0  0  0  0  0  0  0  0  0
    6.9690   -3.9220   25.1910 C   0  0  0  0  0  0  0  0  0  0  0  0
    7.4010   -2.6370   25.0050 C   0  0  0  0  0  0  0  0  0  0  0  0
    8.7170   -2.7180   24.2830 N   0  0  0  0  0  0  0  0  0  0  0  0
    8.9560   -1.8500   23.1840 C   0  0  0  0  0  0  0  0  0  0  0  0
   10.1860   -1.1970   23.2370 C   0  0  0  0  0  0  0  0  0  0  0  0
   11.2000   -1.8400   22.4640 C   0  0  0  0  0  0  0  0  0  0  0  0
   12.6320   -1.2790   22.3840 C   0  0  0  0  0  0  0  0  0  0  0  0
   12.9180   -0.0130   23.1540 C   0  0  0  0  0  0  0  0  0  0  0  0
   11.7640    0.5560   23.9180 C   0  0  0  0  0  0  0  0  0  0  0  0
   10.4730   -0.0060   23.9510 C   0  0  0  0  0  0  0  0  0  0  0  0
    9.5070    0.6330   24.6760 N   0  0  0  0  0  0  0  0  0  0  0  0
    9.1890    0.2170   25.9340 C   0  0  0  0  0  0  0  0  0  0  0  0
    8.5520    1.2930   26.5200 C   0  0  0  0  0  0  0  0  0  0  0  0
    8.5840    2.3410   25.6320 C   0  0  0  0  0  0  0  0  0  0  0  0
    9.3470    2.0520   24.4990 C   0  0  2  0  0  0  0  0  0  0  0  0
    8.8200    2.5470   23.2990 C   0  0  0  0  0  0  0  0  0  0  0  0
    8.1900    3.8520   23.4450 N   0  0  0  0  0  0  0  0  0  0  0  0
    8.8540    1.9850   22.2020 O   0  0  0  0  0  0  0  0  0  0  0  0
    9.0550   -4.1400   24.0040 C   0  0  0  0  0  0  0  0  0  0  0  0
    7.9650   -4.8730   23.4160 C   0  0  0  0  0  0  0  0  0  0  0  0
  1  2  1  0
  2  3  1  0
  3  4  2  0
  3  5  1  0
  5  6  1  0
  6  7  1  0
  7  8  1  0
  8  9  1  0
  9 10  1  0
 10 11  2  0
 11 12  1  0
 12 13  2  0
 13 14  1  0
 10 15  1  0
 14 15  2  0
 15 16  1  0
 16 17  1  0
 17 18  1  0
 18 19  1  0
 16 20  1  0
 19 20  1  0
 20 21  1  6
 21 22  1  0
 21 23  2  0
  8 24  1  0
  5 25  1  0
 24 25  1  0
M  END
