DUN-NEW-f8ce3686-23-acrylamide
     RDKit          3D

 26 28  0  0  0  0  0  0  0  0999 V2000
    7.2120   -3.1710   19.3270 C   0  0  0  0  0  0  0  0  0  0  0  0
    7.1110   -3.1160   20.8250 C   0  0  0  0  0  0  0  0  0  0  0  0
    5.7940   -3.7000   21.2310 C   0  0  0  0  0  0  0  0  0  0  0  0
    4.7920   -3.0350   21.2290 O   0  0  0  0  0  0  0  0  0  0  0  0
    5.7360   -5.0030   21.6200 N   0  0  0  0  0  0  0  0  0  0  0  0
    5.4720   -5.4050   22.9930 C   0  0  0  0  0  0  0  0  0  0  0  0
    6.4250   -5.0220   24.0450 N   0  0  0  0  0  0  0  0  0  0  0  0
    5.9640   -5.5120   25.3020 C   0  0  0  0  0  0  0  0  0  0  0  0
    6.7440   -5.2810   26.5830 C   0  0  0  0  0  0  0  0  0  0  0  0
    8.2700   -4.3940   26.5310 S   0  0  0  0  0  0  0  0  0  0  0  0
    9.3200   -5.2650   26.0630 O   0  0  0  0  0  0  0  0  0  0  0  0
    8.3960   -3.6980   27.7800 O   0  0  0  0  0  0  0  0  0  0  0  0
    8.0520   -3.1840   25.3640 N   0  0  0  0  0  0  0  0  0  0  0  0
    8.9970   -3.1170   24.2410 C   0  0  0  0  0  0  0  0  0  0  0  0
    9.0690   -1.7440   23.6110 C   0  0  0  0  0  0  0  0  0  0  0  0
   10.4730   -1.2220   23.3870 C   0  0  0  0  0  0  0  0  0  0  0  0
   11.3820   -1.8630   22.4990 C   0  0  0  0  0  0  0  0  0  0  0  0
   12.6610   -1.3210   22.3300 C   0  0  0  0  0  0  0  0  0  0  0  0
   13.0170   -0.1780   23.0190 C   0  0  0  0  0  0  0  0  0  0  0  0
   12.1480    0.4560   23.8880 C   0  0  0  0  0  0  0  0  0  0  0  0
   10.8750   -0.0630   24.0780 C   0  0  0  0  0  0  0  0  0  0  0  0
    6.1540   -5.8570   27.8980 C   0  0  0  0  0  0  0  0  0  0  0  0
    4.9570   -6.5410   27.7890 C   0  0  0  0  0  0  0  0  0  0  0  0
    4.2240   -6.7400   26.4590 C   0  0  0  0  0  0  0  0  0  0  0  0
    4.6470   -6.2700   25.1980 C   0  0  0  0  0  0  0  0  0  0  0  0
    4.1030   -6.3060   23.5440 S   0  0  0  0  0  0  0  0  0  0  0  0
  1  2  1  0
  2  3  1  0
  3  4  2  0
  3  5  1  0
  5  6  1  0
  6  7  2  0
  7  8  1  0
  8  9  2  0
  9 10  1  0
 10 11  2  0
 10 12  2  0
 10 13  1  0
 13 14  1  0
 14 15  1  0
 15 16  1  0
 16 17  2  0
 17 18  1  0
 18 19  2  0
 19 20  1  0
 16 21  1  0
 20 21  2  0
  9 22  1  0
 22 23  2  0
 23 24  1  0
  8 25  1  0
 24 25  2  0
  6 26  1  0
 25 26  1  0
M  END
