DUN-NEW-f8ce3686-3-acrylamide
     RDKit          3D

 24 26  0  0  0  0  0  0  0  0999 V2000
    6.8530   -3.4090   19.5050 C   0  0  0  0  0  0  0  0  0  0  0  0
    6.1150   -4.1970   20.5870 C   0  0  0  0  0  0  0  0  0  0  0  0
    5.6080   -3.3420   21.7410 C   0  0  0  0  0  0  0  0  0  0  0  0
    4.4870   -3.5350   22.1870 O   0  0  0  0  0  0  0  0  0  0  0  0
    6.4240   -2.3390   22.2710 N   0  0  0  0  0  0  0  0  0  0  0  0
    6.7290   -2.2340   23.7020 C   0  0  0  0  0  0  0  0  0  0  0  0
    7.7010   -1.2720   23.9840 C   0  0  0  0  0  0  0  0  0  0  0  0
    8.7810   -1.2640   22.9200 N   0  0  0  0  0  0  0  0  0  0  0  0
    9.9320   -0.4910   23.0430 C   0  0  0  0  0  0  0  0  0  0  0  0
   11.1650    0.2480   23.1920 C   0  0  0  0  0  0  0  0  0  0  0  0
   12.5220   -0.1040   23.5730 C   0  0  0  0  0  0  0  0  0  0  0  0
   12.8190   -1.5260   23.9190 C   0  0  0  0  0  0  0  0  0  0  0  0
   11.6550   -2.4050   23.8280 C   0  0  0  0  0  0  0  0  0  0  0  0
   10.3250   -1.8640   23.4130 C   0  0  0  0  0  0  0  0  0  0  0  0
    9.4010   -2.9030   23.4210 N   0  0  0  0  0  0  0  0  0  0  0  0
    8.9280   -3.3580   22.2360 C   0  0  0  0  0  0  0  0  0  0  0  0
    8.2590   -4.5210   22.5900 C   0  0  0  0  0  0  0  0  0  0  0  0
    8.7010   -4.9030   23.8190 C   0  0  0  0  0  0  0  0  0  0  0  0
    9.6720   -3.9960   24.2320 C   0  0  2  0  0  0  0  0  0  0  0  0
    9.6180   -3.6290   25.5550 C   0  0  0  0  0  0  0  0  0  0  0  0
    8.5680   -4.1520   26.2900 N   0  0  0  0  0  0  0  0  0  0  0  0
   10.4510   -2.8960   26.0350 O   0  0  0  0  0  0  0  0  0  0  0  0
    8.1680   -0.9270   21.6170 C   0  0  0  0  0  0  0  0  0  0  0  0
    6.7960   -1.1290   21.5500 C   0  0  0  0  0  0  0  0  0  0  0  0
  1  2  1  0
  2  3  1  0
  3  4  2  0
  3  5  1  0
  5  6  1  0
  6  7  1  0
  7  8  1  0
  8  9  1  0
  9 10  2  0
 10 11  1  0
 11 12  2  0
 12 13  1  0
  9 14  1  0
 13 14  2  0
 14 15  1  0
 15 16  1  0
 16 17  1  0
 17 18  1  0
 15 19  1  0
 18 19  1  0
 19 20  1  1
 20 21  1  0
 20 22  2  0
  8 23  1  0
  5 24  1  0
 23 24  1  0
M  END
