DUN-NEW-f8ce3686-21-acrylamide
     RDKit          3D

 21 22  0  0  0  0  0  0  0  0999 V2000
    7.2540   -4.6280   20.8540 C   0  0  0  0  0  0  0  0  0  0  0  0
    6.8880   -5.2100   22.2070 C   0  0  0  0  0  0  0  0  0  0  0  0
    5.7150   -4.4950   22.8510 C   0  0  0  0  0  0  0  0  0  0  0  0
    4.6210   -4.3130   22.2920 O   0  0  0  0  0  0  0  0  0  0  0  0
    5.9400   -4.0470   24.1310 N   0  0  0  0  0  0  0  0  0  0  0  0
    6.5300   -2.7680   24.5460 C   0  0  0  0  0  0  0  0  0  0  0  0
    7.9510   -2.8780   23.9700 C   0  0  0  0  0  0  0  0  0  0  0  0
    7.0350   -2.2900   22.8130 C   0  0  0  0  0  0  0  0  0  0  0  0
    8.1970   -2.2110   21.8380 C   0  0  0  0  0  0  0  0  0  0  0  0
    7.5190   -1.6260   20.5290 C   0  0  0  0  0  0  0  0  0  0  0  0
    8.6620   -2.0960   21.2020 C   0  0  0  0  0  0  0  0  0  0  0  0
    7.4650   -1.9960   21.6650 C   0  0  0  0  0  0  0  0  0  0  0  0
    7.1350   -1.4860   20.3700 C   0  0  0  0  0  0  0  0  0  0  0  0
    5.8240   -0.9990   20.1240 C   0  0  0  0  0  0  0  0  0  0  0  0
    5.4400    0.2370   20.4200 N   0  0  0  0  0  0  0  0  0  0  0  0
    4.8880    0.7750   19.2770 C   0  0  0  0  0  0  0  0  0  0  0  0
    5.4470    0.7430   17.9980 C   0  0  0  0  0  0  0  0  0  0  0  0
    3.8070    1.3430   19.3840 O   0  0  0  0  0  0  0  0  0  0  0  0
    6.1920   -1.7840   21.8430 C   0  0  0  0  0  0  0  0  0  0  0  0
    7.1850   -2.3160   22.7950 N   0  0  0  0  0  0  0  0  0  0  0  0
    8.7090   -2.5830   22.6140 C   0  0  0  0  0  0  0  0  0  0  0  0
  1  2  1  0
  2  3  1  0
  3  4  2  0
  3  5  1  0
  5  6  1  0
  6  7  1  0
  7  8  2  0
  8  9  1  0
  9 10  2  0
 10 11  1  0
 11 12  1  0
 12 13  1  0
 13 14  1  0
 14 15  1  0
 15 16  1  0
 16 17  1  0
 16 18  2  0
 12 19  2  0
 19 20  1  0
  7 21  1  0
 11 21  2  0
 20 21  1  0
M  END
