DUN-NEW-f8ce3686-21-nitrile
     RDKit          3D

 19 20  0  0  0  0  0  0  0  0999 V2000
    6.5050   -4.4730   20.3960 C   0  0  0  0  0  0  0  0  0  0  0  0
    5.6500   -5.3530   20.0560 N   0  0  0  0  0  0  0  0  0  0  0  0
    6.5560   -3.9670   21.6650 N   0  0  0  0  0  0  0  0  0  0  0  0
    7.0590   -4.7300   22.8150 C   0  0  0  0  0  0  0  0  0  0  0  0
    8.2210   -3.9220   23.4600 C   0  0  0  0  0  0  0  0  0  0  0  0
    8.5100   -5.1810   24.5130 C   0  0  0  0  0  0  0  0  0  0  0  0
    9.6100   -5.0830   25.5160 C   0  0  0  0  0  0  0  0  0  0  0  0
   10.6260   -4.1440   25.9240 C   0  0  0  0  0  0  0  0  0  0  0  0
    9.6410   -4.4120   25.1360 C   0  0  0  0  0  0  0  0  0  0  0  0
    8.7370   -3.9970   24.0120 C   0  0  0  0  0  0  0  0  0  0  0  0
    9.0390   -2.5680   23.4440 C   0  0  0  0  0  0  0  0  0  0  0  0
   10.1670   -2.5790   22.3980 C   0  0  0  0  0  0  0  0  0  0  0  0
   10.7280   -1.2390   22.1450 N   0  0  0  0  0  0  0  0  0  0  0  0
   12.0630   -1.0720   22.3270 C   0  0  0  0  0  0  0  0  0  0  0  0
   12.7890   -1.9070   21.4790 C   0  0  0  0  0  0  0  0  0  0  0  0
   12.8040   -0.2690   23.1460 O   0  0  0  0  0  0  0  0  0  0  0  0
    7.8040   -4.9140   23.6640 C   0  0  0  0  0  0  0  0  0  0  0  0
    8.6690   -5.1720   24.6610 N   0  0  0  0  0  0  0  0  0  0  0  0
    9.2190   -3.7210   24.3090 C   0  0  0  0  0  0  0  0  0  0  0  0
  1  2  2  3
  1  3  1  0
  3  4  1  0
  4  5  1  0
  5  6  2  0
  6  7  1  0
  7  8  2  0
  8  9  1  0
  9 10  1  0
 10 11  1  0
 11 12  1  0
 12 13  1  0
 13 14  1  0
 14 15  1  0
 14 16  2  0
 10 17  2  0
 17 18  1  0
  5 19  1  0
  9 19  2  0
 18 19  1  0
M  END
