DUN-NEW-f8ce3686-5
     RDKit          3D

 32 34  0  0  0  0  0  0  0  0999 V2000
   13.2100    5.4040   22.4860 C   0  0  0  0  0  0  0  0  0  0  0  0
   12.0160    6.1890   22.9490 C   0  0  0  0  0  0  0  0  0  0  0  0
   12.1210    7.1440   23.7150 O   0  0  0  0  0  0  0  0  0  0  0  0
   10.8250    5.7700   22.4560 N   0  0  0  0  0  0  0  0  0  0  0  0
   10.2210    4.5700   23.0430 C   0  0  0  0  0  0  0  0  0  0  0  0
   11.2370    3.6580   23.7410 C   0  0  0  0  0  0  0  0  0  0  0  0
   10.8190    2.3370   23.7700 C   0  0  0  0  0  0  0  0  0  0  0  0
    9.4840    2.1680   24.2920 C   0  0  0  0  0  0  0  0  0  0  0  0
    9.1780    0.8480   24.2520 N   0  0  0  0  0  0  0  0  0  0  0  0
    7.9260    0.4830   24.7220 C   0  0  0  0  0  0  0  0  0  0  0  0
    7.7100    0.1250   26.0930 C   0  0  0  0  0  0  0  0  0  0  0  0
    8.6140   -0.2560   26.8310 O   0  0  0  0  0  0  0  0  0  0  0  0
    6.2370    0.2590   26.5530 C   0  0  0  0  0  0  0  0  0  0  0  0
    6.0320   -0.1130   28.0340 C   0  0  0  0  0  0  0  0  0  0  0  0
    6.4100    0.9010   29.0550 C   0  0  0  0  0  0  0  0  0  0  0  0
    6.2400    0.6130   30.4000 C   0  0  0  0  0  0  0  0  0  0  0  0
    5.7190   -0.6120   30.8260 C   0  0  0  0  0  0  0  0  0  0  0  0
    5.3640   -1.5670   29.8910 N   0  0  0  0  0  0  0  0  0  0  0  0
    5.5210   -1.3110   28.5500 C   0  0  0  0  0  0  0  0  0  0  0  0
   10.3440    0.1770   23.6850 C   0  0  0  0  0  0  0  0  0  0  0  0
   10.3030   -1.1950   23.4940 C   0  0  0  0  0  0  0  0  0  0  0  0
    9.1510   -1.9080   23.8370 C   0  0  0  0  0  0  0  0  0  0  0  0
    9.3660   -3.2670   23.9990 C   0  0  0  0  0  0  0  0  0  0  0  0
    8.1600   -3.7860   24.6750 N   0  0  0  0  0  0  0  0  0  0  0  0
    8.2380   -4.5750   26.1500 S   0  0  0  0  0  0  0  0  0  0  0  0
    6.6060   -5.2650   26.3430 C   0  0  0  0  0  0  0  0  0  0  0  0
    8.3740   -3.5510   27.1580 O   0  0  0  0  0  0  0  0  0  0  0  0
    9.1980   -5.6450   26.0220 O   0  0  0  0  0  0  0  0  0  0  0  0
   11.4480   -1.7930   22.9440 C   0  0  0  0  0  0  0  0  0  0  0  0
   12.6740   -0.9280   22.6070 C   0  0  0  0  0  0  0  0  0  0  0  0
   12.6640    0.4680   22.8270 C   0  0  0  0  0  0  0  0  0  0  0  0
   11.3860    1.0380   23.3940 C   0  0  0  0  0  0  0  0  0  0  0  0
  1  2  1  0
  2  3  2  0
  2  4  1  0
  4  5  1  0
  5  6  1  0
  6  7  1  0
  7  8  2  0
  8  9  1  0
  9 10  1  0
 10 11  1  0
 11 12  2  0
 11 13  1  0
 13 14  1  0
 14 15  2  0
 15 16  1  0
 16 17  2  0
 17 18  1  0
 14 19  1  0
 18 19  2  0
  9 20  1  0
 20 21  1  0
 21 22  1  0
 22 23  1  0
 23 24  1  0
 25 24  1  0
 25 26  1  0
 25 27  2  0
 25 28  2  0
 21 29  2  0
 29 30  1  0
 30 31  2  0
  7 32  1  0
 20 32  2  0
 31 32  1  0
M  END
