DUN-NEW-f8ce3686-1
     RDKit          3D

 20 22  0  0  0  0  0  0  0  0999 V2000
    6.4870   -1.7240   21.6380 N   0  0  0  0  0  0  0  0  0  0  0  0
    7.6850   -1.4490   22.0080 C   0  0  0  0  0  0  0  0  0  0  0  0
    8.1800   -0.3630   21.7170 O   0  0  0  0  0  0  0  0  0  0  0  0
    8.4220   -2.5070   22.7890 C   0  0  2  0  0  0  0  0  0  0  0  0
    7.5410   -3.3880   23.7370 C   0  0  0  0  0  0  0  0  0  0  0  0
    8.3930   -3.9830   24.6200 N   0  0  0  0  0  0  0  0  0  0  0  0
    7.9750   -4.2920   25.8840 C   0  0  0  0  0  0  0  0  0  0  0  0
    6.7180   -4.8000   26.1900 C   0  0  0  0  0  0  0  0  0  0  0  0
    6.6210   -5.1660   27.5710 C   0  0  0  0  0  0  0  0  0  0  0  0
    7.5170   -4.7440   28.3000 O   0  0  0  0  0  0  0  0  0  0  0  0
    8.7900   -5.2720   27.9230 C   0  0  0  0  0  0  0  0  0  0  0  0
    8.9550   -5.2980   26.5090 C   0  0  0  0  0  0  0  0  0  0  0  0
    9.5470   -3.0490   24.6910 C   0  0  0  0  0  0  0  0  0  0  0  0
    9.3000   -1.8320   23.8430 C   0  0  1  0  0  0  0  0  0  0  0  0
   10.6300   -1.2350   23.4690 C   0  0  0  0  0  0  0  0  0  0  0  0
   10.9830   -0.0160   24.0590 C   0  0  0  0  0  0  0  0  0  0  0  0
   12.2030    0.5770   23.7550 C   0  0  0  0  0  0  0  0  0  0  0  0
   13.0710   -0.0430   22.8720 C   0  0  0  0  0  0  0  0  0  0  0  0
   12.7580   -1.2540   22.2670 C   0  0  0  0  0  0  0  0  0  0  0  0
   11.5300   -1.8310   22.5800 C   0  0  0  0  0  0  0  0  0  0  0  0
  1  2  1  0
  2  3  2  0
  4  2  1  1
  4  5  1  0
  5  6  1  0
  6  7  1  0
  7  8  1  0
  8  9  1  0
  9 10  1  0
 10 11  1  0
  7 12  1  0
 11 12  1  0
  6 13  1  0
  4 14  1  0
 13 14  1  0
 14 15  1  6
 15 16  2  0
 16 17  1  0
 17 18  2  0
 18 19  1  0
 15 20  1  0
 19 20  2  0
M  END
