EDJ-MED-78f964c8-1
     RDKit          3D

 25 28  0  0  0  0  0  0  0  0999 V2000
    8.5840    1.6070   20.9540 O   0  0  0  0  0  0  0  0  0  0  0  0
    9.1530    1.4200   22.0270 C   0  0  0  0  0  0  0  0  0  0  0  0
    9.3780    0.0720   22.4820 C   0  0  0  0  0  0  0  0  0  0  0  0
    8.5000   -1.1330   22.6930 C   0  0  0  0  0  0  0  0  0  0  0  0
    9.6930   -2.1350   23.2170 C   0  0  0  0  0  0  0  0  0  0  0  0
    9.4210   -3.3350   23.3400 O   0  0  0  0  0  0  0  0  0  0  0  0
   11.0710   -1.6410   23.5350 N   0  0  0  0  0  0  0  0  0  0  0  0
   11.7230   -0.7560   22.6130 C   0  0  0  0  0  0  0  0  0  0  0  0
   13.1380   -1.4010   22.8070 C   0  0  0  0  0  0  0  0  0  0  0  0
   12.9470   -2.4760   23.8880 C   0  0  0  0  0  0  0  0  0  0  0  0
   11.4950   -2.4020   24.2600 C   0  0  0  0  0  0  0  0  0  0  0  0
   10.1930   -1.7170   23.9950 C   0  0  0  0  0  0  0  0  0  0  0  0
   10.4460   -0.6810   22.9140 C   0  0  0  0  0  0  0  0  0  0  0  0
    9.5730    2.4310   22.8450 N   0  0  0  0  0  0  0  0  0  0  0  0
    8.6080    2.9540   23.8150 C   0  0  0  0  0  0  0  0  0  0  0  0
    9.2800    3.9700   24.4160 C   0  0  0  0  0  0  0  0  0  0  0  0
   10.1630    4.6680   24.5230 N   0  0  0  0  0  0  0  0  0  0  0  0
   10.5560    5.5240   25.5740 C   0  0  0  0  0  0  0  0  0  0  0  0
   11.5510    6.4940   25.3600 C   0  0  0  0  0  0  0  0  0  0  0  0
   11.9340    7.3290   26.3960 C   0  0  0  0  0  0  0  0  0  0  0  0
   11.3410    7.2100   27.6410 C   0  0  0  0  0  0  0  0  0  0  0  0
   10.3550    6.2720   27.9080 C   0  0  0  0  0  0  0  0  0  0  0  0
    9.9490    5.4190   26.8780 C   0  0  0  0  0  0  0  0  0  0  0  0
   11.0540    4.4650   23.3730 C   0  0  0  0  0  0  0  0  0  0  0  0
   10.8570    3.2180   22.6720 C   0  0  0  0  0  0  0  0  0  0  0  0
  1  2  2  0
  2  3  1  0
  3  4  2  0
  4  5  1  0
  5  6  2  0
  5  7  1  0
  7  8  1  0
  8  9  1  0
  9 10  2  0
 10 11  1  0
 11 12  2  0
  3 13  1  0
  8 13  2  0
 12 13  1  0
  2 14  1  0
 14 15  1  0
 15 16  1  0
 16 17  1  0
 17 18  1  0
 18 19  2  0
 19 20  1  0
 20 21  2  0
 21 22  1  0
 18 23  1  0
 22 23  2  0
 17 24  1  0
 14 25  1  0
 24 25  1  0
M  END
