ELE-IMP-dfb36048-5
     RDKit          3D

 23 24  0  0  0  0  0  0  0  0999 V2000
    8.8410    6.8830   22.3770 C   0  0  0  0  0  0  0  0  0  0  0  0
    9.7800    6.0340   23.6200 S   0  0  0  0  0  0  0  0  0  0  0  0
   10.2880    6.9770   24.5820 O   0  0  0  0  0  0  0  0  0  0  0  0
    9.0470    4.8740   24.0670 O   0  0  0  0  0  0  0  0  0  0  0  0
   11.0980    5.5670   22.7280 N   0  0  0  0  0  0  0  0  0  0  0  0
   12.2590    4.9690   23.3970 C   0  0  0  0  0  0  0  0  0  0  0  0
   12.6920    3.6340   22.7770 C   0  0  0  0  0  0  0  0  0  0  0  0
   11.8140    2.3960   23.0750 C   0  0  0  0  0  0  0  0  0  0  0  0
   10.4570    2.5790   23.6010 C   0  0  0  0  0  0  0  0  0  0  0  0
    9.8850    1.3440   23.7260 N   0  0  0  0  0  0  0  0  0  0  0  0
   10.7770    0.3510   23.3200 C   0  0  0  0  0  0  0  0  0  0  0  0
   10.6120   -1.0470   23.2500 C   0  0  0  0  0  0  0  0  0  0  0  0
    9.4010   -1.7030   23.5830 C   0  0  0  0  0  0  0  0  0  0  0  0
    9.3990   -3.0900   24.1900 C   0  0  0  0  0  0  0  0  0  0  0  0
    8.1720   -3.3870   24.9440 N   0  0  0  0  0  0  0  0  0  0  0  0
    8.2430   -4.6020   26.1390 S   0  0  0  0  0  0  0  0  0  0  0  0
    6.5390   -5.0820   26.3310 C   0  0  0  0  0  0  0  0  0  0  0  0
    8.6490   -3.9980   27.3690 O   0  0  0  0  0  0  0  0  0  0  0  0
    9.0060   -5.7050   25.6130 O   0  0  0  0  0  0  0  0  0  0  0  0
   11.7090   -1.8080   22.8090 C   0  0  0  0  0  0  0  0  0  0  0  0
   12.9030   -1.2120   22.4560 C   0  0  0  0  0  0  0  0  0  0  0  0
   13.0380    0.1610   22.5240 C   0  0  0  0  0  0  0  0  0  0  0  0
   11.9920    0.9760   22.9390 C   0  0  0  0  0  0  0  0  0  0  0  0
  1  2  1  0
  2  3  2  0
  2  4  2  0
  2  5  1  0
  5  6  1  0
  6  7  1  0
  7  8  1  0
  8  9  2  0
  9 10  1  0
 10 11  1  0
 11 12  1  0
 12 13  1  0
 13 14  1  0
 14 15  1  0
 16 15  1  0
 16 17  1  0
 16 18  2  0
 16 19  2  0
 12 20  2  0
 20 21  1  0
 21 22  2  0
  8 23  1  0
 11 23  2  0
 22 23  1  0
M  END
