EMI-TUK-b780fc43-2
     RDKit          3D

 22 23  0  0  0  0  0  0  0  0999 V2000
    6.9680   -1.0510   27.3060 C   0  0  0  0  0  0  0  0  0  0  0  0
    7.0060   -1.5100   25.8720 C   0  0  0  0  0  0  0  0  0  0  0  0
    6.4090   -2.4960   25.4430 O   0  0  0  0  0  0  0  0  0  0  0  0
    7.8290   -0.7490   24.8230 C   0  0  0  0  0  0  0  0  0  0  0  0
    8.2000   -1.6270   23.6190 C   0  0  0  0  0  0  0  0  0  0  0  0
    8.8420   -1.1070   22.5520 N   0  0  0  0  0  0  0  0  0  0  0  0
    8.0920   -0.3610   21.6860 C   0  0  0  0  0  0  0  0  0  0  0  0
    8.7080    0.8100   21.1480 O   0  0  0  0  0  0  0  0  0  0  0  0
    6.7810   -0.6540   21.3400 N   0  0  0  0  0  0  0  0  0  0  0  0
    6.4390   -1.9760   21.3500 C   0  0  0  0  0  0  0  0  0  0  0  0
    6.2390    0.0300   20.2720 C   0  0  0  0  0  0  0  0  0  0  0  0
    5.0840    0.8170   20.4030 C   0  0  0  0  0  0  0  0  0  0  0  0
    4.5550    1.5310   19.2070 C   0  0  0  0  0  0  0  0  0  0  0  0
    5.2760    1.3910   17.8860 C   0  0  0  0  0  0  0  0  0  0  0  0
    6.4890    0.5460   17.7960 N   0  0  0  0  0  0  0  0  0  0  0  0
    6.8710   -0.0640   18.9850 C   0  0  0  0  0  0  0  0  0  0  0  0
   10.2000   -0.6200   22.7590 C   0  0  0  0  0  0  0  0  0  0  0  0
   11.3800   -1.2170   22.2290 C   0  0  0  0  0  0  0  0  0  0  0  0
   12.7090   -0.7420   22.4020 C   0  0  0  0  0  0  0  0  0  0  0  0
   12.9580    0.4110   23.1460 C   0  0  0  0  0  0  0  0  0  0  0  0
   11.8280    1.0090   23.6870 N   0  0  0  0  0  0  0  0  0  0  0  0
   10.5450    0.6060   23.5640 C   0  0  0  0  0  0  0  0  0  0  0  0
  1  2  1  0
  2  3  2  0
  2  4  1  0
  4  5  1  0
  5  6  1  0
  6  7  1  0
  7  8  2  0
  7  9  1  0
  9 10  1  0
  9 11  1  0
 11 12  2  0
 12 13  1  0
 13 14  2  0
 14 15  1  0
 11 16  1  0
 15 16  2  0
  6 17  1  0
 17 18  2  0
 18 19  1  0
 19 20  2  0
 20 21  1  0
 17 22  1  0
 21 22  2  0
M  END
