ERI-WAB-212bafa6-1
     RDKit          3D

 20 21  0  0  0  0  0  0  0  0999 V2000
    9.7750   -5.7120   25.3920 C   0  0  0  0  0  0  0  0  0  0  0  0
    8.5500   -4.8730   25.2430 C   0  0  0  0  0  0  0  0  0  0  0  0
    7.8790   -4.4760   26.1940 O   0  0  0  0  0  0  0  0  0  0  0  0
    8.2290   -4.5640   23.7900 C   0  0  0  0  0  0  0  0  0  0  0  0
    8.8360   -3.4170   23.3010 C   0  0  0  0  0  0  0  0  0  0  0  0
    7.9980   -2.3860   22.9160 C   0  0  0  0  0  0  0  0  0  0  0  0
    6.6150   -2.4540   23.1660 C   0  0  0  0  0  0  0  0  0  0  0  0
    5.6910   -1.4810   22.8170 C   0  0  0  0  0  0  0  0  0  0  0  0
    6.1270   -0.2110   22.1040 C   0  0  0  0  0  0  0  0  0  0  0  0
    7.6380   -0.0890   21.8100 C   0  0  0  0  0  0  0  0  0  0  0  0
    8.5600   -1.2480   22.2560 C   0  0  0  0  0  0  0  0  0  0  0  0
   10.0770   -1.0830   21.9280 C   0  0  0  0  0  0  0  0  0  0  0  0
   11.1110   -0.5130   22.9870 C   0  0  0  0  0  0  0  0  0  0  0  0
   10.7420   -0.2150   24.1290 O   0  0  0  0  0  0  0  0  0  0  0  0
   12.6000   -0.3640   22.5500 C   0  0  0  0  0  0  0  0  0  0  0  0
   12.2490    0.8700   23.2850 C   0  0  0  0  0  0  0  0  0  0  0  0
   10.9260    0.7250   23.6770 C   0  0  0  0  0  0  0  0  0  0  0  0
   10.2200   -0.4950   23.3210 C   0  0  0  0  0  0  0  0  0  0  0  0
   10.8020   -1.6040   22.5630 C   0  0  0  0  0  0  0  0  0  0  0  0
   12.1250   -1.5340   22.1330 C   0  0  0  0  0  0  0  0  0  0  0  0
  1  2  1  0
  2  3  2  0
  2  4  1  0
  4  5  1  0
  5  6  1  0
  6  7  2  0
  7  8  1  0
  8  9  2  0
  9 10  1  0
  6 11  1  0
 10 11  2  0
 11 12  1  0
 12 13  1  0
 13 14  2  0
 13 15  1  0
 15 16  2  0
 16 17  1  0
 17 18  2  0
 18 19  1  0
 15 20  1  0
 19 20  2  0
M  END
