FAB-UNK-03d90bbc-1-acrylamide
     RDKit          3D

 26 28  0  0  0  0  0  0  0  0999 V2000
    7.4320   -3.0900   19.0520 C   0  0  0  0  0  0  0  0  0  0  0  0
    6.9610   -3.0590   20.4830 C   0  0  0  0  0  0  0  0  0  0  0  0
    6.0840   -4.2640   20.7380 C   0  0  0  0  0  0  0  0  0  0  0  0
    5.1890   -4.5750   19.9460 O   0  0  0  0  0  0  0  0  0  0  0  0
    6.3310   -5.0080   21.8890 N   0  0  0  0  0  0  0  0  0  0  0  0
    6.9800   -4.4030   22.9090 C   0  0  0  0  0  0  0  0  0  0  0  0
    6.2590   -4.1520   24.0470 C   0  0  0  0  0  0  0  0  0  0  0  0
    5.3900   -5.1360   24.4920 N   0  0  0  0  0  0  0  0  0  0  0  0
    4.7360   -5.0870   25.8330 C   0  0  1  0  0  0  0  0  0  0  0  0
    3.7980   -4.2780   26.0660 C   0  0  0  0  0  0  0  0  0  0  0  0
    3.5810   -2.9370   26.2660 C   0  0  0  0  0  0  0  0  0  0  0  0
    2.4280   -1.9240   26.5560 C   0  0  0  0  0  0  0  0  0  0  0  0
    0.9790   -2.1980   26.1260 C   0  0  0  0  0  0  0  0  0  0  0  0
   -0.2420   -1.2810   26.3270 C   0  0  0  0  0  0  0  0  0  0  0  0
    0.0290    0.2320   26.1690 C   0  0  0  0  0  0  0  0  0  0  0  0
   -1.1830    1.1380   26.3630 C   0  0  0  0  0  0  0  0  0  0  0  0
   -2.5360    0.5310   26.6870 C   0  0  0  0  0  0  0  0  0  0  0  0
   -3.6260    1.3860   26.8590 C   0  0  0  0  0  0  0  0  0  0  0  0
   -4.7540    1.1160   26.1480 N   0  0  0  0  0  0  0  0  0  0  0  0
   -2.6720   -0.9720   26.8180 C   0  0  0  0  0  0  0  0  0  0  0  0
   -1.5450   -1.7920   26.6360 C   0  0  0  0  0  0  0  0  0  0  0  0
    2.7910   -4.3320   26.2560 C   0  0  0  0  0  0  0  0  0  0  0  0
    1.5770   -4.4430   26.4230 O   0  0  0  0  0  0  0  0  0  0  0  0
    3.5870   -5.4730   26.0790 O   0  0  0  0  0  0  0  0  0  0  0  0
    4.6270   -5.6160   23.4390 C   0  0  0  0  0  0  0  0  0  0  0  0
    5.4360   -6.0660   22.3770 C   0  0  0  0  0  0  0  0  0  0  0  0
  1  2  1  0
  2  3  1  0
  3  4  2  0
  3  5  1  0
  5  6  1  0
  6  7  1  0
  7  8  1  0
  9  8  1  6
  9 10  1  0
 10 11  2  0
 11 12  1  0
 12 13  2  3
 13 14  1  0
 14 15  2  0
 15 16  1  0
 16 17  2  0
 17 18  1  0
 18 19  3  0
 17 20  1  0
 14 21  1  0
 20 21  2  0
 11 22  1  0
 22 23  2  0
  9 24  1  0
 22 24  1  0
  8 25  1  0
  5 26  1  0
 25 26  1  0
M  END
