FAB-ASS-ec2fd593-2
     RDKit          3D

 40 43  0  0  0  0  0  0  0  0999 V2000
   -4.0510    2.7070   21.8360 C   0  0  0  0  0  0  0  0  0  0  0  0
   -3.6060    2.7040   23.1860 O   0  0  0  0  0  0  0  0  0  0  0  0
   -3.3410    4.0120   23.7110 C   0  0  0  0  0  0  0  0  0  0  0  0
   -2.7070    4.8440   23.0680 O   0  0  0  0  0  0  0  0  0  0  0  0
   -3.8640    4.3530   25.1050 C   0  0  1  0  0  0  0  0  0  0  0  0
   -3.0370    5.1630   25.8630 C   0  0  0  0  0  0  0  0  0  0  0  0
   -1.9730    4.6760   26.6120 C   0  0  0  0  0  0  0  0  0  0  0  0
   -1.6730    3.3060   26.6460 C   0  0  0  0  0  0  0  0  0  0  0  0
   -1.4100    2.5210   27.7810 C   0  0  0  0  0  0  0  0  0  0  0  0
   -1.0740    1.0120   27.8680 C   0  0  0  0  0  0  0  0  0  0  0  0
   -1.8640    0.1420   27.5000 O   0  0  0  0  0  0  0  0  0  0  0  0
    0.1620    0.8060   28.3920 O   0  0  0  0  0  0  0  0  0  0  0  0
    0.7780   -0.4740   28.1090 C   0  0  1  0  0  0  0  0  0  0  0  0
    1.5100   -0.3160   26.7650 C   0  0  0  0  0  0  0  0  0  0  0  0
    2.0520   -1.6340   26.1520 C   0  0  0  0  0  0  0  0  0  0  0  0
    3.6180   -1.7740   26.0400 C   0  0  0  0  0  0  0  0  0  0  0  0
    4.2410   -3.0410   25.4400 C   0  0  0  0  0  0  0  0  0  0  0  0
    3.0560   -3.8850   25.0920 C   0  0  0  0  0  0  0  0  0  0  0  0
    2.6500   -2.7100   25.6180 O   0  0  0  0  0  0  0  0  0  0  0  0
    1.6880   -3.8830   25.1310 C   0  0  0  0  0  0  0  0  0  0  0  0
    0.9510   -4.9440   24.6710 O   0  0  0  0  0  0  0  0  0  0  0  0
    1.1790   -2.6850   25.6970 C   0  0  0  0  0  0  0  0  0  0  0  0
    1.7670   -0.7980   29.2350 C   0  0  0  0  0  0  0  0  0  0  0  0
    2.7710   -0.1600   29.5310 O   0  0  0  0  0  0  0  0  0  0  0  0
    1.4410   -1.9030   29.9360 O   0  0  0  0  0  0  0  0  0  0  0  0
   -1.1930    5.5900   27.3450 C   0  0  0  0  0  0  0  0  0  0  0  0
   -1.4910    6.9640   27.3190 C   0  0  0  0  0  0  0  0  0  0  0  0
   -2.5650    7.4340   26.5630 C   0  0  0  0  0  0  0  0  0  0  0  0
   -2.8800    8.7590   26.5200 O   0  0  0  0  0  0  0  0  0  0  0  0
   -3.3230    6.5080   25.8440 C   0  0  0  0  0  0  0  0  0  0  0  0
   -4.4070    6.7350   25.0500 O   0  0  0  0  0  0  0  0  0  0  0  0
   -5.0200    5.4000   25.0270 C   0  0  1  0  0  0  0  0  0  0  0  0
   -5.8630    5.2800   23.9140 C   0  0  0  0  0  0  0  0  0  0  0  0
   -5.5650    5.9480   22.7340 C   0  0  0  0  0  0  0  0  0  0  0  0
   -6.3950    5.8430   21.6150 C   0  0  0  0  0  0  0  0  0  0  0  0
   -7.5710    5.0770   21.5750 C   0  0  0  0  0  0  0  0  0  0  0  0
   -8.3340    5.0230   20.4430 O   0  0  0  0  0  0  0  0  0  0  0  0
   -7.9330    4.3710   22.7430 C   0  0  0  0  0  0  0  0  0  0  0  0
   -9.0620    3.6250   22.7370 O   0  0  0  0  0  0  0  0  0  0  0  0
   -7.0180    4.4910   23.9640 C   0  0  0  0  0  0  0  0  0  0  0  0
  1  2  1  0
  2  3  1  0
  3  4  2  0
  5  3  1  6
  5  6  1  0
  6  7  2  0
  7  8  1  0
  8  9  2  3
  9 10  1  0
 10 11  2  0
 10 12  1  0
 12 13  1  0
 13 14  1  6
 14 15  1  0
 15 16  2  0
 16 17  1  0
 17 18  2  0
 18 19  1  0
 18 20  1  0
 20 21  1  0
 15 22  1  0
 20 22  2  0
 13 23  1  0
 23 24  2  0
 23 25  1  0
  7 26  1  0
 26 27  2  0
 27 28  1  0
 28 29  1  0
  6 30  1  0
 28 30  2  0
 30 31  1  0
  5 32  1  0
 31 32  1  0
 32 33  1  6
 33 34  2  0
 34 35  1  0
 35 36  2  0
 36 37  1  0
 36 38  1  0
 38 39  1  0
 33 40  1  0
 38 40  2  0
M  END
