FAR-UNI-124f5ee8-1
     RDKit          3D

 34 35  0  0  0  0  0  0  0  0999 V2000
    5.7810   -5.8090   20.6290 C   0  0  0  0  0  0  0  0  0  0  0  0
    5.9750   -4.5570   21.3850 C   0  0  0  0  0  0  0  0  0  0  0  0
    4.8020   -4.4730   22.3690 C   0  0  0  0  0  0  0  0  0  0  0  0
    5.9230   -3.2480   20.5850 C   0  0  0  0  0  0  0  0  0  0  0  0
    6.3480   -2.2990   21.4740 C   0  0  1  0  0  0  0  0  0  0  0  0
    6.2550   -2.8280   22.8470 N   0  0  0  0  0  0  0  0  0  0  0  0
    7.2210   -3.8880   23.2780 C   0  0  0  0  0  0  0  0  0  0  0  0
    6.9480   -5.2980   23.3260 O   0  0  0  0  0  0  0  0  0  0  0  0
    8.4330   -3.3640   23.6820 C   0  0  1  0  0  0  0  0  0  0  0  0
    8.3970   -1.8440   23.8590 C   0  0  0  0  0  0  0  0  0  0  0  0
    9.7860   -1.2540   23.5680 C   0  0  0  0  0  0  0  0  0  0  0  0
   10.0620    0.0160   24.3240 C   0  0  0  0  0  0  0  0  0  0  0  0
   11.3690    0.7760   24.1890 C   0  0  0  0  0  0  0  0  0  0  0  0
   12.4410    0.2240   23.2670 C   0  0  0  0  0  0  0  0  0  0  0  0
   12.1130   -1.0640   22.5220 C   0  0  0  0  0  0  0  0  0  0  0  0
   10.7620   -1.7590   22.7080 C   0  0  0  0  0  0  0  0  0  0  0  0
    8.9560   -3.9630   24.8310 N   0  0  0  0  0  0  0  0  0  0  0  0
    8.0970   -4.3670   25.9370 C   0  0  0  0  0  0  0  0  0  0  0  0
    7.3320   -5.3280   25.9380 O   0  0  0  0  0  0  0  0  0  0  0  0
    8.2600   -3.5870   26.8730 O   0  0  0  0  0  0  0  0  0  0  0  0
    7.0520   -3.2640   27.5740 C   0  0  0  0  0  0  0  0  0  0  0  0
    7.2230   -2.2350   28.4980 C   0  0  0  0  0  0  0  0  0  0  0  0
    8.4290   -1.5560   28.5620 C   0  0  0  0  0  0  0  0  0  0  0  0
    8.6110   -0.5290   29.4880 C   0  0  0  0  0  0  0  0  0  0  0  0
    7.5750   -0.1840   30.3480 C   0  0  0  0  0  0  0  0  0  0  0  0
    6.3540   -0.8600   30.2890 C   0  0  0  0  0  0  0  0  0  0  0  0
    6.1750   -1.8920   29.3590 C   0  0  0  0  0  0  0  0  0  0  0  0
    7.5970   -1.6930   21.3230 C   0  0  0  0  0  0  0  0  0  0  0  0
    8.6420   -2.3360   21.3660 O   0  0  0  0  0  0  0  0  0  0  0  0
    7.5600   -0.3210   21.1190 N   0  0  0  0  0  0  0  0  0  0  0  0
    8.4660    0.5680   21.8290 C   0  0  0  0  0  0  0  0  0  0  0  0
    8.2590    1.8770   21.3920 C   0  0  0  0  0  0  0  0  0  0  0  0
    9.0950    2.8260   21.8920 N   0  0  0  0  0  0  0  0  0  0  0  0
    7.3760    2.1680   20.5940 O   0  0  0  0  0  0  0  0  0  0  0  0
  1  2  1  0
  2  3  1  0
  2  4  1  0
  5  4  1  6
  5  6  1  0
  6  7  1  0
  7  8  2  0
  7  9  1  0
  9 10  1  1
 10 11  1  0
 11 12  2  0
 12 13  1  0
 13 14  2  0
 14 15  1  0
 11 16  1  0
 15 16  2  0
  9 17  1  0
 17 18  1  0
 18 19  2  0
 18 20  1  0
 20 21  1  0
 21 22  1  0
 22 23  2  0
 23 24  1  0
 24 25  2  0
 25 26  1  0
 22 27  1  0
 26 27  2  0
  5 28  1  0
 28 29  2  0
 28 30  1  0
 30 31  1  0
 31 32  1  0
 32 33  1  0
 32 34  2  0
M  END
