FAR-UNI-9a76d7b5-1
     RDKit          3D

 33 34  0  0  0  0  0  0  0  0999 V2000
    0.7340   -8.6980   22.1360 N   0  0  0  0  0  0  0  0  0  0  0  0
    1.1820   -8.2850   23.2640 C   0  0  0  0  0  0  0  0  0  0  0  0
    0.4210   -8.2040   24.3740 N   0  0  0  0  0  0  0  0  0  0  0  0
    2.5000   -7.8700   23.5030 N   0  0  0  0  0  0  0  0  0  0  0  0
    3.0020   -7.6110   24.8480 C   0  0  0  0  0  0  0  0  0  0  0  0
    4.0860   -6.4740   24.8690 C   0  0  0  0  0  0  0  0  0  0  0  0
    5.1430   -6.4680   23.7420 C   0  0  0  0  0  0  0  0  0  0  0  0
    4.7760   -5.6000   22.5470 C   0  0  2  0  0  0  0  0  0  0  0  0
    5.9310   -5.3530   21.6020 N   0  0  0  0  0  0  0  0  0  0  0  0
    5.9880   -4.4390   20.5120 C   0  0  0  0  0  0  0  0  0  0  0  0
    5.1580   -5.1270   19.9900 O   0  0  0  0  0  0  0  0  0  0  0  0
    6.9030   -3.9120   21.3540 C   0  0  2  0  0  0  0  0  0  0  0  0
    6.2810   -3.7570   22.7340 C   0  0  0  0  0  0  0  0  0  0  0  0
    7.2030   -3.9830   23.6690 C   0  0  0  0  0  0  0  0  0  0  0  0
    7.5740   -2.8360   24.5680 C   0  0  0  0  0  0  0  0  0  0  0  0
    8.6390   -3.1520   25.6370 C   0  0  0  0  0  0  0  0  0  0  0  0
    9.1480   -4.5790   25.6100 C   0  0  0  0  0  0  0  0  0  0  0  0
    8.7720   -5.5620   24.7670 C   0  0  0  0  0  0  0  0  0  0  0  0
    7.7940   -5.2410   23.7970 C   0  0  0  0  0  0  0  0  0  0  0  0
    7.4630   -2.6980   20.7470 N   0  0  0  0  0  0  0  0  0  0  0  0
    7.2110   -1.4330   21.2020 C   0  0  0  0  0  0  0  0  0  0  0  0
    6.2260   -0.7690   20.9150 O   0  0  0  0  0  0  0  0  0  0  0  0
    8.2160   -1.0150   22.0090 O   0  0  0  0  0  0  0  0  0  0  0  0
    9.3130   -1.9330   22.1120 C   0  0  0  0  0  0  0  0  0  0  0  0
   10.6000   -1.1250   22.3540 C   0  0  0  0  0  0  0  0  0  0  0  0
   10.5750    0.2160   22.7770 C   0  0  0  0  0  0  0  0  0  0  0  0
   11.7730    0.9120   22.9820 C   0  0  0  0  0  0  0  0  0  0  0  0
   12.9920    0.2790   22.7710 C   0  0  0  0  0  0  0  0  0  0  0  0
   13.0250   -1.0430   22.3540 C   0  0  0  0  0  0  0  0  0  0  0  0
   11.8420   -1.7380   22.1460 C   0  0  0  0  0  0  0  0  0  0  0  0
    4.2340   -4.2630   23.0420 C   0  0  0  0  0  0  0  0  0  0  0  0
    3.9110   -3.9640   24.1880 O   0  0  0  0  0  0  0  0  0  0  0  0
    4.1290   -3.3920   22.0440 O   0  0  0  0  0  0  0  0  0  0  0  0
  1  2  2  3
  2  3  1  0
  2  4  1  0
  4  5  1  0
  5  6  1  0
  6  7  1  0
  8  7  1  1
  8  9  1  0
  9 10  1  0
 10 11  2  0
 10 12  1  0
 12 13  1  1
 13 14  1  0
 14 15  2  0
 15 16  1  0
 16 17  2  0
 17 18  1  0
 14 19  1  0
 18 19  2  0
 12 20  1  0
 20 21  1  0
 21 22  2  0
 21 23  1  0
 23 24  1  0
 24 25  1  0
 25 26  2  0
 26 27  1  0
 27 28  2  0
 28 29  1  0
 25 30  1  0
 29 30  2  0
  8 31  1  0
 31 32  2  0
 31 33  1  0
M  END
