FAR-UNI-a04c1544-1
     RDKit          3D

 29 30  0  0  0  0  0  0  0  0999 V2000
    8.1500   -2.7000   20.7140 C   0  0  0  0  0  0  0  0  0  0  0  0
    6.8150   -2.9160   20.2610 O   0  0  0  0  0  0  0  0  0  0  0  0
    6.1810   -4.0790   20.6140 C   0  0  0  0  0  0  0  0  0  0  0  0
    5.3780   -4.5860   19.8440 O   0  0  0  0  0  0  0  0  0  0  0  0
    6.4330   -4.7570   21.8170 C   0  0  2  0  0  0  0  0  0  0  0  0
    5.4590   -5.6610   22.3110 C   0  0  0  0  0  0  0  0  0  0  0  0
    6.0930   -6.8670   22.7430 O   0  0  0  0  0  0  0  0  0  0  0  0
    6.7760   -3.8440   22.8750 N   0  0  0  0  0  0  0  0  0  0  0  0
    7.9640   -4.0160   23.7120 C   0  0  0  0  0  0  0  0  0  0  0  0
    8.3640   -5.2730   24.2820 O   0  0  0  0  0  0  0  0  0  0  0  0
    8.6230   -2.7980   23.8570 C   0  0  2  0  0  0  0  0  0  0  0  0
    9.8200   -2.7130   23.2050 C   0  0  0  0  0  0  0  0  0  0  0  0
   11.0900   -2.6150   24.0620 C   0  0  0  0  0  0  0  0  0  0  0  0
   11.4610   -3.5870   24.9540 C   0  0  0  0  0  0  0  0  0  0  0  0
   12.7140   -3.4360   25.7020 C   0  0  0  0  0  0  0  0  0  0  0  0
   13.5200   -2.3310   25.5320 C   0  0  0  0  0  0  0  0  0  0  0  0
   13.0870   -1.3740   24.6380 C   0  0  0  0  0  0  0  0  0  0  0  0
   11.9120   -1.5090   23.9240 C   0  0  0  0  0  0  0  0  0  0  0  0
    8.5050   -2.4570   25.1550 N   0  0  0  0  0  0  0  0  0  0  0  0
    7.9240   -1.1170   25.2220 C   0  0  0  0  0  0  0  0  0  0  0  0
    6.8130   -0.8650   25.6700 O   0  0  0  0  0  0  0  0  0  0  0  0
    8.8040   -0.1980   24.7200 O   0  0  0  0  0  0  0  0  0  0  0  0
    8.9650   -0.0330   23.2870 C   0  0  0  0  0  0  0  0  0  0  0  0
   10.4970    0.0200   22.9730 C   0  0  0  0  0  0  0  0  0  0  0  0
   11.2150   -1.0860   22.4630 C   0  0  0  0  0  0  0  0  0  0  0  0
   12.5880   -1.0230   22.2190 C   0  0  0  0  0  0  0  0  0  0  0  0
   13.2320    0.1790   22.4910 C   0  0  0  0  0  0  0  0  0  0  0  0
   12.5670    1.2880   22.9740 C   0  0  0  0  0  0  0  0  0  0  0  0
   11.2220    1.1910   23.2020 C   0  0  0  0  0  0  0  0  0  0  0  0
  1  2  1  0
  2  3  1  0
  3  4  2  0
  3  5  1  0
  5  6  1  1
  6  7  1  0
  5  8  1  0
  8  9  1  0
  9 10  2  0
  9 11  1  0
 11 12  1  1
 12 13  1  0
 13 14  2  0
 14 15  1  0
 15 16  2  0
 16 17  1  0
 13 18  1  0
 17 18  2  0
 11 19  1  0
 19 20  1  0
 20 21  2  0
 20 22  1  0
 22 23  1  0
 23 24  1  0
 24 25  2  0
 25 26  1  0
 26 27  2  0
 27 28  1  0
 24 29  1  0
 28 29  2  0
M  END
