FAR-UNI-9a76d7b5-3
     RDKit          3D

 35 40  0  0  0  0  0  0  0  0999 V2000
    5.4930   -6.4930   19.8130 N   0  0  0  0  0  0  0  0  0  0  0  0
    5.9580   -5.4590   20.3330 C   0  0  0  0  0  0  0  0  0  0  0  0
    5.6080   -4.3760   19.8960 O   0  0  0  0  0  0  0  0  0  0  0  0
    6.9530   -5.7150   21.4680 C   0  0  0  0  0  0  0  0  0  0  0  0
    6.1640   -6.2720   22.6480 C   0  0  0  0  0  0  0  0  0  0  0  0
    4.8960   -5.4610   22.5620 C   0  0  2  0  0  0  0  0  0  0  0  0
    5.3210   -4.0830   22.2290 N   0  0  0  0  0  0  0  0  0  0  0  0
    5.6490   -3.4990   23.5200 C   0  0  2  0  0  0  0  0  0  0  0  0
    5.8460   -1.9850   23.4630 C   0  0  0  0  0  0  0  0  0  0  0  0
    5.0480   -1.1170   23.7830 O   0  0  0  0  0  0  0  0  0  0  0  0
    7.1360   -1.8190   22.9850 N   0  0  0  0  0  0  0  0  0  0  0  0
    7.9160   -2.8620   23.4810 C   0  0  0  0  0  0  0  0  0  0  0  0
    9.4760   -2.9160   23.6370 C   0  0  0  0  0  0  0  0  0  0  0  0
   10.4930   -1.6080   23.1760 Cl  0  0  0  0  0  0  0  0  0  0  0  0
   10.0170   -4.0740   24.1720 C   0  0  0  0  0  0  0  0  0  0  0  0
    9.1940   -5.3000   24.6230 C   0  0  0  0  0  0  0  0  0  0  0  0
    7.6430   -5.1520   24.4240 C   0  0  0  0  0  0  0  0  0  0  0  0
    7.0670   -3.9080   23.8420 C   0  0  0  0  0  0  0  0  0  0  0  0
    4.4090   -3.9100   24.3190 C   0  0  2  0  0  0  0  0  0  0  0  0
    4.4540   -4.2820   25.6420 C   0  0  0  0  0  0  0  0  0  0  0  0
    5.0750   -3.7840   26.5640 O   0  0  0  0  0  0  0  0  0  0  0  0
    3.6210   -5.3450   25.6130 N   0  0  0  0  0  0  0  0  0  0  0  0
    2.2800   -5.3570   26.1820 C   0  0  0  0  0  0  0  0  0  0  0  0
    1.1610   -5.2680   25.1250 C   0  0  0  0  0  0  0  0  0  0  0  0
    0.0150   -4.2600   25.3050 C   0  0  0  0  0  0  0  0  0  0  0  0
   -1.0020   -4.1870   24.3450 C   0  0  0  0  0  0  0  0  0  0  0  0
   -0.9470   -5.0440   23.2330 C   0  0  0  0  0  0  0  0  0  0  0  0
    0.0980   -5.9640   23.0610 C   0  0  0  0  0  0  0  0  0  0  0  0
    1.1490   -6.0940   23.9820 C   0  0  0  0  0  0  0  0  0  0  0  0
   -0.0510   -6.6850   21.9180 O   0  0  0  0  0  0  0  0  0  0  0  0
   -1.2630   -6.1100   21.3770 C   0  0  0  0  0  0  0  0  0  0  0  0
   -1.8520   -5.0940   22.2230 O   0  0  0  0  0  0  0  0  0  0  0  0
    4.1590   -6.3780   24.9080 C   0  0  0  0  0  0  0  0  0  0  0  0
    4.6200   -7.1180   24.0630 O   0  0  0  0  0  0  0  0  0  0  0  0
    4.0170   -5.3040   23.7910 C   0  0  2  0  0  0  0  0  0  0  0  0
  1  2  1  0
  2  3  2  0
  2  4  1  0
  4  5  1  0
  6  5  1  1
  6  7  1  0
  8  7  1  6
  8  9  1  0
  9 10  2  0
  9 11  1  0
 11 12  1  0
 12 13  1  0
 13 14  1  0
 13 15  2  0
 15 16  1  0
 16 17  2  0
  8 18  1  0
 12 18  2  0
 17 18  1  0
  8 19  1  0
 19 20  1  1
 20 21  2  0
 20 22  1  0
 22 23  1  0
 23 24  1  0
 24 25  2  0
 25 26  1  0
 26 27  2  0
 27 28  1  0
 24 29  1  0
 28 29  2  0
 28 30  1  0
 30 31  1  0
 27 32  1  0
 31 32  1  0
 22 33  1  0
 33 34  2  0
  6 35  1  0
 19 35  1  0
 35 33  1  1
M  END
