FRA-DIA-8640f307-1
     RDKit          3D

 38 42  0  0  0  0  0  0  0  0999 V2000
    8.9660    6.6790   22.5120 C   0  0  0  0  0  0  0  0  0  0  0  0
   10.0940    6.2260   23.3990 C   0  0  0  0  0  0  0  0  0  0  0  0
   10.0530    6.3160   24.6240 O   0  0  0  0  0  0  0  0  0  0  0  0
   11.1530    5.7080   22.7080 N   0  0  0  0  0  0  0  0  0  0  0  0
   12.2280    5.0610   23.4440 C   0  0  0  0  0  0  0  0  0  0  0  0
   12.5770    3.6710   22.9210 C   0  0  0  0  0  0  0  0  0  0  0  0
   11.5140    2.6110   23.0080 C   0  0  0  0  0  0  0  0  0  0  0  0
   11.6710    1.1980   22.7900 C   0  0  0  0  0  0  0  0  0  0  0  0
   12.7900    0.3980   22.5170 C   0  0  0  0  0  0  0  0  0  0  0  0
   12.6020   -0.9520   22.2890 C   0  0  0  0  0  0  0  0  0  0  0  0
   13.6330   -1.7200   22.0180 F   0  0  0  0  0  0  0  0  0  0  0  0
   11.3690   -1.5350   22.3180 C   0  0  0  0  0  0  0  0  0  0  0  0
   10.2040   -0.8100   22.5980 C   0  0  0  0  0  0  0  0  0  0  0  0
    8.9350   -1.6710   22.5520 C   0  0  2  0  0  0  0  0  0  0  0  0
    7.7040   -1.0940   21.7060 C   0  0  0  0  0  0  0  0  0  0  0  0
    7.1240   -1.8860   20.5400 N   0  0  0  0  0  0  0  0  0  0  0  0
    7.1450   -1.3560   19.1470 C   0  0  0  0  0  0  0  0  0  0  0  0
    6.2440   -0.2080   18.9120 C   0  0  0  0  0  0  0  0  0  0  0  0
    5.2010    0.2620   19.7240 C   0  0  0  0  0  0  0  0  0  0  0  0
    4.7040    1.3400   19.0480 C   0  0  0  0  0  0  0  0  0  0  0  0
    3.6190    2.2890   19.3360 C   0  0  0  0  0  0  0  0  0  0  0  0
    5.4010    1.5090   17.8930 O   0  0  0  0  0  0  0  0  0  0  0  0
    6.3690    0.5360   17.8040 N   0  0  0  0  0  0  0  0  0  0  0  0
    6.2730   -2.9660   20.7880 C   0  0  0  0  0  0  0  0  0  0  0  0
    5.6420   -3.5120   19.8810 O   0  0  0  0  0  0  0  0  0  0  0  0
    6.1720   -3.3790   22.0820 N   0  0  0  0  0  0  0  0  0  0  0  0
    6.6780   -4.6600   22.4580 C   0  0  0  0  0  0  0  0  0  0  0  0
    5.9790   -5.9270   22.0560 C   0  0  0  0  0  0  0  0  0  0  0  0
    5.9700   -5.4840   23.4880 C   0  0  0  0  0  0  0  0  0  0  0  0
    8.7720   -2.4570   23.8390 C   0  0  0  0  0  0  0  0  0  0  0  0
    8.1830   -2.0620   24.9610 N   0  0  0  0  0  0  0  0  0  0  0  0
    8.2210   -3.0460   25.9470 N   0  0  0  0  0  0  0  0  0  0  0  0
    8.8370   -4.1450   25.5370 C   0  0  0  0  0  0  0  0  0  0  0  0
    9.0590   -5.3880   26.3320 C   0  0  0  0  0  0  0  0  0  0  0  0
    9.4110   -4.0520   23.9380 S   0  0  0  0  0  0  0  0  0  0  0  0
   10.4050    0.5890   22.8570 C   0  0  0  0  0  0  0  0  0  0  0  0
    9.5340    1.6060   23.1850 N   0  0  0  0  0  0  0  0  0  0  0  0
   10.1890    2.8110   23.2780 C   0  0  0  0  0  0  0  0  0  0  0  0
  1  2  1  0
  2  3  2  0
  2  4  1  0
  4  5  1  0
  5  6  1  0
  6  7  1  0
  7  8  1  0
  8  9  2  0
  9 10  1  0
 10 11  1  0
 10 12  2  0
 12 13  1  0
 13 14  1  0
 14 15  1  1
 15 16  1  0
 16 17  1  0
 17 18  1  0
 18 19  1  0
 19 20  2  0
 20 21  1  0
 20 22  1  0
 18 23  2  0
 22 23  1  0
 16 24  1  0
 24 25  2  0
 24 26  1  0
 26 27  1  0
 27 28  1  0
 27 29  1  0
 28 29  1  0
 14 30  1  0
 30 31  2  0
 31 32  1  0
 32 33  2  0
 33 34  1  0
 30 35  1  0
 33 35  1  0
  8 36  1  0
 13 36  2  0
 36 37  1  0
  7 38  2  0
 37 38  1  0
M  END
