FRA-DIA-8640f307-2
     RDKit          3D

 39 43  0  0  0  0  0  0  0  0999 V2000
    8.9840    6.6720   22.5310 C   0  0  0  0  0  0  0  0  0  0  0  0
   10.1330    6.2510   23.4060 C   0  0  0  0  0  0  0  0  0  0  0  0
   10.0900    6.3220   24.6310 O   0  0  0  0  0  0  0  0  0  0  0  0
   11.2110    5.7870   22.7040 N   0  0  0  0  0  0  0  0  0  0  0  0
   12.3240    5.1730   23.4150 C   0  0  0  0  0  0  0  0  0  0  0  0
   12.5460    3.7180   23.0160 C   0  0  0  0  0  0  0  0  0  0  0  0
   11.4140    2.7660   23.2910 C   0  0  0  0  0  0  0  0  0  0  0  0
   11.4120    1.3810   22.9900 C   0  0  0  0  0  0  0  0  0  0  0  0
   12.3960    0.5620   22.4820 C   0  0  0  0  0  0  0  0  0  0  0  0
   12.0810   -0.7430   22.1940 C   0  0  0  0  0  0  0  0  0  0  0  0
   13.0160   -1.5630   21.6050 C   0  0  0  0  0  0  0  0  0  0  0  0
   13.6490   -2.1450   20.9080 N   0  0  0  0  0  0  0  0  0  0  0  0
   10.8510   -1.2670   22.4000 C   0  0  0  0  0  0  0  0  0  0  0  0
    9.8220   -0.5190   22.9270 C   0  0  0  0  0  0  0  0  0  0  0  0
    8.5040   -1.2660   23.0130 C   0  0  1  0  0  0  0  0  0  0  0  0
    8.2780   -1.8540   21.5330 C   0  0  0  0  0  0  0  0  0  0  0  0
    6.9980   -1.8230   20.7260 N   0  0  0  0  0  0  0  0  0  0  0  0
    7.1060   -1.3650   19.3120 C   0  0  0  0  0  0  0  0  0  0  0  0
    6.2260   -0.2150   18.9810 C   0  0  0  0  0  0  0  0  0  0  0  0
    5.1630    0.3090   19.7290 C   0  0  0  0  0  0  0  0  0  0  0  0
    4.7060    1.3530   18.9760 C   0  0  0  0  0  0  0  0  0  0  0  0
    3.6310    2.3350   19.1540 C   0  0  0  0  0  0  0  0  0  0  0  0
    5.4440    1.4530   17.8400 O   0  0  0  0  0  0  0  0  0  0  0  0
    6.3980    0.4680   17.8400 N   0  0  0  0  0  0  0  0  0  0  0  0
    6.2130   -2.9520   20.9150 C   0  0  0  0  0  0  0  0  0  0  0  0
    5.5380   -3.4560   20.0120 O   0  0  0  0  0  0  0  0  0  0  0  0
    6.2500   -3.4770   22.1760 N   0  0  0  0  0  0  0  0  0  0  0  0
    5.5790   -4.7000   22.4720 C   0  0  0  0  0  0  0  0  0  0  0  0
    6.0650   -5.9850   21.8650 C   0  0  0  0  0  0  0  0  0  0  0  0
    6.2400   -5.7400   23.3330 C   0  0  0  0  0  0  0  0  0  0  0  0
    8.5570   -2.3090   24.1070 C   0  0  0  0  0  0  0  0  0  0  0  0
    7.9580   -2.1710   25.2760 N   0  0  0  0  0  0  0  0  0  0  0  0
    8.1540   -3.2630   26.0930 N   0  0  0  0  0  0  0  0  0  0  0  0
    8.8940   -4.1960   25.5200 C   0  0  0  0  0  0  0  0  0  0  0  0
    9.2790   -5.4920   26.1450 C   0  0  0  0  0  0  0  0  0  0  0  0
    9.4110   -3.7930   23.9360 S   0  0  0  0  0  0  0  0  0  0  0  0
   10.1510    0.8420   23.2510 C   0  0  0  0  0  0  0  0  0  0  0  0
    9.4350    1.8820   23.8100 N   0  0  0  0  0  0  0  0  0  0  0  0
   10.1850    3.0330   23.8310 C   0  0  0  0  0  0  0  0  0  0  0  0
  1  2  1  0
  2  3  2  0
  2  4  1  0
  4  5  1  0
  5  6  1  0
  6  7  1  0
  7  8  1  0
  8  9  2  0
  9 10  1  0
 10 11  1  0
 11 12  3  0
 10 13  2  0
 13 14  1  0
 14 15  1  0
 15 16  1  6
 16 17  1  0
 17 18  1  0
 18 19  1  0
 19 20  1  0
 20 21  2  0
 21 22  1  0
 21 23  1  0
 19 24  2  0
 23 24  1  0
 17 25  1  0
 25 26  2  0
 25 27  1  0
 27 28  1  0
 28 29  1  0
 28 30  1  0
 29 30  1  0
 15 31  1  0
 31 32  2  0
 32 33  1  0
 33 34  2  0
 34 35  1  0
 31 36  1  0
 34 36  1  0
  8 37  1  0
 14 37  2  0
 37 38  1  0
  7 39  2  0
 38 39  1  0
M  END
