FRA-DIA-3f9ae552-3
     RDKit          3D

 38 42  0  0  0  0  0  0  0  0999 V2000
    9.0120    7.0120   22.2210 C   0  0  0  0  0  0  0  0  0  0  0  0
    8.5850    5.8800   23.1120 C   0  0  0  0  0  0  0  0  0  0  0  0
    8.0640    6.0730   24.2090 O   0  0  0  0  0  0  0  0  0  0  0  0
    8.8320    4.6260   22.5910 N   0  0  0  0  0  0  0  0  0  0  0  0
    9.3080    3.5570   23.4600 C   0  0  0  0  0  0  0  0  0  0  0  0
    8.8490    2.1420   23.0620 C   0  0  0  0  0  0  0  0  0  0  0  0
    9.3640    1.1080   24.0360 C   0  0  0  0  0  0  0  0  0  0  0  0
   10.1950   -0.0500   23.7930 C   0  0  0  0  0  0  0  0  0  0  0  0
   10.8130   -0.6830   22.6340 C   0  0  0  0  0  0  0  0  0  0  0  0
   11.6380   -1.8790   22.7260 C   0  0  0  0  0  0  0  0  0  0  0  0
   12.3110   -2.5310   21.2820 Cl  0  0  0  0  0  0  0  0  0  0  0  0
   11.8880   -2.4790   23.9700 C   0  0  0  0  0  0  0  0  0  0  0  0
   11.2400   -1.7600   24.9010 C   0  0  0  0  0  0  0  0  0  0  0  0
   11.0410   -1.3170   23.4660 C   0  0  2  0  0  0  0  0  0  0  0  0
    9.7900   -2.1450   22.8690 C   0  0  0  0  0  0  0  0  0  0  0  0
    8.4410   -1.5450   22.5440 N   0  0  0  0  0  0  0  0  0  0  0  0
    8.3230   -0.2180   21.8770 C   0  0  0  0  0  0  0  0  0  0  0  0
    7.4210   -0.0930   20.6600 C   0  0  0  0  0  0  0  0  0  0  0  0
    6.3850    0.8550   20.4260 C   0  0  0  0  0  0  0  0  0  0  0  0
    5.8960    0.5440   19.1690 C   0  0  0  0  0  0  0  0  0  0  0  0
    4.8390    1.0920   18.2950 C   0  0  0  0  0  0  0  0  0  0  0  0
    6.5810   -0.5100   18.6720 O   0  0  0  0  0  0  0  0  0  0  0  0
    7.5250   -0.9100   19.6040 N   0  0  0  0  0  0  0  0  0  0  0  0
    7.3070   -2.2950   22.8970 C   0  0  0  0  0  0  0  0  0  0  0  0
    6.1890   -1.7800   22.9550 O   0  0  0  0  0  0  0  0  0  0  0  0
    7.4950   -3.6400   23.1740 N   0  0  0  0  0  0  0  0  0  0  0  0
    6.5010   -4.6140   22.8200 C   0  0  0  0  0  0  0  0  0  0  0  0
    5.9010   -5.5050   23.8770 C   0  0  0  0  0  0  0  0  0  0  0  0
    6.8220   -6.0860   22.8400 C   0  0  0  0  0  0  0  0  0  0  0  0
   12.1780   -1.3810   22.4420 C   0  0  0  0  0  0  0  0  0  0  0  0
   12.3820   -2.4680   21.7300 N   0  0  0  0  0  0  0  0  0  0  0  0
   13.2990   -2.3100   20.7290 N   0  0  0  0  0  0  0  0  0  0  0  0
   13.7960   -1.0970   20.6660 C   0  0  0  0  0  0  0  0  0  0  0  0
   14.6970   -0.5660   19.4670 C   0  0  0  0  0  0  0  0  0  0  0  0
   13.2470   -0.1020   22.0190 S   0  0  0  0  0  0  0  0  0  0  0  0
   10.4240   -0.6560   25.0160 C   0  0  0  0  0  0  0  0  0  0  0  0
    9.7560    0.0570   25.9790 N   0  0  0  0  0  0  0  0  0  0  0  0
    9.1110    1.1150   25.3910 C   0  0  0  0  0  0  0  0  0  0  0  0
  1  2  1  0
  2  3  2  0
  2  4  1  0
  4  5  1  0
  5  6  1  0
  6  7  1  0
  7  8  1  0
  8  9  2  0
  9 10  1  0
 10 11  1  0
 10 12  2  0
 12 13  1  0
 13 14  1  0
 14 15  1  6
 15 16  1  0
 16 17  1  0
 17 18  1  0
 18 19  1  0
 19 20  2  0
 20 21  1  0
 20 22  1  0
 18 23  2  0
 22 23  1  0
 16 24  1  0
 24 25  2  0
 24 26  1  0
 26 27  1  0
 27 28  1  0
 27 29  1  0
 28 29  1  0
 14 30  1  0
 30 31  2  0
 31 32  1  0
 32 33  2  0
 33 34  1  0
 30 35  1  0
 33 35  1  0
  8 36  1  0
 13 36  2  0
 36 37  1  0
  7 38  2  0
 37 38  1  0
M  END
