FRA-FAC-9ed5a63a-1
     RDKit          3D

 16 17  0  0  0  0  0  0  0  0999 V2000
   11.9530   -3.8750   19.8360 O   0  0  0  0  0  0  0  0  0  0  0  0
   13.0240   -3.7680   20.3870 C   0  0  0  0  0  0  0  0  0  0  0  0
   14.2110   -4.7230   20.1340 C   0  0  0  0  0  0  0  0  0  0  0  0
   15.0330   -4.6770   18.8070 C   0  0  0  0  0  0  0  0  0  0  0  0
   15.7020   -5.6980   18.6470 C   0  0  0  0  0  0  0  0  0  0  0  0
   15.5310   -6.2210   17.2920 C   0  0  0  0  0  0  0  0  0  0  0  0
   15.6140   -5.5680   16.2180 C   0  0  0  0  0  0  0  0  0  0  0  0
   15.4850   -4.3640   16.3940 C   0  0  0  0  0  0  0  0  0  0  0  0
   14.5520   -4.9630   17.3760 C   0  0  0  0  0  0  0  0  0  0  0  0
   13.2570   -2.7350   21.2650 N   0  0  0  0  0  0  0  0  0  0  0  0
   12.4860   -2.2060   22.2780 C   0  0  0  0  0  0  0  0  0  0  0  0
   13.1560   -1.9760   23.6150 C   0  0  0  0  0  0  0  0  0  0  0  0
   12.3820   -1.3870   24.7740 C   0  0  0  0  0  0  0  0  0  0  0  0
   10.9170   -1.0630   24.4700 C   0  0  0  0  0  0  0  0  0  0  0  0
   10.3040   -1.2700   23.2750 N   0  0  0  0  0  0  0  0  0  0  0  0
   11.1290   -1.8500   22.1930 C   0  0  0  0  0  0  0  0  0  0  0  0
  1  2  2  0
  2  3  1  0
  3  4  1  0
  4  5  1  0
  5  6  1  0
  6  7  1  0
  7  8  1  0
  4  9  1  0
  8  9  1  0
  2 10  1  0
 10 11  1  0
 11 12  2  0
 12 13  1  0
 13 14  2  0
 14 15  1  0
 11 16  1  0
 15 16  2  0
M  END
