FRA-FAC-9ed5a63a-2
     RDKit          3D

 17 18  0  0  0  0  0  0  0  0999 V2000
    9.7040    3.2040   23.4900 O   0  0  0  0  0  0  0  0  0  0  0  0
   10.8730    3.5470   23.3490 C   0  0  0  0  0  0  0  0  0  0  0  0
   11.3500    4.9820   23.3650 C   0  0  0  0  0  0  0  0  0  0  0  0
   10.4540    5.8600   24.2310 C   0  0  2  0  0  0  0  0  0  0  0  0
   10.5170    7.2190   24.0230 C   0  0  0  0  0  0  0  0  0  0  0  0
    9.5580    7.8920   24.7690 C   0  0  0  0  0  0  0  0  0  0  0  0
    9.7970    7.8580   26.1480 C   0  0  2  0  0  0  0  0  0  0  0  0
   10.6120    8.8370   26.5860 F   0  0  0  0  0  0  0  0  0  0  0  0
   10.0560    6.5850   26.6660 C   0  0  0  0  0  0  0  0  0  0  0  0
   10.7190    5.5660   25.7110 C   0  0  0  0  0  0  0  0  0  0  0  0
   11.8900    2.6330   23.1690 N   0  0  0  0  0  0  0  0  0  0  0  0
   11.7110    1.2880   22.9400 C   0  0  0  0  0  0  0  0  0  0  0  0
   12.9170    0.4310   22.6450 C   0  0  0  0  0  0  0  0  0  0  0  0
   12.7080   -1.0380   22.3640 C   0  0  0  0  0  0  0  0  0  0  0  0
   11.2640   -1.5280   22.4230 C   0  0  0  0  0  0  0  0  0  0  0  0
   10.1790   -0.7650   22.7010 N   0  0  0  0  0  0  0  0  0  0  0  0
   10.4460    0.6600   22.9560 C   0  0  0  0  0  0  0  0  0  0  0  0
  1  2  2  0
  2  3  1  0
  4  3  1  6
  4  5  1  0
  5  6  1  0
  6  7  1  0
  7  8  1  6
  7  9  1  0
  4 10  1  0
  9 10  1  0
  2 11  1  0
 11 12  1  0
 12 13  2  0
 13 14  1  0
 14 15  2  0
 15 16  1  0
 12 17  1  0
 16 17  2  0
M  END
