FRA-DIA-3f9ae552-2
     RDKit          3D

 31 34  0  0  0  0  0  0  0  0999 V2000
    3.5900    2.3180   19.2160 C   0  0  0  0  0  0  0  0  0  0  0  0
    4.6990    1.3900   18.9750 C   0  0  0  0  0  0  0  0  0  0  0  0
    5.2280    0.3440   19.6900 C   0  0  0  0  0  0  0  0  0  0  0  0
    6.2850   -0.1100   18.8900 C   0  0  0  0  0  0  0  0  0  0  0  0
    7.2290   -1.2210   19.1370 C   0  0  0  0  0  0  0  0  0  0  0  0
    7.4220   -1.5320   20.5900 N   0  0  0  0  0  0  0  0  0  0  0  0
    7.9760   -0.3830   21.4640 C   0  0  0  0  0  0  0  0  0  0  0  0
    9.0330   -0.5500   22.6640 C   0  0  0  0  0  0  0  0  0  0  0  0
    8.8330   -1.3150   23.6070 O   0  0  0  0  0  0  0  0  0  0  0  0
   10.3650    0.2410   22.7220 C   0  0  0  0  0  0  0  0  0  0  0  0
   11.2480    1.5420   22.9720 C   0  0  0  0  0  0  0  0  0  0  0  0
   12.4940    1.2490   22.7170 C   0  0  0  0  0  0  0  0  0  0  0  0
   13.6940    1.7750   22.6560 F   0  0  0  0  0  0  0  0  0  0  0  0
   11.9440    0.1730   22.5510 C   0  0  0  0  0  0  0  0  0  0  0  0
   11.1160    1.4570   22.9790 C   0  0  0  0  0  0  0  0  0  0  0  0
    9.8970    1.2960   23.0880 C   0  0  0  0  0  0  0  0  0  0  0  0
   10.5440    2.6970   23.3930 N   0  0  0  0  0  0  0  0  0  0  0  0
    9.6310    3.4930   23.5910 C   0  0  0  0  0  0  0  0  0  0  0  0
   10.4340    5.0890   23.8330 S   0  0  0  0  0  0  0  0  0  0  0  0
    9.5940    6.0780   22.7500 N   0  0  0  0  0  0  0  0  0  0  0  0
   11.8060    5.0520   23.4020 O   0  0  0  0  0  0  0  0  0  0  0  0
   10.0180    5.5270   25.1460 O   0  0  0  0  0  0  0  0  0  0  0  0
    9.6350    2.0600   23.3300 C   0  0  0  0  0  0  0  0  0  0  0  0
    6.5140   -2.5330   21.0470 C   0  0  0  0  0  0  0  0  0  0  0  0
    5.5740   -2.9020   20.3190 O   0  0  0  0  0  0  0  0  0  0  0  0
    6.6670   -3.1570   22.2570 N   0  0  0  0  0  0  0  0  0  0  0  0
    6.7020   -4.5990   22.2980 C   0  0  0  0  0  0  0  0  0  0  0  0
    5.4560   -5.4450   22.3520 C   0  0  0  0  0  0  0  0  0  0  0  0
    6.3500   -5.3370   23.5600 C   0  0  0  0  0  0  0  0  0  0  0  0
    6.3880    0.6070   17.7660 N   0  0  0  0  0  0  0  0  0  0  0  0
    5.3940    1.5480   17.8220 O   0  0  0  0  0  0  0  0  0  0  0  0
  1  2  1  0
  2  3  2  0
  3  4  1  0
  4  5  1  0
  5  6  1  0
  6  7  1  0
  7  8  1  0
  8  9  2  0
  8 10  1  0
 10 11  2  0
 11 12  1  0
 12 13  1  0
 12 14  2  0
 14 15  1  0
 10 16  1  0
 15 16  2  0
 16 17  1  0
 17 18  2  0
 18 19  1  0
 19 20  1  0
 19 21  2  0
 19 22  2  0
 15 23  1  0
 18 23  1  0
  6 24  1  0
 24 25  2  0
 24 26  1  0
 26 27  1  0
 27 28  1  0
 27 29  1  0
 28 29  1  0
  4 30  2  0
  2 31  1  0
 30 31  1  0
M  END
