FRA-DIA-3f9ae552-1
     RDKit          3D

 38 42  0  0  0  0  0  0  0  0999 V2000
    8.9670    6.6790   22.5100 C   0  0  0  0  0  0  0  0  0  0  0  0
   10.0950    6.2260   23.3980 C   0  0  0  0  0  0  0  0  0  0  0  0
   10.0520    6.3150   24.6220 O   0  0  0  0  0  0  0  0  0  0  0  0
   11.1550    5.7100   22.7070 N   0  0  0  0  0  0  0  0  0  0  0  0
   12.2300    5.0610   23.4440 C   0  0  0  0  0  0  0  0  0  0  0  0
   12.5780    3.6720   22.9200 C   0  0  0  0  0  0  0  0  0  0  0  0
   11.5150    2.6100   23.0090 C   0  0  0  0  0  0  0  0  0  0  0  0
   11.6730    1.2000   22.7900 C   0  0  0  0  0  0  0  0  0  0  0  0
   12.7900    0.3960   22.5150 C   0  0  0  0  0  0  0  0  0  0  0  0
   12.6020   -0.9500   22.2880 C   0  0  0  0  0  0  0  0  0  0  0  0
   13.6320   -1.7210   22.0160 F   0  0  0  0  0  0  0  0  0  0  0  0
   11.3680   -1.5360   22.3180 C   0  0  0  0  0  0  0  0  0  0  0  0
   10.2050   -0.8090   22.6000 C   0  0  0  0  0  0  0  0  0  0  0  0
    8.9340   -1.6720   22.5540 C   0  0  2  0  0  0  0  0  0  0  0  0
    7.7070   -1.0940   21.7070 C   0  0  0  0  0  0  0  0  0  0  0  0
    7.1240   -1.8860   20.5420 N   0  0  0  0  0  0  0  0  0  0  0  0
    7.1440   -1.3560   19.1470 C   0  0  0  0  0  0  0  0  0  0  0  0
    6.2440   -0.2060   18.9130 C   0  0  0  0  0  0  0  0  0  0  0  0
    5.2020    0.2630   19.7250 C   0  0  0  0  0  0  0  0  0  0  0  0
    4.7030    1.3420   19.0490 C   0  0  0  0  0  0  0  0  0  0  0  0
    3.6180    2.2900   19.3330 C   0  0  0  0  0  0  0  0  0  0  0  0
    5.4010    1.5090   17.8910 O   0  0  0  0  0  0  0  0  0  0  0  0
    6.3690    0.5360   17.8040 N   0  0  0  0  0  0  0  0  0  0  0  0
    6.2740   -2.9660   20.7890 C   0  0  0  0  0  0  0  0  0  0  0  0
    5.6470   -3.5170   19.8820 O   0  0  0  0  0  0  0  0  0  0  0  0
    6.1700   -3.3770   22.0850 N   0  0  0  0  0  0  0  0  0  0  0  0
    6.6750   -4.6560   22.4630 C   0  0  0  0  0  0  0  0  0  0  0  0
    5.9830   -5.9240   22.0490 C   0  0  0  0  0  0  0  0  0  0  0  0
    5.9590   -5.4860   23.4830 C   0  0  0  0  0  0  0  0  0  0  0  0
    8.7710   -2.4580   23.8420 C   0  0  0  0  0  0  0  0  0  0  0  0
    8.1810   -2.0630   24.9650 N   0  0  0  0  0  0  0  0  0  0  0  0
    8.2190   -3.0480   25.9480 N   0  0  0  0  0  0  0  0  0  0  0  0
    8.8370   -4.1470   25.5390 C   0  0  0  0  0  0  0  0  0  0  0  0
    9.0590   -5.3920   26.3330 C   0  0  0  0  0  0  0  0  0  0  0  0
    9.4120   -4.0530   23.9390 S   0  0  0  0  0  0  0  0  0  0  0  0
   10.4050    0.5870   22.8580 C   0  0  0  0  0  0  0  0  0  0  0  0
    9.5360    1.6060   23.1880 N   0  0  0  0  0  0  0  0  0  0  0  0
   10.1880    2.8100   23.2810 C   0  0  0  0  0  0  0  0  0  0  0  0
  1  2  1  0
  2  3  2  0
  2  4  1  0
  4  5  1  0
  5  6  1  0
  6  7  1  0
  7  8  1  0
  8  9  2  0
  9 10  1  0
 10 11  1  0
 10 12  2  0
 12 13  1  0
 13 14  1  0
 14 15  1  1
 15 16  1  0
 16 17  1  0
 17 18  1  0
 18 19  1  0
 19 20  2  0
 20 21  1  0
 20 22  1  0
 18 23  2  0
 22 23  1  0
 16 24  1  0
 24 25  2  0
 24 26  1  0
 26 27  1  0
 27 28  1  0
 27 29  1  0
 28 29  1  0
 14 30  1  0
 30 31  2  0
 31 32  1  0
 32 33  2  0
 33 34  1  0
 30 35  1  0
 33 35  1  0
  8 36  1  0
 13 36  2  0
 36 37  1  0
  7 38  2  0
 37 38  1  0
M  END
