GAB-REV-df64cf17-4-vinylsulfonamide
     RDKit          3D

 26 28  0  0  0  0  0  0  0  0999 V2000
    8.0470   -3.5640   19.6880 C   0  0  0  0  0  0  0  0  0  0  0  0
    6.9420   -2.7080   20.1960 C   0  0  0  0  0  0  0  0  0  0  0  0
    6.5250   -3.2180   21.8320 S   0  0  0  0  0  0  0  0  0  0  0  0
    4.9080   -3.3750   21.6850 O   0  0  0  0  0  0  0  0  0  0  0  0
    7.0890   -4.4790   22.2430 O   0  0  0  0  0  0  0  0  0  0  0  0
    7.8080   -2.1370   22.8340 C   0  0  0  0  0  0  0  0  0  0  0  0
    9.4110   -1.5350   22.6640 C   0  0  0  0  0  0  0  0  0  0  0  0
   10.4280   -0.8070   23.2380 N   0  0  0  0  0  0  0  0  0  0  0  0
    9.6840   -0.6950   24.1180 C   0  0  0  0  0  0  0  0  0  0  0  0
    9.9270    0.0540   25.3930 N   0  0  0  0  0  0  0  0  0  0  0  0
    9.4420   -0.3020   26.6560 C   0  0  0  0  0  0  0  0  0  0  0  0
    8.2510    0.5230   27.0690 C   0  0  0  0  0  0  0  0  0  0  0  0
    8.5160   -1.4350   23.6680 C   0  0  0  0  0  0  0  0  0  0  0  0
    8.2040   -0.9220   24.9930 N   0  0  0  0  0  0  0  0  0  0  0  0
    6.7540   -0.7320   24.9440 C   0  0  0  0  0  0  0  0  0  0  0  0
    8.4880   -1.7620   26.1720 C   0  0  0  0  0  0  0  0  0  0  0  0
    7.2820   -2.5550   26.6560 C   0  0  0  0  0  0  0  0  0  0  0  0
    5.9670   -1.9370   27.0510 C   0  0  0  0  0  0  0  0  0  0  0  0
    4.8320   -2.6250   27.5050 C   0  0  0  0  0  0  0  0  0  0  0  0
    4.7970   -4.1500   27.6630 C   0  0  0  0  0  0  0  0  0  0  0  0
    4.3040   -5.2340   27.9370 N   0  0  0  0  0  0  0  0  0  0  0  0
    5.0470   -6.4850   27.8030 N   0  0  0  0  0  0  0  0  0  0  0  0
    6.1920   -6.0270   27.3690 C   0  0  0  0  0  0  0  0  0  0  0  0
    6.0870   -4.5690   27.2620 C   0  0  0  0  0  0  0  0  0  0  0  0
    7.3590   -3.9300   26.7630 C   0  0  0  0  0  0  0  0  0  0  0  0
    8.9480   -1.9490   22.2350 C   0  0  0  0  0  0  0  0  0  0  0  0
  1  2  1  0
  3  2  1  0
  3  4  2  0
  3  5  2  0
  3  6  1  0
  6  7  2  0
  7  8  1  0
  8  9  2  0
  9 10  1  0
 10 11  1  0
 11 12  1  0
  9 13  1  0
 13 14  1  0
 14 15  1  0
 14 16  1  0
 16 17  1  0
 17 18  2  0
 18 19  1  0
 19 20  2  0
 20 21  1  0
 21 22  1  0
 22 23  2  0
 20 24  1  0
 23 24  1  0
 17 25  1  0
 24 25  2  0
  6 26  1  0
 13 26  2  0
M  END
