GAB-REV-70cc3ca5-5
     RDKit          3D

 23 25  0  0  0  0  0  0  0  0999 V2000
    5.3680    1.0440   21.9730 C   0  0  0  0  0  0  0  0  0  0  0  0
    5.6300    0.7910   20.5150 C   0  0  0  0  0  0  0  0  0  0  0  0
    4.7980    1.2150   19.4910 C   0  0  0  0  0  0  0  0  0  0  0  0
    5.0640    0.9680   18.1440 C   0  0  0  0  0  0  0  0  0  0  0  0
    6.1720    0.2780   17.7500 N   0  0  0  0  0  0  0  0  0  0  0  0
    7.0850   -0.1970   18.7740 C   0  0  0  0  0  0  0  0  0  0  0  0
    6.7840    0.0830   20.0980 C   0  0  0  0  0  0  0  0  0  0  0  0
    7.7330   -0.4020   20.9370 N   0  0  0  0  0  0  0  0  0  0  0  0
    8.1410    0.6340   21.7340 C   0  0  0  0  0  0  0  0  0  0  0  0
    8.9060    1.7480   21.2240 O   0  0  0  0  0  0  0  0  0  0  0  0
    7.7750    0.6980   23.2160 C   0  0  0  0  0  0  0  0  0  0  0  0
    8.7450    1.2130   24.0540 N   0  0  0  0  0  0  0  0  0  0  0  0
    9.4330    0.4310   24.9300 C   0  0  0  0  0  0  0  0  0  0  0  0
    9.2040    0.3980   26.2660 O   0  0  0  0  0  0  0  0  0  0  0  0
   10.4220   -0.4010   24.2570 C   0  0  0  0  0  0  0  0  0  0  0  0
   11.5430   -0.8440   24.9750 C   0  0  0  0  0  0  0  0  0  0  0  0
   12.5540   -1.6450   24.4750 C   0  0  0  0  0  0  0  0  0  0  0  0
   12.5070   -2.0670   23.1710 C   0  0  0  0  0  0  0  0  0  0  0  0
   13.5280   -2.8910   22.6590 N   0  0  0  0  0  0  0  0  0  0  0  0
   13.0370   -3.0380   21.2920 C   0  0  0  0  0  0  0  0  0  0  0  0
   11.8810   -2.3680   21.1310 N   0  0  0  0  0  0  0  0  0  0  0  0
   11.5650   -1.7630   22.3330 C   0  0  0  0  0  0  0  0  0  0  0  0
   10.4700   -0.8880   22.9090 C   0  0  0  0  0  0  0  0  0  0  0  0
  1  2  1  0
  2  3  2  0
  3  4  1  0
  4  5  2  0
  5  6  1  0
  2  7  1  0
  6  7  2  0
  7  8  1  0
  8  9  1  0
  9 10  2  0
  9 11  1  0
 11 12  1  0
 12 13  1  0
 13 14  2  0
 13 15  1  0
 15 16  2  0
 16 17  1  0
 17 18  2  0
 18 19  1  0
 19 20  2  0
 20 21  1  0
 18 22  1  0
 21 22  1  0
 15 23  1  0
 22 23  2  0
M  END
