GAB-REV-df64cf17-10-chloroacetamide
     RDKit          3D

 26 28  0  0  0  0  0  0  0  0999 V2000
    9.5300   -4.2000   20.1520 C   0  0  0  0  0  0  0  0  0  0  0  0
    8.4440   -3.2470   20.3260 C   0  0  0  0  0  0  0  0  0  0  0  0
    7.2150   -3.4270   19.5950 O   0  0  0  0  0  0  0  0  0  0  0  0
    9.0660   -2.2760   21.5200 C   0  0  0  0  0  0  0  0  0  0  0  0
   10.4600   -1.4850   21.7420 C   0  0  0  0  0  0  0  0  0  0  0  0
   10.8430   -0.7340   22.8690 N   0  0  0  0  0  0  0  0  0  0  0  0
    9.9370   -0.6920   23.8740 C   0  0  0  0  0  0  0  0  0  0  0  0
   10.0860   -0.0120   25.1960 N   0  0  0  0  0  0  0  0  0  0  0  0
    9.1600   -0.4910   26.1420 C   0  0  0  0  0  0  0  0  0  0  0  0
    9.2310    0.2090   27.4680 C   0  0  0  0  0  0  0  0  0  0  0  0
    8.6970   -1.3610   23.7420 C   0  0  0  0  0  0  0  0  0  0  0  0
    7.7400   -1.3150   24.8520 N   0  0  0  0  0  0  0  0  0  0  0  0
    6.4260   -1.2160   24.2180 C   0  0  0  0  0  0  0  0  0  0  0  0
    7.6780   -2.5360   25.6210 C   0  0  0  0  0  0  0  0  0  0  0  0
    8.4900   -3.6230   25.0550 C   0  0  0  0  0  0  0  0  0  0  0  0
    8.4720   -4.7380   25.7010 N   0  0  0  0  0  0  0  0  0  0  0  0
    9.1800   -5.7570   25.2470 C   0  0  0  0  0  0  0  0  0  0  0  0
    9.2260   -5.9320   23.8510 C   0  0  0  0  0  0  0  0  0  0  0  0
    9.7250   -6.4590   26.0710 O   0  0  0  0  0  0  0  0  0  0  0  0
    7.6280   -4.4590   26.7690 C   0  0  0  0  0  0  0  0  0  0  0  0
    7.2920   -5.4590   27.8180 C   0  0  0  0  0  0  0  0  0  0  0  0
    6.3720   -4.9740   28.8730 C   0  0  0  0  0  0  0  0  0  0  0  0
    5.8740   -3.5490   28.7970 C   0  0  0  0  0  0  0  0  0  0  0  0
    6.1370   -2.4160   27.7850 C   0  0  0  0  0  0  0  0  0  0  0  0
    7.0840   -3.0950   26.7940 C   0  0  0  0  0  0  0  0  0  0  0  0
    8.2930   -2.1050   22.6260 C   0  0  0  0  0  0  0  0  0  0  0  0
  1  2  1  0
  2  3  2  0
  2  4  1  0
  4  5  2  0
  5  6  1  0
  6  7  2  0
  7  8  1  0
  8  9  1  0
  9 10  1  0
  7 11  1  0
 11 12  1  0
 12 13  1  0
 12 14  1  0
 14 15  2  0
 15 16  1  0
 16 17  1  0
 17 18  1  0
 17 19  2  0
 16 20  1  0
 20 21  1  0
 21 22  2  0
 22 23  1  0
 23 24  2  0
 14 25  1  0
 20 25  2  0
 24 25  1  0
  4 26  1  0
 11 26  2  0
M  END
