GAB-REV-df64cf17-16-acrylamide
     RDKit          3D

 26 28  0  0  0  0  0  0  0  0999 V2000
    6.1660   -4.6960   20.1840 C   0  0  0  0  0  0  0  0  0  0  0  0
    6.7530   -3.3150   20.3850 C   0  0  0  0  0  0  0  0  0  0  0  0
    6.2230   -2.7160   21.6940 C   0  0  0  0  0  0  0  0  0  0  0  0
    5.0950   -3.5260   21.4210 O   0  0  0  0  0  0  0  0  0  0  0  0
    7.6430   -2.0260   21.4150 C   0  0  0  0  0  0  0  0  0  0  0  0
    7.5780   -2.1360   20.1680 C   0  0  0  0  0  0  0  0  0  0  0  0
    6.7630   -2.4650   21.5710 N   0  0  0  0  0  0  0  0  0  0  0  0
    7.2830   -2.1000   23.1660 C   0  0  0  0  0  0  0  0  0  0  0  0
    6.6040   -2.3890   24.3250 N   0  0  0  0  0  0  0  0  0  0  0  0
    7.2900   -3.0800   25.4050 C   0  0  0  0  0  0  0  0  0  0  0  0
    7.4970   -2.0350   26.4830 C   0  0  0  0  0  0  0  0  0  0  0  0
    8.5380   -1.4320   23.3630 C   0  0  0  0  0  0  0  0  0  0  0  0
    9.4200   -0.8930   24.4110 N   0  0  0  0  0  0  0  0  0  0  0  0
    8.5240   -0.1240   25.2820 C   0  0  0  0  0  0  0  0  0  0  0  0
   10.4830   -0.1920   23.7850 C   0  0  0  0  0  0  0  0  0  0  0  0
   11.0420    0.9150   23.5420 N   0  0  0  0  0  0  0  0  0  0  0  0
   12.0340    1.1780   22.8930 C   0  0  0  0  0  0  0  0  0  0  0  0
   12.1880   -0.1880   22.5990 C   0  0  0  0  0  0  0  0  0  0  0  0
   11.4710   -1.3760   22.0860 C   0  0  0  0  0  0  0  0  0  0  0  0
   10.3330   -0.5520   21.9570 C   0  0  0  0  0  0  0  0  0  0  0  0
   10.7280   -2.0330   21.6940 C   0  0  0  0  0  0  0  0  0  0  0  0
   12.2730   -2.2580   22.0830 C   0  0  0  0  0  0  0  0  0  0  0  0
   13.1290   -1.0710   22.6440 C   0  0  0  0  0  0  0  0  0  0  0  0
   11.4400    2.3550   23.4570 C   0  0  0  0  0  0  0  0  0  0  0  0
   10.0780    1.4160   24.2520 S   0  0  0  0  0  0  0  0  0  0  0  0
    8.5460   -1.5160   22.1720 C   0  0  0  0  0  0  0  0  0  0  0  0
  1  2  1  0
  2  3  1  0
  3  4  2  0
  3  5  1  0
  5  6  2  0
  6  7  1  0
  7  8  2  0
  8  9  1  0
  9 10  1  0
 10 11  1  0
  8 12  1  0
 12 13  1  0
 13 14  1  0
 13 15  1  0
 15 16  2  0
 16 17  1  0
 17 18  1  0
 18 19  2  0
 19 20  1  0
 20 21  2  0
 21 22  1  0
 18 23  1  0
 22 23  2  0
 17 24  2  0
 15 25  1  0
 24 25  1  0
  5 26  1  0
 12 26  2  0
M  END
