GAB-REV-df64cf17-5-acrylamide
     RDKit          3D

 24 26  0  0  0  0  0  0  0  0999 V2000
    8.9070   -3.7290   20.1370 C   0  0  0  0  0  0  0  0  0  0  0  0
    7.7550   -2.7280   20.1600 C   0  0  0  0  0  0  0  0  0  0  0  0
    6.9030   -2.9870   21.4230 C   0  0  0  0  0  0  0  0  0  0  0  0
    5.2550   -3.4900   21.2750 O   0  0  0  0  0  0  0  0  0  0  0  0
    8.2650   -2.7220   22.6390 C   0  0  0  0  0  0  0  0  0  0  0  0
    8.2890   -1.1180   23.1430 C   0  0  0  0  0  0  0  0  0  0  0  0
    9.3780   -1.8130   23.8390 N   0  0  0  0  0  0  0  0  0  0  0  0
    8.5920   -2.5480   22.9820 C   0  0  0  0  0  0  0  0  0  0  0  0
    8.3560   -1.1710   23.2880 N   0  0  0  0  0  0  0  0  0  0  0  0
    9.0430   -0.5090   24.4490 C   0  0  0  0  0  0  0  0  0  0  0  0
    8.2890   -0.7720   25.7350 C   0  0  0  0  0  0  0  0  0  0  0  0
    7.4330   -2.5610   22.0460 C   0  0  0  0  0  0  0  0  0  0  0  0
    8.0020   -3.9090   22.0580 C   0  0  0  0  0  0  0  0  0  0  0  0
    9.0250   -4.7750   22.5770 N   0  0  0  0  0  0  0  0  0  0  0  0
    8.5360   -5.5510   23.7170 C   0  0  0  0  0  0  0  0  0  0  0  0
    9.4820   -5.5210   24.9200 C   0  0  0  0  0  0  0  0  0  0  0  0
    9.4560   -5.6350   26.3420 C   0  0  0  0  0  0  0  0  0  0  0  0
    9.5030   -5.7470   27.8990 C   0  0  0  0  0  0  0  0  0  0  0  0
    8.0700   -6.0470   28.5690 C   0  0  0  0  0  0  0  0  0  0  0  0
    6.9010   -6.2920   29.1140 N   0  0  0  0  0  0  0  0  0  0  0  0
    5.6840   -6.4560   28.2490 N   0  0  0  0  0  0  0  0  0  0  0  0
    6.1650   -6.2560   26.9950 C   0  0  0  0  0  0  0  0  0  0  0  0
    7.5890   -6.0040   27.0760 C   0  0  0  0  0  0  0  0  0  0  0  0
    8.6110   -5.7510   25.9920 C   0  0  0  0  0  0  0  0  0  0  0  0
  1  2  1  0
  2  3  1  0
  3  4  2  0
  3  5  1  0
  5  6  2  0
  6  7  1  0
  7  8  2  0
  8  9  1  0
  9 10  1  0
 10 11  1  0
  8 12  1  0
  5 13  1  0
 12 13  2  0
 13 14  1  0
 14 15  1  0
 15 16  1  0
 16 17  2  0
 17 18  1  0
 18 19  2  0
 19 20  1  0
 20 21  1  0
 21 22  2  0
 19 23  1  0
 22 23  1  0
 16 24  1  0
 23 24  2  0
M  END
