GAB-REV-df64cf17-19-acrylamide
     RDKit          3D

 24 26  0  0  0  0  0  0  0  0999 V2000
    6.9130   -3.0410   19.0120 C   0  0  0  0  0  0  0  0  0  0  0  0
    5.7590   -3.6090   19.8310 C   0  0  0  0  0  0  0  0  0  0  0  0
    5.6610   -3.1140   21.2620 C   0  0  0  0  0  0  0  0  0  0  0  0
    4.7520   -3.5850   21.9530 O   0  0  0  0  0  0  0  0  0  0  0  0
    6.5920   -2.0730   21.8280 C   0  0  0  0  0  0  0  0  0  0  0  0
    7.0890   -1.4480   23.0830 C   0  0  0  0  0  0  0  0  0  0  0  0
    8.0550   -0.4330   22.6480 N   0  0  0  0  0  0  0  0  0  0  0  0
    7.6970   -0.6940   24.0190 C   0  0  0  0  0  0  0  0  0  0  0  0
    7.1990   -1.4690   23.0340 N   0  0  0  0  0  0  0  0  0  0  0  0
    8.1570   -2.4180   22.4340 C   0  0  0  0  0  0  0  0  0  0  0  0
    9.2990   -2.4130   23.4330 C   0  0  0  0  0  0  0  0  0  0  0  0
    6.7690   -1.6800   24.5120 C   0  0  0  0  0  0  0  0  0  0  0  0
    6.3240   -2.0320   25.9290 C   0  0  0  0  0  0  0  0  0  0  0  0
    6.8730   -1.1880   27.0900 C   0  0  0  0  0  0  0  0  0  0  0  0
    6.9060   -1.6400   28.6280 C   0  0  0  0  0  0  0  0  0  0  0  0
    6.3960   -2.6990   28.3500 C   0  0  0  0  0  0  0  0  0  0  0  0
    6.9360   -1.2760   27.7710 C   0  0  0  0  0  0  0  0  0  0  0  0
    7.6090    0.0530   28.3310 C   0  0  0  0  0  0  0  0  0  0  0  0
    7.3760   -0.0080   26.9600 C   0  0  0  0  0  0  0  0  0  0  0  0
    8.1530    1.3050   28.2690 C   0  0  0  0  0  0  0  0  0  0  0  0
    8.7260    2.2670   28.7420 O   0  0  0  0  0  0  0  0  0  0  0  0
    8.1130    0.4730   29.3970 N   0  0  0  0  0  0  0  0  0  0  0  0
    7.3330   -0.9030   29.2470 C   0  0  0  0  0  0  0  0  0  0  0  0
    6.3230   -2.2660   23.2370 C   0  0  0  0  0  0  0  0  0  0  0  0
  1  2  1  0
  2  3  1  0
  3  4  2  0
  3  5  1  0
  5  6  2  0
  6  7  1  0
  7  8  2  0
  8  9  1  0
  9 10  1  0
 10 11  1  0
  8 12  1  0
 12 13  1  0
 13 14  1  0
 14 15  2  0
 15 16  1  0
 16 17  2  0
 17 18  1  0
 14 19  1  0
 18 19  2  0
 18 20  1  0
 20 21  2  0
 20 22  1  0
 17 23  1  0
 22 23  1  0
  5 24  1  0
 12 24  2  0
M  END
