GAB-REV-df64cf17-3-acrylamide
     RDKit          3D

 24 26  0  0  0  0  0  0  0  0999 V2000
    7.1430   -3.4870   19.1630 C   0  0  0  0  0  0  0  0  0  0  0  0
    7.7050   -2.6820   20.2450 C   0  0  0  0  0  0  0  0  0  0  0  0
    6.7360   -2.8760   21.4190 C   0  0  0  0  0  0  0  0  0  0  0  0
    5.2140   -3.4970   21.2700 O   0  0  0  0  0  0  0  0  0  0  0  0
    7.7760   -2.2470   22.5710 C   0  0  0  0  0  0  0  0  0  0  0  0
    9.3560   -1.6120   22.7340 C   0  0  0  0  0  0  0  0  0  0  0  0
   10.5970   -0.9950   23.3870 N   0  0  0  0  0  0  0  0  0  0  0  0
    9.7360   -1.0970   24.3440 C   0  0  0  0  0  0  0  0  0  0  0  0
    9.8320   -0.7490   25.6750 N   0  0  0  0  0  0  0  0  0  0  0  0
    8.8800    0.1090   26.3120 C   0  0  0  0  0  0  0  0  0  0  0  0
    8.7780   -0.4410   27.7070 C   0  0  0  0  0  0  0  0  0  0  0  0
    8.7180   -1.6790   23.5050 C   0  0  0  0  0  0  0  0  0  0  0  0
    7.5100   -2.0050   24.0900 O   0  0  0  0  0  0  0  0  0  0  0  0
    7.2910   -1.8980   25.4390 C   0  0  0  0  0  0  0  0  0  0  0  0
    6.5560   -0.6270   25.8560 C   0  0  0  0  0  0  0  0  0  0  0  0
    6.6170    0.6570   24.9780 C   0  0  0  0  0  0  0  0  0  0  0  0
    5.9380    1.8300   25.3790 C   0  0  0  0  0  0  0  0  0  0  0  0
    5.1710    1.7860   26.6550 C   0  0  0  0  0  0  0  0  0  0  0  0
    4.3810    2.8150   27.3210 N   0  0  0  0  0  0  0  0  0  0  0  0
    3.8100    2.2930   28.5640 N   0  0  0  0  0  0  0  0  0  0  0  0
    4.2930    1.0110   28.5530 C   0  0  0  0  0  0  0  0  0  0  0  0
    5.1420    0.6840   27.3680 C   0  0  0  0  0  0  0  0  0  0  0  0
    5.8060   -0.6250   27.0730 C   0  0  0  0  0  0  0  0  0  0  0  0
    8.8810   -1.9660   21.9750 C   0  0  0  0  0  0  0  0  0  0  0  0
  1  2  1  0
  2  3  1  0
  3  4  2  0
  3  5  1  0
  5  6  2  0
  6  7  1  0
  7  8  2  0
  8  9  1  0
  9 10  1  0
 10 11  1  0
  8 12  1  0
 12 13  1  0
 13 14  1  0
 14 15  1  0
 15 16  2  0
 16 17  1  0
 17 18  2  0
 18 19  1  0
 19 20  1  0
 20 21  2  0
 18 22  1  0
 21 22  1  0
 15 23  1  0
 22 23  2  0
  5 24  1  0
 12 24  2  0
M  END
