GAB-REV-df64cf17-1-acrylamide
     RDKit          3D

 24 25  0  0  0  0  0  0  0  0999 V2000
    7.2180   -3.2840   19.5710 C   0  0  0  0  0  0  0  0  0  0  0  0
    5.8600   -2.6970   19.9270 C   0  0  0  0  0  0  0  0  0  0  0  0
    5.6160   -2.7090   21.4370 C   0  0  0  0  0  0  0  0  0  0  0  0
    4.7530   -3.4860   21.8940 O   0  0  0  0  0  0  0  0  0  0  0  0
    6.4290   -1.7420   22.3240 C   0  0  0  0  0  0  0  0  0  0  0  0
    6.5600   -0.3100   22.2870 C   0  0  0  0  0  0  0  0  0  0  0  0
    7.1870   -1.3080   23.2110 N   0  0  0  0  0  0  0  0  0  0  0  0
    6.6630   -2.7420   22.8190 C   0  0  0  0  0  0  0  0  0  0  0  0
    6.0310   -1.8590   21.9720 N   0  0  0  0  0  0  0  0  0  0  0  0
    4.9320   -1.0360   22.4520 C   0  0  0  0  0  0  0  0  0  0  0  0
    4.3140   -1.9100   23.5290 C   0  0  0  0  0  0  0  0  0  0  0  0
    7.4870   -3.1860   23.8340 C   0  0  0  0  0  0  0  0  0  0  0  0
    7.1240   -4.6370   23.6060 C   0  0  0  0  0  0  0  0  0  0  0  0
    7.4560   -5.7190   24.6550 C   0  0  0  0  0  0  0  0  0  0  0  0
    7.7960   -7.0980   24.0530 C   0  0  0  0  0  0  0  0  0  0  0  0
    6.6050   -7.2980   23.1150 C   0  0  0  0  0  0  0  0  0  0  0  0
    5.3250   -6.5470   22.7210 C   0  0  0  0  0  0  0  0  0  0  0  0
    5.6640   -5.5930   23.6070 C   0  0  0  0  0  0  0  0  0  0  0  0
    6.3190   -6.9970   23.1280 C   0  0  0  0  0  0  0  0  0  0  0  0
    7.1770   -6.3730   24.2180 C   0  0  0  0  0  0  0  0  0  0  0  0
    8.4460   -6.9340   24.3740 N   0  0  0  0  0  0  0  0  0  0  0  0
    6.8130   -5.4720   24.9720 O   0  0  0  0  0  0  0  0  0  0  0  0
    7.3660   -7.9360   23.2410 C   0  0  0  0  0  0  0  0  0  0  0  0
    7.3240   -1.9560   23.4620 C   0  0  0  0  0  0  0  0  0  0  0  0
  1  2  1  0
  2  3  1  0
  3  4  2  0
  3  5  1  0
  5  6  2  0
  6  7  1  0
  7  8  2  0
  8  9  1  0
  9 10  1  0
 10 11  1  0
  8 12  1  0
 12 13  1  0
 13 14  1  0
 14 15  1  0
 15 16  2  0
 16 17  1  0
 17 18  2  0
 18 19  1  0
 19 20  1  0
 20 21  1  0
 20 22  2  0
 15 23  1  0
 19 23  2  0
  5 24  1  0
 12 24  2  0
M  END
