GAB-REV-df64cf17-8-vinylsulfonamide
     RDKit          3D

 27 29  0  0  0  0  0  0  0  0999 V2000
    6.4070   -3.5470   19.2580 C   0  0  0  0  0  0  0  0  0  0  0  0
    6.8170   -2.3620   20.0940 C   0  0  0  0  0  0  0  0  0  0  0  0
    5.7720   -2.2360   21.5190 S   0  0  0  0  0  0  0  0  0  0  0  0
    4.9070   -3.4360   21.6210 O   0  0  0  0  0  0  0  0  0  0  0  0
    5.1730   -0.9210   21.4690 O   0  0  0  0  0  0  0  0  0  0  0  0
    7.0940   -2.1980   22.7200 C   0  0  0  0  0  0  0  0  0  0  0  0
    8.7420   -2.5050   23.0860 C   0  0  0  0  0  0  0  0  0  0  0  0
    9.4620   -2.3150   24.2910 N   0  0  0  0  0  0  0  0  0  0  0  0
    8.3350   -1.9870   24.3770 C   0  0  0  0  0  0  0  0  0  0  0  0
    7.4380   -1.4180   25.4120 N   0  0  0  0  0  0  0  0  0  0  0  0
    7.8970   -0.3570   26.1980 C   0  0  0  0  0  0  0  0  0  0  0  0
    9.3030    0.0620   25.8250 C   0  0  0  0  0  0  0  0  0  0  0  0
    8.2190   -2.3840   23.0150 C   0  0  0  0  0  0  0  0  0  0  0  0
    6.9050   -1.8940   23.3610 O   0  0  0  0  0  0  0  0  0  0  0  0
    7.1310   -0.4720   23.5280 C   0  0  0  0  0  0  0  0  0  0  0  0
    8.4320    0.1630   23.2450 N   0  0  0  0  0  0  0  0  0  0  0  0
    8.1870    1.5580   23.5610 C   0  0  0  0  0  0  0  0  0  0  0  0
    9.4130    2.4400   23.3410 C   0  0  0  0  0  0  0  0  0  0  0  0
   10.7850    1.8330   23.1450 C   0  0  0  0  0  0  0  0  0  0  0  0
   11.9070    2.6370   22.9360 C   0  0  0  0  0  0  0  0  0  0  0  0
   11.8850    4.1560   22.8820 C   0  0  0  0  0  0  0  0  0  0  0  0
   12.9750    4.9010   22.6760 F   0  0  0  0  0  0  0  0  0  0  0  0
   10.5000    4.7590   23.0860 C   0  0  0  0  0  0  0  0  0  0  0  0
    9.2960    3.8580   23.3110 C   0  0  0  0  0  0  0  0  0  0  0  0
    6.9250    1.9600   24.0110 C   0  0  0  0  0  0  0  0  0  0  0  0
    5.8840    0.5850   24.0850 S   0  0  0  0  0  0  0  0  0  0  0  0
    7.7490   -2.6540   21.7530 C   0  0  0  0  0  0  0  0  0  0  0  0
  1  2  1  0
  3  2  1  0
  3  4  2  0
  3  5  2  0
  3  6  1  0
  6  7  2  0
  7  8  1  0
  8  9  2  0
  9 10  1  0
 10 11  1  0
 11 12  1  0
  9 13  1  0
 13 14  1  0
 14 15  1  0
 15 16  2  0
 16 17  1  0
 17 18  1  0
 18 19  2  0
 19 20  1  0
 20 21  2  0
 21 22  1  0
 21 23  1  0
 18 24  1  0
 23 24  2  0
 17 25  2  0
 15 26  1  0
 25 26  1  0
  6 27  1  0
 13 27  2  0
M  END
