GAB-REV-4a4e2ff3-15
     RDKit          3D

 27 30  0  0  0  0  0  0  0  0999 V2000
    9.0030    6.6220   22.5550 C   0  0  0  0  0  0  0  0  0  0  0  0
   10.2090    6.2480   23.3760 C   0  0  0  0  0  0  0  0  0  0  0  0
   10.2580    6.4130   24.5920 O   0  0  0  0  0  0  0  0  0  0  0  0
   11.2280    5.7060   22.6380 N   0  0  0  0  0  0  0  0  0  0  0  0
   12.3530    5.0570   23.3010 C   0  0  0  0  0  0  0  0  0  0  0  0
   12.6210    3.6600   22.7390 C   0  0  0  0  0  0  0  0  0  0  0  0
   11.6890    2.5900   23.2380 C   0  0  0  0  0  0  0  0  0  0  0  0
   10.5130    2.8290   23.8980 C   0  0  0  0  0  0  0  0  0  0  0  0
    9.9300    1.6320   24.1600 N   0  0  0  0  0  0  0  0  0  0  0  0
   10.7110    0.6120   23.6820 C   0  0  0  0  0  0  0  0  0  0  0  0
   10.4860   -0.7730   23.7140 C   0  0  0  0  0  0  0  0  0  0  0  0
    9.2670   -1.4250   24.3030 C   0  0  0  0  0  0  0  0  0  0  0  0
    8.1880   -1.6020   23.5580 N   0  0  0  0  0  0  0  0  0  0  0  0
    6.9010   -1.5660   24.0870 C   0  0  0  0  0  0  0  0  0  0  0  0
    6.3240   -2.2990   25.2650 C   0  0  0  0  0  0  0  0  0  0  0  0
    5.0100   -1.9550   25.4240 C   0  0  0  0  0  0  0  0  0  0  0  0
    4.0640   -2.3550   26.3550 C   0  0  0  0  0  0  0  0  0  0  0  0
    2.7720   -1.8170   26.2650 C   0  0  0  0  0  0  0  0  0  0  0  0
    2.4670   -0.8850   25.2330 C   0  0  0  0  0  0  0  0  0  0  0  0
    3.4520   -0.5080   24.3100 C   0  0  0  0  0  0  0  0  0  0  0  0
    4.7200   -1.0390   24.4030 C   0  0  0  0  0  0  0  0  0  0  0  0
    5.8340   -0.8140   23.6180 N   0  0  0  0  0  0  0  0  0  0  0  0
   11.4520   -1.5920   23.1460 C   0  0  0  0  0  0  0  0  0  0  0  0
   12.7020   -1.0710   22.5220 C   0  0  0  0  0  0  0  0  0  0  0  0
   13.5790   -1.8990   21.9930 F   0  0  0  0  0  0  0  0  0  0  0  0
   12.8890    0.2640   22.5180 C   0  0  0  0  0  0  0  0  0  0  0  0
   11.8140    1.1450   23.1230 C   0  0  0  0  0  0  0  0  0  0  0  0
  1  2  1  0
  2  3  2  0
  2  4  1  0
  4  5  1  0
  5  6  1  0
  6  7  1  0
  7  8  2  0
  8  9  1  0
  9 10  1  0
 10 11  1  0
 11 12  1  0
 12 13  1  0
 13 14  1  0
 14 15  2  0
 15 16  1  0
 16 17  2  0
 17 18  1  0
 18 19  2  0
 19 20  1  0
 16 21  1  0
 20 21  2  0
 14 22  1  0
 21 22  1  0
 11 23  2  0
 23 24  1  0
 24 25  1  0
 24 26  2  0
  7 27  1  0
 10 27  2  0
 26 27  1  0
M  END
