GAB-REV-70cc3ca5-13
     RDKit          3D

 21 22  0  0  0  0  0  0  0  0999 V2000
    5.4530    0.7560   22.0490 C   0  0  0  0  0  0  0  0  0  0  0  0
    5.7200    0.6600   20.5710 C   0  0  0  0  0  0  0  0  0  0  0  0
    4.9550    1.2740   19.5860 C   0  0  0  0  0  0  0  0  0  0  0  0
    5.2310    1.1620   18.2180 C   0  0  0  0  0  0  0  0  0  0  0  0
    6.2900    0.4210   17.7710 N   0  0  0  0  0  0  0  0  0  0  0  0
    7.1280   -0.2500   18.7550 C   0  0  0  0  0  0  0  0  0  0  0  0
    6.8180   -0.1020   20.0980 C   0  0  0  0  0  0  0  0  0  0  0  0
    7.7000   -0.7830   20.8820 N   0  0  0  0  0  0  0  0  0  0  0  0
    8.5040    0.0490   21.6280 C   0  0  0  0  0  0  0  0  0  0  0  0
    8.9700    1.3420   21.1620 O   0  0  0  0  0  0  0  0  0  0  0  0
    8.9510   -0.3630   23.0370 C   0  0  0  0  0  0  0  0  0  0  0  0
   10.2240    0.0400   23.3840 N   0  0  0  0  0  0  0  0  0  0  0  0
   10.8150    1.2510   23.1170 C   0  0  0  0  0  0  0  0  0  0  0  0
   10.1360    2.4080   22.8590 O   0  0  0  0  0  0  0  0  0  0  0  0
   12.2700    1.1210   23.1450 C   0  0  0  0  0  0  0  0  0  0  0  0
   12.6430   -0.1660   23.5170 C   0  0  0  0  0  0  0  0  0  0  0  0
   13.0110   -1.0860   22.5550 C   0  0  0  0  0  0  0  0  0  0  0  0
   13.3810   -2.3690   22.9360 C   0  0  0  0  0  0  0  0  0  0  0  0
   13.3860   -2.7030   24.2690 C   0  0  0  0  0  0  0  0  0  0  0  0
   13.0420   -1.9020   25.3230 N   0  0  0  0  0  0  0  0  0  0  0  0
   12.6590   -0.5910   24.8570 C   0  0  0  0  0  0  0  0  0  0  0  0
  1  2  1  0
  2  3  2  0
  3  4  1  0
  4  5  2  0
  5  6  1  0
  2  7  1  0
  6  7  2  0
  7  8  1  0
  8  9  1  0
  9 10  2  0
  9 11  1  0
 11 12  1  0
 12 13  1  0
 13 14  2  0
 13 15  1  0
 15 16  1  0
 16 17  2  0
 17 18  1  0
 18 19  2  0
 19 20  1  0
 16 21  1  0
 20 21  2  0
M  END
