GAB-REV-70cc3ca5-19-vinylsulfonamide
     RDKit          3D

 24 25  0  0  0  0  0  0  0  0999 V2000
    7.9380   -3.1340   19.3860 C   0  0  0  0  0  0  0  0  0  0  0  0
    6.4580   -3.4780   19.7000 C   0  0  0  0  0  0  0  0  0  0  0  0
    6.0030   -4.7290   20.8770 S   0  0  0  0  0  0  0  0  0  0  0  0
    5.0290   -4.1470   21.7750 O   0  0  0  0  0  0  0  0  0  0  0  0
    5.6700   -5.8950   20.1070 O   0  0  0  0  0  0  0  0  0  0  0  0
    7.4160   -4.8740   21.8660 C   0  0  0  0  0  0  0  0  0  0  0  0
    8.1110   -6.0480   22.2970 C   0  0  0  0  0  0  0  0  0  0  0  0
    9.2340   -5.8540   23.0890 C   0  0  0  0  0  0  0  0  0  0  0  0
    9.6580   -4.5660   23.4430 C   0  0  0  0  0  0  0  0  0  0  0  0
    8.9860   -3.4240   23.0290 C   0  0  0  0  0  0  0  0  0  0  0  0
    9.2520   -2.0810   23.2870 N   0  0  0  0  0  0  0  0  0  0  0  0
    8.5240   -1.1630   23.9970 C   0  0  0  0  0  0  0  0  0  0  0  0
    9.9490   -1.3370   22.2220 C   0  0  0  0  0  0  0  0  0  0  0  0
    8.9970   -0.3620   21.6070 C   0  0  0  0  0  0  0  0  0  0  0  0
    9.4470    0.9870   21.6690 O   0  0  0  0  0  0  0  0  0  0  0  0
    7.7880   -0.8360   21.0460 N   0  0  0  0  0  0  0  0  0  0  0  0
    6.9050   -0.1580   20.2000 C   0  0  0  0  0  0  0  0  0  0  0  0
    7.1240   -0.2350   18.8410 C   0  0  0  0  0  0  0  0  0  0  0  0
    6.3770    0.3560   17.8730 N   0  0  0  0  0  0  0  0  0  0  0  0
    5.3230    1.0780   18.3040 C   0  0  0  0  0  0  0  0  0  0  0  0
    5.0100    1.2140   19.6400 C   0  0  0  0  0  0  0  0  0  0  0  0
    5.7990    0.5960   20.6280 C   0  0  0  0  0  0  0  0  0  0  0  0
    5.3390    0.8270   22.0870 C   0  0  0  0  0  0  0  0  0  0  0  0
    7.8920   -3.6580   22.2570 C   0  0  0  0  0  0  0  0  0  0  0  0
  1  2  1  0
  3  2  1  0
  3  4  2  0
  3  5  2  0
  3  6  1  0
  6  7  2  0
  7  8  1  0
  8  9  2  0
  9 10  1  0
 10 11  1  0
 11 12  1  0
 11 13  1  0
 13 14  1  0
 14 15  2  0
 14 16  1  0
 16 17  1  0
 17 18  2  0
 18 19  1  0
 19 20  2  0
 20 21  1  0
 17 22  1  0
 21 22  2  0
 22 23  1  0
  6 24  1  0
 10 24  2  0
M  END
