GAB-REV-df64cf17-14-vinylsulfonamide
     RDKit          3D

 29 31  0  0  0  0  0  0  0  0999 V2000
    7.3790   -3.1670   19.3820 C   0  0  0  0  0  0  0  0  0  0  0  0
    6.0170   -2.5470   19.6980 C   0  0  0  0  0  0  0  0  0  0  0  0
    5.7880   -2.4810   21.4580 S   0  0  0  0  0  0  0  0  0  0  0  0
    4.8750   -3.5780   21.7920 O   0  0  0  0  0  0  0  0  0  0  0  0
    5.3930   -1.1190   21.7550 O   0  0  0  0  0  0  0  0  0  0  0  0
    7.4380   -2.7340   22.1180 C   0  0  0  0  0  0  0  0  0  0  0  0
    8.9040   -2.4260   22.6780 C   0  0  0  0  0  0  0  0  0  0  0  0
   10.2220   -2.3950   23.1910 N   0  0  0  0  0  0  0  0  0  0  0  0
    9.8350   -1.2200   22.9960 C   0  0  0  0  0  0  0  0  0  0  0  0
   10.3560    0.1480   23.1300 N   0  0  0  0  0  0  0  0  0  0  0  0
   10.5760    0.6240   24.4160 C   0  0  0  0  0  0  0  0  0  0  0  0
    9.6020    0.0310   25.4150 C   0  0  0  0  0  0  0  0  0  0  0  0
    8.6260   -1.7650   22.5610 C   0  0  0  0  0  0  0  0  0  0  0  0
    8.6500   -3.2260   22.6750 O   0  0  0  0  0  0  0  0  0  0  0  0
    8.2880   -3.7490   24.0120 C   0  0  0  0  0  0  0  0  0  0  0  0
    7.7110   -5.1030   24.2630 C   0  0  0  0  0  0  0  0  0  0  0  0
    7.3770   -6.1340   23.1820 C   0  0  0  0  0  0  0  0  0  0  0  0
    7.5190   -5.2300   25.5950 N   0  0  0  0  0  0  0  0  0  0  0  0
    8.6360   -5.6020   26.3740 C   0  0  0  0  0  0  0  0  0  0  0  0
    7.2690   -3.8190   25.6290 N   0  0  0  0  0  0  0  0  0  0  0  0
    6.0060   -3.3760   25.4890 C   0  0  0  0  0  0  0  0  0  0  0  0
    5.6210   -1.9250   25.6340 C   0  0  0  0  0  0  0  0  0  0  0  0
    4.1470   -1.5440   25.4490 C   0  0  0  0  0  0  0  0  0  0  0  0
    3.1350   -2.6600   25.1270 C   0  0  0  0  0  0  0  0  0  0  0  0
    3.6680   -4.0710   25.0110 C   0  0  0  0  0  0  0  0  0  0  0  0
    5.1270   -4.4060   25.2000 C   0  0  0  0  0  0  0  0  0  0  0  0
    8.4470   -3.0470   25.2760 C   0  0  0  0  0  0  0  0  0  0  0  0
    9.4140   -2.4990   24.8120 O   0  0  0  0  0  0  0  0  0  0  0  0
    7.4870   -1.2860   22.0830 C   0  0  0  0  0  0  0  0  0  0  0  0
  1  2  1  0
  3  2  1  0
  3  4  2  0
  3  5  2  0
  3  6  1  0
  6  7  2  0
  7  8  1  0
  8  9  2  0
  9 10  1  0
 10 11  1  0
 11 12  1  0
  9 13  1  0
 13 14  1  0
 14 15  1  0
 15 16  2  0
 16 17  1  0
 16 18  1  0
 18 19  1  0
 18 20  1  0
 20 21  1  0
 21 22  2  0
 22 23  1  0
 23 24  2  0
 24 25  1  0
 21 26  1  0
 25 26  2  0
 15 27  1  0
 20 27  1  0
 27 28  2  0
  6 29  1  0
 13 29  2  0
M  END
