GAB-REV-df64cf17-9-nitrile
     RDKit          3D

 23 24  0  0  0  0  0  0  0  0999 V2000
    8.4420   -3.3940   19.7790 C   0  0  0  0  0  0  0  0  0  0  0  0
    7.1400   -3.3260   19.4660 N   0  0  0  0  0  0  0  0  0  0  0  0
    9.1270   -2.6060   21.1600 C   0  0  0  0  0  0  0  0  0  0  0  0
   10.5250   -1.8190   21.5700 C   0  0  0  0  0  0  0  0  0  0  0  0
   10.8650   -1.2150   22.7680 N   0  0  0  0  0  0  0  0  0  0  0  0
    9.9980   -1.2300   23.8160 C   0  0  0  0  0  0  0  0  0  0  0  0
   10.2420   -0.6230   25.0860 N   0  0  0  0  0  0  0  0  0  0  0  0
    9.0080   -0.6030   25.8910 C   0  0  0  0  0  0  0  0  0  0  0  0
    9.2390    0.0460   27.2640 C   0  0  0  0  0  0  0  0  0  0  0  0
    8.7780   -1.8870   23.6320 C   0  0  0  0  0  0  0  0  0  0  0  0
    7.6740   -2.0520   24.6510 C   0  0  0  0  0  0  0  0  0  0  0  0
    7.2260   -3.4220   24.4500 N   0  0  0  0  0  0  0  0  0  0  0  0
    7.1810   -4.4640   25.7580 S   0  0  0  0  0  0  0  0  0  0  0  0
    6.8470   -3.6960   26.9400 O   0  0  0  0  0  0  0  0  0  0  0  0
    8.3730   -5.2810   25.7060 O   0  0  0  0  0  0  0  0  0  0  0  0
    5.7490   -5.5380   25.3620 C   0  0  0  0  0  0  0  0  0  0  0  0
    4.9330   -6.2210   26.4460 C   0  0  0  0  0  0  0  0  0  0  0  0
    3.7600   -7.1040   26.1030 C   0  0  0  0  0  0  0  0  0  0  0  0
    3.3830   -7.3180   24.6560 C   0  0  0  0  0  0  0  0  0  0  0  0
    2.3470   -8.0970   24.3170 F   0  0  0  0  0  0  0  0  0  0  0  0
    4.1630   -6.6680   23.6770 C   0  0  0  0  0  0  0  0  0  0  0  0
    5.3540   -5.7720   24.0270 C   0  0  0  0  0  0  0  0  0  0  0  0
    8.3510   -2.5690   22.2990 C   0  0  0  0  0  0  0  0  0  0  0  0
  1  2  2  3
  1  3  1  0
  3  4  2  0
  4  5  1  0
  5  6  2  0
  6  7  1  0
  7  8  1  0
  8  9  1  0
  6 10  1  0
 10 11  1  0
 11 12  1  0
 13 12  1  0
 13 14  2  0
 13 15  2  0
 13 16  1  0
 16 17  2  0
 17 18  1  0
 18 19  2  0
 19 20  1  0
 19 21  1  0
 16 22  1  0
 21 22  2  0
  3 23  1  0
 10 23  2  0
M  END
