GAB-REV-df64cf17-16-vinylsulfonamide
     RDKit          3D

 27 29  0  0  0  0  0  0  0  0999 V2000
    7.5450   -4.3060   20.3570 C   0  0  0  0  0  0  0  0  0  0  0  0
    7.1850   -4.5270   21.7750 C   0  0  0  0  0  0  0  0  0  0  0  0
    6.2690   -3.0840   21.9480 S   0  0  0  0  0  0  0  0  0  0  0  0
    5.0460   -3.2440   21.0120 O   0  0  0  0  0  0  0  0  0  0  0  0
    5.8940   -3.0640   23.3410 O   0  0  0  0  0  0  0  0  0  0  0  0
    7.6660   -1.8050   21.8730 C   0  0  0  0  0  0  0  0  0  0  0  0
    8.9890   -0.9550   22.3940 C   0  0  0  0  0  0  0  0  0  0  0  0
    9.8410   -0.9010   23.5060 N   0  0  0  0  0  0  0  0  0  0  0  0
    9.5960   -1.7910   24.4760 C   0  0  0  0  0  0  0  0  0  0  0  0
   10.6550   -1.0880   25.0900 N   0  0  0  0  0  0  0  0  0  0  0  0
    9.9390    0.0540   25.4040 C   0  0  0  0  0  0  0  0  0  0  0  0
    9.3070    0.0830   26.7920 C   0  0  0  0  0  0  0  0  0  0  0  0
    8.6850   -2.0030   23.4840 C   0  0  0  0  0  0  0  0  0  0  0  0
    8.2280   -3.1410   24.3100 N   0  0  0  0  0  0  0  0  0  0  0  0
    7.2670   -2.6060   25.2860 C   0  0  0  0  0  0  0  0  0  0  0  0
    9.0310   -4.2710   24.8050 C   0  0  0  0  0  0  0  0  0  0  0  0
    7.7820   -4.6900   25.3150 N   0  0  0  0  0  0  0  0  0  0  0  0
    7.5250   -5.8000   26.0500 C   0  0  0  0  0  0  0  0  0  0  0  0
    6.1940   -6.2540   26.6220 C   0  0  0  0  0  0  0  0  0  0  0  0
    6.0850   -6.5990   27.9650 C   0  0  0  0  0  0  0  0  0  0  0  0
    4.8560   -7.0740   28.6770 C   0  0  0  0  0  0  0  0  0  0  0  0
    3.6140   -7.1760   27.8140 C   0  0  0  0  0  0  0  0  0  0  0  0
    3.7360   -6.7930   26.3370 C   0  0  0  0  0  0  0  0  0  0  0  0
    5.0750   -6.3320   25.7910 C   0  0  0  0  0  0  0  0  0  0  0  0
    8.6350   -6.5020   26.2470 C   0  0  0  0  0  0  0  0  0  0  0  0
    9.8500   -5.7140   25.4860 S   0  0  0  0  0  0  0  0  0  0  0  0
    7.6790   -2.6430   22.9610 C   0  0  0  0  0  0  0  0  0  0  0  0
  1  2  1  0
  3  2  1  0
  3  4  2  0
  3  5  2  0
  3  6  1  0
  6  7  2  0
  7  8  1  0
  8  9  2  0
  9 10  1  0
 10 11  1  0
 11 12  1  0
  9 13  1  0
 13 14  1  0
 14 15  1  0
 14 16  1  0
 16 17  2  0
 17 18  1  0
 18 19  1  0
 19 20  2  0
 20 21  1  0
 21 22  2  0
 22 23  1  0
 19 24  1  0
 23 24  2  0
 18 25  2  0
 16 26  1  0
 25 26  1  0
  6 27  1  0
 13 27  2  0
M  END
