GAB-REV-4a4e2ff3-13-nitrile
     RDKit          3D

 26 28  0  0  0  0  0  0  0  0999 V2000
    6.9560   -3.3130   19.4910 C   0  0  0  0  0  0  0  0  0  0  0  0
    6.4530   -3.0520   18.3570 N   0  0  0  0  0  0  0  0  0  0  0  0
    6.6890   -2.2330   20.5130 C   0  0  0  0  0  0  0  0  0  0  0  0
    5.4540   -1.4100   20.1000 C   0  0  0  0  0  0  0  0  0  0  0  0
    5.0120   -0.2580   20.9890 C   0  0  0  0  0  0  0  0  0  0  0  0
    5.8320   -0.0350   22.2020 C   0  0  0  0  0  0  0  0  0  0  0  0
    6.9250   -0.7870   22.5390 C   0  0  0  0  0  0  0  0  0  0  0  0
    7.3710   -1.8520   21.7510 C   0  0  0  0  0  0  0  0  0  0  0  0
    8.5280   -2.4560   22.3190 C   0  0  0  0  0  0  0  0  0  0  0  0
    9.0540   -1.7420   23.5640 N   0  0  0  0  0  0  0  0  0  0  0  0
   10.2680   -0.8940   23.2680 C   0  0  0  0  0  0  0  0  0  0  0  0
   11.4330   -1.7040   22.7410 C   0  0  0  0  0  0  0  0  0  0  0  0
   12.6900   -0.9320   22.3960 C   0  0  0  0  0  0  0  0  0  0  0  0
   13.7050   -1.6240   21.9300 F   0  0  0  0  0  0  0  0  0  0  0  0
   12.7090    0.4560   22.5710 C   0  0  0  0  0  0  0  0  0  0  0  0
   11.6300    1.1770   23.0400 C   0  0  0  0  0  0  0  0  0  0  0  0
   11.5280    2.5470   23.2050 C   0  0  0  0  0  0  0  0  0  0  0  0
   12.5100    3.5260   22.8700 C   0  0  0  0  0  0  0  0  0  0  0  0
   12.2810    4.7960   23.4200 C   0  0  0  0  0  0  0  0  0  0  0  0
   11.2460    5.5060   22.6440 N   0  0  0  0  0  0  0  0  0  0  0  0
   10.2260    6.1750   23.2570 C   0  0  0  0  0  0  0  0  0  0  0  0
    8.9790    6.6730   22.5310 C   0  0  0  0  0  0  0  0  0  0  0  0
   10.3030    6.4010   24.4630 O   0  0  0  0  0  0  0  0  0  0  0  0
   10.2840    2.8500   23.7340 C   0  0  0  0  0  0  0  0  0  0  0  0
    9.6020    1.6410   23.8650 N   0  0  0  0  0  0  0  0  0  0  0  0
   10.4580    0.5180   23.3940 C   0  0  0  0  0  0  0  0  0  0  0  0
  1  2  2  3
  1  3  1  0
  3  4  2  0
  4  5  1  0
  5  6  2  0
  6  7  1  0
  3  8  1  0
  7  8  2  0
  8  9  1  0
  9 10  1  0
 10 11  1  0
 11 12  2  0
 12 13  1  0
 13 14  1  0
 13 15  2  0
 15 16  1  0
 16 17  1  0
 17 18  1  0
 18 19  1  0
 19 20  1  0
 20 21  1  0
 21 22  1  0
 21 23  2  0
 17 24  2  0
 24 25  1  0
 11 26  1  0
 16 26  2  0
 25 26  1  0
M  END
