GAB-REV-df64cf17-22-vinylsulfonamide
     RDKit          3D

 26 28  0  0  0  0  0  0  0  0999 V2000
    7.3090   -3.1610   19.3420 C   0  0  0  0  0  0  0  0  0  0  0  0
    5.9320   -2.5470   19.5670 C   0  0  0  0  0  0  0  0  0  0  0  0
    5.6070   -2.3840   21.3090 S   0  0  0  0  0  0  0  0  0  0  0  0
    4.8970   -3.5820   21.7570 O   0  0  0  0  0  0  0  0  0  0  0  0
    4.9550   -1.1040   21.4420 O   0  0  0  0  0  0  0  0  0  0  0  0
    7.1790   -2.1790   22.1160 C   0  0  0  0  0  0  0  0  0  0  0  0
    8.4100   -1.6180   21.1860 C   0  0  0  0  0  0  0  0  0  0  0  0
    9.0670   -1.7140   22.3060 N   0  0  0  0  0  0  0  0  0  0  0  0
    8.0200   -2.1440   22.8420 C   0  0  0  0  0  0  0  0  0  0  0  0
    7.0080   -2.6700   23.8030 N   0  0  0  0  0  0  0  0  0  0  0  0
    6.7980   -4.0650   23.8840 C   0  0  0  0  0  0  0  0  0  0  0  0
    7.8980   -4.7720   24.6430 C   0  0  0  0  0  0  0  0  0  0  0  0
    8.6070   -2.2580   24.0500 C   0  0  0  0  0  0  0  0  0  0  0  0
    8.4340   -2.6330   25.4690 N   0  0  0  0  0  0  0  0  0  0  0  0
    8.4980   -1.3630   26.1930 C   0  0  0  0  0  0  0  0  0  0  0  0
    7.7210   -1.4290   27.5060 C   0  0  0  0  0  0  0  0  0  0  0  0
    8.2080   -0.6330   28.7100 C   0  0  0  0  0  0  0  0  0  0  0  0
    7.5650   -0.5790   30.0210 C   0  0  0  0  0  0  0  0  0  0  0  0
    7.7060   -0.0170   31.2470 C   0  0  0  0  0  0  0  0  0  0  0  0
    8.9320    0.8860   31.4050 C   0  0  0  0  0  0  0  0  0  0  0  0
    9.6680    1.6120   31.9850 N   0  0  0  0  0  0  0  0  0  0  0  0
   10.7060    2.0710   31.3190 C   0  0  0  0  0  0  0  0  0  0  0  0
   10.7680    1.6440   30.0810 O   0  0  0  0  0  0  0  0  0  0  0  0
    9.6320    0.8680   30.0870 C   0  0  0  0  0  0  0  0  0  0  0  0
    9.3450    0.1600   28.7310 C   0  0  0  0  0  0  0  0  0  0  0  0
    7.3270   -2.4940   23.5800 C   0  0  0  0  0  0  0  0  0  0  0  0
  1  2  1  0
  3  2  1  0
  3  4  2  0
  3  5  2  0
  3  6  1  0
  6  7  2  0
  7  8  1  0
  8  9  2  0
  9 10  1  0
 10 11  1  0
 11 12  1  0
  9 13  1  0
 13 14  1  0
 14 15  1  0
 15 16  1  0
 16 17  1  0
 17 18  2  0
 18 19  1  0
 19 20  2  0
 20 21  1  0
 21 22  2  0
 22 23  1  0
 20 24  1  0
 23 24  1  0
 17 25  1  0
 24 25  2  0
  6 26  1  0
 13 26  2  0
M  END
