GAB-REV-70cc3ca5-4
     RDKit          3D

 22 24  0  0  0  0  0  0  0  0999 V2000
    4.6610    1.8040   21.7160 C   0  0  0  0  0  0  0  0  0  0  0  0
    5.1920    1.2450   20.4340 C   0  0  0  0  0  0  0  0  0  0  0  0
    4.5850    1.3020   19.2030 C   0  0  0  0  0  0  0  0  0  0  0  0
    5.1460    0.7540   18.0490 C   0  0  0  0  0  0  0  0  0  0  0  0
    6.3460    0.1050   18.0640 N   0  0  0  0  0  0  0  0  0  0  0  0
    7.0330    0.0110   19.3540 C   0  0  0  0  0  0  0  0  0  0  0  0
    6.4190    0.6040   20.4770 C   0  0  0  0  0  0  0  0  0  0  0  0
    7.0710    0.5450   21.6760 N   0  0  0  0  0  0  0  0  0  0  0  0
    8.3010    0.0520   21.5430 C   0  0  0  0  0  0  0  0  0  0  0  0
    9.4820    0.8570   21.6160 O   0  0  0  0  0  0  0  0  0  0  0  0
    8.4110   -1.4090   21.2930 C   0  0  0  0  0  0  0  0  0  0  0  0
    9.5870   -1.9540   21.6280 N   0  0  0  0  0  0  0  0  0  0  0  0
    9.8510   -2.5860   22.7920 C   0  0  0  0  0  0  0  0  0  0  0  0
    8.7800   -3.3760   23.4440 C   0  0  0  0  0  0  0  0  0  0  0  0
    8.9800   -4.0640   24.6340 C   0  0  0  0  0  0  0  0  0  0  0  0
   10.2520   -3.9370   25.1170 N   0  0  0  0  0  0  0  0  0  0  0  0
   11.3230   -3.2150   24.5840 C   0  0  0  0  0  0  0  0  0  0  0  0
   12.6030   -3.1300   25.1370 C   0  0  0  0  0  0  0  0  0  0  0  0
   13.5860   -2.3770   24.5380 C   0  0  0  0  0  0  0  0  0  0  0  0
   13.3670   -1.6740   23.3490 C   0  0  0  0  0  0  0  0  0  0  0  0
   11.9890   -1.7820   22.7450 C   0  0  0  0  0  0  0  0  0  0  0  0
   11.0520   -2.5430   23.4000 C   0  0  0  0  0  0  0  0  0  0  0  0
  1  2  1  0
  2  3  2  0
  3  4  1  0
  4  5  2  0
  5  6  1  0
  2  7  1  0
  6  7  2  0
  7  8  1  0
  8  9  1  0
  9 10  2  0
  9 11  1  0
 11 12  1  0
 12 13  1  0
 13 14  2  0
 14 15  1  0
 15 16  2  0
 16 17  1  0
 17 18  1  0
 18 19  2  0
 19 20  1  0
 20 21  2  0
 13 22  1  0
 17 22  2  0
 21 22  1  0
M  END
