GAB-REV-df64cf17-11-vinylsulfonamide
     RDKit          3D

 26 28  0  0  0  0  0  0  0  0999 V2000
    6.6470   -4.6190   20.0910 C   0  0  0  0  0  0  0  0  0  0  0  0
    7.4820   -3.4300   19.8940 C   0  0  0  0  0  0  0  0  0  0  0  0
    6.7390   -2.4680   21.0170 S   0  0  0  0  0  0  0  0  0  0  0  0
    5.1380   -3.3040   21.1340 O   0  0  0  0  0  0  0  0  0  0  0  0
    7.0380   -1.2680   20.2350 O   0  0  0  0  0  0  0  0  0  0  0  0
    8.2550   -2.0840   22.1480 C   0  0  0  0  0  0  0  0  0  0  0  0
    8.8160   -1.2840   23.2640 C   0  0  0  0  0  0  0  0  0  0  0  0
   10.0780   -1.6610   23.3710 N   0  0  0  0  0  0  0  0  0  0  0  0
    9.6400   -0.8040   24.2070 C   0  0  0  0  0  0  0  0  0  0  0  0
   10.2140   -0.0910   25.3540 N   0  0  0  0  0  0  0  0  0  0  0  0
    9.6160   -0.3930   26.5900 C   0  0  0  0  0  0  0  0  0  0  0  0
    8.3840    0.3980   26.9220 C   0  0  0  0  0  0  0  0  0  0  0  0
    8.2280   -0.5710   23.8480 C   0  0  0  0  0  0  0  0  0  0  0  0
    7.5280    0.4140   24.7070 N   0  0  0  0  0  0  0  0  0  0  0  0
    6.1840   -0.1320   24.9470 C   0  0  0  0  0  0  0  0  0  0  0  0
    7.3700    1.8740   24.5400 C   0  0  0  0  0  0  0  0  0  0  0  0
    6.9900    3.3100   24.0050 C   0  0  0  0  0  0  0  0  0  0  0  0
    6.2320    3.8040   22.7860 C   0  0  0  0  0  0  0  0  0  0  0  0
    5.7720    2.8640   21.9630 C   0  0  0  0  0  0  0  0  0  0  0  0
    5.0420    3.0920   20.7720 N   0  0  0  0  0  0  0  0  0  0  0  0
    4.6800    1.9650   20.0910 C   0  0  0  0  0  0  0  0  0  0  0  0
    3.9120    1.8260   18.8050 C   0  0  0  0  0  0  0  0  0  0  0  0
    5.2320    0.5410   20.9090 S   0  0  0  0  0  0  0  0  0  0  0  0
    5.9620    1.4770   22.1840 C   0  0  0  0  0  0  0  0  0  0  0  0
    6.7400    1.1480   23.4490 C   0  0  0  0  0  0  0  0  0  0  0  0
    7.3620   -1.1780   22.7570 C   0  0  0  0  0  0  0  0  0  0  0  0
  1  2  1  0
  3  2  1  0
  3  4  2  0
  3  5  2  0
  3  6  1  0
  6  7  2  0
  7  8  1  0
  8  9  2  0
  9 10  1  0
 10 11  1  0
 11 12  1  0
  9 13  1  0
 13 14  1  0
 14 15  1  0
 14 16  1  0
 16 17  2  0
 17 18  1  0
 18 19  2  0
 19 20  1  0
 20 21  2  0
 21 22  1  0
 21 23  1  0
 19 24  1  0
 23 24  1  0
 16 25  1  0
 24 25  2  0
  6 26  1  0
 13 26  2  0
M  END
