GAB-REV-4a4e2ff3-6
     RDKit          3D

 27 29  0  0  0  0  0  0  0  0999 V2000
    9.1430   -6.2040   26.8630 C   0  0  0  0  0  0  0  0  0  0  0  0
    9.9310   -5.2640   26.1670 O   0  0  0  0  0  0  0  0  0  0  0  0
    9.1690   -4.5650   25.2030 C   0  0  0  0  0  0  0  0  0  0  0  0
    9.4610   -3.1150   25.0220 C   0  0  0  0  0  0  0  0  0  0  0  0
    8.7820   -2.3440   24.1210 C   0  0  0  0  0  0  0  0  0  0  0  0
    9.1520   -1.0590   24.0920 N   0  0  0  0  0  0  0  0  0  0  0  0
   10.3590   -0.7200   23.6010 C   0  0  0  0  0  0  0  0  0  0  0  0
   11.3840   -1.5650   23.0870 C   0  0  0  0  0  0  0  0  0  0  0  0
   12.6290   -1.1010   22.5850 C   0  0  0  0  0  0  0  0  0  0  0  0
   13.5130   -1.9770   22.1260 F   0  0  0  0  0  0  0  0  0  0  0  0
   12.9600    0.4010   22.5640 C   0  0  0  0  0  0  0  0  0  0  0  0
   11.8680    1.3210   23.0890 C   0  0  0  0  0  0  0  0  0  0  0  0
   11.8080    2.8330   23.1910 C   0  0  0  0  0  0  0  0  0  0  0  0
   12.8250    3.9190   22.7700 C   0  0  0  0  0  0  0  0  0  0  0  0
   12.2960    5.2770   23.2240 C   0  0  0  0  0  0  0  0  0  0  0  0
   11.2850    5.8650   22.5480 N   0  0  0  0  0  0  0  0  0  0  0  0
   10.1680    6.3340   23.3300 C   0  0  0  0  0  0  0  0  0  0  0  0
    8.8810    6.6930   22.5800 C   0  0  0  0  0  0  0  0  0  0  0  0
   10.2430    6.4480   24.5490 O   0  0  0  0  0  0  0  0  0  0  0  0
   10.5850    3.1430   23.7620 C   0  0  0  0  0  0  0  0  0  0  0  0
    9.9770    1.9350   23.9600 N   0  0  0  0  0  0  0  0  0  0  0  0
   10.6830    0.7650   23.5690 C   0  0  0  0  0  0  0  0  0  0  0  0
    7.7850   -2.9500   23.3390 C   0  0  0  0  0  0  0  0  0  0  0  0
    7.5100   -4.3000   23.5050 C   0  0  0  0  0  0  0  0  0  0  0  0
    6.6220   -4.7680   22.7920 O   0  0  0  0  0  0  0  0  0  0  0  0
    6.7200   -6.1780   22.5120 C   0  0  0  0  0  0  0  0  0  0  0  0
    8.1710   -5.1110   24.4110 C   0  0  0  0  0  0  0  0  0  0  0  0
  1  2  1  0
  2  3  1  0
  3  4  2  0
  4  5  1  0
  5  6  1  0
  6  7  1  0
  7  8  2  0
  8  9  1  0
  9 10  1  0
  9 11  2  0
 11 12  1  0
 12 13  1  0
 13 14  1  0
 14 15  1  0
 15 16  1  0
 16 17  1  0
 17 18  1  0
 17 19  2  0
 13 20  2  0
 20 21  1  0
  7 22  1  0
 12 22  2  0
 21 22  1  0
  5 23  2  0
 23 24  1  0
 24 25  1  0
 25 26  1  0
  3 27  1  0
 24 27  2  0
M  END
