GAB-REV-df64cf17-9-chloroacetamide
     RDKit          3D

 24 25  0  0  0  0  0  0  0  0999 V2000
    8.4770   -3.5700   20.1930 C   0  0  0  0  0  0  0  0  0  0  0  0
    7.5370   -2.3920   20.0870 C   0  0  0  0  0  0  0  0  0  0  0  0
    6.9580   -3.1080   19.0880 O   0  0  0  0  0  0  0  0  0  0  0  0
    8.4210   -1.7910   21.3280 C   0  0  0  0  0  0  0  0  0  0  0  0
    9.8360   -1.1120   21.5550 C   0  0  0  0  0  0  0  0  0  0  0  0
   10.3420   -0.6310   22.7440 N   0  0  0  0  0  0  0  0  0  0  0  0
    9.5740   -0.7430   23.8430 C   0  0  0  0  0  0  0  0  0  0  0  0
   10.0350   -0.2120   25.1630 N   0  0  0  0  0  0  0  0  0  0  0  0
    9.3400   -0.5490   26.3270 C   0  0  0  0  0  0  0  0  0  0  0  0
    8.3940    0.5670   26.7000 C   0  0  0  0  0  0  0  0  0  0  0  0
    8.2920   -1.3670   23.7730 C   0  0  0  0  0  0  0  0  0  0  0  0
    7.3890   -1.5410   24.9750 C   0  0  0  0  0  0  0  0  0  0  0  0
    8.1710   -2.5480   25.7160 N   0  0  0  0  0  0  0  0  0  0  0  0
    7.4060   -3.9900   26.1930 S   0  0  0  0  0  0  0  0  0  0  0  0
    8.4260   -4.9600   26.5280 O   0  0  0  0  0  0  0  0  0  0  0  0
    6.3130   -3.6610   27.0800 O   0  0  0  0  0  0  0  0  0  0  0  0
    6.7470   -4.4420   24.6170 C   0  0  0  0  0  0  0  0  0  0  0  0
    7.3840   -5.5440   23.8070 C   0  0  0  0  0  0  0  0  0  0  0  0
    6.8410   -5.9290   22.4620 C   0  0  0  0  0  0  0  0  0  0  0  0
    5.7340   -5.2540   21.9600 C   0  0  0  0  0  0  0  0  0  0  0  0
    5.3270   -5.6700   20.7410 F   0  0  0  0  0  0  0  0  0  0  0  0
    5.0340   -4.1300   22.7240 C   0  0  0  0  0  0  0  0  0  0  0  0
    5.6370   -3.7930   24.0810 C   0  0  0  0  0  0  0  0  0  0  0  0
    7.7670   -1.8600   22.5490 C   0  0  0  0  0  0  0  0  0  0  0  0
  1  2  1  0
  2  3  2  0
  2  4  1  0
  4  5  2  0
  5  6  1  0
  6  7  2  0
  7  8  1  0
  8  9  1  0
  9 10  1  0
  7 11  1  0
 11 12  1  0
 12 13  1  0
 14 13  1  0
 14 15  2  0
 14 16  2  0
 14 17  1  0
 17 18  2  0
 18 19  1  0
 19 20  2  0
 20 21  1  0
 20 22  1  0
 17 23  1  0
 22 23  2  0
  4 24  1  0
 11 24  2  0
M  END
