GAB-REV-4a4e2ff3-4
     RDKit          3D

 28 31  0  0  0  0  0  0  0  0999 V2000
    9.0160    6.6170   22.5790 C   0  0  0  0  0  0  0  0  0  0  0  0
   10.2410    6.2270   23.3780 C   0  0  0  0  0  0  0  0  0  0  0  0
   10.3030    6.3310   24.6050 O   0  0  0  0  0  0  0  0  0  0  0  0
   11.3220    5.7200   22.5390 N   0  0  0  0  0  0  0  0  0  0  0  0
   12.2160    4.8220   23.2790 C   0  0  0  0  0  0  0  0  0  0  0  0
   12.4700    3.5430   22.8140 C   0  0  0  0  0  0  0  0  0  0  0  0
   11.6640    2.4960   23.2740 C   0  0  0  0  0  0  0  0  0  0  0  0
   10.4830    2.6570   23.9900 C   0  0  0  0  0  0  0  0  0  0  0  0
    9.8580    1.4710   24.3040 N   0  0  0  0  0  0  0  0  0  0  0  0
   10.7610    0.4790   23.7070 C   0  0  0  0  0  0  0  0  0  0  0  0
   10.5180   -1.0450   23.7470 C   0  0  0  0  0  0  0  0  0  0  0  0
    9.2720   -1.6260   24.4500 C   0  0  0  0  0  0  0  0  0  0  0  0
    9.2550   -2.9930   24.3250 N   0  0  0  0  0  0  0  0  0  0  0  0
    8.6220   -3.7270   25.4340 C   0  0  0  0  0  0  0  0  0  0  0  0
    9.5100   -4.5350   26.4050 C   0  0  0  0  0  0  0  0  0  0  0  0
    8.9000   -5.3060   27.5660 C   0  0  0  0  0  0  0  0  0  0  0  0
    7.3860   -5.2400   27.7100 C   0  0  0  0  0  0  0  0  0  0  0  0
    6.6190   -4.4280   26.7050 C   0  0  0  0  0  0  0  0  0  0  0  0
    7.2180   -3.7240   25.6450 C   0  0  0  0  0  0  0  0  0  0  0  0
    5.1690   -4.5060   27.0330 C   0  0  0  0  0  0  0  0  0  0  0  0
    4.1930   -4.0020   26.4890 O   0  0  0  0  0  0  0  0  0  0  0  0
    5.2860   -5.3530   28.1740 N   0  0  0  0  0  0  0  0  0  0  0  0
    6.5380   -5.8250   28.6550 C   0  0  0  0  0  0  0  0  0  0  0  0
   11.6160   -1.7440   23.0390 C   0  0  0  0  0  0  0  0  0  0  0  0
   12.6930   -1.0700   22.4610 C   0  0  0  0  0  0  0  0  0  0  0  0
   13.6140   -1.7880   21.8500 F   0  0  0  0  0  0  0  0  0  0  0  0
   12.8120    0.3100   22.5070 C   0  0  0  0  0  0  0  0  0  0  0  0
   11.8490    1.0900   23.1060 C   0  0  0  0  0  0  0  0  0  0  0  0
  1  2  1  0
  2  3  2  0
  2  4  1  0
  4  5  1  0
  5  6  1  0
  6  7  1  0
  7  8  2  0
  8  9  1  0
  9 10  1  0
 10 11  1  0
 11 12  1  0
 12 13  1  0
 13 14  1  0
 14 15  2  0
 15 16  1  0
 16 17  2  0
 17 18  1  0
 14 19  1  0
 18 19  2  0
 18 20  1  0
 20 21  2  0
 20 22  1  0
 17 23  1  0
 22 23  1  0
 11 24  2  0
 24 25  1  0
 25 26  1  0
 25 27  2  0
  7 28  1  0
 10 28  2  0
 27 28  1  0
M  END
