GAB-REV-df64cf17-12-chloroacetamide
     RDKit          3D

 23 25  0  0  0  0  0  0  0  0999 V2000
    9.0510   -4.0930   18.8980 C   0  0  0  0  0  0  0  0  0  0  0  0
    8.1070   -3.3650   19.8610 C   0  0  0  0  0  0  0  0  0  0  0  0
    6.8310   -3.4150   19.4160 O   0  0  0  0  0  0  0  0  0  0  0  0
    8.6870   -2.6050   21.2130 C   0  0  0  0  0  0  0  0  0  0  0  0
   10.1340   -2.0020   21.5810 C   0  0  0  0  0  0  0  0  0  0  0  0
   10.5160   -1.3720   22.7320 N   0  0  0  0  0  0  0  0  0  0  0  0
    9.5950   -1.2510   23.6930 C   0  0  0  0  0  0  0  0  0  0  0  0
    9.9300   -0.5880   24.9830 N   0  0  0  0  0  0  0  0  0  0  0  0
    8.9620    0.1400   25.6620 C   0  0  0  0  0  0  0  0  0  0  0  0
    8.8920   -0.3920   27.0710 C   0  0  0  0  0  0  0  0  0  0  0  0
    8.2740   -1.7530   23.5200 C   0  0  0  0  0  0  0  0  0  0  0  0
    7.3160   -1.6140   24.5890 O   0  0  0  0  0  0  0  0  0  0  0  0
    6.1480   -0.9220   24.3740 C   0  0  0  0  0  0  0  0  0  0  0  0
    6.0540   -0.1320   23.0750 C   0  0  0  0  0  0  0  0  0  0  0  0
    6.4170    1.3810   22.9800 C   0  0  0  0  0  0  0  0  0  0  0  0
    6.2860    2.1030   21.6100 C   0  0  0  0  0  0  0  0  0  0  0  0
    5.8450    1.3590   20.5110 C   0  0  0  0  0  0  0  0  0  0  0  0
    5.6200    1.7200   19.1470 N   0  0  0  0  0  0  0  0  0  0  0  0
    5.1580    0.6060   18.3420 C   0  0  0  0  0  0  0  0  0  0  0  0
    5.0810   -0.5710   19.2830 C   0  0  0  0  0  0  0  0  0  0  0  0
    5.5160   -0.0460   20.6170 C   0  0  0  0  0  0  0  0  0  0  0  0
    5.6250   -0.7690   21.8980 C   0  0  0  0  0  0  0  0  0  0  0  0
    7.8480   -2.4010   22.3190 C   0  0  0  0  0  0  0  0  0  0  0  0
  1  2  1  0
  2  3  2  0
  2  4  1  0
  4  5  2  0
  5  6  1  0
  6  7  2  0
  7  8  1  0
  8  9  1  0
  9 10  1  0
  7 11  1  0
 11 12  1  0
 12 13  1  0
 13 14  1  0
 14 15  2  0
 15 16  1  0
 16 17  2  0
 17 18  1  0
 18 19  1  0
 19 20  2  0
 17 21  1  0
 20 21  1  0
 14 22  1  0
 21 22  2  0
  4 23  1  0
 11 23  2  0
M  END
