GAB-REV-df64cf17-3-vinylsulfonamide
     RDKit          3D

 25 27  0  0  0  0  0  0  0  0999 V2000
    7.0770   -5.0200   20.3830 C   0  0  0  0  0  0  0  0  0  0  0  0
    7.2120   -4.1360   21.5860 C   0  0  0  0  0  0  0  0  0  0  0  0
    6.6870   -2.5300   21.1640 S   0  0  0  0  0  0  0  0  0  0  0  0
    5.1480   -3.3810   21.1870 O   0  0  0  0  0  0  0  0  0  0  0  0
    7.2260   -1.9120   19.9400 O   0  0  0  0  0  0  0  0  0  0  0  0
    8.4980   -2.2060   21.7830 C   0  0  0  0  0  0  0  0  0  0  0  0
    9.6100   -1.6360   22.7030 C   0  0  0  0  0  0  0  0  0  0  0  0
   10.7160   -1.2620   23.3150 N   0  0  0  0  0  0  0  0  0  0  0  0
   10.3460   -0.5610   24.4170 C   0  0  0  0  0  0  0  0  0  0  0  0
    9.5390    0.1040   25.4550 N   0  0  0  0  0  0  0  0  0  0  0  0
    9.3960   -0.4310   26.7200 C   0  0  0  0  0  0  0  0  0  0  0  0
    8.2190    0.1590   27.4400 C   0  0  0  0  0  0  0  0  0  0  0  0
    8.8980   -0.7800   24.0880 C   0  0  0  0  0  0  0  0  0  0  0  0
    7.9660   -0.2260   25.0240 O   0  0  0  0  0  0  0  0  0  0  0  0
    7.0250   -1.2940   25.2820 C   0  0  0  0  0  0  0  0  0  0  0  0
    7.2590   -2.6280   26.0300 C   0  0  0  0  0  0  0  0  0  0  0  0
    8.3890   -3.5660   25.5550 C   0  0  0  0  0  0  0  0  0  0  0  0
    8.7160   -4.8840   26.1930 C   0  0  0  0  0  0  0  0  0  0  0  0
    7.9300   -5.2060   27.2390 C   0  0  0  0  0  0  0  0  0  0  0  0
    7.8160   -6.3020   28.1690 N   0  0  0  0  0  0  0  0  0  0  0  0
    6.7470   -6.0750   29.0920 N   0  0  0  0  0  0  0  0  0  0  0  0
    6.2410   -4.8670   28.7200 C   0  0  0  0  0  0  0  0  0  0  0  0
    6.9040   -4.2040   27.5550 C   0  0  0  0  0  0  0  0  0  0  0  0
    6.3350   -2.8280   27.1280 C   0  0  0  0  0  0  0  0  0  0  0  0
    8.3660   -1.4850   22.9460 C   0  0  0  0  0  0  0  0  0  0  0  0
  1  2  1  0
  3  2  1  0
  3  4  2  0
  3  5  2  0
  3  6  1  0
  6  7  2  0
  7  8  1  0
  8  9  2  0
  9 10  1  0
 10 11  1  0
 11 12  1  0
  9 13  1  0
 13 14  1  0
 14 15  1  0
 15 16  1  0
 16 17  2  0
 17 18  1  0
 18 19  2  0
 19 20  1  0
 20 21  1  0
 21 22  2  0
 19 23  1  0
 22 23  1  0
 16 24  1  0
 23 24  2  0
  6 25  1  0
 13 25  2  0
M  END
