GAB-REV-df64cf17-8-acrylamide
     RDKit          3D

 26 28  0  0  0  0  0  0  0  0999 V2000
    6.9890   -3.0250   18.8760 C   0  0  0  0  0  0  0  0  0  0  0  0
    5.7880   -3.4640   19.7220 C   0  0  0  0  0  0  0  0  0  0  0  0
    5.7330   -3.0090   21.1780 C   0  0  0  0  0  0  0  0  0  0  0  0
    4.7610   -3.4230   21.8320 O   0  0  0  0  0  0  0  0  0  0  0  0
    6.7780   -2.1150   21.8330 C   0  0  0  0  0  0  0  0  0  0  0  0
    7.7400   -0.9220   21.7120 C   0  0  0  0  0  0  0  0  0  0  0  0
    6.7760   -1.6900   21.0110 N   0  0  0  0  0  0  0  0  0  0  0  0
    6.8850   -2.2460   22.3960 C   0  0  0  0  0  0  0  0  0  0  0  0
    7.4370   -2.2120   23.6700 N   0  0  0  0  0  0  0  0  0  0  0  0
    8.8020   -2.5120   24.0110 C   0  0  0  0  0  0  0  0  0  0  0  0
    9.0890   -1.3870   24.9820 C   0  0  0  0  0  0  0  0  0  0  0  0
    7.6460   -1.1240   21.9350 C   0  0  0  0  0  0  0  0  0  0  0  0
    8.6240   -0.2700   22.5300 O   0  0  0  0  0  0  0  0  0  0  0  0
    8.6470    1.1140   22.2350 C   0  0  0  0  0  0  0  0  0  0  0  0
    7.5430    0.5590   22.3680 N   0  0  0  0  0  0  0  0  0  0  0  0
    8.7970   -0.1970   22.5260 C   0  0  0  0  0  0  0  0  0  0  0  0
   10.3380   -0.4100   22.5660 C   0  0  0  0  0  0  0  0  0  0  0  0
   11.0600    0.6760   23.3140 C   0  0  0  0  0  0  0  0  0  0  0  0
   12.3490    0.0270   23.0520 C   0  0  0  0  0  0  0  0  0  0  0  0
   11.9560   -1.1030   22.3130 C   0  0  0  0  0  0  0  0  0  0  0  0
   13.2840   -1.2560   22.3570 F   0  0  0  0  0  0  0  0  0  0  0  0
   12.1390   -2.2940   21.5960 C   0  0  0  0  0  0  0  0  0  0  0  0
   10.7300   -1.6690   21.8330 C   0  0  0  0  0  0  0  0  0  0  0  0
    9.2070    1.2250   22.2110 C   0  0  0  0  0  0  0  0  0  0  0  0
    8.4100    2.7350   21.8900 S   0  0  0  0  0  0  0  0  0  0  0  0
    6.9860   -1.2800   20.7070 C   0  0  0  0  0  0  0  0  0  0  0  0
  1  2  1  0
  2  3  1  0
  3  4  2  0
  3  5  1  0
  5  6  2  0
  6  7  1  0
  7  8  2  0
  8  9  1  0
  9 10  1  0
 10 11  1  0
  8 12  1  0
 12 13  1  0
 13 14  1  0
 14 15  2  0
 15 16  1  0
 16 17  1  0
 17 18  2  0
 18 19  1  0
 19 20  2  0
 20 21  1  0
 20 22  1  0
 17 23  1  0
 22 23  2  0
 16 24  2  0
 14 25  1  0
 24 25  1  0
  5 26  1  0
 12 26  2  0
M  END
