GAB-REV-df64cf17-3-chloroacetamide
     RDKit          3D

 23 25  0  0  0  0  0  0  0  0999 V2000
    9.3530   -3.3010   18.9610 C   0  0  0  0  0  0  0  0  0  0  0  0
    8.4660   -3.2500   20.2520 C   0  0  0  0  0  0  0  0  0  0  0  0
    7.5070   -3.8280   19.3630 O   0  0  0  0  0  0  0  0  0  0  0  0
    9.7530   -2.5500   21.0510 C   0  0  0  0  0  0  0  0  0  0  0  0
   11.0390   -1.8510   21.8510 C   0  0  0  0  0  0  0  0  0  0  0  0
   11.2650   -1.2040   23.0600 N   0  0  0  0  0  0  0  0  0  0  0  0
   10.2220   -1.0580   23.8520 C   0  0  0  0  0  0  0  0  0  0  0  0
   10.2210   -0.4190   25.1740 N   0  0  0  0  0  0  0  0  0  0  0  0
    8.9980   -0.3470   25.8890 C   0  0  0  0  0  0  0  0  0  0  0  0
    9.2730    0.1530   27.2710 C   0  0  0  0  0  0  0  0  0  0  0  0
    9.0220   -1.5510   23.3560 C   0  0  0  0  0  0  0  0  0  0  0  0
    7.8520   -1.3750   24.1340 O   0  0  0  0  0  0  0  0  0  0  0  0
    6.6290   -1.5990   23.4680 C   0  0  0  0  0  0  0  0  0  0  0  0
    6.2410   -0.8210   22.1980 C   0  0  0  0  0  0  0  0  0  0  0  0
    4.8600   -0.0230   22.2060 C   0  0  0  0  0  0  0  0  0  0  0  0
    4.3960    0.7800   20.9360 C   0  0  0  0  0  0  0  0  0  0  0  0
    5.1590    0.8060   19.7740 C   0  0  0  0  0  0  0  0  0  0  0  0
    5.0950    1.3960   18.4440 N   0  0  0  0  0  0  0  0  0  0  0  0
    6.2500    0.9860   17.7020 N   0  0  0  0  0  0  0  0  0  0  0  0
    7.0060    0.1980   18.5410 C   0  0  0  0  0  0  0  0  0  0  0  0
    6.3750    0.0420   19.9110 C   0  0  0  0  0  0  0  0  0  0  0  0
    7.0000   -0.7730   21.0100 C   0  0  0  0  0  0  0  0  0  0  0  0
    8.8970   -2.2220   22.1050 C   0  0  0  0  0  0  0  0  0  0  0  0
  1  2  1  0
  2  3  2  0
  2  4  1  0
  4  5  2  0
  5  6  1  0
  6  7  2  0
  7  8  1  0
  8  9  1  0
  9 10  1  0
  7 11  1  0
 11 12  1  0
 12 13  1  0
 13 14  1  0
 14 15  2  0
 15 16  1  0
 16 17  2  0
 17 18  1  0
 18 19  1  0
 19 20  2  0
 17 21  1  0
 20 21  1  0
 14 22  1  0
 21 22  2  0
  4 23  1  0
 11 23  2  0
M  END
