GAB-REV-df64cf17-11-chloroacetamide
     RDKit          3D

 24 26  0  0  0  0  0  0  0  0999 V2000
   10.1620   -4.1870   19.3700 C   0  0  0  0  0  0  0  0  0  0  0  0
    9.1250   -3.3680   20.1330 C   0  0  0  0  0  0  0  0  0  0  0  0
    7.7580   -3.7820   19.6050 O   0  0  0  0  0  0  0  0  0  0  0  0
    9.8470   -2.1450   21.0990 C   0  0  0  0  0  0  0  0  0  0  0  0
   10.5330   -0.9830   22.0180 C   0  0  0  0  0  0  0  0  0  0  0  0
   10.6670   -0.5150   23.2770 N   0  0  0  0  0  0  0  0  0  0  0  0
   10.0470   -1.1370   24.1850 C   0  0  0  0  0  0  0  0  0  0  0  0
   10.0650   -0.7010   25.5890 N   0  0  0  0  0  0  0  0  0  0  0  0
    8.9660   -1.0860   26.3550 C   0  0  0  0  0  0  0  0  0  0  0  0
    8.7940   -0.1070   27.4670 C   0  0  0  0  0  0  0  0  0  0  0  0
    9.3130   -2.2450   23.7840 C   0  0  0  0  0  0  0  0  0  0  0  0
    8.5090   -2.9840   24.8180 N   0  0  0  0  0  0  0  0  0  0  0  0
    9.0530   -4.2830   25.2460 C   0  0  0  0  0  0  0  0  0  0  0  0
    7.4200   -3.2910   23.9770 C   0  0  0  0  0  0  0  0  0  0  0  0
    6.2220   -4.2310   24.1770 C   0  0  0  0  0  0  0  0  0  0  0  0
    5.2300   -4.3210   22.9960 C   0  0  0  0  0  0  0  0  0  0  0  0
    5.5500   -3.5150   21.8630 C   0  0  0  0  0  0  0  0  0  0  0  0
    4.8050   -3.4370   20.6640 N   0  0  0  0  0  0  0  0  0  0  0  0
    5.3430   -2.5850   19.7080 C   0  0  0  0  0  0  0  0  0  0  0  0
    4.9370   -2.2190   18.3450 C   0  0  0  0  0  0  0  0  0  0  0  0
    6.8240   -1.7630   20.2050 S   0  0  0  0  0  0  0  0  0  0  0  0
    6.7000   -2.6100   21.6830 C   0  0  0  0  0  0  0  0  0  0  0  0
    7.5540   -2.5990   22.8290 C   0  0  0  0  0  0  0  0  0  0  0  0
    9.2590   -2.6750   22.3490 C   0  0  0  0  0  0  0  0  0  0  0  0
  1  2  1  0
  2  3  2  0
  2  4  1  0
  4  5  2  0
  5  6  1  0
  6  7  2  0
  7  8  1  0
  8  9  1  0
  9 10  1  0
  7 11  1  0
 11 12  1  0
 12 13  1  0
 12 14  1  0
 14 15  2  0
 15 16  1  0
 16 17  2  0
 17 18  1  0
 18 19  2  0
 19 20  1  0
 19 21  1  0
 17 22  1  0
 21 22  1  0
 14 23  1  0
 22 23  2  0
  4 24  1  0
 11 24  2  0
M  END
