GAB-REV-70cc3ca5-22
     RDKit          3D

 22 24  0  0  0  0  0  0  0  0999 V2000
    5.0450    1.2030   21.8790 C   0  0  0  0  0  0  0  0  0  0  0  0
    5.4150    0.9500   20.4460 C   0  0  0  0  0  0  0  0  0  0  0  0
    4.7300    1.3860   19.3330 C   0  0  0  0  0  0  0  0  0  0  0  0
    5.1450    1.1070   18.0280 C   0  0  0  0  0  0  0  0  0  0  0  0
    6.2670    0.3680   17.7680 N   0  0  0  0  0  0  0  0  0  0  0  0
    7.0290   -0.1220   18.9040 C   0  0  0  0  0  0  0  0  0  0  0  0
    6.5640    0.2040   20.1770 C   0  0  0  0  0  0  0  0  0  0  0  0
    7.3260   -0.2600   21.1740 N   0  0  0  0  0  0  0  0  0  0  0  0
    8.3430    0.6340   21.3940 C   0  0  0  0  0  0  0  0  0  0  0  0
    8.3660    1.9770   20.9200 O   0  0  0  0  0  0  0  0  0  0  0  0
    9.5420    0.2050   22.1300 C   0  0  0  0  0  0  0  0  0  0  0  0
    9.6890   -1.0290   21.6200 C   0  0  0  0  0  0  0  0  0  0  0  0
    9.8590   -1.9000   22.6680 C   0  0  0  0  0  0  0  0  0  0  0  0
   11.1700   -1.7980   23.1000 N   0  0  0  0  0  0  0  0  0  0  0  0
   11.1980   -2.6630   24.0630 C   0  0  0  0  0  0  0  0  0  0  0  0
   12.2650   -2.9240   24.7670 C   0  0  0  0  0  0  0  0  0  0  0  0
   12.1840   -3.8620   25.7230 C   0  0  0  0  0  0  0  0  0  0  0  0
   13.6850   -4.1370   26.4910 Cl  0  0  0  0  0  0  0  0  0  0  0  0
   10.9590   -4.5530   25.9860 C   0  0  0  0  0  0  0  0  0  0  0  0
    9.7810   -4.3110   25.2870 C   0  0  0  0  0  0  0  0  0  0  0  0
    9.9490   -3.2620   24.2170 C   0  0  0  0  0  0  0  0  0  0  0  0
    9.0460   -2.7660   23.3090 O   0  0  0  0  0  0  0  0  0  0  0  0
  1  2  1  0
  2  3  2  0
  3  4  1  0
  4  5  2  0
  5  6  1  0
  2  7  1  0
  6  7  2  0
  7  8  1  0
  8  9  1  0
  9 10  2  0
  9 11  1  0
 11 12  1  0
 12 13  1  0
 13 14  2  0
 14 15  1  0
 15 16  2  0
 16 17  1  0
 17 18  1  0
 17 19  2  0
 19 20  1  0
 15 21  1  0
 20 21  2  0
 13 22  1  0
 21 22  1  0
M  END
