GAB-REV-df64cf17-7-acrylamide
     RDKit          3D

 26 28  0  0  0  0  0  0  0  0999 V2000
    6.7730   -5.2990   20.1020 C   0  0  0  0  0  0  0  0  0  0  0  0
    6.5090   -3.7920   20.1010 C   0  0  0  0  0  0  0  0  0  0  0  0
    6.0240   -3.3190   21.4490 C   0  0  0  0  0  0  0  0  0  0  0  0
    4.8390   -3.5060   21.7920 O   0  0  0  0  0  0  0  0  0  0  0  0
    7.0220   -2.6080   22.3310 C   0  0  0  0  0  0  0  0  0  0  0  0
    8.5480   -2.2110   22.0420 C   0  0  0  0  0  0  0  0  0  0  0  0
    9.4380   -1.4450   23.1120 N   0  0  0  0  0  0  0  0  0  0  0  0
    8.8640   -1.0630   24.4720 C   0  0  0  0  0  0  0  0  0  0  0  0
    9.5130   -0.4000   25.4950 N   0  0  0  0  0  0  0  0  0  0  0  0
    9.0570   -0.5010   26.8550 C   0  0  0  0  0  0  0  0  0  0  0  0
    7.9640    0.5340   26.8720 C   0  0  0  0  0  0  0  0  0  0  0  0
    7.5860   -1.5030   24.4710 C   0  0  0  0  0  0  0  0  0  0  0  0
    8.3550   -1.8050   23.1880 C   0  0  0  0  0  0  0  0  0  0  0  0
    8.1970   -0.8900   22.1470 O   0  0  0  0  0  0  0  0  0  0  0  0
    9.2010   -2.9760   23.1290 N   0  0  0  0  0  0  0  0  0  0  0  0
    9.0410   -4.0560   24.0400 C   0  0  0  0  0  0  0  0  0  0  0  0
    7.7190   -4.8020   24.0050 C   0  0  0  0  0  0  0  0  0  0  0  0
    7.4500   -5.7850   23.0350 C   0  0  0  0  0  0  0  0  0  0  0  0
    6.1670   -6.5860   22.8830 C   0  0  0  0  0  0  0  0  0  0  0  0
    5.1360   -6.2230   23.9250 C   0  0  0  0  0  0  0  0  0  0  0  0
    3.8340   -6.8290   24.0080 C   0  0  0  0  0  0  0  0  0  0  0  0
    3.1410   -6.2910   25.0550 N   0  0  0  0  0  0  0  0  0  0  0  0
    4.1590   -5.3080   25.5840 N   0  0  0  0  0  0  0  0  0  0  0  0
    5.4070   -5.2490   24.8930 C   0  0  0  0  0  0  0  0  0  0  0  0
    6.7320   -4.4990   24.9590 C   0  0  0  0  0  0  0  0  0  0  0  0
    6.8310   -2.1410   23.5800 C   0  0  0  0  0  0  0  0  0  0  0  0
  1  2  1  0
  2  3  1  0
  3  4  2  0
  3  5  1  0
  5  6  2  0
  6  7  1  0
  7  8  2  0
  8  9  1  0
  9 10  1  0
 10 11  1  0
  8 12  1  0
 12 13  1  0
 13 14  2  0
 13 15  1  0
 15 16  1  0
 16 17  1  0
 17 18  2  0
 18 19  1  0
 19 20  2  0
 20 21  1  0
 21 22  2  0
 22 23  1  0
 20 24  1  0
 23 24  1  0
 17 25  1  0
 24 25  2  0
  5 26  1  0
 12 26  2  0
M  END
