GAB-REV-df64cf17-10-nitrile
     RDKit          3D

 25 27  0  0  0  0  0  0  0  0999 V2000
    8.3010   -3.4320   19.7610 C   0  0  0  0  0  0  0  0  0  0  0  0
    8.1690   -3.0130   18.4440 N   0  0  0  0  0  0  0  0  0  0  0  0
    9.0090   -2.5810   21.0890 C   0  0  0  0  0  0  0  0  0  0  0  0
   10.4880   -2.0210   21.5470 C   0  0  0  0  0  0  0  0  0  0  0  0
   10.8020   -1.3350   22.7020 N   0  0  0  0  0  0  0  0  0  0  0  0
    9.8140   -1.0830   23.5940 C   0  0  0  0  0  0  0  0  0  0  0  0
   10.0090   -0.3980   24.8310 N   0  0  0  0  0  0  0  0  0  0  0  0
    8.8010   -0.4650   25.6690 C   0  0  0  0  0  0  0  0  0  0  0  0
    9.0010    0.3070   26.9740 C   0  0  0  0  0  0  0  0  0  0  0  0
    8.5210   -1.5380   23.2760 C   0  0  0  0  0  0  0  0  0  0  0  0
    7.3640   -1.3560   24.1490 N   0  0  0  0  0  0  0  0  0  0  0  0
    6.3210   -0.8090   23.2870 C   0  0  0  0  0  0  0  0  0  0  0  0
    7.0300   -2.4680   24.9350 C   0  0  0  0  0  0  0  0  0  0  0  0
    5.6810   -2.8260   25.4880 C   0  0  0  0  0  0  0  0  0  0  0  0
    5.7540   -3.9820   26.2000 N   0  0  0  0  0  0  0  0  0  0  0  0
    4.6000   -4.4570   26.7770 C   0  0  0  0  0  0  0  0  0  0  0  0
    4.3400   -5.9180   27.1520 C   0  0  0  0  0  0  0  0  0  0  0  0
    3.7280   -3.6150   26.9910 O   0  0  0  0  0  0  0  0  0  0  0  0
    7.0680   -4.3810   26.1410 C   0  0  0  0  0  0  0  0  0  0  0  0
    7.6070   -5.6150   26.8050 C   0  0  0  0  0  0  0  0  0  0  0  0
    9.0900   -5.9120   26.6390 C   0  0  0  0  0  0  0  0  0  0  0  0
    9.9520   -4.9730   25.8260 C   0  0  0  0  0  0  0  0  0  0  0  0
    9.3010   -3.7720   25.2070 C   0  0  0  0  0  0  0  0  0  0  0  0
    7.8250   -3.4780   25.3800 C   0  0  0  0  0  0  0  0  0  0  0  0
    8.1650   -2.2310   22.1080 C   0  0  0  0  0  0  0  0  0  0  0  0
  1  2  2  3
  1  3  1  0
  3  4  2  0
  4  5  1  0
  5  6  2  0
  6  7  1  0
  7  8  1  0
  8  9  1  0
  6 10  1  0
 10 11  1  0
 11 12  1  0
 11 13  1  0
 13 14  2  0
 14 15  1  0
 15 16  1  0
 16 17  1  0
 16 18  2  0
 15 19  1  0
 19 20  1  0
 20 21  2  0
 21 22  1  0
 22 23  2  0
 13 24  1  0
 19 24  2  0
 23 24  1  0
  3 25  1  0
 10 25  2  0
M  END
