GAB-REV-df64cf17-2-acrylamide
     RDKit          3D

 24 26  0  0  0  0  0  0  0  0999 V2000
    7.4560   -5.3390   21.0000 C   0  0  0  0  0  0  0  0  0  0  0  0
    7.7280   -4.2950   22.0430 C   0  0  0  0  0  0  0  0  0  0  0  0
    6.8090   -3.1950   21.5680 C   0  0  0  0  0  0  0  0  0  0  0  0
    5.2220   -3.4750   21.2010 O   0  0  0  0  0  0  0  0  0  0  0  0
    7.9640   -1.9730   21.6050 C   0  0  0  0  0  0  0  0  0  0  0  0
    9.1210   -1.0210   22.4960 C   0  0  0  0  0  0  0  0  0  0  0  0
   10.2740    0.0950   22.7910 N   0  0  0  0  0  0  0  0  0  0  0  0
    9.8870   -0.5370   24.0240 C   0  0  0  0  0  0  0  0  0  0  0  0
    9.9930   -0.7000   25.4230 N   0  0  0  0  0  0  0  0  0  0  0  0
    9.2540    0.1570   26.3190 C   0  0  0  0  0  0  0  0  0  0  0  0
    9.0320   -0.6950   27.5310 C   0  0  0  0  0  0  0  0  0  0  0  0
    9.3520   -0.8600   22.8840 C   0  0  0  0  0  0  0  0  0  0  0  0
   10.4240    0.2540   22.9030 N   0  0  0  0  0  0  0  0  0  0  0  0
   11.5770    0.0210   23.8580 C   0  0  0  0  0  0  0  0  0  0  0  0
   13.0400    0.5770   23.4820 C   0  0  0  0  0  0  0  0  0  0  0  0
   12.3700    0.9210   22.1830 C   0  0  0  0  0  0  0  0  0  0  0  0
   11.1670    0.5400   22.5140 C   0  0  0  0  0  0  0  0  0  0  0  0
   12.4080    0.4440   23.3910 C   0  0  0  0  0  0  0  0  0  0  0  0
   13.4660    0.3620   24.1380 N   0  0  0  0  0  0  0  0  0  0  0  0
   12.9460   -0.2190   25.4480 N   0  0  0  0  0  0  0  0  0  0  0  0
   11.7230   -0.5330   25.6790 C   0  0  0  0  0  0  0  0  0  0  0  0
   11.6720   -0.0510   24.3300 C   0  0  0  0  0  0  0  0  0  0  0  0
   13.0890    0.0670   24.8310 C   0  0  0  0  0  0  0  0  0  0  0  0
    8.4270   -1.8260   22.8810 C   0  0  0  0  0  0  0  0  0  0  0  0
  1  2  1  0
  2  3  1  0
  3  4  2  0
  3  5  1  0
  5  6  2  0
  6  7  1  0
  7  8  2  0
  8  9  1  0
  9 10  1  0
 10 11  1  0
  8 12  1  0
 12 13  1  0
 13 14  1  0
 14 15  1  0
 15 16  2  0
 16 17  1  0
 17 18  2  0
 18 19  1  0
 19 20  1  0
 20 21  2  0
 18 22  1  0
 21 22  1  0
 15 23  1  0
 22 23  2  0
  5 24  1  0
 12 24  2  0
M  END
