GAB-REV-4a4e2ff3-12
     RDKit          3D

 30 33  0  0  0  0  0  0  0  0999 V2000
    9.0020    6.6150   22.5960 C   0  0  0  0  0  0  0  0  0  0  0  0
   10.2590    6.2930   23.3740 C   0  0  0  0  0  0  0  0  0  0  0  0
   10.3420    6.4020   24.5990 O   0  0  0  0  0  0  0  0  0  0  0  0
   11.3470    5.8440   22.5080 N   0  0  0  0  0  0  0  0  0  0  0  0
   12.3580    5.0520   23.2130 C   0  0  0  0  0  0  0  0  0  0  0  0
   12.6620    3.7780   22.7750 C   0  0  0  0  0  0  0  0  0  0  0  0
   11.7870    2.7610   23.1310 C   0  0  0  0  0  0  0  0  0  0  0  0
   10.5560    2.9960   23.6900 C   0  0  0  0  0  0  0  0  0  0  0  0
    9.8410    1.8610   23.9260 N   0  0  0  0  0  0  0  0  0  0  0  0
   10.7160    0.7680   23.4650 C   0  0  0  0  0  0  0  0  0  0  0  0
   10.3530   -0.6930   23.4950 C   0  0  0  0  0  0  0  0  0  0  0  0
    9.0220   -1.0630   24.0220 N   0  0  0  0  0  0  0  0  0  0  0  0
    7.7000   -1.6090   23.0860 S   0  0  0  0  0  0  0  0  0  0  0  0
    6.5390   -0.9420   23.6320 O   0  0  0  0  0  0  0  0  0  0  0  0
    8.0370   -1.5160   21.6850 O   0  0  0  0  0  0  0  0  0  0  0  0
    7.6780   -3.2360   23.5300 C   0  0  0  0  0  0  0  0  0  0  0  0
    8.9090   -3.5680   24.3540 C   0  0  0  0  0  0  0  0  0  0  0  0
    8.8820   -4.5230   25.5840 C   0  0  0  0  0  0  0  0  0  0  0  0
   10.1420   -4.8410   26.4020 C   0  0  0  0  0  0  0  0  0  0  0  0
   11.4190   -4.1650   25.9340 C   0  0  0  0  0  0  0  0  0  0  0  0
   12.7310   -4.2430   26.4500 N   0  0  0  0  0  0  0  0  0  0  0  0
   13.5580   -3.4660   25.7190 N   0  0  0  0  0  0  0  0  0  0  0  0
   12.7110   -2.9280   24.7570 C   0  0  0  0  0  0  0  0  0  0  0  0
   11.4030   -3.3320   24.8540 C   0  0  0  0  0  0  0  0  0  0  0  0
   10.2440   -3.0700   24.1400 C   0  0  0  0  0  0  0  0  0  0  0  0
   11.3790   -1.5160   22.9840 C   0  0  0  0  0  0  0  0  0  0  0  0
   12.5930   -0.9560   22.5310 C   0  0  0  0  0  0  0  0  0  0  0  0
   13.5220   -1.7860   22.0600 F   0  0  0  0  0  0  0  0  0  0  0  0
   12.8750    0.4290   22.5440 C   0  0  0  0  0  0  0  0  0  0  0  0
   11.9030    1.3020   23.0040 C   0  0  0  0  0  0  0  0  0  0  0  0
  1  2  1  0
  2  3  2  0
  2  4  1  0
  4  5  1  0
  5  6  1  0
  6  7  1  0
  7  8  2  0
  8  9  1  0
  9 10  1  0
 10 11  1  0
 11 12  1  0
 13 12  1  0
 13 14  2  0
 13 15  2  0
 13 16  1  0
 16 17  1  0
 17 18  2  0
 18 19  1  0
 19 20  2  0
 20 21  1  0
 21 22  1  0
 22 23  2  0
 20 24  1  0
 23 24  1  0
 17 25  1  0
 24 25  2  0
 11 26  2  0
 26 27  1  0
 27 28  1  0
 27 29  2  0
  7 30  1  0
 10 30  2  0
 29 30  1  0
M  END
