GAB-REV-4a4e2ff3-13-vinylsulfonamide
     RDKit          3D

 29 31  0  0  0  0  0  0  0  0999 V2000
    7.2800   -3.1710   19.2140 C   0  0  0  0  0  0  0  0  0  0  0  0
    7.2410   -2.7970   20.6800 C   0  0  0  0  0  0  0  0  0  0  0  0
    5.6010   -2.2720   21.0250 S   0  0  0  0  0  0  0  0  0  0  0  0
    4.8690   -3.3810   21.6290 O   0  0  0  0  0  0  0  0  0  0  0  0
    5.1240   -1.6520   19.8160 O   0  0  0  0  0  0  0  0  0  0  0  0
    5.7590   -0.9080   22.1720 C   0  0  0  0  0  0  0  0  0  0  0  0
    4.6420    0.1400   22.2680 C   0  0  0  0  0  0  0  0  0  0  0  0
    4.7080    1.2930   23.1950 C   0  0  0  0  0  0  0  0  0  0  0  0
    5.7820    1.4690   24.0080 C   0  0  0  0  0  0  0  0  0  0  0  0
    6.8700    0.6060   24.0250 C   0  0  0  0  0  0  0  0  0  0  0  0
    6.9250   -0.5380   23.1810 C   0  0  0  0  0  0  0  0  0  0  0  0
    8.1580   -1.4240   23.2630 C   0  0  0  0  0  0  0  0  0  0  0  0
    9.1520   -1.2940   24.2240 N   0  0  0  0  0  0  0  0  0  0  0  0
   10.4210   -0.7310   23.6720 C   0  0  0  0  0  0  0  0  0  0  0  0
   11.5500   -1.5700   23.0710 C   0  0  0  0  0  0  0  0  0  0  0  0
   12.6860   -0.9250   22.5920 C   0  0  0  0  0  0  0  0  0  0  0  0
   13.6470   -1.6820   22.0690 F   0  0  0  0  0  0  0  0  0  0  0  0
   12.8460    0.4490   22.6350 C   0  0  0  0  0  0  0  0  0  0  0  0
   11.8360    1.2280   23.1500 C   0  0  0  0  0  0  0  0  0  0  0  0
   11.7370    2.6290   23.2690 C   0  0  0  0  0  0  0  0  0  0  0  0
   12.6510    3.6390   22.8660 C   0  0  0  0  0  0  0  0  0  0  0  0
   11.9330    4.6130   22.1980 C   0  0  0  0  0  0  0  0  0  0  0  0
   11.7310    5.7480   22.9520 N   0  0  0  0  0  0  0  0  0  0  0  0
   10.4370    6.1390   23.5410 C   0  0  0  0  0  0  0  0  0  0  0  0
    9.3760    6.5830   22.5560 C   0  0  0  0  0  0  0  0  0  0  0  0
   10.2160    6.1250   24.7460 O   0  0  0  0  0  0  0  0  0  0  0  0
   10.5300    2.9350   23.8650 C   0  0  0  0  0  0  0  0  0  0  0  0
    9.8740    1.7540   24.1100 N   0  0  0  0  0  0  0  0  0  0  0  0
   10.6630    0.6580   23.6610 C   0  0  0  0  0  0  0  0  0  0  0  0
  1  2  1  0
  3  2  1  0
  3  4  2  0
  3  5  2  0
  3  6  1  0
  6  7  2  0
  7  8  1  0
  8  9  2  0
  9 10  1  0
  6 11  1  0
 10 11  2  0
 11 12  1  0
 12 13  1  0
 13 14  1  0
 14 15  2  0
 15 16  1  0
 16 17  1  0
 16 18  2  0
 18 19  1  0
 19 20  1  0
 20 21  1  0
 21 22  1  0
 22 23  1  0
 23 24  1  0
 24 25  1  0
 24 26  2  0
 20 27  2  0
 27 28  1  0
 14 29  1  0
 19 29  2  0
 28 29  1  0
M  END
