GAB-REV-70cc3ca5-11
     RDKit          3D

 20 22  0  0  0  0  0  0  0  0999 V2000
    5.4860    0.7810   22.1220 C   0  0  0  0  0  0  0  0  0  0  0  0
    5.7610    0.6130   20.6540 C   0  0  0  0  0  0  0  0  0  0  0  0
    4.9810    1.1560   19.6380 C   0  0  0  0  0  0  0  0  0  0  0  0
    5.2510    0.9870   18.2760 C   0  0  0  0  0  0  0  0  0  0  0  0
    6.3240    0.2510   17.8600 N   0  0  0  0  0  0  0  0  0  0  0  0
    7.1860   -0.3520   18.8770 C   0  0  0  0  0  0  0  0  0  0  0  0
    6.8820   -0.1470   20.2270 C   0  0  0  0  0  0  0  0  0  0  0  0
    7.7820   -0.7580   21.0850 N   0  0  0  0  0  0  0  0  0  0  0  0
    8.7290    0.1480   21.5480 C   0  0  0  0  0  0  0  0  0  0  0  0
    8.8050    1.4760   21.0000 O   0  0  0  0  0  0  0  0  0  0  0  0
    9.7820   -0.0930   22.6510 C   0  0  0  0  0  0  0  0  0  0  0  0
   10.3130    1.1700   22.9550 C   0  0  0  0  0  0  0  0  0  0  0  0
    9.6490    2.1200   23.7020 N   0  0  0  0  0  0  0  0  0  0  0  0
   10.4720    3.1640   23.7140 C   0  0  0  0  0  0  0  0  0  0  0  0
   10.3140    4.3760   24.2930 N   0  0  0  0  0  0  0  0  0  0  0  0
   11.3210    5.3410   24.1660 C   0  0  0  0  0  0  0  0  0  0  0  0
   12.4620    5.0140   23.4410 C   0  0  0  0  0  0  0  0  0  0  0  0
   12.6240    3.7420   22.8410 C   0  0  0  0  0  0  0  0  0  0  0  0
   11.5990    2.7950   22.9830 C   0  0  0  0  0  0  0  0  0  0  0  0
   11.5480    1.6110   22.5220 O   0  0  0  0  0  0  0  0  0  0  0  0
  1  2  1  0
  2  3  2  0
  3  4  1  0
  4  5  2  0
  5  6  1  0
  2  7  1  0
  6  7  2  0
  7  8  1  0
  8  9  1  0
  9 10  2  0
  9 11  1  0
 11 12  1  0
 12 13  2  0
 13 14  1  0
 14 15  2  0
 15 16  1  0
 16 17  2  0
 17 18  1  0
 14 19  1  0
 18 19  2  0
 12 20  1  0
 19 20  1  0
M  END
