GAB-REV-df64cf17-6-acrylamide
     RDKit          3D

 25 27  0  0  0  0  0  0  0  0999 V2000
    9.0280   -4.6070   20.5930 C   0  0  0  0  0  0  0  0  0  0  0  0
    7.5070   -4.8040   20.6670 C   0  0  0  0  0  0  0  0  0  0  0  0
    6.6920   -3.6820   21.3520 C   0  0  0  0  0  0  0  0  0  0  0  0
    5.2540   -3.7280   21.2000 O   0  0  0  0  0  0  0  0  0  0  0  0
    7.6530   -2.6790   22.1910 C   0  0  0  0  0  0  0  0  0  0  0  0
    8.5580   -1.6380   21.5750 C   0  0  0  0  0  0  0  0  0  0  0  0
    9.3790   -0.7930   22.3990 N   0  0  0  0  0  0  0  0  0  0  0  0
    9.5040   -0.7490   23.8470 C   0  0  0  0  0  0  0  0  0  0  0  0
    9.4810   -0.8630   25.2230 N   0  0  0  0  0  0  0  0  0  0  0  0
    8.8270    0.1550   26.0110 C   0  0  0  0  0  0  0  0  0  0  0  0
    9.0760   -0.2420   27.4470 C   0  0  0  0  0  0  0  0  0  0  0  0
    8.5590   -1.8390   24.1800 C   0  0  0  0  0  0  0  0  0  0  0  0
    8.5710   -1.9670   25.6540 N   0  0  0  0  0  0  0  0  0  0  0  0
    7.1990   -1.7700   26.1500 C   0  0  0  0  0  0  0  0  0  0  0  0
    6.7790   -3.0730   26.8130 C   0  0  0  0  0  0  0  0  0  0  0  0
    6.8440   -4.2590   25.8850 C   0  0  0  0  0  0  0  0  0  0  0  0
    5.6740   -4.7650   25.2680 C   0  0  0  0  0  0  0  0  0  0  0  0
    5.6280   -5.9400   24.3020 C   0  0  0  0  0  0  0  0  0  0  0  0
    6.9980   -6.5170   24.0680 C   0  0  0  0  0  0  0  0  0  0  0  0
    7.2090   -7.6210   23.1930 C   0  0  0  0  0  0  0  0  0  0  0  0
    8.5260   -7.9200   23.1840 N   0  0  0  0  0  0  0  0  0  0  0  0
    9.0850   -6.9000   24.1320 N   0  0  0  0  0  0  0  0  0  0  0  0
    8.1420   -6.0060   24.6930 C   0  0  0  0  0  0  0  0  0  0  0  0
    8.0970   -4.8390   25.6420 C   0  0  0  0  0  0  0  0  0  0  0  0
    7.6190   -2.8420   23.6010 C   0  0  0  0  0  0  0  0  0  0  0  0
  1  2  1  0
  2  3  1  0
  3  4  2  0
  3  5  1  0
  5  6  2  0
  6  7  1  0
  7  8  2  0
  8  9  1  0
  9 10  1  0
 10 11  1  0
  8 12  1  0
 12 13  1  0
 13 14  1  0
 14 15  1  0
 15 16  1  0
 16 17  2  0
 17 18  1  0
 18 19  2  0
 19 20  1  0
 20 21  2  0
 21 22  1  0
 19 23  1  0
 22 23  1  0
 16 24  1  0
 23 24  2  0
  5 25  1  0
 12 25  2  0
M  END
