GAB-REV-4a4e2ff3-2
     RDKit          3D

 27 30  0  0  0  0  0  0  0  0999 V2000
    8.9740    6.6340   22.5920 C   0  0  0  0  0  0  0  0  0  0  0  0
   10.2260    6.3120   23.3780 C   0  0  0  0  0  0  0  0  0  0  0  0
   10.2930    6.4010   24.6070 O   0  0  0  0  0  0  0  0  0  0  0  0
   11.3300    5.8870   22.5230 N   0  0  0  0  0  0  0  0  0  0  0  0
   12.3570    5.1100   23.2230 C   0  0  0  0  0  0  0  0  0  0  0  0
   12.6560    3.8410   22.7830 C   0  0  0  0  0  0  0  0  0  0  0  0
   11.7900    2.8180   23.1600 C   0  0  0  0  0  0  0  0  0  0  0  0
   10.5560    3.0420   23.7220 C   0  0  0  0  0  0  0  0  0  0  0  0
    9.8630    1.9010   23.9870 N   0  0  0  0  0  0  0  0  0  0  0  0
   10.7580    0.8190   23.5410 C   0  0  0  0  0  0  0  0  0  0  0  0
   10.4190   -0.6360   23.6080 C   0  0  0  0  0  0  0  0  0  0  0  0
    9.1250   -0.9330   24.1320 O   0  0  0  0  0  0  0  0  0  0  0  0
    9.0700   -2.1770   24.8010 C   0  0  0  0  0  0  0  0  0  0  0  0
    8.5630   -3.2870   24.0060 C   0  0  0  0  0  0  0  0  0  0  0  0
    7.3170   -3.1230   23.0880 C   0  0  0  0  0  0  0  0  0  0  0  0
    6.7950   -4.3090   22.2770 C   0  0  0  0  0  0  0  0  0  0  0  0
    7.5640   -5.5920   22.4410 C   0  0  0  0  0  0  0  0  0  0  0  0
    7.3860   -6.8140   21.8880 N   0  0  0  0  0  0  0  0  0  0  0  0
    8.3850   -7.6440   22.3970 C   0  0  0  0  0  0  0  0  0  0  0  0
    9.1300   -6.9240   23.2140 N   0  0  0  0  0  0  0  0  0  0  0  0
    8.6640   -5.6360   23.2810 C   0  0  0  0  0  0  0  0  0  0  0  0
    9.0970   -4.5820   23.9770 C   0  0  0  0  0  0  0  0  0  0  0  0
   11.4400   -1.4570   23.1320 C   0  0  0  0  0  0  0  0  0  0  0  0
   12.6480   -0.8920   22.6480 C   0  0  0  0  0  0  0  0  0  0  0  0
   13.5850   -1.7170   22.1970 F   0  0  0  0  0  0  0  0  0  0  0  0
   12.9170    0.4980   22.6090 C   0  0  0  0  0  0  0  0  0  0  0  0
   11.9320    1.3630   23.0590 C   0  0  0  0  0  0  0  0  0  0  0  0
  1  2  1  0
  2  3  2  0
  2  4  1  0
  4  5  1  0
  5  6  1  0
  6  7  1  0
  7  8  2  0
  8  9  1  0
  9 10  1  0
 10 11  1  0
 11 12  1  0
 12 13  1  0
 13 14  1  0
 14 15  2  0
 15 16  1  0
 16 17  2  0
 17 18  1  0
 18 19  2  0
 19 20  1  0
 17 21  1  0
 20 21  1  0
 14 22  1  0
 21 22  2  0
 11 23  2  0
 23 24  1  0
 24 25  1  0
 24 26  2  0
  7 27  1  0
 10 27  2  0
 26 27  1  0
M  END
