GAB-REV-df64cf17-21-nitrile
     RDKit          3D

 23 25  0  0  0  0  0  0  0  0999 V2000
    7.2980   -3.3910   19.7880 C   0  0  0  0  0  0  0  0  0  0  0  0
    6.1350   -3.5410   19.2590 N   0  0  0  0  0  0  0  0  0  0  0  0
    7.4770   -2.7820   21.1410 C   0  0  0  0  0  0  0  0  0  0  0  0
    8.7470   -2.8410   21.8890 C   0  0  0  0  0  0  0  0  0  0  0  0
    8.8030   -2.2990   23.0360 N   0  0  0  0  0  0  0  0  0  0  0  0
    7.7400   -1.6640   23.6030 C   0  0  0  0  0  0  0  0  0  0  0  0
    8.0740   -1.1810   24.8740 N   0  0  0  0  0  0  0  0  0  0  0  0
    9.1260   -0.1680   24.9760 C   0  0  0  0  0  0  0  0  0  0  0  0
    9.1060    0.2070   26.4680 C   0  0  0  0  0  0  0  0  0  0  0  0
    6.3520   -1.3830   23.2000 C   0  0  0  0  0  0  0  0  0  0  0  0
    6.5840   -0.7830   24.5800 C   0  0  0  0  0  0  0  0  0  0  0  0
    5.1170   -0.5320   24.8810 C   0  0  0  0  0  0  0  0  0  0  0  0
    4.6250   -1.9560   24.6940 C   0  0  0  0  0  0  0  0  0  0  0  0
    3.2570   -2.4090   24.9930 C   0  0  0  0  0  0  0  0  0  0  0  0
    2.8850   -3.6570   24.8040 N   0  0  0  0  0  0  0  0  0  0  0  0
    3.8180   -4.5260   24.3160 C   0  0  0  0  0  0  0  0  0  0  0  0
    3.1940   -5.7680   24.2000 C   0  0  0  0  0  0  0  0  0  0  0  0
    3.8140   -7.0230   23.7150 C   0  0  0  0  0  0  0  0  0  0  0  0
    5.2370   -6.8610   23.3340 C   0  0  0  0  0  0  0  0  0  0  0  0
    5.8970   -5.5180   23.4630 C   0  0  0  0  0  0  0  0  0  0  0  0
    5.2300   -4.2370   23.9690 C   0  0  0  0  0  0  0  0  0  0  0  0
    5.4790   -2.8410   24.2320 N   0  0  0  0  0  0  0  0  0  0  0  0
    6.4340   -2.1110   21.7790 C   0  0  0  0  0  0  0  0  0  0  0  0
  1  2  2  3
  1  3  1  0
  3  4  2  0
  4  5  1  0
  5  6  2  0
  6  7  1  0
  7  8  1  0
  8  9  1  0
  6 10  1  0
 10 11  1  0
 11 12  1  0
 12 13  1  0
 13 14  2  0
 14 15  1  0
 15 16  2  0
 16 17  1  0
 17 18  2  0
 18 19  1  0
 19 20  2  0
 16 21  1  0
 20 21  1  0
 13 22  1  0
 21 22  2  0
  3 23  1  0
 10 23  2  0
M  END
