GAB-REV-df64cf17-5-nitrile
     RDKit          3D

 22 24  0  0  0  0  0  0  0  0999 V2000
    8.0910   -3.1510   19.8080 C   0  0  0  0  0  0  0  0  0  0  0  0
    7.6320   -2.6780   18.6670 N   0  0  0  0  0  0  0  0  0  0  0  0
    8.8000   -2.2930   21.1530 C   0  0  0  0  0  0  0  0  0  0  0  0
   10.3340   -1.8170   21.5870 C   0  0  0  0  0  0  0  0  0  0  0  0
   10.7620   -1.1340   22.7170 N   0  0  0  0  0  0  0  0  0  0  0  0
    9.8630   -0.7720   23.6600 C   0  0  0  0  0  0  0  0  0  0  0  0
   10.1620   -0.0890   24.8740 N   0  0  0  0  0  0  0  0  0  0  0  0
    9.4100   -0.6340   26.0110 C   0  0  0  0  0  0  0  0  0  0  0  0
    8.4880    0.4550   26.5880 C   0  0  0  0  0  0  0  0  0  0  0  0
    8.5440   -1.1080   23.4240 C   0  0  0  0  0  0  0  0  0  0  0  0
    7.9940   -1.8470   22.2120 C   0  0  0  0  0  0  0  0  0  0  0  0
    6.5560   -2.0520   22.2460 N   0  0  0  0  0  0  0  0  0  0  0  0
    5.8960   -2.2650   23.4830 C   0  0  0  0  0  0  0  0  0  0  0  0
    5.3310   -3.6600   23.7060 C   0  0  0  0  0  0  0  0  0  0  0  0
    5.0670   -4.6210   22.5410 C   0  0  0  0  0  0  0  0  0  0  0  0
    4.5050   -6.0250   22.7280 C   0  0  0  0  0  0  0  0  0  0  0  0
    4.2080   -6.4550   24.0220 C   0  0  0  0  0  0  0  0  0  0  0  0
    3.7080   -7.5840   24.5720 N   0  0  0  0  0  0  0  0  0  0  0  0
    3.6040   -7.5040   25.9580 N   0  0  0  0  0  0  0  0  0  0  0  0
    4.0690   -6.2510   26.2670 C   0  0  0  0  0  0  0  0  0  0  0  0
    4.4750   -5.5190   25.0440 C   0  0  0  0  0  0  0  0  0  0  0  0
    5.0280   -4.1200   25.0010 C   0  0  0  0  0  0  0  0  0  0  0  0
  1  2  2  3
  1  3  1  0
  3  4  2  0
  4  5  1  0
  5  6  2  0
  6  7  1  0
  7  8  1  0
  8  9  1  0
  6 10  1  0
  3 11  1  0
 10 11  2  0
 11 12  1  0
 12 13  1  0
 13 14  1  0
 14 15  2  0
 15 16  1  0
 16 17  2  0
 17 18  1  0
 18 19  1  0
 19 20  2  0
 17 21  1  0
 20 21  1  0
 14 22  1  0
 21 22  2  0
M  END
