GAB-REV-df64cf17-16-chloroacetamide
     RDKit          3D

 25 27  0  0  0  0  0  0  0  0999 V2000
    8.5520   -3.3830   19.9190 C   0  0  0  0  0  0  0  0  0  0  0  0
    7.4290   -3.8750   20.6390 C   0  0  0  0  0  0  0  0  0  0  0  0
    6.3290   -4.2400   19.9800 O   0  0  0  0  0  0  0  0  0  0  0  0
    7.6860   -3.9690   22.1540 C   0  0  0  0  0  0  0  0  0  0  0  0
    8.2160   -3.3300   23.4400 C   0  0  0  0  0  0  0  0  0  0  0  0
    8.6280   -2.0370   22.6600 N   0  0  0  0  0  0  0  0  0  0  0  0
    9.0780   -1.3690   23.7140 C   0  0  0  0  0  0  0  0  0  0  0  0
    9.6560   -0.1510   24.2990 N   0  0  0  0  0  0  0  0  0  0  0  0
    8.8070    0.3440   25.3000 C   0  0  0  0  0  0  0  0  0  0  0  0
    9.2900   -0.1310   26.6420 C   0  0  0  0  0  0  0  0  0  0  0  0
    8.7160   -2.4430   24.1700 C   0  0  0  0  0  0  0  0  0  0  0  0
    8.7140   -3.0030   25.5580 N   0  0  0  0  0  0  0  0  0  0  0  0
    9.0290   -4.4290   25.4770 C   0  0  0  0  0  0  0  0  0  0  0  0
    7.6220   -2.9950   26.5310 C   0  0  0  0  0  0  0  0  0  0  0  0
    7.2860   -4.0780   27.2580 N   0  0  0  0  0  0  0  0  0  0  0  0
    6.2630   -3.8800   28.0970 C   0  0  0  0  0  0  0  0  0  0  0  0
    5.7120   -4.9600   29.0130 C   0  0  0  0  0  0  0  0  0  0  0  0
    4.5910   -4.7540   29.8110 C   0  0  0  0  0  0  0  0  0  0  0  0
    4.0090   -5.8020   30.7380 C   0  0  0  0  0  0  0  0  0  0  0  0
    4.7060   -7.1560   30.7830 C   0  0  0  0  0  0  0  0  0  0  0  0
    5.9240   -7.3490   29.8980 C   0  0  0  0  0  0  0  0  0  0  0  0
    6.3670   -6.1910   29.0360 C   0  0  0  0  0  0  0  0  0  0  0  0
    5.7620   -2.5700   28.0380 C   0  0  0  0  0  0  0  0  0  0  0  0
    6.6170   -1.6180   26.8960 S   0  0  0  0  0  0  0  0  0  0  0  0
    8.2680   -2.9170   22.8160 C   0  0  0  0  0  0  0  0  0  0  0  0
  1  2  1  0
  2  3  2  0
  2  4  1  0
  4  5  2  0
  5  6  1  0
  6  7  2  0
  7  8  1  0
  8  9  1  0
  9 10  1  0
  7 11  1  0
 11 12  1  0
 12 13  1  0
 12 14  1  0
 14 15  2  0
 15 16  1  0
 16 17  1  0
 17 18  2  0
 18 19  1  0
 19 20  2  0
 20 21  1  0
 17 22  1  0
 21 22  2  0
 16 23  2  0
 14 24  1  0
 23 24  1  0
  4 25  1  0
 11 25  2  0
M  END
