GAB-REV-70cc3ca5-2
     RDKit          3D

 23 25  0  0  0  0  0  0  0  0999 V2000
    5.4560    0.8190   22.1070 C   0  0  0  0  0  0  0  0  0  0  0  0
    5.7370    0.6640   20.6380 C   0  0  0  0  0  0  0  0  0  0  0  0
    4.9770    1.2370   19.6240 C   0  0  0  0  0  0  0  0  0  0  0  0
    5.2580    1.0770   18.2600 C   0  0  0  0  0  0  0  0  0  0  0  0
    6.3230    0.3260   17.8450 N   0  0  0  0  0  0  0  0  0  0  0  0
    7.1600   -0.3050   18.8630 C   0  0  0  0  0  0  0  0  0  0  0  0
    6.8430   -0.1100   20.2110 C   0  0  0  0  0  0  0  0  0  0  0  0
    7.7130   -0.7530   21.0620 N   0  0  0  0  0  0  0  0  0  0  0  0
    8.6820    0.0810   21.5990 C   0  0  0  0  0  0  0  0  0  0  0  0
    8.8790    1.4320   21.1220 O   0  0  0  0  0  0  0  0  0  0  0  0
    9.6230   -0.3640   22.7400 C   0  0  0  0  0  0  0  0  0  0  0  0
   10.6090    0.5660   23.1020 N   0  0  0  0  0  0  0  0  0  0  0  0
   11.9660    0.4230   22.8910 C   0  0  0  0  0  0  0  0  0  0  0  0
   12.5730   -0.7930   22.9240 O   0  0  0  0  0  0  0  0  0  0  0  0
   12.7270    1.6600   22.6020 C   0  0  0  0  0  0  0  0  0  0  0  0
   14.0510    1.4290   22.2990 N   0  0  0  0  0  0  0  0  0  0  0  0
   14.6850    2.5900   22.0540 N   0  0  0  0  0  0  0  0  0  0  0  0
   13.6630    3.5840   22.2250 C   0  0  0  0  0  0  0  0  0  0  0  0
   13.8910    4.9020   22.0870 C   0  0  0  0  0  0  0  0  0  0  0  0
   12.8510    5.7990   22.2440 C   0  0  0  0  0  0  0  0  0  0  0  0
   11.5810    5.2970   22.5240 C   0  0  0  0  0  0  0  0  0  0  0  0
   11.3890    3.8910   22.6710 C   0  0  0  0  0  0  0  0  0  0  0  0
   12.4770    3.0350   22.5280 N   0  0  0  0  0  0  0  0  0  0  0  0
  1  2  1  0
  2  3  2  0
  3  4  1  0
  4  5  2  0
  5  6  1  0
  2  7  1  0
  6  7  2  0
  7  8  1  0
  8  9  1  0
  9 10  2  0
  9 11  1  0
 11 12  1  0
 12 13  1  0
 13 14  2  0
 13 15  1  0
 15 16  2  0
 16 17  1  0
 17 18  2  0
 18 19  1  0
 19 20  2  0
 20 21  1  0
 21 22  2  0
 15 23  1  0
 18 23  1  0
 22 23  1  0
M  END
