GAB-REV-df64cf17-8-chloroacetamide
     RDKit          3D

 25 27  0  0  0  0  0  0  0  0999 V2000
    9.5510   -4.1260   20.3560 C   0  0  0  0  0  0  0  0  0  0  0  0
    8.4990   -3.1170   20.3430 C   0  0  0  0  0  0  0  0  0  0  0  0
    7.3480   -3.2950   19.4840 O   0  0  0  0  0  0  0  0  0  0  0  0
    9.0930   -2.1250   21.5280 C   0  0  0  0  0  0  0  0  0  0  0  0
    9.7680   -0.6960   21.7370 C   0  0  0  0  0  0  0  0  0  0  0  0
   10.1770   -0.1210   22.9390 N   0  0  0  0  0  0  0  0  0  0  0  0
    9.9780   -0.8490   24.0510 C   0  0  0  0  0  0  0  0  0  0  0  0
   10.2760   -0.3780   25.4190 N   0  0  0  0  0  0  0  0  0  0  0  0
    9.0770   -0.0780   26.0880 C   0  0  0  0  0  0  0  0  0  0  0  0
    9.2490   -0.0740   27.5820 C   0  0  0  0  0  0  0  0  0  0  0  0
    9.4210   -2.1430   23.9650 C   0  0  0  0  0  0  0  0  0  0  0  0
    9.1900   -3.0080   25.0790 O   0  0  0  0  0  0  0  0  0  0  0  0
    8.5460   -4.1050   24.5850 C   0  0  0  0  0  0  0  0  0  0  0  0
    7.1030   -4.2860   24.8300 N   0  0  0  0  0  0  0  0  0  0  0  0
    6.7740   -5.5070   24.1190 C   0  0  0  0  0  0  0  0  0  0  0  0
    5.3080   -5.9020   24.2420 C   0  0  0  0  0  0  0  0  0  0  0  0
    4.5970   -5.7390   25.5560 C   0  0  0  0  0  0  0  0  0  0  0  0
    3.2610   -6.1030   25.6700 C   0  0  0  0  0  0  0  0  0  0  0  0
    2.3980   -6.6750   24.5570 C   0  0  0  0  0  0  0  0  0  0  0  0
    1.1140   -6.9990   24.7510 F   0  0  0  0  0  0  0  0  0  0  0  0
    3.0950   -6.8550   23.2040 C   0  0  0  0  0  0  0  0  0  0  0  0
    4.5650   -6.4340   23.1520 C   0  0  0  0  0  0  0  0  0  0  0  0
    7.7560   -6.1990   23.4200 C   0  0  0  0  0  0  0  0  0  0  0  0
    9.2390   -5.3840   23.6050 S   0  0  0  0  0  0  0  0  0  0  0  0
    9.0140   -2.7210   22.7600 C   0  0  0  0  0  0  0  0  0  0  0  0
  1  2  1  0
  2  3  2  0
  2  4  1  0
  4  5  2  0
  5  6  1  0
  6  7  2  0
  7  8  1  0
  8  9  1  0
  9 10  1  0
  7 11  1  0
 11 12  1  0
 12 13  1  0
 13 14  2  0
 14 15  1  0
 15 16  1  0
 16 17  2  0
 17 18  1  0
 18 19  2  0
 19 20  1  0
 19 21  1  0
 16 22  1  0
 21 22  2  0
 15 23  2  0
 13 24  1  0
 23 24  1  0
  4 25  1  0
 11 25  2  0
M  END
