GAB-REV-df64cf17-14-nitrile
     RDKit          3D

 26 28  0  0  0  0  0  0  0  0999 V2000
    7.1630   -3.1840   19.5640 C   0  0  0  0  0  0  0  0  0  0  0  0
    6.3630   -2.7870   18.6500 N   0  0  0  0  0  0  0  0  0  0  0  0
    7.7940   -2.1720   20.5440 C   0  0  0  0  0  0  0  0  0  0  0  0
    8.4500   -2.7940   21.8370 C   0  0  0  0  0  0  0  0  0  0  0  0
    8.9090   -1.7560   22.4980 N   0  0  0  0  0  0  0  0  0  0  0  0
    8.8480   -0.4930   22.1910 C   0  0  0  0  0  0  0  0  0  0  0  0
    9.4130    0.4340   23.0850 N   0  0  0  0  0  0  0  0  0  0  0  0
   10.3410   -0.1170   24.0710 C   0  0  0  0  0  0  0  0  0  0  0  0
    9.5030   -0.3690   25.3400 C   0  0  0  0  0  0  0  0  0  0  0  0
    8.2550   -0.0500   21.0460 C   0  0  0  0  0  0  0  0  0  0  0  0
    8.1920    1.1700   20.7520 O   0  0  0  0  0  0  0  0  0  0  0  0
    6.9100    1.6020   20.8270 C   0  0  0  0  0  0  0  0  0  0  0  0
    5.7880    1.5520   19.8800 C   0  0  0  0  0  0  0  0  0  0  0  0
    6.1320    0.9240   18.5200 C   0  0  0  0  0  0  0  0  0  0  0  0
    4.6130    2.0340   20.4030 N   0  0  0  0  0  0  0  0  0  0  0  0
    3.4800    1.4640   19.9490 C   0  0  0  0  0  0  0  0  0  0  0  0
    4.9680    1.7590   21.8140 N   0  0  0  0  0  0  0  0  0  0  0  0
    4.7530    0.5330   22.3490 C   0  0  0  0  0  0  0  0  0  0  0  0
    5.1110   -0.5840   21.5970 C   0  0  0  0  0  0  0  0  0  0  0  0
    4.9860   -2.0270   21.9880 C   0  0  0  0  0  0  0  0  0  0  0  0
    4.3960   -2.2780   23.3610 C   0  0  0  0  0  0  0  0  0  0  0  0
    4.0010   -1.0610   24.1900 C   0  0  0  0  0  0  0  0  0  0  0  0
    4.2050    0.3410   23.6290 C   0  0  0  0  0  0  0  0  0  0  0  0
    6.3430    2.2060   21.9410 C   0  0  0  0  0  0  0  0  0  0  0  0
    6.9240    2.9150   22.7490 O   0  0  0  0  0  0  0  0  0  0  0  0
    7.6290   -0.8300   20.0330 C   0  0  0  0  0  0  0  0  0  0  0  0
  1  2  2  3
  1  3  1  0
  3  4  2  0
  4  5  1  0
  5  6  2  0
  6  7  1  0
  7  8  1  0
  8  9  1  0
  6 10  1  0
 10 11  1  0
 11 12  1  0
 12 13  2  0
 13 14  1  0
 13 15  1  0
 15 16  1  0
 15 17  1  0
 17 18  1  0
 18 19  2  0
 19 20  1  0
 20 21  2  0
 21 22  1  0
 18 23  1  0
 22 23  2  0
 12 24  1  0
 17 24  1  0
 24 25  2  0
  3 26  1  0
 10 26  2  0
M  END
