GAB-REV-df64cf17-2-chloroacetamide
     RDKit          3D

 23 25  0  0  0  0  0  0  0  0999 V2000
    8.6130   -3.7530   19.4490 C   0  0  0  0  0  0  0  0  0  0  0  0
    7.9590   -2.7700   20.1510 C   0  0  0  0  0  0  0  0  0  0  0  0
    6.7440   -2.8430   19.4040 O   0  0  0  0  0  0  0  0  0  0  0  0
    8.7000   -2.0860   21.5030 C   0  0  0  0  0  0  0  0  0  0  0  0
    9.9310   -0.9570   21.6540 C   0  0  0  0  0  0  0  0  0  0  0  0
   10.5990   -0.3390   22.7830 N   0  0  0  0  0  0  0  0  0  0  0  0
   10.0260   -0.8470   23.8050 C   0  0  0  0  0  0  0  0  0  0  0  0
   10.1940   -0.6320   25.2630 N   0  0  0  0  0  0  0  0  0  0  0  0
    9.1160    0.0030   25.8910 C   0  0  0  0  0  0  0  0  0  0  0  0
    8.9730   -0.4940   27.3020 C   0  0  0  0  0  0  0  0  0  0  0  0
    9.1570   -1.6740   23.1710 C   0  0  0  0  0  0  0  0  0  0  0  0
    8.7740   -2.0290   24.5420 N   0  0  0  0  0  0  0  0  0  0  0  0
    9.0520   -3.4600   24.6350 C   0  0  0  0  0  0  0  0  0  0  0  0
    8.3330   -4.0470   25.8330 C   0  0  0  0  0  0  0  0  0  0  0  0
    8.8500   -5.2700   26.6140 C   0  0  0  0  0  0  0  0  0  0  0  0
    8.1050   -5.8390   27.8250 C   0  0  0  0  0  0  0  0  0  0  0  0
    6.9240   -5.2090   28.2050 C   0  0  0  0  0  0  0  0  0  0  0  0
    5.9580   -5.4350   29.2560 N   0  0  0  0  0  0  0  0  0  0  0  0
    4.8730   -4.4430   29.1890 N   0  0  0  0  0  0  0  0  0  0  0  0
    5.2440   -3.6810   28.1130 C   0  0  0  0  0  0  0  0  0  0  0  0
    6.5100   -4.1030   27.4520 C   0  0  0  0  0  0  0  0  0  0  0  0
    7.1350   -3.4440   26.2580 C   0  0  0  0  0  0  0  0  0  0  0  0
    8.2240   -2.5580   22.7680 C   0  0  0  0  0  0  0  0  0  0  0  0
  1  2  1  0
  2  3  2  0
  2  4  1  0
  4  5  2  0
  5  6  1  0
  6  7  2  0
  7  8  1  0
  8  9  1  0
  9 10  1  0
  7 11  1  0
 11 12  1  0
 12 13  1  0
 13 14  1  0
 14 15  2  0
 15 16  1  0
 16 17  2  0
 17 18  1  0
 18 19  1  0
 19 20  2  0
 17 21  1  0
 20 21  1  0
 14 22  1  0
 21 22  2  0
  4 23  1  0
 11 23  2  0
M  END
