GAB-REV-70cc3ca5-14
     RDKit          3D

 25 27  0  0  0  0  0  0  0  0999 V2000
   11.9900    8.0880   25.2180 C   0  0  0  0  0  0  0  0  0  0  0  0
   11.1410    6.8570   25.3440 C   0  0  0  0  0  0  0  0  0  0  0  0
   10.1050    6.6880   26.2670 C   0  0  0  0  0  0  0  0  0  0  0  0
    9.3010    5.5270   26.3870 C   0  0  0  0  0  0  0  0  0  0  0  0
    8.3360    5.5700   27.3670 C   0  0  0  0  0  0  0  0  0  0  0  0
    9.5620    4.4640   25.5140 C   0  0  0  0  0  0  0  0  0  0  0  0
    8.9450    3.2280   25.4110 N   0  0  0  0  0  0  0  0  0  0  0  0
    9.5520    2.4170   24.3680 C   0  0  0  0  0  0  0  0  0  0  0  0
    9.0260    0.9940   24.1090 C   0  0  0  0  0  0  0  0  0  0  0  0
    7.7320    0.6720   24.3910 O   0  0  0  0  0  0  0  0  0  0  0  0
    9.9990    0.0460   23.5760 N   0  0  0  0  0  0  0  0  0  0  0  0
    9.7160   -0.6980   22.4480 C   0  0  0  0  0  0  0  0  0  0  0  0
    8.9020    0.1150   21.5240 C   0  0  0  0  0  0  0  0  0  0  0  0
    9.1680    1.4340   21.2550 O   0  0  0  0  0  0  0  0  0  0  0  0
    7.8240   -0.6940   20.9830 N   0  0  0  0  0  0  0  0  0  0  0  0
    6.8550   -0.1130   20.1780 C   0  0  0  0  0  0  0  0  0  0  0  0
    7.0340   -0.1810   18.8210 C   0  0  0  0  0  0  0  0  0  0  0  0
    6.2790    0.3000   17.8130 N   0  0  0  0  0  0  0  0  0  0  0  0
    5.1850    0.9380   18.2180 C   0  0  0  0  0  0  0  0  0  0  0  0
    4.8540    1.0860   19.5480 C   0  0  0  0  0  0  0  0  0  0  0  0
    5.6860    0.5610   20.5570 C   0  0  0  0  0  0  0  0  0  0  0  0
    5.1970    0.8000   22.0040 C   0  0  0  0  0  0  0  0  0  0  0  0
   10.8210    3.2120   23.5630 S   0  0  0  0  0  0  0  0  0  0  0  0
   10.6020    4.6090   24.5770 C   0  0  0  0  0  0  0  0  0  0  0  0
   11.3720    5.7780   24.4940 C   0  0  0  0  0  0  0  0  0  0  0  0
  1  2  1  0
  2  3  2  0
  3  4  1  0
  4  5  1  0
  4  6  2  0
  6  7  1  0
  7  8  2  0
  8  9  1  0
  9 10  2  0
  9 11  1  0
 11 12  1  0
 12 13  1  0
 13 14  2  0
 13 15  1  0
 15 16  1  0
 16 17  2  0
 17 18  1  0
 18 19  2  0
 19 20  1  0
 16 21  1  0
 20 21  2  0
 21 22  1  0
  8 23  1  0
  6 24  1  0
 23 24  1  0
  2 25  1  0
 24 25  2  0
M  END
