GAB-REV-4a4e2ff3-17
     RDKit          3D

 28 31  0  0  0  0  0  0  0  0999 V2000
    8.9790    6.6850   22.5430 C   0  0  0  0  0  0  0  0  0  0  0  0
   10.1270    6.2560   23.4130 C   0  0  0  0  0  0  0  0  0  0  0  0
   10.1200    6.3850   24.6330 O   0  0  0  0  0  0  0  0  0  0  0  0
   11.1690    5.7150   22.7100 N   0  0  0  0  0  0  0  0  0  0  0  0
   12.2810    5.1080   23.4240 C   0  0  0  0  0  0  0  0  0  0  0  0
   12.6450    3.7340   22.8670 C   0  0  0  0  0  0  0  0  0  0  0  0
   11.6200    2.6650   23.1050 C   0  0  0  0  0  0  0  0  0  0  0  0
   10.3450    2.9150   23.5270 C   0  0  0  0  0  0  0  0  0  0  0  0
    9.6840    1.7340   23.5700 N   0  0  0  0  0  0  0  0  0  0  0  0
   10.5120    0.7090   23.1840 C   0  0  0  0  0  0  0  0  0  0  0  0
   10.2130   -0.6530   23.0470 C   0  0  0  0  0  0  0  0  0  0  0  0
    8.9660   -1.1510   23.2580 N   0  0  0  0  0  0  0  0  0  0  0  0
    8.4150   -1.6010   22.0970 C   0  0  0  0  0  0  0  0  0  0  0  0
    8.6950   -1.7960   24.4440 C   0  0  0  0  0  0  0  0  0  0  0  0
    9.9150   -2.5040   24.9490 C   0  0  0  0  0  0  0  0  0  0  0  0
    9.7360   -3.7050   25.6400 C   0  0  0  0  0  0  0  0  0  0  0  0
   10.8290   -4.3810   26.1330 C   0  0  0  0  0  0  0  0  0  0  0  0
   12.0970   -3.8430   25.9320 C   0  0  0  0  0  0  0  0  0  0  0  0
   13.3670   -4.1780   26.2690 N   0  0  0  0  0  0  0  0  0  0  0  0
   14.3240   -3.3220   25.8300 N   0  0  0  0  0  0  0  0  0  0  0  0
   13.5740   -2.4170   25.1950 C   0  0  0  0  0  0  0  0  0  0  0  0
   12.2400   -2.6770   25.2380 C   0  0  0  0  0  0  0  0  0  0  0  0
   11.1970   -1.9780   24.7350 C   0  0  0  0  0  0  0  0  0  0  0  0
   11.2700   -1.4750   22.6490 C   0  0  0  0  0  0  0  0  0  0  0  0
   12.6540   -0.9740   22.3730 C   0  0  0  0  0  0  0  0  0  0  0  0
   13.5950   -1.8220   21.9940 F   0  0  0  0  0  0  0  0  0  0  0  0
   12.9080    0.3520   22.5020 C   0  0  0  0  0  0  0  0  0  0  0  0
   11.7350    1.2280   22.9220 C   0  0  0  0  0  0  0  0  0  0  0  0
  1  2  1  0
  2  3  2  0
  2  4  1  0
  4  5  1  0
  5  6  1  0
  6  7  1  0
  7  8  2  0
  8  9  1  0
  9 10  1  0
 10 11  1  0
 11 12  1  0
 12 13  1  0
 12 14  1  0
 14 15  1  0
 15 16  2  0
 16 17  1  0
 17 18  2  0
 18 19  1  0
 19 20  1  0
 20 21  2  0
 18 22  1  0
 21 22  1  0
 15 23  1  0
 22 23  2  0
 11 24  2  0
 24 25  1  0
 25 26  1  0
 25 27  2  0
  7 28  1  0
 10 28  2  0
 27 28  1  0
M  END
