GAB-REV-4a4e2ff3-8
     RDKit          3D

 27 29  0  0  0  0  0  0  0  0999 V2000
    6.1600   -1.0730   29.4480 C   0  0  0  0  0  0  0  0  0  0  0  0
    6.2760    0.0160   28.5310 O   0  0  0  0  0  0  0  0  0  0  0  0
    6.9800   -0.3430   27.3340 C   0  0  0  0  0  0  0  0  0  0  0  0
    6.3450   -0.1050   25.9800 C   0  0  0  0  0  0  0  0  0  0  0  0
    7.0120   -0.4610   24.8120 C   0  0  0  0  0  0  0  0  0  0  0  0
    8.2760   -1.0370   24.9040 C   0  0  0  0  0  0  0  0  0  0  0  0
    8.9570   -1.4290   23.7510 C   0  0  0  0  0  0  0  0  0  0  0  0
   10.1540   -0.8090   23.3900 C   0  0  0  0  0  0  0  0  0  0  0  0
   11.3110   -1.6420   22.8060 C   0  0  0  0  0  0  0  0  0  0  0  0
   12.6770   -1.0830   22.3560 C   0  0  0  0  0  0  0  0  0  0  0  0
   13.6210   -1.8580   21.8640 F   0  0  0  0  0  0  0  0  0  0  0  0
   12.8680    0.4230   22.5030 C   0  0  0  0  0  0  0  0  0  0  0  0
   11.7110    1.2420   23.0540 C   0  0  0  0  0  0  0  0  0  0  0  0
   11.6130    2.7680   23.2480 C   0  0  0  0  0  0  0  0  0  0  0  0
   12.7110    3.7710   22.8430 C   0  0  0  0  0  0  0  0  0  0  0  0
   12.3400    5.1380   23.4110 C   0  0  0  0  0  0  0  0  0  0  0  0
   11.2120    5.6730   22.6640 N   0  0  0  0  0  0  0  0  0  0  0  0
   10.1730    6.2710   23.3120 C   0  0  0  0  0  0  0  0  0  0  0  0
    9.0450    6.6670   22.5760 C   0  0  0  0  0  0  0  0  0  0  0  0
   10.2060    6.4740   24.5200 O   0  0  0  0  0  0  0  0  0  0  0  0
   10.4090    3.1320   23.8090 C   0  0  0  0  0  0  0  0  0  0  0  0
    9.7360    1.8620   23.9400 N   0  0  0  0  0  0  0  0  0  0  0  0
   10.4980    0.6920   23.4700 C   0  0  0  0  0  0  0  0  0  0  0  0
    8.8800   -1.2520   26.1260 C   0  0  0  0  0  0  0  0  0  0  0  0
    8.2390   -0.9150   27.3070 C   0  0  0  0  0  0  0  0  0  0  0  0
    8.9480   -1.2010   28.5130 O   0  0  0  0  0  0  0  0  0  0  0  0
    8.7110   -0.3460   29.6380 C   0  0  0  0  0  0  0  0  0  0  0  0
  1  2  1  0
  2  3  1  0
  3  4  2  0
  4  5  1  0
  5  6  2  0
  6  7  1  0
  7  8  1  0
  8  9  2  0
  9 10  1  0
 10 11  1  0
 10 12  2  0
 12 13  1  0
 13 14  1  0
 14 15  1  0
 15 16  1  0
 16 17  1  0
 17 18  1  0
 18 19  1  0
 18 20  2  0
 14 21  2  0
 21 22  1  0
  8 23  1  0
 13 23  2  0
 22 23  1  0
  6 24  1  0
  3 25  1  0
 24 25  2  0
 25 26  1  0
 26 27  1  0
M  END
