GAB-REV-df64cf17-14-chloroacetamide
     RDKit          3D

 27 29  0  0  0  0  0  0  0  0999 V2000
    8.0280   -3.0760   18.8300 C   0  0  0  0  0  0  0  0  0  0  0  0
    7.4720   -3.1240   20.1590 C   0  0  0  0  0  0  0  0  0  0  0  0
    6.4030   -3.9190   19.9530 O   0  0  0  0  0  0  0  0  0  0  0  0
    8.1620   -2.3480   21.4410 C   0  0  0  0  0  0  0  0  0  0  0  0
    9.3700   -1.2780   21.2710 C   0  0  0  0  0  0  0  0  0  0  0  0
    9.7060   -0.7970   22.5480 N   0  0  0  0  0  0  0  0  0  0  0  0
    9.2130   -1.0700   23.7550 C   0  0  0  0  0  0  0  0  0  0  0  0
    9.7550   -0.3850   24.9810 N   0  0  0  0  0  0  0  0  0  0  0  0
    9.2420   -0.6790   26.2400 C   0  0  0  0  0  0  0  0  0  0  0  0
    8.1000    0.2630   26.5230 C   0  0  0  0  0  0  0  0  0  0  0  0
    8.1820   -2.0000   23.8780 C   0  0  0  0  0  0  0  0  0  0  0  0
    7.6210   -2.3240   25.1600 O   0  0  0  0  0  0  0  0  0  0  0  0
    6.2580   -2.4880   25.2190 C   0  0  0  0  0  0  0  0  0  0  0  0
    5.3250   -1.5020   24.6050 C   0  0  0  0  0  0  0  0  0  0  0  0
    5.7550   -0.2350   23.8660 C   0  0  0  0  0  0  0  0  0  0  0  0
    4.0090   -1.8870   24.7880 N   0  0  0  0  0  0  0  0  0  0  0  0
    3.2140   -1.1040   25.6260 C   0  0  0  0  0  0  0  0  0  0  0  0
    4.1660   -3.2610   25.2450 N   0  0  0  0  0  0  0  0  0  0  0  0
    3.4170   -4.2150   24.6680 C   0  0  0  0  0  0  0  0  0  0  0  0
    3.9920   -5.2700   23.7500 C   0  0  0  0  0  0  0  0  0  0  0  0
    3.0290   -6.3000   23.1530 C   0  0  0  0  0  0  0  0  0  0  0  0
    1.5410   -6.2270   23.4990 C   0  0  0  0  0  0  0  0  0  0  0  0
    1.0830   -5.1300   24.4280 C   0  0  0  0  0  0  0  0  0  0  0  0
    2.0720   -4.1320   24.9970 C   0  0  0  0  0  0  0  0  0  0  0  0
    5.4820   -3.4900   25.7850 C   0  0  0  0  0  0  0  0  0  0  0  0
    5.8890   -4.3410   26.5620 O   0  0  0  0  0  0  0  0  0  0  0  0
    7.6820   -2.6190   22.7280 C   0  0  0  0  0  0  0  0  0  0  0  0
  1  2  1  0
  2  3  2  0
  2  4  1  0
  4  5  2  0
  5  6  1  0
  6  7  2  0
  7  8  1  0
  8  9  1  0
  9 10  1  0
  7 11  1  0
 11 12  1  0
 12 13  1  0
 13 14  2  0
 14 15  1  0
 14 16  1  0
 16 17  1  0
 16 18  1  0
 18 19  1  0
 19 20  2  0
 20 21  1  0
 21 22  2  0
 22 23  1  0
 19 24  1  0
 23 24  2  0
 13 25  1  0
 18 25  1  0
 25 26  2  0
  4 27  1  0
 11 27  2  0
M  END
