GAB-REV-4a4e2ff3-5
     RDKit          3D

 27 30  0  0  0  0  0  0  0  0999 V2000
    9.0090    6.6110   22.5800 C   0  0  0  0  0  0  0  0  0  0  0  0
   10.2300    6.2340   23.3890 C   0  0  0  0  0  0  0  0  0  0  0  0
   10.2840    6.3370   24.6160 O   0  0  0  0  0  0  0  0  0  0  0  0
   11.3250    5.7400   22.5590 N   0  0  0  0  0  0  0  0  0  0  0  0
   12.2320    4.8610   23.3040 C   0  0  0  0  0  0  0  0  0  0  0  0
   12.5140    3.5900   22.8350 C   0  0  0  0  0  0  0  0  0  0  0  0
   11.6990    2.5330   23.2550 C   0  0  0  0  0  0  0  0  0  0  0  0
   10.5020    2.6830   23.9480 C   0  0  0  0  0  0  0  0  0  0  0  0
    9.8670    1.4930   24.2170 N   0  0  0  0  0  0  0  0  0  0  0  0
   10.7820    0.5170   23.6150 C   0  0  0  0  0  0  0  0  0  0  0  0
   10.5250   -0.9970   23.6080 C   0  0  0  0  0  0  0  0  0  0  0  0
    9.2680   -1.5870   24.2630 C   0  0  0  0  0  0  0  0  0  0  0  0
    8.8370   -1.1610   25.6580 C   0  0  0  0  0  0  0  0  0  0  0  0
    7.5920   -1.7630   26.3080 C   0  0  0  0  0  0  0  0  0  0  0  0
    6.7520   -2.8160   25.5590 C   0  0  0  0  0  0  0  0  0  0  0  0
    7.2640   -3.1870   24.1500 C   0  0  0  0  0  0  0  0  0  0  0  0
    6.4790   -4.2290   23.3390 C   0  0  0  0  0  0  0  0  0  0  0  0
    6.8880   -5.5320   23.1500 C   0  0  0  0  0  0  0  0  0  0  0  0
    5.9030   -6.1070   22.3710 C   0  0  0  0  0  0  0  0  0  0  0  0
    4.9220   -5.2120   22.0830 N   0  0  0  0  0  0  0  0  0  0  0  0
    5.2800   -4.0350   22.6860 N   0  0  0  0  0  0  0  0  0  0  0  0
    8.4010   -2.6310   23.5630 C   0  0  0  0  0  0  0  0  0  0  0  0
   11.6250   -1.6800   22.9040 C   0  0  0  0  0  0  0  0  0  0  0  0
   12.7200   -1.0080   22.3800 C   0  0  0  0  0  0  0  0  0  0  0  0
   13.6380   -1.7340   21.7780 F   0  0  0  0  0  0  0  0  0  0  0  0
   12.8730    0.3680   22.4610 C   0  0  0  0  0  0  0  0  0  0  0  0
   11.8900    1.1300   23.0570 C   0  0  0  0  0  0  0  0  0  0  0  0
  1  2  1  0
  2  3  2  0
  2  4  1  0
  4  5  1  0
  5  6  1  0
  6  7  1  0
  7  8  2  0
  8  9  1  0
  9 10  1  0
 10 11  1  0
 11 12  1  0
 12 13  2  0
 13 14  1  0
 14 15  2  0
 15 16  1  0
 16 17  1  0
 17 18  2  0
 18 19  1  0
 19 20  2  0
 17 21  1  0
 20 21  1  0
 12 22  1  0
 16 22  2  0
 11 23  2  0
 23 24  1  0
 24 25  1  0
 24 26  2  0
  7 27  1  0
 10 27  2  0
 26 27  1  0
M  END
