GAB-REV-70cc3ca5-3
     RDKit          3D

 23 24  0  0  0  0  0  0  0  0999 V2000
    5.4430    0.8140   22.0650 C   0  0  0  0  0  0  0  0  0  0  0  0
    5.7120    0.7000   20.5900 C   0  0  0  0  0  0  0  0  0  0  0  0
    4.9670    1.3120   19.5910 C   0  0  0  0  0  0  0  0  0  0  0  0
    5.2520    1.1770   18.2220 C   0  0  0  0  0  0  0  0  0  0  0  0
    6.3030    0.4130   17.7930 N   0  0  0  0  0  0  0  0  0  0  0  0
    7.1200   -0.2600   18.7990 C   0  0  0  0  0  0  0  0  0  0  0  0
    6.7960   -0.0860   20.1410 C   0  0  0  0  0  0  0  0  0  0  0  0
    7.6400   -0.7710   20.9660 N   0  0  0  0  0  0  0  0  0  0  0  0
    8.6850   -0.0350   21.4790 C   0  0  0  0  0  0  0  0  0  0  0  0
    8.9230    1.3610   21.1600 O   0  0  0  0  0  0  0  0  0  0  0  0
    9.6970   -0.6920   22.4170 C   0  0  0  0  0  0  0  0  0  0  0  0
    9.6500   -2.0750   22.2280 C   0  0  0  0  0  0  0  0  0  0  0  0
    8.3910   -2.6910   22.4550 N   0  0  0  0  0  0  0  0  0  0  0  0
    8.1930   -3.5030   23.5180 C   0  0  0  0  0  0  0  0  0  0  0  0
    9.2460   -4.3600   23.7410 C   0  0  0  0  0  0  0  0  0  0  0  0
    9.2060   -5.2110   24.8000 C   0  0  0  0  0  0  0  0  0  0  0  0
    8.1040   -5.1940   25.6600 C   0  0  0  0  0  0  0  0  0  0  0  0
    8.2870   -6.2530   26.9870 S   0  0  0  0  0  0  0  0  0  0  0  0
    9.6890   -6.9730   26.4470 N   0  0  0  0  0  0  0  0  0  0  0  0
    7.0480   -6.9420   27.1760 O   0  0  0  0  0  0  0  0  0  0  0  0
    9.0250   -5.9400   28.1450 O   0  0  0  0  0  0  0  0  0  0  0  0
    7.0180   -4.3560   25.4340 C   0  0  0  0  0  0  0  0  0  0  0  0
    7.0420   -3.4750   24.3300 C   0  0  0  0  0  0  0  0  0  0  0  0
  1  2  1  0
  2  3  2  0
  3  4  1  0
  4  5  2  0
  5  6  1  0
  2  7  1  0
  6  7  2  0
  7  8  1  0
  8  9  1  0
  9 10  2  0
  9 11  1  0
 11 12  1  0
 12 13  1  0
 13 14  1  0
 14 15  2  0
 15 16  1  0
 16 17  2  0
 17 18  1  0
 18 19  1  0
 18 20  2  0
 18 21  2  0
 17 22  1  0
 14 23  1  0
 22 23  2  0
M  END
