GAB-REV-df64cf17-4-chloroacetamide
     RDKit          3D

 24 26  0  0  0  0  0  0  0  0999 V2000
    8.6100   -3.7660   19.4220 C   0  0  0  0  0  0  0  0  0  0  0  0
    7.9730   -2.7310   20.0720 C   0  0  0  0  0  0  0  0  0  0  0  0
    6.7740   -2.7990   19.3210 O   0  0  0  0  0  0  0  0  0  0  0  0
    8.7040   -2.0090   21.3920 C   0  0  0  0  0  0  0  0  0  0  0  0
    9.8560   -0.9420   21.6450 C   0  0  0  0  0  0  0  0  0  0  0  0
   10.3350   -0.4540   22.8610 N   0  0  0  0  0  0  0  0  0  0  0  0
    9.7520   -0.9490   23.9680 C   0  0  0  0  0  0  0  0  0  0  0  0
   10.0910   -0.5310   25.3540 N   0  0  0  0  0  0  0  0  0  0  0  0
    9.0150   -0.6690   26.2480 C   0  0  0  0  0  0  0  0  0  0  0  0
    9.1760    0.1950   27.4610 C   0  0  0  0  0  0  0  0  0  0  0  0
    8.7210   -1.9360   23.8720 C   0  0  0  0  0  0  0  0  0  0  0  0
    8.1090   -2.4680   25.1070 N   0  0  0  0  0  0  0  0  0  0  0  0
    6.6720   -2.2710   24.9190 C   0  0  0  0  0  0  0  0  0  0  0  0
    8.2300   -3.8460   25.5940 C   0  0  0  0  0  0  0  0  0  0  0  0
    7.1870   -4.7530   24.9310 C   0  0  0  0  0  0  0  0  0  0  0  0
    7.2510   -5.1580   23.4810 C   0  0  0  0  0  0  0  0  0  0  0  0
    6.3070   -6.0060   22.8770 C   0  0  0  0  0  0  0  0  0  0  0  0
    5.1000   -6.6340   23.5700 C   0  0  0  0  0  0  0  0  0  0  0  0
    4.0920   -7.3160   23.6640 N   0  0  0  0  0  0  0  0  0  0  0  0
    3.3370   -7.4390   24.9110 N   0  0  0  0  0  0  0  0  0  0  0  0
    4.0730   -6.6750   25.6750 C   0  0  0  0  0  0  0  0  0  0  0  0
    5.1900   -6.1480   24.8890 C   0  0  0  0  0  0  0  0  0  0  0  0
    6.1230   -5.2510   25.6700 C   0  0  0  0  0  0  0  0  0  0  0  0
    8.2510   -2.4170   22.6340 C   0  0  0  0  0  0  0  0  0  0  0  0
  1  2  1  0
  2  3  2  0
  2  4  1  0
  4  5  2  0
  5  6  1  0
  6  7  2  0
  7  8  1  0
  8  9  1  0
  9 10  1  0
  7 11  1  0
 11 12  1  0
 12 13  1  0
 12 14  1  0
 14 15  1  0
 15 16  2  0
 16 17  1  0
 17 18  2  0
 18 19  1  0
 19 20  1  0
 20 21  2  0
 18 22  1  0
 21 22  1  0
 15 23  1  0
 22 23  2  0
  4 24  1  0
 11 24  2  0
M  END
