GAB-REV-4a4e2ff3-10
     RDKit          3D

 30 33  0  0  0  0  0  0  0  0999 V2000
    8.9850    6.6480   22.5870 C   0  0  0  0  0  0  0  0  0  0  0  0
   10.2280    6.3100   23.3820 C   0  0  0  0  0  0  0  0  0  0  0  0
   10.2930    6.4210   24.6090 O   0  0  0  0  0  0  0  0  0  0  0  0
   11.3250    5.8450   22.5400 N   0  0  0  0  0  0  0  0  0  0  0  0
   12.3310    5.0760   23.2790 C   0  0  0  0  0  0  0  0  0  0  0  0
   12.6660    3.8060   22.8640 C   0  0  0  0  0  0  0  0  0  0  0  0
   11.7360    2.8050   23.0930 C   0  0  0  0  0  0  0  0  0  0  0  0
   10.4710    3.0920   23.5380 C   0  0  0  0  0  0  0  0  0  0  0  0
    9.6780    1.9990   23.6610 N   0  0  0  0  0  0  0  0  0  0  0  0
   10.5320    0.8720   23.2470 C   0  0  0  0  0  0  0  0  0  0  0  0
   10.0580   -0.5490   23.1830 C   0  0  0  0  0  0  0  0  0  0  0  0
    8.3720   -0.7720   23.5980 S   0  0  0  0  0  0  0  0  0  0  0  0
    7.6090   -0.7780   22.3700 O   0  0  0  0  0  0  0  0  0  0  0  0
    8.0730    0.1740   24.6520 O   0  0  0  0  0  0  0  0  0  0  0  0
    8.1840   -2.2790   24.2950 N   0  0  0  0  0  0  0  0  0  0  0  0
    9.4290   -2.8380   24.7920 C   0  0  0  0  0  0  0  0  0  0  0  0
    9.4600   -4.2330   25.3700 C   0  0  0  0  0  0  0  0  0  0  0  0
   10.7670   -4.7900   25.8750 C   0  0  0  0  0  0  0  0  0  0  0  0
   12.0060   -3.8730   25.7570 C   0  0  0  0  0  0  0  0  0  0  0  0
   11.9020   -2.5180   25.1720 C   0  0  0  0  0  0  0  0  0  0  0  0
   10.5580   -2.0260   24.6960 C   0  0  0  0  0  0  0  0  0  0  0  0
   13.0550   -1.8050   25.1100 C   0  0  0  0  0  0  0  0  0  0  0  0
   13.1900   -0.5100   24.7360 O   0  0  0  0  0  0  0  0  0  0  0  0
   13.9600   -2.7770   25.5270 N   0  0  0  0  0  0  0  0  0  0  0  0
   13.4770   -4.0030   26.1220 C   0  0  0  0  0  0  0  0  0  0  0  0
   11.0680   -1.4580   22.7660 C   0  0  0  0  0  0  0  0  0  0  0  0
   12.3860   -0.9660   22.4610 C   0  0  0  0  0  0  0  0  0  0  0  0
   13.3210   -1.8400   22.0660 F   0  0  0  0  0  0  0  0  0  0  0  0
   12.7660    0.4150   22.5390 C   0  0  0  0  0  0  0  0  0  0  0  0
   11.7970    1.3400   22.9290 C   0  0  0  0  0  0  0  0  0  0  0  0
  1  2  1  0
  2  3  2  0
  2  4  1  0
  4  5  1  0
  5  6  1  0
  6  7  1  0
  7  8  2  0
  8  9  1  0
  9 10  1  0
 10 11  1  0
 11 12  1  0
 12 13  2  0
 12 14  2  0
 12 15  1  0
 15 16  1  0
 16 17  2  0
 17 18  1  0
 18 19  2  0
 19 20  1  0
 16 21  1  0
 20 21  2  0
 20 22  1  0
 22 23  2  0
 22 24  1  0
 19 25  1  0
 24 25  1  0
 11 26  2  0
 26 27  1  0
 27 28  1  0
 27 29  2  0
  7 30  1  0
 10 30  2  0
 29 30  1  0
M  END
