GAB-REV-70cc3ca5-19-chloroacetamide
     RDKit          3D

 22 23  0  0  0  0  0  0  0  0999 V2000
    7.8310   -4.8130   20.6880 C   0  0  0  0  0  0  0  0  0  0  0  0
    6.5520   -4.0410   20.7200 C   0  0  0  0  0  0  0  0  0  0  0  0
    5.6350   -4.2240   19.8910 O   0  0  0  0  0  0  0  0  0  0  0  0
    6.4950   -3.0300   21.7870 C   0  0  0  0  0  0  0  0  0  0  0  0
    5.3770   -2.4580   22.4780 C   0  0  0  0  0  0  0  0  0  0  0  0
    5.6230   -1.5100   23.4610 C   0  0  0  0  0  0  0  0  0  0  0  0
    6.9110   -1.0930   23.8030 C   0  0  0  0  0  0  0  0  0  0  0  0
    8.0140   -1.6270   23.1530 C   0  0  0  0  0  0  0  0  0  0  0  0
    9.3440   -1.3150   23.3790 N   0  0  0  0  0  0  0  0  0  0  0  0
   10.3720   -2.0150   23.9870 C   0  0  0  0  0  0  0  0  0  0  0  0
    9.9570   -0.4030   22.3990 C   0  0  0  0  0  0  0  0  0  0  0  0
    8.9290    0.2560   21.5500 C   0  0  0  0  0  0  0  0  0  0  0  0
    9.0460    1.6010   21.3080 O   0  0  0  0  0  0  0  0  0  0  0  0
    7.8890   -0.5220   20.9940 N   0  0  0  0  0  0  0  0  0  0  0  0
    6.9300   -0.0060   20.1320 C   0  0  0  0  0  0  0  0  0  0  0  0
    7.0970   -0.1890   18.7700 C   0  0  0  0  0  0  0  0  0  0  0  0
    6.2730    0.2650   17.7980 N   0  0  0  0  0  0  0  0  0  0  0  0
    5.1980    0.9460   18.2310 C   0  0  0  0  0  0  0  0  0  0  0  0
    4.9210    1.1810   19.5610 C   0  0  0  0  0  0  0  0  0  0  0  0
    5.7920    0.7040   20.5490 C   0  0  0  0  0  0  0  0  0  0  0  0
    5.3760    1.0340   22.0050 C   0  0  0  0  0  0  0  0  0  0  0  0
    7.7380   -2.5700   22.1800 C   0  0  0  0  0  0  0  0  0  0  0  0
  1  2  1  0
  2  3  2  0
  2  4  1  0
  4  5  2  0
  5  6  1  0
  6  7  2  0
  7  8  1  0
  8  9  1  0
  9 10  1  0
  9 11  1  0
 11 12  1  0
 12 13  2  0
 12 14  1  0
 14 15  1  0
 15 16  2  0
 16 17  1  0
 17 18  2  0
 18 19  1  0
 15 20  1  0
 19 20  2  0
 20 21  1  0
  4 22  1  0
  8 22  2  0
M  END
