GAB-REV-df64cf17-14-acrylamide
     RDKit          3D

 28 30  0  0  0  0  0  0  0  0999 V2000
    7.3040   -3.4200   19.1470 C   0  0  0  0  0  0  0  0  0  0  0  0
    7.7360   -2.6010   20.3060 C   0  0  0  0  0  0  0  0  0  0  0  0
    6.6890   -2.8590   21.4160 C   0  0  0  0  0  0  0  0  0  0  0  0
    5.2070   -3.4650   21.1990 O   0  0  0  0  0  0  0  0  0  0  0  0
    7.4410   -2.3560   22.7730 C   0  0  0  0  0  0  0  0  0  0  0  0
    8.6010   -1.6950   23.5900 C   0  0  0  0  0  0  0  0  0  0  0  0
    9.8620   -1.1210   22.9120 N   0  0  0  0  0  0  0  0  0  0  0  0
   10.4000   -0.6880   24.1000 C   0  0  0  0  0  0  0  0  0  0  0  0
   10.2300   -0.5950   25.4800 N   0  0  0  0  0  0  0  0  0  0  0  0
    9.1400    0.1400   26.1000 C   0  0  0  0  0  0  0  0  0  0  0  0
    8.6850   -0.7440   27.2140 C   0  0  0  0  0  0  0  0  0  0  0  0
    9.1550   -1.3700   23.9330 C   0  0  0  0  0  0  0  0  0  0  0  0
    8.3760   -1.6410   25.0750 O   0  0  0  0  0  0  0  0  0  0  0  0
    7.8620   -2.8630   25.5540 C   0  0  0  0  0  0  0  0  0  0  0  0
    7.4240   -4.0690   24.7500 C   0  0  0  0  0  0  0  0  0  0  0  0
    7.4770   -4.1880   23.2480 C   0  0  0  0  0  0  0  0  0  0  0  0
    6.9210   -5.1240   25.4880 N   0  0  0  0  0  0  0  0  0  0  0  0
    5.6040   -5.5870   25.1130 C   0  0  0  0  0  0  0  0  0  0  0  0
    6.9640   -4.6350   26.8360 N   0  0  0  0  0  0  0  0  0  0  0  0
    6.2700   -5.2950   27.8230 C   0  0  0  0  0  0  0  0  0  0  0  0
    6.9080   -6.2980   28.7140 C   0  0  0  0  0  0  0  0  0  0  0  0
    5.9760   -6.9170   29.7220 C   0  0  0  0  0  0  0  0  0  0  0  0
    4.5320   -6.4490   29.7080 C   0  0  0  0  0  0  0  0  0  0  0  0
    3.7890   -5.4180   28.8310 C   0  0  0  0  0  0  0  0  0  0  0  0
    4.9040   -4.9440   27.9130 C   0  0  0  0  0  0  0  0  0  0  0  0
    7.5610   -3.3400   26.9540 C   0  0  0  0  0  0  0  0  0  0  0  0
    7.7960   -2.7110   27.9750 O   0  0  0  0  0  0  0  0  0  0  0  0
    8.6760   -1.7720   22.5310 C   0  0  0  0  0  0  0  0  0  0  0  0
  1  2  1  0
  2  3  1  0
  3  4  2  0
  3  5  1  0
  5  6  2  0
  6  7  1  0
  7  8  2  0
  8  9  1  0
  9 10  1  0
 10 11  1  0
  8 12  1  0
 12 13  1  0
 13 14  1  0
 14 15  2  0
 15 16  1  0
 15 17  1  0
 17 18  1  0
 17 19  1  0
 19 20  1  0
 20 21  2  0
 21 22  1  0
 22 23  2  0
 23 24  1  0
 20 25  1  0
 24 25  2  0
 14 26  1  0
 19 26  1  0
 26 27  2  0
  5 28  1  0
 12 28  2  0
M  END
