GAB-REV-70cc3ca5-15
     RDKit          3D

 24 26  0  0  0  0  0  0  0  0999 V2000
   11.8190    8.1710   25.1250 C   0  0  0  0  0  0  0  0  0  0  0  0
   12.1110    7.7090   23.8120 O   0  0  0  0  0  0  0  0  0  0  0  0
   11.9980    6.3640   23.6230 C   0  0  0  0  0  0  0  0  0  0  0  0
   12.9390    5.6110   22.9200 C   0  0  0  0  0  0  0  0  0  0  0  0
   12.9500    4.2060   22.6600 C   0  0  0  0  0  0  0  0  0  0  0  0
   11.8670    3.5280   23.1880 C   0  0  0  0  0  0  0  0  0  0  0  0
   11.7520    2.1450   23.0220 C   0  0  0  0  0  0  0  0  0  0  0  0
   12.8140    1.2550   22.9610 C   0  0  0  0  0  0  0  0  0  0  0  0
   12.3630   -0.3570   22.7710 S   0  0  0  0  0  0  0  0  0  0  0  0
   10.7330    0.1870   22.7470 C   0  0  0  0  0  0  0  0  0  0  0  0
    9.6930   -0.6960   22.5620 C   0  0  0  0  0  0  0  0  0  0  0  0
    8.8150   -0.0150   21.5920 C   0  0  0  0  0  0  0  0  0  0  0  0
    9.0620    1.2990   21.2490 O   0  0  0  0  0  0  0  0  0  0  0  0
    7.7690   -0.7430   21.0710 N   0  0  0  0  0  0  0  0  0  0  0  0
    6.8220   -0.1340   20.1040 C   0  0  0  0  0  0  0  0  0  0  0  0
    7.1280   -0.3270   18.7790 C   0  0  0  0  0  0  0  0  0  0  0  0
    6.2430    0.2830   17.8100 N   0  0  0  0  0  0  0  0  0  0  0  0
    5.1060    1.0410   18.2120 C   0  0  0  0  0  0  0  0  0  0  0  0
    4.8250    1.2000   19.5500 C   0  0  0  0  0  0  0  0  0  0  0  0
    5.6890    0.6110   20.4960 C   0  0  0  0  0  0  0  0  0  0  0  0
    5.2590    0.8760   21.9640 C   0  0  0  0  0  0  0  0  0  0  0  0
   10.5510    1.5630   22.9060 N   0  0  0  0  0  0  0  0  0  0  0  0
   10.8840    4.2870   23.9100 C   0  0  0  0  0  0  0  0  0  0  0  0
   10.9280    5.6560   24.1320 C   0  0  0  0  0  0  0  0  0  0  0  0
  1  2  1  0
  2  3  1  0
  3  4  2  0
  4  5  1  0
  5  6  2  0
  6  7  1  0
  7  8  2  0
  8  9  1  0
  9 10  1  0
 10 11  1  0
 11 12  1  0
 12 13  2  0
 12 14  1  0
 14 15  1  0
 15 16  2  0
 16 17  1  0
 17 18  2  0
 18 19  1  0
 15 20  1  0
 19 20  2  0
 20 21  1  0
  7 22  1  0
 10 22  2  0
  6 23  1  0
  3 24  1  0
 23 24  2  0
M  END
