GAB-REV-70cc3ca5-1
     RDKit          3D

 24 26  0  0  0  0  0  0  0  0999 V2000
    5.3830    0.7220   22.0280 C   0  0  0  0  0  0  0  0  0  0  0  0
    5.6700    0.6580   20.5520 C   0  0  0  0  0  0  0  0  0  0  0  0
    4.9500    1.3210   19.5620 C   0  0  0  0  0  0  0  0  0  0  0  0
    5.2530    1.2300   18.1960 C   0  0  0  0  0  0  0  0  0  0  0  0
    6.2970    0.4640   17.7530 N   0  0  0  0  0  0  0  0  0  0  0  0
    7.0870   -0.2570   18.7430 C   0  0  0  0  0  0  0  0  0  0  0  0
    6.7460   -0.1300   20.0810 C   0  0  0  0  0  0  0  0  0  0  0  0
    7.5740   -0.8640   20.8670 N   0  0  0  0  0  0  0  0  0  0  0  0
    8.4450   -0.1030   21.5970 C   0  0  0  0  0  0  0  0  0  0  0  0
    8.9030    1.2100   21.1740 O   0  0  0  0  0  0  0  0  0  0  0  0
    8.9720   -0.6350   22.9280 C   0  0  0  0  0  0  0  0  0  0  0  0
   10.3060   -0.9580   22.8890 N   0  0  0  0  0  0  0  0  0  0  0  0
   10.7840   -2.1660   22.4140 C   0  0  0  0  0  0  0  0  0  0  0  0
   11.0280    0.1730   22.9090 C   0  0  0  0  0  0  0  0  0  0  0  0
   12.3890   -0.0260   22.8330 C   0  0  0  0  0  0  0  0  0  0  0  0
   13.1800    1.0750   22.8430 C   0  0  0  0  0  0  0  0  0  0  0  0
   12.6660    2.3640   22.9270 C   0  0  0  0  0  0  0  0  0  0  0  0
   11.3200    2.5770   23.0080 C   0  0  0  0  0  0  0  0  0  0  0  0
   10.8290    3.8940   23.1020 C   0  0  0  0  0  0  0  0  0  0  0  0
   11.5390    5.1200   22.5550 C   0  0  0  0  0  0  0  0  0  0  0  0
   10.7210    6.1530   22.8680 C   0  0  0  0  0  0  0  0  0  0  0  0
    9.5790    5.7880   23.5420 N   0  0  0  0  0  0  0  0  0  0  0  0
    9.6960    4.4200   23.6550 N   0  0  0  0  0  0  0  0  0  0  0  0
   10.5000    1.4710   22.9960 C   0  0  0  0  0  0  0  0  0  0  0  0
  1  2  1  0
  2  3  2  0
  3  4  1  0
  4  5  2  0
  5  6  1  0
  2  7  1  0
  6  7  2  0
  7  8  1  0
  8  9  1  0
  9 10  2  0
  9 11  1  0
 11 12  1  0
 12 13  1  0
 12 14  1  0
 14 15  2  0
 15 16  1  0
 16 17  2  0
 17 18  1  0
 18 19  1  0
 19 20  2  0
 20 21  1  0
 21 22  2  0
 19 23  1  0
 22 23  1  0
 14 24  1  0
 18 24  2  0
M  END
