GER-FIO-88d97d8c-1-chloroacetamide
     RDKit          3D

 34 37  0  0  0  0  0  0  0  0999 V2000
    7.3610   -3.0210   18.9090 C   0  0  0  0  0  0  0  0  0  0  0  0
    6.4610   -3.3900   20.0410 C   0  0  0  0  0  0  0  0  0  0  0  0
    5.5310   -4.2020   19.8510 O   0  0  0  0  0  0  0  0  0  0  0  0
    6.7110   -2.8350   21.3180 N   0  0  0  0  0  0  0  0  0  0  0  0
    6.1670   -3.3460   22.4810 C   0  0  0  0  0  0  0  0  0  0  0  0
    7.2840   -3.8180   23.4140 C   0  0  0  0  0  0  0  0  0  0  0  0
    6.8700   -4.9190   24.3630 C   0  0  0  0  0  0  0  0  0  0  0  0
    7.8950   -5.4960   25.3610 C   0  0  0  0  0  0  0  0  0  0  0  0
    9.3030   -4.8760   25.2700 C   0  0  0  0  0  0  0  0  0  0  0  0
    9.4960   -3.7800   24.2490 C   0  0  0  0  0  0  0  0  0  0  0  0
    8.5260   -3.2740   23.3750 C   0  0  0  0  0  0  0  0  0  0  0  0
    8.8170   -2.2540   22.5430 C   0  0  0  0  0  0  0  0  0  0  0  0
    9.9480   -1.3700   22.7350 C   0  0  0  0  0  0  0  0  0  0  0  0
   11.3000   -1.7590   22.2880 C   0  0  0  0  0  0  0  0  0  0  0  0
   12.4010   -0.7720   22.5430 C   0  0  0  0  0  0  0  0  0  0  0  0
   12.1230    0.4500   23.1690 C   0  0  0  0  0  0  0  0  0  0  0  0
   10.8450    0.7480   23.5530 C   0  0  0  0  0  0  0  0  0  0  0  0
   10.5490    1.9210   24.1590 C   0  0  0  0  0  0  0  0  0  0  0  0
    9.4880    2.6810   23.5070 N   0  0  0  0  0  0  0  0  0  0  0  0
    8.4800    3.5030   24.5580 S   0  0  0  0  0  0  0  0  0  0  0  0
    8.1500    2.2690   25.8040 C   0  0  0  0  0  0  0  0  0  0  0  0
    7.2560    3.7610   23.8570 O   0  0  0  0  0  0  0  0  0  0  0  0
    9.2950    4.5490   25.1350 O   0  0  0  0  0  0  0  0  0  0  0  0
    9.7040   -0.1740   23.3460 C   0  0  0  0  0  0  0  0  0  0  0  0
    7.8790   -2.0260   21.5530 C   0  0  0  0  0  0  0  0  0  0  0  0
    8.0990   -0.8930   20.8050 C   0  0  0  0  0  0  0  0  0  0  0  0
    9.0160   -0.1570   21.1300 O   0  0  0  0  0  0  0  0  0  0  0  0
    7.1770   -0.7180   19.7880 N   0  0  0  0  0  0  0  0  0  0  0  0
    6.1490    0.2410   19.7710 C   0  0  0  0  0  0  0  0  0  0  0  0
    5.8670    0.8220   18.5300 C   0  0  0  0  0  0  0  0  0  0  0  0
    4.7790    1.8950   18.2990 C   0  0  0  0  0  0  0  0  0  0  0  0
    4.1350    2.1390   19.6850 C   0  0  0  0  0  0  0  0  0  0  0  0
    4.4460    1.5510   20.8560 N   0  0  0  0  0  0  0  0  0  0  0  0
    5.4250    0.6310   20.8770 C   0  0  0  0  0  0  0  0  0  0  0  0
  1  2  1  0
  2  3  2  0
  2  4  1  0
  4  5  1  0
  5  6  1  0
  6  7  1  0
  7  8  2  0
  8  9  1  0
  9 10  2  0
  6 11  2  0
 10 11  1  0
 11 12  1  0
 12 13  1  0
 13 14  2  0
 14 15  1  0
 15 16  2  0
 16 17  1  0
 17 18  1  0
 18 19  1  0
 20 19  1  0
 20 21  1  0
 20 22  2  0
 20 23  2  0
 13 24  1  0
 17 24  2  0
  4 25  1  0
 12 25  2  0
 25 26  1  0
 26 27  2  0
 26 28  1  0
 28 29  1  0
 29 30  2  0
 30 31  1  0
 31 32  2  0
 32 33  1  0
 29 34  1  0
 33 34  2  0
M  END
