GER-FIO-88d97d8c-1-vinylsulfonamide
     RDKit          3D

 36 39  0  0  0  0  0  0  0  0999 V2000
    8.1490   -3.4810   19.7060 C   0  0  0  0  0  0  0  0  0  0  0  0
    7.0750   -2.6210   19.1200 C   0  0  0  0  0  0  0  0  0  0  0  0
    5.7890   -3.2190   20.0560 S   0  0  0  0  0  0  0  0  0  0  0  0
    4.4650   -2.9120   19.7420 O   0  0  0  0  0  0  0  0  0  0  0  0
    5.9720   -4.6140   19.9470 O   0  0  0  0  0  0  0  0  0  0  0  0
    6.2600   -2.8690   21.6080 N   0  0  0  0  0  0  0  0  0  0  0  0
    6.5990   -3.9800   22.2410 C   0  0  0  0  0  0  0  0  0  0  0  0
    7.6380   -3.8030   23.3540 C   0  0  0  0  0  0  0  0  0  0  0  0
    6.9730   -4.7810   24.2900 C   0  0  0  0  0  0  0  0  0  0  0  0
    7.5580   -4.9810   25.6060 C   0  0  0  0  0  0  0  0  0  0  0  0
    8.9060   -4.3980   25.6710 C   0  0  0  0  0  0  0  0  0  0  0  0
    9.6410   -3.6620   24.5480 C   0  0  0  0  0  0  0  0  0  0  0  0
    8.8050   -2.9120   23.5790 C   0  0  0  0  0  0  0  0  0  0  0  0
    8.3960   -2.7410   22.2950 C   0  0  0  0  0  0  0  0  0  0  0  0
    9.4750   -1.7190   22.6350 C   0  0  0  0  0  0  0  0  0  0  0  0
   10.8590   -2.0430   22.1900 C   0  0  0  0  0  0  0  0  0  0  0  0
   11.9660   -1.0720   22.5020 C   0  0  0  0  0  0  0  0  0  0  0  0
   11.7340    0.1210   23.1870 C   0  0  0  0  0  0  0  0  0  0  0  0
   10.4480    0.3890   23.5750 C   0  0  0  0  0  0  0  0  0  0  0  0
   10.2660    1.5710   24.2320 C   0  0  0  0  0  0  0  0  0  0  0  0
    9.7830    2.6350   23.3330 N   0  0  0  0  0  0  0  0  0  0  0  0
   10.5380    4.1230   23.4050 S   0  0  0  0  0  0  0  0  0  0  0  0
   12.0040    3.8840   22.4060 C   0  0  0  0  0  0  0  0  0  0  0  0
   10.9440    4.3160   24.7710 O   0  0  0  0  0  0  0  0  0  0  0  0
    9.6750    5.1000   22.7840 O   0  0  0  0  0  0  0  0  0  0  0  0
    9.2560   -0.5230   23.3230 C   0  0  0  0  0  0  0  0  0  0  0  0
    7.2610   -1.9990   22.0980 C   0  0  0  0  0  0  0  0  0  0  0  0
    7.3310   -0.7040   21.5690 C   0  0  0  0  0  0  0  0  0  0  0  0
    8.3780   -0.2240   21.1660 O   0  0  0  0  0  0  0  0  0  0  0  0
    6.0850   -0.0920   21.5950 N   0  0  0  0  0  0  0  0  0  0  0  0
    5.5160    0.7140   20.5860 C   0  0  0  0  0  0  0  0  0  0  0  0
    5.9340    0.4880   19.2650 C   0  0  0  0  0  0  0  0  0  0  0  0
    5.4120    1.2790   18.0510 C   0  0  0  0  0  0  0  0  0  0  0  0
    4.3950    2.3100   18.5920 C   0  0  0  0  0  0  0  0  0  0  0  0
    4.0290    2.4850   19.8770 N   0  0  0  0  0  0  0  0  0  0  0  0
    4.5820    1.7030   20.8240 C   0  0  0  0  0  0  0  0  0  0  0  0
  1  2  1  0
  3  2  1  0
  3  4  2  0
  3  5  2  0
  3  6  1  0
  6  7  1  0
  7  8  1  0
  8  9  1  0
  9 10  2  0
 10 11  1  0
 11 12  2  0
  8 13  2  0
 12 13  1  0
 13 14  1  0
 14 15  1  0
 15 16  2  0
 16 17  1  0
 17 18  2  0
 18 19  1  0
 19 20  1  0
 20 21  1  0
 22 21  1  0
 22 23  1  0
 22 24  2  0
 22 25  2  0
 15 26  1  0
 19 26  2  0
  6 27  1  0
 14 27  2  0
 27 28  1  0
 28 29  2  0
 28 30  1  0
 30 31  1  0
 31 32  2  0
 32 33  1  0
 33 34  2  0
 34 35  1  0
 31 36  1  0
 35 36  2  0
M  END
