GER-FIO-88d97d8c-2-chloroacetamide
     RDKit          3D

 36 40  0  0  0  0  0  0  0  0999 V2000
    7.3600   -3.0210   18.9180 C   0  0  0  0  0  0  0  0  0  0  0  0
    6.5010   -3.4270   20.0790 C   0  0  0  0  0  0  0  0  0  0  0  0
    5.5800   -4.2530   19.8880 O   0  0  0  0  0  0  0  0  0  0  0  0
    6.7730   -2.8830   21.3690 N   0  0  0  0  0  0  0  0  0  0  0  0
    6.2300   -3.3860   22.5450 C   0  0  0  0  0  0  0  0  0  0  0  0
    7.3330   -3.8910   23.4900 C   0  0  0  0  0  0  0  0  0  0  0  0
    6.8830   -4.9390   24.4870 C   0  0  0  0  0  0  0  0  0  0  0  0
    7.9030   -5.5290   25.4930 C   0  0  0  0  0  0  0  0  0  0  0  0
    9.3450   -4.9820   25.3680 C   0  0  0  0  0  0  0  0  0  0  0  0
    9.5670   -3.9370   24.3050 C   0  0  0  0  0  0  0  0  0  0  0  0
    8.6040   -3.4230   23.4260 C   0  0  0  0  0  0  0  0  0  0  0  0
    8.9520   -2.4600   22.5690 C   0  0  0  0  0  0  0  0  0  0  0  0
   10.1890   -1.7420   22.7310 C   0  0  0  0  0  0  0  0  0  0  0  0
    9.7460   -0.4310   23.0960 C   0  0  0  0  0  0  0  0  0  0  0  0
    9.7290    1.0280   23.3790 C   0  0  0  0  0  0  0  0  0  0  0  0
   10.7610    1.8690   23.2770 C   0  0  0  0  0  0  0  0  0  0  0  0
   10.6040    3.2240   23.4880 C   0  0  0  0  0  0  0  0  0  0  0  0
   11.7230    4.0040   23.3270 C   0  0  0  0  0  0  0  0  0  0  0  0
   11.5680    5.6750   23.5450 S   0  0  0  0  0  0  0  0  0  0  0  0
   10.0760    5.9820   22.8640 N   0  0  0  0  0  0  0  0  0  0  0  0
   11.4330    5.9650   24.9480 O   0  0  0  0  0  0  0  0  0  0  0  0
   12.5070    6.3570   22.6830 O   0  0  0  0  0  0  0  0  0  0  0  0
   12.9190    3.3840   22.9990 C   0  0  0  0  0  0  0  0  0  0  0  0
   13.0030    1.9930   22.8240 C   0  0  0  0  0  0  0  0  0  0  0  0
   11.8700    1.2780   22.9540 C   0  0  0  0  0  0  0  0  0  0  0  0
   11.4900   -0.3380   22.7710 S   0  0  0  0  0  0  0  0  0  0  0  0
    8.0080   -2.1720   21.5930 C   0  0  0  0  0  0  0  0  0  0  0  0
    8.2950   -1.0720   20.8120 C   0  0  0  0  0  0  0  0  0  0  0  0
    9.2540   -0.3910   21.1420 O   0  0  0  0  0  0  0  0  0  0  0  0
    7.4120   -0.8470   19.7760 N   0  0  0  0  0  0  0  0  0  0  0  0
    6.5310    0.2430   19.6470 C   0  0  0  0  0  0  0  0  0  0  0  0
    5.6710    0.4530   18.3760 C   0  0  0  0  0  0  0  0  0  0  0  0
    4.8570    1.7450   18.6350 C   0  0  0  0  0  0  0  0  0  0  0  0
    4.9420    2.4910   19.7930 C   0  0  0  0  0  0  0  0  0  0  0  0
    5.7250    2.2130   20.8360 N   0  0  0  0  0  0  0  0  0  0  0  0
    6.4850    1.1150   20.7330 C   0  0  0  0  0  0  0  0  0  0  0  0
  1  2  1  0
  2  3  2  0
  2  4  1  0
  4  5  1  0
  5  6  1  0
  6  7  1  0
  7  8  2  0
  8  9  1  0
  9 10  2  0
  6 11  2  0
 10 11  1  0
 11 12  1  0
 12 13  1  0
 13 14  1  0
 14 15  2  0
 15 16  1  0
 16 17  2  0
 17 18  1  0
 18 19  1  0
 19 20  1  0
 19 21  2  0
 19 22  2  0
 18 23  2  0
 23 24  1  0
 16 25  1  0
 24 25  2  0
 14 26  1  0
 25 26  1  0
  4 27  1  0
 12 27  2  0
 27 28  1  0
 28 29  2  0
 28 30  1  0
 30 31  1  0
 31 32  2  0
 32 33  1  0
 33 34  2  0
 34 35  1  0
 31 36  1  0
 35 36  2  0
M  END
