GIA-UNK-3f36037a-1
     RDKit          3D

 18 19  0  0  0  0  0  0  0  0999 V2000
    7.8780   -0.7610   21.1320 O   0  0  0  0  0  0  0  0  0  0  0  0
    6.7850   -1.1680   20.7170 C   0  0  0  0  0  0  0  0  0  0  0  0
    6.7090   -2.3790   19.8310 C   0  0  0  0  0  0  0  0  0  0  0  0
    6.2660   -3.7140   20.4400 C   0  0  0  0  0  0  0  0  0  0  0  0
    5.3360   -4.4450   19.7680 O   0  0  0  0  0  0  0  0  0  0  0  0
    6.9250   -4.1360   21.6760 N   0  0  0  0  0  0  0  0  0  0  0  0
    7.7940   -3.2960   22.4820 C   0  0  0  0  0  0  0  0  0  0  0  0
    6.9880   -3.0000   23.7080 C   0  0  0  0  0  0  0  0  0  0  0  0
    6.6620   -4.0510   24.2680 O   0  0  0  0  0  0  0  0  0  0  0  0
    5.7690   -4.9110   23.5380 C   0  0  0  0  0  0  0  0  0  0  0  0
    6.3640   -5.3350   22.3510 C   0  0  0  0  0  0  0  0  0  0  0  0
    5.5760   -0.5120   21.0300 N   0  0  0  0  0  0  0  0  0  0  0  0
    5.5010    0.8130   20.9040 C   0  0  0  0  0  0  0  0  0  0  0  0
    6.6580    1.4540   20.2090 C   0  0  0  0  0  0  0  0  0  0  0  0
    6.6520    0.9120   18.7730 C   0  0  0  0  0  0  0  0  0  0  0  0
    5.3330    1.2690   18.1020 C   0  0  0  0  0  0  0  0  0  0  0  0
    4.3210    0.7510   18.8710 C   0  0  0  0  0  0  0  0  0  0  0  0
    4.3170    1.0600   20.2080 C   0  0  0  0  0  0  0  0  0  0  0  0
  1  2  2  0
  2  3  1  0
  3  4  1  0
  4  5  2  0
  4  6  1  0
  6  7  1  0
  7  8  1  0
  8  9  1  0
  9 10  1  0
  6 11  1  0
 10 11  1  0
  2 12  1  0
 12 13  1  0
 13 14  1  0
 14 15  1  0
 15 16  1  0
 16 17  1  0
 13 18  1  0
 17 18  1  0
M  END
