GIA-UNK-20b63697-7-chloroacetamide
     RDKit          3D

 21 22  0  0  0  0  0  0  0  0999 V2000
    6.2810   -4.7650   20.6030 C   0  0  0  0  0  0  0  0  0  0  0  0
    5.3070   -3.5410   20.8200 C   0  0  0  0  0  0  0  0  0  0  0  0
    5.2170   -3.7050   19.5630 O   0  0  0  0  0  0  0  0  0  0  0  0
    5.5950   -3.5960   22.2420 N   0  0  0  0  0  0  0  0  0  0  0  0
    4.6840   -4.2620   23.2210 C   0  0  0  0  0  0  0  0  0  0  0  0
    4.2180   -3.3320   24.3580 C   0  0  0  0  0  0  0  0  0  0  0  0
    5.1760   -2.6390   24.9780 N   0  0  0  0  0  0  0  0  0  0  0  0
    5.9650   -3.4570   25.6770 C   0  0  1  0  0  0  0  0  0  0  0  0
    6.6120   -4.1800   24.7170 C   0  0  0  0  0  0  0  0  0  0  0  0
    6.0950   -5.3990   24.3070 C   0  0  0  0  0  0  0  0  0  0  0  0
    6.6510   -6.1570   23.3040 C   0  0  0  0  0  0  0  0  0  0  0  0
    7.7770   -5.6650   22.6920 C   0  0  0  0  0  0  0  0  0  0  0  0
    8.3340   -4.4400   23.0860 C   0  0  0  0  0  0  0  0  0  0  0  0
    7.7700   -3.6900   24.0980 C   0  0  0  0  0  0  0  0  0  0  0  0
    6.7350   -2.8630   26.6940 C   0  0  0  0  0  0  0  0  0  0  0  0
    6.9490   -3.7690   27.7530 C   0  0  0  0  0  0  0  0  0  0  0  0
    6.1920   -3.6790   28.7260 O   0  0  0  0  0  0  0  0  0  0  0  0
    6.1130   -1.6360   26.9540 C   0  0  0  0  0  0  0  0  0  0  0  0
    6.6780   -0.6780   27.7480 O   0  0  0  0  0  0  0  0  0  0  0  0
    5.9360   -1.9400   23.9980 C   0  0  0  0  0  0  0  0  0  0  0  0
    6.4480   -2.6620   22.8750 C   0  0  0  0  0  0  0  0  0  0  0  0
  1  2  1  0
  2  3  2  0
  2  4  1  0
  4  5  1  0
  5  6  1  0
  6  7  1  0
  7  8  1  0
  8  9  1  0
  9 10  2  0
 10 11  1  0
 11 12  2  0
 12 13  1  0
  9 14  1  0
 13 14  2  0
  8 15  1  6
 15 16  1  0
 16 17  1  0
 15 18  1  0
 18 19  1  0
  7 20  1  0
  4 21  1  0
 20 21  1  0
M  END
