GIA-UNK-5ec6c2b8-3
     RDKit          3D

 16 17  0  0  0  0  0  0  0  0999 V2000
    6.7020   -1.6330   18.7350 O   0  0  0  0  0  0  0  0  0  0  0  0
    6.6070   -2.3740   19.6980 C   0  0  0  0  0  0  0  0  0  0  0  0
    5.3680   -3.5820   19.7690 S   0  0  0  0  0  0  0  0  0  0  0  0
    7.4990   -2.3840   20.8840 C   0  0  0  0  0  0  0  0  0  0  0  0
    7.0780   -3.0510   22.0410 C   0  0  0  0  0  0  0  0  0  0  0  0
    8.0230   -3.0140   23.0660 C   0  0  0  0  0  0  0  0  0  0  0  0
    8.8860   -1.9650   23.1260 N   0  0  0  0  0  0  0  0  0  0  0  0
    9.9980   -2.0680   23.8940 C   0  0  0  0  0  0  0  0  0  0  0  0
   11.0740   -1.2290   23.6110 C   0  0  0  0  0  0  0  0  0  0  0  0
   12.2230   -1.6730   23.0840 C   0  0  0  0  0  0  0  0  0  0  0  0
   13.0160   -0.6710   22.9070 C   0  0  0  0  0  0  0  0  0  0  0  0
   13.0270    0.6430   23.0950 C   0  0  0  0  0  0  0  0  0  0  0  0
   11.9110    1.3240   23.6590 C   0  0  0  0  0  0  0  0  0  0  0  0
   10.9860    0.1810   23.8640 C   0  0  0  0  0  0  0  0  0  0  0  0
    9.0070   -1.0180   22.0120 C   0  0  0  0  0  0  0  0  0  0  0  0
    7.8680   -0.9660   21.2370 C   0  0  0  0  0  0  0  0  0  0  0  0
  1  2  2  0
  2  3  1  0
  2  4  1  0
  4  5  1  0
  5  6  1  0
  6  7  1  0
  7  8  1  0
  8  9  1  0
  9 10  2  0
 10 11  1  0
 11 12  2  0
 12 13  1  0
  9 14  1  0
 13 14  2  0
  7 15  1  0
  4 16  1  0
 15 16  1  0
M  END
