GIA-UNK-20b63697-7-acrylamide
     RDKit          3D

 22 23  0  0  0  0  0  0  0  0999 V2000
    6.1360   -5.4190   20.3850 C   0  0  0  0  0  0  0  0  0  0  0  0
    6.3950   -5.8560   21.8330 C   0  0  0  0  0  0  0  0  0  0  0  0
    5.5150   -5.0930   22.8120 C   0  0  0  0  0  0  0  0  0  0  0  0
    4.4750   -4.5100   22.4050 O   0  0  0  0  0  0  0  0  0  0  0  0
    5.9250   -5.0830   24.1610 N   0  0  0  0  0  0  0  0  0  0  0  0
    7.3390   -5.0110   24.5610 C   0  0  0  0  0  0  0  0  0  0  0  0
    7.4350   -4.2300   25.8380 C   0  0  0  0  0  0  0  0  0  0  0  0
    6.3800   -3.3220   26.1210 N   0  0  0  0  0  0  0  0  0  0  0  0
    6.3190   -2.1280   25.2560 C   0  0  2  0  0  0  0  0  0  0  0  0
    7.3130   -2.2790   24.2590 C   0  0  0  0  0  0  0  0  0  0  0  0
    6.9750   -1.9170   22.8770 C   0  0  0  0  0  0  0  0  0  0  0  0
    7.6730   -1.9180   21.5630 C   0  0  0  0  0  0  0  0  0  0  0  0
    8.9110   -2.4240   22.0290 C   0  0  0  0  0  0  0  0  0  0  0  0
    9.1220   -2.7220   23.3050 C   0  0  0  0  0  0  0  0  0  0  0  0
    8.5990   -2.7550   24.4990 C   0  0  0  0  0  0  0  0  0  0  0  0
    6.2030   -0.7740   25.9920 C   0  0  0  0  0  0  0  0  0  0  0  0
    7.3780   -0.9080   25.2950 C   0  0  0  0  0  0  0  0  0  0  0  0
    8.2190   -0.0320   25.4180 O   0  0  0  0  0  0  0  0  0  0  0  0
    4.9680   -0.0520   25.6260 C   0  0  0  0  0  0  0  0  0  0  0  0
    4.5170    0.8690   26.3090 O   0  0  0  0  0  0  0  0  0  0  0  0
    5.1650   -4.0440   26.2050 C   0  0  0  0  0  0  0  0  0  0  0  0
    4.9850   -5.1110   25.3000 C   0  0  0  0  0  0  0  0  0  0  0  0
  1  2  1  0
  2  3  1  0
  3  4  2  0
  3  5  1  0
  5  6  1  0
  6  7  1  0
  7  8  1  0
  8  9  1  0
  9 10  1  0
 10 11  2  0
 11 12  1  0
 12 13  2  0
 13 14  1  0
 10 15  1  0
 14 15  2  0
  9 16  1  1
 16 17  1  0
 17 18  1  0
 16 19  1  0
 19 20  1  0
  8 21  1  0
  5 22  1  0
 21 22  1  0
M  END
