GIA-UNK-20b63697-8-vinylsulfonamide
     RDKit          3D

 28 30  0  0  0  0  0  0  0  0999 V2000
    7.5360   -4.6040   20.9050 C   0  0  0  0  0  0  0  0  0  0  0  0
    7.4630   -5.2110   22.3150 C   0  0  0  0  0  0  0  0  0  0  0  0
    5.8000   -5.6800   22.7150 S   0  0  0  0  0  0  0  0  0  0  0  0
    4.9240   -5.0170   21.7710 O   0  0  0  0  0  0  0  0  0  0  0  0
    5.8280   -7.1190   22.8210 O   0  0  0  0  0  0  0  0  0  0  0  0
    5.4900   -5.0730   24.2550 N   0  0  0  0  0  0  0  0  0  0  0  0
    6.5750   -4.7960   25.1680 C   0  0  0  0  0  0  0  0  0  0  0  0
    6.6170   -3.3260   25.5710 C   0  0  0  0  0  0  0  0  0  0  0  0
    5.6410   -2.4530   25.2210 N   0  0  0  0  0  0  0  0  0  0  0  0
    6.0330   -1.2530   24.7310 C   0  0  1  0  0  0  0  0  0  0  0  0
    6.5860   -0.3190   25.6180 C   0  0  0  0  0  0  0  0  0  0  0  0
    7.2570   -0.7600   26.7640 C   0  0  0  0  0  0  0  0  0  0  0  0
    7.8060    0.1700   27.6480 C   0  0  0  0  0  0  0  0  0  0  0  0
    7.7040    1.5330   27.4210 C   0  0  0  0  0  0  0  0  0  0  0  0
    7.0420    2.0060   26.2910 C   0  0  0  0  0  0  0  0  0  0  0  0
    6.4900    1.0790   25.3990 C   0  0  0  0  0  0  0  0  0  0  0  0
    6.7860   -1.3690   23.5550 C   0  0  0  0  0  0  0  0  0  0  0  0
    6.4880   -2.4850   22.7760 C   0  0  0  0  0  0  0  0  0  0  0  0
    5.4110   -2.2860   21.9210 C   0  0  0  0  0  0  0  0  0  0  0  0
    5.5090   -1.4370   20.8950 N   0  0  0  0  0  0  0  0  0  0  0  0
    5.7170   -2.1470   19.6040 C   0  0  0  0  0  0  0  0  0  0  0  0
    5.3310   -3.3130   19.3770 O   0  0  0  0  0  0  0  0  0  0  0  0
    6.3940   -1.3590   18.6870 C   0  0  0  0  0  0  0  0  0  0  0  0
    6.1300    0.0230   18.9200 O   0  0  0  0  0  0  0  0  0  0  0  0
    6.3320   -0.3720   21.1260 C   0  0  0  0  0  0  0  0  0  0  0  0
    6.5820   -0.2850   22.6480 C   0  0  0  0  0  0  0  0  0  0  0  0
    4.4130   -2.8270   24.7670 C   0  0  0  0  0  0  0  0  0  0  0  0
    4.2330   -4.3210   24.4110 C   0  0  0  0  0  0  0  0  0  0  0  0
  1  2  1  0
  3  2  1  0
  3  4  2  0
  3  5  2  0
  3  6  1  0
  6  7  1  0
  7  8  1  0
  8  9  1  0
  9 10  1  0
 10 11  1  1
 11 12  2  0
 12 13  1  0
 13 14  2  0
 14 15  1  0
 11 16  1  0
 15 16  2  0
 10 17  1  0
 17 18  1  0
 18 19  1  0
 19 20  1  0
 20 21  1  0
 21 22  2  0
 21 23  1  0
 23 24  1  0
 20 25  1  0
 17 26  1  0
 25 26  1  0
  9 27  1  0
  6 28  1  0
 27 28  1  0
M  END
