GIA-UNK-20b63697-3-vinylsulfonamide
     RDKit          3D

 26 28  0  0  0  0  0  0  0  0999 V2000
    6.4580   -4.9410   20.3960 C   0  0  0  0  0  0  0  0  0  0  0  0
    6.1950   -5.4290   21.8220 C   0  0  0  0  0  0  0  0  0  0  0  0
    4.9060   -4.5280   22.6530 S   0  0  0  0  0  0  0  0  0  0  0  0
    3.6870   -5.2970   22.5320 O   0  0  0  0  0  0  0  0  0  0  0  0
    4.9170   -3.1870   22.1130 O   0  0  0  0  0  0  0  0  0  0  0  0
    5.3780   -4.4640   24.3040 N   0  0  0  0  0  0  0  0  0  0  0  0
    6.4040   -5.3330   24.8700 C   0  0  0  0  0  0  0  0  0  0  0  0
    7.2450   -4.5930   25.7550 C   0  0  0  0  0  0  0  0  0  0  0  0
    6.6000   -3.2860   26.1340 N   0  0  0  0  0  0  0  0  0  0  0  0
    6.6130   -2.2580   25.2220 C   0  0  1  0  0  0  0  0  0  0  0  0
    6.4420   -1.0250   25.8710 C   0  0  0  0  0  0  0  0  0  0  0  0
    7.4650   -0.0610   25.8510 C   0  0  0  0  0  0  0  0  0  0  0  0
    7.2540    1.2810   26.5660 C   0  0  0  0  0  0  0  0  0  0  0  0
    6.0700    1.5290   27.2180 C   0  0  0  0  0  0  0  0  0  0  0  0
    5.0410    0.4890   27.2050 C   0  0  0  0  0  0  0  0  0  0  0  0
    5.2330   -0.7320   26.5540 C   0  0  0  0  0  0  0  0  0  0  0  0
    7.6040   -2.3450   24.2180 C   0  0  0  0  0  0  0  0  0  0  0  0
    8.9190   -2.5370   24.6480 C   0  0  0  0  0  0  0  0  0  0  0  0
    9.5980   -3.3960   23.7840 C   0  0  0  0  0  0  0  0  0  0  0  0
    9.8520   -2.5690   22.3080 S   0  0  0  0  0  0  0  0  0  0  0  0
    9.4140   -3.4190   21.2190 O   0  0  0  0  0  0  0  0  0  0  0  0
   11.1560   -1.9270   22.3450 O   0  0  0  0  0  0  0  0  0  0  0  0
    8.6660   -1.2470   22.3260 C   0  0  0  0  0  0  0  0  0  0  0  0
    7.4810   -1.2950   23.3240 C   0  0  0  0  0  0  0  0  0  0  0  0
    5.1840   -3.6070   26.4910 C   0  0  0  0  0  0  0  0  0  0  0  0
    4.4690   -3.9170   25.3290 C   0  0  0  0  0  0  0  0  0  0  0  0
  1  2  1  0
  3  2  1  0
  3  4  2  0
  3  5  2  0
  3  6  1  0
  6  7  1  0
  7  8  1  0
  8  9  1  0
  9 10  1  0
 10 11  1  1
 11 12  2  0
 12 13  1  0
 13 14  2  0
 14 15  1  0
 11 16  1  0
 15 16  2  0
 10 17  1  0
 17 18  1  0
 18 19  1  0
 20 19  1  0
 20 21  2  0
 20 22  2  0
 20 23  1  0
 17 24  1  0
 23 24  1  0
  9 25  1  0
  6 26  1  0
 25 26  1  0
M  END
