GIA-UNK-20b63697-1-chloroacetamide
     RDKit          3D

 23 24  0  0  0  0  0  0  0  0999 V2000
    6.1290   -4.3600   20.3310 C   0  0  0  0  0  0  0  0  0  0  0  0
    5.8330   -5.6190   21.1760 C   0  0  0  0  0  0  0  0  0  0  0  0
    5.6000   -5.9800   20.0010 O   0  0  0  0  0  0  0  0  0  0  0  0
    6.1720   -4.8590   22.3790 N   0  0  0  0  0  0  0  0  0  0  0  0
    5.3680   -3.7300   22.8560 C   0  0  0  0  0  0  0  0  0  0  0  0
    4.8390   -3.9550   24.1730 C   0  0  0  0  0  0  0  0  0  0  0  0
    5.9400   -3.8840   25.1870 N   0  0  0  0  0  0  0  0  0  0  0  0
    6.5100   -2.6620   25.4180 C   0  0  1  0  0  0  0  0  0  0  0  0
    7.0030   -2.3030   24.1810 C   0  0  0  0  0  0  0  0  0  0  0  0
    7.9240   -3.1190   24.3010 C   0  0  0  0  0  0  0  0  0  0  0  0
    8.6360   -2.9280   23.0110 C   0  0  0  0  0  0  0  0  0  0  0  0
    8.3150   -2.0060   21.9100 C   0  0  0  0  0  0  0  0  0  0  0  0
    9.1880   -2.9340   22.2660 C   0  0  0  0  0  0  0  0  0  0  0  0
    8.0210   -2.4940   23.1190 C   0  0  0  0  0  0  0  0  0  0  0  0
    5.7280   -1.6960   26.0900 C   0  0  0  0  0  0  0  0  0  0  0  0
    4.9050   -2.2330   27.0920 C   0  0  0  0  0  0  0  0  0  0  0  0
    4.6080   -1.2880   28.0710 C   0  0  0  0  0  0  0  0  0  0  0  0
    4.7650   -1.7060   29.2170 O   0  0  0  0  0  0  0  0  0  0  0  0
    4.7590   -1.0480   25.0360 C   0  0  0  0  0  0  0  0  0  0  0  0
    4.3100    0.4060   25.3730 C   0  0  0  0  0  0  0  0  0  0  0  0
    3.9980    1.1570   24.1940 O   0  0  0  0  0  0  0  0  0  0  0  0
    6.9800   -4.8720   24.7300 C   0  0  0  0  0  0  0  0  0  0  0  0
    6.5230   -5.6400   23.6270 C   0  0  0  0  0  0  0  0  0  0  0  0
  1  2  1  0
  2  3  2  0
  2  4  1  0
  4  5  1  0
  5  6  1  0
  6  7  1  0
  7  8  1  0
  8  9  1  0
  9 10  2  0
 10 11  1  0
 11 12  2  0
 12 13  1  0
  9 14  1  0
 13 14  2  0
  8 15  1  6
 15 16  1  0
 16 17  1  0
 17 18  1  0
 15 19  1  0
 19 20  1  0
 20 21  1  0
  7 22  1  0
  4 23  1  0
 22 23  1  0
M  END
