GIA-UNK-30c7cb75-4
     RDKit          3D

 20 22  0  0  0  0  0  0  0  0999 V2000
    2.5150    1.4410   24.7290 O   0  0  0  0  0  0  0  0  0  0  0  0
    2.3430    2.2390   23.8090 C   0  0  0  0  0  0  0  0  0  0  0  0
    3.4570    2.5050   22.7480 C   0  0  1  0  0  0  0  0  0  0  0  0
    4.5420    3.4510   23.2290 C   0  0  0  0  0  0  0  0  0  0  0  0
    5.7620    2.8250   23.5740 C   0  0  0  0  0  0  0  0  0  0  0  0
    6.2900    2.2130   22.4330 C   0  0  0  0  0  0  0  0  0  0  0  0
    5.4990    1.2410   21.8990 N   0  0  0  0  0  0  0  0  0  0  0  0
    5.6090    0.9730   20.5370 C   0  0  0  0  0  0  0  0  0  0  0  0
    6.4850   -0.1340   20.0760 C   0  0  0  0  0  0  0  0  0  0  0  0
    6.6150   -0.4040   18.7150 C   0  0  0  0  0  0  0  0  0  0  0  0
    6.0120    0.2510   17.7070 N   0  0  0  0  0  0  0  0  0  0  0  0
    5.1070    1.3770   18.0850 C   0  0  0  0  0  0  0  0  0  0  0  0
    4.9370    1.7020   19.5560 C   0  0  0  0  0  0  0  0  0  0  0  0
    4.1070    1.1500   22.3800 C   0  0  0  0  0  0  0  0  0  0  0  0
    1.1190    2.9440   23.6590 N   0  0  0  0  0  0  0  0  0  0  0  0
   -0.1600    2.4700   24.3010 C   0  0  0  0  0  0  0  0  0  0  0  0
   -1.2450    3.5760   24.3800 C   0  0  0  0  0  0  0  0  0  0  0  0
   -0.5480    4.8040   24.9300 C   0  0  0  0  0  0  0  0  0  0  0  0
    0.6620    5.1480   24.0920 C   0  0  0  0  0  0  0  0  0  0  0  0
    0.9730    4.2440   23.0790 C   0  0  0  0  0  0  0  0  0  0  0  0
  1  2  2  0
  3  2  1  1
  3  4  1  0
  4  5  1  0
  5  6  1  0
  6  7  1  0
  7  8  1  0
  8  9  2  0
  9 10  1  0
 10 11  2  0
 11 12  1  0
  8 13  1  0
 12 13  2  0
  3 14  1  0
  7 14  1  0
  2 15  1  0
 15 16  1  0
 16 17  1  0
 17 18  1  0
 18 19  1  0
 15 20  1  0
 19 20  1  0
M  END
