GIA-UNK-5ec6c2b8-4
     RDKit          3D

 18 19  0  0  0  0  0  0  0  0999 V2000
    7.0630   -1.8550   18.8580 O   0  0  0  0  0  0  0  0  0  0  0  0
    6.5010   -2.2830   19.8550 C   0  0  0  0  0  0  0  0  0  0  0  0
    5.4030   -3.6220   19.7640 S   0  0  0  0  0  0  0  0  0  0  0  0
    6.6550   -1.7420   21.2390 C   0  0  0  0  0  0  0  0  0  0  0  0
    6.4950   -2.6640   22.3060 C   0  0  0  0  0  0  0  0  0  0  0  0
    7.6590   -3.1600   22.8680 C   0  0  0  0  0  0  0  0  0  0  0  0
    8.6660   -2.2990   23.0020 N   0  0  0  0  0  0  0  0  0  0  0  0
    9.7930   -2.5060   24.2560 S   0  0  0  0  0  0  0  0  0  0  0  0
   10.3130   -3.8460   24.2370 O   0  0  0  0  0  0  0  0  0  0  0  0
    9.1550   -1.9960   25.4340 O   0  0  0  0  0  0  0  0  0  0  0  0
   11.0660   -1.3620   23.7850 C   0  0  0  0  0  0  0  0  0  0  0  0
   12.1810   -1.7010   23.0520 C   0  0  0  0  0  0  0  0  0  0  0  0
   13.0220   -0.6980   22.7810 C   0  0  0  0  0  0  0  0  0  0  0  0
   13.0830    0.6100   23.0380 C   0  0  0  0  0  0  0  0  0  0  0  0
   11.9660    0.9790   23.7870 C   0  0  0  0  0  0  0  0  0  0  0  0
   10.9660    0.0030   24.1590 C   0  0  0  0  0  0  0  0  0  0  0  0
    9.0670   -1.6610   21.7530 C   0  0  0  0  0  0  0  0  0  0  0  0
    7.9700   -0.9480   21.2890 C   0  0  0  0  0  0  0  0  0  0  0  0
  1  2  2  0
  2  3  1  0
  2  4  1  0
  4  5  1  0
  5  6  1  0
  6  7  1  0
  7  8  1  0
  8  9  2  0
  8 10  2  0
  8 11  1  0
 11 12  2  0
 12 13  1  0
 13 14  2  0
 14 15  1  0
 11 16  1  0
 15 16  2  0
  7 17  1  0
  4 18  1  0
 17 18  1  0
M  END
