GIA-UNK-595fac82-2
     RDKit          3D

 19 20  0  0  0  0  0  0  0  0999 V2000
    5.3100   -7.1160   31.6300 C   0  0  0  0  0  0  0  0  0  0  0  0
    4.9790   -7.7340   30.3690 N   0  0  0  0  0  0  0  0  0  0  0  0
    5.4350   -7.0270   29.1570 C   0  0  0  0  0  0  0  0  0  0  0  0
    4.8460   -7.0090   28.0810 O   0  0  0  0  0  0  0  0  0  0  0  0
    6.6120   -6.3950   29.4340 O   0  0  0  0  0  0  0  0  0  0  0  0
    6.8890   -5.1420   28.7600 C   0  0  0  0  0  0  0  0  0  0  0  0
    5.6320   -4.2660   28.8100 C   0  0  0  0  0  0  0  0  0  0  0  0
    5.7280   -3.1410   27.8170 C   0  0  0  0  0  0  0  0  0  0  0  0
    6.5200   -3.2980   26.6500 N   0  0  0  0  0  0  0  0  0  0  0  0
    5.7510   -3.1340   25.4070 C   0  0  0  0  0  0  0  0  0  0  0  0
    4.6490   -2.5910   25.3460 O   0  0  0  0  0  0  0  0  0  0  0  0
    6.3400   -3.6410   24.2490 C   0  0  0  0  0  0  0  0  0  0  0  0
    7.4580   -3.0460   23.7520 C   0  0  0  0  0  0  0  0  0  0  0  0
    7.9530   -3.6030   22.6320 C   0  0  0  0  0  0  0  0  0  0  0  0
    7.3100   -4.7040   22.0810 C   0  0  0  0  0  0  0  0  0  0  0  0
    6.1640   -5.4730   22.4000 C   0  0  0  0  0  0  0  0  0  0  0  0
    5.7720   -4.7680   23.5860 C   0  0  0  0  0  0  0  0  0  0  0  0
    7.6440   -4.1510   26.7370 C   0  0  0  0  0  0  0  0  0  0  0  0
    7.3670   -5.3910   27.3020 C   0  0  0  0  0  0  0  0  0  0  0  0
  1  2  1  0
  2  3  1  0
  3  4  2  0
  3  5  1  0
  5  6  1  0
  6  7  1  0
  7  8  1  0
  8  9  1  0
  9 10  1  0
 10 11  2  0
 10 12  1  0
 12 13  2  0
 13 14  1  0
 14 15  2  0
 15 16  1  0
 12 17  1  0
 16 17  2  0
  9 18  1  0
  6 19  1  0
 18 19  1  0
M  END
