GIA-UNK-20b63697-8-nitrile
     RDKit          3D

 25 27  0  0  0  0  0  0  0  0999 V2000
    6.7240   -4.8860   21.3200 C   0  0  0  0  0  0  0  0  0  0  0  0
    6.5890   -3.9080   19.8980 N   0  0  0  0  0  0  0  0  0  0  0  0
    6.7860   -5.3350   21.9740 N   0  0  0  0  0  0  0  0  0  0  0  0
    7.8410   -5.4760   22.9910 C   0  0  0  0  0  0  0  0  0  0  0  0
    7.8180   -4.9420   24.4870 C   0  0  0  0  0  0  0  0  0  0  0  0
    6.5980   -4.8670   25.0980 N   0  0  0  0  0  0  0  0  0  0  0  0
    6.0790   -3.4610   25.3840 C   0  0  2  0  0  0  0  0  0  0  0  0
    4.8170   -3.5380   26.3140 C   0  0  0  0  0  0  0  0  0  0  0  0
    3.7750   -2.6710   26.1340 C   0  0  0  0  0  0  0  0  0  0  0  0
    2.6630   -2.7490   26.9350 C   0  0  0  0  0  0  0  0  0  0  0  0
    2.5530   -3.6940   27.9500 C   0  0  0  0  0  0  0  0  0  0  0  0
    3.6060   -4.6180   28.1610 C   0  0  0  0  0  0  0  0  0  0  0  0
    4.7460   -4.5340   27.3390 C   0  0  0  0  0  0  0  0  0  0  0  0
    5.7510   -2.5050   24.2200 C   0  0  0  0  0  0  0  0  0  0  0  0
    7.0730   -2.9850   23.9180 C   0  0  0  0  0  0  0  0  0  0  0  0
    7.2820   -2.8930   22.4820 C   0  0  0  0  0  0  0  0  0  0  0  0
    6.2170   -3.2110   21.6690 N   0  0  0  0  0  0  0  0  0  0  0  0
    6.2790   -3.2350   20.2830 C   0  0  0  0  0  0  0  0  0  0  0  0
    5.4910   -4.0020   19.7400 O   0  0  0  0  0  0  0  0  0  0  0  0
    7.1580   -2.5010   19.4940 C   0  0  0  0  0  0  0  0  0  0  0  0
    7.1530   -3.2310   18.2260 O   0  0  0  0  0  0  0  0  0  0  0  0
    5.1180   -3.7420   22.2370 C   0  0  0  0  0  0  0  0  0  0  0  0
    4.7820   -3.0670   23.3740 C   0  0  0  0  0  0  0  0  0  0  0  0
    5.6570   -5.4650   24.4130 C   0  0  0  0  0  0  0  0  0  0  0  0
    6.0870   -4.7050   23.1150 C   0  0  0  0  0  0  0  0  0  0  0  0
  1  2  2  3
  1  3  1  0
  3  4  1  0
  4  5  1  0
  5  6  1  0
  6  7  1  0
  7  8  1  6
  8  9  2  0
  9 10  1  0
 10 11  2  0
 11 12  1  0
  8 13  1  0
 12 13  2  0
  7 14  1  0
 14 15  1  0
 15 16  1  0
 16 17  1  0
 17 18  1  0
 18 19  2  0
 18 20  1  0
 20 21  1  0
 17 22  1  0
 14 23  1  0
 22 23  1  0
  6 24  1  0
  3 25  1  0
 24 25  1  0
M  END
