GIA-UNK-20b63697-1-acrylamide
     RDKit          3D

 24 25  0  0  0  0  0  0  0  0999 V2000
    7.5250   -5.4930   21.3030 C   0  0  0  0  0  0  0  0  0  0  0  0
    6.1600   -6.0500   21.7380 C   0  0  0  0  0  0  0  0  0  0  0  0
    5.4330   -5.2480   22.8410 C   0  0  0  0  0  0  0  0  0  0  0  0
    4.3830   -4.6300   22.4680 O   0  0  0  0  0  0  0  0  0  0  0  0
    5.9560   -5.2420   24.2340 N   0  0  0  0  0  0  0  0  0  0  0  0
    5.1580   -5.5480   25.4670 C   0  0  0  0  0  0  0  0  0  0  0  0
    5.1760   -4.4990   26.3650 C   0  0  0  0  0  0  0  0  0  0  0  0
    6.2390   -3.6140   26.3930 N   0  0  0  0  0  0  0  0  0  0  0  0
    6.2530   -2.3520   25.8130 C   0  0  1  0  0  0  0  0  0  0  0  0
    6.5820   -2.4200   24.4710 C   0  0  0  0  0  0  0  0  0  0  0  0
    5.5680   -2.7830   23.4650 C   0  0  0  0  0  0  0  0  0  0  0  0
    5.7150   -2.8840   22.1180 C   0  0  0  0  0  0  0  0  0  0  0  0
    7.2120   -2.5200   22.0550 C   0  0  0  0  0  0  0  0  0  0  0  0
    8.3830   -2.1530   22.8170 C   0  0  0  0  0  0  0  0  0  0  0  0
    7.8440   -2.1510   24.0740 C   0  0  0  0  0  0  0  0  0  0  0  0
    5.0790   -1.6280   26.1500 C   0  0  0  0  0  0  0  0  0  0  0  0
    3.8530   -2.1070   25.6730 C   0  0  0  0  0  0  0  0  0  0  0  0
    2.7550   -1.6360   26.4340 C   0  0  0  0  0  0  0  0  0  0  0  0
    2.1220   -2.5960   26.8640 O   0  0  0  0  0  0  0  0  0  0  0  0
    5.2120   -0.3830   25.5250 C   0  0  0  0  0  0  0  0  0  0  0  0
    6.1310    0.4730   26.1510 C   0  0  0  0  0  0  0  0  0  0  0  0
    5.4960    1.2230   27.1910 O   0  0  0  0  0  0  0  0  0  0  0  0
    7.3010   -4.2710   25.9390 C   0  0  0  0  0  0  0  0  0  0  0  0
    7.3300   -4.9120   24.6820 C   0  0  0  0  0  0  0  0  0  0  0  0
  1  2  1  0
  2  3  1  0
  3  4  2  0
  3  5  1  0
  5  6  1  0
  6  7  1  0
  7  8  1  0
  8  9  1  0
  9 10  1  0
 10 11  2  0
 11 12  1  0
 12 13  2  0
 13 14  1  0
 10 15  1  0
 14 15  2  0
  9 16  1  6
 16 17  1  0
 17 18  1  0
 18 19  1  0
 16 20  1  0
 20 21  1  0
 21 22  1  0
  8 23  1  0
  5 24  1  0
 23 24  1  0
M  END
