GIA-UNK-20b63697-4-acrylamide
     RDKit          3D

 23 25  0  0  0  0  0  0  0  0999 V2000
    7.4480   -5.3560   21.0290 C   0  0  0  0  0  0  0  0  0  0  0  0
    7.1060   -4.3680   22.1170 C   0  0  0  0  0  0  0  0  0  0  0  0
    5.6270   -4.0870   22.0760 C   0  0  0  0  0  0  0  0  0  0  0  0
    5.1330   -3.5420   21.0880 O   0  0  0  0  0  0  0  0  0  0  0  0
    4.8480   -4.4400   23.1580 N   0  0  0  0  0  0  0  0  0  0  0  0
    3.8500   -3.4580   23.5670 C   0  0  0  0  0  0  0  0  0  0  0  0
    4.3350   -2.6560   24.7240 C   0  0  0  0  0  0  0  0  0  0  0  0
    5.5900   -3.0120   25.2720 N   0  0  0  0  0  0  0  0  0  0  0  0
    6.6850   -2.0430   25.0150 C   0  0  1  0  0  0  0  0  0  0  0  0
    7.2840   -1.9200   26.2640 C   0  0  0  0  0  0  0  0  0  0  0  0
    7.6970   -0.6580   26.7110 C   0  0  0  0  0  0  0  0  0  0  0  0
    8.2790   -0.5160   27.9660 C   0  0  0  0  0  0  0  0  0  0  0  0
    8.4400   -1.6420   28.7550 C   0  0  0  0  0  0  0  0  0  0  0  0
    8.0420   -2.9070   28.3300 C   0  0  0  0  0  0  0  0  0  0  0  0
    7.4640   -3.0560   27.0900 C   0  0  0  0  0  0  0  0  0  0  0  0
    7.5790   -2.1790   23.7580 C   0  0  0  0  0  0  0  0  0  0  0  0
    7.8500   -3.2380   24.5770 C   0  0  0  0  0  0  0  0  0  0  0  0
    9.0810   -3.7790   24.1980 C   0  0  0  0  0  0  0  0  0  0  0  0
    9.7670   -3.2050   23.1670 N   0  0  0  0  0  0  0  0  0  0  0  0
    9.6620   -1.8650   22.9040 C   0  0  0  0  0  0  0  0  0  0  0  0
    8.6260   -1.2870   23.6410 C   0  0  0  0  0  0  0  0  0  0  0  0
    5.7890   -4.3660   25.4050 C   0  0  0  0  0  0  0  0  0  0  0  0
    5.3000   -5.2040   24.1990 C   0  0  0  0  0  0  0  0  0  0  0  0
  1  2  1  0
  2  3  1  0
  3  4  2  0
  3  5  1  0
  5  6  1  0
  6  7  1  0
  7  8  1  0
  8  9  1  0
  9 10  1  1
 10 11  2  0
 11 12  1  0
 12 13  2  0
 13 14  1  0
 10 15  1  0
 14 15  2  0
  9 16  1  0
 16 17  1  0
 17 18  1  0
 18 19  1  0
 19 20  1  0
 16 21  1  0
 20 21  1  0
  8 22  1  0
  5 23  1  0
 22 23  1  0
M  END
