GIA-UNK-20b63697-4-chloroacetamide
     RDKit          3D

 22 24  0  0  0  0  0  0  0  0999 V2000
    7.4560   -4.8580   20.5580 C   0  0  0  0  0  0  0  0  0  0  0  0
    6.0280   -4.8640   20.9460 C   0  0  0  0  0  0  0  0  0  0  0  0
    5.1980   -4.6990   19.9980 O   0  0  0  0  0  0  0  0  0  0  0  0
    5.7790   -5.0990   22.3170 N   0  0  0  0  0  0  0  0  0  0  0  0
    6.8420   -5.5030   23.2360 C   0  0  0  0  0  0  0  0  0  0  0  0
    6.7070   -4.7990   24.5840 C   0  0  0  0  0  0  0  0  0  0  0  0
    5.4900   -4.3580   24.9600 N   0  0  0  0  0  0  0  0  0  0  0  0
    5.2650   -3.0400   25.2300 C   0  0  2  0  0  0  0  0  0  0  0  0
    4.0260   -2.6450   25.7470 C   0  0  0  0  0  0  0  0  0  0  0  0
    2.8300   -3.0780   25.1860 C   0  0  0  0  0  0  0  0  0  0  0  0
    1.5750   -2.7240   25.6600 C   0  0  0  0  0  0  0  0  0  0  0  0
    1.4920   -1.8790   26.7620 C   0  0  0  0  0  0  0  0  0  0  0  0
    2.6700   -1.4140   27.3620 C   0  0  0  0  0  0  0  0  0  0  0  0
    3.9340   -1.7840   26.8720 C   0  0  0  0  0  0  0  0  0  0  0  0
    5.7560   -2.1090   24.2950 C   0  0  0  0  0  0  0  0  0  0  0  0
    7.1290   -1.9050   24.4640 C   0  0  0  0  0  0  0  0  0  0  0  0
    7.5850   -1.0390   23.4930 C   0  0  0  0  0  0  0  0  0  0  0  0
    7.2620   -1.3100   22.2270 N   0  0  0  0  0  0  0  0  0  0  0  0
    6.5400   -2.5860   22.1560 C   0  0  0  0  0  0  0  0  0  0  0  0
    5.4210   -2.4610   22.9760 C   0  0  0  0  0  0  0  0  0  0  0  0
    4.4720   -5.1230   24.4610 C   0  0  0  0  0  0  0  0  0  0  0  0
    4.4320   -5.1150   22.9090 C   0  0  0  0  0  0  0  0  0  0  0  0
  1  2  1  0
  2  3  2  0
  2  4  1  0
  4  5  1  0
  5  6  1  0
  6  7  1  0
  7  8  1  0
  8  9  1  6
  9 10  2  0
 10 11  1  0
 11 12  2  0
 12 13  1  0
  9 14  1  0
 13 14  2  0
  8 15  1  0
 15 16  1  0
 16 17  1  0
 17 18  1  0
 18 19  1  0
 15 20  1  0
 19 20  1  0
  7 21  1  0
  4 22  1  0
 21 22  1  0
M  END
