GIA-UNK-d2defdc3-7-acrylamide
     RDKit          3D

 21 22  0  0  0  0  0  0  0  0999 V2000
    6.7860   -2.8560   19.3080 C   0  0  0  0  0  0  0  0  0  0  0  0
    6.2520   -1.9160   20.5300 C   0  0  0  0  0  0  0  0  0  0  0  0
    5.1540   -2.6120   21.2520 C   0  0  0  0  0  0  0  0  0  0  0  0
    4.2910   -3.0280   21.9930 O   0  0  0  0  0  0  0  0  0  0  0  0
    5.4020   -1.5770   22.2250 N   0  0  0  0  0  0  0  0  0  0  0  0
    4.5040   -0.4230   22.4980 C   0  0  0  0  0  0  0  0  0  0  0  0
    4.8640    0.8250   21.7400 C   0  0  0  0  0  0  0  0  0  0  0  0
    4.8620    2.0980   22.2620 O   0  0  0  0  0  0  0  0  0  0  0  0
    5.2210    0.4480   20.3230 C   0  0  1  0  0  0  0  0  0  0  0  0
    4.7330    1.3440   19.2340 C   0  0  0  0  0  0  0  0  0  0  0  0
    5.4530    0.9910   18.0960 C   0  0  0  0  0  0  0  0  0  0  0  0
    6.7210    0.4840   18.4660 C   0  0  0  0  0  0  0  0  0  0  0  0
    6.6160    0.3310   19.9200 N   0  0  0  0  0  0  0  0  0  0  0  0
    7.7220    0.6980   20.8860 C   0  0  0  0  0  0  0  0  0  0  0  0
    8.3210    1.7850   20.8700 O   0  0  0  0  0  0  0  0  0  0  0  0
    8.1100   -0.2690   21.8450 C   0  0  0  0  0  0  0  0  0  0  0  0
    9.3040   -0.9900   21.6290 C   0  0  0  0  0  0  0  0  0  0  0  0
    9.7920   -1.9780   22.4810 C   0  0  0  0  0  0  0  0  0  0  0  0
    9.0400   -2.3640   23.7580 C   0  0  0  0  0  0  0  0  0  0  0  0
    7.7500   -1.5910   24.0260 C   0  0  0  0  0  0  0  0  0  0  0  0
    7.3170   -0.5160   23.0020 C   0  0  0  0  0  0  0  0  0  0  0  0
  1  2  1  0
  2  3  1  0
  3  4  2  0
  3  5  1  0
  5  6  1  0
  6  7  1  0
  7  8  2  0
  9  7  1  1
  9 10  1  0
 10 11  1  0
 11 12  1  0
  9 13  1  0
 12 13  1  0
 13 14  1  0
 14 15  2  0
 14 16  1  0
 16 17  2  0
 17 18  1  0
 18 19  2  0
 19 20  1  0
 16 21  1  0
 20 21  2  0
M  END
