GIA-UNK-20b63697-1-nitrile
     RDKit          3D

 22 23  0  0  0  0  0  0  0  0999 V2000
    6.4490   -5.1260   20.5970 C   0  0  0  0  0  0  0  0  0  0  0  0
    5.5560   -5.8440   20.0480 N   0  0  0  0  0  0  0  0  0  0  0  0
    6.4300   -4.9040   22.0190 N   0  0  0  0  0  0  0  0  0  0  0  0
    5.2210   -5.2420   22.7870 C   0  0  0  0  0  0  0  0  0  0  0  0
    5.4000   -5.0600   24.1710 C   0  0  0  0  0  0  0  0  0  0  0  0
    6.1320   -3.9670   24.6130 N   0  0  0  0  0  0  0  0  0  0  0  0
    5.5040   -2.7960   24.2270 C   0  0  2  0  0  0  0  0  0  0  0  0
    6.0530   -2.3200   23.0700 C   0  0  0  0  0  0  0  0  0  0  0  0
    5.2630   -2.3470   21.9300 C   0  0  0  0  0  0  0  0  0  0  0  0
    5.7590   -1.8740   20.7210 C   0  0  0  0  0  0  0  0  0  0  0  0
    7.1800   -1.3150   20.5950 C   0  0  0  0  0  0  0  0  0  0  0  0
    7.9400   -1.3050   21.7490 C   0  0  0  0  0  0  0  0  0  0  0  0
    7.3690   -1.8120   23.0080 C   0  0  0  0  0  0  0  0  0  0  0  0
    5.2900   -1.5520   25.1870 C   0  0  0  0  0  0  0  0  0  0  0  0
    6.3160   -1.3420   26.0800 C   0  0  0  0  0  0  0  0  0  0  0  0
    6.6440    0.0160   26.2060 C   0  0  0  0  0  0  0  0  0  0  0  0
    7.0330    0.3760   27.3130 O   0  0  0  0  0  0  0  0  0  0  0  0
    4.1160   -1.6400   25.9550 C   0  0  0  0  0  0  0  0  0  0  0  0
    3.8970   -2.7790   26.7660 C   0  0  0  0  0  0  0  0  0  0  0  0
    2.7530   -2.7810   27.2260 O   0  0  0  0  0  0  0  0  0  0  0  0
    7.5100   -4.0510   24.1260 C   0  0  0  0  0  0  0  0  0  0  0  0
    7.6340   -4.8310   22.9560 C   0  0  0  0  0  0  0  0  0  0  0  0
  1  2  2  3
  1  3  1  0
  3  4  1  0
  4  5  1  0
  5  6  1  0
  6  7  1  0
  7  8  1  0
  8  9  2  0
  9 10  1  0
 10 11  2  0
 11 12  1  0
  8 13  1  0
 12 13  2  0
  7 14  1  1
 14 15  1  0
 15 16  1  0
 16 17  1  0
 14 18  1  0
 18 19  1  0
 19 20  1  0
  6 21  1  0
  3 22  1  0
 21 22  1  0
M  END
