GIA-UNK-20b63697-6-vinylsulfonamide
     RDKit          3D

 24 26  0  0  0  0  0  0  0  0999 V2000
    6.0350   -5.8650   20.6750 C   0  0  0  0  0  0  0  0  0  0  0  0
    6.4420   -6.0480   22.1810 C   0  0  0  0  0  0  0  0  0  0  0  0
    5.0980   -5.6170   23.2940 S   0  0  0  0  0  0  0  0  0  0  0  0
    4.4950   -4.5100   22.4260 O   0  0  0  0  0  0  0  0  0  0  0  0
    4.3300   -6.8140   23.4500 O   0  0  0  0  0  0  0  0  0  0  0  0
    5.7620   -5.2540   24.9760 N   0  0  0  0  0  0  0  0  0  0  0  0
    7.1700   -5.3680   25.4400 C   0  0  0  0  0  0  0  0  0  0  0  0
    7.4600   -4.1600   26.3550 C   0  0  0  0  0  0  0  0  0  0  0  0
    6.5010   -3.1790   26.4090 N   0  0  0  0  0  0  0  0  0  0  0  0
    6.2080   -2.6860   25.1860 C   0  0  2  0  0  0  0  0  0  0  0  0
    6.8780   -3.3410   24.1170 C   0  0  0  0  0  0  0  0  0  0  0  0
    6.5100   -4.7800   23.8900 C   0  0  0  0  0  0  0  0  0  0  0  0
    7.1830   -5.4030   22.8500 C   0  0  0  0  0  0  0  0  0  0  0  0
    7.8430   -4.3480   22.5560 C   0  0  0  0  0  0  0  0  0  0  0  0
    8.4850   -3.3200   22.2710 C   0  0  0  0  0  0  0  0  0  0  0  0
    7.8720   -2.6100   23.2750 C   0  0  0  0  0  0  0  0  0  0  0  0
    6.2680   -1.2830   25.1270 C   0  0  0  0  0  0  0  0  0  0  0  0
    7.4160   -0.7260   25.7220 C   0  0  0  0  0  0  0  0  0  0  0  0
    7.5400    0.6680   25.5590 C   0  0  0  0  0  0  0  0  0  0  0  0
    6.5250    1.2770   24.7910 C   0  0  0  0  0  0  0  0  0  0  0  0
    6.2940    0.5460   23.6180 C   0  0  0  0  0  0  0  0  0  0  0  0
    6.0200   -0.8130   23.8440 C   0  0  0  0  0  0  0  0  0  0  0  0
    5.3790   -3.7180   26.8820 C   0  0  0  0  0  0  0  0  0  0  0  0
    5.0430   -5.0650   26.1890 C   0  0  0  0  0  0  0  0  0  0  0  0
  1  2  1  0
  3  2  1  0
  3  4  2  0
  3  5  2  0
  3  6  1  0
  6  7  1  0
  7  8  1  0
  8  9  1  0
  9 10  1  0
 10 11  1  6
 11 12  2  0
 12 13  1  0
 13 14  2  0
 14 15  1  0
 11 16  1  0
 15 16  2  0
 10 17  1  0
 17 18  1  0
 18 19  1  0
 19 20  1  0
 20 21  1  0
 17 22  1  0
 21 22  1  0
  9 23  1  0
  6 24  1  0
 23 24  1  0
M  END
