GIA-UNK-d2defdc3-5
     RDKit          3D

 23 25  0  0  0  0  0  0  0  0999 V2000
    2.5780    1.5010   24.1700 O   0  0  0  0  0  0  0  0  0  0  0  0
    2.7940    2.3790   23.3430 C   0  0  0  0  0  0  0  0  0  0  0  0
    1.9440    3.4040   22.9610 N   0  0  0  0  0  0  0  0  0  0  0  0
    0.6060    3.6810   23.3190 C   0  0  1  0  0  0  0  0  0  0  0  0
   -0.3890    2.5930   23.7020 C   0  0  0  0  0  0  0  0  0  0  0  0
   -1.8350    3.0910   23.7070 C   0  0  0  0  0  0  0  0  0  0  0  0
   -1.9750    4.4930   24.2620 C   0  0  0  0  0  0  0  0  0  0  0  0
   -0.7580    4.8950   25.1070 C   0  0  0  0  0  0  0  0  0  0  0  0
    0.5640    4.8590   24.3530 C   0  0  2  0  0  0  0  0  0  0  0  0
    0.9110    6.0610   23.6920 C   0  0  0  0  0  0  0  0  0  0  0  0
    1.2920    5.9840   22.3220 O   0  0  0  0  0  0  0  0  0  0  0  0
    0.8750    7.2820   24.3590 N   0  0  0  0  0  0  0  0  0  0  0  0
    0.8240    8.5850   23.6990 C   0  0  0  0  0  0  0  0  0  0  0  0
    0.5250    9.5800   24.6280 C   0  0  0  0  0  0  0  0  0  0  0  0
    1.2480    9.6850   25.6240 O   0  0  0  0  0  0  0  0  0  0  0  0
    2.0600    8.5330   25.9070 C   0  0  0  0  0  0  0  0  0  0  0  0
    1.3240    7.3510   25.7530 C   0  0  0  0  0  0  0  0  0  0  0  0
    4.1090    2.3980   22.6420 C   0  0  0  0  0  0  0  0  0  0  0  0
    4.7840    3.7540   22.3480 C   0  0  0  0  0  0  0  0  0  0  0  0
    6.1150    3.7710   21.6360 C   0  0  0  0  0  0  0  0  0  0  0  0
    6.7060    2.4180   21.2470 C   0  0  0  0  0  0  0  0  0  0  0  0
    6.0390    1.2220   21.5420 C   0  0  0  0  0  0  0  0  0  0  0  0
    4.7960    1.2430   22.2140 C   0  0  0  0  0  0  0  0  0  0  0  0
  1  2  2  0
  2  3  1  0
  4  3  1  1
  4  5  1  0
  5  6  1  0
  6  7  1  0
  7  8  1  0
  4  9  1  0
  8  9  1  0
  9 10  1  6
 10 11  2  0
 10 12  1  0
 12 13  1  0
 13 14  1  0
 14 15  1  0
 15 16  1  0
 12 17  1  0
 16 17  1  0
  2 18  1  0
 18 19  2  0
 19 20  1  0
 20 21  2  0
 21 22  1  0
 18 23  1  0
 22 23  2  0
M  END
