GIA-UNK-20b63697-4-nitrile
     RDKit          3D

 21 23  0  0  0  0  0  0  0  0999 V2000
    6.6360   -4.5050   20.3420 C   0  0  0  0  0  0  0  0  0  0  0  0
    5.9950   -3.7040   19.5630 N   0  0  0  0  0  0  0  0  0  0  0  0
    6.4590   -4.5810   21.7050 N   0  0  0  0  0  0  0  0  0  0  0  0
    5.3200   -5.3220   22.2500 C   0  0  0  0  0  0  0  0  0  0  0  0
    5.7160   -5.9960   23.3980 C   0  0  0  0  0  0  0  0  0  0  0  0
    6.2980   -5.2570   24.4260 N   0  0  0  0  0  0  0  0  0  0  0  0
    5.3740   -4.5400   25.1410 C   0  0  1  0  0  0  0  0  0  0  0  0
    5.5770   -4.7820   26.4860 C   0  0  0  0  0  0  0  0  0  0  0  0
    6.6460   -5.6100   26.8650 C   0  0  0  0  0  0  0  0  0  0  0  0
    6.8760   -5.9000   28.2070 C   0  0  0  0  0  0  0  0  0  0  0  0
    5.9960   -5.3370   29.3160 C   0  0  0  0  0  0  0  0  0  0  0  0
    4.9610   -4.5190   28.9170 C   0  0  0  0  0  0  0  0  0  0  0  0
    4.7480   -4.2380   27.4860 C   0  0  0  0  0  0  0  0  0  0  0  0
    5.1430   -3.0100   24.7820 C   0  0  0  0  0  0  0  0  0  0  0  0
    6.0890   -2.1490   25.2770 C   0  0  0  0  0  0  0  0  0  0  0  0
    6.1410   -0.9870   24.4930 C   0  0  0  0  0  0  0  0  0  0  0  0
    4.7920   -0.3980   24.5750 N   0  0  0  0  0  0  0  0  0  0  0  0
    3.8490   -1.1430   25.4280 C   0  0  0  0  0  0  0  0  0  0  0  0
    3.8830   -2.5200   25.1320 C   0  0  0  0  0  0  0  0  0  0  0  0
    7.4130   -4.4300   23.9880 C   0  0  0  0  0  0  0  0  0  0  0  0
    7.6410   -4.6040   22.6310 C   0  0  0  0  0  0  0  0  0  0  0  0
  1  2  2  3
  1  3  1  0
  3  4  1  0
  4  5  1  0
  5  6  1  0
  6  7  1  0
  7  8  1  1
  8  9  2  0
  9 10  1  0
 10 11  2  0
 11 12  1  0
  8 13  1  0
 12 13  2  0
  7 14  1  0
 14 15  1  0
 15 16  1  0
 16 17  1  0
 17 18  1  0
 14 19  1  0
 18 19  1  0
  6 20  1  0
  3 21  1  0
 20 21  1  0
M  END
