GIA-UNK-595fac82-3
     RDKit          3D

 19 20  0  0  0  0  0  0  0  0999 V2000
    8.7000   -0.5340   29.8290 C   0  0  0  0  0  0  0  0  0  0  0  0
    7.5980   -0.7980   28.9200 N   0  0  0  0  0  0  0  0  0  0  0  0
    6.9600   -2.1170   29.0460 C   0  0  0  0  0  0  0  0  0  0  0  0
    5.8430   -2.3110   29.5080 O   0  0  0  0  0  0  0  0  0  0  0  0
    7.8130   -3.0840   28.5810 O   0  0  0  0  0  0  0  0  0  0  0  0
    7.3490   -4.4640   28.5710 C   0  0  0  0  0  0  0  0  0  0  0  0
    7.8640   -5.1040   27.3040 C   0  0  0  0  0  0  0  0  0  0  0  0
    7.2980   -4.3270   26.1640 C   0  0  0  0  0  0  0  0  0  0  0  0
    6.1400   -3.5060   26.3740 N   0  0  0  0  0  0  0  0  0  0  0  0
    5.4760   -3.1380   25.1340 C   0  0  0  0  0  0  0  0  0  0  0  0
    4.5000   -2.4000   25.0330 O   0  0  0  0  0  0  0  0  0  0  0  0
    6.0650   -3.7200   24.0290 C   0  0  0  0  0  0  0  0  0  0  0  0
    7.1930   -3.1280   23.4240 C   0  0  0  0  0  0  0  0  0  0  0  0
    7.8080   -3.6900   22.3100 C   0  0  0  0  0  0  0  0  0  0  0  0
    7.2460   -4.8590   21.8290 N   0  0  0  0  0  0  0  0  0  0  0  0
    6.1430   -5.4650   22.4030 C   0  0  0  0  0  0  0  0  0  0  0  0
    5.5190   -4.9220   23.5110 C   0  0  0  0  0  0  0  0  0  0  0  0
    5.3020   -3.8490   27.4620 C   0  0  0  0  0  0  0  0  0  0  0  0
    5.8020   -4.5350   28.5610 C   0  0  0  0  0  0  0  0  0  0  0  0
  1  2  1  0
  2  3  1  0
  3  4  2  0
  3  5  1  0
  5  6  1  0
  6  7  1  0
  7  8  1  0
  8  9  1  0
  9 10  1  0
 10 11  2  0
 10 12  1  0
 12 13  2  0
 13 14  1  0
 14 15  2  0
 15 16  1  0
 12 17  1  0
 16 17  2  0
  9 18  1  0
  6 19  1  0
 18 19  1  0
M  END
