GIA-UNK-20b63697-6-chloroacetamide
     RDKit          3D

 22 24  0  0  0  0  0  0  0  0999 V2000
    6.9980   -5.3880   20.3990 C   0  0  0  0  0  0  0  0  0  0  0  0
    5.9300   -4.6570   21.1660 C   0  0  0  0  0  0  0  0  0  0  0  0
    5.3480   -4.8090   20.0400 O   0  0  0  0  0  0  0  0  0  0  0  0
    6.9200   -4.7130   22.1870 N   0  0  0  0  0  0  0  0  0  0  0  0
    7.7530   -3.5710   22.5360 C   0  0  0  0  0  0  0  0  0  0  0  0
    7.4150   -3.0830   23.9360 C   0  0  0  0  0  0  0  0  0  0  0  0
    7.0620   -4.0020   24.8520 N   0  0  0  0  0  0  0  0  0  0  0  0
    5.8350   -4.0110   25.4470 C   0  0  2  0  0  0  0  0  0  0  0  0
    5.0770   -5.1930   25.4290 C   0  0  0  0  0  0  0  0  0  0  0  0
    4.8430   -5.8660   26.6210 C   0  0  0  0  0  0  0  0  0  0  0  0
    4.1080   -7.0380   26.7230 C   0  0  0  0  0  0  0  0  0  0  0  0
    3.5610   -7.5890   25.5650 C   0  0  0  0  0  0  0  0  0  0  0  0
    3.7680   -6.9520   24.3370 C   0  0  0  0  0  0  0  0  0  0  0  0
    4.5160   -5.7640   24.2510 C   0  0  0  0  0  0  0  0  0  0  0  0
    5.0190   -2.8700   25.2780 C   0  0  0  0  0  0  0  0  0  0  0  0
    4.0660   -3.0420   24.2840 C   0  0  0  0  0  0  0  0  0  0  0  0
    4.7160   -3.0920   23.0720 C   0  0  0  0  0  0  0  0  0  0  0  0
    5.2880   -1.8560   22.7440 C   0  0  0  0  0  0  0  0  0  0  0  0
    5.3960   -1.0290   23.8610 C   0  0  0  0  0  0  0  0  0  0  0  0
    5.7530   -1.7000   25.0440 C   0  0  0  0  0  0  0  0  0  0  0  0
    7.5580   -5.2100   24.4980 C   0  0  0  0  0  0  0  0  0  0  0  0
    7.0050   -5.7190   23.1350 C   0  0  0  0  0  0  0  0  0  0  0  0
  1  2  1  0
  2  3  2  0
  2  4  1  0
  4  5  1  0
  5  6  1  0
  6  7  1  0
  7  8  1  0
  8  9  1  6
  9 10  2  0
 10 11  1  0
 11 12  2  0
 12 13  1  0
  9 14  1  0
 13 14  2  0
  8 15  1  0
 15 16  1  0
 16 17  1  0
 17 18  1  0
 18 19  1  0
 15 20  1  0
 19 20  1  0
  7 21  1  0
  4 22  1  0
 21 22  1  0
M  END
