GIA-UNK-595fac82-4
     RDKit          3D

 20 21  0  0  0  0  0  0  0  0999 V2000
   12.7910   -0.0740   23.1930 C   0  0  0  0  0  0  0  0  0  0  0  0
   11.8990   -1.2160   23.0720 N   0  0  0  0  0  0  0  0  0  0  0  0
   10.8810   -1.3010   24.1150 C   0  0  0  0  0  0  0  0  0  0  0  0
   10.8120   -0.5470   25.0740 O   0  0  0  0  0  0  0  0  0  0  0  0
   10.0300   -2.3280   23.8550 O   0  0  0  0  0  0  0  0  0  0  0  0
    8.7680   -1.9470   23.2730 C   0  0  0  0  0  0  0  0  0  0  0  0
    9.1070   -1.3340   21.9080 C   0  0  0  0  0  0  0  0  0  0  0  0
    7.9140   -1.3200   21.0010 C   0  0  0  0  0  0  0  0  0  0  0  0
    7.1470   -2.4890   20.8510 N   0  0  0  0  0  0  0  0  0  0  0  0
    5.8730   -2.3800   19.7500 S   0  0  0  0  0  0  0  0  0  0  0  0
    5.4520   -3.7170   19.3550 O   0  0  0  0  0  0  0  0  0  0  0  0
    4.9440   -1.4760   20.3830 O   0  0  0  0  0  0  0  0  0  0  0  0
    6.5540   -1.4490   18.3810 C   0  0  0  0  0  0  0  0  0  0  0  0
    7.5440   -1.9010   17.5070 C   0  0  0  0  0  0  0  0  0  0  0  0
    7.9960   -1.0790   16.4820 C   0  0  0  0  0  0  0  0  0  0  0  0
    7.4970    0.1900   16.2920 C   0  0  0  0  0  0  0  0  0  0  0  0
    6.5120    0.6750   17.1350 C   0  0  0  0  0  0  0  0  0  0  0  0
    6.0490   -0.1400   18.1640 C   0  0  0  0  0  0  0  0  0  0  0  0
    6.8610   -3.1000   22.0880 C   0  0  0  0  0  0  0  0  0  0  0  0
    7.8120   -3.1840   23.1130 C   0  0  0  0  0  0  0  0  0  0  0  0
  1  2  1  0
  2  3  1  0
  3  4  2  0
  3  5  1  0
  5  6  1  0
  6  7  1  0
  7  8  1  0
  8  9  1  0
  9 10  1  0
 10 11  2  0
 10 12  2  0
 10 13  1  0
 13 14  2  0
 14 15  1  0
 15 16  2  0
 16 17  1  0
 13 18  1  0
 17 18  2  0
  9 19  1  0
  6 20  1  0
 19 20  1  0
M  END
