GIA-UNK-5ec6c2b8-1
     RDKit          3D

 17 18  0  0  0  0  0  0  0  0999 V2000
    6.9970   -1.8210   18.9280 O   0  0  0  0  0  0  0  0  0  0  0  0
    6.4640   -2.2830   19.9270 C   0  0  0  0  0  0  0  0  0  0  0  0
    5.4220   -3.6680   19.8260 S   0  0  0  0  0  0  0  0  0  0  0  0
    6.6190   -1.7500   21.3170 C   0  0  0  0  0  0  0  0  0  0  0  0
    6.5520   -2.6810   22.3870 C   0  0  0  0  0  0  0  0  0  0  0  0
    7.7560   -3.1320   22.9490 C   0  0  0  0  0  0  0  0  0  0  0  0
    8.8950   -2.4600   22.7110 N   0  0  0  0  0  0  0  0  0  0  0  0
    9.4910   -1.8570   23.7560 C   0  0  0  0  0  0  0  0  0  0  0  0
    9.0050   -1.8800   24.8670 O   0  0  0  0  0  0  0  0  0  0  0  0
   10.6640   -1.1250   23.6040 C   0  0  0  0  0  0  0  0  0  0  0  0
   10.9300   -0.0780   24.4740 C   0  0  0  0  0  0  0  0  0  0  0  0
   12.0910    0.4740   24.0840 C   0  0  0  0  0  0  0  0  0  0  0  0
   13.0790    0.3900   23.1850 C   0  0  0  0  0  0  0  0  0  0  0  0
   12.8100   -0.6640   22.3440 C   0  0  0  0  0  0  0  0  0  0  0  0
   11.6080   -1.4090   22.5530 C   0  0  0  0  0  0  0  0  0  0  0  0
    8.9560   -1.7470   21.4580 C   0  0  0  0  0  0  0  0  0  0  0  0
    7.8810   -0.9000   21.3520 C   0  0  0  0  0  0  0  0  0  0  0  0
  1  2  2  0
  2  3  1  0
  2  4  1  0
  4  5  1  0
  5  6  1  0
  6  7  1  0
  7  8  1  0
  8  9  2  0
  8 10  1  0
 10 11  2  0
 11 12  1  0
 12 13  2  0
 13 14  1  0
 10 15  1  0
 14 15  2  0
  7 16  1  0
  4 17  1  0
 16 17  1  0
M  END
