GIA-UNK-995df016-14
     RDKit          3D

 20 21  0  0  0  0  0  0  0  0999 V2000
    5.4610   -3.6980   19.8570 O   0  0  0  0  0  0  0  0  0  0  0  0
    5.5150   -2.5840   20.4210 C   0  0  0  0  0  0  0  0  0  0  0  0
    5.0210   -1.0420   19.7350 S   0  0  0  0  0  0  0  0  0  0  0  0
    6.0750   -1.1400   18.3230 C   0  0  0  0  0  0  0  0  0  0  0  0
    6.2310   -2.4610   18.0970 F   0  0  0  0  0  0  0  0  0  0  0  0
    6.0460   -2.3460   21.8110 C   0  0  0  0  0  0  0  0  0  0  0  0
    7.3040   -1.4920   21.6870 C   0  0  0  0  0  0  0  0  0  0  0  0
    8.7070   -1.7750   22.1520 C   0  0  0  0  0  0  0  0  0  0  0  0
    8.6130   -2.8460   23.1350 N   0  0  0  0  0  0  0  0  0  0  0  0
    9.4480   -2.9730   24.2190 C   0  0  0  0  0  0  0  0  0  0  0  0
   10.5280   -2.3880   24.3340 O   0  0  0  0  0  0  0  0  0  0  0  0
    9.0240   -3.8590   25.3060 C   0  0  0  0  0  0  0  0  0  0  0  0
    8.1330   -3.3870   26.2570 C   0  0  0  0  0  0  0  0  0  0  0  0
    7.7300   -4.2130   27.3040 C   0  0  0  0  0  0  0  0  0  0  0  0
    8.2270   -5.5110   27.3840 C   0  0  0  0  0  0  0  0  0  0  0  0
    9.1130   -5.9800   26.4270 C   0  0  0  0  0  0  0  0  0  0  0  0
    9.4910   -5.1430   25.3960 C   0  0  0  0  0  0  0  0  0  0  0  0
   10.3100   -5.5880   24.4830 F   0  0  0  0  0  0  0  0  0  0  0  0
    7.7600   -4.0020   22.8360 C   0  0  0  0  0  0  0  0  0  0  0  0
    6.2920   -3.6820   22.5250 C   0  0  0  0  0  0  0  0  0  0  0  0
  1  2  2  0
  2  3  1  0
  3  4  1  0
  4  5  1  0
  2  6  1  0
  6  7  1  0
  7  8  1  0
  8  9  1  0
  9 10  1  0
 10 11  2  0
 10 12  1  0
 12 13  2  0
 13 14  1  0
 14 15  2  0
 15 16  1  0
 12 17  1  0
 16 17  2  0
 17 18  1  0
  9 19  1  0
  6 20  1  0
 19 20  1  0
M  END
