GIA-UNK-20b63697-8-chloroacetamide
     RDKit          3D

 26 28  0  0  0  0  0  0  0  0999 V2000
    7.1400   -4.9510   20.8430 C   0  0  0  0  0  0  0  0  0  0  0  0
    5.6630   -4.9400   21.3670 C   0  0  0  0  0  0  0  0  0  0  0  0
    5.4280   -4.7240   20.0890 O   0  0  0  0  0  0  0  0  0  0  0  0
    6.1890   -5.1880   22.7360 N   0  0  0  0  0  0  0  0  0  0  0  0
    5.3160   -5.5360   23.9080 C   0  0  0  0  0  0  0  0  0  0  0  0
    5.8710   -5.1310   25.2880 C   0  0  0  0  0  0  0  0  0  0  0  0
    6.8840   -4.2660   25.3250 N   0  0  0  0  0  0  0  0  0  0  0  0
    6.4810   -3.0340   24.9890 C   0  0  1  0  0  0  0  0  0  0  0  0
    6.9420   -1.9000   25.6610 C   0  0  0  0  0  0  0  0  0  0  0  0
    7.8590   -2.0290   26.6930 C   0  0  0  0  0  0  0  0  0  0  0  0
    8.3620   -0.9600   27.4200 C   0  0  0  0  0  0  0  0  0  0  0  0
    7.9250    0.3220   27.1020 C   0  0  0  0  0  0  0  0  0  0  0  0
    7.0040    0.5050   26.0690 C   0  0  0  0  0  0  0  0  0  0  0  0
    6.5050   -0.5870   25.3430 C   0  0  0  0  0  0  0  0  0  0  0  0
    6.4570   -2.9440   23.6100 C   0  0  0  0  0  0  0  0  0  0  0  0
    5.2980   -2.3860   23.1000 C   0  0  0  0  0  0  0  0  0  0  0  0
    5.3300   -2.4140   21.7110 C   0  0  0  0  0  0  0  0  0  0  0  0
    6.4790   -2.5580   21.0140 N   0  0  0  0  0  0  0  0  0  0  0  0
    6.2740   -2.4000   19.5650 C   0  0  0  0  0  0  0  0  0  0  0  0
    5.2920   -3.1160   18.7470 O   0  0  0  0  0  0  0  0  0  0  0  0
    7.1190   -1.4920   18.9460 C   0  0  0  0  0  0  0  0  0  0  0  0
    6.4580   -0.6200   18.3850 O   0  0  0  0  0  0  0  0  0  0  0  0
    7.6000   -1.9780   21.5270 C   0  0  0  0  0  0  0  0  0  0  0  0
    7.4740   -2.1480   23.0310 C   0  0  0  0  0  0  0  0  0  0  0  0
    7.9620   -4.5890   24.5730 C   0  0  0  0  0  0  0  0  0  0  0  0
    7.6300   -5.1150   23.1360 C   0  0  0  0  0  0  0  0  0  0  0  0
  1  2  1  0
  2  3  2  0
  2  4  1  0
  4  5  1  0
  5  6  1  0
  6  7  1  0
  7  8  1  0
  8  9  1  1
  9 10  2  0
 10 11  1  0
 11 12  2  0
 12 13  1  0
  9 14  1  0
 13 14  2  0
  8 15  1  0
 15 16  1  0
 16 17  1  0
 17 18  1  0
 18 19  1  0
 19 20  2  0
 19 21  1  0
 21 22  1  0
 18 23  1  0
 15 24  1  0
 23 24  1  0
  7 25  1  0
  4 26  1  0
 25 26  1  0
M  END
