GIA-UNK-20b63697-4-vinylsulfonamide
     RDKit          3D

 24 26  0  0  0  0  0  0  0  0999 V2000
    7.4510   -4.6670   20.8380 C   0  0  0  0  0  0  0  0  0  0  0  0
    7.3880   -5.2940   22.2270 C   0  0  0  0  0  0  0  0  0  0  0  0
    5.7620   -5.1330   22.8960 S   0  0  0  0  0  0  0  0  0  0  0  0
    4.9550   -4.3990   21.9230 O   0  0  0  0  0  0  0  0  0  0  0  0
    5.3560   -6.4510   23.3420 O   0  0  0  0  0  0  0  0  0  0  0  0
    6.0620   -4.1840   24.2580 N   0  0  0  0  0  0  0  0  0  0  0  0
    7.4370   -4.0040   24.6930 C   0  0  0  0  0  0  0  0  0  0  0  0
    7.5430   -2.9120   25.7480 C   0  0  0  0  0  0  0  0  0  0  0  0
    6.4390   -2.2430   26.1580 N   0  0  0  0  0  0  0  0  0  0  0  0
    6.0760   -1.0910   25.5300 C   0  0  1  0  0  0  0  0  0  0  0  0
    6.1590    0.1100   26.2550 C   0  0  0  0  0  0  0  0  0  0  0  0
    7.3630    0.8160   26.3560 C   0  0  0  0  0  0  0  0  0  0  0  0
    7.4060    2.0050   27.0850 C   0  0  0  0  0  0  0  0  0  0  0  0
    6.2830    2.5110   27.7210 C   0  0  0  0  0  0  0  0  0  0  0  0
    5.0710    1.8350   27.6430 C   0  0  0  0  0  0  0  0  0  0  0  0
    5.0170    0.6420   26.9130 C   0  0  0  0  0  0  0  0  0  0  0  0
    6.5110   -0.9860   24.1880 C   0  0  0  0  0  0  0  0  0  0  0  0
    7.5400   -0.0670   23.9600 C   0  0  0  0  0  0  0  0  0  0  0  0
    7.8620    0.0500   22.6170 C   0  0  0  0  0  0  0  0  0  0  0  0
    6.9020    0.1110   21.6700 N   0  0  0  0  0  0  0  0  0  0  0  0
    5.7170   -0.7060   21.9920 C   0  0  0  0  0  0  0  0  0  0  0  0
    5.4250   -0.7060   23.3530 C   0  0  0  0  0  0  0  0  0  0  0  0
    5.4050   -3.0910   26.4410 C   0  0  0  0  0  0  0  0  0  0  0  0
    5.0700   -4.1330   25.3390 C   0  0  0  0  0  0  0  0  0  0  0  0
  1  2  1  0
  3  2  1  0
  3  4  2  0
  3  5  2  0
  3  6  1  0
  6  7  1  0
  7  8  1  0
  8  9  1  0
  9 10  1  0
 10 11  1  1
 11 12  2  0
 12 13  1  0
 13 14  2  0
 14 15  1  0
 11 16  1  0
 15 16  2  0
 10 17  1  0
 17 18  1  0
 18 19  1  0
 19 20  1  0
 20 21  1  0
 17 22  1  0
 21 22  1  0
  9 23  1  0
  6 24  1  0
 23 24  1  0
M  END
