GIA-UNK-d2defdc3-9-chloroacetamide
     RDKit          3D

 21 22  0  0  0  0  0  0  0  0999 V2000
    6.6460   -2.5230   20.2360 C   0  0  0  0  0  0  0  0  0  0  0  0
    5.1020   -2.3930   20.5030 C   0  0  0  0  0  0  0  0  0  0  0  0
    5.0400   -3.2720   19.5380 O   0  0  0  0  0  0  0  0  0  0  0  0
    5.4700   -1.4180   21.5410 N   0  0  0  0  0  0  0  0  0  0  0  0
    6.2350   -1.8600   22.7030 C   0  0  0  0  0  0  0  0  0  0  0  0
    4.5680   -0.3260   21.9680 C   0  0  0  0  0  0  0  0  0  0  0  0
    5.0160    1.0930   21.8160 C   0  0  0  0  0  0  0  0  0  0  0  0
    4.8410    2.0410   22.7980 O   0  0  0  0  0  0  0  0  0  0  0  0
    5.6650    1.3760   20.4850 C   0  0  2  0  0  0  0  0  0  0  0  0
    4.7400    1.2980   19.3070 C   0  0  0  0  0  0  0  0  0  0  0  0
    5.4160    0.7480   18.2200 C   0  0  0  0  0  0  0  0  0  0  0  0
    6.6770    0.2480   18.6120 C   0  0  0  0  0  0  0  0  0  0  0  0
    6.6970    0.4350   20.0940 N   0  0  0  0  0  0  0  0  0  0  0  0
    7.9500    0.7750   20.8630 C   0  0  0  0  0  0  0  0  0  0  0  0
    8.4190    1.9190   20.8600 O   0  0  0  0  0  0  0  0  0  0  0  0
    8.6410   -0.1930   21.6400 C   0  0  0  0  0  0  0  0  0  0  0  0
    9.3830   -1.6790   22.2950 C   0  0  0  0  0  0  0  0  0  0  0  0
    9.8920   -0.9130   23.4550 C   0  0  0  0  0  0  0  0  0  0  0  0
    9.2470   -0.4900   22.5350 C   0  0  0  0  0  0  0  0  0  0  0  0
    8.7970   -1.3840   21.4280 C   0  0  0  0  0  0  0  0  0  0  0  0
    8.1420   -0.9690   20.4960 C   0  0  0  0  0  0  0  0  0  0  0  0
  1  2  1  0
  2  3  2  0
  2  4  1  0
  4  5  1  0
  4  6  1  0
  6  7  1  0
  7  8  2  0
  9  7  1  1
  9 10  1  0
 10 11  1  0
 11 12  1  0
  9 13  1  0
 12 13  1  0
 13 14  1  0
 14 15  2  0
 14 16  1  0
 16 17  2  0
 17 18  1  0
 18 19  2  0
 19 20  1  0
 16 21  1  0
 20 21  2  0
M  END
