GIA-UNK-595fac82-1
     RDKit          3D

 19 20  0  0  0  0  0  0  0  0999 V2000
   12.7520   -0.2200   23.1850 C   0  0  0  0  0  0  0  0  0  0  0  0
   11.7080   -1.2090   22.9450 N   0  0  0  0  0  0  0  0  0  0  0  0
   10.6570   -1.2400   23.9590 C   0  0  0  0  0  0  0  0  0  0  0  0
   10.5400   -0.4070   24.8500 O   0  0  0  0  0  0  0  0  0  0  0  0
    9.8430   -2.3200   23.8000 O   0  0  0  0  0  0  0  0  0  0  0  0
    8.9220   -2.3940   22.6780 C   0  0  0  0  0  0  0  0  0  0  0  0
    8.6920   -1.0490   22.0040 C   0  0  0  0  0  0  0  0  0  0  0  0
    7.6900   -1.2080   20.8690 C   0  0  0  0  0  0  0  0  0  0  0  0
    6.6170   -2.1590   20.9300 N   0  0  0  0  0  0  0  0  0  0  0  0
    6.0850   -2.6830   19.6440 C   0  0  0  0  0  0  0  0  0  0  0  0
    5.4690   -3.7680   19.6230 O   0  0  0  0  0  0  0  0  0  0  0  0
    6.2620   -1.9560   18.4370 N   0  0  0  0  0  0  0  0  0  0  0  0
    5.4690   -0.8130   18.1720 C   0  0  0  0  0  0  0  0  0  0  0  0
    6.1370    0.3430   17.7260 C   0  0  0  0  0  0  0  0  0  0  0  0
    7.1330    0.1360   16.7570 C   0  0  0  0  0  0  0  0  0  0  0  0
    7.4930   -1.1990   16.6540 C   0  0  0  0  0  0  0  0  0  0  0  0
    7.5330   -1.8100   17.8960 C   0  0  0  0  0  0  0  0  0  0  0  0
    6.5930   -3.0110   22.0690 C   0  0  0  0  0  0  0  0  0  0  0  0
    7.5370   -2.9640   23.1030 C   0  0  0  0  0  0  0  0  0  0  0  0
  1  2  1  0
  2  3  1  0
  3  4  2  0
  3  5  1  0
  5  6  1  0
  6  7  1  0
  7  8  1  0
  8  9  1  0
  9 10  1  0
 10 11  2  0
 10 12  1  0
 12 13  1  0
 13 14  1  0
 14 15  1  0
 15 16  1  0
 12 17  1  0
 16 17  1  0
  9 18  1  0
  6 19  1  0
 18 19  1  0
M  END
