GIA-UNK-20b63697-9-chloroacetamide
     RDKit          3D

 23 25  0  0  0  0  0  0  0  0999 V2000
    7.2790   -5.3700   21.0510 C   0  0  0  0  0  0  0  0  0  0  0  0
    5.7290   -5.6460   21.2940 C   0  0  0  0  0  0  0  0  0  0  0  0
    5.6080   -5.8010   20.0430 O   0  0  0  0  0  0  0  0  0  0  0  0
    6.0810   -5.4320   22.6800 N   0  0  0  0  0  0  0  0  0  0  0  0
    5.1350   -5.7620   23.7410 C   0  0  0  0  0  0  0  0  0  0  0  0
    5.5850   -5.2260   25.1090 C   0  0  0  0  0  0  0  0  0  0  0  0
    6.5600   -4.2960   25.1780 N   0  0  0  0  0  0  0  0  0  0  0  0
    6.2190   -3.0280   24.8750 C   0  0  2  0  0  0  0  0  0  0  0  0
    4.9960   -2.5070   25.3250 C   0  0  0  0  0  0  0  0  0  0  0  0
    4.9720   -1.3500   26.0940 C   0  0  0  0  0  0  0  0  0  0  0  0
    3.8120   -0.7620   26.5830 C   0  0  0  0  0  0  0  0  0  0  0  0
    2.5880   -1.3620   26.2910 C   0  0  0  0  0  0  0  0  0  0  0  0
    2.5580   -2.5260   25.5230 C   0  0  0  0  0  0  0  0  0  0  0  0
    3.7380   -3.1080   25.0350 C   0  0  0  0  0  0  0  0  0  0  0  0
    6.4750   -2.7340   23.5350 C   0  0  2  0  0  0  0  0  0  0  0  0
    7.2540   -1.5880   23.3910 C   0  0  0  0  0  0  0  0  0  0  0  0
    7.5720   -1.4450   22.0530 C   0  0  0  0  0  0  0  0  0  0  0  0
    6.5930   -1.5290   21.1300 N   0  0  0  0  0  0  0  0  0  0  0  0
    5.5540   -2.5130   21.4840 C   0  0  0  0  0  0  0  0  0  0  0  0
    4.7930   -3.3610   20.5680 O   0  0  0  0  0  0  0  0  0  0  0  0
    5.2830   -2.6100   22.8310 C   0  0  0  0  0  0  0  0  0  0  0  0
    7.6870   -4.7240   24.5350 C   0  0  0  0  0  0  0  0  0  0  0  0
    7.4690   -5.5000   23.2060 C   0  0  0  0  0  0  0  0  0  0  0  0
  1  2  1  0
  2  3  2  0
  2  4  1  0
  4  5  1  0
  5  6  1  0
  6  7  1  0
  7  8  1  0
  8  9  1  6
  9 10  2  0
 10 11  1  0
 11 12  2  0
 12 13  1  0
  9 14  1  0
 13 14  2  0
  8 15  1  0
 15 16  1  1
 16 17  1  0
 17 18  1  0
 18 19  1  0
 19 20  2  0
 15 21  1  0
 19 21  1  0
  7 22  1  0
  4 23  1  0
 22 23  1  0
M  END
