GIA-UNK-d2defdc3-6
     RDKit          3D

 21 23  0  0  0  0  0  0  0  0999 V2000
    4.6630    7.5320   25.1890 O   0  0  0  0  0  0  0  0  0  0  0  0
    4.7970    6.9840   24.1010 C   0  0  0  0  0  0  0  0  0  0  0  0
    3.6000    6.4350   23.3480 C   0  0  2  0  0  0  0  0  0  0  0  0
    3.2290    7.1890   22.0550 C   0  0  0  0  0  0  0  0  0  0  0  0
    1.8730    7.8140   22.2910 C   0  0  0  0  0  0  0  0  0  0  0  0
    1.5040    7.3030   23.6490 C   0  0  0  0  0  0  0  0  0  0  0  0
    2.4150    6.4170   24.1230 N   0  0  0  0  0  0  0  0  0  0  0  0
    1.9010    5.3680   24.8460 C   0  0  0  0  0  0  0  0  0  0  0  0
    2.4350    4.9340   25.8690 O   0  0  0  0  0  0  0  0  0  0  0  0
    0.6220    4.6390   24.4550 C   0  0  0  0  0  0  0  0  0  0  0  0
   -0.6310    5.2360   24.7110 C   0  0  0  0  0  0  0  0  0  0  0  0
   -1.8310    4.6260   24.3750 C   0  0  0  0  0  0  0  0  0  0  0  0
   -1.8210    3.3890   23.7680 C   0  0  0  0  0  0  0  0  0  0  0  0
   -0.6240    2.7400   23.4870 C   0  0  0  0  0  0  0  0  0  0  0  0
    0.6020    3.3610   23.8340 C   0  0  0  0  0  0  0  0  0  0  0  0
    6.0830    6.8620   23.5340 N   0  0  0  0  0  0  0  0  0  0  0  0
    6.2250    6.5760   22.0990 C   0  0  0  0  0  0  0  0  0  0  0  0
    7.6520    7.0240   21.7130 C   0  0  0  0  0  0  0  0  0  0  0  0
    8.0760    7.9210   22.4330 O   0  0  0  0  0  0  0  0  0  0  0  0
    8.5120    7.3950   23.6880 C   0  0  0  0  0  0  0  0  0  0  0  0
    7.3120    6.6420   24.3140 C   0  0  0  0  0  0  0  0  0  0  0  0
  1  2  2  0
  3  2  1  1
  3  4  1  0
  4  5  1  0
  5  6  1  0
  3  7  1  0
  6  7  1  0
  7  8  1  0
  8  9  2  0
  8 10  1  0
 10 11  2  0
 11 12  1  0
 12 13  2  0
 13 14  1  0
 10 15  1  0
 14 15  2  0
  2 16  1  0
 16 17  1  0
 17 18  1  0
 18 19  1  0
 19 20  1  0
 16 21  1  0
 20 21  1  0
M  END
