GIA-UNK-20b63697-2-chloroacetamide
     RDKit          3D

 22 24  0  0  0  0  0  0  0  0999 V2000
    7.3310   -4.8550   20.9160 C   0  0  0  0  0  0  0  0  0  0  0  0
    5.8500   -5.1040   20.9540 C   0  0  0  0  0  0  0  0  0  0  0  0
    5.1410   -4.8500   19.9720 O   0  0  0  0  0  0  0  0  0  0  0  0
    5.3200   -5.6690   22.1180 N   0  0  0  0  0  0  0  0  0  0  0  0
    4.3410   -5.0890   23.0580 C   0  0  0  0  0  0  0  0  0  0  0  0
    4.6340   -5.3890   24.4250 C   0  0  0  0  0  0  0  0  0  0  0  0
    6.0800   -5.1170   24.7140 N   0  0  0  0  0  0  0  0  0  0  0  0
    6.5140   -4.0480   25.4120 C   0  0  2  0  0  0  0  0  0  0  0  0
    5.8060   -4.0940   26.6030 C   0  0  0  0  0  0  0  0  0  0  0  0
    6.0570   -5.1550   27.4860 C   0  0  0  0  0  0  0  0  0  0  0  0
    5.3360   -5.3020   28.8230 C   0  0  0  0  0  0  0  0  0  0  0  0
    4.4100   -4.3220   29.1210 C   0  0  0  0  0  0  0  0  0  0  0  0
    4.1670   -3.2180   28.1760 C   0  0  0  0  0  0  0  0  0  0  0  0
    4.8500   -3.1190   26.9590 C   0  0  0  0  0  0  0  0  0  0  0  0
    6.6010   -2.7870   24.7590 C   0  0  0  0  0  0  0  0  0  0  0  0
    5.4760   -2.4780   23.9750 C   0  0  0  0  0  0  0  0  0  0  0  0
    5.6730   -2.7190   22.6220 C   0  0  0  0  0  0  0  0  0  0  0  0
    6.4830   -1.9630   22.1080 O   0  0  0  0  0  0  0  0  0  0  0  0
    7.7630   -2.2190   22.6310 C   0  0  0  0  0  0  0  0  0  0  0  0
    7.8330   -2.7290   24.0920 C   0  0  0  0  0  0  0  0  0  0  0  0
    7.0130   -5.6180   23.6720 C   0  0  0  0  0  0  0  0  0  0  0  0
    6.2920   -6.4680   22.8400 C   0  0  0  0  0  0  0  0  0  0  0  0
  1  2  1  0
  2  3  2  0
  2  4  1  0
  4  5  1  0
  5  6  1  0
  6  7  1  0
  7  8  1  0
  8  9  1  1
  9 10  2  0
 10 11  1  0
 11 12  2  0
 12 13  1  0
  9 14  1  0
 13 14  2  0
  8 15  1  0
 15 16  1  0
 16 17  1  0
 17 18  1  0
 18 19  1  0
 15 20  1  0
 19 20  1  0
  7 21  1  0
  4 22  1  0
 21 22  1  0
M  END
