GIA-UNK-eaadd1d4-1
     RDKit          3D

 22 24  0  0  0  0  0  0  0  0999 V2000
    8.6280   -1.8620   25.3430 O   0  0  0  0  0  0  0  0  0  0  0  0
    8.6850   -2.7850   24.5300 C   0  0  0  0  0  0  0  0  0  0  0  0
    9.5110   -4.0440   24.7280 C   0  0  0  0  0  0  0  0  0  0  0  0
    9.6140   -5.2390   25.3660 C   0  0  0  0  0  0  0  0  0  0  0  0
    9.0110   -5.2130   26.7740 C   0  0  0  0  0  0  0  0  0  0  0  0
    8.4590   -6.0390   27.7070 C   0  0  0  0  0  0  0  0  0  0  0  0
    8.0150   -5.9920   26.3870 C   0  0  0  0  0  0  0  0  0  0  0  0
    8.5870   -4.9500   25.4560 C   0  0  0  0  0  0  0  0  0  0  0  0
    7.9680   -2.7510   23.2950 N   0  0  0  0  0  0  0  0  0  0  0  0
    7.2420   -3.8160   22.8360 C   0  0  0  0  0  0  0  0  0  0  0  0
    6.2910   -3.3850   21.9260 C   0  0  0  0  0  0  0  0  0  0  0  0
    6.7060   -2.5840   20.8470 N   0  0  0  0  0  0  0  0  0  0  0  0
    6.1750   -2.6430   19.5770 C   0  0  0  0  0  0  0  0  0  0  0  0
    5.4440   -3.5710   19.1960 O   0  0  0  0  0  0  0  0  0  0  0  0
    6.5380   -1.5530   18.7430 C   0  0  0  0  0  0  0  0  0  0  0  0
    5.5570   -0.5880   18.5570 C   0  0  0  0  0  0  0  0  0  0  0  0
    6.0330    0.5360   17.9000 C   0  0  0  0  0  0  0  0  0  0  0  0
    6.3870    0.1560   16.7840 O   0  0  0  0  0  0  0  0  0  0  0  0
    7.3720   -0.8780   16.7430 C   0  0  0  0  0  0  0  0  0  0  0  0
    7.0280   -1.9930   17.5200 C   0  0  0  0  0  0  0  0  0  0  0  0
    7.9360   -1.9410   21.0650 C   0  0  0  0  0  0  0  0  0  0  0  0
    8.3650   -1.7010   22.3630 C   0  0  0  0  0  0  0  0  0  0  0  0
  1  2  2  0
  2  3  1  0
  3  4  2  0
  4  5  1  0
  5  6  2  0
  6  7  1  0
  3  8  1  0
  7  8  2  0
  2  9  1  0
  9 10  1  0
 10 11  1  0
 11 12  1  0
 12 13  1  0
 13 14  2  0
 13 15  1  0
 15 16  1  0
 16 17  1  0
 17 18  1  0
 18 19  1  0
 15 20  1  0
 19 20  1  0
 12 21  1  0
  9 22  1  0
 21 22  1  0
M  END
