GUZ-UNI-cc80d5b0-1
     RDKit          3D

 23 25  0  0  0  0  0  0  0  0999 V2000
    9.7780    1.1380   24.2840 O   0  0  0  0  0  0  0  0  0  0  0  0
   10.6600    0.4920   23.7140 C   0  0  0  0  0  0  0  0  0  0  0  0
   11.9060    1.1880   23.2290 C   0  0  0  0  0  0  0  0  0  0  0  0
   11.7240    2.7600   23.2960 C   0  0  0  0  0  0  0  0  0  0  0  0
   12.8630    3.7270   22.8990 C   0  0  0  0  0  0  0  0  0  0  0  0
   12.6320    5.2340   22.6920 C   0  0  0  0  0  0  0  0  0  0  0  0
   11.2270    5.8410   22.8420 C   0  0  0  0  0  0  0  0  0  0  0  0
   10.3320    5.7710   23.8380 C   0  0  0  0  0  0  0  0  0  0  0  0
    8.9930    6.5480   23.5580 C   0  0  0  0  0  0  0  0  0  0  0  0
    9.5570    6.9040   22.3320 C   0  0  0  0  0  0  0  0  0  0  0  0
   10.6950    6.5190   22.0280 O   0  0  0  0  0  0  0  0  0  0  0  0
   13.0820    0.3260   22.8030 C   0  0  0  0  0  0  0  0  0  0  0  0
   12.7560   -1.1330   22.2000 C   0  0  0  0  0  0  0  0  0  0  0  0
   11.4490   -1.6930   22.7310 C   0  0  0  0  0  0  0  0  0  0  0  0
   10.5330   -0.9800   23.4850 C   0  0  0  0  0  0  0  0  0  0  0  0
    9.4140   -1.6450   24.0740 C   0  0  0  0  0  0  0  0  0  0  0  0
    9.2350   -3.0030   23.8890 C   0  0  0  0  0  0  0  0  0  0  0  0
    7.7770   -3.4820   23.9970 C   0  0  0  0  0  0  0  0  0  0  0  0
    7.3030   -4.9480   23.8400 C   0  0  0  0  0  0  0  0  0  0  0  0
    7.5340   -5.8160   22.7750 C   0  0  0  0  0  0  0  0  0  0  0  0
    6.9230   -7.0220   23.0480 C   0  0  0  0  0  0  0  0  0  0  0  0
    6.3000   -6.9180   24.2850 C   0  0  0  0  0  0  0  0  0  0  0  0
    6.5340   -5.6530   24.7710 O   0  0  0  0  0  0  0  0  0  0  0  0
  1  2  2  0
  2  3  1  0
  3  4  2  3
  4  5  1  0
  5  6  2  3
  6  7  1  0
  7  8  2  0
  8  9  1  0
  9 10  2  0
  7 11  1  0
 10 11  1  0
  3 12  1  0
 12 13  1  0
 13 14  1  0
  2 15  1  0
 14 15  1  0
 15 16  2  3
 16 17  1  0
 17 18  2  3
 18 19  1  0
 19 20  2  0
 20 21  1  0
 21 22  2  0
 19 23  1  0
 22 23  1  0
M  END
