GUZ-UNI-5a173832-1
     RDKit          3D

 35 38  0  0  0  0  0  0  0  0999 V2000
   10.7350    1.8120   23.7630 C   0  0  0  0  0  0  0  0  0  0  0  0
   11.0040    0.4160   24.3440 C   0  0  0  0  0  0  0  0  0  0  0  0
   10.1100   -0.3380   25.3950 C   0  0  0  0  0  0  0  0  0  0  0  0
    8.7320   -0.2870   25.3280 N   0  0  0  0  0  0  0  0  0  0  0  0
    7.9620   -1.1930   24.4560 C   0  0  0  0  0  0  0  0  0  0  0  0
    7.7010   -2.7050   24.5380 C   0  0  0  0  0  0  0  0  0  0  0  0
    8.6800   -3.6740   24.4590 O   0  0  0  0  0  0  0  0  0  0  0  0
    6.2840   -3.0560   24.6690 N   0  0  0  0  0  0  0  0  0  0  0  0
    6.0750   -4.4910   24.3960 C   0  0  0  0  0  0  0  0  0  0  0  0
    5.8990   -4.7400   23.0410 C   0  0  0  0  0  0  0  0  0  0  0  0
    5.3780   -3.5330   22.3460 N   0  0  0  0  0  0  0  0  0  0  0  0
    6.3880   -2.6730   21.6910 C   0  0  0  0  0  0  0  0  0  0  0  0
    7.6390   -2.9700   22.2220 C   0  0  0  0  0  0  0  0  0  0  0  0
    8.8390   -2.0000   22.0740 C   0  0  0  0  0  0  0  0  0  0  0  0
   10.3180   -2.2080   22.6600 C   0  0  0  0  0  0  0  0  0  0  0  0
   11.5370   -1.9060   21.8520 C   0  0  0  0  0  0  0  0  0  0  0  0
   12.8530   -2.0160   22.1890 C   0  0  0  0  0  0  0  0  0  0  0  0
   13.1810   -2.4810   23.4790 C   0  0  0  0  0  0  0  0  0  0  0  0
   12.1720   -2.8070   24.3550 C   0  0  0  0  0  0  0  0  0  0  0  0
   10.6930   -2.6640   23.9240 C   0  0  0  0  0  0  0  0  0  0  0  0
    4.4950   -2.7220   23.2040 C   0  0  0  0  0  0  0  0  0  0  0  0
    5.1430   -2.2100   24.3400 C   0  0  0  0  0  0  0  0  0  0  0  0
    7.4250   -0.5010   23.3920 C   0  0  0  0  0  0  0  0  0  0  0  0
    8.0630    1.0500   23.7530 S   0  0  0  0  0  0  0  0  0  0  0  0
    7.9790    0.9150   25.5930 C   0  0  0  0  0  0  0  0  0  0  0  0
    7.9760    0.7380   26.9070 N   0  0  0  0  0  0  0  0  0  0  0  0
    8.6120   -0.2240   27.7090 N   0  0  0  0  0  0  0  0  0  0  0  0
    8.5170    0.3320   28.8920 C   0  0  0  0  0  0  0  0  0  0  0  0
    8.9700   -0.0010   30.1920 C   0  0  0  0  0  0  0  0  0  0  0  0
   10.2460    0.4630   30.6010 C   0  0  0  0  0  0  0  0  0  0  0  0
   10.8530    0.3160   31.9850 C   0  0  0  0  0  0  0  0  0  0  0  0
   10.3850    0.8340   33.1920 C   0  0  0  0  0  0  0  0  0  0  0  0
   11.2670    0.4540   34.2250 C   0  0  0  0  0  0  0  0  0  0  0  0
   12.2420   -0.2810   33.6230 C   0  0  0  0  0  0  0  0  0  0  0  0
   12.0210   -0.3850   32.2830 O   0  0  0  0  0  0  0  0  0  0  0  0
  1  2  2  3
  2  3  1  0
  3  4  1  0
  4  5  1  0
  5  6  1  0
  6  7  2  0
  6  8  1  0
  8  9  1  0
  9 10  1  0
 10 11  1  0
 11 12  1  0
 12 13  1  0
 13 14  2  3
 14 15  1  0
 15 16  2  0
 16 17  1  0
 17 18  2  0
 18 19  1  0
 15 20  1  0
 19 20  2  0
 11 21  1  0
  8 22  1  0
 21 22  1  0
  5 23  2  0
 23 24  1  0
  4 25  1  0
 24 25  1  0
 25 26  2  3
 26 27  1  0
 27 28  2  3
 28 29  1  0
 29 30  2  3
 30 31  1  0
 31 32  2  0
 32 33  1  0
 33 34  2  0
 31 35  1  0
 34 35  1  0
M  END
