GUZ-UNI-167d4d0a-1
     RDKit          3D

 35 38  0  0  0  0  0  0  0  0999 V2000
   22.1210    9.0190   26.5550 C   0  0  0  0  0  0  0  0  0  0  0  0
   21.6740    7.9780   25.5710 C   0  0  0  0  0  0  0  0  0  0  0  0
   20.3090    8.0160   24.8770 C   0  0  0  0  0  0  0  0  0  0  0  0
   20.1120    7.5460   23.5860 N   0  0  0  0  0  0  0  0  0  0  0  0
   20.1910    6.1310   23.2660 C   0  0  0  0  0  0  0  0  0  0  0  0
   19.1770    5.0200   23.6540 C   0  0  0  0  0  0  0  0  0  0  0  0
   19.5050    4.1570   24.4250 O   0  0  0  0  0  0  0  0  0  0  0  0
   17.8010    5.0760   23.0000 N   0  0  0  0  0  0  0  0  0  0  0  0
   17.5840    3.9910   22.3260 C   0  0  0  0  0  0  0  0  0  0  0  0
   16.1540    3.9120   21.5900 C   0  0  0  0  0  0  0  0  0  0  0  0
   15.2640    4.9220   21.6130 N   0  0  0  0  0  0  0  0  0  0  0  0
   13.8980    4.5210   21.2580 C   0  0  0  0  0  0  0  0  0  0  0  0
   13.4960    3.4180   21.9890 C   0  0  0  0  0  0  0  0  0  0  0  0
   12.1110    3.4340   22.3200 C   0  0  0  0  0  0  0  0  0  0  0  0
   11.7510    2.2960   23.0210 C   0  0  0  0  0  0  0  0  0  0  0  0
   10.8160    1.6860   23.9710 C   0  0  0  0  0  0  0  0  0  0  0  0
   11.1190    0.2270   24.2750 C   0  0  0  0  0  0  0  0  0  0  0  0
   12.2530   -0.5700   23.6850 C   0  0  0  0  0  0  0  0  0  0  0  0
   13.0100    0.1750   22.8150 C   0  0  0  0  0  0  0  0  0  0  0  0
   12.2060    1.1100   23.1010 C   0  0  0  0  0  0  0  0  0  0  0  0
   15.2930    5.2340   22.9470 C   0  0  0  0  0  0  0  0  0  0  0  0
   16.5980    5.2540   23.6660 C   0  0  0  0  0  0  0  0  0  0  0  0
   21.4510    5.8080   22.4790 C   0  0  0  0  0  0  0  0  0  0  0  0
   22.3830    7.2530   22.1750 S   0  0  0  0  0  0  0  0  0  0  0  0
   21.0020    8.2250   22.6420 C   0  0  0  0  0  0  0  0  0  0  0  0
   20.5770    9.4610   22.2970 N   0  0  0  0  0  0  0  0  0  0  0  0
   21.3110   10.1580   21.3970 N   0  0  0  0  0  0  0  0  0  0  0  0
   20.4460   11.0140   20.7490 C   0  0  0  0  0  0  0  0  0  0  0  0
   20.9860   11.9230   19.6550 C   0  0  0  0  0  0  0  0  0  0  0  0
   20.2950   13.2460   19.3630 C   0  0  0  0  0  0  0  0  0  0  0  0
   20.6050   14.2080   18.4020 C   0  0  0  0  0  0  0  0  0  0  0  0
   19.6010   14.8210   17.4710 C   0  0  0  0  0  0  0  0  0  0  0  0
   20.3000   15.7980   16.6040 C   0  0  0  0  0  0  0  0  0  0  0  0
   21.7140   15.6390   17.1530 C   0  0  0  0  0  0  0  0  0  0  0  0
   21.8490   14.8010   18.0940 O   0  0  0  0  0  0  0  0  0  0  0  0
  1  2  2  3
  2  3  1  0
  3  4  1  0
  4  5  1  0
  5  6  1  0
  6  7  2  0
  6  8  1  0
  8  9  1  0
  9 10  1  0
 10 11  1  0
 11 12  1  0
 12 13  1  0
 13 14  2  3
 14 15  1  0
 15 16  2  0
 16 17  1  0
 17 18  2  0
 18 19  1  0
 15 20  1  0
 19 20  2  0
 11 21  1  0
  8 22  1  0
 21 22  1  0
  5 23  2  0
 23 24  1  0
  4 25  1  0
 24 25  1  0
 25 26  2  3
 26 27  1  0
 27 28  2  3
 28 29  1  0
 29 30  2  3
 30 31  1  0
 31 32  2  0
 32 33  1  0
 33 34  2  0
 31 35  1  0
 34 35  1  0
M  END
