HAN-NEW-5f56c3bc-4-chloroacetamide
     RDKit          3D

 30 32  0  0  0  0  0  0  0  0999 V2000
    7.5700   -5.4000   20.7950 C   0  0  0  0  0  0  0  0  0  0  0  0
    6.1800   -5.2060   21.1720 C   0  0  0  0  0  0  0  0  0  0  0  0
    5.3750   -5.0730   20.1730 O   0  0  0  0  0  0  0  0  0  0  0  0
    5.9320   -5.1940   22.5540 N   0  0  0  0  0  0  0  0  0  0  0  0
    4.8180   -4.4700   23.0920 C   0  0  0  0  0  0  0  0  0  0  0  0
    5.1950   -3.0170   22.8550 C   0  0  0  0  0  0  0  0  0  0  0  0
    6.6020   -2.9030   22.3060 N   0  0  0  0  0  0  0  0  0  0  0  0
    6.7410   -2.8370   20.9190 C   0  0  0  0  0  0  0  0  0  0  0  0
    7.9880   -2.3830   20.4200 C   0  0  0  0  0  0  0  0  0  0  0  0
    5.8370   -3.1500   20.1320 O   0  0  0  0  0  0  0  0  0  0  0  0
    7.5730   -3.3640   23.1890 C   0  0  2  0  0  0  0  0  0  0  0  0
    9.0170   -3.3120   22.9700 C   0  0  0  0  0  0  0  0  0  0  0  0
    9.8160   -2.1780   23.7310 C   0  0  0  0  0  0  0  0  0  0  0  0
   10.7080   -1.1810   22.8850 C   0  0  0  0  0  0  0  0  0  0  0  0
   12.2350   -1.1180   23.2190 C   0  0  0  0  0  0  0  0  0  0  0  0
   11.7000   -2.1940   23.1790 C   0  0  0  0  0  0  0  0  0  0  0  0
   10.8620   -0.9550   22.8870 C   0  0  0  0  0  0  0  0  0  0  0  0
   11.2030    0.6020   22.8470 C   0  0  0  0  0  0  0  0  0  0  0  0
   12.5280    1.1740   23.0890 C   0  0  0  0  0  0  0  0  0  0  0  0
   12.0120    2.4140   22.8700 C   0  0  0  0  0  0  0  0  0  0  0  0
   12.5250    3.7250   22.8300 C   0  0  0  0  0  0  0  0  0  0  0  0
   11.8130    4.6840   23.5460 C   0  0  0  0  0  0  0  0  0  0  0  0
   10.9830    5.5630   22.7320 N   0  0  0  0  0  0  0  0  0  0  0  0
   10.0600    6.3630   23.3490 C   0  0  0  0  0  0  0  0  0  0  0  0
    9.0740    6.8470   22.4890 C   0  0  0  0  0  0  0  0  0  0  0  0
   10.0820    6.6340   24.5460 O   0  0  0  0  0  0  0  0  0  0  0  0
   10.5860    2.0510   22.6380 C   0  0  0  0  0  0  0  0  0  0  0  0
   10.6090    0.6460   22.7590 N   0  0  0  0  0  0  0  0  0  0  0  0
   11.9200    0.0960   23.0570 C   0  0  0  0  0  0  0  0  0  0  0  0
    7.1570   -4.8740   23.3460 C   0  0  0  0  0  0  0  0  0  0  0  0
  1  2  1  0
  2  3  2  0
  2  4  1  0
  4  5  1  0
  5  6  1  0
  6  7  1  0
  7  8  1  0
  8  9  1  0
  8 10  2  0
  7 11  1  0
 11 12  1  6
 12 13  1  0
 13 14  1  0
 14 15  1  0
 15 16  2  0
 16 17  1  0
 17 18  2  0
 18 19  1  0
 19 20  1  0
 20 21  1  0
 21 22  1  0
 22 23  1  0
 23 24  1  0
 24 25  1  0
 24 26  2  0
 20 27  2  0
 27 28  1  0
 15 29  1  0
 19 29  2  0
 28 29  1  0
  4 30  1  0
 11 30  1  0
M  END
