HAN-NEW-5f56c3bc-4-vinylsulfonamide
     RDKit          3D

 32 34  0  0  0  0  0  0  0  0999 V2000
    8.3180   -3.7250   20.2090 C   0  0  0  0  0  0  0  0  0  0  0  0
    7.1330   -2.8100   20.3220 C   0  0  0  0  0  0  0  0  0  0  0  0
    5.8200   -3.8320   20.8900 S   0  0  0  0  0  0  0  0  0  0  0  0
    5.1340   -4.4680   19.7940 O   0  0  0  0  0  0  0  0  0  0  0  0
    5.0570   -3.1010   21.8730 O   0  0  0  0  0  0  0  0  0  0  0  0
    6.6760   -5.0500   21.7030 N   0  0  0  0  0  0  0  0  0  0  0  0
    5.8290   -6.0680   22.2800 C   0  0  0  0  0  0  0  0  0  0  0  0
    5.1730   -5.4830   23.5300 C   0  0  0  0  0  0  0  0  0  0  0  0
    6.1680   -4.8400   24.4730 N   0  0  0  0  0  0  0  0  0  0  0  0
    6.2790   -5.4170   25.7300 C   0  0  0  0  0  0  0  0  0  0  0  0
    5.1050   -5.9460   26.3460 C   0  0  0  0  0  0  0  0  0  0  0  0
    7.3510   -5.5070   26.3270 O   0  0  0  0  0  0  0  0  0  0  0  0
    7.1130   -3.9560   23.9230 C   0  0  2  0  0  0  0  0  0  0  0  0
    7.0260   -2.5220   23.7590 C   0  0  0  0  0  0  0  0  0  0  0  0
    8.2550   -1.8530   23.0530 C   0  0  0  0  0  0  0  0  0  0  0  0
    9.4440   -1.6810   24.0010 C   0  0  0  0  0  0  0  0  0  0  0  0
   10.6480   -0.9040   23.5050 C   0  0  0  0  0  0  0  0  0  0  0  0
   11.7370   -1.6290   22.9730 C   0  0  0  0  0  0  0  0  0  0  0  0
   12.8870   -0.9930   22.5010 C   0  0  0  0  0  0  0  0  0  0  0  0
   12.9610    0.3940   22.5520 C   0  0  0  0  0  0  0  0  0  0  0  0
   11.9090    1.1470   23.0510 C   0  0  0  0  0  0  0  0  0  0  0  0
   11.7570    2.5300   23.1600 C   0  0  0  0  0  0  0  0  0  0  0  0
   12.5650    3.6250   22.7890 C   0  0  0  0  0  0  0  0  0  0  0  0
   12.3280    4.9060   23.3030 C   0  0  0  0  0  0  0  0  0  0  0  0
   11.2330    5.6010   22.6300 N   0  0  0  0  0  0  0  0  0  0  0  0
   10.2200    6.1730   23.3550 C   0  0  0  0  0  0  0  0  0  0  0  0
    9.1550    6.6160   22.5670 C   0  0  0  0  0  0  0  0  0  0  0  0
   10.2290    6.3100   24.7130 O   0  0  0  0  0  0  0  0  0  0  0  0
   10.4130    2.7610   23.8090 C   0  0  0  0  0  0  0  0  0  0  0  0
    9.8920    1.4980   23.9950 N   0  0  0  0  0  0  0  0  0  0  0  0
   10.7680    0.5110   23.5370 C   0  0  0  0  0  0  0  0  0  0  0  0
    7.7080   -4.5890   22.6360 C   0  0  0  0  0  0  0  0  0  0  0  0
  1  2  1  0
  3  2  1  0
  3  4  2  0
  3  5  2  0
  3  6  1  0
  6  7  1  0
  7  8  1  0
  8  9  1  0
  9 10  1  0
 10 11  1  0
 10 12  2  0
  9 13  1  0
 13 14  1  6
 14 15  1  0
 15 16  1  0
 16 17  1  0
 17 18  2  0
 18 19  1  0
 19 20  2  0
 20 21  1  0
 21 22  1  0
 22 23  1  0
 23 24  1  0
 24 25  1  0
 25 26  1  0
 26 27  1  0
 26 28  2  0
 22 29  2  0
 29 30  1  0
 17 31  1  0
 21 31  2  0
 30 31  1  0
  6 32  1  0
 13 32  1  0
M  END
