HAN-NEW-5f56c3bc-1
     RDKit          3D

 17 18  0  0  0  0  0  0  0  0999 V2000
    5.0800    0.8110   21.8760 C   0  0  0  0  0  0  0  0  0  0  0  0
    5.4410    0.6870   20.4260 C   0  0  0  0  0  0  0  0  0  0  0  0
    4.7180    1.4530   19.5740 N   0  0  0  0  0  0  0  0  0  0  0  0
    5.1010    1.3210   18.1680 C   0  0  0  0  0  0  0  0  0  0  0  0
    6.0640    0.5280   17.7020 N   0  0  0  0  0  0  0  0  0  0  0  0
    6.6960   -0.1760   18.6590 C   0  0  0  0  0  0  0  0  0  0  0  0
    6.4640   -0.1640   20.0100 C   0  0  0  0  0  0  0  0  0  0  0  0
    7.1880   -0.9250   20.9430 N   0  0  0  0  0  0  0  0  0  0  0  0
    8.2860   -0.3560   21.5330 C   0  0  0  0  0  0  0  0  0  0  0  0
    8.5570    0.8300   21.3860 O   0  0  0  0  0  0  0  0  0  0  0  0
    9.0580   -1.2130   22.2770 N   0  0  0  0  0  0  0  0  0  0  0  0
   10.3080   -0.7340   22.6280 C   0  0  0  0  0  0  0  0  0  0  0  0
   10.4290    0.3990   23.5060 C   0  0  0  0  0  0  0  0  0  0  0  0
   11.8330    0.8980   23.8080 C   0  0  0  0  0  0  0  0  0  0  0  0
   13.0060    0.1940   23.1910 C   0  0  0  0  0  0  0  0  0  0  0  0
   12.7280   -0.9650   22.3240 C   0  0  0  0  0  0  0  0  0  0  0  0
   11.4310   -1.3850   22.0720 C   0  0  0  0  0  0  0  0  0  0  0  0
  1  2  1  0
  2  3  2  0
  3  4  1  0
  4  5  2  0
  5  6  1  0
  2  7  1  0
  6  7  2  0
  7  8  1  0
  8  9  1  0
  9 10  2  0
  9 11  1  0
 11 12  1  0
 12 13  2  0
 13 14  1  0
 14 15  2  0
 15 16  1  0
 12 17  1  0
 16 17  2  0
M  END
