HAN-NEW-5f56c3bc-4-nitrile
     RDKit          3D

 29 31  0  0  0  0  0  0  0  0999 V2000
    6.3220   -5.0800   20.6810 C   0  0  0  0  0  0  0  0  0  0  0  0
    5.3740   -4.5590   20.0690 N   0  0  0  0  0  0  0  0  0  0  0  0
    6.1980   -5.3470   22.0590 N   0  0  0  0  0  0  0  0  0  0  0  0
    7.4500   -5.4530   22.8320 C   0  0  0  0  0  0  0  0  0  0  0  0
    8.1720   -4.1610   22.2920 C   0  0  0  0  0  0  0  0  0  0  0  0
    7.1730   -3.1590   22.2290 N   0  0  0  0  0  0  0  0  0  0  0  0
    6.6310   -2.8730   20.8810 C   0  0  0  0  0  0  0  0  0  0  0  0
    7.6760   -2.2400   20.0060 C   0  0  0  0  0  0  0  0  0  0  0  0
    5.4900   -3.1000   20.4730 O   0  0  0  0  0  0  0  0  0  0  0  0
    6.5080   -3.5540   23.2450 C   0  0  1  0  0  0  0  0  0  0  0  0
    6.3010   -2.3350   24.1260 C   0  0  0  0  0  0  0  0  0  0  0  0
    7.7930   -2.2680   24.5710 C   0  0  0  0  0  0  0  0  0  0  0  0
    9.0710   -1.8620   23.7350 C   0  0  0  0  0  0  0  0  0  0  0  0
    9.4020   -0.5010   23.7940 C   0  0  0  0  0  0  0  0  0  0  0  0
   10.6930   -0.7020   23.2180 C   0  0  0  0  0  0  0  0  0  0  0  0
   11.9570   -0.9680   22.6450 C   0  0  0  0  0  0  0  0  0  0  0  0
   12.5530    0.2760   22.5440 C   0  0  0  0  0  0  0  0  0  0  0  0
   11.6560    1.2430   23.0430 C   0  0  0  0  0  0  0  0  0  0  0  0
   11.6630    2.6410   23.1730 C   0  0  0  0  0  0  0  0  0  0  0  0
   12.6420    3.5350   22.7580 C   0  0  0  0  0  0  0  0  0  0  0  0
   12.5010    5.0080   23.1770 C   0  0  0  0  0  0  0  0  0  0  0  0
   11.4280    5.6530   22.5460 N   0  0  0  0  0  0  0  0  0  0  0  0
   10.3760    6.2120   23.3980 C   0  0  0  0  0  0  0  0  0  0  0  0
    9.2440    6.5930   22.6540 C   0  0  0  0  0  0  0  0  0  0  0  0
   10.4520    6.3450   24.6210 O   0  0  0  0  0  0  0  0  0  0  0  0
   10.5070    3.1430   23.7820 C   0  0  0  0  0  0  0  0  0  0  0  0
    9.7110    2.0830   24.0280 N   0  0  0  0  0  0  0  0  0  0  0  0
   10.2050    0.8730   23.6400 C   0  0  0  0  0  0  0  0  0  0  0  0
    5.3930   -4.5090   22.7700 C   0  0  0  0  0  0  0  0  0  0  0  0
  1  2  2  3
  1  3  1  0
  3  4  1  0
  4  5  1  0
  5  6  1  0
  6  7  1  0
  7  8  1  0
  7  9  2  0
  6 10  1  0
 10 11  1  6
 11 12  1  0
 12 13  1  0
 13 14  1  0
 14 15  2  0
 15 16  1  0
 16 17  2  0
 17 18  1  0
 18 19  1  0
 19 20  1  0
 20 21  1  0
 21 22  1  0
 22 23  1  0
 23 24  1  0
 23 25  2  0
 19 26  2  0
 26 27  1  0
 14 28  1  0
 18 28  2  0
 27 28  1  0
  3 29  1  0
 10 29  1  0
M  END
