HAN-NEW-5f56c3bc-4-nitrile
     RDKit          3D

 29 31  0  0  0  0  0  0  0  0999 V2000
    6.2910   -5.0500   20.6660 C   0  0  0  0  0  0  0  0  0  0  0  0
    5.3680   -4.4690   20.0580 N   0  0  0  0  0  0  0  0  0  0  0  0
    6.1240   -5.2660   22.0580 N   0  0  0  0  0  0  0  0  0  0  0  0
    7.2360   -5.6890   22.9340 C   0  0  0  0  0  0  0  0  0  0  0  0
    8.0520   -4.4560   23.2680 C   0  0  0  0  0  0  0  0  0  0  0  0
    7.2990   -3.3740   22.7060 N   0  0  0  0  0  0  0  0  0  0  0  0
    7.1800   -3.1080   21.3280 C   0  0  0  0  0  0  0  0  0  0  0  0
    8.3060   -2.6750   20.6950 C   0  0  0  0  0  0  0  0  0  0  0  0
    6.1370   -3.2120   20.6720 O   0  0  0  0  0  0  0  0  0  0  0  0
    6.2520   -3.3000   23.5080 C   0  0  1  0  0  0  0  0  0  0  0  0
    5.9630   -1.9640   23.6610 C   0  0  0  0  0  0  0  0  0  0  0  0
    7.1550   -1.1720   23.2650 C   0  0  0  0  0  0  0  0  0  0  0  0
    8.5990   -1.5060   23.8600 C   0  0  0  0  0  0  0  0  0  0  0  0
    9.6110   -0.3210   23.6200 C   0  0  0  0  0  0  0  0  0  0  0  0
   10.7610   -1.2750   23.1590 C   0  0  0  0  0  0  0  0  0  0  0  0
   12.1560   -0.8630   22.7270 C   0  0  0  0  0  0  0  0  0  0  0  0
   12.8960    0.4280   22.5840 C   0  0  0  0  0  0  0  0  0  0  0  0
   11.7930    1.1340   22.9940 C   0  0  0  0  0  0  0  0  0  0  0  0
   11.6150    2.5690   23.1250 C   0  0  0  0  0  0  0  0  0  0  0  0
   12.5190    3.6010   22.8180 C   0  0  0  0  0  0  0  0  0  0  0  0
   12.2560    4.8610   23.3710 C   0  0  0  0  0  0  0  0  0  0  0  0
   11.2300    5.6200   22.6610 N   0  0  0  0  0  0  0  0  0  0  0  0
   10.2090    6.2040   23.3670 C   0  0  0  0  0  0  0  0  0  0  0  0
    9.1540    6.6400   22.5660 C   0  0  0  0  0  0  0  0  0  0  0  0
   10.2080    6.3410   24.5880 O   0  0  0  0  0  0  0  0  0  0  0  0
   10.3860    2.8320   23.5900 C   0  0  0  0  0  0  0  0  0  0  0  0
   10.1960    1.5340   23.5650 N   0  0  0  0  0  0  0  0  0  0  0  0
   10.7250    0.3020   23.2920 C   0  0  0  0  0  0  0  0  0  0  0  0
    5.2680   -4.2650   22.7910 C   0  0  0  0  0  0  0  0  0  0  0  0
  1  2  2  3
  1  3  1  0
  3  4  1  0
  4  5  1  0
  5  6  1  0
  6  7  1  0
  7  8  1  0
  7  9  2  0
  6 10  1  0
 10 11  1  6
 11 12  1  0
 12 13  1  0
 13 14  1  0
 14 15  2  0
 15 16  1  0
 16 17  2  0
 17 18  1  0
 18 19  1  0
 19 20  1  0
 20 21  1  0
 21 22  1  0
 22 23  1  0
 23 24  1  0
 23 25  2  0
 19 26  2  0
 26 27  1  0
 14 28  1  0
 18 28  2  0
 27 28  1  0
  3 29  1  0
 10 29  1  0
M  END
