HAN-NEW-5f56c3bc-4-chloroacetamide
     RDKit          3D

 30 32  0  0  0  0  0  0  0  0999 V2000
    7.0110   -5.3280   20.9870 C   0  0  0  0  0  0  0  0  0  0  0  0
    5.5230   -5.5060   21.3770 C   0  0  0  0  0  0  0  0  0  0  0  0
    5.3500   -5.1300   20.1820 O   0  0  0  0  0  0  0  0  0  0  0  0
    5.9450   -5.8930   22.6490 N   0  0  0  0  0  0  0  0  0  0  0  0
    5.0690   -5.3500   23.6840 C   0  0  0  0  0  0  0  0  0  0  0  0
    4.9250   -3.9480   22.9990 C   0  0  0  0  0  0  0  0  0  0  0  0
    6.2500   -3.5490   22.4000 N   0  0  0  0  0  0  0  0  0  0  0  0
    6.5000   -3.1780   20.9730 C   0  0  0  0  0  0  0  0  0  0  0  0
    7.9040   -2.6200   20.7180 C   0  0  0  0  0  0  0  0  0  0  0  0
    5.6730   -3.2870   20.0580 O   0  0  0  0  0  0  0  0  0  0  0  0
    7.3250   -4.1240   23.2900 C   0  0  2  0  0  0  0  0  0  0  0  0
    8.6880   -3.5860   23.0810 C   0  0  0  0  0  0  0  0  0  0  0  0
    9.0680   -2.3330   23.7600 C   0  0  0  0  0  0  0  0  0  0  0  0
   10.4140   -2.0460   23.8190 C   0  0  0  0  0  0  0  0  0  0  0  0
   10.5890   -0.7040   23.7570 C   0  0  0  0  0  0  0  0  0  0  0  0
   11.7930   -1.2890   23.2110 C   0  0  0  0  0  0  0  0  0  0  0  0
   12.9670   -0.7230   22.7050 C   0  0  0  0  0  0  0  0  0  0  0  0
   13.1150    0.6200   22.6680 C   0  0  0  0  0  0  0  0  0  0  0  0
   12.0500    1.3110   23.1250 C   0  0  0  0  0  0  0  0  0  0  0  0
   11.8220    2.6840   23.1980 C   0  0  0  0  0  0  0  0  0  0  0  0
   12.7340    3.8270   22.7270 C   0  0  0  0  0  0  0  0  0  0  0  0
   12.4480    5.1230   23.1900 C   0  0  0  0  0  0  0  0  0  0  0  0
   11.3260    5.6810   22.6010 N   0  0  0  0  0  0  0  0  0  0  0  0
   10.2990    6.1790   23.3710 C   0  0  0  0  0  0  0  0  0  0  0  0
    9.0760    6.6180   22.5490 C   0  0  0  0  0  0  0  0  0  0  0  0
   10.3350    6.2940   24.8000 O   0  0  0  0  0  0  0  0  0  0  0  0
   10.5840    2.9660   23.7690 C   0  0  0  0  0  0  0  0  0  0  0  0
   10.0150    1.7820   24.0400 N   0  0  0  0  0  0  0  0  0  0  0  0
   10.9300    0.6650   23.6210 C   0  0  0  0  0  0  0  0  0  0  0  0
    7.2690   -5.6170   23.1210 C   0  0  0  0  0  0  0  0  0  0  0  0
  1  2  1  0
  2  3  2  0
  2  4  1  0
  4  5  1  0
  5  6  1  0
  6  7  1  0
  7  8  1  0
  8  9  1  0
  8 10  2  0
  7 11  1  0
 11 12  1  6
 12 13  1  0
 13 14  1  0
 14 15  1  0
 15 16  2  0
 16 17  1  0
 17 18  2  0
 18 19  1  0
 19 20  1  0
 20 21  1  0
 21 22  1  0
 22 23  1  0
 23 24  1  0
 24 25  1  0
 24 26  2  0
 20 27  2  0
 27 28  1  0
 15 29  1  0
 19 29  2  0
 28 29  1  0
  4 30  1  0
 11 30  1  0
M  END
