HAN-NEW-5f56c3bc-3
     RDKit          3D

 28 30  0  0  0  0  0  0  0  0999 V2000
    8.5470    0.7870   21.3470 O   0  0  0  0  0  0  0  0  0  0  0  0
    8.2560   -0.3610   21.6780 C   0  0  0  0  0  0  0  0  0  0  0  0
    9.0120   -1.1250   22.5040 N   0  0  0  0  0  0  0  0  0  0  0  0
   10.3370   -0.7540   22.6970 C   0  0  0  0  0  0  0  0  0  0  0  0
   11.5270   -1.4460   22.0880 C   0  0  0  0  0  0  0  0  0  0  0  0
   12.8990   -0.8750   22.3810 C   0  0  0  0  0  0  0  0  0  0  0  0
   12.9670    0.2440   23.1930 C   0  0  0  0  0  0  0  0  0  0  0  0
   11.7980    0.8620   23.7620 C   0  0  0  0  0  0  0  0  0  0  0  0
   10.5530    0.3560   23.5040 C   0  0  0  0  0  0  0  0  0  0  0  0
    7.1020   -0.8460   21.1500 N   0  0  0  0  0  0  0  0  0  0  0  0
    6.3890   -0.1630   20.1670 C   0  0  0  0  0  0  0  0  0  0  0  0
    6.8860   -0.1470   18.7400 C   0  0  0  0  0  0  0  0  0  0  0  0
    6.2800    0.5050   17.7420 N   0  0  0  0  0  0  0  0  0  0  0  0
    5.0180    1.2760   18.0550 C   0  0  0  0  0  0  0  0  0  0  0  0
    4.5320    1.2350   19.4850 C   0  0  0  0  0  0  0  0  0  0  0  0
    5.2150    0.5290   20.4950 C   0  0  0  0  0  0  0  0  0  0  0  0
    4.7260    0.5360   21.7970 C   0  0  0  0  0  0  0  0  0  0  0  0
    5.0240    1.6380   22.5970 C   0  0  0  0  0  0  0  0  0  0  0  0
    3.9380    2.5920   22.6910 N   0  0  0  0  0  0  0  0  0  0  0  0
    2.8150    2.3270   23.4290 C   0  0  0  0  0  0  0  0  0  0  0  0
    2.7590    1.4590   24.2820 O   0  0  0  0  0  0  0  0  0  0  0  0
    1.7820    3.1630   23.0800 N   0  0  0  0  0  0  0  0  0  0  0  0
    0.5840    3.3110   23.9020 C   0  0  0  0  0  0  0  0  0  0  0  0
   -0.5270    3.0990   23.0740 C   0  0  0  0  0  0  0  0  0  0  0  0
   -1.7240    3.2070   23.7910 C   0  0  0  0  0  0  0  0  0  0  0  0
   -1.8900    4.5010   24.2800 C   0  0  0  0  0  0  0  0  0  0  0  0
   -0.8650    5.0420   25.0510 C   0  0  0  0  0  0  0  0  0  0  0  0
    0.5260    4.7240   24.4970 C   0  0  0  0  0  0  0  0  0  0  0  0
  1  2  2  0
  2  3  1  0
  3  4  1  0
  4  5  2  0
  5  6  1  0
  6  7  2  0
  7  8  1  0
  4  9  1  0
  8  9  2  0
  2 10  1  0
 10 11  1  0
 11 12  2  0
 12 13  1  0
 13 14  2  0
 14 15  1  0
 11 16  1  0
 15 16  2  0
 16 17  1  0
 17 18  1  0
 18 19  1  0
 19 20  1  0
 20 21  2  0
 20 22  1  0
 22 23  1  0
 23 24  1  0
 24 25  1  0
 25 26  1  0
 26 27  1  0
 23 28  1  0
 27 28  1  0
M  END
