HAR-NEW-e34cb1ae-8
     RDKit          3D

 24 26  0  0  0  0  0  0  0  0999 V2000
    6.7030   -3.0340   22.5410 N   0  0  0  0  0  0  0  0  0  0  0  0
    7.9730   -3.6760   22.8400 C   0  0  0  0  0  0  0  0  0  0  0  0
    8.9840   -2.7010   23.0200 C   0  0  0  0  0  0  0  0  0  0  0  0
   10.2770   -2.5080   22.2980 C   0  0  0  0  0  0  0  0  0  0  0  0
   10.9920   -1.3770   22.8260 C   0  0  0  0  0  0  0  0  0  0  0  0
   12.2000   -0.9150   22.4460 C   0  0  0  0  0  0  0  0  0  0  0  0
   12.9530   -1.8680   21.2910 S   0  0  0  0  0  0  0  0  0  0  0  0
   13.5270   -2.8560   22.5100 N   0  0  0  0  0  0  0  0  0  0  0  0
   13.9650   -1.1450   20.6100 O   0  0  0  0  0  0  0  0  0  0  0  0
   11.9760   -2.6440   20.6560 O   0  0  0  0  0  0  0  0  0  0  0  0
   12.7090    0.2120   23.0220 C   0  0  0  0  0  0  0  0  0  0  0  0
   11.9360    0.8100   24.0080 C   0  0  0  0  0  0  0  0  0  0  0  0
   10.6970    0.2760   24.4180 C   0  0  0  0  0  0  0  0  0  0  0  0
   10.2270   -0.8520   23.7930 C   0  0  0  0  0  0  0  0  0  0  0  0
    9.0050   -1.6560   23.9720 N   0  0  0  0  0  0  0  0  0  0  0  0
    8.0880   -1.4490   24.8920 C   0  0  0  0  0  0  0  0  0  0  0  0
    7.2360   -0.2920   24.9690 O   0  0  0  0  0  0  0  0  0  0  0  0
    8.1650   -2.5060   25.6520 N   0  0  0  0  0  0  0  0  0  0  0  0
    9.2950   -3.3190   25.6670 C   0  0  0  0  0  0  0  0  0  0  0  0
    9.4930   -4.5100   26.4100 C   0  0  0  0  0  0  0  0  0  0  0  0
    8.3650   -4.8760   27.1140 C   0  0  0  0  0  0  0  0  0  0  0  0
    8.2830   -4.4470   28.2620 O   0  0  0  0  0  0  0  0  0  0  0  0
    7.2020   -4.3790   26.5460 C   0  0  0  0  0  0  0  0  0  0  0  0
    7.0210   -3.0120   26.2230 C   0  0  0  0  0  0  0  0  0  0  0  0
  1  2  1  0
  2  3  1  0
  3  4  2  0
  4  5  1  0
  5  6  2  0
  6  7  1  0
  7  8  1  0
  7  9  2  0
  7 10  2  0
  6 11  1  0
 11 12  2  0
 12 13  1  0
  5 14  1  0
 13 14  2  0
  3 15  1  0
 14 15  1  0
 15 16  1  0
 16 17  2  0
 16 18  1  0
 18 19  1  0
 19 20  1  0
 20 21  1  0
 21 22  1  0
 21 23  1  0
 18 24  1  0
 23 24  1  0
M  END
