HAR-NEW-e34cb1ae-3-nitrile
     RDKit          3D

 31 33  0  0  0  0  0  0  0  0999 V2000
    6.7390   -3.8650   20.0520 C   0  0  0  0  0  0  0  0  0  0  0  0
    5.7350   -3.4400   19.3900 N   0  0  0  0  0  0  0  0  0  0  0  0
    7.3340   -2.9740   21.1360 C   0  0  2  0  0  0  0  0  0  0  0  0
    8.7700   -3.0090   21.6620 C   0  0  0  0  0  0  0  0  0  0  0  0
    9.1130   -1.6060   22.0800 C   0  0  0  0  0  0  0  0  0  0  0  0
   10.4120   -1.0610   21.9840 C   0  0  0  0  0  0  0  0  0  0  0  0
   10.6380    0.2770   22.3460 C   0  0  0  0  0  0  0  0  0  0  0  0
    9.5670    1.0410   22.7820 C   0  0  0  0  0  0  0  0  0  0  0  0
    9.8710    2.7830   23.1620 S   0  0  0  0  0  0  0  0  0  0  0  0
   11.5500    2.9170   23.1720 N   0  0  0  0  0  0  0  0  0  0  0  0
    9.4020    3.5280   22.0330 O   0  0  0  0  0  0  0  0  0  0  0  0
    9.3940    3.0140   24.5030 O   0  0  0  0  0  0  0  0  0  0  0  0
    8.3020    0.5010   22.9080 C   0  0  0  0  0  0  0  0  0  0  0  0
    8.0520   -0.8360   22.5640 C   0  0  0  0  0  0  0  0  0  0  0  0
    6.7270   -1.4560   22.6840 N   0  0  0  0  0  0  0  0  0  0  0  0
    6.0530   -1.1690   23.8200 C   0  0  0  0  0  0  0  0  0  0  0  0
    5.6880    0.3030   23.9580 C   0  0  0  0  0  0  0  0  0  0  0  0
    5.5840    0.9320   22.6910 C   0  0  0  0  0  0  0  0  0  0  0  0
    6.0740    2.0590   22.7150 O   0  0  0  0  0  0  0  0  0  0  0  0
    4.9930    0.3240   21.6290 N   0  0  0  0  0  0  0  0  0  0  0  0
    5.1280    0.7060   20.3360 C   0  0  0  0  0  0  0  0  0  0  0  0
    6.0570    0.2170   19.3650 C   0  0  0  0  0  0  0  0  0  0  0  0
    6.1960    0.6170   18.0460 N   0  0  0  0  0  0  0  0  0  0  0  0
    5.3570    1.5760   17.6490 C   0  0  0  0  0  0  0  0  0  0  0  0
    4.4380    2.0820   18.5350 C   0  0  0  0  0  0  0  0  0  0  0  0
    4.2670    1.7080   19.8540 C   0  0  0  0  0  0  0  0  0  0  0  0
    3.2540    2.4100   20.4690 C   0  0  0  0  0  0  0  0  0  0  0  0
    3.5190    2.8480   21.7980 O   0  0  0  0  0  0  0  0  0  0  0  0
    1.9070    2.8290   19.9650 C   0  0  0  0  0  0  0  0  0  0  0  0
    0.6230    2.2970   20.5390 C   0  0  0  0  0  0  0  0  0  0  0  0
    6.4940   -2.7300   22.2190 C   0  0  0  0  0  0  0  0  0  0  0  0
  1  2  2  3
  3  1  1  1
  3  4  1  0
  4  5  1  0
  5  6  1  0
  6  7  2  0
  7  8  1  0
  8  9  1  0
  9 10  1  0
  9 11  2  0
  9 12  2  0
  8 13  2  0
  5 14  2  0
 13 14  1  0
 14 15  1  0
 15 16  1  0
 16 17  1  0
 17 18  1  0
 18 19  2  0
 18 20  1  0
 20 21  1  0
 21 22  2  0
 22 23  1  0
 23 24  2  0
 24 25  1  0
 21 26  1  0
 25 26  2  0
 26 27  1  0
 27 28  2  0
 27 29  1  0
 29 30  2  3
  3 31  1  0
 15 31  1  0
M  END
