HAR-NEW-e34cb1ae-3-vinylsulfonamide
     RDKit          3D

 34 36  0  0  0  0  0  0  0  0999 V2000
    7.0330   -3.1450   19.3890 C   0  0  0  0  0  0  0  0  0  0  0  0
    5.8260   -3.6790   20.1270 C   0  0  0  0  0  0  0  0  0  0  0  0
    5.9020   -3.5750   21.9120 S   0  0  0  0  0  0  0  0  0  0  0  0
    4.5620   -3.9560   22.2950 O   0  0  0  0  0  0  0  0  0  0  0  0
    7.0380   -4.2960   22.4550 O   0  0  0  0  0  0  0  0  0  0  0  0
    6.1030   -1.8800   22.3970 C   0  0  2  0  0  0  0  0  0  0  0  0
    7.2920   -1.0990   21.8610 C   0  0  0  0  0  0  0  0  0  0  0  0
    7.6140   -0.1030   22.7690 C   0  0  0  0  0  0  0  0  0  0  0  0
    6.4280   -0.4780   23.4330 C   0  0  0  0  0  0  0  0  0  0  0  0
    5.8040    0.0590   24.7080 C   0  0  0  0  0  0  0  0  0  0  0  0
    6.7210    1.1320   25.1600 C   0  0  0  0  0  0  0  0  0  0  0  0
    6.2820    1.9580   26.6400 S   0  0  0  0  0  0  0  0  0  0  0  0
    7.6100    2.9330   27.0130 N   0  0  0  0  0  0  0  0  0  0  0  0
    6.1710    0.9550   27.6720 O   0  0  0  0  0  0  0  0  0  0  0  0
    5.2020    2.8800   26.3610 O   0  0  0  0  0  0  0  0  0  0  0  0
    7.8940    1.5370   24.5230 C   0  0  0  0  0  0  0  0  0  0  0  0
    7.2190    0.4660   23.8220 C   0  0  0  0  0  0  0  0  0  0  0  0
    6.0250   -0.1520   24.1230 N   0  0  0  0  0  0  0  0  0  0  0  0
    4.9220    0.5310   23.6680 C   0  0  0  0  0  0  0  0  0  0  0  0
    4.9150    1.9500   23.5800 C   0  0  0  0  0  0  0  0  0  0  0  0
    5.6450    2.5500   22.5430 C   0  0  0  0  0  0  0  0  0  0  0  0
    5.5320    3.7420   22.8450 O   0  0  0  0  0  0  0  0  0  0  0  0
    6.2900    2.6400   21.5770 N   0  0  0  0  0  0  0  0  0  0  0  0
    5.8230    2.0340   20.4370 C   0  0  0  0  0  0  0  0  0  0  0  0
    6.7320    1.1950   19.7340 C   0  0  0  0  0  0  0  0  0  0  0  0
    6.2580    0.5440   18.5230 N   0  0  0  0  0  0  0  0  0  0  0  0
    4.9740    0.7850   18.1590 C   0  0  0  0  0  0  0  0  0  0  0  0
    4.0430    1.6170   18.8420 C   0  0  0  0  0  0  0  0  0  0  0  0
    4.4970    2.2320   19.9790 C   0  0  0  0  0  0  0  0  0  0  0  0
    3.6140    3.1360   20.7890 C   0  0  0  0  0  0  0  0  0  0  0  0
    4.0170    4.1760   21.3100 O   0  0  0  0  0  0  0  0  0  0  0  0
    2.1850    2.6730   20.9160 C   0  0  0  0  0  0  0  0  0  0  0  0
    1.1290    2.8360   19.8560 C   0  0  0  0  0  0  0  0  0  0  0  0
    5.9260   -1.6380   23.8020 C   0  0  0  0  0  0  0  0  0  0  0  0
  1  2  1  0
  3  2  1  0
  3  4  2  0
  3  5  2  0
  6  3  1  1
  6  7  1  0
  7  8  1  0
  8  9  1  0
  9 10  2  0
 10 11  1  0
 11 12  1  0
 12 13  1  0
 12 14  2  0
 12 15  2  0
 11 16  2  0
  8 17  2  0
 16 17  1  0
 17 18  1  0
 18 19  1  0
 19 20  1  0
 20 21  1  0
 21 22  2  0
 21 23  1  0
 23 24  1  0
 24 25  2  0
 25 26  1  0
 26 27  2  0
 27 28  1  0
 24 29  1  0
 28 29  2  0
 29 30  1  0
 30 31  2  0
 30 32  1  0
 32 33  2  3
  6 34  1  0
 18 34  1  0
M  END
