HAR-NEW-e34cb1ae-5-chloroacetamide
     RDKit          3D

 26 28  0  0  0  0  0  0  0  0999 V2000
    7.3970   -3.2220   19.0740 C   0  0  0  0  0  0  0  0  0  0  0  0
    6.6190   -3.8600   20.1840 C   0  0  0  0  0  0  0  0  0  0  0  0
    5.6030   -4.5400   19.9590 O   0  0  0  0  0  0  0  0  0  0  0  0
    7.1500   -3.6710   21.4760 N   0  0  0  0  0  0  0  0  0  0  0  0
    7.8080   -2.3500   21.6020 C   0  0  0  0  0  0  0  0  0  0  0  0
    9.2960   -2.5290   21.6240 C   0  0  0  0  0  0  0  0  0  0  0  0
    9.6660   -3.0460   22.8020 N   0  0  0  0  0  0  0  0  0  0  0  0
    9.8800   -2.0420   23.8270 C   0  0  0  0  0  0  0  0  0  0  0  0
    8.8310   -1.7070   24.7230 O   0  0  0  0  0  0  0  0  0  0  0  0
   11.0530   -1.2770   23.9770 C   0  0  1  0  0  0  0  0  0  0  0  0
   12.0270   -1.4190   22.9710 C   0  0  0  0  0  0  0  0  0  0  0  0
   12.9890   -0.3940   23.0330 C   0  0  0  0  0  0  0  0  0  0  0  0
   12.4500    0.9020   23.1370 C   0  0  0  0  0  0  0  0  0  0  0  0
   13.1370    2.1670   22.6740 C   0  0  0  0  0  0  0  0  0  0  0  0
   12.4740    3.5130   22.8210 C   0  0  0  0  0  0  0  0  0  0  0  0
   11.1990    3.5170   23.4160 C   0  0  0  0  0  0  0  0  0  0  0  0
   10.2840    5.0390   23.6710 S   0  0  0  0  0  0  0  0  0  0  0  0
   11.4210    6.2350   23.3400 N   0  0  0  0  0  0  0  0  0  0  0  0
    9.9600    5.1960   25.0620 O   0  0  0  0  0  0  0  0  0  0  0  0
    9.2530    5.1620   22.6800 O   0  0  0  0  0  0  0  0  0  0  0  0
   10.6070    2.3220   23.8340 C   0  0  0  0  0  0  0  0  0  0  0  0
   11.2010    1.0570   23.7050 C   0  0  0  0  0  0  0  0  0  0  0  0
   10.5600   -0.0330   24.1430 N   0  0  0  0  0  0  0  0  0  0  0  0
    9.6640    0.1390   25.1540 C   0  0  0  0  0  0  0  0  0  0  0  0
    8.9120   -4.1710   23.1400 C   0  0  0  0  0  0  0  0  0  0  0  0
    8.0030   -4.6930   22.1400 C   0  0  0  0  0  0  0  0  0  0  0  0
  1  2  1  0
  2  3  2  0
  2  4  1  0
  4  5  1  0
  5  6  1  0
  6  7  1  0
  7  8  1  0
  8  9  2  0
 10  8  1  6
 10 11  1  0
 11 12  1  0
 12 13  1  0
 13 14  2  0
 14 15  1  0
 15 16  2  0
 16 17  1  0
 17 18  1  0
 17 19  2  0
 17 20  2  0
 16 21  1  0
 13 22  1  0
 21 22  2  0
 10 23  1  0
 22 23  1  0
 23 24  1  0
  7 25  1  0
  4 26  1  0
 25 26  1  0
M  END
