HAR-NEW-ca1d46ce-2
     RDKit          3D

 25 27  0  0  0  0  0  0  0  0999 V2000
    9.1390    1.4870   21.2460 O   0  0  0  0  0  0  0  0  0  0  0  0
    8.7070    0.4750   21.8130 C   0  0  0  0  0  0  0  0  0  0  0  0
    9.1900   -0.0070   23.0210 N   0  0  0  0  0  0  0  0  0  0  0  0
   10.5640   -0.5550   23.1690 C   0  0  0  0  0  0  0  0  0  0  0  0
   11.1810   -1.3860   22.0780 C   0  0  0  0  0  0  0  0  0  0  0  0
   12.5800   -1.8940   22.3370 C   0  0  0  0  0  0  0  0  0  0  0  0
   13.1850   -1.5600   23.5570 C   0  0  0  0  0  0  0  0  0  0  0  0
   12.5270   -0.7820   24.5060 C   0  0  0  0  0  0  0  0  0  0  0  0
   13.0330   -0.4080   25.7070 O   0  0  0  0  0  0  0  0  0  0  0  0
   11.2490   -0.2860   24.3350 C   0  0  0  0  0  0  0  0  0  0  0  0
    7.6740   -0.3190   21.3550 N   0  0  0  0  0  0  0  0  0  0  0  0
    6.8790    0.1600   20.2820 C   0  0  0  0  0  0  0  0  0  0  0  0
    7.0920   -0.1490   18.9380 C   0  0  0  0  0  0  0  0  0  0  0  0
    6.3570    0.2890   17.7950 N   0  0  0  0  0  0  0  0  0  0  0  0
    5.3330    1.0920   18.0710 C   0  0  0  0  0  0  0  0  0  0  0  0
    5.0030    1.4870   19.4920 C   0  0  0  0  0  0  0  0  0  0  0  0
    5.7820    1.0160   20.5870 C   0  0  0  0  0  0  0  0  0  0  0  0
    5.4700    1.3840   21.9090 C   0  0  0  0  0  0  0  0  0  0  0  0
    5.2260    2.7410   22.1950 C   0  0  1  0  0  0  0  0  0  0  0  0
    6.1210    3.7650   21.8150 C   0  0  0  0  0  0  0  0  0  0  0  0
    5.7900    5.1310   21.9770 C   0  0  0  0  0  0  0  0  0  0  0  0
    4.5340    5.4300   22.3680 N   0  0  0  0  0  0  0  0  0  0  0  0
    3.5940    4.5080   22.0560 C   0  0  0  0  0  0  0  0  0  0  0  0
    2.3930    4.7650   22.0750 O   0  0  0  0  0  0  0  0  0  0  0  0
    4.0600    3.2540   21.7180 N   0  0  0  0  0  0  0  0  0  0  0  0
  1  2  2  0
  2  3  1  0
  3  4  1  0
  4  5  2  0
  5  6  1  0
  6  7  2  0
  7  8  1  0
  8  9  1  0
  4 10  1  0
  8 10  2  0
  2 11  1  0
 11 12  1  0
 12 13  2  0
 13 14  1  0
 14 15  2  0
 15 16  1  0
 12 17  1  0
 16 17  2  0
 17 18  1  0
 19 18  1  6
 19 20  1  0
 20 21  1  0
 21 22  1  0
 22 23  1  0
 23 24  2  0
 19 25  1  0
 23 25  1  0
M  END
