HAR-NEW-e34cb1ae-1
     RDKit          3D

 29 31  0  0  0  0  0  0  0  0999 V2000
    8.2310   -1.3800   28.8310 C   0  0  0  0  0  0  0  0  0  0  0  0
    7.2360   -0.4810   28.4120 C   0  0  0  0  0  0  0  0  0  0  0  0
    7.3530    0.2400   27.0790 C   0  0  0  0  0  0  0  0  0  0  0  0
    6.2040    1.0180   26.7150 O   0  0  0  0  0  0  0  0  0  0  0  0
    8.6180    0.1040   26.2550 C   0  0  0  0  0  0  0  0  0  0  0  0
    8.8740    1.0810   25.3480 N   0  0  0  0  0  0  0  0  0  0  0  0
    9.9590    0.9310   24.5630 C   0  0  0  0  0  0  0  0  0  0  0  0
   10.5580   -0.2040   24.2720 C   0  0  0  0  0  0  0  0  0  0  0  0
   11.6480   -0.3550   23.4790 C   0  0  0  0  0  0  0  0  0  0  0  0
   12.5140    0.4430   22.7310 C   0  0  0  0  0  0  0  0  0  0  0  0
   12.8110   -0.9070   22.6790 N   0  0  0  0  0  0  0  0  0  0  0  0
   11.8350   -1.8580   22.0800 C   0  0  0  0  0  0  0  0  0  0  0  0
   10.3630   -1.3510   22.0510 C   0  0  0  0  0  0  0  0  0  0  0  0
    9.3640   -2.0080   23.0530 C   0  0  0  0  0  0  0  0  0  0  0  0
    8.5010   -1.1000   23.7370 O   0  0  0  0  0  0  0  0  0  0  0  0
    9.1310   -3.2690   23.3920 N   0  0  0  0  0  0  0  0  0  0  0  0
    9.6330   -3.8710   24.5290 C   0  0  0  0  0  0  0  0  0  0  0  0
    8.2950   -4.0030   24.5970 C   0  0  0  0  0  0  0  0  0  0  0  0
    7.7000   -3.4610   23.4880 C   0  0  0  0  0  0  0  0  0  0  0  0
    8.4110   -2.8430   22.4080 C   0  0  0  0  0  0  0  0  0  0  0  0
    9.9230   -2.8070   22.5460 N   0  0  0  0  0  0  0  0  0  0  0  0
   10.5410   -3.3550   23.6800 C   0  0  0  0  0  0  0  0  0  0  0  0
   11.9860    1.7810   22.9540 C   0  0  0  0  0  0  0  0  0  0  0  0
   11.3200    2.7050   23.3290 N   0  0  0  0  0  0  0  0  0  0  0  0
   11.4090    4.0210   23.1000 C   0  0  0  0  0  0  0  0  0  0  0  0
   12.2640    4.9780   22.3600 C   0  0  0  0  0  0  0  0  0  0  0  0
   11.4640    6.1660   22.1720 N   0  0  0  0  0  0  0  0  0  0  0  0
   10.4230    3.6350   23.8610 C   0  0  0  0  0  0  0  0  0  0  0  0
   10.7360    2.0160   23.8450 C   0  0  0  0  0  0  0  0  0  0  0  0
  1  2  3  0
  2  3  1  0
  3  4  2  0
  3  5  1  0
  5  6  1  0
  6  7  1  0
  7  8  2  0
  8  9  1  0
  9 10  2  0
 10 11  1  0
 11 12  1  0
 12 13  1  0
 13 14  1  0
 14 15  2  0
 14 16  1  0
 16 17  1  0
 17 18  2  0
 18 19  1  0
 19 20  2  0
 20 21  1  0
 17 22  1  0
 21 22  2  0
 10 23  1  0
 23 24  1  0
 24 25  1  0
 25 26  1  0
 26 27  1  0
 25 28  2  0
  7 29  1  0
 23 29  2  0
 28 29  1  0
M  END
