HAR-NEW-e34cb1ae-3-chloroacetamide
     RDKit          3D

 32 34  0  0  0  0  0  0  0  0999 V2000
    8.4460   -3.8540   20.5120 C   0  0  0  0  0  0  0  0  0  0  0  0
    7.2730   -2.8230   20.4410 C   0  0  0  0  0  0  0  0  0  0  0  0
    6.7200   -3.4630   19.4720 O   0  0  0  0  0  0  0  0  0  0  0  0
    8.0580   -2.1540   21.6210 C   0  0  2  0  0  0  0  0  0  0  0  0
    9.5500   -2.1440   22.0770 C   0  0  0  0  0  0  0  0  0  0  0  0
    9.7630   -0.7780   22.5040 C   0  0  0  0  0  0  0  0  0  0  0  0
   10.9700   -0.0670   22.3370 C   0  0  0  0  0  0  0  0  0  0  0  0
   11.1130    1.3060   22.7000 C   0  0  0  0  0  0  0  0  0  0  0  0
   10.0430    2.0200   23.2460 C   0  0  0  0  0  0  0  0  0  0  0  0
   10.2790    3.8070   23.6220 S   0  0  0  0  0  0  0  0  0  0  0  0
   11.3550    4.3050   22.4420 N   0  0  0  0  0  0  0  0  0  0  0  0
    9.0670    4.4940   23.2440 O   0  0  0  0  0  0  0  0  0  0  0  0
   10.8090    4.0120   24.9380 O   0  0  0  0  0  0  0  0  0  0  0  0
    8.8440    1.3700   23.4820 C   0  0  0  0  0  0  0  0  0  0  0  0
    8.6870   -0.0960   23.1100 C   0  0  0  0  0  0  0  0  0  0  0  0
    7.5340   -0.7650   23.3370 N   0  0  0  0  0  0  0  0  0  0  0  0
    6.6370   -0.2480   24.1800 C   0  0  0  0  0  0  0  0  0  0  0  0
    5.7570    0.6740   23.5960 C   0  0  0  0  0  0  0  0  0  0  0  0
    5.6110    0.3970   22.2400 C   0  0  0  0  0  0  0  0  0  0  0  0
    6.4820    1.1280   21.7680 O   0  0  0  0  0  0  0  0  0  0  0  0
    5.1520   -0.1330   21.3190 N   0  0  0  0  0  0  0  0  0  0  0  0
    5.2270    0.4470   20.0880 C   0  0  0  0  0  0  0  0  0  0  0  0
    6.1790   -0.1180   19.2000 C   0  0  0  0  0  0  0  0  0  0  0  0
    6.2800    0.4680   17.8920 N   0  0  0  0  0  0  0  0  0  0  0  0
    5.4590    1.5060   17.6320 C   0  0  0  0  0  0  0  0  0  0  0  0
    4.5030    2.1050   18.4650 C   0  0  0  0  0  0  0  0  0  0  0  0
    4.4040    1.5470   19.7120 C   0  0  0  0  0  0  0  0  0  0  0  0
    3.4190    2.0900   20.7000 C   0  0  0  0  0  0  0  0  0  0  0  0
    3.6910    2.3110   21.8810 O   0  0  0  0  0  0  0  0  0  0  0  0
    2.0620    2.3650   20.1040 C   0  0  0  0  0  0  0  0  0  0  0  0
    0.7410    2.2390   20.8120 C   0  0  0  0  0  0  0  0  0  0  0  0
    7.3220   -2.1020   22.7780 C   0  0  0  0  0  0  0  0  0  0  0  0
  1  2  1  0
  2  3  2  0
  4  2  1  1
  4  5  1  0
  5  6  1  0
  6  7  1  0
  7  8  2  0
  8  9  1  0
  9 10  1  0
 10 11  1  0
 10 12  2  0
 10 13  2  0
  9 14  2  0
  6 15  2  0
 14 15  1  0
 15 16  1  0
 16 17  1  0
 17 18  1  0
 18 19  1  0
 19 20  2  0
 19 21  1  0
 21 22  1  0
 22 23  2  0
 23 24  1  0
 24 25  2  0
 25 26  1  0
 22 27  1  0
 26 27  2  0
 27 28  1  0
 28 29  2  0
 28 30  1  0
 30 31  2  3
  4 32  1  0
 16 32  1  0
M  END
