HEI-REL-0c990a45-5
     RDKit          3D

 25 27  0  0  0  0  0  0  0  0999 V2000
    6.3850   -2.1390   18.7830 C   0  0  0  0  0  0  0  0  0  0  0  0
    5.9070   -3.1050   19.8520 C   0  0  0  0  0  0  0  0  0  0  0  0
    5.3980   -4.1800   19.6310 O   0  0  0  0  0  0  0  0  0  0  0  0
    6.1250   -2.5910   21.2240 N   0  0  0  0  0  0  0  0  0  0  0  0
    6.9770   -1.5890   21.1830 C   0  0  0  0  0  0  0  0  0  0  0  0
    8.2480   -1.9020   21.9860 C   0  0  0  0  0  0  0  0  0  0  0  0
    7.9090   -2.4810   23.2920 N   0  0  0  0  0  0  0  0  0  0  0  0
    9.0380   -2.5910   24.2180 C   0  0  0  0  0  0  0  0  0  0  0  0
    9.9550   -1.4540   23.8900 C   0  0  0  0  0  0  0  0  0  0  0  0
   11.2730   -1.6870   23.2350 C   0  0  0  0  0  0  0  0  0  0  0  0
   12.0310   -0.5890   22.9370 C   0  0  0  0  0  0  0  0  0  0  0  0
   13.4720   -0.9990   22.1670 Cl  0  0  0  0  0  0  0  0  0  0  0  0
   11.5990    0.7100   23.2460 C   0  0  0  0  0  0  0  0  0  0  0  0
   10.3840    0.9230   23.8390 C   0  0  0  0  0  0  0  0  0  0  0  0
    9.5920   -0.1500   24.1550 C   0  0  0  0  0  0  0  0  0  0  0  0
    9.8460    2.3000   24.1440 C   0  0  0  0  0  0  0  0  0  0  0  0
   10.4020    3.2680   23.2730 C   0  0  1  0  0  0  0  0  0  0  0  0
   10.2120    4.9330   23.8740 S   0  0  0  0  0  0  0  0  0  0  0  0
    9.0670    5.5840   22.8430 N   0  0  0  0  0  0  0  0  0  0  0  0
   11.4500    5.6420   23.6490 O   0  0  0  0  0  0  0  0  0  0  0  0
    9.6380    4.8760   25.2000 O   0  0  0  0  0  0  0  0  0  0  0  0
   11.7280    3.0430   22.8460 C   0  0  0  0  0  0  0  0  0  0  0  0
   12.3640    1.7950   22.9570 C   0  0  0  0  0  0  0  0  0  0  0  0
    7.1150   -3.6630   23.1180 C   0  0  0  0  0  0  0  0  0  0  0  0
    5.9690   -3.5140   22.3650 C   0  0  0  0  0  0  0  0  0  0  0  0
  1  2  1  0
  2  3  2  0
  2  4  1  0
  4  5  1  0
  5  6  1  0
  6  7  1  0
  7  8  1  0
  8  9  1  0
  9 10  2  0
 10 11  1  0
 11 12  1  0
 11 13  2  0
 13 14  1  0
  9 15  1  0
 14 15  2  0
 14 16  1  0
 16 17  1  0
 17 18  1  1
 18 19  1  0
 18 20  2  0
 18 21  2  0
 17 22  1  0
 13 23  1  0
 22 23  1  0
  7 24  1  0
  4 25  1  0
 24 25  1  0
M  END
