HEN-UNK-30ca0e4e-1-vinylsulfonamide
     RDKit          3D

 36 39  0  0  0  0  0  0  0  0999 V2000
    7.7180   -3.0810   18.3190 C   0  0  0  0  0  0  0  0  0  0  0  0
    7.3190   -2.3420   19.5330 C   0  0  0  0  0  0  0  0  0  0  0  0
    6.2130   -3.3490   20.4710 S   0  0  0  0  0  0  0  0  0  0  0  0
    4.9400   -3.5020   19.8090 O   0  0  0  0  0  0  0  0  0  0  0  0
    6.8730   -4.5130   21.0150 O   0  0  0  0  0  0  0  0  0  0  0  0
    6.0380   -2.3290   21.7670 N   0  0  0  0  0  0  0  0  0  0  0  0
    5.7550   -3.1050   22.9600 C   0  0  0  0  0  0  0  0  0  0  0  0
    7.0230   -3.7200   23.5350 C   0  0  0  0  0  0  0  0  0  0  0  0
    8.0920   -2.7130   23.6290 N   0  0  0  0  0  0  0  0  0  0  0  0
    9.2810   -3.2340   24.3260 C   0  0  1  0  0  0  0  0  0  0  0  0
    9.9150   -2.2310   25.2310 C   0  0  0  0  0  0  0  0  0  0  0  0
   11.1100   -1.7170   24.9900 C   0  0  0  0  0  0  0  0  0  0  0  0
   11.0990   -1.2570   23.5430 C   0  0  1  0  0  0  0  0  0  0  0  0
   10.4450   -0.0270   23.6700 N   0  0  0  0  0  0  0  0  0  0  0  0
   11.1590    1.1720   23.4010 C   0  0  0  0  0  0  0  0  0  0  0  0
   10.3660    2.4190   23.6670 C   0  0  0  0  0  0  0  0  0  0  0  0
   11.1010    3.7540   23.3740 C   0  0  0  0  0  0  0  0  0  0  0  0
   10.2430    5.2610   23.6730 S   0  0  0  0  0  0  0  0  0  0  0  0
   11.3610    6.4750   23.3650 N   0  0  0  0  0  0  0  0  0  0  0  0
    9.9820    5.3450   25.0870 O   0  0  0  0  0  0  0  0  0  0  0  0
    9.1590    5.3440   22.7350 O   0  0  0  0  0  0  0  0  0  0  0  0
   12.5060    3.5860   22.8540 C   0  0  0  0  0  0  0  0  0  0  0  0
   13.2050    4.7220   22.5660 O   0  0  0  0  0  0  0  0  0  0  0  0
   13.1690    2.3750   22.6430 C   0  0  0  0  0  0  0  0  0  0  0  0
   12.4440    1.1700   22.9420 C   0  0  0  0  0  0  0  0  0  0  0  0
   13.1340   -0.0150   22.7420 C   0  0  0  0  0  0  0  0  0  0  0  0
   12.3800   -1.3250   23.0390 C   0  0  1  0  0  0  0  0  0  0  0  0
   13.3740   -2.4710   24.6250 I   0  0  0  0  0  0  0  0  0  0  0  0
    8.9880   -4.2690   25.3400 C   0  0  0  0  0  0  0  0  0  0  0  0
    9.5600   -5.4950   25.6010 C   0  0  0  0  0  0  0  0  0  0  0  0
    8.9850   -6.1430   26.6470 C   0  0  0  0  0  0  0  0  0  0  0  0
    7.9480   -5.4440   27.2420 C   0  0  0  0  0  0  0  0  0  0  0  0
    6.8790   -5.9890   28.7140 Br  0  0  0  0  0  0  0  0  0  0  0  0
    7.7190   -3.9660   26.4660 S   0  0  0  0  0  0  0  0  0  0  0  0
    8.3250   -2.0230   22.3300 C   0  0  0  0  0  0  0  0  0  0  0  0
    7.1630   -1.3680   21.8770 C   0  0  0  0  0  0  0  0  0  0  0  0
  1  2  1  0
  3  2  1  0
  3  4  2  0
  3  5  2  0
  3  6  1  0
  6  7  1  0
  7  8  1  0
  8  9  1  0
  9 10  1  0
 10 11  1  1
 11 12  1  0
 13 12  1  1
 13 14  1  0
 14 15  1  0
 15 16  2  0
 16 17  1  0
 17 18  1  0
 18 19  1  0
 18 20  2  0
 18 21  2  0
 17 22  2  0
 22 23  1  0
 22 24  1  0
 15 25  1  0
 24 25  2  0
 25 26  1  0
 13 27  1  0
 26 27  1  0
 27 28  1  1
 10 29  1  0
 29 30  2  0
 30 31  1  0
 31 32  2  0
 32 33  1  0
 29 34  1  0
 32 34  1  0
  9 35  1  0
  6 36  1  0
 35 36  1  0
M  END
