HEN-UNK-30ca0e4e-1-vinylsulfonamide
     RDKit          3D

 36 39  0  0  0  0  0  0  0  0999 V2000
    8.0030   -3.3090   19.2290 C   0  0  0  0  0  0  0  0  0  0  0  0
    6.8940   -2.4350   18.6980 C   0  0  0  0  0  0  0  0  0  0  0  0
    5.5720   -2.4100   19.8310 S   0  0  0  0  0  0  0  0  0  0  0  0
    4.9240   -3.6850   19.6620 O   0  0  0  0  0  0  0  0  0  0  0  0
    4.8850   -1.1450   19.7300 O   0  0  0  0  0  0  0  0  0  0  0  0
    6.4110   -2.4230   21.2780 N   0  0  0  0  0  0  0  0  0  0  0  0
    5.9280   -3.2610   22.3670 C   0  0  0  0  0  0  0  0  0  0  0  0
    6.9620   -3.9500   23.0230 C   0  0  0  0  0  0  0  0  0  0  0  0
    8.2550   -3.2000   23.1940 N   0  0  0  0  0  0  0  0  0  0  0  0
    8.5830   -2.9300   24.6100 C   0  0  2  0  0  0  0  0  0  0  0  0
    9.9540   -2.4430   24.7520 C   0  0  0  0  0  0  0  0  0  0  0  0
   10.3190   -1.6400   23.5430 C   0  0  0  0  0  0  0  0  0  0  0  0
   11.6100   -1.0120   23.6900 C   0  0  2  0  0  0  0  0  0  0  0  0
   11.1760    0.2340   24.3210 N   0  0  0  0  0  0  0  0  0  0  0  0
   11.5090    1.4390   23.8150 C   0  0  0  0  0  0  0  0  0  0  0  0
   10.6850    2.6620   24.0430 C   0  0  0  0  0  0  0  0  0  0  0  0
   11.1190    3.9920   23.4790 C   0  0  0  0  0  0  0  0  0  0  0  0
   10.1390    5.3200   23.7910 S   0  0  0  0  0  0  0  0  0  0  0  0
   11.0790    6.6470   23.3530 N   0  0  0  0  0  0  0  0  0  0  0  0
    9.9540    5.4090   25.2170 O   0  0  0  0  0  0  0  0  0  0  0  0
    8.9980    5.2920   22.9120 O   0  0  0  0  0  0  0  0  0  0  0  0
   12.3340    4.0480   22.7220 C   0  0  0  0  0  0  0  0  0  0  0  0
   12.8130    5.2040   22.1740 O   0  0  0  0  0  0  0  0  0  0  0  0
   13.0920    2.7540   22.5420 C   0  0  0  0  0  0  0  0  0  0  0  0
   12.6540    1.5520   23.0740 C   0  0  0  0  0  0  0  0  0  0  0  0
   13.3720    0.2930   22.8810 C   0  0  0  0  0  0  0  0  0  0  0  0
   12.3370   -0.6610   22.5940 C   0  0  1  0  0  0  0  0  0  0  0  0
   13.1640   -2.2560   21.3600 I   0  0  0  0  0  0  0  0  0  0  0  0
    8.4240   -4.0310   25.5820 C   0  0  0  0  0  0  0  0  0  0  0  0
    9.2980   -5.2640   25.5820 C   0  0  0  0  0  0  0  0  0  0  0  0
    8.9110   -6.0860   26.6000 C   0  0  0  0  0  0  0  0  0  0  0  0
    7.7310   -5.5060   27.4030 C   0  0  0  0  0  0  0  0  0  0  0  0
    6.7980   -6.2310   28.8850 Br  0  0  0  0  0  0  0  0  0  0  0  0
    7.2450   -4.0070   26.8130 S   0  0  0  0  0  0  0  0  0  0  0  0
    8.5750   -2.1090   22.2340 C   0  0  0  0  0  0  0  0  0  0  0  0
    7.4160   -1.4280   21.5500 C   0  0  0  0  0  0  0  0  0  0  0  0
  1  2  1  0
  3  2  1  0
  3  4  2  0
  3  5  2  0
  3  6  1  0
  6  7  1  0
  7  8  1  0
  8  9  1  0
  9 10  1  0
 10 11  1  6
 11 12  1  0
 13 12  1  6
 13 14  1  0
 14 15  1  0
 15 16  2  0
 16 17  1  0
 17 18  1  0
 18 19  1  0
 18 20  2  0
 18 21  2  0
 17 22  2  0
 22 23  1  0
 22 24  1  0
 15 25  1  0
 24 25  2  0
 25 26  1  0
 13 27  1  0
 26 27  1  0
 27 28  1  1
 10 29  1  0
 29 30  2  0
 30 31  1  0
 31 32  2  0
 32 33  1  0
 29 34  1  0
 32 34  1  0
  9 35  1  0
  6 36  1  0
 35 36  1  0
M  END
