HOL-KAN-b6135d2e-1
     RDKit          3D

 39 44  0  0  0  0  0  0  0  0999 V2000
    7.1210    1.8480   19.4280 O   0  0  0  0  0  0  0  0  0  0  0  0
    6.3590    1.5460   18.5070 C   0  0  0  0  0  0  0  0  0  0  0  0
    4.9430    1.9670   18.8010 C   0  0  0  0  0  0  0  0  0  0  0  0
    4.1450    2.8010   18.1060 C   0  0  0  0  0  0  0  0  0  0  0  0
    2.9570    2.9190   18.7400 C   0  0  0  0  0  0  0  0  0  0  0  0
    3.5830    2.0500   19.6210 N   0  0  0  0  0  0  0  0  0  0  0  0
    3.8720    2.5580   20.8610 N   0  0  0  0  0  0  0  0  0  0  0  0
    4.4890    1.3880   21.5100 C   0  0  0  0  0  0  0  0  0  0  0  0
    4.9640    1.4090   22.8270 C   0  0  0  0  0  0  0  0  0  0  0  0
    5.5680    0.0790   23.2860 C   0  0  0  0  0  0  0  0  0  0  0  0
    5.6450   -1.1630   22.3800 C   0  0  0  0  0  0  0  0  0  0  0  0
    6.2450   -2.3040   22.9920 O   0  0  0  0  0  0  0  0  0  0  0  0
    5.0880   -1.0590   20.9540 C   0  0  0  0  0  0  0  0  0  0  0  0
    4.5040    0.3240   20.6020 C   0  0  0  0  0  0  0  0  0  0  0  0
    3.9120    0.7180   19.3340 N   0  0  0  0  0  0  0  0  0  0  0  0
    2.1590    2.5770   19.7890 C   0  0  0  0  0  0  0  0  0  0  0  0
    1.0090    2.9060   20.0820 O   0  0  0  0  0  0  0  0  0  0  0  0
    2.8460    1.7020   20.6270 C   0  0  0  0  0  0  0  0  0  0  0  0
    4.3140    1.3830   20.1070 C   0  0  0  0  0  0  0  0  0  0  0  0
    5.0340    0.6360   20.7560 O   0  0  0  0  0  0  0  0  0  0  0  0
    7.0760    0.6950   17.4010 C   0  0  0  0  0  0  0  0  0  0  0  0
    7.9460    1.1540   16.0940 C   0  0  0  0  0  0  0  0  0  0  0  0
    8.7570    0.0420   15.2580 C   0  0  0  0  0  0  0  0  0  0  0  0
    9.7430    0.2950   14.0470 N   0  0  0  0  0  0  0  0  0  0  0  0
    9.9490   -0.4460   13.0530 N   0  0  0  0  0  0  0  0  0  0  0  0
   10.8650   -0.1570   12.0550 C   0  0  0  0  0  0  0  0  0  0  0  0
   11.2330   -0.9280   10.9190 C   0  0  0  0  0  0  0  0  0  0  0  0
   12.1720   -0.4080   10.0610 C   0  0  0  0  0  0  0  0  0  0  0  0
   12.7090    0.7550   10.2720 C   0  0  0  0  0  0  0  0  0  0  0  0
   13.6380    1.2430    9.4210 O   0  0  0  0  0  0  0  0  0  0  0  0
   12.3130    1.5540   11.4420 C   0  0  0  0  0  0  0  0  0  0  0  0
   11.2800    0.8890   12.3680 C   0  0  0  0  0  0  0  0  0  0  0  0
   10.6230    1.1400   13.6000 N   0  0  0  0  0  0  0  0  0  0  0  0
    8.2890   -1.2850   16.0780 C   0  0  0  0  0  0  0  0  0  0  0  0
    8.5610   -2.5590   15.9870 F   0  0  0  0  0  0  0  0  0  0  0  0
    7.4540   -1.4370   17.1650 C   0  0  0  0  0  0  0  0  0  0  0  0
    7.2510   -2.6450   17.5810 F   0  0  0  0  0  0  0  0  0  0  0  0
    6.9060   -0.5420   17.7830 C   0  0  0  0  0  0  0  0  0  0  0  0
    6.1560   -0.8690   18.8700 O   0  0  0  0  0  0  0  0  0  0  0  0
  1  2  2  0
  2  3  1  0
  3  4  2  0
  4  5  1  0
  5  6  1  0
  6  7  1  0
  7  8  2  0
  8  9  1  0
  9 10  2  0
 10 11  1  0
 11 12  1  0
 11 13  2  0
  8 14  1  0
 13 14  1  0
  6 15  1  0
 14 15  2  0
  5 16  2  0
 16 17  1  0
 16 18  1  0
  3 19  1  0
 18 19  2  0
 19 20  1  0
  2 21  1  0
 21 22  2  0
 22 23  1  0
 23 24  1  0
 24 25  1  0
 25 26  2  0
 26 27  1  0
 27 28  2  0
 28 29  1  0
 29 30  1  0
 29 31  2  0
 26 32  1  0
 31 32  1  0
 24 33  1  0
 32 33  2  0
 23 34  2  0
 34 35  1  0
 34 36  1  0
 36 37  1  0
 21 38  1  0
 36 38  2  0
 38 39  1  0
M  END
