HOL-KAN-bccba850-2
     RDKit          3D

 27 30  0  0  0  0  0  0  0  0999 V2000
    4.9500   -2.1090   22.1880 C   0  0  0  0  0  0  0  0  0  0  0  0
    6.2610   -2.7020   21.8170 C   0  0  1  0  0  0  0  0  0  0  0  0
    6.9400   -3.0200   23.0680 C   0  0  0  0  0  0  0  0  0  0  0  0
    6.1970   -4.2580   22.9400 C   0  0  0  0  0  0  0  0  0  0  0  0
    6.1770   -5.4270   23.6290 C   0  0  0  0  0  0  0  0  0  0  0  0
    6.3460   -4.8510   24.6980 O   0  0  0  0  0  0  0  0  0  0  0  0
    5.9940   -5.4090   22.2110 C   0  0  0  0  0  0  0  0  0  0  0  0
    6.0340   -4.1030   21.3970 C   0  0  0  0  0  0  0  0  0  0  0  0
    5.8870   -4.1410   20.0580 C   0  0  0  0  0  0  0  0  0  0  0  0
    5.4660   -2.9810   19.2770 C   0  0  0  0  0  0  0  0  0  0  0  0
    6.3720   -1.8120   19.5190 C   0  0  2  0  0  0  0  0  0  0  0  0
    7.3020   -1.8340   18.3880 N   0  0  0  0  0  0  0  0  0  0  0  0
    7.0540   -1.8410   20.6990 C   0  0  1  0  0  0  0  0  0  0  0  0
    7.4330   -0.6030   21.2070 C   0  0  2  0  0  0  0  0  0  0  0  0
    8.2800   -0.9610   22.2200 O   0  0  0  0  0  0  0  0  0  0  0  0
    6.3580    0.2020   21.5560 C   0  0  0  0  0  0  0  0  0  0  0  0
    5.4590    0.4490   20.5040 C   0  0  2  0  0  0  0  0  0  0  0  0
    4.1370    0.3170   20.8950 C   0  0  0  0  0  0  0  0  0  0  0  0
    5.7080   -0.5720   19.3450 C   0  0  1  0  0  0  0  0  0  0  0  0
    6.0510    0.1660   18.2520 C   0  0  0  0  0  0  0  0  0  0  0  0
    5.9870    1.4720   18.5060 C   0  0  0  0  0  0  0  0  0  0  0  0
    5.6360    1.6630   19.8230 C   0  0  2  0  0  0  0  0  0  0  0  0
    6.8000    2.2160   20.4610 O   0  0  0  0  0  0  0  0  0  0  0  0
    4.5600    2.5250   20.0600 C   0  0  0  0  0  0  0  0  0  0  0  0
    4.5160    3.1790   21.1180 O   0  0  0  0  0  0  0  0  0  0  0  0
    3.5320    2.6500   19.1290 C   0  0  0  0  0  0  0  0  0  0  0  0
    2.4950    3.4660   19.6640 O   0  0  0  0  0  0  0  0  0  0  0  0
  2  1  1  1
  2  3  1  0
  3  4  2  0
  4  5  1  0
  5  6  2  0
  5  7  1  0
  2  8  1  0
  7  8  2  0
  8  9  1  0
  9 10  1  0
 10 11  1  0
 11 12  1  6
  2 13  1  0
 11 13  1  0
 13 14  1  1
 14 15  1  1
 14 16  1  0
 16 17  1  0
 17 18  1  1
 11 19  1  0
 17 19  1  0
 19 20  1  6
 20 21  1  0
 17 22  1  0
 21 22  1  0
 22 23  1  1
 22 24  1  0
 24 25  2  0
 24 26  1  0
 26 27  1  0
M  END
