HOL-KAN-545e4d08-1
     RDKit          3D

 38 43  0  0  0  0  0  0  0  0999 V2000
    6.9040   -0.3540   19.8340 O   0  0  0  0  0  0  0  0  0  0  0  0
    6.2100   -0.2950   18.8190 C   0  0  0  0  0  0  0  0  0  0  0  0
    5.1550    0.7350   18.9350 C   0  0  0  0  0  0  0  0  0  0  0  0
    5.1930    1.8440   17.8410 C   0  0  0  0  0  0  0  0  0  0  0  0
    4.0100    2.7350   18.3630 C   0  0  0  0  0  0  0  0  0  0  0  0
    3.7490    3.9270   17.6170 N   0  0  0  0  0  0  0  0  0  0  0  0
    3.9130    3.9660   16.2620 N   0  0  0  0  0  0  0  0  0  0  0  0
    3.6050    5.2110   15.8720 C   0  0  0  0  0  0  0  0  0  0  0  0
    3.5990    5.8560   14.4930 C   0  0  0  0  0  0  0  0  0  0  0  0
    3.1750    7.3570   14.4820 C   0  0  0  0  0  0  0  0  0  0  0  0
    2.7980    8.0710   15.8400 C   0  0  0  0  0  0  0  0  0  0  0  0
    2.4230    9.3930   15.8450 O   0  0  0  0  0  0  0  0  0  0  0  0
    2.8240    7.4120   17.0730 C   0  0  0  0  0  0  0  0  0  0  0  0
    3.2440    5.9430   17.0410 C   0  0  0  0  0  0  0  0  0  0  0  0
    3.3370    5.0760   18.2220 N   0  0  0  0  0  0  0  0  0  0  0  0
    3.1670    2.5470   19.4590 C   0  0  0  0  0  0  0  0  0  0  0  0
    2.1540    3.4020   19.7980 O   0  0  0  0  0  0  0  0  0  0  0  0
    3.3260    1.3880   20.3440 C   0  0  0  0  0  0  0  0  0  0  0  0
    4.3320    0.5370   20.0340 C   0  0  0  0  0  0  0  0  0  0  0  0
    4.5300   -0.5400   20.8530 O   0  0  0  0  0  0  0  0  0  0  0  0
    6.6600   -1.2950   17.7930 C   0  0  0  0  0  0  0  0  0  0  0  0
    6.2470   -1.5760   16.5010 C   0  0  0  0  0  0  0  0  0  0  0  0
    6.7790   -2.5860   15.5880 C   0  0  0  0  0  0  0  0  0  0  0  0
    6.2740   -2.8280   14.1800 N   0  0  0  0  0  0  0  0  0  0  0  0
    6.4800   -3.1780   13.0320 N   0  0  0  0  0  0  0  0  0  0  0  0
    5.5470   -2.9530   12.0480 C   0  0  0  0  0  0  0  0  0  0  0  0
    5.3670   -3.0320   10.7170 C   0  0  0  0  0  0  0  0  0  0  0  0
    4.2420   -2.5540   10.3730 C   0  0  0  0  0  0  0  0  0  0  0  0
    3.3570   -2.1670   11.2470 C   0  0  0  0  0  0  0  0  0  0  0  0
    2.2090   -1.6360   10.8760 O   0  0  0  0  0  0  0  0  0  0  0  0
    3.5070   -2.2470   12.4320 C   0  0  0  0  0  0  0  0  0  0  0  0
    4.7060   -2.6000   12.7200 C   0  0  0  0  0  0  0  0  0  0  0  0
    5.2860   -2.6170   13.8000 N   0  0  0  0  0  0  0  0  0  0  0  0
    7.7810   -3.2340   16.2140 C   0  0  0  0  0  0  0  0  0  0  0  0
    8.4580   -4.2130   15.6610 O   0  0  0  0  0  0  0  0  0  0  0  0
    8.1970   -2.9680   17.4980 C   0  0  0  0  0  0  0  0  0  0  0  0
    7.6380   -2.0180   18.2780 C   0  0  0  0  0  0  0  0  0  0  0  0
    8.0850   -1.8160   19.5620 O   0  0  0  0  0  0  0  0  0  0  0  0
  1  2  2  0
  2  3  1  0
  3  4  2  0
  4  5  1  0
  5  6  1  0
  6  7  1  0
  7  8  2  0
  8  9  1  0
  9 10  2  0
 10 11  1  0
 11 12  1  0
 11 13  2  0
  8 14  1  0
 13 14  1  0
  6 15  1  0
 14 15  2  0
  5 16  2  0
 16 17  1  0
 16 18  1  0
  3 19  1  0
 18 19  2  0
 19 20  1  0
  2 21  1  0
 21 22  2  0
 22 23  1  0
 23 24  1  0
 24 25  1  0
 25 26  2  0
 26 27  1  0
 27 28  2  0
 28 29  1  0
 29 30  1  0
 29 31  2  0
 26 32  1  0
 31 32  1  0
 24 33  1  0
 32 33  2  0
 23 34  2  0
 34 35  1  0
 34 36  1  0
 21 37  1  0
 36 37  2  0
 37 38  1  0
M  END
