HOL-KAN-b6135d2e-3
     RDKit          3D

 39 44  0  0  0  0  0  0  0  0999 V2000
    1.7620    3.5150   20.7090 O   0  0  0  0  0  0  0  0  0  0  0  0
    2.9630    3.3400   20.4880 C   0  0  0  0  0  0  0  0  0  0  0  0
    3.9540    2.5950   21.3580 C   0  0  0  0  0  0  0  0  0  0  0  0
    4.3550    1.9230   20.1520 C   0  0  0  0  0  0  0  0  0  0  0  0
    5.4180    0.8400   19.9010 C   0  0  0  0  0  0  0  0  0  0  0  0
    4.6360    1.3150   18.7820 O   0  0  0  0  0  0  0  0  0  0  0  0
    6.1160    0.4930   21.2140 C   0  0  0  0  0  0  0  0  0  0  0  0
    7.1440   -0.4820   21.3470 C   0  0  0  0  0  0  0  0  0  0  0  0
    6.8980   -1.6400   21.0640 O   0  0  0  0  0  0  0  0  0  0  0  0
    8.5010   -0.0160   21.8730 C   0  0  0  0  0  0  0  0  0  0  0  0
    8.6080    1.4410   22.2610 C   0  0  0  0  0  0  0  0  0  0  0  0
    9.9340    1.9180   22.7950 C   0  0  0  0  0  0  0  0  0  0  0  0
    9.9950    3.2570   23.1480 N   0  0  0  0  0  0  0  0  0  0  0  0
    8.9650    4.1120   22.9110 N   0  0  0  0  0  0  0  0  0  0  0  0
    9.4790    5.3720   23.4540 C   0  0  0  0  0  0  0  0  0  0  0  0
    8.8520    6.7490   23.5300 C   0  0  0  0  0  0  0  0  0  0  0  0
    9.6310    7.7450   24.1300 C   0  0  0  0  0  0  0  0  0  0  0  0
   11.0420    7.4720   24.6790 C   0  0  0  0  0  0  0  0  0  0  0  0
   11.7600    8.3090   25.2110 O   0  0  0  0  0  0  0  0  0  0  0  0
   11.6460    6.1350   24.5980 C   0  0  0  0  0  0  0  0  0  0  0  0
   10.7220    5.1070   23.9300 C   0  0  0  0  0  0  0  0  0  0  0  0
   11.0930    3.7740   23.7540 N   0  0  0  0  0  0  0  0  0  0  0  0
   11.0720    0.8010   22.8800 C   0  0  0  0  0  0  0  0  0  0  0  0
   12.3230    1.0690   23.3490 O   0  0  0  0  0  0  0  0  0  0  0  0
   10.8350   -0.5610   22.4690 C   0  0  0  0  0  0  0  0  0  0  0  0
    9.5810   -0.9120   21.9890 C   0  0  0  0  0  0  0  0  0  0  0  0
    9.4870   -2.2260   21.6350 O   0  0  0  0  0  0  0  0  0  0  0  0
    5.6240    1.2060   22.2110 C   0  0  0  0  0  0  0  0  0  0  0  0
    4.8800    1.7310   21.3780 C   0  0  0  0  0  0  0  0  0  0  0  0
    5.3820    1.0530   20.2590 N   0  0  0  0  0  0  0  0  0  0  0  0
    5.2250   -0.3050   20.0960 N   0  0  0  0  0  0  0  0  0  0  0  0
    5.9560   -0.4640   18.8600 C   0  0  0  0  0  0  0  0  0  0  0  0
    6.1570   -1.8060   18.1670 C   0  0  0  0  0  0  0  0  0  0  0  0
    6.8690   -1.7380   17.0290 C   0  0  0  0  0  0  0  0  0  0  0  0
    7.2960   -0.4390   16.6600 C   0  0  0  0  0  0  0  0  0  0  0  0
    7.7960   -1.1450   15.6430 O   0  0  0  0  0  0  0  0  0  0  0  0
    7.1760    0.7630   17.1730 C   0  0  0  0  0  0  0  0  0  0  0  0
    6.4560    0.7460   18.3740 C   0  0  0  0  0  0  0  0  0  0  0  0
    6.0970    1.7050   19.2570 N   0  0  0  0  0  0  0  0  0  0  0  0
  1  2  2  0
  2  3  1  0
  3  4  2  0
  4  5  1  0
  5  6  1  0
  5  7  2  0
  7  8  1  0
  8  9  2  0
  8 10  1  0
 10 11  2  0
 11 12  1  0
 12 13  1  0
 13 14  1  0
 14 15  2  0
 15 16  1  0
 16 17  2  0
 17 18  1  0
 18 19  1  0
 18 20  2  0
 15 21  1  0
 20 21  1  0
 13 22  1  0
 21 22  2  0
 12 23  2  0
 23 24  1  0
 23 25  1  0
 10 26  1  0
 25 26  2  0
 26 27  1  0
  7 28  1  0
  3 29  1  0
 28 29  2  0
 29 30  1  0
 30 31  1  0
 31 32  2  0
 32 33  1  0
 33 34  2  0
 34 35  1  0
 35 36  1  0
 35 37  2  0
 32 38  1  0
 37 38  1  0
 30 39  1  0
 38 39  2  0
M  END
