HUB-UNK-9845d277-14
     RDKit          3D

 24 26  0  0  0  0  0  0  0  0999 V2000
    9.0120    1.8300   21.1700 O   0  0  0  0  0  0  0  0  0  0  0  0
    8.6170    0.8710   21.8450 C   0  0  0  0  0  0  0  0  0  0  0  0
    7.5190    0.0160   21.4150 N   0  0  0  0  0  0  0  0  0  0  0  0
    6.7960    0.3590   20.2040 C   0  0  0  0  0  0  0  0  0  0  0  0
    5.6470    1.3170   20.4940 C   0  0  0  0  0  0  0  0  0  0  0  0
    4.8480    1.7320   19.2740 C   0  0  0  0  0  0  0  0  0  0  0  0
    5.3290    1.1330   18.0100 C   0  0  0  0  0  0  0  0  0  0  0  0
    6.3680    0.2700   17.7950 N   0  0  0  0  0  0  0  0  0  0  0  0
    7.0690   -0.0930   18.9100 C   0  0  0  0  0  0  0  0  0  0  0  0
    9.1380    0.4960   23.0700 N   0  0  0  0  0  0  0  0  0  0  0  0
   10.3430    0.0250   23.2140 C   0  0  0  0  0  0  0  0  0  0  0  0
   11.3980    0.8810   23.2890 C   0  0  0  0  0  0  0  0  0  0  0  0
   12.7920    0.4860   23.4460 C   0  0  0  0  0  0  0  0  0  0  0  0
   13.0880   -0.9800   23.5510 C   0  0  0  0  0  0  0  0  0  0  0  0
   11.8730   -1.8850   23.4670 C   0  0  0  0  0  0  0  0  0  0  0  0
   12.1420   -3.1550   23.5740 F   0  0  0  0  0  0  0  0  0  0  0  0
   10.5630   -1.3470   23.2940 C   0  0  0  0  0  0  0  0  0  0  0  0
    9.3690   -2.0880   23.1980 C   0  0  0  0  0  0  0  0  0  0  0  0
    8.6150   -1.9710   22.0240 C   0  0  0  0  0  0  0  0  0  0  0  0
    7.3700   -2.6400   21.9090 C   0  0  0  0  0  0  0  0  0  0  0  0
    6.8360   -3.2530   23.0220 C   0  0  0  0  0  0  0  0  0  0  0  0
    7.5300   -3.1830   24.1940 C   0  0  0  0  0  0  0  0  0  0  0  0
    6.8960   -3.3890   25.2230 O   0  0  0  0  0  0  0  0  0  0  0  0
    8.8460   -2.8760   24.1630 N   0  0  0  0  0  0  0  0  0  0  0  0
  1  2  2  0
  2  3  1  0
  3  4  1  0
  4  5  2  0
  5  6  1  0
  6  7  2  0
  7  8  1  0
  4  9  1  0
  8  9  2  0
  2 10  1  0
 10 11  1  0
 11 12  2  0
 12 13  1  0
 13 14  2  0
 14 15  1  0
 15 16  1  0
 11 17  1  0
 15 17  2  0
 17 18  1  0
 18 19  2  0
 19 20  1  0
 20 21  2  0
 21 22  1  0
 22 23  2  0
 18 24  1  0
 22 24  1  0
M  END
