HUB-UNK-9845d277-8
     RDKit          3D

 41 44  0  0  0  0  0  0  0  0999 V2000
    6.8630   -1.5870   18.1250 C   0  0  0  0  0  0  0  0  0  0  0  0
    6.5550   -1.5730   19.5690 C   0  0  0  0  0  0  0  0  0  0  0  0
    7.3410   -0.5280   20.3730 C   0  0  0  0  0  0  0  0  0  0  0  0
    5.0830   -1.2810   19.6410 C   0  0  0  0  0  0  0  0  0  0  0  0
    6.7530   -2.6070   20.1920 O   0  0  0  0  0  0  0  0  0  0  0  0
    5.7320   -3.3940   20.6210 C   0  0  0  0  0  0  0  0  0  0  0  0
    5.0960   -4.3920   19.8290 O   0  0  0  0  0  0  0  0  0  0  0  0
    5.3770   -3.1550   21.9030 N   0  0  0  0  0  0  0  0  0  0  0  0
    6.4180   -2.5460   22.4280 C   0  0  0  0  0  0  0  0  0  0  0  0
    6.4630   -1.3080   23.0450 C   0  0  0  0  0  0  0  0  0  0  0  0
    7.6790   -0.7540   23.4010 C   0  0  0  0  0  0  0  0  0  0  0  0
    8.9170   -1.4690   22.9660 C   0  0  0  0  0  0  0  0  0  0  0  0
   10.2060   -0.7370   23.1780 C   0  0  0  0  0  0  0  0  0  0  0  0
   11.5290   -1.4830   23.2730 C   0  0  0  0  0  0  0  0  0  0  0  0
   12.6410   -0.6400   23.4120 C   0  0  0  0  0  0  0  0  0  0  0  0
   12.4890    0.7580   23.4550 C   0  0  0  0  0  0  0  0  0  0  0  0
   11.2480    1.3910   23.3770 C   0  0  0  0  0  0  0  0  0  0  0  0
   11.1170    2.7880   23.4250 C   0  0  0  0  0  0  0  0  0  0  0  0
    9.9680    3.2340   22.7440 C   0  0  0  0  0  0  0  0  0  0  0  0
    9.1950    2.4640   22.1830 O   0  0  0  0  0  0  0  0  0  0  0  0
    9.6640    4.5740   22.6400 N   0  0  0  0  0  0  0  0  0  0  0  0
    8.9370    5.5710   23.4530 C   0  0  1  0  0  0  0  0  0  0  0  0
    7.5100    5.0550   23.6810 C   0  0  0  0  0  0  0  0  0  0  0  0
    6.6720    6.0750   22.9050 C   0  0  2  0  0  0  0  0  0  0  0  0
    7.2320    6.3540   21.7050 C   0  0  0  0  0  0  0  0  0  0  0  0
    6.4510    7.5600   21.2230 C   0  0  0  0  0  0  0  0  0  0  0  0
    6.2400    8.3010   22.4310 N   0  0  0  0  0  0  0  0  0  0  0  0
    6.5330    7.4620   23.5120 C   0  0  0  0  0  0  0  0  0  0  0  0
    6.6420    7.7960   24.6880 O   0  0  0  0  0  0  0  0  0  0  0  0
    9.7090    5.9430   24.5720 C   0  0  0  0  0  0  0  0  0  0  0  0
    9.3040    5.9840   25.7350 O   0  0  0  0  0  0  0  0  0  0  0  0
   11.1660    6.3360   24.3340 C   0  0  0  0  0  0  0  0  0  0  0  0
   11.8980    6.5530   25.2890 O   0  0  0  0  0  0  0  0  0  0  0  0
   11.5210    6.4210   23.0040 N   0  0  0  0  0  0  0  0  0  0  0  0
   12.0380    5.3160   22.2660 C   0  0  0  0  0  0  0  0  0  0  0  0
   13.0840    5.5030   21.1810 C   0  0  0  0  0  0  0  0  0  0  0  0
   13.4460    4.8350   22.4790 C   0  0  0  0  0  0  0  0  0  0  0  0
   10.1250    0.6250   23.2420 C   0  0  0  0  0  0  0  0  0  0  0  0
    8.8770   -2.6320   22.3380 N   0  0  0  0  0  0  0  0  0  0  0  0
    7.6950   -3.3260   22.2680 C   0  0  0  0  0  0  0  0  0  0  0  0
    7.6320   -4.5420   22.0910 O   0  0  0  0  0  0  0  0  0  0  0  0
  1  2  1  0
  2  3  1  0
  2  4  1  0
  2  5  1  0
  5  6  1  0
  6  7  2  0
  6  8  1  0
  8  9  1  0
  9 10  2  0
 10 11  1  0
 11 12  2  0
 12 13  1  0
 13 14  2  0
 14 15  1  0
 15 16  2  0
 16 17  1  0
 17 18  1  0
 18 19  1  0
 19 20  2  0
 19 21  1  0
 21 22  1  0
 22 23  1  1
 24 23  1  1
 24 25  1  0
 25 26  1  0
 26 27  1  0
 24 28  1  0
 27 28  1  0
 28 29  2  0
 22 30  1  0
 30 31  2  0
 30 32  1  0
 32 33  2  0
 32 34  1  0
 34 35  1  0
 35 36  1  0
 35 37  1  0
 36 37  1  0
 13 38  1  0
 17 38  2  0
 12 39  1  0
  9 40  1  0
 39 40  1  0
 40 41  2  0
M  END
