HUB-UNK-9845d277-13
     RDKit          3D

 26 28  0  0  0  0  0  0  0  0999 V2000
    7.8930    0.8110   27.2760 O   0  0  0  0  0  0  0  0  0  0  0  0
    8.2800    1.2010   26.1680 C   0  0  0  0  0  0  0  0  0  0  0  0
    7.8730    2.5440   25.6460 C   0  0  0  0  0  0  0  0  0  0  0  0
    8.4220    3.1930   24.3790 C   0  0  0  0  0  0  0  0  0  0  0  0
    9.4740    2.3540   23.6370 C   0  0  0  0  0  0  0  0  0  0  0  0
    9.7390    0.9810   24.1970 C   0  0  0  0  0  0  0  0  0  0  0  0
   10.6890    0.1590   23.5990 C   0  0  0  0  0  0  0  0  0  0  0  0
   11.9610    0.6790   23.3920 C   0  0  0  0  0  0  0  0  0  0  0  0
   12.1930    1.9220   23.7570 F   0  0  0  0  0  0  0  0  0  0  0  0
   12.9950   -0.0610   22.8040 C   0  0  0  0  0  0  0  0  0  0  0  0
   12.8290   -1.4730   22.3330 C   0  0  0  0  0  0  0  0  0  0  0  0
   11.4390   -2.0690   22.5350 C   0  0  0  0  0  0  0  0  0  0  0  0
   10.4010   -1.1630   23.1970 C   0  0  0  0  0  0  0  0  0  0  0  0
    9.1670   -1.7960   23.3400 C   0  0  0  0  0  0  0  0  0  0  0  0
    9.2060   -2.8380   24.2660 C   0  0  0  0  0  0  0  0  0  0  0  0
    8.1200   -3.6170   24.6240 N   0  0  0  0  0  0  0  0  0  0  0  0
    8.0100   -4.3450   26.1260 S   0  0  0  0  0  0  0  0  0  0  0  0
    8.2820   -3.3190   27.1000 O   0  0  0  0  0  0  0  0  0  0  0  0
    8.7670   -5.5700   26.0790 O   0  0  0  0  0  0  0  0  0  0  0  0
    6.2700   -4.7210   26.2270 C   0  0  0  0  0  0  0  0  0  0  0  0
    5.3180   -3.6980   26.0580 C   0  0  0  0  0  0  0  0  0  0  0  0
    3.9410   -3.9580   26.1290 C   0  0  0  0  0  0  0  0  0  0  0  0
    3.4070   -5.2180   26.3670 C   0  0  0  0  0  0  0  0  0  0  0  0
    4.3780   -6.3780   26.5630 C   0  0  0  0  0  0  0  0  0  0  0  0
    5.8450   -6.0250   26.4730 C   0  0  0  0  0  0  0  0  0  0  0  0
    9.1130    0.4420   25.3040 N   0  0  0  0  0  0  0  0  0  0  0  0
  1  2  2  0
  2  3  1  0
  3  4  2  0
  4  5  1  0
  5  6  2  0
  6  7  1  0
  7  8  2  0
  8  9  1  0
  8 10  1  0
 10 11  2  0
 11 12  1  0
  7 13  1  0
 12 13  2  0
 13 14  1  0
 14 15  1  0
 15 16  1  0
 17 16  1  0
 17 18  2  0
 17 19  2  0
 17 20  1  0
 20 21  2  0
 21 22  1  0
 22 23  2  0
 23 24  1  0
 20 25  1  0
 24 25  2  0
  2 26  1  0
  6 26  1  0
M  END
