HUB-UNK-9845d277-4
     RDKit          3D

 31 33  0  0  0  0  0  0  0  0999 V2000
    5.3280   -1.9260   19.1590 C   0  0  0  0  0  0  0  0  0  0  0  0
    5.8640   -1.5960   20.5210 C   0  0  0  0  0  0  0  0  0  0  0  0
    4.9810   -0.6410   21.3240 C   0  0  0  0  0  0  0  0  0  0  0  0
    7.2060   -0.9020   20.2750 C   0  0  0  0  0  0  0  0  0  0  0  0
    6.0580   -2.5340   21.3150 O   0  0  0  0  0  0  0  0  0  0  0  0
    5.2300   -2.9310   22.3270 C   0  0  0  0  0  0  0  0  0  0  0  0
    4.1100   -3.8000   22.2060 O   0  0  0  0  0  0  0  0  0  0  0  0
    5.5640   -2.4370   23.5270 N   0  0  0  0  0  0  0  0  0  0  0  0
    6.7070   -1.7460   23.4880 C   0  0  0  0  0  0  0  0  0  0  0  0
    6.8080   -0.4140   23.8610 C   0  0  0  0  0  0  0  0  0  0  0  0
    7.9890    0.2950   23.7750 C   0  0  0  0  0  0  0  0  0  0  0  0
    9.2120   -0.3920   23.2740 C   0  0  0  0  0  0  0  0  0  0  0  0
   10.4510    0.5040   23.1700 C   0  0  0  0  0  0  0  0  0  0  0  0
   10.1080    1.9910   23.2660 C   0  0  0  0  0  0  0  0  0  0  0  0
   11.1760    2.8770   23.1700 C   0  0  0  0  0  0  0  0  0  0  0  0
   12.4740    2.4170   22.9960 C   0  0  0  0  0  0  0  0  0  0  0  0
   12.7820    1.0610   22.9130 C   0  0  0  0  0  0  0  0  0  0  0  0
   11.7760    0.0930   22.9980 C   0  0  0  0  0  0  0  0  0  0  0  0
   12.1120   -1.2760   22.8990 N   0  0  0  0  0  0  0  0  0  0  0  0
   13.0580   -1.7780   22.0250 C   0  0  0  0  0  0  0  0  0  0  0  0
   13.5990   -1.1430   21.1440 O   0  0  0  0  0  0  0  0  0  0  0  0
   13.3620   -3.1770   22.2590 N   0  0  0  0  0  0  0  0  0  0  0  0
   13.7690   -3.9880   21.2120 C   0  0  0  0  0  0  0  0  0  0  0  0
   15.0710   -4.8960   21.1420 C   0  0  0  0  0  0  0  0  0  0  0  0
   15.4080   -5.6260   19.9990 C   0  0  0  0  0  0  0  0  0  0  0  0
   14.5820   -5.5000   19.1590 C   0  0  0  0  0  0  0  0  0  0  0  0
   13.3540   -4.7340   19.1900 N   0  0  0  0  0  0  0  0  0  0  0  0
   13.0110   -4.0170   20.1780 C   0  0  0  0  0  0  0  0  0  0  0  0
    9.1680   -1.6970   22.9330 N   0  0  0  0  0  0  0  0  0  0  0  0
    7.9830   -2.4440   22.9870 C   0  0  0  0  0  0  0  0  0  0  0  0
    7.9610   -3.6270   22.6430 O   0  0  0  0  0  0  0  0  0  0  0  0
  1  2  1  0
  2  3  1  0
  2  4  1  0
  2  5  1  0
  5  6  1  0
  6  7  2  0
  6  8  1  0
  8  9  1  0
  9 10  2  0
 10 11  1  0
 11 12  2  0
 12 13  1  0
 13 14  2  0
 14 15  1  0
 15 16  2  0
 16 17  1  0
 13 18  1  0
 17 18  2  0
 18 19  1  0
 19 20  1  0
 20 21  2  0
 20 22  1  0
 22 23  1  0
 23 24  2  0
 24 25  1  0
 25 26  2  0
 26 27  1  0
 23 28  1  0
 27 28  2  0
 12 29  1  0
  9 30  1  0
 29 30  1  0
 30 31  2  0
M  END
