IAN-BAS-a0d88a3d-1
     RDKit          3D

 29 33  0  0  0  0  0  0  0  0999 V2000
    9.3580   -1.0170   20.8800 O   0  0  0  0  0  0  0  0  0  0  0  0
    8.7730   -0.3890   21.6610 C   0  0  0  0  0  0  0  0  0  0  0  0
    7.3610   -0.3880   21.6210 N   0  0  0  0  0  0  0  0  0  0  0  0
    6.6900    0.0990   20.4620 C   0  0  0  0  0  0  0  0  0  0  0  0
    5.5730    0.9410   20.6290 C   0  0  0  0  0  0  0  0  0  0  0  0
    4.8860    1.4520   19.5080 C   0  0  0  0  0  0  0  0  0  0  0  0
    5.3060    1.1280   18.2150 C   0  0  0  0  0  0  0  0  0  0  0  0
    6.3580    0.3310   17.9580 N   0  0  0  0  0  0  0  0  0  0  0  0
    7.0870   -0.2180   19.1460 C   0  0  0  0  0  0  0  0  0  0  0  0
    6.9460   -1.7240   22.0620 C   0  0  0  0  0  0  0  0  0  0  0  0
    8.1270   -2.6690   22.1690 C   0  0  0  0  0  0  0  0  0  0  0  0
    7.4860   -3.9040   22.6010 N   0  0  0  0  0  0  0  0  0  0  0  0
    6.1820   -3.5690   22.6940 C   0  0  0  0  0  0  0  0  0  0  0  0
    5.1380   -4.5690   23.1380 C   0  0  0  0  0  0  0  0  0  0  0  0
    5.7750   -5.9360   23.1400 C   0  0  0  0  0  0  0  0  0  0  0  0
    4.9740   -7.0330   23.5470 C   0  0  0  0  0  0  0  0  0  0  0  0
    3.5360   -6.8130   23.9600 C   0  0  0  0  0  0  0  0  0  0  0  0
    2.9010   -8.0630   24.3530 N   0  0  0  0  0  0  0  0  0  0  0  0
    1.5000   -8.0370   24.7750 C   0  0  0  0  0  0  0  0  0  0  0  0
    0.7750   -6.6860   24.7850 C   0  0  0  0  0  0  0  0  0  0  0  0
    1.4760   -5.3940   24.3720 C   0  0  0  0  0  0  0  0  0  0  0  0
    2.9400   -5.5570   23.9500 C   0  0  0  0  0  0  0  0  0  0  0  0
    3.7860   -4.3750   23.5160 C   0  0  0  0  0  0  0  0  0  0  0  0
    5.7820   -2.3210   22.3950 N   0  0  0  0  0  0  0  0  0  0  0  0
    9.5850    0.3220   22.5840 N   0  0  0  0  0  0  0  0  0  0  0  0
   10.6940   -0.0360   22.7680 C   0  0  0  0  0  0  0  0  0  0  0  0
   10.5370   -1.0700   21.8910 C   0  0  0  0  0  0  0  0  0  0  0  0
   11.6030   -0.8220   22.5220 N   0  0  0  0  0  0  0  0  0  0  0  0
   10.9810    0.4180   23.2470 C   0  0  0  0  0  0  0  0  0  0  0  0
  1  2  2  0
  2  3  1  0
  3  4  1  0
  4  5  2  0
  5  6  1  0
  6  7  2  0
  7  8  1  0
  4  9  1  0
  8  9  2  0
  3 10  1  0
 10 11  2  0
 11 12  1  0
 12 13  2  0
 13 14  1  0
 14 15  2  0
 15 16  1  0
 16 17  2  0
 17 18  1  0
 18 19  2  0
 19 20  1  0
 20 21  2  0
 17 22  1  0
 21 22  1  0
 14 23  1  0
 22 23  2  0
 10 24  1  0
 13 24  1  0
  2 25  1  0
 25 26  1  0
 26 27  2  0
 27 28  1  0
 25 29  1  0
 28 29  2  0
M  END
