IAN-BAS-a5a0ad12-1
     RDKit          3D

 26 29  0  0  0  0  0  0  0  0999 V2000
    8.8270   -1.0350   20.7160 O   0  0  0  0  0  0  0  0  0  0  0  0
    8.6890   -0.2570   21.5970 C   0  0  0  0  0  0  0  0  0  0  0  0
    9.8700    0.0660   22.4920 C   0  0  0  0  0  0  0  0  0  0  0  0
   11.0760   -0.8480   22.7370 C   0  0  0  0  0  0  0  0  0  0  0  0
   11.8880   -0.1740   23.5890 O   0  0  0  0  0  0  0  0  0  0  0  0
   11.2620    1.0120   23.8240 C   0  0  0  0  0  0  0  0  0  0  0  0
   10.0670    1.2120   23.2050 N   0  0  0  0  0  0  0  0  0  0  0  0
    7.4540    0.3200   21.7620 N   0  0  0  0  0  0  0  0  0  0  0  0
    6.7050    0.5760   20.5010 C   0  0  0  0  0  0  0  0  0  0  0  0
    5.4790    1.4860   20.6090 C   0  0  0  0  0  0  0  0  0  0  0  0
    4.6760    1.7900   19.2920 C   0  0  0  0  0  0  0  0  0  0  0  0
    5.1670    1.1650   17.9990 C   0  0  0  0  0  0  0  0  0  0  0  0
    6.3200    0.2920   17.8730 N   0  0  0  0  0  0  0  0  0  0  0  0
    7.0300    0.0280   19.0990 C   0  0  0  0  0  0  0  0  0  0  0  0
    6.6650   -0.2840   22.8520 C   0  0  0  0  0  0  0  0  0  0  0  0
    5.8580    0.3030   23.7180 N   0  0  0  0  0  0  0  0  0  0  0  0
    5.3190   -0.7400   24.5820 C   0  0  0  0  0  0  0  0  0  0  0  0
    5.8020   -2.0080   24.2470 C   0  0  0  0  0  0  0  0  0  0  0  0
    5.6750   -3.2720   24.6400 O   0  0  0  0  0  0  0  0  0  0  0  0
    5.7310   -4.1550   23.5980 C   0  0  0  0  0  0  0  0  0  0  0  0
    6.1270   -5.4910   23.7720 C   0  0  0  0  0  0  0  0  0  0  0  0
    6.1730   -6.3680   22.6750 C   0  0  0  0  0  0  0  0  0  0  0  0
    5.8270   -5.8960   21.4210 C   0  0  0  0  0  0  0  0  0  0  0  0
    5.4080   -4.4590   21.2410 C   0  0  0  0  0  0  0  0  0  0  0  0
    5.3650   -3.6170   22.3360 C   0  0  0  0  0  0  0  0  0  0  0  0
    6.6600   -1.7440   23.1550 N   0  0  0  0  0  0  0  0  0  0  0  0
  1  2  2  0
  2  3  1  0
  3  4  2  0
  4  5  1  0
  5  6  1  0
  3  7  1  0
  6  7  2  0
  2  8  1  0
  8  9  1  0
  9 10  2  0
 10 11  1  0
 11 12  2  0
 12 13  1  0
  9 14  1  0
 13 14  2  0
  8 15  1  0
 15 16  2  0
 16 17  1  0
 17 18  2  0
 18 19  1  0
 19 20  1  0
 20 21  2  0
 21 22  1  0
 22 23  2  0
 23 24  1  0
 20 25  1  0
 24 25  2  0
 15 26  1  0
 18 26  1  0
M  END
