IAN-BAS-d38e7e67-1-acrylamide
     RDKit          3D

 23 24  0  0  0  0  0  0  0  0999 V2000
    6.4010   -5.4160   20.2380 C   0  0  0  0  0  0  0  0  0  0  0  0
    6.4560   -5.9020   21.7550 C   0  0  0  0  0  0  0  0  0  0  0  0
    5.4460   -5.2710   22.7300 C   0  0  0  0  0  0  0  0  0  0  0  0
    4.3290   -4.8930   22.4240 O   0  0  0  0  0  0  0  0  0  0  0  0
    5.9160   -5.1340   23.9920 N   0  0  0  0  0  0  0  0  0  0  0  0
    7.2820   -5.5170   24.0760 C   0  0  0  0  0  0  0  0  0  0  0  0
    8.0090   -4.7010   23.0480 C   0  0  0  0  0  0  0  0  0  0  0  0
    7.2570   -3.4340   22.7870 N   0  0  0  0  0  0  0  0  0  0  0  0
    6.5470   -3.1140   21.6560 C   0  0  0  0  0  0  0  0  0  0  0  0
    7.1560   -1.9940   20.7960 C   0  0  0  0  0  0  0  0  0  0  0  0
    5.4860   -3.6210   21.2870 O   0  0  0  0  0  0  0  0  0  0  0  0
    6.7580   -3.0170   23.9910 C   0  0  1  0  0  0  0  0  0  0  0  0
    6.6720   -1.5040   24.0120 C   0  0  0  0  0  0  0  0  0  0  0  0
    5.6570   -0.7880   24.6720 C   0  0  0  0  0  0  0  0  0  0  0  0
    5.7160    0.6940   24.5950 C   0  0  0  0  0  0  0  0  0  0  0  0
    6.8090    0.9480   23.8570 C   0  0  0  0  0  0  0  0  0  0  0  0
    7.7190    0.6270   23.2550 N   0  0  0  0  0  0  0  0  0  0  0  0
    7.6880   -0.7420   23.3130 C   0  0  0  0  0  0  0  0  0  0  0  0
    8.8020   -1.2400   22.5890 C   0  0  0  0  0  0  0  0  0  0  0  0
    9.2380   -2.5440   22.2870 C   0  0  0  0  0  0  0  0  0  0  0  0
    9.4040   -0.0960   22.2560 N   0  0  0  0  0  0  0  0  0  0  0  0
   10.5560   -0.4590   21.5760 O   0  0  0  0  0  0  0  0  0  0  0  0
    5.7600   -3.7890   24.5480 C   0  0  0  0  0  0  0  0  0  0  0  0
  1  2  1  0
  2  3  1  0
  3  4  2  0
  3  5  1  0
  5  6  1  0
  6  7  1  0
  7  8  1  0
  8  9  1  0
  9 10  1  0
  9 11  2  0
  8 12  1  0
 12 13  1  6
 13 14  2  0
 14 15  1  0
 15 16  2  0
 16 17  1  0
 13 18  1  0
 17 18  2  0
 18 19  1  0
 19 20  1  0
 19 21  2  3
 21 22  1  0
  5 23  1  0
 12 23  1  0
M  END
