IAN-BAS-d38e7e67-1-chloroacetamide
     RDKit          3D

 22 23  0  0  0  0  0  0  0  0999 V2000
    7.3890   -5.3660   20.9370 C   0  0  0  0  0  0  0  0  0  0  0  0
    5.9130   -5.3000   21.2630 C   0  0  0  0  0  0  0  0  0  0  0  0
    5.2400   -5.2350   20.2090 O   0  0  0  0  0  0  0  0  0  0  0  0
    5.4470   -5.3390   22.5990 N   0  0  0  0  0  0  0  0  0  0  0  0
    6.3510   -6.0740   23.3600 C   0  0  0  0  0  0  0  0  0  0  0  0
    7.6560   -5.3710   23.0810 C   0  0  0  0  0  0  0  0  0  0  0  0
    7.3810   -3.8730   22.8240 N   0  0  0  0  0  0  0  0  0  0  0  0
    7.0730   -3.1000   21.7070 C   0  0  0  0  0  0  0  0  0  0  0  0
    8.1790   -2.1750   21.1800 C   0  0  0  0  0  0  0  0  0  0  0  0
    5.7970   -3.1500   21.0230 O   0  0  0  0  0  0  0  0  0  0  0  0
    6.4360   -3.5140   23.8350 C   0  0  1  0  0  0  0  0  0  0  0  0
    6.4560   -1.9950   23.8610 C   0  0  0  0  0  0  0  0  0  0  0  0
    5.0750   -1.3610   24.0250 C   0  0  0  0  0  0  0  0  0  0  0  0
    5.0360    0.0250   24.0420 C   0  0  0  0  0  0  0  0  0  0  0  0
    6.2750    0.8610   23.9040 C   0  0  0  0  0  0  0  0  0  0  0  0
    7.5610    0.3010   23.7500 N   0  0  0  0  0  0  0  0  0  0  0  0
    7.6130   -1.1750   23.7380 C   0  0  0  0  0  0  0  0  0  0  0  0
    8.9390   -1.6380   23.5890 C   0  0  0  0  0  0  0  0  0  0  0  0
   10.0240   -0.7650   23.4610 C   0  0  0  0  0  0  0  0  0  0  0  0
    9.3610   -2.9200   23.5520 N   0  0  0  0  0  0  0  0  0  0  0  0
   10.7570   -2.9640   23.4040 O   0  0  0  0  0  0  0  0  0  0  0  0
    5.2360   -4.0830   23.3540 C   0  0  0  0  0  0  0  0  0  0  0  0
  1  2  1  0
  2  3  2  0
  2  4  1  0
  4  5  1  0
  5  6  1  0
  6  7  1  0
  7  8  1  0
  8  9  1  0
  8 10  2  0
  7 11  1  0
 11 12  1  6
 12 13  2  0
 13 14  1  0
 14 15  2  0
 15 16  1  0
 12 17  1  0
 16 17  2  0
 17 18  1  0
 18 19  1  0
 18 20  2  3
 20 21  1  0
  4 22  1  0
 11 22  1  0
M  END
