IAN-BAS-daf5a467-1
     RDKit          3D

 16 16  0  0  0  0  0  0  0  0999 V2000
    4.3730    4.0230   20.2040 C   0  0  0  0  0  0  0  0  0  0  0  0
    3.6560    2.8750   20.6540 O   0  0  0  0  0  0  0  0  0  0  0  0
    3.4610    1.9620   19.6700 C   0  0  0  0  0  0  0  0  0  0  0  0
    4.6360    1.2610   19.4060 C   0  0  0  0  0  0  0  0  0  0  0  0
    5.1790    1.2350   18.1320 C   0  0  0  0  0  0  0  0  0  0  0  0
    6.3020    0.5920   17.7480 N   0  0  0  0  0  0  0  0  0  0  0  0
    6.9180   -0.0680   18.7450 C   0  0  0  0  0  0  0  0  0  0  0  0
    6.5220   -0.1470   20.0760 C   0  0  0  0  0  0  0  0  0  0  0  0
    7.2270   -0.8590   21.0690 N   0  0  0  0  0  0  0  0  0  0  0  0
    8.5120   -0.2440   21.4700 C   0  0  0  0  0  0  0  0  0  0  0  0
    8.8680    0.9120   21.2340 O   0  0  0  0  0  0  0  0  0  0  0  0
    9.4250   -1.1800   22.2620 C   0  0  0  0  0  0  0  0  0  0  0  0
   10.7050   -0.5460   22.7980 C   0  0  0  0  0  0  0  0  0  0  0  0
    9.5180   -0.8590   23.7180 C   0  0  0  0  0  0  0  0  0  0  0  0
    9.1030   -2.5040   22.0840 C   0  0  0  0  0  0  0  0  0  0  0  0
    5.3250    0.5530   20.3980 C   0  0  0  0  0  0  0  0  0  0  0  0
  1  2  1  0
  2  3  1  0
  3  4  1  0
  4  5  2  0
  5  6  1  0
  6  7  2  0
  7  8  1  0
  8  9  1  0
  9 10  1  0
 10 11  2  0
 12 10  1  0
 12 13  1  0
 12 14  1  0
 12 15  1  0
  4 16  1  0
  8 16  2  0
M  END
