IAN-BAS-b0010df8-1-vinylsulfonamide
     RDKit          3D

 28 31  0  0  0  0  0  0  0  0999 V2000
    8.7930   -3.7550   20.1770 C   0  0  0  0  0  0  0  0  0  0  0  0
    7.6470   -2.8910   19.7200 C   0  0  0  0  0  0  0  0  0  0  0  0
    6.3820   -3.6310   20.6310 S   0  0  0  0  0  0  0  0  0  0  0  0
    5.0250   -3.3730   20.1410 O   0  0  0  0  0  0  0  0  0  0  0  0
    6.7330   -4.9750   21.0300 O   0  0  0  0  0  0  0  0  0  0  0  0
    6.7760   -2.6930   21.9460 N   0  0  0  0  0  0  0  0  0  0  0  0
    5.8630   -3.0470   22.9460 C   0  0  0  0  0  0  0  0  0  0  0  0
    5.3400   -2.0930   23.7890 C   0  0  0  0  0  0  0  0  0  0  0  0
    4.4250   -2.4480   24.7590 C   0  0  0  0  0  0  0  0  0  0  0  0
    4.0250   -3.7760   24.8960 C   0  0  0  0  0  0  0  0  0  0  0  0
    3.0870   -4.1430   25.8710 C   0  0  0  0  0  0  0  0  0  0  0  0
    3.6010   -5.0940   26.9740 C   0  0  0  0  0  0  0  0  0  0  0  0
    2.6230   -5.1480   28.1830 C   0  0  0  0  0  0  0  0  0  0  0  0
    1.1790   -5.3850   27.7290 C   0  0  0  0  0  0  0  0  0  0  0  0
    0.7320   -4.7180   26.4120 C   0  0  0  0  0  0  0  0  0  0  0  0
    1.8420   -4.5290   25.3590 C   0  0  0  0  0  0  0  0  0  0  0  0
    4.5140   -4.7840   24.0920 N   0  0  0  0  0  0  0  0  0  0  0  0
    5.4550   -4.3650   23.1040 C   0  0  0  0  0  0  0  0  0  0  0  0
    8.1210   -2.7110   22.3820 C   0  0  0  0  0  0  0  0  0  0  0  0
    8.6900   -3.9210   22.7940 C   0  0  0  0  0  0  0  0  0  0  0  0
   10.0150   -4.0040   23.2520 C   0  0  0  0  0  0  0  0  0  0  0  0
   10.8370   -2.8800   23.3280 C   0  0  0  0  0  0  0  0  0  0  0  0
   12.1560   -2.8940   23.7900 N   0  0  0  0  0  0  0  0  0  0  0  0
   12.9510   -1.7940   23.8530 C   0  0  0  0  0  0  0  0  0  0  0  0
   12.4180   -0.5700   23.4330 C   0  0  0  0  0  0  0  0  0  0  0  0
   11.0970   -0.4730   22.9600 C   0  0  0  0  0  0  0  0  0  0  0  0
   10.2320   -1.5860   22.8760 C   0  0  0  0  0  0  0  0  0  0  0  0
    8.9120   -1.5510   22.4240 C   0  0  0  0  0  0  0  0  0  0  0  0
  1  2  1  0
  2  3  1  0
  3  4  2  0
  3  5  2  0
  3  6  1  0
  6  7  1  0
  7  8  2  0
  8  9  1  0
  9 10  2  0
 10 11  1  0
 11 12  1  0
 12 13  1  0
 13 14  1  0
 14 15  1  0
 11 16  1  0
 15 16  1  0
 10 17  1  0
  7 18  1  0
 17 18  2  0
  6 19  1  0
 19 20  2  0
 20 21  1  0
 21 22  2  0
 22 23  1  0
 23 24  2  0
 24 25  1  0
 25 26  2  0
 22 27  1  0
 26 27  1  0
 19 28  1  0
 27 28  2  0
M  END
