IND-SYN-aa221fbf-1-acrylamide
     RDKit          3D

 16 16  0  0  0  0  0  0  0  0999 V2000
    7.7080   -3.1480   19.2910 C   0  0  0  0  0  0  0  0  0  0  0  0
    6.7370   -2.5240   18.3490 C   0  0  0  0  0  0  0  0  0  0  0  0
    5.4800   -2.9620   18.9540 C   0  0  0  0  0  0  0  0  0  0  0  0
    4.4410   -2.9820   19.6240 O   0  0  0  0  0  0  0  0  0  0  0  0
    5.6440   -1.5310   19.3780 C   0  0  0  0  0  0  0  0  0  0  0  0
    5.0770   -0.3890   18.7430 C   0  0  0  0  0  0  0  0  0  0  0  0
    5.2800    0.9110   19.2710 C   0  0  0  0  0  0  0  0  0  0  0  0
    6.0470    1.1160   20.4270 C   0  0  0  0  0  0  0  0  0  0  0  0
    6.3200    2.4500   21.1160 C   0  0  0  0  0  0  0  0  0  0  0  0
    6.7020   -0.0750   21.1280 C   0  0  0  0  0  0  0  0  0  0  0  0
    7.5180   -0.0140   22.3110 N   0  0  0  0  0  0  0  0  0  0  0  0
    9.0230    0.7430   22.2020 S   0  0  0  0  0  0  0  0  0  0  0  0
   10.0220   -0.6410   22.1030 C   0  0  0  0  0  0  0  0  0  0  0  0
    9.3290    1.4400   23.4280 O   0  0  0  0  0  0  0  0  0  0  0  0
    8.9430    1.4610   20.9590 O   0  0  0  0  0  0  0  0  0  0  0  0
    6.4220   -1.4130   20.4910 C   0  0  0  0  0  0  0  0  0  0  0  0
  1  2  1  0
  2  3  1  0
  3  4  2  0
  3  5  1  0
  5  6  2  0
  6  7  1  0
  7  8  2  0
  8  9  1  0
  8 10  1  0
 10 11  1  0
 12 11  1  0
 12 13  1  0
 12 14  2  0
 12 15  2  0
  5 16  1  0
 10 16  2  0
M  END
