IND-SYN-8bc6954a-3
     RDKit          3D

 18 20  0  0  0  0  0  0  0  0999 V2000
    9.4210   -2.9930   22.3160 O   0  0  0  0  0  0  0  0  0  0  0  0
    9.7200   -1.9660   21.7160 C   0  0  0  0  0  0  0  0  0  0  0  0
    8.7930   -1.3410   20.8850 N   0  0  0  0  0  0  0  0  0  0  0  0
    8.2250   -0.6770   21.7180 C   0  0  0  0  0  0  0  0  0  0  0  0
    7.1310    0.1200   21.5800 N   0  0  0  0  0  0  0  0  0  0  0  0
    6.5230    0.4380   20.2790 C   0  0  0  0  0  0  0  0  0  0  0  0
    5.2800    1.3220   20.4250 C   0  0  0  0  0  0  0  0  0  0  0  0
    4.5910    1.7160   19.1200 C   0  0  0  0  0  0  0  0  0  0  0  0
    5.2730    1.1510   17.8750 C   0  0  0  0  0  0  0  0  0  0  0  0
    6.3720    0.3700   17.8630 N   0  0  0  0  0  0  0  0  0  0  0  0
    6.9650    0.0290   19.0280 C   0  0  0  0  0  0  0  0  0  0  0  0
    8.8220   -0.8070   22.8900 N   0  0  0  0  0  0  0  0  0  0  0  0
   10.2140   -0.5930   22.8440 C   0  0  0  0  0  0  0  0  0  0  0  0
   10.5030    0.5330   23.7680 C   0  0  0  0  0  0  0  0  0  0  0  0
   11.8510    0.9810   23.9300 C   0  0  0  0  0  0  0  0  0  0  0  0
   12.8340    0.2380   23.1420 C   0  0  0  0  0  0  0  0  0  0  0  0
   12.4720   -0.8150   22.2980 C   0  0  0  0  0  0  0  0  0  0  0  0
   11.0800   -1.4360   21.9700 C   0  0  0  0  0  0  0  0  0  0  0  0
  1  2  2  0
  2  3  1  0
  3  4  2  0
  4  5  1  0
  5  6  1  0
  6  7  2  0
  7  8  1  0
  8  9  2  0
  9 10  1  0
  6 11  1  0
 10 11  2  0
  4 12  1  0
 12 13  1  0
 13 14  1  0
 14 15  2  0
 15 16  1  0
 16 17  2  0
  2 18  1  0
 13 18  2  0
 17 18  1  0
M  END
