IND-SYN-aa221fbf-1-vinylsulfonamide
     RDKit          3D

 17 17  0  0  0  0  0  0  0  0999 V2000
    7.2170   -4.2200   20.5740 C   0  0  0  0  0  0  0  0  0  0  0  0
    7.0350   -3.0380   19.6780 C   0  0  0  0  0  0  0  0  0  0  0  0
    5.5750   -2.2830   20.2150 S   0  0  0  0  0  0  0  0  0  0  0  0
    4.5080   -3.0760   19.5850 O   0  0  0  0  0  0  0  0  0  0  0  0
    5.6210   -2.2410   21.6650 O   0  0  0  0  0  0  0  0  0  0  0  0
    6.0410   -0.6460   19.6140 C   0  0  0  0  0  0  0  0  0  0  0  0
    5.8360   -0.9010   18.3850 C   0  0  0  0  0  0  0  0  0  0  0  0
    5.1800    0.1820   18.9580 C   0  0  0  0  0  0  0  0  0  0  0  0
    5.4760    0.4420   20.4120 C   0  0  0  0  0  0  0  0  0  0  0  0
    5.9460    0.5780   21.7200 C   0  0  0  0  0  0  0  0  0  0  0  0
    6.7870    0.6180   19.9610 C   0  0  0  0  0  0  0  0  0  0  0  0
    7.8240    1.2340   20.7890 N   0  0  0  0  0  0  0  0  0  0  0  0
    8.7530    0.5390   22.0470 S   0  0  0  0  0  0  0  0  0  0  0  0
    9.1450   -1.1240   21.5730 C   0  0  0  0  0  0  0  0  0  0  0  0
    7.8660    0.4800   23.1860 O   0  0  0  0  0  0  0  0  0  0  0  0
    9.9870    1.2720   22.1070 O   0  0  0  0  0  0  0  0  0  0  0  0
    6.2930    0.4230   18.5920 C   0  0  0  0  0  0  0  0  0  0  0  0
  1  2  1  0
  3  2  1  0
  3  4  2  0
  3  5  2  0
  3  6  1  0
  6  7  2  0
  7  8  1  0
  8  9  2  0
  9 10  1  0
  9 11  1  0
 11 12  1  0
 13 12  1  0
 13 14  1  0
 13 15  2  0
 13 16  2  0
  6 17  1  0
 11 17  2  0
M  END
