IND-SYN-5e5c1c3e-4
     RDKit          3D

 17 18  0  0  0  0  0  0  0  0999 V2000
   13.6130    0.1960   21.8810 C   0  0  0  0  0  0  0  0  0  0  0  0
   13.2350   -0.6950   22.9320 N   0  0  0  0  0  0  0  0  0  0  0  0
   13.5720   -2.0370   23.2590 C   0  0  0  0  0  0  0  0  0  0  0  0
   12.8550   -2.3930   24.4950 C   0  0  0  0  0  0  0  0  0  0  0  0
   12.1320   -1.3790   24.8880 N   0  0  0  0  0  0  0  0  0  0  0  0
   12.3360   -0.3730   23.9770 C   0  0  0  0  0  0  0  0  0  0  0  0
   11.8070    1.0410   23.8270 C   0  0  0  0  0  0  0  0  0  0  0  0
   10.3810    1.2480   24.3050 C   0  0  0  0  0  0  0  0  0  0  0  0
    9.7680    2.6340   24.2190 C   0  0  0  0  0  0  0  0  0  0  0  0
   10.6660    3.7230   23.6550 C   0  0  0  0  0  0  0  0  0  0  0  0
   12.0460    3.3220   23.2310 C   0  0  0  0  0  0  0  0  0  0  0  0
   12.7730    4.4950   22.7470 N   0  0  0  0  0  0  0  0  0  0  0  0
   12.4040    6.0400   23.3510 S   0  0  0  0  0  0  0  0  0  0  0  0
   10.7340    6.3020   22.8610 C   0  0  0  0  0  0  0  0  0  0  0  0
   12.3450    5.9040   24.7930 O   0  0  0  0  0  0  0  0  0  0  0  0
   13.2160    7.0340   22.6860 O   0  0  0  0  0  0  0  0  0  0  0  0
   12.5770    2.0550   23.3000 C   0  0  0  0  0  0  0  0  0  0  0  0
  1  2  1  0
  2  3  1  0
  3  4  2  0
  4  5  1  0
  2  6  1  0
  5  6  2  0
  6  7  1  0
  7  8  2  0
  8  9  1  0
  9 10  2  0
 10 11  1  0
 11 12  1  0
 13 12  1  0
 13 14  1  0
 13 15  2  0
 13 16  2  0
  7 17  1  0
 11 17  2  0
M  END
