IND-SYN-a2b2ab0e-3
     RDKit          3D

 16 17  0  0  0  0  0  0  0  0999 V2000
   11.8890    6.3510   23.5310 C   0  0  0  0  0  0  0  0  0  0  0  0
   13.1370    5.4360   22.6420 S   0  0  0  0  0  0  0  0  0  0  0  0
   14.1460    4.9120   23.5120 O   0  0  0  0  0  0  0  0  0  0  0  0
   13.4340    6.2510   21.5120 O   0  0  0  0  0  0  0  0  0  0  0  0
   12.3560    4.1260   21.9960 N   0  0  0  0  0  0  0  0  0  0  0  0
   11.9260    3.0730   22.7430 C   0  0  0  0  0  0  0  0  0  0  0  0
   10.6140    3.4530   23.4570 C   0  0  0  0  0  0  0  0  0  0  0  0
   10.0230    2.3130   24.2860 C   0  0  0  0  0  0  0  0  0  0  0  0
   10.8310    1.0230   24.2500 C   0  0  0  0  0  0  0  0  0  0  0  0
   12.0240    0.7830   23.5760 C   0  0  0  0  0  0  0  0  0  0  0  0
   12.6560   -0.4610   23.6130 C   0  0  0  0  0  0  0  0  0  0  0  0
   13.1560   -1.1830   22.6960 N   0  0  0  0  0  0  0  0  0  0  0  0
   13.5450   -2.2570   23.4430 C   0  0  0  0  0  0  0  0  0  0  0  0
   13.3340   -2.2710   24.8540 C   0  0  0  0  0  0  0  0  0  0  0  0
   12.7310   -1.0060   24.8350 O   0  0  0  0  0  0  0  0  0  0  0  0
   12.5610    1.8270   22.8380 C   0  0  0  0  0  0  0  0  0  0  0  0
  1  2  1  0
  2  3  2  0
  2  4  2  0
  2  5  1  0
  5  6  1  0
  6  7  2  0
  7  8  1  0
  8  9  2  0
  9 10  1  0
 10 11  1  0
 11 12  2  0
 12 13  1  0
 13 14  2  0
 11 15  1  0
 14 15  1  0
  6 16  1  0
 10 16  2  0
M  END
