IND-SYN-a2b2ab0e-1
     RDKit          3D

 15 16  0  0  0  0  0  0  0  0999 V2000
    8.8880    5.2230   22.6950 N   0  0  0  0  0  0  0  0  0  0  0  0
   10.2390    5.3600   23.6780 S   0  0  0  0  0  0  0  0  0  0  0  0
   11.1190    6.3220   23.0530 O   0  0  0  0  0  0  0  0  0  0  0  0
    9.7330    5.5900   25.0130 O   0  0  0  0  0  0  0  0  0  0  0  0
   10.9620    3.7400   23.5830 C   0  0  0  0  0  0  0  0  0  0  0  0
   12.2210    3.5690   22.9990 C   0  0  0  0  0  0  0  0  0  0  0  0
   12.8220    2.1570   22.9670 C   0  0  0  0  0  0  0  0  0  0  0  0
   12.0030    1.0430   23.5700 C   0  0  0  0  0  0  0  0  0  0  0  0
   12.5990   -0.3510   23.5610 C   0  0  0  0  0  0  0  0  0  0  0  0
   12.8420   -1.1290   24.5730 N   0  0  0  0  0  0  0  0  0  0  0  0
   13.3850   -2.4010   24.3060 C   0  0  0  0  0  0  0  0  0  0  0  0
   13.3600   -2.0870   22.8970 C   0  0  0  0  0  0  0  0  0  0  0  0
   12.9210   -0.9020   22.4290 O   0  0  0  0  0  0  0  0  0  0  0  0
   10.7510    1.3370   24.1100 C   0  0  0  0  0  0  0  0  0  0  0  0
   10.2440    2.6450   24.1200 C   0  0  0  0  0  0  0  0  0  0  0  0
  2  1  1  0
  2  3  2  0
  2  4  2  0
  2  5  1  0
  5  6  2  0
  6  7  1  0
  7  8  2  0
  8  9  1  0
  9 10  2  0
 10 11  1  0
 11 12  2  0
  9 13  1  0
 12 13  1  0
  8 14  1  0
  5 15  1  0
 14 15  2  0
M  END
