IND-SYN-aa221fbf-1-nitrile
     RDKit          3D

 14 14  0  0  0  0  0  0  0  0999 V2000
    7.3110   -2.9350   18.9170 C   0  0  0  0  0  0  0  0  0  0  0  0
    7.5450   -2.9880   17.7520 N   0  0  0  0  0  0  0  0  0  0  0  0
    6.2720   -1.8090   18.8340 C   0  0  0  0  0  0  0  0  0  0  0  0
    5.2560   -0.5960   18.8640 C   0  0  0  0  0  0  0  0  0  0  0  0
    5.0650    0.4790   19.7280 C   0  0  0  0  0  0  0  0  0  0  0  0
    5.8460    0.6410   20.8190 C   0  0  0  0  0  0  0  0  0  0  0  0
    5.6400    1.7030   21.6870 C   0  0  0  0  0  0  0  0  0  0  0  0
    6.8140   -0.2890   20.9980 C   0  0  0  0  0  0  0  0  0  0  0  0
    7.6880   -0.2880   22.0670 N   0  0  0  0  0  0  0  0  0  0  0  0
    8.9530    0.8040   22.1720 S   0  0  0  0  0  0  0  0  0  0  0  0
   10.2430   -0.3120   22.2670 C   0  0  0  0  0  0  0  0  0  0  0  0
    8.9420    1.5160   20.9280 O   0  0  0  0  0  0  0  0  0  0  0  0
    8.8170    1.4820   23.4370 O   0  0  0  0  0  0  0  0  0  0  0  0
    6.9780   -1.4410   20.0040 C   0  0  0  0  0  0  0  0  0  0  0  0
  1  2  2  3
  1  3  1  0
  3  4  2  0
  4  5  1  0
  5  6  2  0
  6  7  1  0
  6  8  1  0
  8  9  1  0
 10  9  1  0
 10 11  1  0
 10 12  2  0
 10 13  2  0
  3 14  1  0
  8 14  2  0
M  END
