IND-SYN-35527f5a-1
     RDKit          3D

 18 20  0  0  0  0  0  0  0  0999 V2000
    9.5500    0.4790   21.6230 O   0  0  0  0  0  0  0  0  0  0  0  0
    9.7590   -0.9350   21.5190 C   0  0  0  0  0  0  0  0  0  0  0  0
    8.7920   -1.7410   21.0130 N   0  0  0  0  0  0  0  0  0  0  0  0
    8.1100   -0.6690   21.5040 C   0  0  0  0  0  0  0  0  0  0  0  0
    6.7850   -0.3910   21.4080 N   0  0  0  0  0  0  0  0  0  0  0  0
    6.2470    0.1800   20.2460 C   0  0  0  0  0  0  0  0  0  0  0  0
    5.0640    0.9310   20.3300 C   0  0  0  0  0  0  0  0  0  0  0  0
    4.5510    1.5030   19.1730 C   0  0  0  0  0  0  0  0  0  0  0  0
    5.2070    1.3400   17.9010 C   0  0  0  0  0  0  0  0  0  0  0  0
    6.3450    0.6320   17.7080 N   0  0  0  0  0  0  0  0  0  0  0  0
    6.8360    0.0460   18.9750 C   0  0  0  0  0  0  0  0  0  0  0  0
    8.9560    0.2130   22.1710 N   0  0  0  0  0  0  0  0  0  0  0  0
   10.3190   -0.1610   22.5520 C   0  0  0  0  0  0  0  0  0  0  0  0
   10.6870    0.7210   23.5310 C   0  0  0  0  0  0  0  0  0  0  0  0
   11.9820    0.6230   24.1300 C   0  0  0  0  0  0  0  0  0  0  0  0
   12.9120   -0.4360   23.7090 C   0  0  0  0  0  0  0  0  0  0  0  0
   12.4160   -1.3630   22.6290 C   0  0  0  0  0  0  0  0  0  0  0  0
   11.0320   -1.2800   21.9320 C   0  0  0  0  0  0  0  0  0  0  0  0
  1  2  2  0
  2  3  1  0
  3  4  2  0
  4  5  1  0
  5  6  1  0
  6  7  2  0
  7  8  1  0
  8  9  2  0
  9 10  1  0
  6 11  1  0
 10 11  2  0
  4 12  1  0
 12 13  1  0
 13 14  1  0
 14 15  2  0
 15 16  1  0
 16 17  2  0
  2 18  1  0
 13 18  2  0
 17 18  1  0
M  END
