IND-SYN-3aa4e743-1
     RDKit          3D

 20 22  0  0  0  0  0  0  0  0999 V2000
    5.5580   -4.8050   19.8470 O   0  0  0  0  0  0  0  0  0  0  0  0
    6.0280   -4.0300   20.6670 C   0  0  0  0  0  0  0  0  0  0  0  0
    6.5770   -2.6340   20.2520 C   0  0  0  0  0  0  0  0  0  0  0  0
    7.6930   -1.8460   21.0070 C   0  0  0  0  0  0  0  0  0  0  0  0
    8.9410   -2.2840   21.6720 C   0  0  0  0  0  0  0  0  0  0  0  0
    9.6410   -1.2800   22.2080 N   0  0  0  0  0  0  0  0  0  0  0  0
    8.9730   -0.0920   21.9690 C   0  0  0  0  0  0  0  0  0  0  0  0
    9.4760    1.1690   22.4190 N   0  0  0  0  0  0  0  0  0  0  0  0
    8.6170    2.3080   22.0580 C   0  0  0  0  0  0  0  0  0  0  0  0
    7.4330    2.0900   21.3430 C   0  0  0  0  0  0  0  0  0  0  0  0
    7.0260    0.8170   20.9500 C   0  0  0  0  0  0  0  0  0  0  0  0
    7.7600   -0.3220   21.2360 C   0  0  0  0  0  0  0  0  0  0  0  0
    6.0810   -4.3900   22.0210 N   0  0  0  0  0  0  0  0  0  0  0  0
    5.7980   -5.7270   22.4180 C   0  0  0  0  0  0  0  0  0  0  0  0
    4.8550   -5.9200   23.4390 C   0  0  0  0  0  0  0  0  0  0  0  0
    4.9120   -4.6090   24.5080 S   0  0  0  0  0  0  0  0  0  0  0  0
    4.9640   -5.1490   25.8520 O   0  0  0  0  0  0  0  0  0  0  0  0
    3.9040   -3.6570   24.1020 O   0  0  0  0  0  0  0  0  0  0  0  0
    6.4980   -3.9180   24.2000 C   0  0  0  0  0  0  0  0  0  0  0  0
    6.8080   -3.5840   22.8820 C   0  0  0  0  0  0  0  0  0  0  0  0
  1  2  2  0
  2  3  1  0
  3  4  1  0
  4  5  2  0
  5  6  1  0
  6  7  1  0
  7  8  1  0
  8  9  2  0
  9 10  1  0
 10 11  2  0
  4 12  1  0
  7 12  2  0
 11 12  1  0
  2 13  1  0
 13 14  1  0
 14 15  1  0
 16 15  1  0
 16 17  2  0
 16 18  2  0
 16 19  1  0
 13 20  1  0
 19 20  1  0
M  END
