IND-SYN-8f867502-2
     RDKit          3D

 15 16  0  0  0  0  0  0  0  0999 V2000
    9.9090   -0.3730   25.0930 C   0  0  0  0  0  0  0  0  0  0  0  0
   10.8070   -0.2990   23.9460 N   0  0  0  0  0  0  0  0  0  0  0  0
   11.6230   -1.5230   23.7910 C   0  0  0  0  0  0  0  0  0  0  0  0
   12.6920   -1.3910   22.6850 C   0  0  0  0  0  0  0  0  0  0  0  0
   13.4340   -0.1620   22.7960 O   0  0  0  0  0  0  0  0  0  0  0  0
   12.6410    0.9390   23.0180 C   0  0  0  0  0  0  0  0  0  0  0  0
   13.2030    2.2950   22.6250 C   0  0  0  0  0  0  0  0  0  0  0  0
   12.4700    3.5780   22.7990 C   0  0  0  0  0  0  0  0  0  0  0  0
   11.0980    3.4420   23.4130 C   0  0  0  0  0  0  0  0  0  0  0  0
   10.1040    4.8870   23.6910 S   0  0  0  0  0  0  0  0  0  0  0  0
   11.1730    6.1270   23.2820 N   0  0  0  0  0  0  0  0  0  0  0  0
    9.8180    5.0300   25.0860 O   0  0  0  0  0  0  0  0  0  0  0  0
    9.0250    4.9100   22.7410 O   0  0  0  0  0  0  0  0  0  0  0  0
   10.6330    2.1270   23.7600 C   0  0  0  0  0  0  0  0  0  0  0  0
   11.3680    0.9280   23.5710 C   0  0  0  0  0  0  0  0  0  0  0  0
  1  2  1  0
  2  3  1  0
  3  4  1  0
  4  5  1  0
  5  6  1  0
  6  7  1  0
  7  8  2  0
  8  9  1  0
  9 10  1  0
 10 11  1  0
 10 12  2  0
 10 13  2  0
  9 14  2  0
  2 15  1  0
  6 15  2  0
 14 15  1  0
M  END
