IND-SYN-64980207-1-nitrile
     RDKit          3D

 20 21  0  0  0  0  0  0  0  0999 V2000
    6.6700   -4.1050   20.4030 C   0  0  0  0  0  0  0  0  0  0  0  0
    5.6170   -4.7110   19.9740 N   0  0  0  0  0  0  0  0  0  0  0  0
    6.1080   -3.1110   21.7510 C   0  0  0  0  0  0  0  0  0  0  0  0
    6.4100   -3.0540   20.8190 C   0  0  0  0  0  0  0  0  0  0  0  0
    6.5070   -4.2720   21.7120 C   0  0  0  0  0  0  0  0  0  0  0  0
    6.4770   -5.5510   21.5330 C   0  0  0  0  0  0  0  0  0  0  0  0
    5.5770   -5.8340   20.8350 N   0  0  0  0  0  0  0  0  0  0  0  0
    5.3600   -4.4740   21.6850 C   0  0  0  0  0  0  0  0  0  0  0  0
    4.3400   -4.4380   22.3790 O   0  0  0  0  0  0  0  0  0  0  0  0
    4.0200   -5.4450   23.2860 C   0  0  0  0  0  0  0  0  0  0  0  0
    4.8770   -5.7850   24.5190 C   0  0  0  0  0  0  0  0  0  0  0  0
    4.3980   -6.9070   25.4240 C   0  0  0  0  0  0  0  0  0  0  0  0
    3.1180   -7.6260   25.0610 C   0  0  0  0  0  0  0  0  0  0  0  0
    2.6520   -8.7070   25.9190 N   0  0  0  0  0  0  0  0  0  0  0  0
    1.1400   -9.4320   25.7310 S   0  0  0  0  0  0  0  0  0  0  0  0
    1.4640  -11.1950   26.0920 C   0  0  0  0  0  0  0  0  0  0  0  0
    0.8210   -9.3340   24.3230 O   0  0  0  0  0  0  0  0  0  0  0  0
    0.2260   -8.9230   26.7300 O   0  0  0  0  0  0  0  0  0  0  0  0
    2.4370   -7.2260   23.9280 C   0  0  0  0  0  0  0  0  0  0  0  0
    2.8300   -6.2090   23.0770 C   0  0  0  0  0  0  0  0  0  0  0  0
  1  2  2  3
  1  3  1  0
  3  4  2  0
  4  5  1  0
  5  6  2  0
  6  7  1  0
  3  8  1  0
  7  8  2  0
  8  9  1  0
  9 10  1  0
 10 11  2  0
 11 12  1  0
 12 13  2  0
 13 14  1  0
 15 14  1  0
 15 16  1  0
 15 17  2  0
 15 18  2  0
 13 19  1  0
 10 20  1  0
 19 20  2  0
M  END
