IND-SYN-8bc6954a-2
     RDKit          3D

 19 20  0  0  0  0  0  0  0  0999 V2000
    9.1190   -2.8760   22.3570 O   0  0  0  0  0  0  0  0  0  0  0  0
    8.9560   -1.5300   22.8340 S   0  0  0  0  0  0  0  0  0  0  0  0
    8.2380   -1.2460   24.0610 O   0  0  0  0  0  0  0  0  0  0  0  0
    8.2260   -0.6070   21.6580 N   0  0  0  0  0  0  0  0  0  0  0  0
    6.8130   -0.3130   21.8330 C   0  0  0  0  0  0  0  0  0  0  0  0
    6.0890   -0.7410   20.7390 C   0  0  0  0  0  0  0  0  0  0  0  0
    5.0520    0.1950   20.2120 C   0  0  0  0  0  0  0  0  0  0  0  0
    4.3880    1.2150   19.2300 C   0  0  0  0  0  0  0  0  0  0  0  0
    4.9160    1.7600   17.9200 C   0  0  0  0  0  0  0  0  0  0  0  0
    6.1530    1.3490   17.4390 N   0  0  0  0  0  0  0  0  0  0  0  0
    6.7480    0.4500   18.3180 C   0  0  0  0  0  0  0  0  0  0  0  0
    6.2560   -0.0260   19.4930 C   0  0  0  0  0  0  0  0  0  0  0  0
   10.4970   -0.7370   22.9180 C   0  0  0  0  0  0  0  0  0  0  0  0
   11.6680   -1.4090   22.2710 C   0  0  0  0  0  0  0  0  0  0  0  0
   12.9880   -0.7230   22.3240 C   0  0  0  0  0  0  0  0  0  0  0  0
   13.0340    0.6210   23.0330 C   0  0  0  0  0  0  0  0  0  0  0  0
   11.8860    1.1830   23.6240 C   0  0  0  0  0  0  0  0  0  0  0  0
   10.5680    0.4780   23.5660 C   0  0  0  0  0  0  0  0  0  0  0  0
    9.5070    1.0560   24.1390 F   0  0  0  0  0  0  0  0  0  0  0  0
  1  2  2  0
  2  3  2  0
  2  4  1  0
  4  5  1  0
  5  6  1  0
  6  7  1  0
  7  8  2  0
  8  9  1  0
  9 10  2  0
 10 11  1  0
  7 12  1  0
 11 12  2  0
  2 13  1  0
 13 14  2  0
 14 15  1  0
 15 16  2  0
 16 17  1  0
 13 18  1  0
 17 18  2  0
 18 19  1  0
M  END
