INS-INS-a68edfff-1-acrylamide
     RDKit          3D

 39 43  0  0  0  0  0  0  0  0999 V2000
    7.9590   -3.5650   19.7160 C   0  0  0  0  0  0  0  0  0  0  0  0
    6.9430   -2.8750   20.5960 C   0  0  0  0  0  0  0  0  0  0  0  0
    5.6990   -3.7080   20.7450 C   0  0  0  0  0  0  0  0  0  0  0  0
    5.0310   -3.9160   19.7290 O   0  0  0  0  0  0  0  0  0  0  0  0
    5.4970   -4.1880   22.0500 N   0  0  0  0  0  0  0  0  0  0  0  0
    6.0080   -3.4560   23.1030 C   0  0  0  0  0  0  0  0  0  0  0  0
    6.9060   -4.3260   23.9150 C   0  0  0  0  0  0  0  0  0  0  0  0
    7.4610   -3.5860   25.0890 C   0  0  0  0  0  0  0  0  0  0  0  0
    8.3500   -4.3420   25.8380 C   0  0  0  0  0  0  0  0  0  0  0  0
    7.9480   -5.7740   26.6510 S   0  0  0  0  0  0  0  0  0  0  0  0
    9.7010   -5.8000   27.1080 C   0  0  0  0  0  0  0  0  0  0  0  0
   10.5170   -4.6670   26.5940 C   0  0  0  0  0  0  0  0  0  0  0  0
    9.5490   -3.8400   25.8440 C   0  0  0  0  0  0  0  0  0  0  0  0
    9.7440   -2.5370   25.1000 C   0  0  0  0  0  0  0  0  0  0  0  0
    8.8790   -1.4840   25.0770 O   0  0  0  0  0  0  0  0  0  0  0  0
   10.9710   -2.3990   24.3660 C   0  0  0  0  0  0  0  0  0  0  0  0
   11.1080   -1.8500   23.0980 C   0  0  0  0  0  0  0  0  0  0  0  0
   12.4620   -1.7710   22.4480 C   0  0  0  0  0  0  0  0  0  0  0  0
   13.5740   -2.3320   23.3190 C   0  0  0  0  0  0  0  0  0  0  0  0
   13.1950   -2.8660   24.6470 C   0  0  0  0  0  0  0  0  0  0  0  0
   14.2960   -3.4140   25.5100 C   0  0  0  0  0  0  0  0  0  0  0  0
   13.7220   -4.2500   26.3840 F   0  0  0  0  0  0  0  0  0  0  0  0
   14.8820   -2.4990   26.2880 F   0  0  0  0  0  0  0  0  0  0  0  0
   15.2970   -4.1170   24.9280 F   0  0  0  0  0  0  0  0  0  0  0  0
   11.9680   -2.8880   25.1050 C   0  0  0  0  0  0  0  0  0  0  0  0
    7.2350   -2.2900   25.4740 C   0  0  0  0  0  0  0  0  0  0  0  0
    6.3570   -1.4920   24.6330 C   0  0  0  0  0  0  0  0  0  0  0  0
    5.7600   -2.1400   23.4170 C   0  0  0  0  0  0  0  0  0  0  0  0
    4.9710   -1.0680   22.8030 C   0  0  0  0  0  0  0  0  0  0  0  0
    4.5930   -1.0240   21.6570 O   0  0  0  0  0  0  0  0  0  0  0  0
    4.7890   -0.1080   23.7850 N   0  0  0  0  0  0  0  0  0  0  0  0
    5.8900   -0.0790   24.7210 C   0  0  0  0  0  0  0  0  0  0  0  0
    4.4870   -5.0770   22.6550 C   0  0  1  0  0  0  0  0  0  0  0  0
    4.5890   -6.5430   22.3790 C   0  0  0  0  0  0  0  0  0  0  0  0
    3.2130   -6.9650   22.8990 C   0  0  0  0  0  0  0  0  0  0  0  0
    3.4370   -6.5340   24.5770 S   0  0  0  0  0  0  0  0  0  0  0  0
    2.1700   -6.0770   25.0950 O   0  0  0  0  0  0  0  0  0  0  0  0
    4.1880   -7.6180   25.1940 O   0  0  0  0  0  0  0  0  0  0  0  0
    4.4440   -5.1020   24.1970 C   0  0  0  0  0  0  0  0  0  0  0  0
  1  2  1  0
  2  3  1  0
  3  4  2  0
  3  5  1  0
  5  6  1  0
  6  7  2  0
  7  8  1  0
  8  9  1  0
  9 10  1  0
 10 11  1  0
 11 12  2  0
  9 13  2  0
 12 13  1  0
 13 14  1  0
 14 15  2  0
 14 16  1  0
 16 17  2  0
 17 18  1  0
 18 19  2  0
 19 20  1  0
 20 21  1  0
 21 22  1  0
 21 23  1  0
 21 24  1  0
 16 25  1  0
 20 25  2  0
  8 26  2  0
 26 27  1  0
  6 28  1  0
 27 28  2  0
 28 29  1  0
 29 30  2  0
 29 31  1  0
 27 32  1  0
 31 32  1  0
 33  5  1  1
 33 34  1  0
 34 35  1  0
 36 35  1  0
 36 37  2  0
 36 38  2  0
 33 39  1  0
 36 39  1  0
M  END
