INS-INS-68e9753a-1-chloroacetamide
     RDKit          3D

 41 46  0  0  0  0  0  0  0  0999 V2000
    7.4640   -2.9550   18.8680 C   0  0  0  0  0  0  0  0  0  0  0  0
    6.6150   -3.2650   20.0520 C   0  0  0  0  0  0  0  0  0  0  0  0
    5.6700   -4.0810   19.8250 O   0  0  0  0  0  0  0  0  0  0  0  0
    6.9070   -2.6960   21.3350 N   0  0  0  0  0  0  0  0  0  0  0  0
    6.2450   -3.0630   22.5710 C   0  0  0  0  0  0  0  0  0  0  0  0
    7.3200   -3.5860   23.5290 C   0  0  0  0  0  0  0  0  0  0  0  0
    6.8270   -4.7690   24.2820 C   0  0  0  0  0  0  0  0  0  0  0  0
    5.4860   -5.1190   24.0100 C   0  0  0  0  0  0  0  0  0  0  0  0
    4.6190   -5.5620   25.0150 C   0  0  0  0  0  0  0  0  0  0  0  0
    4.1900   -6.6450   24.2740 C   0  0  0  0  0  0  0  0  0  0  0  0
    2.9270   -6.5320   23.8060 F   0  0  0  0  0  0  0  0  0  0  0  0
    4.2040   -7.8090   24.9400 F   0  0  0  0  0  0  0  0  0  0  0  0
    5.1730   -6.4570   23.3060 C   0  0  0  0  0  0  0  0  0  0  0  0
    7.6930   -5.3790   25.1630 C   0  0  0  0  0  0  0  0  0  0  0  0
    8.9310   -4.8230   25.2380 C   0  0  0  0  0  0  0  0  0  0  0  0
    9.2590   -3.6960   24.4840 C   0  0  0  0  0  0  0  0  0  0  0  0
    8.5560   -2.8830   23.5410 C   0  0  0  0  0  0  0  0  0  0  0  0
    8.8610   -1.7440   22.8490 C   0  0  1  0  0  0  0  0  0  0  0  0
   10.1370   -1.1750   22.7760 C   0  0  0  0  0  0  0  0  0  0  0  0
   11.3530   -1.7510   22.5010 C   0  0  0  0  0  0  0  0  0  0  0  0
   12.6010   -1.0770   22.4720 C   0  0  0  0  0  0  0  0  0  0  0  0
   12.7480    0.4530   22.7510 C   0  0  0  0  0  0  0  0  0  0  0  0
   11.3130    0.9160   23.0100 C   0  0  0  0  0  0  0  0  0  0  0  0
   11.5470    2.4230   23.2060 C   0  0  0  0  0  0  0  0  0  0  0  0
   10.4700    2.9070   24.1160 C   0  0  0  0  0  0  0  0  0  0  0  0
   10.6000    4.2340   24.3230 O   0  0  0  0  0  0  0  0  0  0  0  0
   11.7260    4.6240   23.5760 C   0  0  0  0  0  0  0  0  0  0  0  0
   12.0720    6.1130   23.6490 C   0  0  0  0  0  0  0  0  0  0  0  0
   12.3330    3.5490   22.8860 C   0  0  0  0  0  0  0  0  0  0  0  0
   10.1450    0.1840   23.0330 C   0  0  0  0  0  0  0  0  0  0  0  0
    7.7340   -1.5090   21.7600 C   0  0  2  0  0  0  0  0  0  0  0  0
    7.4180   -0.1980   21.4390 C   0  0  0  0  0  0  0  0  0  0  0  0
    6.5370    0.1110   20.4340 C   0  0  0  0  0  0  0  0  0  0  0  0
    6.2610    1.4550   20.2220 C   0  0  0  0  0  0  0  0  0  0  0  0
    5.3650    1.7380   19.1980 N   0  0  0  0  0  0  0  0  0  0  0  0
    5.2680    0.9410   18.1300 C   0  0  0  0  0  0  0  0  0  0  0  0
    6.0050    1.2790   17.0880 N   0  0  0  0  0  0  0  0  0  0  0  0
    4.5550   -0.0480   18.1320 O   0  0  0  0  0  0  0  0  0  0  0  0
    6.8200    2.4310   20.9530 N   0  0  0  0  0  0  0  0  0  0  0  0
    7.6690    2.0460   21.8970 C   0  0  0  0  0  0  0  0  0  0  0  0
    7.9870    0.7790   22.1690 N   0  0  0  0  0  0  0  0  0  0  0  0
  1  2  1  0
  2  3  2  0
  2  4  1  0
  4  5  1  0
  5  6  1  0
  6  7  1  0
  7  8  1  0
  8  9  1  0
  9 10  1  0
 10 11  1  0
 10 12  1  0
  8 13  1  0
 10 13  1  0
  7 14  2  0
 14 15  1  0
 15 16  2  0
  6 17  2  0
 16 17  1  0
 17 18  1  0
 18 19  1  6
 19 20  2  0
 20 21  1  0
 21 22  2  0
 22 23  1  0
 23 24  1  0
 24 25  2  0
 25 26  1  0
 26 27  1  0
 27 28  1  0
 24 29  1  0
 27 29  2  0
 19 30  1  0
 23 30  2  0
  4 31  1  0
 18 31  1  0
 31 32  1  1
 32 33  2  0
 33 34  1  0
 34 35  1  0
 35 36  1  0
 36 37  1  0
 36 38  2  0
 34 39  2  0
 39 40  1  0
 32 41  1  0
 40 41  2  0
M  END
