INS-INS-a68edfff-1-vinylsulfonamide
     RDKit          3D

 40 44  0  0  0  0  0  0  0  0999 V2000
    7.8720   -3.6750   20.1750 C   0  0  0  0  0  0  0  0  0  0  0  0
    7.1670   -2.5240   19.4870 C   0  0  0  0  0  0  0  0  0  0  0  0
    5.5470   -2.4490   20.1640 S   0  0  0  0  0  0  0  0  0  0  0  0
    4.8030   -3.5420   19.5640 O   0  0  0  0  0  0  0  0  0  0  0  0
    5.0900   -1.0860   20.0380 O   0  0  0  0  0  0  0  0  0  0  0  0
    5.7970   -2.7870   21.8390 N   0  0  0  0  0  0  0  0  0  0  0  0
    6.7020   -1.9860   22.6960 C   0  0  0  0  0  0  0  0  0  0  0  0
    7.7160   -2.8340   23.3860 C   0  0  0  0  0  0  0  0  0  0  0  0
    8.6530   -2.1230   24.2970 C   0  0  0  0  0  0  0  0  0  0  0  0
    9.6110   -3.1100   24.9790 C   0  0  0  0  0  0  0  0  0  0  0  0
    8.6420   -4.4630   25.5090 S   0  0  0  0  0  0  0  0  0  0  0  0
    9.9370   -5.3070   26.1550 C   0  0  0  0  0  0  0  0  0  0  0  0
   11.2050   -4.5660   25.9930 C   0  0  0  0  0  0  0  0  0  0  0  0
   11.0090   -3.2930   25.3160 C   0  0  0  0  0  0  0  0  0  0  0  0
   12.4630   -2.7040   25.2610 C   0  0  0  0  0  0  0  0  0  0  0  0
   12.5530   -1.3090   24.9630 O   0  0  0  0  0  0  0  0  0  0  0  0
   13.7110   -3.6280   25.3790 C   0  0  0  0  0  0  0  0  0  0  0  0
   14.6320   -3.5360   24.2980 C   0  0  0  0  0  0  0  0  0  0  0  0
   15.8000   -4.3670   24.1930 C   0  0  0  0  0  0  0  0  0  0  0  0
   16.2080   -5.4050   25.0990 C   0  0  0  0  0  0  0  0  0  0  0  0
   15.2720   -5.5280   26.2210 C   0  0  0  0  0  0  0  0  0  0  0  0
   16.0090   -6.6720   26.8780 C   0  0  0  0  0  0  0  0  0  0  0  0
   15.6000   -7.8680   26.4360 F   0  0  0  0  0  0  0  0  0  0  0  0
   15.9310   -6.7290   28.1990 F   0  0  0  0  0  0  0  0  0  0  0  0
   17.3340   -6.6700   26.5930 F   0  0  0  0  0  0  0  0  0  0  0  0
   14.0480   -4.5980   26.3500 C   0  0  0  0  0  0  0  0  0  0  0  0
    8.5850   -0.7480   24.4730 C   0  0  0  0  0  0  0  0  0  0  0  0
    7.6070    0.2740   23.8230 C   0  0  0  0  0  0  0  0  0  0  0  0
    6.7100   -0.5970   22.9390 C   0  0  0  0  0  0  0  0  0  0  0  0
    5.7340    0.4290   22.3270 C   0  0  0  0  0  0  0  0  0  0  0  0
    4.7810    0.1970   21.6120 O   0  0  0  0  0  0  0  0  0  0  0  0
    6.1550    1.6950   22.7710 N   0  0  0  0  0  0  0  0  0  0  0  0
    7.2680    1.7110   23.7830 C   0  0  0  0  0  0  0  0  0  0  0  0
    4.8870   -3.6940   22.5970 C   0  0  1  0  0  0  0  0  0  0  0  0
    5.1200   -5.1970   22.4360 C   0  0  0  0  0  0  0  0  0  0  0  0
    4.1560   -5.9230   23.4190 C   0  0  0  0  0  0  0  0  0  0  0  0
    3.7360   -4.7020   24.6540 S   0  0  0  0  0  0  0  0  0  0  0  0
    4.1230   -5.2090   25.9530 O   0  0  0  0  0  0  0  0  0  0  0  0
    2.4030   -4.2100   24.3730 O   0  0  0  0  0  0  0  0  0  0  0  0
    4.9090   -3.4850   24.1070 C   0  0  0  0  0  0  0  0  0  0  0  0
  1  2  1  0
  2  3  1  0
  3  4  2  0
  3  5  2  0
  3  6  1  0
  6  7  1  0
  7  8  2  0
  8  9  1  0
  9 10  1  0
 10 11  1  0
 11 12  1  0
 12 13  2  0
 10 14  2  0
 13 14  1  0
 14 15  1  0
 15 16  2  0
 15 17  1  0
 17 18  2  0
 18 19  1  0
 19 20  2  0
 20 21  1  0
 21 22  1  0
 22 23  1  0
 22 24  1  0
 22 25  1  0
 17 26  1  0
 21 26  2  0
  9 27  2  0
 27 28  1  0
  7 29  1  0
 28 29  2  0
 29 30  1  0
 30 31  2  0
 30 32  1  0
 28 33  1  0
 32 33  1  0
 34  6  1  6
 34 35  1  0
 35 36  1  0
 37 36  1  0
 37 38  2  0
 37 39  2  0
 34 40  1  0
 37 40  1  0
M  END
