INS-INS-398f5681-1-vinylsulfonamide
     RDKit          3D

 40 44  0  0  0  0  0  0  0  0999 V2000
    7.3230   -3.1480   18.9970 C   0  0  0  0  0  0  0  0  0  0  0  0
    7.2350   -2.1240   20.1000 C   0  0  0  0  0  0  0  0  0  0  0  0
    5.5300   -1.9820   20.5520 S   0  0  0  0  0  0  0  0  0  0  0  0
    4.9390   -3.2440   20.1760 O   0  0  0  0  0  0  0  0  0  0  0  0
    5.0130   -0.7190   20.0860 O   0  0  0  0  0  0  0  0  0  0  0  0
    5.4700   -2.0290   22.2370 N   0  0  0  0  0  0  0  0  0  0  0  0
    6.7000   -1.9680   23.0360 C   0  0  0  0  0  0  0  0  0  0  0  0
    6.8820   -2.6500   24.3970 C   0  0  0  0  0  0  0  0  0  0  0  0
    8.1550   -2.5750   25.2070 C   0  0  0  0  0  0  0  0  0  0  0  0
    8.0280   -3.3320   26.5230 C   0  0  0  0  0  0  0  0  0  0  0  0
    6.6170   -3.0510   27.4820 S   0  0  0  0  0  0  0  0  0  0  0  0
    7.1200   -4.1570   28.6640 C   0  0  0  0  0  0  0  0  0  0  0  0
    8.4430   -4.7310   28.2540 C   0  0  0  0  0  0  0  0  0  0  0  0
    8.9170   -4.2460   27.0600 C   0  0  0  0  0  0  0  0  0  0  0  0
   10.1010   -4.6860   26.5110 C   0  0  0  0  0  0  0  0  0  0  0  0
   11.3660   -4.1800   26.4600 O   0  0  0  0  0  0  0  0  0  0  0  0
    9.8640   -5.8360   25.9060 C   0  0  0  0  0  0  0  0  0  0  0  0
    9.4420   -5.6490   24.6850 C   0  0  0  0  0  0  0  0  0  0  0  0
    9.0820   -6.7080   24.0810 C   0  0  0  0  0  0  0  0  0  0  0  0
    9.1890   -8.0430   24.7350 C   0  0  0  0  0  0  0  0  0  0  0  0
    9.8160   -8.7600   26.2730 C   0  0  0  0  0  0  0  0  0  0  0  0
   10.1180  -10.6390   27.9630 C   0  0  0  0  0  0  0  0  0  0  0  0
    8.9830  -10.8000   28.7960 F   0  0  0  0  0  0  0  0  0  0  0  0
   10.6280  -10.7670   29.2650 F   0  0  0  0  0  0  0  0  0  0  0  0
   10.2210  -12.0250   27.9260 F   0  0  0  0  0  0  0  0  0  0  0  0
   10.0440   -7.0280   26.6510 C   0  0  0  0  0  0  0  0  0  0  0  0
    9.2680   -1.8910   24.7680 C   0  0  0  0  0  0  0  0  0  0  0  0
    9.1940   -1.2670   23.5980 C   0  0  0  0  0  0  0  0  0  0  0  0
    8.0550   -1.2310   22.7330 C   0  0  0  0  0  0  0  0  0  0  0  0
    8.3690   -0.4450   21.6280 C   0  0  0  0  0  0  0  0  0  0  0  0
    7.6090    0.1550   20.8900 O   0  0  0  0  0  0  0  0  0  0  0  0
    9.7340   -0.4590   21.5710 N   0  0  0  0  0  0  0  0  0  0  0  0
   10.2720   -0.4770   22.9240 C   0  0  0  0  0  0  0  0  0  0  0  0
    4.8190   -3.1790   22.8640 C   0  0  1  0  0  0  0  0  0  0  0  0
    5.6110   -4.4680   22.9690 C   0  0  0  0  0  0  0  0  0  0  0  0
    5.0410   -5.4430   24.0000 C   0  0  0  0  0  0  0  0  0  0  0  0
    3.6370   -4.5960   24.6920 S   0  0  0  0  0  0  0  0  0  0  0  0
    3.6740   -4.7430   26.1320 O   0  0  0  0  0  0  0  0  0  0  0  0
    2.4770   -4.9510   23.9010 O   0  0  0  0  0  0  0  0  0  0  0  0
    4.1980   -2.9600   24.2550 C   0  0  0  0  0  0  0  0  0  0  0  0
  1  2  1  0
  2  3  1  0
  3  4  2  0
  3  5  2  0
  3  6  1  0
  6  7  1  0
  7  8  2  0
  8  9  1  0
  9 10  1  0
 10 11  1  0
 11 12  1  0
 12 13  2  0
 10 14  2  0
 13 14  1  0
 14 15  1  0
 15 16  2  0
 15 17  1  0
 17 18  2  0
 18 19  1  0
 19 20  2  0
 20 21  1  0
 21 22  1  0
 22 23  1  0
 22 24  1  0
 22 25  1  0
 17 26  1  0
 21 26  2  0
  9 27  2  0
 27 28  1  0
  7 29  1  0
 28 29  2  0
 29 30  1  0
 30 31  2  0
 30 32  1  0
 28 33  1  0
 32 33  1  0
 34  6  1  1
 34 35  1  0
 35 36  1  0
 37 36  1  0
 37 38  2  0
 37 39  2  0
 34 40  1  0
 37 40  1  0
M  END
