INS-INS-7e24ab41-1-chloroacetamide
     RDKit          3D

 41 46  0  0  0  0  0  0  0  0999 V2000
    8.8300   -3.4830   20.4600 C   0  0  0  0  0  0  0  0  0  0  0  0
    7.3600   -2.9440   20.0430 C   0  0  0  0  0  0  0  0  0  0  0  0
    6.7240   -2.7590   18.9310 O   0  0  0  0  0  0  0  0  0  0  0  0
    6.6760   -2.6270   21.1780 N   0  0  0  0  0  0  0  0  0  0  0  0
    7.4450   -2.7050   22.3060 C   0  0  0  0  0  0  0  0  0  0  0  0
    7.6910   -3.9470   22.8470 C   0  0  0  0  0  0  0  0  0  0  0  0
    8.4350   -4.0210   23.9560 C   0  0  0  0  0  0  0  0  0  0  0  0
    8.8430   -5.0720   24.7250 C   0  0  0  0  0  0  0  0  0  0  0  0
    9.0410   -4.7520   26.0160 C   0  0  0  0  0  0  0  0  0  0  0  0
    9.5150   -5.8800   26.7940 C   0  0  0  0  0  0  0  0  0  0  0  0
    9.5750   -6.9490   25.8310 N   0  0  0  0  0  0  0  0  0  0  0  0
    9.1450   -6.4430   24.6500 N   0  0  0  0  0  0  0  0  0  0  0  0
    9.1170   -7.5100   23.5760 C   0  0  0  0  0  0  0  0  0  0  0  0
    8.1950   -8.5700   23.4230 N   0  0  0  0  0  0  0  0  0  0  0  0
    8.4120   -9.4030   22.3690 N   0  0  0  0  0  0  0  0  0  0  0  0
    9.6130   -8.8500   21.6800 C   0  0  0  0  0  0  0  0  0  0  0  0
   10.0390   -9.4170   20.1630 C   0  0  0  0  0  0  0  0  0  0  0  0
   10.2040   -8.0460   19.5430 C   0  0  0  0  0  0  0  0  0  0  0  0
    9.6290   -7.4690   17.8930 C   0  0  0  0  0  0  0  0  0  0  0  0
    8.9170   -8.2980   17.4310 O   0  0  0  0  0  0  0  0  0  0  0  0
   10.1770   -5.9460   16.8290 N   0  0  0  0  0  0  0  0  0  0  0  0
   11.2390   -6.5780   14.7810 C   0  0  0  0  0  0  0  0  0  0  0  0
   10.7000   -6.9830   20.6840 C   0  0  0  0  0  0  0  0  0  0  0  0
   10.5560   -6.9060   22.0610 C   0  0  0  0  0  0  0  0  0  0  0  0
    9.8220   -7.7160   22.5160 N   0  0  0  0  0  0  0  0  0  0  0  0
    8.9970   -2.7100   24.5990 C   0  0  0  0  0  0  0  0  0  0  0  0
    8.6650   -1.5610   23.9360 C   0  0  0  0  0  0  0  0  0  0  0  0
    7.9190   -1.5540   22.8310 C   0  0  0  0  0  0  0  0  0  0  0  0
    7.7720   -0.2460   22.4150 C   0  0  0  0  0  0  0  0  0  0  0  0
    6.9150    0.1410   21.3320 O   0  0  0  0  0  0  0  0  0  0  0  0
    8.4940    0.7230   23.0900 C   0  0  0  0  0  0  0  0  0  0  0  0
    7.8470    1.8540   23.6020 C   0  0  0  0  0  0  0  0  0  0  0  0
    9.6690    1.1510   22.2300 C   0  0  0  0  0  0  0  0  0  0  0  0
    9.0190   -0.1510   24.2600 C   0  0  0  0  0  0  0  0  0  0  0  0
    5.3340   -3.0800   21.5270 C   0  0  1  0  0  0  0  0  0  0  0  0
    5.2880   -4.4150   22.0100 C   0  0  0  0  0  0  0  0  0  0  0  0
    4.3830   -4.6360   23.0770 C   0  0  0  0  0  0  0  0  0  0  0  0
    4.3270   -3.1540   24.0220 S   0  0  0  0  0  0  0  0  0  0  0  0
    5.3550   -3.2090   25.0320 O   0  0  0  0  0  0  0  0  0  0  0  0
    2.9420   -2.8950   24.3410 O   0  0  0  0  0  0  0  0  0  0  0  0
    4.8450   -2.1420   22.6590 C   0  0  0  0  0  0  0  0  0  0  0  0
  1  2  1  0
  2  3  2  0
  2  4  1  0
  4  5  1  0
  5  6  2  0
  6  7  1  0
  7  8  1  0
  8  9  2  0
  9 10  1  0
 10 11  2  0
  8 12  1  0
 11 12  1  0
 12 13  1  0
 13 14  2  0
 14 15  1  0
 15 16  2  0
 16 17  1  0
 17 18  2  0
 18 19  1  0
 19 20  2  0
 19 21  1  0
 21 22  1  0
 18 23  1  0
 23 24  2  0
 13 25  1  0
 16 25  1  0
 24 25  1  0
  7 26  2  0
 26 27  1  0
  5 28  1  0
 27 28  2  0
 28 29  1  0
 29 30  2  0
 29 31  1  0
 31 32  1  0
 31 33  1  0
 27 34  1  0
 31 34  1  0
 35  4  1  1
 35 36  1  0
 36 37  1  0
 38 37  1  0
 38 39  2  0
 38 40  2  0
 35 41  1  0
 38 41  1  0
M  END
