INS-INS-9c68b1a9-1-chloroacetamide
     RDKit          3D

 37 41  0  0  0  0  0  0  0  0999 V2000
    7.0520   -3.0970   19.0280 C   0  0  0  0  0  0  0  0  0  0  0  0
    6.0920   -3.6240   20.0670 C   0  0  0  0  0  0  0  0  0  0  0  0
    5.2080   -4.4150   19.8120 O   0  0  0  0  0  0  0  0  0  0  0  0
    6.2470   -3.2050   21.3780 N   0  0  0  0  0  0  0  0  0  0  0  0
    5.9340   -1.8430   21.7870 C   0  0  0  0  0  0  0  0  0  0  0  0
    6.9580   -0.9580   22.0300 C   0  0  2  0  0  0  0  0  0  0  0  0
    6.8630    0.1490   21.1230 N   0  0  0  0  0  0  0  0  0  0  0  0
    7.4540    1.3680   21.2430 C   0  0  0  0  0  0  0  0  0  0  0  0
    8.3010    1.8490   22.2430 C   0  0  0  0  0  0  0  0  0  0  0  0
    7.1180    2.1650   20.2010 N   0  0  0  0  0  0  0  0  0  0  0  0
    6.3000    1.4780   19.3500 N   0  0  0  0  0  0  0  0  0  0  0  0
    6.0930    0.1530   19.8860 C   0  0  0  0  0  0  0  0  0  0  0  0
    5.2210   -0.9070   19.1880 C   0  0  0  0  0  0  0  0  0  0  0  0
    8.2170   -1.5360   21.9650 C   0  0  0  0  0  0  0  0  0  0  0  0
    8.4560   -2.3490   23.0130 N   0  0  0  0  0  0  0  0  0  0  0  0
    9.7470   -2.5190   23.6550 C   0  0  0  0  0  0  0  0  0  0  0  0
   10.3350   -1.1240   23.6890 C   0  0  0  0  0  0  0  0  0  0  0  0
   11.6760   -1.0100   23.0920 C   0  0  0  0  0  0  0  0  0  0  0  0
   12.2670    0.3260   23.0940 C   0  0  0  0  0  0  0  0  0  0  0  0
   13.5970    0.3290   22.4900 C   0  0  0  0  0  0  0  0  0  0  0  0
   11.5800    1.3960   23.6230 C   0  0  0  0  0  0  0  0  0  0  0  0
   10.2900    1.3140   24.1970 C   0  0  0  0  0  0  0  0  0  0  0  0
    9.6910    2.4590   24.6850 C   0  0  0  0  0  0  0  0  0  0  0  0
    8.4370    2.3750   25.2620 C   0  0  0  0  0  0  0  0  0  0  0  0
    7.8290    3.5240   25.7650 C   0  0  0  0  0  0  0  0  0  0  0  0
    7.8060    1.1350   25.3290 C   0  0  0  0  0  0  0  0  0  0  0  0
    8.4210   -0.0200   24.8170 C   0  0  0  0  0  0  0  0  0  0  0  0
    9.6930    0.0350   24.2270 C   0  0  0  0  0  0  0  0  0  0  0  0
    7.4020   -3.2900   23.4300 C   0  0  0  0  0  0  0  0  0  0  0  0
    6.9020   -4.0620   22.3840 C   0  0  1  0  0  0  0  0  0  0  0  0
    6.1560   -5.2050   22.7130 C   0  0  0  0  0  0  0  0  0  0  0  0
    4.8840   -5.0650   23.2830 C   0  0  0  0  0  0  0  0  0  0  0  0
    3.9970   -6.0700   22.8990 C   0  0  0  0  0  0  0  0  0  0  0  0
    2.6170   -5.9110   23.5210 C   0  0  0  0  0  0  0  0  0  0  0  0
    2.3100   -4.9020   24.3500 N   0  0  0  0  0  0  0  0  0  0  0  0
    3.3040   -4.0250   24.6050 C   0  0  0  0  0  0  0  0  0  0  0  0
    4.5650   -4.0550   24.1180 N   0  0  0  0  0  0  0  0  0  0  0  0
  1  2  1  0
  2  3  2  0
  2  4  1  0
  4  5  1  0
  5  6  1  0
  6  7  1  6
  7  8  1  0
  8  9  1  0
  8 10  2  0
 10 11  1  0
  7 12  1  0
 11 12  2  0
 12 13  1  0
  6 14  1  0
 14 15  1  0
 15 16  1  0
 16 17  1  0
 17 18  2  0
 18 19  1  0
 19 20  1  0
 19 21  2  0
 21 22  1  0
 22 23  1  0
 23 24  2  0
 24 25  1  0
 24 26  1  0
 26 27  2  0
 17 28  1  0
 22 28  2  0
 27 28  1  0
 15 29  1  0
  4 30  1  0
 29 30  1  0
 30 31  1  1
 31 32  1  0
 32 33  2  0
 33 34  1  0
 34 35  2  0
 35 36  1  0
 32 37  1  0
 36 37  2  0
M  END
