INS-INS-9c68b1a9-1-vinylsulfonamide
     RDKit          3D

 39 43  0  0  0  0  0  0  0  0999 V2000
    6.1480   -5.6290   19.9670 C   0  0  0  0  0  0  0  0  0  0  0  0
    6.3070   -4.7790   21.1320 C   0  0  0  0  0  0  0  0  0  0  0  0
    6.0670   -3.1650   20.5460 S   0  0  0  0  0  0  0  0  0  0  0  0
    4.7600   -3.1150   19.9620 O   0  0  0  0  0  0  0  0  0  0  0  0
    7.2270   -2.6880   19.8450 O   0  0  0  0  0  0  0  0  0  0  0  0
    6.0170   -2.5470   22.0980 N   0  0  0  0  0  0  0  0  0  0  0  0
    6.2120   -1.1200   22.2340 C   0  0  0  0  0  0  0  0  0  0  0  0
    7.3690   -0.5110   21.8010 C   0  0  2  0  0  0  0  0  0  0  0  0
    6.9560    0.1520   20.5470 N   0  0  0  0  0  0  0  0  0  0  0  0
    6.9330   -0.1700   19.1840 C   0  0  0  0  0  0  0  0  0  0  0  0
    7.3510   -1.3220   18.5250 C   0  0  0  0  0  0  0  0  0  0  0  0
    6.3910    0.8640   18.4230 N   0  0  0  0  0  0  0  0  0  0  0  0
    6.0580    1.8630   19.2970 N   0  0  0  0  0  0  0  0  0  0  0  0
    6.4020    1.4740   20.6550 C   0  0  0  0  0  0  0  0  0  0  0  0
    6.1900    2.3380   21.9180 C   0  0  0  0  0  0  0  0  0  0  0  0
    8.5130   -1.3520   21.8380 C   0  0  0  0  0  0  0  0  0  0  0  0
    8.7020   -2.1590   22.9670 N   0  0  0  0  0  0  0  0  0  0  0  0
    9.8750   -2.1490   23.8560 C   0  0  0  0  0  0  0  0  0  0  0  0
   10.4700   -0.7740   23.7330 C   0  0  0  0  0  0  0  0  0  0  0  0
   11.7770   -0.6980   23.0410 C   0  0  0  0  0  0  0  0  0  0  0  0
   12.3380    0.6630   22.9200 C   0  0  0  0  0  0  0  0  0  0  0  0
   13.6350    0.7530   22.2210 C   0  0  0  0  0  0  0  0  0  0  0  0
   11.6710    1.7650   23.4260 C   0  0  0  0  0  0  0  0  0  0  0  0
   10.4210    1.6890   24.0830 C   0  0  0  0  0  0  0  0  0  0  0  0
    9.8270    2.8680   24.5440 C   0  0  0  0  0  0  0  0  0  0  0  0
    8.6000    2.8180   25.2020 C   0  0  0  0  0  0  0  0  0  0  0  0
    7.9990    3.9830   25.6730 C   0  0  0  0  0  0  0  0  0  0  0  0
    8.0090    1.5760   25.3700 C   0  0  0  0  0  0  0  0  0  0  0  0
    8.6260    0.4260   24.8900 C   0  0  0  0  0  0  0  0  0  0  0  0
    9.8530    0.4090   24.2250 C   0  0  0  0  0  0  0  0  0  0  0  0
    7.5560   -2.6150   23.7790 C   0  0  0  0  0  0  0  0  0  0  0  0
    6.6120   -3.3830   23.1360 C   0  0  1  0  0  0  0  0  0  0  0  0
    5.6690   -4.0770   23.9170 C   0  0  0  0  0  0  0  0  0  0  0  0
    5.1700   -3.5460   25.1210 C   0  0  0  0  0  0  0  0  0  0  0  0
    6.0920   -2.9510   25.9760 C   0  0  0  0  0  0  0  0  0  0  0  0
    5.5270   -2.3960   27.2640 C   0  0  0  0  0  0  0  0  0  0  0  0
    4.2250   -2.4660   27.5710 N   0  0  0  0  0  0  0  0  0  0  0  0
    3.4550   -3.0780   26.6320 C   0  0  0  0  0  0  0  0  0  0  0  0
    3.8550   -3.6150   25.4390 N   0  0  0  0  0  0  0  0  0  0  0  0
  1  2  1  0
  3  2  1  0
  3  4  2  0
  3  5  2  0
  3  6  1  0
  6  7  1  0
  7  8  1  0
  8  9  1  6
  9 10  1  0
 10 11  1  0
 10 12  2  0
 12 13  1  0
  9 14  1  0
 13 14  2  0
 14 15  1  0
  8 16  1  0
 16 17  1  0
 17 18  1  0
 18 19  1  0
 19 20  2  0
 20 21  1  0
 21 22  1  0
 21 23  2  0
 23 24  1  0
 24 25  1  0
 25 26  2  0
 26 27  1  0
 26 28  1  0
 28 29  2  0
 19 30  1  0
 24 30  2  0
 29 30  1  0
 17 31  1  0
  6 32  1  0
 31 32  1  0
 32 33  1  1
 33 34  1  0
 34 35  2  0
 35 36  1  0
 36 37  2  0
 37 38  1  0
 34 39  1  0
 38 39  2  0
M  END
