INS-INS-7e24ab41-1-nitrile
     RDKit          3D

 40 45  0  0  0  0  0  0  0  0999 V2000
    6.7400   -3.6060   20.0440 C   0  0  0  0  0  0  0  0  0  0  0  0
    5.6780   -4.3280   19.8800 N   0  0  0  0  0  0  0  0  0  0  0  0
    6.6880   -2.2670   20.4450 N   0  0  0  0  0  0  0  0  0  0  0  0
    6.5600   -1.7500   21.8630 C   0  0  0  0  0  0  0  0  0  0  0  0
    5.2790   -2.1040   22.6420 C   0  0  0  0  0  0  0  0  0  0  0  0
    5.0970   -1.6400   23.9700 C   0  0  0  0  0  0  0  0  0  0  0  0
    3.9290   -1.9730   24.6920 C   0  0  0  0  0  0  0  0  0  0  0  0
    3.0080   -1.1820   25.3690 C   0  0  0  0  0  0  0  0  0  0  0  0
    2.0210   -1.9580   25.9290 C   0  0  0  0  0  0  0  0  0  0  0  0
    2.3330   -3.3390   25.5920 N   0  0  0  0  0  0  0  0  0  0  0  0
    3.4890   -3.2750   24.8580 N   0  0  0  0  0  0  0  0  0  0  0  0
    4.2610   -4.3690   24.3050 C   0  0  0  0  0  0  0  0  0  0  0  0
    3.9770   -5.3990   23.5180 N   0  0  0  0  0  0  0  0  0  0  0  0
    5.1490   -6.1180   23.2810 N   0  0  0  0  0  0  0  0  0  0  0  0
    6.1050   -5.3380   24.0480 C   0  0  0  0  0  0  0  0  0  0  0  0
    7.5710   -5.6280   24.1660 C   0  0  0  0  0  0  0  0  0  0  0  0
    8.2460   -4.5790   25.0790 C   0  0  0  0  0  0  0  0  0  0  0  0
    9.7190   -4.6060   25.4380 C   0  0  0  0  0  0  0  0  0  0  0  0
   10.5250   -3.9010   24.8390 O   0  0  0  0  0  0  0  0  0  0  0  0
    9.9530   -5.4500   26.4670 N   0  0  0  0  0  0  0  0  0  0  0  0
    9.2810   -5.2450   27.7260 C   0  0  0  0  0  0  0  0  0  0  0  0
    7.6260   -3.5180   25.6990 C   0  0  0  0  0  0  0  0  0  0  0  0
    6.2620   -3.3990   25.4740 C   0  0  0  0  0  0  0  0  0  0  0  0
    5.5560   -4.2980   24.6660 N   0  0  0  0  0  0  0  0  0  0  0  0
    6.1020   -0.8540   24.5500 C   0  0  0  0  0  0  0  0  0  0  0  0
    7.2600   -0.5370   23.8400 C   0  0  0  0  0  0  0  0  0  0  0  0
    7.4940   -0.9650   22.5500 C   0  0  0  0  0  0  0  0  0  0  0  0
    8.7270   -0.4870   22.1450 C   0  0  0  0  0  0  0  0  0  0  0  0
    9.3440   -0.8580   21.1720 O   0  0  0  0  0  0  0  0  0  0  0  0
    9.2800    0.4940   22.9600 C   0  0  0  0  0  0  0  0  0  0  0  0
   10.6570    0.4430   23.2400 C   0  0  0  0  0  0  0  0  0  0  0  0
    8.9620    1.8400   22.2980 C   0  0  0  0  0  0  0  0  0  0  0  0
    8.4350    0.2850   24.2760 C   0  0  0  0  0  0  0  0  0  0  0  0
    6.3520   -1.2860   19.3970 C   0  0  1  0  0  0  0  0  0  0  0  0
    5.0110   -1.0090   19.2630 C   0  0  0  0  0  0  0  0  0  0  0  0
    4.5560   -0.0720   20.1860 C   0  0  0  0  0  0  0  0  0  0  0  0
    5.7130    1.2240   19.9180 S   0  0  0  0  0  0  0  0  0  0  0  0
    5.9660    1.8970   21.1720 O   0  0  0  0  0  0  0  0  0  0  0  0
    5.3720    1.9200   18.7070 O   0  0  0  0  0  0  0  0  0  0  0  0
    7.0260    0.0790   19.5750 C   0  0  0  0  0  0  0  0  0  0  0  0
  1  2  2  3
  1  3  1  0
  3  4  1  0
  4  5  2  0
  5  6  1  0
  6  7  1  0
  7  8  2  0
  8  9  1  0
  9 10  2  0
  7 11  1  0
 10 11  1  0
 11 12  1  0
 12 13  2  0
 13 14  1  0
 14 15  2  0
 15 16  1  0
 16 17  2  0
 17 18  1  0
 18 19  2  0
 18 20  1  0
 20 21  1  0
 17 22  1  0
 22 23  2  0
 12 24  1  0
 15 24  1  0
 23 24  1  0
  6 25  2  0
 25 26  1  0
  4 27  1  0
 26 27  2  0
 27 28  1  0
 28 29  2  0
 28 30  1  0
 30 31  1  0
 30 32  1  0
 26 33  1  0
 30 33  1  0
 34  3  1  1
 34 35  1  0
 35 36  1  0
 37 36  1  0
 37 38  2  0
 37 39  2  0
 34 40  1  0
 37 40  1  0
M  END
