INS-INS-9c68b1a9-1-nitrile
     RDKit          3D

 36 40  0  0  0  0  0  0  0  0999 V2000
    6.7250   -3.4930   19.6810 C   0  0  0  0  0  0  0  0  0  0  0  0
    5.7770   -3.2190   18.8730 N   0  0  0  0  0  0  0  0  0  0  0  0
    6.8040   -2.8150   20.8520 N   0  0  0  0  0  0  0  0  0  0  0  0
    6.2070   -1.4920   20.8290 C   0  0  0  0  0  0  0  0  0  0  0  0
    6.8190   -0.7060   21.9370 C   0  0  2  0  0  0  0  0  0  0  0  0
    6.4880    0.5820   21.6760 N   0  0  0  0  0  0  0  0  0  0  0  0
    6.0440    1.5280   22.5830 C   0  0  0  0  0  0  0  0  0  0  0  0
    5.8930    1.2210   23.9200 C   0  0  0  0  0  0  0  0  0  0  0  0
    5.7950    2.7430   21.9320 N   0  0  0  0  0  0  0  0  0  0  0  0
    6.0800    2.5340   20.6310 N   0  0  0  0  0  0  0  0  0  0  0  0
    6.5280    1.2010   20.3490 C   0  0  0  0  0  0  0  0  0  0  0  0
    6.9180    0.5340   19.1760 C   0  0  0  0  0  0  0  0  0  0  0  0
    8.3090   -1.0820   22.0250 C   0  0  0  0  0  0  0  0  0  0  0  0
    8.5970   -2.2150   22.7760 N   0  0  0  0  0  0  0  0  0  0  0  0
    9.4960   -2.1610   23.9390 C   0  0  0  0  0  0  0  0  0  0  0  0
   10.2730   -0.8690   23.7800 C   0  0  0  0  0  0  0  0  0  0  0  0
   11.6230   -0.9150   23.1220 C   0  0  0  0  0  0  0  0  0  0  0  0
   12.3550    0.3800   22.9680 C   0  0  0  0  0  0  0  0  0  0  0  0
   13.6680    0.2210   22.3270 C   0  0  0  0  0  0  0  0  0  0  0  0
   11.8630    1.5880   23.3790 C   0  0  0  0  0  0  0  0  0  0  0  0
   10.6130    1.6610   23.9910 C   0  0  0  0  0  0  0  0  0  0  0  0
   10.1680    2.9280   24.3780 C   0  0  0  0  0  0  0  0  0  0  0  0
    8.9510    3.1230   25.0100 C   0  0  0  0  0  0  0  0  0  0  0  0
    8.4060    4.3230   25.4470 C   0  0  0  0  0  0  0  0  0  0  0  0
    8.1110    1.8550   25.2590 C   0  0  0  0  0  0  0  0  0  0  0  0
    8.5580    0.5990   24.8590 C   0  0  0  0  0  0  0  0  0  0  0  0
    9.7820    0.4000   24.2190 C   0  0  0  0  0  0  0  0  0  0  0  0
    7.5590   -3.0380   23.1100 C   0  0  0  0  0  0  0  0  0  0  0  0
    6.6050   -3.4430   22.1520 C   0  0  1  0  0  0  0  0  0  0  0  0
    5.2740   -3.2000   22.4890 C   0  0  0  0  0  0  0  0  0  0  0  0
    4.4670   -4.2070   22.9900 C   0  0  0  0  0  0  0  0  0  0  0  0
    3.7220   -3.9700   24.1370 C   0  0  0  0  0  0  0  0  0  0  0  0
    2.9120   -4.9920   24.6230 C   0  0  0  0  0  0  0  0  0  0  0  0
    2.8430   -6.1800   24.0100 N   0  0  0  0  0  0  0  0  0  0  0  0
    3.6030   -6.3160   22.9060 C   0  0  0  0  0  0  0  0  0  0  0  0
    4.4270   -5.3920   22.3400 N   0  0  0  0  0  0  0  0  0  0  0  0
  1  2  2  3
  1  3  1  0
  3  4  1  0
  4  5  1  0
  5  6  1  6
  6  7  1  0
  7  8  1  0
  7  9  2  0
  9 10  1  0
  6 11  1  0
 10 11  2  0
 11 12  1  0
  5 13  1  0
 13 14  1  0
 14 15  1  0
 15 16  1  0
 16 17  2  0
 17 18  1  0
 18 19  1  0
 18 20  2  0
 20 21  1  0
 21 22  1  0
 22 23  2  0
 23 24  1  0
 23 25  1  0
 25 26  2  0
 16 27  1  0
 21 27  2  0
 26 27  1  0
 14 28  1  0
  3 29  1  0
 28 29  1  0
 29 30  1  1
 30 31  1  0
 31 32  2  0
 32 33  1  0
 33 34  2  0
 34 35  1  0
 31 36  1  0
 35 36  2  0
M  END
