INS-INS-a68edfff-1-chloroacetamide
     RDKit          3D

 38 42  0  0  0  0  0  0  0  0999 V2000
    7.5530   -4.4610   20.5960 C   0  0  0  0  0  0  0  0  0  0  0  0
    6.2190   -3.7360   20.1780 C   0  0  0  0  0  0  0  0  0  0  0  0
    5.8360   -3.5350   19.0340 O   0  0  0  0  0  0  0  0  0  0  0  0
    5.4100   -3.2560   21.2490 N   0  0  0  0  0  0  0  0  0  0  0  0
    6.3180   -2.5160   21.9910 C   0  0  0  0  0  0  0  0  0  0  0  0
    7.0290   -3.6140   22.5270 C   0  0  0  0  0  0  0  0  0  0  0  0
    8.0530   -3.1500   23.3380 C   0  0  0  0  0  0  0  0  0  0  0  0
    8.6410   -4.4070   23.7860 C   0  0  0  0  0  0  0  0  0  0  0  0
    8.7860   -5.5940   22.5840 S   0  0  0  0  0  0  0  0  0  0  0  0
    9.5110   -6.6590   23.8150 C   0  0  0  0  0  0  0  0  0  0  0  0
    9.6130   -6.0490   25.2150 C   0  0  0  0  0  0  0  0  0  0  0  0
    9.0480   -4.7220   24.9840 C   0  0  0  0  0  0  0  0  0  0  0  0
    8.9780   -3.7630   26.0800 C   0  0  0  0  0  0  0  0  0  0  0  0
    8.2540   -3.8250   27.2320 O   0  0  0  0  0  0  0  0  0  0  0  0
    9.9070   -2.7000   25.6090 C   0  0  0  0  0  0  0  0  0  0  0  0
    9.6390   -1.2760   25.1800 C   0  0  0  0  0  0  0  0  0  0  0  0
   10.7230   -0.4940   24.7550 C   0  0  0  0  0  0  0  0  0  0  0  0
   12.1520   -1.0260   24.7140 C   0  0  0  0  0  0  0  0  0  0  0  0
   12.2620   -2.4750   25.1740 C   0  0  0  0  0  0  0  0  0  0  0  0
   13.6240   -2.9560   25.1440 C   0  0  0  0  0  0  0  0  0  0  0  0
   14.4410   -2.3050   25.9690 F   0  0  0  0  0  0  0  0  0  0  0  0
   13.6550   -4.1790   25.7180 F   0  0  0  0  0  0  0  0  0  0  0  0
   14.0990   -2.9690   23.8830 F   0  0  0  0  0  0  0  0  0  0  0  0
   11.1350   -3.2190   25.5850 C   0  0  0  0  0  0  0  0  0  0  0  0
    8.3760   -1.8290   23.6160 C   0  0  0  0  0  0  0  0  0  0  0  0
    7.6700   -0.5590   23.0940 C   0  0  0  0  0  0  0  0  0  0  0  0
    6.5920   -1.1750   22.2370 C   0  0  0  0  0  0  0  0  0  0  0  0
    5.8460    0.0410   21.6720 C   0  0  0  0  0  0  0  0  0  0  0  0
    4.9920    0.0510   20.8110 O   0  0  0  0  0  0  0  0  0  0  0  0
    6.3680    1.1600   22.3510 N   0  0  0  0  0  0  0  0  0  0  0  0
    7.6520    0.9210   23.1130 C   0  0  0  0  0  0  0  0  0  0  0  0
    4.8370   -4.2590   22.2430 C   0  0  1  0  0  0  0  0  0  0  0  0
    5.2530   -5.7180   22.0620 C   0  0  0  0  0  0  0  0  0  0  0  0
    4.3860   -6.5010   23.0840 C   0  0  0  0  0  0  0  0  0  0  0  0
    3.9920   -5.3260   24.3700 S   0  0  0  0  0  0  0  0  0  0  0  0
    4.5210   -5.8190   25.6180 O   0  0  0  0  0  0  0  0  0  0  0  0
    2.6070   -4.9190   24.2260 O   0  0  0  0  0  0  0  0  0  0  0  0
    5.0660   -4.0420   23.7380 C   0  0  0  0  0  0  0  0  0  0  0  0
  1  2  1  0
  2  3  2  0
  2  4  1  0
  4  5  1  0
  5  6  2  0
  6  7  1  0
  7  8  1  0
  8  9  1  0
  9 10  1  0
 10 11  2  0
  8 12  2  0
 11 12  1  0
 12 13  1  0
 13 14  2  0
 13 15  1  0
 15 16  2  0
 16 17  1  0
 17 18  2  0
 18 19  1  0
 19 20  1  0
 20 21  1  0
 20 22  1  0
 20 23  1  0
 15 24  1  0
 19 24  2  0
  7 25  2  0
 25 26  1  0
  5 27  1  0
 26 27  2  0
 27 28  1  0
 28 29  2  0
 28 30  1  0
 26 31  1  0
 30 31  1  0
 32  4  1  6
 32 33  1  0
 33 34  1  0
 35 34  1  0
 35 36  2  0
 35 37  2  0
 32 38  1  0
 35 38  1  0
M  END
