INS-INS-7e24ab41-1-vinylsulfonamide
     RDKit          3D

 43 48  0  0  0  0  0  0  0  0999 V2000
    9.0170   -4.0970   20.5870 C   0  0  0  0  0  0  0  0  0  0  0  0
    7.7080   -3.2390   20.5570 C   0  0  0  0  0  0  0  0  0  0  0  0
    6.1210   -4.0360   20.9770 S   0  0  0  0  0  0  0  0  0  0  0  0
    5.0200   -3.2520   20.4530 O   0  0  0  0  0  0  0  0  0  0  0  0
    6.0430   -5.4140   20.6190 O   0  0  0  0  0  0  0  0  0  0  0  0
    5.8040   -4.0500   22.6260 N   0  0  0  0  0  0  0  0  0  0  0  0
    6.7740   -4.2350   23.6660 C   0  0  0  0  0  0  0  0  0  0  0  0
    6.7210   -3.4300   24.7620 C   0  0  0  0  0  0  0  0  0  0  0  0
    7.5670   -3.5760   25.8400 C   0  0  0  0  0  0  0  0  0  0  0  0
    7.4310   -2.7160   26.9480 C   0  0  0  0  0  0  0  0  0  0  0  0
    7.0640   -3.0000   28.2380 C   0  0  0  0  0  0  0  0  0  0  0  0
    7.0420   -1.7580   29.0430 C   0  0  0  0  0  0  0  0  0  0  0  0
    7.4210   -0.6470   28.1820 N   0  0  0  0  0  0  0  0  0  0  0  0
    7.6290   -1.3370   26.9750 N   0  0  0  0  0  0  0  0  0  0  0  0
    8.0670   -0.6720   25.7240 C   0  0  0  0  0  0  0  0  0  0  0  0
    7.5050    0.4220   24.9780 N   0  0  0  0  0  0  0  0  0  0  0  0
    8.2900    0.6830   23.8800 N   0  0  0  0  0  0  0  0  0  0  0  0
    9.3580   -0.3120   24.0010 C   0  0  0  0  0  0  0  0  0  0  0  0
   10.5320   -0.4530   23.0310 C   0  0  0  0  0  0  0  0  0  0  0  0
   11.4880   -1.5890   23.4520 C   0  0  0  0  0  0  0  0  0  0  0  0
   12.7630   -1.8910   22.6870 C   0  0  0  0  0  0  0  0  0  0  0  0
   12.8320   -1.5930   21.5030 O   0  0  0  0  0  0  0  0  0  0  0  0
   13.7610   -2.4830   23.4100 N   0  0  0  0  0  0  0  0  0  0  0  0
   13.6060   -2.5670   24.8690 C   0  0  0  0  0  0  0  0  0  0  0  0
   11.1530   -2.3300   24.5940 C   0  0  0  0  0  0  0  0  0  0  0  0
   10.0340   -2.0650   25.3730 C   0  0  0  0  0  0  0  0  0  0  0  0
    9.1440   -1.0450   25.0740 N   0  0  0  0  0  0  0  0  0  0  0  0
    8.6410   -4.7140   25.8330 C   0  0  0  0  0  0  0  0  0  0  0  0
    8.5560   -5.4400   24.6490 C   0  0  0  0  0  0  0  0  0  0  0  0
    7.6910   -5.1980   23.6190 C   0  0  0  0  0  0  0  0  0  0  0  0
    7.9040   -6.0640   22.6190 C   0  0  0  0  0  0  0  0  0  0  0  0
    7.5490   -5.9880   21.4560 O   0  0  0  0  0  0  0  0  0  0  0  0
    8.6030   -7.1410   22.9750 C   0  0  0  0  0  0  0  0  0  0  0  0
    7.7200   -8.1860   23.1540 C   0  0  0  0  0  0  0  0  0  0  0  0
    9.7370   -7.3350   22.0220 C   0  0  0  0  0  0  0  0  0  0  0  0
    9.3190   -6.6120   24.2470 C   0  0  0  0  0  0  0  0  0  0  0  0
    4.6380   -4.8850   22.9780 C   0  0  1  0  0  0  0  0  0  0  0  0
    4.6390   -6.1900   22.4560 C   0  0  0  0  0  0  0  0  0  0  0  0
    3.3700   -6.6490   22.8720 C   0  0  0  0  0  0  0  0  0  0  0  0
    3.4730   -6.5560   24.6180 S   0  0  0  0  0  0  0  0  0  0  0  0
    4.1580   -7.7310   25.1200 O   0  0  0  0  0  0  0  0  0  0  0  0
    2.1860   -6.1090   25.0880 O   0  0  0  0  0  0  0  0  0  0  0  0
    4.5760   -5.1610   24.4990 C   0  0  0  0  0  0  0  0  0  0  0  0
  1  2  1  0
  2  3  1  0
  3  4  2  0
  3  5  2  0
  3  6  1  0
  6  7  1  0
  7  8  2  0
  8  9  1  0
  9 10  1  0
 10 11  2  0
 11 12  1  0
 12 13  2  0
 10 14  1  0
 13 14  1  0
 14 15  1  0
 15 16  2  0
 16 17  1  0
 17 18  2  0
 18 19  1  0
 19 20  2  0
 20 21  1  0
 21 22  2  0
 21 23  1  0
 23 24  1  0
 20 25  1  0
 25 26  2  0
 15 27  1  0
 18 27  1  0
 26 27  1  0
  9 28  2  0
 28 29  1  0
  7 30  1  0
 29 30  2  0
 30 31  1  0
 31 32  2  0
 31 33  1  0
 33 34  1  0
 33 35  1  0
 29 36  1  0
 33 36  1  0
 37  6  1  1
 37 38  1  0
 38 39  1  0
 40 39  1  0
 40 41  2  0
 40 42  2  0
 37 43  1  0
 40 43  1  0
M  END
