JAC-SHE-fc18d444-1
     RDKit          3D

 25 27  0  0  0  0  0  0  0  0999 V2000
   20.9430    3.0860   27.1790 C   0  0  0  0  0  0  0  0  0  0  0  0
   20.6780    3.4840   25.6850 C   0  0  0  0  0  0  0  0  0  0  0  0
   21.5740    3.3330   24.8640 O   0  0  0  0  0  0  0  0  0  0  0  0
   19.4830    3.9830   25.3350 N   0  0  0  0  0  0  0  0  0  0  0  0
   19.3030    4.7840   24.1250 C   0  0  0  0  0  0  0  0  0  0  0  0
   17.8310    4.7450   23.6160 C   0  0  0  0  0  0  0  0  0  0  0  0
   17.5470    4.0860   22.4030 C   0  0  0  0  0  0  0  0  0  0  0  0
   16.0780    4.1020   21.9700 C   0  0  0  0  0  0  0  0  0  0  0  0
   15.4070    4.8490   23.0150 C   0  0  0  0  0  0  0  0  0  0  0  0
   13.8820    5.0590   22.8370 C   0  0  0  0  0  0  0  0  0  0  0  0
   13.6750    6.3000   22.1450 O   0  0  0  0  0  0  0  0  0  0  0  0
   12.7870    4.2520   23.2250 N   0  0  0  0  0  0  0  0  0  0  0  0
   11.5670    4.9170   23.6060 C   0  0  0  0  0  0  0  0  0  0  0  0
   11.7070    5.9290   24.7420 C   0  0  0  0  0  0  0  0  0  0  0  0
   10.4730    6.6870   25.2140 C   0  0  0  0  0  0  0  0  0  0  0  0
    9.1420    6.4120   24.5360 C   0  0  0  0  0  0  0  0  0  0  0  0
    9.0810    5.4700   23.4960 C   0  0  0  0  0  0  0  0  0  0  0  0
   10.3110    4.7180   23.0320 C   0  0  0  0  0  0  0  0  0  0  0  0
   12.5990    2.8020   23.0410 C   0  0  0  0  0  0  0  0  0  0  0  0
   13.5980    1.8610   22.3810 C   0  0  0  0  0  0  0  0  0  0  0  0
   13.1740    0.4270   22.3470 C   0  0  0  0  0  0  0  0  0  0  0  0
   11.8470    0.0020   22.9220 C   0  0  0  0  0  0  0  0  0  0  0  0
   11.0120    0.8920   23.4780 N   0  0  0  0  0  0  0  0  0  0  0  0
   11.3980    2.2100   23.5190 C   0  0  0  0  0  0  0  0  0  0  0  0
   16.5660    5.1740   23.9510 N   0  0  0  0  0  0  0  0  0  0  0  0
  1  2  1  0
  2  3  2  0
  2  4  1  0
  4  5  1  0
  5  6  1  0
  6  7  2  0
  7  8  1  0
  8  9  2  0
  9 10  1  0
 10 11  2  0
 10 12  1  0
 12 13  1  0
 13 14  2  0
 14 15  1  0
 15 16  2  0
 16 17  1  0
 13 18  1  0
 17 18  2  0
 12 19  1  0
 19 20  2  0
 20 21  1  0
 21 22  2  0
 22 23  1  0
 19 24  1  0
 23 24  2  0
  6 25  1  0
  9 25  1  0
M  END
