JAN-GHE-bf40f168-2-acrylamide
     RDKit          3D

 34 37  0  0  0  0  0  0  0  0999 V2000
    7.4410   -3.1040   19.0760 C   0  0  0  0  0  0  0  0  0  0  0  0
    7.0080   -3.1850   20.5160 C   0  0  0  0  0  0  0  0  0  0  0  0
    6.1310   -4.3920   20.7120 C   0  0  0  0  0  0  0  0  0  0  0  0
    5.1880   -4.6000   19.9530 O   0  0  0  0  0  0  0  0  0  0  0  0
    6.4630   -5.2240   21.7550 N   0  0  0  0  0  0  0  0  0  0  0  0
    5.4840   -6.1030   22.3290 C   0  0  0  0  0  0  0  0  0  0  0  0
    4.7870   -5.3640   23.4670 C   0  0  0  0  0  0  0  0  0  0  0  0
    5.7110   -5.1290   24.5960 N   0  0  0  0  0  0  0  0  0  0  0  0
    5.0900   -4.9550   26.1590 S   0  0  0  0  0  0  0  0  0  0  0  0
    4.3900   -6.2050   26.3430 O   0  0  0  0  0  0  0  0  0  0  0  0
    6.1090   -4.5380   27.0790 O   0  0  0  0  0  0  0  0  0  0  0  0
    3.9500   -3.6270   26.0440 C   0  0  0  0  0  0  0  0  0  0  0  0
    2.4960   -4.0410   26.0220 C   0  0  0  0  0  0  0  0  0  0  0  0
    1.4830   -2.9380   25.9440 C   0  0  0  0  0  0  0  0  0  0  0  0
    1.9260   -1.6180   25.8940 C   0  0  0  0  0  0  0  0  0  0  0  0
    3.2870   -1.2890   25.9070 C   0  0  0  0  0  0  0  0  0  0  0  0
    4.3180   -2.2380   25.9770 C   0  0  0  0  0  0  0  0  0  0  0  0
    5.6270   -1.6820   25.9620 C   0  0  0  0  0  0  0  0  0  0  0  0
    6.2730   -1.6040   24.7300 C   0  0  0  0  0  0  0  0  0  0  0  0
    7.6680   -1.0170   24.5980 C   0  0  0  0  0  0  0  0  0  0  0  0
    8.3660   -0.4990   25.8460 C   0  0  0  0  0  0  0  0  0  0  0  0
    9.6740    0.0520   25.7680 N   0  0  0  0  0  0  0  0  0  0  0  0
   10.5980   -0.2410   24.7310 C   0  0  0  0  0  0  0  0  0  0  0  0
   10.3630   -1.5100   23.9850 C   0  0  0  0  0  0  0  0  0  0  0  0
   11.2280   -1.8260   22.9680 C   0  0  0  0  0  0  0  0  0  0  0  0
   12.2470   -1.0410   22.6560 C   0  0  0  0  0  0  0  0  0  0  0  0
   13.0890   -1.4160   21.6100 C   0  0  0  0  0  0  0  0  0  0  0  0
   13.7170   -1.6980   20.7130 N   0  0  0  0  0  0  0  0  0  0  0  0
   12.4450    0.1320   23.3660 C   0  0  0  0  0  0  0  0  0  0  0  0
   11.6470    0.5380   24.3790 N   0  0  0  0  0  0  0  0  0  0  0  0
    7.6450   -0.6070   27.0560 C   0  0  0  0  0  0  0  0  0  0  0  0
    6.3260   -1.1800   27.1100 C   0  0  0  0  0  0  0  0  0  0  0  0
    6.4320   -4.0370   23.8920 C   0  0  0  0  0  0  0  0  0  0  0  0
    7.2850   -4.6940   22.8310 C   0  0  0  0  0  0  0  0  0  0  0  0
  1  2  1  0
  2  3  1  0
  3  4  2  0
  3  5  1  0
  5  6  1  0
  6  7  1  0
  7  8  1  0
  8  9  1  0
  9 10  2  0
  9 11  2  0
  9 12  1  0
 12 13  2  0
 13 14  1  0
 14 15  2  0
 15 16  1  0
 12 17  1  0
 16 17  2  0
 17 18  1  0
 18 19  2  0
 19 20  1  0
 20 21  2  0
 21 22  1  0
 22 23  1  0
 23 24  2  0
 24 25  1  0
 25 26  2  0
 26 27  1  0
 27 28  3  0
 26 29  1  0
 23 30  1  0
 29 30  2  0
 21 31  1  0
 18 32  1  0
 31 32  2  0
  8 33  1  0
  5 34  1  0
 33 34  1  0
M  END
