JAN-GHE-bf40f168-6-chloroacetamide
     RDKit          3D

 32 35  0  0  0  0  0  0  0  0999 V2000
    6.8850   -3.6760   19.8810 C   0  0  0  0  0  0  0  0  0  0  0  0
    6.3510   -4.8740   20.5960 C   0  0  0  0  0  0  0  0  0  0  0  0
    5.4580   -5.5090   20.0540 O   0  0  0  0  0  0  0  0  0  0  0  0
    6.9810   -5.1920   21.7900 N   0  0  0  0  0  0  0  0  0  0  0  0
    6.3700   -5.8650   22.9240 C   0  0  0  0  0  0  0  0  0  0  0  0
    4.8570   -5.7050   22.9380 C   0  0  0  0  0  0  0  0  0  0  0  0
    5.0860   -4.4260   23.6510 N   0  0  0  0  0  0  0  0  0  0  0  0
    3.8180   -3.5630   24.3820 S   0  0  0  0  0  0  0  0  0  0  0  0
    4.0470   -2.2220   23.9330 O   0  0  0  0  0  0  0  0  0  0  0  0
    2.6170   -4.2760   24.0390 O   0  0  0  0  0  0  0  0  0  0  0  0
    3.8630   -3.6180   26.1260 C   0  0  0  0  0  0  0  0  0  0  0  0
    2.7200   -4.4500   26.6880 C   0  0  0  0  0  0  0  0  0  0  0  0
    2.6650   -4.5420   28.1820 C   0  0  0  0  0  0  0  0  0  0  0  0
    3.7040   -3.8320   28.9900 C   0  0  0  0  0  0  0  0  0  0  0  0
    4.7090   -3.0970   28.3560 C   0  0  0  0  0  0  0  0  0  0  0  0
    4.8030   -2.9790   26.9620 C   0  0  0  0  0  0  0  0  0  0  0  0
    5.8750   -2.1920   26.5310 C   0  0  0  0  0  0  0  0  0  0  0  0
    6.3330   -2.1810   25.2160 C   0  0  0  0  0  0  0  0  0  0  0  0
    7.4120   -1.3800   24.8440 C   0  0  0  0  0  0  0  0  0  0  0  0
    8.1120   -0.5060   25.8750 C   0  0  0  0  0  0  0  0  0  0  0  0
    9.2450    0.2820   25.3940 N   0  0  0  0  0  0  0  0  0  0  0  0
   10.0890   -0.3240   24.4710 C   0  0  0  0  0  0  0  0  0  0  0  0
    9.7630   -1.7830   24.0760 C   0  0  0  0  0  0  0  0  0  0  0  0
   10.9010   -1.9910   23.0820 C   0  0  0  0  0  0  0  0  0  0  0  0
   11.9010   -1.1270   22.6820 C   0  0  0  0  0  0  0  0  0  0  0  0
   12.7800   -1.5340   21.7890 C   0  0  0  0  0  0  0  0  0  0  0  0
   13.4860   -1.8690   20.9520 N   0  0  0  0  0  0  0  0  0  0  0  0
   11.9630    0.1140   23.1980 C   0  0  0  0  0  0  0  0  0  0  0  0
   11.0710    0.5210   24.0800 N   0  0  0  0  0  0  0  0  0  0  0  0
    7.6100   -0.5500   27.1710 C   0  0  0  0  0  0  0  0  0  0  0  0
    6.5210   -1.3720   27.4880 C   0  0  0  0  0  0  0  0  0  0  0  0
    6.3060   -5.0530   24.2480 C   0  0  0  0  0  0  0  0  0  0  0  0
  1  2  1  0
  2  3  2  0
  2  4  1  0
  4  5  1  0
  5  6  1  0
  6  7  1  0
  7  8  1  0
  8  9  2  0
  8 10  2  0
  8 11  1  0
 11 12  2  0
 12 13  1  0
 13 14  2  0
 14 15  1  0
 11 16  1  0
 15 16  2  0
 16 17  1  0
 17 18  2  0
 18 19  1  0
 19 20  2  0
 20 21  1  0
 21 22  1  0
 22 23  2  0
 23 24  1  0
 24 25  2  0
 25 26  1  0
 26 27  3  0
 25 28  1  0
 22 29  1  0
 28 29  2  0
 20 30  1  0
 17 31  1  0
 30 31  2  0
  5 32  1  0
  7 32  1  0
M  END
