JAN-GHE-6413aaf8-3-nitrile
     RDKit          3D

 27 30  0  0  0  0  0  0  0  0999 V2000
    6.7960   -3.7270   19.7810 C   0  0  0  0  0  0  0  0  0  0  0  0
    5.5510   -3.5770   19.4960 N   0  0  0  0  0  0  0  0  0  0  0  0
    7.6160   -2.6860   20.2170 N   0  0  0  0  0  0  0  0  0  0  0  0
    7.9220   -2.3980   21.6310 C   0  0  0  0  0  0  0  0  0  0  0  0
    9.1770   -2.8050   21.8920 C   0  0  0  0  0  0  0  0  0  0  0  0
    9.4780   -1.4210   22.1700 N   0  0  0  0  0  0  0  0  0  0  0  0
   10.0570   -1.1440   23.5380 C   0  0  0  0  0  0  0  0  0  0  0  0
    9.1770   -1.5680   24.5020 C   0  0  0  0  0  0  0  0  0  0  0  0
    9.9410   -2.5650   23.8370 C   0  0  0  0  0  0  0  0  0  0  0  0
   10.8750   -1.9100   22.8830 C   0  0  0  0  0  0  0  0  0  0  0  0
   10.8480   -0.4680   22.7980 C   0  0  0  0  0  0  0  0  0  0  0  0
    9.9620    0.3690   23.5870 C   0  0  0  0  0  0  0  0  0  0  0  0
    9.7570    1.8500   23.6660 C   0  0  0  0  0  0  0  0  0  0  0  0
   10.5880    2.7760   22.7690 C   0  0  0  0  0  0  0  0  0  0  0  0
   10.6620    4.1650   23.4070 C   0  0  0  0  0  0  0  0  0  0  0  0
    9.9110    5.1810   22.8570 N   0  0  0  0  0  0  0  0  0  0  0  0
    8.7150    5.6850   23.4060 C   0  0  0  0  0  0  0  0  0  0  0  0
    8.5660    5.8900   24.6150 O   0  0  0  0  0  0  0  0  0  0  0  0
    7.6700    5.9850   22.5360 C   0  0  0  0  0  0  0  0  0  0  0  0
    7.7980    7.1020   21.5690 C   0  0  0  0  0  0  0  0  0  0  0  0
    6.6100    7.1120   20.8830 C   0  0  0  0  0  0  0  0  0  0  0  0
    5.8400    6.0680   21.4150 C   0  0  0  0  0  0  0  0  0  0  0  0
    6.4660    5.3670   22.4260 N   0  0  0  0  0  0  0  0  0  0  0  0
    8.7680    2.0550   24.6210 C   0  0  0  0  0  0  0  0  0  0  0  0
    8.3910    0.8200   25.0900 N   0  0  0  0  0  0  0  0  0  0  0  0
    9.0740   -0.1970   24.4950 C   0  0  0  0  0  0  0  0  0  0  0  0
    8.1530   -1.0050   21.9270 C   0  0  0  0  0  0  0  0  0  0  0  0
  1  2  2  3
  1  3  1  0
  3  4  1  0
  4  5  1  0
  5  6  1  0
  6  7  1  0
  7  8  1  0
  8  9  2  0
  9 10  1  0
 10 11  2  0
 11 12  1  0
 12 13  1  0
 13 14  1  0
 14 15  1  0
 15 16  1  0
 16 17  1  0
 17 18  2  0
 17 19  1  0
 19 20  2  0
 20 21  1  0
 21 22  2  0
 19 23  1  0
 22 23  1  0
 13 24  2  0
 24 25  1  0
  8 26  1  0
 12 26  2  0
 25 26  1  0
  4 27  1  0
  6 27  1  0
M  END
