JAN-GHE-1d98ec1c-10
     RDKit          3D

 24 25  0  0  0  0  0  0  0  0999 V2000
    6.6770   -2.0320   18.5530 C   0  0  0  0  0  0  0  0  0  0  0  0
    6.2270   -2.7590   19.7890 C   0  0  0  0  0  0  0  0  0  0  0  0
    5.5410   -3.7990   19.7050 O   0  0  0  0  0  0  0  0  0  0  0  0
    6.6320   -2.2290   20.9950 N   0  0  0  0  0  0  0  0  0  0  0  0
    7.6620   -1.1720   21.0530 C   0  0  0  0  0  0  0  0  0  0  0  0
    8.8210   -1.5540   21.7450 C   0  0  0  0  0  0  0  0  0  0  0  0
    8.5370   -2.0970   23.0840 N   0  0  0  0  0  0  0  0  0  0  0  0
    9.7390   -2.4590   23.8410 C   0  0  0  0  0  0  0  0  0  0  0  0
   10.7910   -1.4790   23.8030 C   0  0  0  0  0  0  0  0  0  0  0  0
   11.7310   -1.2890   22.7880 C   0  0  0  0  0  0  0  0  0  0  0  0
   12.6430   -0.2650   22.9610 C   0  0  0  0  0  0  0  0  0  0  0  0
   13.8120   -0.4070   22.9800 O   0  0  0  0  0  0  0  0  0  0  0  0
   12.0760    1.0430   23.1610 C   0  0  0  0  0  0  0  0  0  0  0  0
   12.6260    2.2930   22.7730 C   0  0  0  0  0  0  0  0  0  0  0  0
   12.2030    3.3280   22.9080 C   0  0  0  0  0  0  0  0  0  0  0  0
   11.0340    3.8060   23.4800 C   0  0  0  0  0  0  0  0  0  0  0  0
   10.3750    5.3670   23.6900 S   0  0  0  0  0  0  0  0  0  0  0  0
   11.6470    6.3800   23.2720 N   0  0  0  0  0  0  0  0  0  0  0  0
    9.2930    5.5180   22.7570 O   0  0  0  0  0  0  0  0  0  0  0  0
   10.1320    5.5550   25.0930 O   0  0  0  0  0  0  0  0  0  0  0  0
   10.3520    2.6440   23.9380 C   0  0  0  0  0  0  0  0  0  0  0  0
   10.8420    1.2960   23.7920 C   0  0  0  0  0  0  0  0  0  0  0  0
    7.5650   -3.1940   23.0550 C   0  0  0  0  0  0  0  0  0  0  0  0
    6.3140   -2.9350   22.2310 C   0  0  0  0  0  0  0  0  0  0  0  0
  1  2  1  0
  2  3  2  0
  2  4  1  0
  4  5  1  0
  5  6  1  0
  6  7  1  0
  7  8  1  0
  8  9  1  0
  9 10  2  3
 10 11  1  0
 11 12  2  0
 11 13  1  0
 13 14  2  0
 14 15  1  0
 15 16  2  0
 16 17  1  0
 17 18  1  0
 17 19  2  0
 17 20  2  0
 16 21  1  0
 13 22  1  0
 21 22  2  0
  7 23  1  0
  4 24  1  0
 23 24  1  0
M  END
