JAN-LUN-04aedcc0-3-vinylsulfonamide
     RDKit          3D

 35 39  0  0  0  0  0  0  0  0999 V2000
    7.9890   -3.4290   19.7320 C   0  0  0  0  0  0  0  0  0  0  0  0
    7.0220   -2.4600   19.1530 C   0  0  0  0  0  0  0  0  0  0  0  0
    5.6840   -2.7170   20.2150 S   0  0  0  0  0  0  0  0  0  0  0  0
    5.0710   -3.9600   19.7700 O   0  0  0  0  0  0  0  0  0  0  0  0
    4.9410   -1.4930   20.3590 O   0  0  0  0  0  0  0  0  0  0  0  0
    6.5160   -3.0140   21.6690 N   0  0  0  0  0  0  0  0  0  0  0  0
    5.7680   -3.7470   22.6980 C   0  0  0  0  0  0  0  0  0  0  0  0
    6.5670   -3.9450   23.8140 C   0  0  2  0  0  0  0  0  0  0  0  0
    6.0150   -4.6470   24.8890 C   0  0  0  0  0  0  0  0  0  0  0  0
    6.7890   -4.8590   26.0940 C   0  0  0  0  0  0  0  0  0  0  0  0
    7.9270   -4.0720   26.2460 C   0  0  0  0  0  0  0  0  0  0  0  0
    8.0140   -2.9040   25.4850 C   0  0  0  0  0  0  0  0  0  0  0  0
    7.3230   -2.8230   24.1680 C   0  0  1  0  0  0  0  0  0  0  0  0
    8.3610   -2.3990   23.2130 C   0  0  2  0  0  0  0  0  0  0  0  0
    9.4830   -1.9700   22.9750 C   0  0  0  0  0  0  0  0  0  0  0  0
   10.8950   -2.0230   22.6600 C   0  0  0  0  0  0  0  0  0  0  0  0
   11.8950   -1.0600   22.5020 C   0  0  0  0  0  0  0  0  0  0  0  0
   11.6540    0.2860   22.6360 C   0  0  0  0  0  0  0  0  0  0  0  0
   12.5150    1.1410   22.5180 O   0  0  0  0  0  0  0  0  0  0  0  0
   10.3710    0.6410   22.9030 C   0  0  0  0  0  0  0  0  0  0  0  0
    9.2630   -0.3860   23.0740 C   0  0  0  0  0  0  0  0  0  0  0  0
    8.0000    0.3410   23.3370 N   0  0  0  0  0  0  0  0  0  0  0  0
    7.8350    1.4440   22.3330 C   0  0  0  0  0  0  0  0  0  0  0  0
    8.8730    1.9110   21.4360 O   0  0  0  0  0  0  0  0  0  0  0  0
    6.5510    1.9700   22.3860 N   0  0  0  0  0  0  0  0  0  0  0  0
    5.9150    2.0070   21.1470 C   0  0  0  0  0  0  0  0  0  0  0  0
    4.8330    2.7130   20.9760 C   0  0  0  0  0  0  0  0  0  0  0  0
    4.5800    2.4410   19.6320 C   0  0  0  0  0  0  0  0  0  0  0  0
    5.8190    1.8330   20.4290 C   0  0  0  0  0  0  0  0  0  0  0  0
    6.8680    0.9630   20.0480 C   0  0  0  0  0  0  0  0  0  0  0  0
    6.8230    0.5400   18.6880 C   0  0  0  0  0  0  0  0  0  0  0  0
    5.9330    0.8290   17.6730 N   0  0  0  0  0  0  0  0  0  0  0  0
    5.1310    1.7040   18.5930 C   0  0  0  0  0  0  0  0  0  0  0  0
    6.1010    1.3970   19.7120 N   0  0  0  0  0  0  0  0  0  0  0  0
    7.5280   -2.0000   22.1250 C   0  0  0  0  0  0  0  0  0  0  0  0
  1  2  1  0
  3  2  1  0
  3  4  2  0
  3  5  2  0
  3  6  1  0
  6  7  1  0
  8  7  1  6
  8  9  1  0
  9 10  1  0
 10 11  1  0
 11 12  1  0
  8 13  1  0
 13 12  1  1
 13 14  1  0
 14 15  1  1
 15 16  2  0
 16 17  1  0
 17 18  2  0
 18 19  1  0
 18 20  1  0
 15 21  1  0
 20 21  2  0
 21 22  1  0
 22 23  1  0
 23 24  2  0
 23 25  1  0
 25 26  1  0
 26 27  2  0
 27 28  1  0
 28 29  2  0
 29 30  1  0
 30 31  2  0
 31 32  1  0
 28 33  1  0
 32 33  2  0
 26 34  1  0
 33 34  1  0
  6 35  1  0
 14 35  1  0
M  END
