JAN-GHE-6413aaf8-6-chloroacetamide
     RDKit          3D

 29 32  0  0  0  0  0  0  0  0999 V2000
    7.1600   -2.9470   18.7350 C   0  0  0  0  0  0  0  0  0  0  0  0
    6.2560   -3.2980   19.8840 C   0  0  0  0  0  0  0  0  0  0  0  0
    5.3730   -4.1530   19.7400 O   0  0  0  0  0  0  0  0  0  0  0  0
    6.4630   -2.6570   21.0790 N   0  0  0  0  0  0  0  0  0  0  0  0
    7.1600   -1.3640   21.1430 C   0  0  0  0  0  0  0  0  0  0  0  0
    8.5350   -1.7380   21.6970 C   0  0  0  0  0  0  0  0  0  0  0  0
    8.3280   -2.2040   23.0950 N   0  0  0  0  0  0  0  0  0  0  0  0
    9.6210   -2.5720   23.7090 C   0  0  0  0  0  0  0  0  0  0  0  0
   10.4170   -1.2540   23.6980 C   0  0  0  0  0  0  0  0  0  0  0  0
   11.8150   -1.6720   23.2800 C   0  0  0  0  0  0  0  0  0  0  0  0
   12.7540   -0.4420   23.2080 C   0  0  0  0  0  0  0  0  0  0  0  0
   12.3200    1.0040   23.5170 C   0  0  0  0  0  0  0  0  0  0  0  0
   10.8630    1.1640   23.9060 C   0  0  0  0  0  0  0  0  0  0  0  0
   10.1120    2.3340   24.2370 C   0  0  0  0  0  0  0  0  0  0  0  0
   10.4920    3.6900   24.2860 C   0  0  0  0  0  0  0  0  0  0  0  0
   10.9130    4.2320   23.0830 C   0  0  0  0  0  0  0  0  0  0  0  0
   10.1910    5.4630   22.8230 N   0  0  0  0  0  0  0  0  0  0  0  0
    9.3900    6.1850   23.8380 C   0  0  0  0  0  0  0  0  0  0  0  0
    8.2240    5.8990   24.0840 O   0  0  0  0  0  0  0  0  0  0  0  0
   10.0410    7.2280   24.5030 C   0  0  2  0  0  0  0  0  0  0  0  0
   11.4220    7.0820   24.7460 C   0  0  0  0  0  0  0  0  0  0  0  0
   11.7510    7.1900   26.1160 C   0  0  0  0  0  0  0  0  0  0  0  0
   10.5810    7.3220   26.8390 C   0  0  0  0  0  0  0  0  0  0  0  0
    9.5050    7.3630   25.8540 N   0  0  0  0  0  0  0  0  0  0  0  0
    8.8330    1.8940   24.5190 C   0  0  0  0  0  0  0  0  0  0  0  0
    8.7960    0.5420   24.3600 N   0  0  0  0  0  0  0  0  0  0  0  0
   10.0230    0.0580   23.9780 C   0  0  0  0  0  0  0  0  0  0  0  0
    7.4800   -3.4170   23.1830 C   0  0  0  0  0  0  0  0  0  0  0  0
    6.2280   -3.2760   22.3810 C   0  0  0  0  0  0  0  0  0  0  0  0
  1  2  1  0
  2  3  2  0
  2  4  1  0
  4  5  1  0
  5  6  1  0
  6  7  1  0
  7  8  1  0
  8  9  1  0
  9 10  2  0
 10 11  1  0
 11 12  2  0
 12 13  1  0
 13 14  1  0
 14 15  1  0
 15 16  1  0
 16 17  1  0
 17 18  1  0
 18 19  2  0
 20 18  1  1
 20 21  1  0
 21 22  1  0
 22 23  1  0
 20 24  1  0
 23 24  1  0
 14 25  2  0
 25 26  1  0
  9 27  1  0
 13 27  2  0
 26 27  1  0
  7 28  1  0
  4 29  1  0
 28 29  1  0
M  END
