JAN-GHE-bf40f168-13-acrylamide
     RDKit          3D

 22 23  0  0  0  0  0  0  0  0999 V2000
    7.9170   -3.2730   19.0750 C   0  0  0  0  0  0  0  0  0  0  0  0
    6.7060   -2.4520   18.7920 C   0  0  0  0  0  0  0  0  0  0  0  0
    5.7340   -2.7930   19.8530 C   0  0  0  0  0  0  0  0  0  0  0  0
    4.8580   -3.6100   19.6030 O   0  0  0  0  0  0  0  0  0  0  0  0
    5.9530   -2.2210   21.0930 N   0  0  0  0  0  0  0  0  0  0  0  0
    5.3700   -2.8900   22.2390 C   0  0  0  0  0  0  0  0  0  0  0  0
    7.1460   -1.4030   21.3460 C   0  0  0  0  0  0  0  0  0  0  0  0
    8.2500   -2.1350   21.8090 C   0  0  0  0  0  0  0  0  0  0  0  0
    8.0550   -2.4170   23.1350 N   0  0  0  0  0  0  0  0  0  0  0  0
    7.6160   -3.7070   23.2840 C   0  0  0  0  0  0  0  0  0  0  0  0
    9.1050   -1.9140   23.8370 C   0  0  0  0  0  0  0  0  0  0  0  0
    9.6670   -0.6690   23.6440 C   0  0  0  0  0  0  0  0  0  0  0  0
    9.4140    0.2700   22.5720 C   0  0  0  0  0  0  0  0  0  0  0  0
   10.2310    1.4070   22.8110 N   0  0  0  0  0  0  0  0  0  0  0  0
   11.2560    1.0770   23.6810 C   0  0  2  0  0  0  0  0  0  0  0  0
   12.3810    0.6850   23.0420 C   0  0  0  0  0  0  0  0  0  0  0  0
   13.0810   -0.4380   23.3750 C   0  0  0  0  0  0  0  0  0  0  0  0
   12.7090   -1.2480   24.4120 C   0  0  0  0  0  0  0  0  0  0  0  0
   13.5610   -2.2250   24.8940 C   0  0  0  0  0  0  0  0  0  0  0  0
   14.1400   -3.1280   24.0400 N   0  0  0  0  0  0  0  0  0  0  0  0
   11.5110   -1.0580   24.9320 C   0  0  0  0  0  0  0  0  0  0  0  0
   10.6010   -0.1320   24.5080 C   0  0  2  0  0  0  0  0  0  0  0  0
  1  2  1  0
  2  3  1  0
  3  4  2  0
  3  5  1  0
  5  6  1  0
  5  7  1  0
  7  8  1  0
  8  9  1  0
  9 10  1  0
  9 11  1  0
 11 12  1  0
 12 13  2  0
 13 14  1  0
 14 15  1  0
 15 16  1  6
 16 17  2  0
 17 18  1  0
 18 19  1  0
 19 20  3  0
 18 21  2  0
 12 22  1  0
 15 22  1  0
 22 21  1  6
M  END
