JAN-UNI-2e92c4b1-5-vinylsulfonamide
     RDKit          3D

 22 23  0  0  0  0  0  0  0  0999 V2000
    7.2310   -2.5090   19.0300 C   0  0  0  0  0  0  0  0  0  0  0  0
    7.3660   -1.3120   20.1190 C   0  0  0  0  0  0  0  0  0  0  0  0
    6.2440   -1.3860   21.5510 S   0  0  0  0  0  0  0  0  0  0  0  0
    4.8870   -2.8320   21.2620 O   0  0  0  0  0  0  0  0  0  0  0  0
    5.8530    0.0350   21.8540 O   0  0  0  0  0  0  0  0  0  0  0  0
    7.9910   -0.9060   22.5200 C   0  0  0  0  0  0  0  0  0  0  0  0
    9.1060    0.3760   21.9620 C   0  0  0  0  0  0  0  0  0  0  0  0
   10.3610    0.8510   22.4360 N   0  0  0  0  0  0  0  0  0  0  0  0
   10.9760    0.4710   23.3880 C   0  0  0  0  0  0  0  0  0  0  0  0
   12.0240    1.4460   23.0360 N   0  0  0  0  0  0  0  0  0  0  0  0
   11.4850    2.8150   23.3070 C   0  0  0  0  0  0  0  0  0  0  0  0
   10.1740    3.2070   22.6440 C   0  0  0  0  0  0  0  0  0  0  0  0
    9.7660   -0.1170   23.1160 C   0  0  0  0  0  0  0  0  0  0  0  0
    9.5730   -1.0320   24.1130 C   0  0  0  0  0  0  0  0  0  0  0  0
   10.7730   -1.8540   24.1670 N   0  0  0  0  0  0  0  0  0  0  0  0
   11.7530   -2.0590   23.2020 C   0  0  0  0  0  0  0  0  0  0  0  0
   12.3870   -2.4850   24.2980 C   0  0  0  0  0  0  0  0  0  0  0  0
   13.4940   -2.9810   24.7070 C   0  0  0  0  0  0  0  0  0  0  0  0
   13.9170   -3.3590   26.0070 O   0  0  0  0  0  0  0  0  0  0  0  0
   14.0920   -3.0370   23.5540 N   0  0  0  0  0  0  0  0  0  0  0  0
   13.0520   -2.4760   22.7020 O   0  0  0  0  0  0  0  0  0  0  0  0
    8.6920    0.0630   21.9760 C   0  0  0  0  0  0  0  0  0  0  0  0
  1  2  1  0
  3  2  1  0
  3  4  2  0
  3  5  2  0
  3  6  1  0
  6  7  2  0
  7  8  1  0
  8  9  2  0
  9 10  1  0
 10 11  1  0
 11 12  1  0
  9 13  1  0
 13 14  1  0
 14 15  1  0
 15 16  1  0
 16 17  2  0
 17 18  1  0
 18 19  1  0
 18 20  2  0
 16 21  1  0
 20 21  1  0
  6 22  1  0
 13 22  2  0
M  END
