JAN-GHE-6413aaf8-10-chloroacetamide
     RDKit          3D

 22 24  0  0  0  0  0  0  0  0999 V2000
    7.5630   -3.3280   19.4960 C   0  0  0  0  0  0  0  0  0  0  0  0
    6.4810   -3.9180   20.4080 C   0  0  0  0  0  0  0  0  0  0  0  0
    5.5140   -4.5370   19.9430 O   0  0  0  0  0  0  0  0  0  0  0  0
    6.5640   -3.7400   21.7750 N   0  0  0  0  0  0  0  0  0  0  0  0
    7.7080   -4.0410   22.5650 C   0  0  0  0  0  0  0  0  0  0  0  0
    7.4070   -2.7810   23.3860 C   0  0  0  0  0  0  0  0  0  0  0  0
    8.4610   -1.7810   23.0620 N   0  0  0  0  0  0  0  0  0  0  0  0
    9.5250   -1.7820   24.0760 C   0  0  0  0  0  0  0  0  0  0  0  0
   10.6460   -0.8270   23.6160 C   0  0  0  0  0  0  0  0  0  0  0  0
   11.6900   -1.7950   23.0860 C   0  0  0  0  0  0  0  0  0  0  0  0
   12.9330   -1.0440   22.5690 C   0  0  0  0  0  0  0  0  0  0  0  0
   13.0760    0.4840   22.5950 C   0  0  0  0  0  0  0  0  0  0  0  0
   11.8840    1.2260   23.1550 C   0  0  0  0  0  0  0  0  0  0  0  0
   11.7030    2.6210   23.2770 C   0  0  0  0  0  0  0  0  0  0  0  0
   12.5530    3.6670   22.8960 C   0  0  0  0  0  0  0  0  0  0  0  0
   12.1390    4.9060   23.4040 C   0  0  0  0  0  0  0  0  0  0  0  0
   11.4630    5.6740   22.3980 N   0  0  0  0  0  0  0  0  0  0  0  0
   12.2850    5.3190   24.5540 O   0  0  0  0  0  0  0  0  0  0  0  0
   10.4510    2.7350   23.8700 C   0  0  0  0  0  0  0  0  0  0  0  0
    9.8850    1.5190   24.0860 N   0  0  0  0  0  0  0  0  0  0  0  0
   10.7720    0.5730   23.6310 C   0  0  0  0  0  0  0  0  0  0  0  0
    6.1220   -2.5530   22.4810 C   0  0  0  0  0  0  0  0  0  0  0  0
  1  2  1  0
  2  3  2  0
  2  4  1  0
  4  5  1  0
  5  6  1  0
  6  7  1  0
  7  8  1  0
  8  9  1  0
  9 10  2  0
 10 11  1  0
 11 12  2  0
 12 13  1  0
 13 14  1  0
 14 15  1  0
 15 16  1  0
 16 17  1  0
 16 18  2  0
 14 19  2  0
 19 20  1  0
  9 21  1  0
 13 21  2  0
 20 21  1  0
  4 22  1  0
  6 22  1  0
M  END
