JAN-LUN-04aedcc0-1-nitrile
     RDKit          3D

 31 33  0  0  0  0  0  0  0  0999 V2000
    6.9740   -3.6690   20.0810 C   0  0  0  0  0  0  0  0  0  0  0  0
    5.7890   -4.0180   19.7190 N   0  0  0  0  0  0  0  0  0  0  0  0
    7.3260   -3.3140   21.3770 N   0  0  0  0  0  0  0  0  0  0  0  0
    6.6020   -3.8100   22.5400 C   0  0  0  0  0  0  0  0  0  0  0  0
    7.5200   -4.0500   23.7740 C   0  0  0  0  0  0  0  0  0  0  0  0
    8.4900   -2.9520   24.0810 N   0  0  0  0  0  0  0  0  0  0  0  0
    9.2220   -2.5340   22.9050 C   0  0  2  0  0  0  0  0  0  0  0  0
   10.3950   -1.6960   22.9950 C   0  0  0  0  0  0  0  0  0  0  0  0
   11.6880   -2.3210   23.2320 C   0  0  0  0  0  0  0  0  0  0  0  0
   12.8580   -1.6400   23.2540 C   0  0  0  0  0  0  0  0  0  0  0  0
   12.7820   -0.3180   23.0390 C   0  0  0  0  0  0  0  0  0  0  0  0
   13.9120    0.3430   23.0270 O   0  0  0  0  0  0  0  0  0  0  0  0
   11.5290    0.3900   22.8280 C   0  0  0  0  0  0  0  0  0  0  0  0
   10.2310   -0.2880   22.8050 C   0  0  0  0  0  0  0  0  0  0  0  0
    9.1010   -0.2640   22.7010 N   0  0  0  0  0  0  0  0  0  0  0  0
    8.6010    0.3650   21.4930 C   0  0  0  0  0  0  0  0  0  0  0  0
    8.9970    1.6570   21.1750 O   0  0  0  0  0  0  0  0  0  0  0  0
    7.7780   -0.4430   20.8150 N   0  0  0  0  0  0  0  0  0  0  0  0
    6.7690    0.2160   20.0300 C   0  0  0  0  0  0  0  0  0  0  0  0
    6.9530    0.0730   18.6770 C   0  0  0  0  0  0  0  0  0  0  0  0
    6.1600    0.6020   17.7190 N   0  0  0  0  0  0  0  0  0  0  0  0
    5.1170    1.3160   18.1890 C   0  0  0  0  0  0  0  0  0  0  0  0
    4.8500    1.5050   19.5340 C   0  0  0  0  0  0  0  0  0  0  0  0
    3.6120    2.3510   19.8590 C   0  0  0  0  0  0  0  0  0  0  0  0
    2.8000    1.6940   20.7830 C   0  0  0  0  0  0  0  0  0  0  0  0
    1.5030    2.2400   20.7510 C   0  0  0  0  0  0  0  0  0  0  0  0
    0.6190    1.4850   21.5080 C   0  0  0  0  0  0  0  0  0  0  0  0
    0.6540    1.4180   22.7240 O   0  0  0  0  0  0  0  0  0  0  0  0
   -0.3180    0.8090   20.7870 O   0  0  0  0  0  0  0  0  0  0  0  0
    5.6820    0.9480   20.5130 C   0  0  0  0  0  0  0  0  0  0  0  0
    8.2440   -2.2070   21.7180 C   0  0  0  0  0  0  0  0  0  0  0  0
  1  2  2  3
  1  3  1  0
  3  4  1  0
  4  5  1  0
  5  6  1  0
  6  7  1  0
  7  8  1  1
  8  9  2  0
  9 10  1  0
 10 11  2  0
 11 12  1  0
 11 13  1  0
  8 14  1  0
 13 14  2  0
 14 15  1  0
 15 16  1  0
 16 17  2  0
 16 18  1  0
 18 19  1  0
 19 20  2  0
 20 21  1  0
 21 22  2  0
 22 23  1  0
 23 24  1  0
 24 25  1  0
 25 26  1  0
 26 27  1  0
 27 28  2  0
 27 29  1  0
 19 30  1  0
 23 30  2  0
  3 31  1  0
  7 31  1  0
M  END
