JAN-LUN-04aedcc0-3-chloroacetamide
     RDKit          3D

 33 37  0  0  0  0  0  0  0  0999 V2000
    7.5100   -3.1000   19.0460 C   0  0  0  0  0  0  0  0  0  0  0  0
    6.6130   -3.5790   20.1470 C   0  0  0  0  0  0  0  0  0  0  0  0
    5.5960   -4.2520   19.8600 O   0  0  0  0  0  0  0  0  0  0  0  0
    6.9730   -3.2770   21.4740 N   0  0  0  0  0  0  0  0  0  0  0  0
    6.2230   -3.7610   22.6370 C   0  0  0  0  0  0  0  0  0  0  0  0
    7.0390   -3.7440   23.7620 C   0  0  1  0  0  0  0  0  0  0  0  0
    6.6330   -4.6750   24.7280 C   0  0  0  0  0  0  0  0  0  0  0  0
    7.5330   -4.9960   25.8200 C   0  0  0  0  0  0  0  0  0  0  0  0
    8.8480   -5.2260   25.4230 C   0  0  0  0  0  0  0  0  0  0  0  0
    9.3140   -4.2830   24.5190 C   0  0  0  0  0  0  0  0  0  0  0  0
    8.3790   -3.9620   23.4140 C   0  0  2  0  0  0  0  0  0  0  0  0
    9.1440   -3.0140   22.5800 C   0  0  2  0  0  0  0  0  0  0  0  0
   10.1270   -2.2760   22.5130 C   0  0  0  0  0  0  0  0  0  0  0  0
   11.5200   -1.9380   22.2660 C   0  0  0  0  0  0  0  0  0  0  0  0
   12.2060   -0.7360   22.4010 C   0  0  0  0  0  0  0  0  0  0  0  0
   11.6900    0.4630   22.8080 C   0  0  0  0  0  0  0  0  0  0  0  0
   12.3400    1.4950   22.9150 O   0  0  0  0  0  0  0  0  0  0  0  0
   10.3580    0.4310   23.0940 C   0  0  0  0  0  0  0  0  0  0  0  0
    9.5360   -0.8550   22.9730 C   0  0  0  0  0  0  0  0  0  0  0  0
    8.1330   -0.5650   23.3490 N   0  0  0  0  0  0  0  0  0  0  0  0
    7.6640    0.7170   22.7490 C   0  0  0  0  0  0  0  0  0  0  0  0
    8.3790    1.6390   22.3710 O   0  0  0  0  0  0  0  0  0  0  0  0
    6.2790    0.7610   22.6720 N   0  0  0  0  0  0  0  0  0  0  0  0
    5.8170    1.1620   21.4250 C   0  0  0  0  0  0  0  0  0  0  0  0
    4.9450    2.1390   21.3250 C   0  0  0  0  0  0  0  0  0  0  0  0
    4.8360    2.1180   19.9220 C   0  0  0  0  0  0  0  0  0  0  0  0
    5.7910    1.1170   20.7170 C   0  0  0  0  0  0  0  0  0  0  0  0
    6.6610    0.0860   20.2820 C   0  0  0  0  0  0  0  0  0  0  0  0
    6.7040   -0.1060   18.8660 C   0  0  0  0  0  0  0  0  0  0  0  0
    6.0340    0.5520   17.8410 N   0  0  0  0  0  0  0  0  0  0  0  0
    5.3350    1.4420   18.8200 C   0  0  0  0  0  0  0  0  0  0  0  0
    6.0500    0.7480   19.9350 N   0  0  0  0  0  0  0  0  0  0  0  0
    8.1020   -2.3670   21.8460 C   0  0  0  0  0  0  0  0  0  0  0  0
  1  2  1  0
  2  3  2  0
  2  4  1  0
  4  5  1  0
  6  5  1  6
  6  7  1  0
  7  8  1  0
  8  9  1  0
  9 10  1  0
  6 11  1  0
 11 10  1  1
 11 12  1  0
 12 13  1  1
 13 14  2  0
 14 15  1  0
 15 16  2  0
 16 17  1  0
 16 18  1  0
 13 19  1  0
 18 19  2  0
 19 20  1  0
 20 21  1  0
 21 22  2  0
 21 23  1  0
 23 24  1  0
 24 25  2  0
 25 26  1  0
 26 27  2  0
 27 28  1  0
 28 29  2  0
 29 30  1  0
 26 31  1  0
 30 31  2  0
 24 32  1  0
 31 32  1  0
  4 33  1  0
 12 33  1  0
M  END
