JAN-GHE-bf40f168-4-chloroacetamide
     RDKit          3D

 35 39  0  0  0  0  0  0  0  0999 V2000
    7.6170   -4.6360   20.1300 C   0  0  0  0  0  0  0  0  0  0  0  0
    6.3220   -4.0160   19.9060 C   0  0  0  0  0  0  0  0  0  0  0  0
    6.0550   -3.2450   18.9860 O   0  0  0  0  0  0  0  0  0  0  0  0
    5.4690   -4.4280   20.8430 N   0  0  0  0  0  0  0  0  0  0  0  0
    5.0950   -3.3780   21.7100 C   0  0  0  0  0  0  0  0  0  0  0  0
    5.6650   -3.7290   23.0340 C   0  0  1  0  0  0  0  0  0  0  0  0
    4.7670   -4.6880   23.7490 C   0  0  0  0  0  0  0  0  0  0  0  0
    5.5360   -5.3500   24.7950 N   0  0  0  0  0  0  0  0  0  0  0  0
    5.0860   -4.9650   26.3730 S   0  0  0  0  0  0  0  0  0  0  0  0
    4.3820   -6.1640   26.7600 O   0  0  0  0  0  0  0  0  0  0  0  0
    6.1740   -4.4620   27.1480 O   0  0  0  0  0  0  0  0  0  0  0  0
    3.9640   -3.6280   26.1730 C   0  0  0  0  0  0  0  0  0  0  0  0
    2.5030   -4.0130   26.1420 C   0  0  0  0  0  0  0  0  0  0  0  0
    1.4910   -2.9240   25.9920 C   0  0  0  0  0  0  0  0  0  0  0  0
    1.9440   -1.6120   25.8870 C   0  0  0  0  0  0  0  0  0  0  0  0
    3.3130   -1.2930   25.9090 C   0  0  0  0  0  0  0  0  0  0  0  0
    4.3410   -2.2450   26.0440 C   0  0  0  0  0  0  0  0  0  0  0  0
    5.6540   -1.6880   26.0220 C   0  0  0  0  0  0  0  0  0  0  0  0
    6.2870   -1.6340   24.7820 C   0  0  0  0  0  0  0  0  0  0  0  0
    7.6780   -1.0440   24.6190 C   0  0  0  0  0  0  0  0  0  0  0  0
    8.3910   -0.4980   25.8430 C   0  0  0  0  0  0  0  0  0  0  0  0
    9.6960    0.0580   25.7220 N   0  0  0  0  0  0  0  0  0  0  0  0
   10.6000   -0.3020   24.6940 C   0  0  0  0  0  0  0  0  0  0  0  0
   10.3800   -1.6060   24.0080 C   0  0  0  0  0  0  0  0  0  0  0  0
   11.2450   -1.9450   22.9900 C   0  0  0  0  0  0  0  0  0  0  0  0
   12.2400   -1.1350   22.6410 C   0  0  0  0  0  0  0  0  0  0  0  0
   13.0900   -1.4940   21.5980 C   0  0  0  0  0  0  0  0  0  0  0  0
   13.7210   -1.7350   20.7000 N   0  0  0  0  0  0  0  0  0  0  0  0
   12.4230    0.0610   23.3020 C   0  0  0  0  0  0  0  0  0  0  0  0
   11.6300    0.4800   24.3050 N   0  0  0  0  0  0  0  0  0  0  0  0
    7.6850   -0.5850   27.0660 C   0  0  0  0  0  0  0  0  0  0  0  0
    6.3650   -1.1610   27.1510 C   0  0  0  0  0  0  0  0  0  0  0  0
    6.9070   -5.1630   24.1660 C   0  0  0  0  0  0  0  0  0  0  0  0
    6.7350   -4.6920   22.7480 C   0  0  1  0  0  0  0  0  0  0  0  0
    5.9130   -5.5000   21.7650 C   0  0  0  0  0  0  0  0  0  0  0  0
  1  2  1  0
  2  3  2  0
  2  4  1  0
  4  5  1  0
  6  5  1  6
  6  7  1  0
  7  8  1  0
  8  9  1  0
  9 10  2  0
  9 11  2  0
  9 12  1  0
 12 13  2  0
 13 14  1  0
 14 15  2  0
 15 16  1  0
 12 17  1  0
 16 17  2  0
 17 18  1  0
 18 19  2  0
 19 20  1  0
 20 21  2  0
 21 22  1  0
 22 23  1  0
 23 24  2  0
 24 25  1  0
 25 26  2  0
 26 27  1  0
 27 28  3  0
 26 29  1  0
 23 30  1  0
 29 30  2  0
 21 31  1  0
 18 32  1  0
 31 32  2  0
  8 33  1  0
  6 34  1  0
 34 33  1  1
  4 35  1  0
 34 35  1  0
M  END
