JAN-GHE-bf40f168-6-nitrile
     RDKit          3D

 31 34  0  0  0  0  0  0  0  0999 V2000
    6.8490   -4.4500   20.3720 C   0  0  0  0  0  0  0  0  0  0  0  0
    5.6500   -4.4530   19.9850 N   0  0  0  0  0  0  0  0  0  0  0  0
    7.3630   -5.1910   21.4100 N   0  0  0  0  0  0  0  0  0  0  0  0
    6.6490   -5.6910   22.5760 C   0  0  0  0  0  0  0  0  0  0  0  0
    7.1130   -5.0510   23.8530 C   0  0  0  0  0  0  0  0  0  0  0  0
    5.8550   -4.5160   24.2940 N   0  0  0  0  0  0  0  0  0  0  0  0
    5.1720   -4.8100   25.8160 S   0  0  0  0  0  0  0  0  0  0  0  0
    6.0940   -4.5510   26.8840 O   0  0  0  0  0  0  0  0  0  0  0  0
    4.4860   -6.0810   25.7240 O   0  0  0  0  0  0  0  0  0  0  0  0
    4.0480   -3.4940   25.8690 C   0  0  0  0  0  0  0  0  0  0  0  0
    2.5720   -3.9100   25.8580 C   0  0  0  0  0  0  0  0  0  0  0  0
    1.4540   -2.8900   25.9020 C   0  0  0  0  0  0  0  0  0  0  0  0
    1.9540   -1.4700   25.9590 C   0  0  0  0  0  0  0  0  0  0  0  0
    3.4350   -1.1400   25.9640 C   0  0  0  0  0  0  0  0  0  0  0  0
    4.4570   -2.1160   25.9180 C   0  0  0  0  0  0  0  0  0  0  0  0
    5.7940   -1.5460   25.9280 C   0  0  0  0  0  0  0  0  0  0  0  0
    6.4370   -1.1430   27.0890 C   0  0  0  0  0  0  0  0  0  0  0  0
    7.7050   -0.5350   27.4330 C   0  0  0  0  0  0  0  0  0  0  0  0
    8.4500   -0.3140   26.1790 C   0  0  0  0  0  0  0  0  0  0  0  0
    9.4670    0.1160   25.7010 N   0  0  0  0  0  0  0  0  0  0  0  0
   10.3990   -0.2530   24.6750 C   0  0  0  0  0  0  0  0  0  0  0  0
   10.1860   -1.5490   23.9360 C   0  0  0  0  0  0  0  0  0  0  0  0
   10.9890   -2.1930   22.8080 C   0  0  0  0  0  0  0  0  0  0  0  0
   12.0630   -1.1140   22.6840 C   0  0  0  0  0  0  0  0  0  0  0  0
   12.9730   -1.4180   21.6980 C   0  0  0  0  0  0  0  0  0  0  0  0
   13.6670   -1.6640   20.8230 N   0  0  0  0  0  0  0  0  0  0  0  0
   12.2320    0.0680   23.3840 C   0  0  0  0  0  0  0  0  0  0  0  0
   11.4370    0.5130   24.3540 N   0  0  0  0  0  0  0  0  0  0  0  0
    7.7950   -0.7340   24.9800 C   0  0  0  0  0  0  0  0  0  0  0  0
    6.5400   -1.3220   24.8250 C   0  0  0  0  0  0  0  0  0  0  0  0
    5.2880   -5.0520   22.9730 C   0  0  0  0  0  0  0  0  0  0  0  0
  1  2  2  3
  1  3  1  0
  3  4  1  0
  4  5  1  0
  5  6  1  0
  6  7  1  0
  7  8  2  0
  7  9  2  0
  7 10  1  0
 10 11  2  0
 11 12  1  0
 12 13  2  0
 13 14  1  0
 10 15  1  0
 14 15  2  0
 15 16  1  0
 16 17  2  0
 17 18  1  0
 18 19  2  0
 19 20  1  0
 20 21  1  0
 21 22  2  0
 22 23  1  0
 23 24  2  0
 24 25  1  0
 25 26  3  0
 24 27  1  0
 21 28  1  0
 27 28  2  0
 19 29  1  0
 16 30  1  0
 29 30  2  0
  4 31  1  0
  6 31  1  0
M  END
