JAN-LUN-04aedcc0-2-chloroacetamide
     RDKit          3D

 36 39  0  0  0  0  0  0  0  0999 V2000
    7.4170   -3.1380   19.2880 C   0  0  0  0  0  0  0  0  0  0  0  0
    6.3900   -3.6210   20.3050 C   0  0  0  0  0  0  0  0  0  0  0  0
    5.4610   -4.3520   19.8950 O   0  0  0  0  0  0  0  0  0  0  0  0
    6.4700   -3.2690   21.6940 N   0  0  0  0  0  0  0  0  0  0  0  0
    5.9280   -4.1020   22.7610 C   0  0  0  0  0  0  0  0  0  0  0  0
    6.6440   -3.8270   23.9100 C   0  0  1  0  0  0  0  0  0  0  0  0
    6.7800   -4.9310   24.7580 C   0  0  0  0  0  0  0  0  0  0  0  0
    8.1160   -5.3060   25.1900 C   0  0  0  0  0  0  0  0  0  0  0  0
    9.0620   -5.3830   24.1580 C   0  0  0  0  0  0  0  0  0  0  0  0
    8.8780   -4.4040   23.1750 C   0  0  0  0  0  0  0  0  0  0  0  0
    7.9330   -3.3640   23.6120 C   0  0  1  0  0  0  0  0  0  0  0  0
    8.2160   -2.0580   22.9320 C   0  0  2  0  0  0  0  0  0  0  0  0
    8.6910   -0.9300   23.2790 C   0  0  0  0  0  0  0  0  0  0  0  0
    8.6150    0.2930   24.0350 C   0  0  0  0  0  0  0  0  0  0  0  0
    9.4970    1.2960   24.1670 C   0  0  0  0  0  0  0  0  0  0  0  0
   10.6800    1.2900   23.5730 C   0  0  0  0  0  0  0  0  0  0  0  0
   11.5100    2.1800   23.7010 O   0  0  0  0  0  0  0  0  0  0  0  0
   10.9270    0.2040   22.7820 C   0  0  0  0  0  0  0  0  0  0  0  0
   10.0960   -1.0670   22.3850 C   0  0  0  0  0  0  0  0  0  0  0  0
    9.0670   -2.0190   22.2700 N   0  0  0  0  0  0  0  0  0  0  0  0
    8.2740   -1.0030   21.4490 C   0  0  0  0  0  0  0  0  0  0  0  0
    8.5300    0.2060   21.4380 O   0  0  0  0  0  0  0  0  0  0  0  0
    7.2380   -1.4740   20.6710 N   0  0  0  0  0  0  0  0  0  0  0  0
    6.4970   -0.4690   20.0900 C   0  0  0  0  0  0  0  0  0  0  0  0
    6.6970   -0.4080   18.7320 C   0  0  0  0  0  0  0  0  0  0  0  0
    6.1020    0.4720   17.8850 N   0  0  0  0  0  0  0  0  0  0  0  0
    5.1490    1.4650   18.4610 C   0  0  0  0  0  0  0  0  0  0  0  0
    4.9260    1.4020   19.9760 C   0  0  0  0  0  0  0  0  0  0  0  0
    4.0510    2.3000   20.6060 C   0  0  0  0  0  0  0  0  0  0  0  0
    2.5600    2.0770   20.5400 C   0  0  0  0  0  0  0  0  0  0  0  0
    2.0220    3.2100   19.6850 C   0  0  0  0  0  0  0  0  0  0  0  0
    0.6530    3.3350   20.0690 C   0  0  0  0  0  0  0  0  0  0  0  0
    0.0990    2.5890   20.8630 O   0  0  0  0  0  0  0  0  0  0  0  0
   -0.0130    4.3570   19.4900 O   0  0  0  0  0  0  0  0  0  0  0  0
    5.6250    0.4200   20.7190 C   0  0  0  0  0  0  0  0  0  0  0  0
    6.9730   -1.9240   22.2070 C   0  0  0  0  0  0  0  0  0  0  0  0
  1  2  1  0
  2  3  2  0
  2  4  1  0
  4  5  1  0
  6  5  1  6
  6  7  1  0
  7  8  1  0
  8  9  1  0
  9 10  1  0
  6 11  1  0
 11 10  1  6
 11 12  1  0
 12 13  1  1
 13 14  2  0
 14 15  1  0
 15 16  2  0
 16 17  1  0
 16 18  1  0
 13 19  1  0
 18 19  2  0
 19 20  1  0
 20 21  1  0
 21 22  2  0
 21 23  1  0
 23 24  1  0
 24 25  2  0
 25 26  1  0
 26 27  2  0
 27 28  1  0
 28 29  1  0
 29 30  1  0
 30 31  1  0
 31 32  1  0
 32 33  2  0
 32 34  1  0
 24 35  1  0
 28 35  2  0
  4 36  1  0
 12 36  1  0
M  END
