JAN-GHE-6413aaf8-2-acrylamide
     RDKit          3D

 29 32  0  0  0  0  0  0  0  0999 V2000
    6.5620   -5.6480   20.6980 C   0  0  0  0  0  0  0  0  0  0  0  0
    6.2220   -5.0380   22.0550 C   0  0  0  0  0  0  0  0  0  0  0  0
    5.7290   -3.6100   22.0920 C   0  0  0  0  0  0  0  0  0  0  0  0
    4.8730   -3.1870   21.3370 O   0  0  0  0  0  0  0  0  0  0  0  0
    6.2860   -2.8020   23.0720 N   0  0  0  0  0  0  0  0  0  0  0  0
    7.4760   -2.0210   22.7420 C   0  0  0  0  0  0  0  0  0  0  0  0
    8.0060   -2.1620   23.9780 C   0  0  0  0  0  0  0  0  0  0  0  0
    9.1630   -2.9010   23.8230 N   0  0  0  0  0  0  0  0  0  0  0  0
   10.4630   -2.3730   23.7960 C   0  0  0  0  0  0  0  0  0  0  0  0
   10.5470   -0.9180   23.7860 C   0  0  0  0  0  0  0  0  0  0  0  0
   11.7660   -1.4160   23.1980 C   0  0  0  0  0  0  0  0  0  0  0  0
   12.9400   -0.9070   22.6600 C   0  0  0  0  0  0  0  0  0  0  0  0
   13.1550    0.5010   22.5980 C   0  0  0  0  0  0  0  0  0  0  0  0
   11.9750    1.1620   23.1420 C   0  0  0  0  0  0  0  0  0  0  0  0
   11.7410    2.5980   23.2270 C   0  0  0  0  0  0  0  0  0  0  0  0
   12.7050    3.6780   22.7110 C   0  0  0  0  0  0  0  0  0  0  0  0
   12.5320    5.0120   23.1020 C   0  0  0  0  0  0  0  0  0  0  0  0
   11.3070    5.5450   22.7040 N   0  0  0  0  0  0  0  0  0  0  0  0
   10.2140    5.8970   23.5140 C   0  0  0  0  0  0  0  0  0  0  0  0
   10.2910    6.1040   24.7250 O   0  0  0  0  0  0  0  0  0  0  0  0
    8.9660    6.0490   22.8830 C   0  0  0  0  0  0  0  0  0  0  0  0
    8.7060    7.1770   22.1410 C   0  0  0  0  0  0  0  0  0  0  0  0
    7.4370    7.0370   21.6470 C   0  0  0  0  0  0  0  0  0  0  0  0
    6.9950    5.8170   22.1280 C   0  0  0  0  0  0  0  0  0  0  0  0
    7.9140    5.1710   22.9040 N   0  0  0  0  0  0  0  0  0  0  0  0
   10.5360    2.6600   23.8210 C   0  0  0  0  0  0  0  0  0  0  0  0
    9.9030    1.4400   24.1350 N   0  0  0  0  0  0  0  0  0  0  0  0
   10.8800    0.5070   23.6540 C   0  0  0  0  0  0  0  0  0  0  0  0
    6.8130   -3.0660   24.4630 C   0  0  0  0  0  0  0  0  0  0  0  0
  1  2  1  0
  2  3  1  0
  3  4  2  0
  3  5  1  0
  5  6  1  0
  6  7  1  0
  7  8  1  0
  8  9  1  0
  9 10  1  0
 10 11  2  0
 11 12  1  0
 12 13  2  0
 13 14  1  0
 14 15  1  0
 15 16  1  0
 16 17  1  0
 17 18  1  0
 18 19  1  0
 19 20  2  0
 19 21  1  0
 21 22  2  0
 22 23  1  0
 23 24  2  0
 21 25  1  0
 24 25  1  0
 15 26  2  0
 26 27  1  0
 10 28  1  0
 14 28  2  0
 27 28  1  0
  5 29  1  0
  7 29  1  0
M  END
