JAN-GHE-6413aaf8-9-acrylamide
     RDKit          3D

 24 26  0  0  0  0  0  0  0  0999 V2000
    7.8860   -3.2520   19.0150 C   0  0  0  0  0  0  0  0  0  0  0  0
    6.6820   -2.3890   18.8340 C   0  0  0  0  0  0  0  0  0  0  0  0
    5.8970   -2.6050   20.0720 C   0  0  0  0  0  0  0  0  0  0  0  0
    4.8620   -3.2210   20.0200 O   0  0  0  0  0  0  0  0  0  0  0  0
    6.4370   -2.1480   21.2400 N   0  0  0  0  0  0  0  0  0  0  0  0
    7.3720   -1.0180   21.1980 C   0  0  0  0  0  0  0  0  0  0  0  0
    8.6480   -1.6310   21.7610 C   0  0  0  0  0  0  0  0  0  0  0  0
    8.2350   -2.1190   23.1130 N   0  0  0  0  0  0  0  0  0  0  0  0
    9.3680   -2.3220   24.0310 C   0  0  0  0  0  0  0  0  0  0  0  0
   10.3690   -1.2170   23.7420 C   0  0  0  0  0  0  0  0  0  0  0  0
   11.7410   -1.7620   23.3020 C   0  0  0  0  0  0  0  0  0  0  0  0
   12.8560   -0.7770   22.9530 C   0  0  0  0  0  0  0  0  0  0  0  0
   12.5850    0.7120   23.0420 C   0  0  0  0  0  0  0  0  0  0  0  0
   11.3120    1.1700   23.4470 C   0  0  0  0  0  0  0  0  0  0  0  0
   10.9180    2.5330   23.5490 C   0  0  0  0  0  0  0  0  0  0  0  0
   11.7020    3.6550   23.2400 C   0  0  0  0  0  0  0  0  0  0  0  0
   11.2820    4.8590   23.8220 C   0  0  0  0  0  0  0  0  0  0  0  0
   12.0330    5.9780   23.7120 N   0  0  0  0  0  0  0  0  0  0  0  0
   10.2070    4.8140   24.4030 O   0  0  0  0  0  0  0  0  0  0  0  0
    9.5910    2.4960   23.9980 C   0  0  0  0  0  0  0  0  0  0  0  0
    9.2410    1.1040   24.1270 N   0  0  0  0  0  0  0  0  0  0  0  0
   10.2710    0.3010   23.7870 C   0  0  0  0  0  0  0  0  0  0  0  0
    7.3350   -3.2510   22.9950 C   0  0  0  0  0  0  0  0  0  0  0  0
    6.1110   -2.7050   22.5670 C   0  0  0  0  0  0  0  0  0  0  0  0
  1  2  1  0
  2  3  1  0
  3  4  2  0
  3  5  1  0
  5  6  1  0
  6  7  1  0
  7  8  1  0
  8  9  1  0
  9 10  1  0
 10 11  2  0
 11 12  1  0
 12 13  2  0
 13 14  1  0
 14 15  1  0
 15 16  1  0
 16 17  1  0
 17 18  1  0
 17 19  2  0
 15 20  2  0
 20 21  1  0
 10 22  1  0
 14 22  2  0
 21 22  1  0
  8 23  1  0
  5 24  1  0
 23 24  1  0
M  END
