JAN-GHE-6413aaf8-6-acrylamide
     RDKit          3D

 30 33  0  0  0  0  0  0  0  0999 V2000
    7.4430   -2.9280   18.3340 C   0  0  0  0  0  0  0  0  0  0  0  0
    6.5800   -1.9190   19.0290 C   0  0  0  0  0  0  0  0  0  0  0  0
    5.8490   -2.5330   20.1840 C   0  0  0  0  0  0  0  0  0  0  0  0
    4.9840   -3.3950   20.0400 O   0  0  0  0  0  0  0  0  0  0  0  0
    6.2600   -2.0730   21.3850 N   0  0  0  0  0  0  0  0  0  0  0  0
    6.0390   -2.8430   22.6220 C   0  0  0  0  0  0  0  0  0  0  0  0
    7.4320   -3.3410   23.0560 C   0  0  0  0  0  0  0  0  0  0  0  0
    8.2650   -2.1140   23.3090 N   0  0  0  0  0  0  0  0  0  0  0  0
    9.5810   -2.3860   23.8990 C   0  0  0  0  0  0  0  0  0  0  0  0
   10.5000   -1.2120   23.6340 C   0  0  0  0  0  0  0  0  0  0  0  0
   11.8620   -1.7690   23.2080 C   0  0  0  0  0  0  0  0  0  0  0  0
   12.9560   -0.7800   22.8680 C   0  0  0  0  0  0  0  0  0  0  0  0
   12.6350    0.6920   22.9620 C   0  0  0  0  0  0  0  0  0  0  0  0
   11.3430    1.0910   23.3610 C   0  0  0  0  0  0  0  0  0  0  0  0
   10.8690    2.3990   23.4760 C   0  0  0  0  0  0  0  0  0  0  0  0
   11.6210    3.5420   23.1720 C   0  0  0  0  0  0  0  0  0  0  0  0
   11.1780    4.7340   23.7510 C   0  0  0  0  0  0  0  0  0  0  0  0
   10.8920    5.7790   22.9240 N   0  0  0  0  0  0  0  0  0  0  0  0
   10.5050    6.9310   23.5340 C   0  0  0  0  0  0  0  0  0  0  0  0
    9.4950    7.5730   23.2610 O   0  0  0  0  0  0  0  0  0  0  0  0
   11.3060    7.4590   24.5630 C   0  0  2  0  0  0  0  0  0  0  0  0
   11.5770    6.7040   25.6970 C   0  0  0  0  0  0  0  0  0  0  0  0
   11.6310    7.5610   26.7730 C   0  0  0  0  0  0  0  0  0  0  0  0
   11.3280    8.8610   26.3410 C   0  0  0  0  0  0  0  0  0  0  0  0
   10.6390    8.5420   25.1790 N   0  0  0  0  0  0  0  0  0  0  0  0
    9.5590    2.3080   23.9120 C   0  0  0  0  0  0  0  0  0  0  0  0
    9.2440    0.9780   24.0370 N   0  0  0  0  0  0  0  0  0  0  0  0
   10.3230    0.1910   23.6940 C   0  0  0  0  0  0  0  0  0  0  0  0
    8.5190   -1.3960   22.0510 C   0  0  0  0  0  0  0  0  0  0  0  0
    7.2080   -0.9590   21.4450 C   0  0  0  0  0  0  0  0  0  0  0  0
  1  2  1  0
  2  3  1  0
  3  4  2  0
  3  5  1  0
  5  6  1  0
  6  7  1  0
  7  8  1  0
  8  9  1  0
  9 10  1  0
 10 11  2  0
 11 12  1  0
 12 13  2  0
 13 14  1  0
 14 15  1  0
 15 16  1  0
 16 17  1  0
 17 18  1  0
 18 19  1  0
 19 20  2  0
 21 19  1  6
 21 22  1  0
 22 23  1  0
 23 24  1  0
 21 25  1  0
 24 25  1  0
 15 26  2  0
 26 27  1  0
 10 28  1  0
 14 28  2  0
 27 28  1  0
  8 29  1  0
  5 30  1  0
 29 30  1  0
M  END
