JAN-LUN-04aedcc0-5-nitrile
     RDKit          3D

 36 40  0  0  0  0  0  0  0  0999 V2000
    6.9050   -3.7910   20.1150 C   0  0  0  0  0  0  0  0  0  0  0  0
    5.7150   -3.9530   19.6670 N   0  0  0  0  0  0  0  0  0  0  0  0
    7.2150   -3.4080   21.4030 N   0  0  0  0  0  0  0  0  0  0  0  0
    6.9030   -4.2300   22.5900 C   0  0  0  0  0  0  0  0  0  0  0  0
    8.0440   -4.1210   23.6280 C   0  0  0  0  0  0  0  0  0  0  0  0
    8.2160   -5.3320   24.2780 C   0  0  0  0  0  0  0  0  0  0  0  0
    9.2270   -5.4010   25.2390 C   0  0  0  0  0  0  0  0  0  0  0  0
   10.0330   -4.2290   25.5010 C   0  0  0  0  0  0  0  0  0  0  0  0
   11.0730   -4.1720   26.4140 O   0  0  0  0  0  0  0  0  0  0  0  0
    9.8300   -3.0160   24.8340 C   0  0  0  0  0  0  0  0  0  0  0  0
    8.8070   -2.9890   23.8860 C   0  0  0  0  0  0  0  0  0  0  0  0
    8.3900   -1.8440   23.0550 C   0  0  1  0  0  0  0  0  0  0  0  0
    9.2190   -0.6490   23.2310 C   0  0  0  0  0  0  0  0  0  0  0  0
    8.8240    0.5410   23.3910 C   0  0  0  0  0  0  0  0  0  0  0  0
    9.1120    2.0200   23.5940 C   0  0  0  0  0  0  0  0  0  0  0  0
   10.5020    2.2900   23.6370 C   0  0  0  0  0  0  0  0  0  0  0  0
   11.2090    3.2880   23.7690 O   0  0  0  0  0  0  0  0  0  0  0  0
   10.9990    1.0710   23.4770 C   0  0  0  0  0  0  0  0  0  0  0  0
    9.7460    0.5530   23.4070 C   0  0  0  0  0  0  0  0  0  0  0  0
    8.6970    1.4360   23.5540 N   0  0  0  0  0  0  0  0  0  0  0  0
    8.0560    1.4560   24.7720 C   0  0  0  0  0  0  0  0  0  0  0  0
    8.6290    1.5520   25.8450 O   0  0  0  0  0  0  0  0  0  0  0  0
    6.6510    1.3480   24.6880 N   0  0  0  0  0  0  0  0  0  0  0  0
    6.0780    0.5520   25.6950 C   0  0  0  0  0  0  0  0  0  0  0  0
    4.8780   -0.1530   26.2240 C   0  0  0  0  0  0  0  0  0  0  0  0
    3.7450   -0.1810   25.6840 C   0  0  0  0  0  0  0  0  0  0  0  0
    2.8320    0.2210   24.5640 C   0  0  0  0  0  0  0  0  0  0  0  0
    3.2720    1.0790   23.4160 C   0  0  0  0  0  0  0  0  0  0  0  0
    2.4000    1.4440   22.3840 C   0  0  0  0  0  0  0  0  0  0  0  0
    1.1960    1.4390   22.6180 O   0  0  0  0  0  0  0  0  0  0  0  0
    2.9480    1.7760   21.2040 O   0  0  0  0  0  0  0  0  0  0  0  0
    4.5970    1.4680   23.4720 C   0  0  0  0  0  0  0  0  0  0  0  0
    5.4840    1.1340   24.4640 N   0  0  0  0  0  0  0  0  0  0  0  0
    5.1000    0.3510   25.5240 C   0  0  0  0  0  0  0  0  0  0  0  0
    6.1840    0.0020   26.6470 N   0  0  0  0  0  0  0  0  0  0  0  0
    8.2830   -2.3590   21.6160 C   0  0  0  0  0  0  0  0  0  0  0  0
  1  2  2  3
  1  3  1  0
  3  4  1  0
  4  5  1  0
  5  6  1  0
  6  7  2  0
  7  8  1  0
  8  9  1  0
  8 10  2  0
  5 11  2  0
 10 11  1  0
 11 12  1  0
 12 13  1  6
 13 14  2  0
 14 15  1  0
 15 16  2  0
 16 17  1  0
 16 18  1  0
 13 19  1  0
 18 19  2  0
 19 20  1  0
 20 21  1  0
 21 22  2  0
 21 23  1  0
 23 24  1  0
 24 25  2  0
 25 26  1  0
 26 27  2  0
 27 28  1  0
 28 29  1  0
 29 30  2  0
 29 31  1  0
 28 32  2  0
 32 33  1  0
 26 34  1  0
 33 34  2  0
 24 35  1  0
 34 35  1  0
  3 36  1  0
 12 36  1  0
M  END
