JAN-GHE-6413aaf8-1-acrylamide
     RDKit          3D

 30 33  0  0  0  0  0  0  0  0999 V2000
    7.9050   -3.2800   19.0950 C   0  0  0  0  0  0  0  0  0  0  0  0
    6.7220   -2.4160   18.8510 C   0  0  0  0  0  0  0  0  0  0  0  0
    5.8770   -2.5750   20.0560 C   0  0  0  0  0  0  0  0  0  0  0  0
    4.8540   -3.2160   20.0000 O   0  0  0  0  0  0  0  0  0  0  0  0
    6.3860   -2.0170   21.2210 N   0  0  0  0  0  0  0  0  0  0  0  0
    6.1490   -2.7560   22.4710 C   0  0  0  0  0  0  0  0  0  0  0  0
    7.3450   -3.3010   22.9930 C   0  0  0  0  0  0  0  0  0  0  0  0
    8.2630   -2.2690   23.1200 N   0  0  0  0  0  0  0  0  0  0  0  0
    9.3070   -2.1890   24.0670 C   0  0  0  0  0  0  0  0  0  0  0  0
   10.4740   -1.3490   23.7630 C   0  0  0  0  0  0  0  0  0  0  0  0
   11.7480   -1.7990   23.3930 C   0  0  0  0  0  0  0  0  0  0  0  0
   12.8430   -0.9880   23.0990 C   0  0  0  0  0  0  0  0  0  0  0  0
   12.7340    0.4900   23.1600 C   0  0  0  0  0  0  0  0  0  0  0  0
   11.3650    0.9780   23.5570 C   0  0  0  0  0  0  0  0  0  0  0  0
   11.1430    2.5250   23.6350 C   0  0  0  0  0  0  0  0  0  0  0  0
   10.5250    3.9270   23.8200 C   0  0  0  0  0  0  0  0  0  0  0  0
    9.1830    4.1160   24.1810 C   0  0  0  0  0  0  0  0  0  0  0  0
    8.8870    5.4310   24.4920 N   0  0  0  0  0  0  0  0  0  0  0  0
    8.0030    5.8970   25.4790 C   0  0  0  0  0  0  0  0  0  0  0  0
    8.3690    6.1930   26.6200 O   0  0  0  0  0  0  0  0  0  0  0  0
    6.6410    6.0360   25.1610 C   0  0  0  0  0  0  0  0  0  0  0  0
    6.0750    7.2870   24.9050 C   0  0  0  0  0  0  0  0  0  0  0  0
    4.7480    7.0420   24.6350 C   0  0  0  0  0  0  0  0  0  0  0  0
    4.5910    5.6720   24.7430 C   0  0  0  0  0  0  0  0  0  0  0  0
    5.7380    5.0140   25.0680 N   0  0  0  0  0  0  0  0  0  0  0  0
    9.7960    2.1880   24.0190 C   0  0  0  0  0  0  0  0  0  0  0  0
    9.4240    0.8960   24.1080 N   0  0  0  0  0  0  0  0  0  0  0  0
   10.3770    0.0740   23.8210 C   0  0  0  0  0  0  0  0  0  0  0  0
    8.6080   -1.6790   21.8140 C   0  0  0  0  0  0  0  0  0  0  0  0
    7.5080   -1.0700   21.2380 C   0  0  0  0  0  0  0  0  0  0  0  0
  1  2  1  0
  2  3  1  0
  3  4  2  0
  3  5  1  0
  5  6  1  0
  6  7  1  0
  7  8  1  0
  8  9  1  0
  9 10  1  0
 10 11  2  0
 11 12  1  0
 12 13  2  0
 13 14  1  0
 14 15  1  0
 15 16  1  0
 16 17  1  0
 17 18  1  0
 18 19  1  0
 19 20  2  0
 19 21  1  0
 21 22  2  0
 22 23  1  0
 23 24  2  0
 21 25  1  0
 24 25  1  0
 15 26  2  0
 26 27  1  0
 10 28  1  0
 14 28  2  0
 27 28  1  0
  8 29  1  0
  5 30  1  0
 29 30  1  0
M  END
