JAN-GHE-6413aaf8-10-chloroacetamide
     RDKit          3D

 22 24  0  0  0  0  0  0  0  0999 V2000
    7.4380   -4.3600   20.5940 C   0  0  0  0  0  0  0  0  0  0  0  0
    6.2800   -3.4400   20.4000 C   0  0  0  0  0  0  0  0  0  0  0  0
    5.4330   -3.5350   19.4860 O   0  0  0  0  0  0  0  0  0  0  0  0
    6.3050   -2.4580   21.4250 N   0  0  0  0  0  0  0  0  0  0  0  0
    6.6420   -3.0560   22.6600 C   0  0  0  0  0  0  0  0  0  0  0  0
    7.9750   -2.7400   22.5860 C   0  0  0  0  0  0  0  0  0  0  0  0
    8.6320   -2.4510   23.7550 N   0  0  0  0  0  0  0  0  0  0  0  0
    9.0030   -1.0420   23.9920 C   0  0  0  0  0  0  0  0  0  0  0  0
   10.3380   -0.5830   23.5430 C   0  0  0  0  0  0  0  0  0  0  0  0
   11.4460   -1.4520   23.0430 C   0  0  0  0  0  0  0  0  0  0  0  0
   12.6850   -0.9250   22.6340 C   0  0  0  0  0  0  0  0  0  0  0  0
   12.9960    0.4520   22.6560 C   0  0  0  0  0  0  0  0  0  0  0  0
   11.9290    1.3910   23.1330 C   0  0  0  0  0  0  0  0  0  0  0  0
   11.8240    2.9130   23.2960 C   0  0  0  0  0  0  0  0  0  0  0  0
   12.9390    3.9370   22.9460 C   0  0  0  0  0  0  0  0  0  0  0  0
   12.2550    5.2240   22.5190 C   0  0  0  0  0  0  0  0  0  0  0  0
   10.9750    5.5670   22.7590 N   0  0  0  0  0  0  0  0  0  0  0  0
   13.0300    5.9610   21.9060 O   0  0  0  0  0  0  0  0  0  0  0  0
   10.5430    3.1010   23.8100 C   0  0  0  0  0  0  0  0  0  0  0  0
    9.9430    1.8840   23.9320 N   0  0  0  0  0  0  0  0  0  0  0  0
   10.6390    0.7820   23.5630 C   0  0  0  0  0  0  0  0  0  0  0  0
    7.4510   -1.6350   21.8030 C   0  0  0  0  0  0  0  0  0  0  0  0
  1  2  1  0
  2  3  2  0
  2  4  1  0
  4  5  1  0
  5  6  1  0
  6  7  1  0
  7  8  1  0
  8  9  1  0
  9 10  2  0
 10 11  1  0
 11 12  2  0
 12 13  1  0
 13 14  1  0
 14 15  1  0
 15 16  1  0
 16 17  1  0
 16 18  2  0
 14 19  2  0
 19 20  1  0
  9 21  1  0
 13 21  2  0
 20 21  1  0
  4 22  1  0
  6 22  1  0
M  END
