JAN-UNI-2e92c4b1-2-acrylamide
     RDKit          3D

 22 23  0  0  0  0  0  0  0  0999 V2000
    6.2640   -4.3370   19.9180 C   0  0  0  0  0  0  0  0  0  0  0  0
    6.2810   -3.8310   21.3370 C   0  0  0  0  0  0  0  0  0  0  0  0
    5.8530   -2.3930   21.2900 C   0  0  0  0  0  0  0  0  0  0  0  0
    4.7450   -2.9570   21.2060 O   0  0  0  0  0  0  0  0  0  0  0  0
    7.2390   -2.3230   21.4160 N   0  0  0  0  0  0  0  0  0  0  0  0
    8.0810   -1.1950   21.6850 C   0  0  0  0  0  0  0  0  0  0  0  0
    7.0110   -0.3370   21.6070 N   0  0  0  0  0  0  0  0  0  0  0  0
    6.4520    0.1760   20.3940 C   0  0  0  0  0  0  0  0  0  0  0  0
    5.1740    1.0500   20.4260 C   0  0  0  0  0  0  0  0  0  0  0  0
    4.6300    1.5730   19.1130 C   0  0  0  0  0  0  0  0  0  0  0  0
    5.3050    1.2440   17.9480 C   0  0  0  0  0  0  0  0  0  0  0  0
    6.3770    0.5100   17.8740 N   0  0  0  0  0  0  0  0  0  0  0  0
    6.9810   -0.0520   19.1020 C   0  0  0  0  0  0  0  0  0  0  0  0
    8.6980   -0.0300   21.9350 N   0  0  0  0  0  0  0  0  0  0  0  0
   10.0300   -0.2760   22.1200 C   0  0  0  0  0  0  0  0  0  0  0  0
   10.1510    0.2840   23.4010 C   0  0  0  0  0  0  0  0  0  0  0  0
   11.3860    0.3280   24.1660 N   0  0  0  0  0  0  0  0  0  0  0  0
   12.8730   -0.0890   24.0820 C   0  0  0  0  0  0  0  0  0  0  0  0
   12.4350   -0.5380   22.8850 C   0  0  0  0  0  0  0  0  0  0  0  0
   13.1940   -1.2630   21.7700 C   0  0  0  0  0  0  0  0  0  0  0  0
   13.6380   -1.7840   20.8600 N   0  0  0  0  0  0  0  0  0  0  0  0
   11.2010   -0.3140   22.6820 C   0  0  0  0  0  0  0  0  0  0  0  0
  1  2  1  0
  2  3  1  0
  3  4  2  0
  3  5  1  0
  5  6  2  3
  6  7  1  0
  7  8  1  0
  8  9  2  0
  9 10  1  0
 10 11  2  0
 11 12  1  0
  8 13  1  0
 12 13  2  0
  6 14  1  0
 14 15  1  0
 15 16  2  0
 16 17  1  0
 17 18  2  0
 18 19  1  0
 19 20  1  0
 20 21  3  0
 15 22  1  0
 19 22  2  0
M  END
