JAN-GHE-6413aaf8-7-chloroacetamide
     RDKit          3D

 26 28  0  0  0  0  0  0  0  0999 V2000
    7.2490   -2.9810   18.7750 C   0  0  0  0  0  0  0  0  0  0  0  0
    6.2590   -3.2780   19.8570 C   0  0  0  0  0  0  0  0  0  0  0  0
    5.3870   -4.1420   19.7580 O   0  0  0  0  0  0  0  0  0  0  0  0
    6.4210   -2.4880   21.0260 N   0  0  0  0  0  0  0  0  0  0  0  0
    6.2640   -3.1600   22.3020 C   0  0  0  0  0  0  0  0  0  0  0  0
    7.4960   -3.3330   22.9540 C   0  0  0  0  0  0  0  0  0  0  0  0
    8.2400   -2.1950   23.0520 N   0  0  0  0  0  0  0  0  0  0  0  0
    9.5080   -2.4370   23.7840 C   0  0  0  0  0  0  0  0  0  0  0  0
   10.4830   -1.3600   23.6050 C   0  0  0  0  0  0  0  0  0  0  0  0
   11.8720   -1.5310   23.1150 C   0  0  0  0  0  0  0  0  0  0  0  0
   12.7320   -0.4350   22.9620 C   0  0  0  0  0  0  0  0  0  0  0  0
   12.3380    0.8850   23.2550 C   0  0  0  0  0  0  0  0  0  0  0  0
   10.9280    1.0380   23.7490 C   0  0  0  0  0  0  0  0  0  0  0  0
   10.1370    2.3090   24.1550 C   0  0  0  0  0  0  0  0  0  0  0  0
   10.6260    3.7610   24.1280 C   0  0  0  0  0  0  0  0  0  0  0  0
   10.7010    4.1240   22.6580 C   0  0  0  0  0  0  0  0  0  0  0  0
   11.3190    5.2440   22.2360 N   0  0  0  0  0  0  0  0  0  0  0  0
   12.9830    5.4940   22.3510 S   0  0  0  0  0  0  0  0  0  0  0  0
   13.5580    4.8000   20.8240 C   0  0  0  0  0  0  0  0  0  0  0  0
   13.4380    4.6560   23.4260 O   0  0  0  0  0  0  0  0  0  0  0  0
   13.2310    6.9090   22.3650 O   0  0  0  0  0  0  0  0  0  0  0  0
    8.8590    1.9180   24.5560 C   0  0  0  0  0  0  0  0  0  0  0  0
    8.8860    0.5550   24.3920 N   0  0  0  0  0  0  0  0  0  0  0  0
   10.1010   -0.0490   23.9010 C   0  0  0  0  0  0  0  0  0  0  0  0
    8.4860   -1.6790   21.7570 C   0  0  0  0  0  0  0  0  0  0  0  0
    7.3180   -1.3250   21.0780 C   0  0  0  0  0  0  0  0  0  0  0  0
  1  2  1  0
  2  3  2  0
  2  4  1  0
  4  5  1  0
  5  6  1  0
  6  7  1  0
  7  8  1  0
  8  9  1  0
  9 10  2  0
 10 11  1  0
 11 12  2  0
 12 13  1  0
 13 14  1  0
 14 15  1  0
 15 16  1  0
 16 17  1  0
 18 17  1  0
 18 19  1  0
 18 20  2  0
 18 21  2  0
 14 22  2  0
 22 23  1  0
  9 24  1  0
 13 24  2  0
 23 24  1  0
  7 25  1  0
  4 26  1  0
 25 26  1  0
M  END
