JAN-GHE-6413aaf8-10-nitrile
     RDKit          3D

 21 23  0  0  0  0  0  0  0  0999 V2000
    7.1520   -3.5960   19.9480 C   0  0  0  0  0  0  0  0  0  0  0  0
    5.9720   -4.0750   19.7320 N   0  0  0  0  0  0  0  0  0  0  0  0
    7.3660   -2.4440   20.6970 N   0  0  0  0  0  0  0  0  0  0  0  0
    8.5460   -2.1770   21.4620 C   0  0  0  0  0  0  0  0  0  0  0  0
    7.6690   -2.5130   22.7110 C   0  0  0  0  0  0  0  0  0  0  0  0
    8.2030   -1.6300   23.7750 N   0  0  0  0  0  0  0  0  0  0  0  0
    9.6950   -1.6940   23.7230 C   0  0  0  0  0  0  0  0  0  0  0  0
   10.1010   -0.2630   23.6880 C   0  0  0  0  0  0  0  0  0  0  0  0
   11.2390   -1.2870   23.1360 C   0  0  0  0  0  0  0  0  0  0  0  0
   12.6410   -0.8440   22.6230 C   0  0  0  0  0  0  0  0  0  0  0  0
   12.9000    0.6400   22.6530 C   0  0  0  0  0  0  0  0  0  0  0  0
   11.8120    1.4960   23.1440 C   0  0  0  0  0  0  0  0  0  0  0  0
   11.8200    2.9870   23.2200 C   0  0  0  0  0  0  0  0  0  0  0  0
   12.7550    3.9500   22.8570 C   0  0  0  0  0  0  0  0  0  0  0  0
   12.2590    5.1960   23.2240 C   0  0  0  0  0  0  0  0  0  0  0  0
   11.4910    6.0000   22.4210 N   0  0  0  0  0  0  0  0  0  0  0  0
   12.4750    5.6030   24.3570 O   0  0  0  0  0  0  0  0  0  0  0  0
   10.5840    3.2460   23.7690 C   0  0  0  0  0  0  0  0  0  0  0  0
    9.8790    2.0870   23.9880 N   0  0  0  0  0  0  0  0  0  0  0  0
   10.6370    1.0210   23.5860 C   0  0  0  0  0  0  0  0  0  0  0  0
    6.4750   -2.0390   21.7830 C   0  0  0  0  0  0  0  0  0  0  0  0
  1  2  2  3
  1  3  1  0
  3  4  1  0
  4  5  1  0
  5  6  1  0
  6  7  1  0
  7  8  1  0
  8  9  2  0
  9 10  1  0
 10 11  2  0
 11 12  1  0
 12 13  1  0
 13 14  1  0
 14 15  1  0
 15 16  1  0
 15 17  2  0
 13 18  2  0
 18 19  1  0
  8 20  1  0
 12 20  2  0
 19 20  1  0
  3 21  1  0
  5 21  1  0
M  END
