JAN-GHE-bf40f168-9-nitrile
     RDKit          3D

 20 22  0  0  0  0  0  0  0  0999 V2000
    6.5600   -4.2970   20.2820 C   0  0  0  0  0  0  0  0  0  0  0  0
    5.4360   -4.0270   19.7880 N   0  0  0  0  0  0  0  0  0  0  0  0
    6.6880   -4.9520   21.5260 N   0  0  0  0  0  0  0  0  0  0  0  0
    5.6840   -5.9460   21.9390 C   0  0  0  0  0  0  0  0  0  0  0  0
    4.8380   -5.4710   23.1310 C   0  0  0  0  0  0  0  0  0  0  0  0
    5.7430   -5.1910   24.2620 N   0  0  0  0  0  0  0  0  0  0  0  0
    5.0740   -5.0000   25.5730 C   0  0  0  0  0  0  0  0  0  0  0  0
    4.1230   -3.8020   25.7120 C   0  0  0  0  0  0  0  0  0  0  0  0
    2.6310   -4.0050   25.8320 C   0  0  0  0  0  0  0  0  0  0  0  0
    2.0350   -2.7680   25.9650 N   0  0  0  0  0  0  0  0  0  0  0  0
    3.0590   -1.7100   26.1780 C   0  0  1  0  0  0  0  0  0  0  0  0
    2.9730   -1.3090   27.6310 C   0  0  0  0  0  0  0  0  0  0  0  0
    4.1360   -1.2370   28.4130 C   0  0  0  0  0  0  0  0  0  0  0  0
    5.3920   -1.5320   27.8670 C   0  0  0  0  0  0  0  0  0  0  0  0
    6.5180   -1.2860   28.6490 C   0  0  0  0  0  0  0  0  0  0  0  0
    7.4420   -1.0820   29.3140 N   0  0  0  0  0  0  0  0  0  0  0  0
    5.5270   -2.0420   26.6180 C   0  0  0  0  0  0  0  0  0  0  0  0
    4.4580   -2.3300   25.7660 C   0  0  1  0  0  0  0  0  0  0  0  0
    6.6880   -4.1130   23.9040 C   0  0  0  0  0  0  0  0  0  0  0  0
    7.5140   -4.4510   22.6600 C   0  0  0  0  0  0  0  0  0  0  0  0
  1  2  2  3
  1  3  1  0
  3  4  1  0
  4  5  1  0
  5  6  1  0
  6  7  1  0
  7  8  1  0
  8  9  2  0
  9 10  1  0
 10 11  1  0
 11 12  1  1
 12 13  2  0
 13 14  1  0
 14 15  1  0
 15 16  3  0
 14 17  2  0
  8 18  1  0
 11 18  1  0
 18 17  1  1
  6 19  1  0
  3 20  1  0
 19 20  1  0
M  END
