JAN-GHE-bf40f168-3-vinylsulfonamide
     RDKit          3D

 36 39  0  0  0  0  0  0  0  0999 V2000
    8.0990   -3.4730   19.8820 C   0  0  0  0  0  0  0  0  0  0  0  0
    6.9070   -2.7000   19.3630 C   0  0  0  0  0  0  0  0  0  0  0  0
    5.6070   -3.6150   20.0880 S   0  0  0  0  0  0  0  0  0  0  0  0
    4.7850   -2.9530   21.0380 O   0  0  0  0  0  0  0  0  0  0  0  0
    5.0900   -4.5640   19.2280 O   0  0  0  0  0  0  0  0  0  0  0  0
    6.5710   -4.4930   21.0550 N   0  0  0  0  0  0  0  0  0  0  0  0
    7.1940   -3.8660   22.1860 C   0  0  0  0  0  0  0  0  0  0  0  0
    7.2610   -4.8830   23.2920 C   0  0  1  0  0  0  0  0  0  0  0  0
    6.7220   -4.3460   24.5680 C   0  0  0  0  0  0  0  0  0  0  0  0
    5.7840   -5.3500   25.0130 N   0  0  0  0  0  0  0  0  0  0  0  0
    4.9720   -5.0510   26.4380 S   0  0  0  0  0  0  0  0  0  0  0  0
    4.1500   -6.2250   26.6240 O   0  0  0  0  0  0  0  0  0  0  0  0
    5.9990   -4.6680   27.3750 O   0  0  0  0  0  0  0  0  0  0  0  0
    3.9550   -3.6200   26.1860 C   0  0  0  0  0  0  0  0  0  0  0  0
    2.5010   -3.9250   25.9350 C   0  0  0  0  0  0  0  0  0  0  0  0
    2.0060   -5.1720   25.8900 F   0  0  0  0  0  0  0  0  0  0  0  0
    1.5710   -2.7760   25.7330 C   0  0  0  0  0  0  0  0  0  0  0  0
    2.0990   -1.4790   25.7870 C   0  0  0  0  0  0  0  0  0  0  0  0
    3.4670   -1.2400   26.0160 C   0  0  0  0  0  0  0  0  0  0  0  0
    4.4030   -2.2630   26.2160 C   0  0  0  0  0  0  0  0  0  0  0  0
    5.7480   -1.9800   26.4460 O   0  0  0  0  0  0  0  0  0  0  0  0
    6.4760   -0.9240   25.7480 C   0  0  0  0  0  0  0  0  0  0  0  0
    7.4590   -0.3380   26.6030 C   0  0  0  0  0  0  0  0  0  0  0  0
    8.9210   -0.7670   26.3780 C   0  0  0  0  0  0  0  0  0  0  0  0
    9.8090    0.1050   25.5860 N   0  0  0  0  0  0  0  0  0  0  0  0
   10.5550   -0.3830   24.5260 C   0  0  0  0  0  0  0  0  0  0  0  0
   10.0070   -1.6110   23.7890 C   0  0  0  0  0  0  0  0  0  0  0  0
   11.1270   -1.7610   22.7720 C   0  0  0  0  0  0  0  0  0  0  0  0
   12.2740   -1.0310   22.5720 C   0  0  0  0  0  0  0  0  0  0  0  0
   13.0830   -1.3860   21.6100 C   0  0  0  0  0  0  0  0  0  0  0  0
   13.7190   -1.6700   20.7170 N   0  0  0  0  0  0  0  0  0  0  0  0
   12.5300    0.0210   23.3610 C   0  0  0  0  0  0  0  0  0  0  0  0
   11.6860    0.3420   24.3240 N   0  0  0  0  0  0  0  0  0  0  0  0
    5.1050   -5.4150   23.6770 C   0  0  0  0  0  0  0  0  0  0  0  0
    6.1910   -5.8650   22.9130 C   0  0  1  0  0  0  0  0  0  0  0  0
    6.1670   -5.8000   21.5380 C   0  0  0  0  0  0  0  0  0  0  0  0
  1  2  1  0
  3  2  1  0
  3  4  2  0
  3  5  2  0
  3  6  1  0
  6  7  1  0
  8  7  1  6
  8  9  1  0
  9 10  1  0
 10 11  1  0
 11 12  2  0
 11 13  2  0
 11 14  1  0
 14 15  2  0
 15 16  1  0
 15 17  1  0
 17 18  2  0
 18 19  1  0
 14 20  1  0
 19 20  2  0
 20 21  1  0
 21 22  1  0
 22 23  1  0
 23 24  1  0
 24 25  1  0
 25 26  1  0
 26 27  2  0
 27 28  1  0
 28 29  2  0
 29 30  1  0
 30 31  3  0
 29 32  1  0
 26 33  1  0
 32 33  2  0
 10 34  1  0
  8 35  1  0
 35 34  1  1
  6 36  1  0
 35 36  1  0
M  END
