JAN-GHE-6413aaf8-7-vinylsulfonamide
     RDKit          3D

 28 30  0  0  0  0  0  0  0  0999 V2000
    7.3630   -2.8680   18.3210 C   0  0  0  0  0  0  0  0  0  0  0  0
    6.3530   -2.2450   19.2710 C   0  0  0  0  0  0  0  0  0  0  0  0
    5.7320   -3.3770   20.4490 S   0  0  0  0  0  0  0  0  0  0  0  0
    4.6590   -2.8860   21.2240 O   0  0  0  0  0  0  0  0  0  0  0  0
    5.6080   -4.7160   19.9120 O   0  0  0  0  0  0  0  0  0  0  0  0
    6.9540   -3.1390   21.5340 N   0  0  0  0  0  0  0  0  0  0  0  0
    6.6580   -3.4710   22.8790 C   0  0  0  0  0  0  0  0  0  0  0  0
    7.8170   -3.3310   23.6160 C   0  0  0  0  0  0  0  0  0  0  0  0
    8.5010   -2.1670   23.4280 N   0  0  0  0  0  0  0  0  0  0  0  0
    9.7710   -2.2420   24.1210 C   0  0  0  0  0  0  0  0  0  0  0  0
   10.6980   -1.2020   23.7760 C   0  0  0  0  0  0  0  0  0  0  0  0
   12.0310   -1.4100   23.1730 C   0  0  0  0  0  0  0  0  0  0  0  0
   12.9170   -0.3890   22.8510 C   0  0  0  0  0  0  0  0  0  0  0  0
   12.5040    0.9210   23.1240 C   0  0  0  0  0  0  0  0  0  0  0  0
   11.1580    1.1690   23.7310 C   0  0  0  0  0  0  0  0  0  0  0  0
   10.4730    2.4830   24.1180 C   0  0  0  0  0  0  0  0  0  0  0  0
   11.0860    3.8740   23.9440 C   0  0  0  0  0  0  0  0  0  0  0  0
   10.3250    4.6740   22.9090 C   0  0  0  0  0  0  0  0  0  0  0  0
   10.9820    5.6430   22.2210 N   0  0  0  0  0  0  0  0  0  0  0  0
   12.5990    5.3100   21.7920 S   0  0  0  0  0  0  0  0  0  0  0  0
   13.2360    4.7260   23.3130 C   0  0  0  0  0  0  0  0  0  0  0  0
   13.2700    6.5460   21.5070 O   0  0  0  0  0  0  0  0  0  0  0  0
   12.5470    4.2200   20.8450 O   0  0  0  0  0  0  0  0  0  0  0  0
    9.2270    2.1600   24.6440 C   0  0  0  0  0  0  0  0  0  0  0  0
    9.1630    0.7860   24.5840 N   0  0  0  0  0  0  0  0  0  0  0  0
   10.3290    0.1230   24.0270 C   0  0  0  0  0  0  0  0  0  0  0  0
    8.7230   -1.8650   22.0740 C   0  0  0  0  0  0  0  0  0  0  0  0
    7.5390   -1.8030   21.3850 C   0  0  0  0  0  0  0  0  0  0  0  0
  1  2  1  0
  3  2  1  0
  3  4  2  0
  3  5  2  0
  3  6  1  0
  6  7  1  0
  7  8  1  0
  8  9  1  0
  9 10  1  0
 10 11  1  0
 11 12  2  0
 12 13  1  0
 13 14  2  0
 14 15  1  0
 15 16  1  0
 16 17  1  0
 17 18  1  0
 18 19  1  0
 20 19  1  0
 20 21  1  0
 20 22  2  0
 20 23  2  0
 16 24  2  0
 24 25  1  0
 11 26  1  0
 15 26  2  0
 25 26  1  0
  9 27  1  0
  6 28  1  0
 27 28  1  0
M  END
