JAN-GHE-6413aaf8-2-acrylamide
     RDKit          3D

 29 32  0  0  0  0  0  0  0  0999 V2000
    6.3120   -3.5520   19.2430 C   0  0  0  0  0  0  0  0  0  0  0  0
    6.1620   -2.4950   20.3240 C   0  0  0  0  0  0  0  0  0  0  0  0
    5.8910   -3.1160   21.6810 C   0  0  0  0  0  0  0  0  0  0  0  0
    4.9080   -3.8500   21.8860 O   0  0  0  0  0  0  0  0  0  0  0  0
    6.7970   -2.7990   22.6710 N   0  0  0  0  0  0  0  0  0  0  0  0
    7.9970   -3.5810   22.8970 C   0  0  0  0  0  0  0  0  0  0  0  0
    8.9040   -2.4290   22.5340 C   0  0  0  0  0  0  0  0  0  0  0  0
    9.8830   -2.1610   23.6530 N   0  0  0  0  0  0  0  0  0  0  0  0
   10.1360   -0.7180   23.8640 C   0  0  0  0  0  0  0  0  0  0  0  0
   11.4730   -0.2820   23.2400 C   0  0  0  0  0  0  0  0  0  0  0  0
   11.4730   -1.9350   23.1480 C   0  0  0  0  0  0  0  0  0  0  0  0
   12.6130   -1.1400   22.6370 C   0  0  0  0  0  0  0  0  0  0  0  0
   11.8190   -0.0360   23.0900 C   0  0  0  0  0  0  0  0  0  0  0  0
   12.5250    1.0140   22.8240 C   0  0  0  0  0  0  0  0  0  0  0  0
   12.2500    2.2170   23.0170 C   0  0  0  0  0  0  0  0  0  0  0  0
   11.1250    2.7950   23.5460 C   0  0  0  0  0  0  0  0  0  0  0  0
   11.3840    4.2050   23.6050 C   0  0  0  0  0  0  0  0  0  0  0  0
   10.6340    5.0280   22.8540 N   0  0  0  0  0  0  0  0  0  0  0  0
    9.7610    5.7910   23.5160 C   0  0  0  0  0  0  0  0  0  0  0  0
    9.8700    6.2030   24.6670 O   0  0  0  0  0  0  0  0  0  0  0  0
    8.6410    6.1460   22.7900 C   0  0  0  0  0  0  0  0  0  0  0  0
    8.4290    7.2480   22.0260 C   0  0  0  0  0  0  0  0  0  0  0  0
    7.2000    7.2010   21.4740 C   0  0  0  0  0  0  0  0  0  0  0  0
    6.5520    6.0330   21.8750 C   0  0  0  0  0  0  0  0  0  0  0  0
    7.4580    5.3520   22.7160 N   0  0  0  0  0  0  0  0  0  0  0  0
   12.9330    3.0980   22.7580 C   0  0  0  0  0  0  0  0  0  0  0  0
   11.6320    2.7690   23.3370 N   0  0  0  0  0  0  0  0  0  0  0  0
   11.2970    1.2320   23.4080 C   0  0  0  0  0  0  0  0  0  0  0  0
    7.6160   -1.5610   22.7060 C   0  0  0  0  0  0  0  0  0  0  0  0
  1  2  1  0
  2  3  1  0
  3  4  2  0
  3  5  1  0
  5  6  1  0
  6  7  1  0
  7  8  1  0
  8  9  1  0
  9 10  1  0
 10 11  2  0
 11 12  1  0
 12 13  2  0
 13 14  1  0
 14 15  1  0
 15 16  1  0
 16 17  1  0
 17 18  1  0
 18 19  1  0
 19 20  2  0
 19 21  1  0
 21 22  2  0
 22 23  1  0
 23 24  2  0
 21 25  1  0
 24 25  1  0
 15 26  2  0
 26 27  1  0
 10 28  1  0
 14 28  2  0
 27 28  1  0
  5 29  1  0
  7 29  1  0
M  END
