JAN-GHE-bf40f168-8-acrylamide
     RDKit          3D

 32 34  0  0  0  0  0  0  0  0999 V2000
    8.2410   -4.0690   20.8290 C   0  0  0  0  0  0  0  0  0  0  0  0
    7.2120   -3.0930   21.4120 C   0  0  0  0  0  0  0  0  0  0  0  0
    5.9270   -2.9420   20.6410 C   0  0  0  0  0  0  0  0  0  0  0  0
    4.8430   -3.1290   20.1370 O   0  0  0  0  0  0  0  0  0  0  0  0
    5.7450   -4.2270   21.0960 N   0  0  0  0  0  0  0  0  0  0  0  0
    4.9520   -4.5890   22.2380 C   0  0  0  0  0  0  0  0  0  0  0  0
    6.1450   -4.6120   23.1230 C   0  0  0  0  0  0  0  0  0  0  0  0
    6.2240   -5.5040   24.2850 N   0  0  0  0  0  0  0  0  0  0  0  0
    5.2360   -5.4450   25.7000 S   0  0  0  0  0  0  0  0  0  0  0  0
    5.9250   -6.2060   26.7000 O   0  0  0  0  0  0  0  0  0  0  0  0
    3.9450   -5.9200   25.3230 O   0  0  0  0  0  0  0  0  0  0  0  0
    4.9530   -3.7900   26.2190 C   0  0  0  0  0  0  0  0  0  0  0  0
    3.8370   -2.9130   25.3060 C   0  0  0  0  0  0  0  0  0  0  0  0
    2.9800   -2.2240   24.6130 F   0  0  0  0  0  0  0  0  0  0  0  0
    3.2490   -1.5060   25.4150 C   0  0  0  0  0  0  0  0  0  0  0  0
    3.4980   -0.6730   26.2700 C   0  0  0  0  0  0  0  0  0  0  0  0
    4.1060   -1.8800   26.2940 C   0  0  0  0  0  0  0  0  0  0  0  0
    4.1490   -3.1590   25.5600 C   0  0  0  0  0  0  0  0  0  0  0  0
    4.9060   -2.7800   26.6740 O   0  0  0  0  0  0  0  0  0  0  0  0
    6.4290   -2.5330   26.6990 C   0  0  0  0  0  0  0  0  0  0  0  0
    6.9800   -1.5210   25.7950 C   0  0  0  0  0  0  0  0  0  0  0  0
    8.1110   -0.4850   26.2220 C   0  0  0  0  0  0  0  0  0  0  0  0
    9.5980   -0.6550   25.9470 N   0  0  0  0  0  0  0  0  0  0  0  0
   10.3590   -0.8930   24.7750 C   0  0  0  0  0  0  0  0  0  0  0  0
    9.9340   -1.9820   23.7750 C   0  0  0  0  0  0  0  0  0  0  0  0
   11.0570   -1.8890   22.7290 C   0  0  0  0  0  0  0  0  0  0  0  0
   12.1660   -1.0560   22.6700 C   0  0  0  0  0  0  0  0  0  0  0  0
   13.0370   -1.1600   21.6570 C   0  0  0  0  0  0  0  0  0  0  0  0
   13.7890   -1.2900   20.7710 N   0  0  0  0  0  0  0  0  0  0  0  0
   12.3310   -0.1550   23.6660 C   0  0  0  0  0  0  0  0  0  0  0  0
   11.4510   -0.0780   24.6910 N   0  0  0  0  0  0  0  0  0  0  0  0
    6.7700   -5.0130   21.7070 C   0  0  0  0  0  0  0  0  0  0  0  0
  1  2  1  0
  2  3  1  0
  3  4  2  0
  3  5  1  0
  5  6  1  0
  6  7  1  0
  7  8  1  0
  9  8  1  0
  9 10  2  0
  9 11  2  0
  9 12  1  0
 12 13  2  0
 13 14  1  0
 13 15  1  0
 15 16  2  0
 16 17  1  0
 12 18  1  0
 17 18  2  0
 18 19  1  0
 19 20  1  0
 20 21  1  0
 21 22  1  0
 22 23  1  0
 23 24  1  0
 24 25  2  0
 25 26  1  0
 26 27  2  0
 27 28  1  0
 28 29  3  0
 27 30  1  0
 24 31  1  0
 30 31  2  0
  5 32  1  0
  7 32  1  0
M  END
