JAN-GHE-bf40f168-4-acrylamide
     RDKit          3D

 36 40  0  0  0  0  0  0  0  0999 V2000
    7.2500   -2.9870   18.7280 C   0  0  0  0  0  0  0  0  0  0  0  0
    6.2910   -3.0240   19.9340 C   0  0  0  0  0  0  0  0  0  0  0  0
    5.4860   -4.3040   20.1490 C   0  0  0  0  0  0  0  0  0  0  0  0
    4.7560   -3.8850   19.3080 O   0  0  0  0  0  0  0  0  0  0  0  0
    6.4730   -4.3980   21.0000 N   0  0  0  0  0  0  0  0  0  0  0  0
    6.7780   -3.2450   21.7830 C   0  0  0  0  0  0  0  0  0  0  0  0
    6.4740   -3.7000   23.1720 C   0  0  1  0  0  0  0  0  0  0  0  0
    5.0360   -4.0710   23.4630 C   0  0  0  0  0  0  0  0  0  0  0  0
    5.2160   -5.0900   24.4790 N   0  0  0  0  0  0  0  0  0  0  0  0
    4.9220   -4.7850   26.1020 S   0  0  0  0  0  0  0  0  0  0  0  0
    4.2270   -5.9800   26.5250 O   0  0  0  0  0  0  0  0  0  0  0  0
    6.0910   -4.2950   26.7740 O   0  0  0  0  0  0  0  0  0  0  0  0
    3.7760   -3.4560   26.0640 C   0  0  0  0  0  0  0  0  0  0  0  0
    2.3170   -3.8180   26.0240 C   0  0  0  0  0  0  0  0  0  0  0  0
    1.3770   -2.7960   25.9980 C   0  0  0  0  0  0  0  0  0  0  0  0
    1.8070   -1.4710   26.0080 C   0  0  0  0  0  0  0  0  0  0  0  0
    3.1660   -1.1320   26.0380 C   0  0  0  0  0  0  0  0  0  0  0  0
    4.1800   -2.0870   26.0650 C   0  0  0  0  0  0  0  0  0  0  0  0
    5.5170   -1.5660   26.0810 C   0  0  0  0  0  0  0  0  0  0  0  0
    6.2700   -1.1130   27.3540 C   0  0  0  0  0  0  0  0  0  0  0  0
    7.7130   -0.5470   27.2290 C   0  0  0  0  0  0  0  0  0  0  0  0
    8.4020   -0.4320   25.8800 C   0  0  0  0  0  0  0  0  0  0  0  0
    9.7160    0.0570   25.6250 N   0  0  0  0  0  0  0  0  0  0  0  0
   10.5790   -0.3530   24.6000 C   0  0  0  0  0  0  0  0  0  0  0  0
   10.2470   -1.4470   23.8090 C   0  0  0  0  0  0  0  0  0  0  0  0
   11.0380   -1.8310   22.8300 C   0  0  0  0  0  0  0  0  0  0  0  0
   12.2200   -1.1150   22.6110 C   0  0  0  0  0  0  0  0  0  0  0  0
   13.0710   -1.4690   21.6010 C   0  0  0  0  0  0  0  0  0  0  0  0
   13.7210   -1.7340   20.7170 N   0  0  0  0  0  0  0  0  0  0  0  0
   12.4460   -0.0610   23.4540 C   0  0  0  0  0  0  0  0  0  0  0  0
   11.5720    0.2670   24.4380 N   0  0  0  0  0  0  0  0  0  0  0  0
    7.6450   -0.8650   24.7780 C   0  0  0  0  0  0  0  0  0  0  0  0
    6.2270   -1.4200   24.8770 C   0  0  0  0  0  0  0  0  0  0  0  0
    6.3780   -5.8280   24.1460 C   0  0  0  0  0  0  0  0  0  0  0  0
    7.1130   -5.0530   23.1390 C   0  0  1  0  0  0  0  0  0  0  0  0
    6.8020   -5.5820   21.7500 C   0  0  0  0  0  0  0  0  0  0  0  0
  1  2  1  0
  2  3  1  0
  3  4  2  0
  3  5  1  0
  5  6  1  0
  7  6  1  6
  7  8  1  0
  8  9  1  0
  9 10  1  0
 10 11  2  0
 10 12  2  0
 10 13  1  0
 13 14  2  0
 14 15  1  0
 15 16  2  0
 16 17  1  0
 13 18  1  0
 17 18  2  0
 18 19  1  0
 19 20  2  0
 20 21  1  0
 21 22  2  0
 22 23  1  0
 23 24  1  0
 24 25  2  0
 25 26  1  0
 26 27  2  0
 27 28  1  0
 28 29  3  0
 27 30  1  0
 24 31  1  0
 30 31  2  0
 22 32  1  0
 19 33  1  0
 32 33  2  0
  9 34  1  0
  7 35  1  0
 35 34  1  1
  5 36  1  0
 35 36  1  0
M  END
