JAN-GHE-bf40f168-2-vinylsulfonamide
     RDKit          3D

 35 38  0  0  0  0  0  0  0  0999 V2000
    7.3880   -3.0710   19.0220 C   0  0  0  0  0  0  0  0  0  0  0  0
    7.0960   -2.9280   20.4890 C   0  0  0  0  0  0  0  0  0  0  0  0
    5.7750   -4.0230   20.8930 S   0  0  0  0  0  0  0  0  0  0  0  0
    4.7950   -3.2490   21.5890 O   0  0  0  0  0  0  0  0  0  0  0  0
    5.3630   -4.7890   19.7500 O   0  0  0  0  0  0  0  0  0  0  0  0
    6.4030   -5.0640   22.0580 N   0  0  0  0  0  0  0  0  0  0  0  0
    5.4430   -5.8860   22.7720 C   0  0  0  0  0  0  0  0  0  0  0  0
    4.4730   -4.9850   23.5660 C   0  0  0  0  0  0  0  0  0  0  0  0
    5.4340   -4.7510   24.7000 N   0  0  0  0  0  0  0  0  0  0  0  0
    4.8910   -4.4480   26.2830 S   0  0  0  0  0  0  0  0  0  0  0  0
    6.0250   -3.9950   27.0550 O   0  0  0  0  0  0  0  0  0  0  0  0
    4.1960   -5.6610   26.6570 O   0  0  0  0  0  0  0  0  0  0  0  0
    3.6230   -3.1870   26.2090 C   0  0  0  0  0  0  0  0  0  0  0  0
    2.3410   -3.8800   26.5730 C   0  0  0  0  0  0  0  0  0  0  0  0
    1.1020   -3.1410   26.6190 C   0  0  0  0  0  0  0  0  0  0  0  0
    1.2500   -1.7400   26.2920 C   0  0  0  0  0  0  0  0  0  0  0  0
    2.5180   -1.2260   25.9670 C   0  0  0  0  0  0  0  0  0  0  0  0
    3.8610   -1.7690   25.8610 C   0  0  0  0  0  0  0  0  0  0  0  0
    5.0860   -2.3510   25.7820 C   0  0  0  0  0  0  0  0  0  0  0  0
    5.6170   -0.9250   25.6700 C   0  0  0  0  0  0  0  0  0  0  0  0
    7.0240   -0.2920   25.5140 C   0  0  0  0  0  0  0  0  0  0  0  0
    8.4260   -1.0320   25.4170 C   0  0  0  0  0  0  0  0  0  0  0  0
    9.2530    0.1490   25.2790 N   0  0  0  0  0  0  0  0  0  0  0  0
   10.2140   -0.2600   24.3800 C   0  0  0  0  0  0  0  0  0  0  0  0
    9.9760   -1.7240   23.9310 C   0  0  0  0  0  0  0  0  0  0  0  0
   11.1410   -1.8400   22.9750 C   0  0  0  0  0  0  0  0  0  0  0  0
   12.0960   -0.9210   22.6360 C   0  0  0  0  0  0  0  0  0  0  0  0
   12.9880   -1.2990   21.7510 C   0  0  0  0  0  0  0  0  0  0  0  0
   13.6580   -1.6210   20.8840 N   0  0  0  0  0  0  0  0  0  0  0  0
   12.0920    0.3130   23.1880 C   0  0  0  0  0  0  0  0  0  0  0  0
   11.1550    0.6580   24.0590 N   0  0  0  0  0  0  0  0  0  0  0  0
    7.3640   -1.6780   25.5450 C   0  0  0  0  0  0  0  0  0  0  0  0
    6.3540   -2.4070   25.6720 C   0  0  0  0  0  0  0  0  0  0  0  0
    6.2150   -3.7270   23.9130 C   0  0  0  0  0  0  0  0  0  0  0  0
    7.2210   -4.3980   23.0200 C   0  0  0  0  0  0  0  0  0  0  0  0
  1  2  1  0
  3  2  1  0
  3  4  2  0
  3  5  2  0
  3  6  1  0
  6  7  1  0
  7  8  1  0
  8  9  1  0
  9 10  1  0
 10 11  2  0
 10 12  2  0
 10 13  1  0
 13 14  2  0
 14 15  1  0
 15 16  2  0
 16 17  1  0
 13 18  1  0
 17 18  2  0
 18 19  1  0
 19 20  2  0
 20 21  1  0
 21 22  2  0
 22 23  1  0
 23 24  1  0
 24 25  2  0
 25 26  1  0
 26 27  2  0
 27 28  1  0
 28 29  3  0
 27 30  1  0
 24 31  1  0
 30 31  2  0
 22 32  1  0
 19 33  1  0
 32 33  2  0
  9 34  1  0
  6 35  1  0
 34 35  1  0
M  END
