JAN-LUN-04aedcc0-7-chloroacetamide
     RDKit          3D

 37 40  0  0  0  0  0  0  0  0999 V2000
    7.4900   -3.0260   18.8230 C   0  0  0  0  0  0  0  0  0  0  0  0
    6.7620   -3.4280   20.0500 C   0  0  0  0  0  0  0  0  0  0  0  0
    5.7850   -4.2120   19.8790 O   0  0  0  0  0  0  0  0  0  0  0  0
    7.2230   -2.9440   21.3210 N   0  0  0  0  0  0  0  0  0  0  0  0
    6.4460   -3.1380   22.5540 C   0  0  0  0  0  0  0  0  0  0  0  0
    7.2880   -3.6840   23.4850 C   0  0  0  0  0  0  0  0  0  0  0  0
    6.9400   -4.7230   24.3550 C   0  0  0  0  0  0  0  0  0  0  0  0
    7.8930   -5.2610   25.3120 C   0  0  0  0  0  0  0  0  0  0  0  0
    9.1790   -4.7370   25.3580 C   0  0  0  0  0  0  0  0  0  0  0  0
   10.0810   -5.1100   26.1160 O   0  0  0  0  0  0  0  0  0  0  0  0
    9.5630   -3.7050   24.5200 C   0  0  0  0  0  0  0  0  0  0  0  0
    8.5630   -3.1740   23.5610 C   0  0  0  0  0  0  0  0  0  0  0  0
    9.1580   -2.0820   22.7830 C   0  0  1  0  0  0  0  0  0  0  0  0
   10.2230   -1.4510   22.7190 C   0  0  0  0  0  0  0  0  0  0  0  0
   11.6350   -1.4350   22.3760 C   0  0  0  0  0  0  0  0  0  0  0  0
   12.5650   -0.4600   22.5410 C   0  0  0  0  0  0  0  0  0  0  0  0
   12.1940    0.6780   23.1000 C   0  0  0  0  0  0  0  0  0  0  0  0
   12.9510    1.5980   23.2930 O   0  0  0  0  0  0  0  0  0  0  0  0
   10.9120    0.8300   23.4630 C   0  0  0  0  0  0  0  0  0  0  0  0
    9.6370   -0.0200   23.3820 C   0  0  0  0  0  0  0  0  0  0  0  0
    8.5850   -0.9500   23.2140 N   0  0  0  0  0  0  0  0  0  0  0  0
    8.0630   -0.2330   21.9890 C   0  0  0  0  0  0  0  0  0  0  0  0
    8.7230    0.9170   21.4130 O   0  0  0  0  0  0  0  0  0  0  0  0
    6.9020   -0.7670   21.4880 N   0  0  0  0  0  0  0  0  0  0  0  0
    6.3730   -0.0650   20.4420 C   0  0  0  0  0  0  0  0  0  0  0  0
    6.9740   -0.2560   19.2060 C   0  0  0  0  0  0  0  0  0  0  0  0
    6.5790    0.3470   18.0490 N   0  0  0  0  0  0  0  0  0  0  0  0
    5.4200    1.2780   18.1030 C   0  0  0  0  0  0  0  0  0  0  0  0
    4.7720    1.4800   19.4700 C   0  0  0  0  0  0  0  0  0  0  0  0
    3.6780    2.3470   19.6090 C   0  0  0  0  0  0  0  0  0  0  0  0
    2.6360    1.9760   20.6340 C   0  0  0  0  0  0  0  0  0  0  0  0
    1.4110    2.7750   20.2270 C   0  0  0  0  0  0  0  0  0  0  0  0
    0.8520    3.2030   21.4660 C   0  0  0  0  0  0  0  0  0  0  0  0
    1.6640    3.6410   22.4480 O   0  0  0  0  0  0  0  0  0  0  0  0
   -0.4930    3.1350   21.5610 O   0  0  0  0  0  0  0  0  0  0  0  0
    5.2980    0.7850   20.5760 C   0  0  0  0  0  0  0  0  0  0  0  0
    8.6170   -2.3000   21.4550 C   0  0  0  0  0  0  0  0  0  0  0  0
  1  2  1  0
  2  3  2  0
  2  4  1  0
  4  5  1  0
  5  6  1  0
  6  7  1  0
  7  8  2  0
  8  9  1  0
  9 10  1  0
  9 11  2  0
  6 12  2  0
 11 12  1  0
 12 13  1  0
 13 14  1  6
 14 15  2  0
 15 16  1  0
 16 17  2  0
 17 18  1  0
 17 19  1  0
 14 20  1  0
 19 20  2  0
 20 21  1  0
 21 22  1  0
 22 23  2  0
 22 24  1  0
 24 25  1  0
 25 26  2  0
 26 27  1  0
 27 28  2  0
 28 29  1  0
 29 30  1  0
 30 31  1  0
 31 32  1  0
 32 33  1  0
 33 34  2  0
 33 35  1  0
 25 36  1  0
 29 36  2  0
  4 37  1  0
 13 37  1  0
M  END
