JAN-LUN-04aedcc0-6-nitrile
     RDKit          3D

 35 39  0  0  0  0  0  0  0  0999 V2000
    6.8150   -3.3950   19.8420 C   0  0  0  0  0  0  0  0  0  0  0  0
    5.8110   -3.2750   19.1190 N   0  0  0  0  0  0  0  0  0  0  0  0
    6.8410   -2.8700   21.1770 N   0  0  0  0  0  0  0  0  0  0  0  0
    6.3230   -3.7260   22.3280 C   0  0  0  0  0  0  0  0  0  0  0  0
    7.3900   -3.7580   23.4530 C   0  0  0  0  0  0  0  0  0  0  0  0
    7.4860   -5.0530   23.8490 C   0  0  0  0  0  0  0  0  0  0  0  0
    8.4630   -5.3000   24.8610 C   0  0  0  0  0  0  0  0  0  0  0  0
    9.2210   -4.1490   25.3500 C   0  0  0  0  0  0  0  0  0  0  0  0
    9.0620   -2.8450   24.8990 C   0  0  0  0  0  0  0  0  0  0  0  0
    8.0790   -2.6830   23.8770 C   0  0  0  0  0  0  0  0  0  0  0  0
    7.7170   -1.4360   23.1660 C   0  0  1  0  0  0  0  0  0  0  0  0
    8.6450   -0.2840   23.4700 C   0  0  0  0  0  0  0  0  0  0  0  0
    9.7880    0.0490   23.5060 C   0  0  0  0  0  0  0  0  0  0  0  0
   10.8620    0.9120   23.7000 C   0  0  0  0  0  0  0  0  0  0  0  0
   10.3020    2.1110   24.0210 C   0  0  0  0  0  0  0  0  0  0  0  0
   10.9870    3.1270   24.2630 O   0  0  0  0  0  0  0  0  0  0  0  0
    8.8600    2.1750   24.0520 C   0  0  0  0  0  0  0  0  0  0  0  0
    7.9270    1.0380   23.8540 C   0  0  0  0  0  0  0  0  0  0  0  0
    6.3420    1.3250   23.9670 N   0  0  0  0  0  0  0  0  0  0  0  0
    5.5580    2.5950   24.5540 C   0  0  0  0  0  0  0  0  0  0  0  0
    6.1430    3.6340   24.9920 O   0  0  0  0  0  0  0  0  0  0  0  0
    3.9180    2.5950   24.7070 N   0  0  0  0  0  0  0  0  0  0  0  0
    3.1800    3.9710   25.1780 C   0  0  0  0  0  0  0  0  0  0  0  0
    2.0050    4.5030   25.2210 C   0  0  0  0  0  0  0  0  0  0  0  0
    1.7090    3.6300   24.8020 C   0  0  0  0  0  0  0  0  0  0  0  0
    1.2040    2.1420   24.0890 C   0  0  0  0  0  0  0  0  0  0  0  0
    2.3340    1.3490   23.8280 C   0  0  0  0  0  0  0  0  0  0  0  0
    2.5890    0.1590   23.2550 C   0  0  0  0  0  0  0  0  0  0  0  0
    2.1730   -0.9430   23.5850 O   0  0  0  0  0  0  0  0  0  0  0  0
    3.3700    0.3580   22.3080 O   0  0  0  0  0  0  0  0  0  0  0  0
    3.0640    2.2140   24.4040 C   0  0  0  0  0  0  0  0  0  0  0  0
    4.1840    2.4940   24.7360 N   0  0  0  0  0  0  0  0  0  0  0  0
    3.5040    3.4710   25.0260 C   0  0  0  0  0  0  0  0  0  0  0  0
    3.9500    4.7440   25.6560 N   0  0  0  0  0  0  0  0  0  0  0  0
    7.7560   -1.7770   21.6210 C   0  0  0  0  0  0  0  0  0  0  0  0
  1  2  2  3
  1  3  1  0
  3  4  1  0
  4  5  1  0
  5  6  1  0
  6  7  2  0
  7  8  1  0
  8  9  2  0
  5 10  2  0
  9 10  1  0
 10 11  1  0
 11 12  1  6
 12 13  2  0
 13 14  1  0
 14 15  2  0
 15 16  1  0
 15 17  1  0
 12 18  1  0
 17 18  2  0
 18 19  1  0
 19 20  1  0
 20 21  2  0
 20 22  1  0
 22 23  1  0
 23 24  2  0
 24 25  1  0
 25 26  2  0
 26 27  1  0
 27 28  1  0
 28 29  2  0
 28 30  1  0
 27 31  2  0
 31 32  1  0
 25 33  1  0
 32 33  2  0
 23 34  1  0
 33 34  1  0
  3 35  1  0
 11 35  1  0
M  END
