JAN-GHE-bf40f168-13-chloroacetamide
     RDKit          3D

 21 22  0  0  0  0  0  0  0  0999 V2000
    7.0580   -2.9680   18.7950 C   0  0  0  0  0  0  0  0  0  0  0  0
    6.0770   -3.2980   19.8810 C   0  0  0  0  0  0  0  0  0  0  0  0
    5.3120   -4.2460   19.7600 O   0  0  0  0  0  0  0  0  0  0  0  0
    6.0410   -2.5350   21.0350 N   0  0  0  0  0  0  0  0  0  0  0  0
    5.3800   -2.9490   22.2560 C   0  0  0  0  0  0  0  0  0  0  0  0
    6.9120   -1.3770   21.0770 C   0  0  0  0  0  0  0  0  0  0  0  0
    8.0580   -1.6710   21.7660 C   0  0  0  0  0  0  0  0  0  0  0  0
    8.0860   -2.4770   22.9070 N   0  0  0  0  0  0  0  0  0  0  0  0
    7.6300   -3.8000   23.0460 C   0  0  0  0  0  0  0  0  0  0  0  0
    9.2540   -2.3430   23.5770 C   0  0  0  0  0  0  0  0  0  0  0  0
   10.2110   -1.2550   23.1300 C   0  0  0  0  0  0  0  0  0  0  0  0
    9.8830    0.0390   23.0100 C   0  0  0  0  0  0  0  0  0  0  0  0
   10.9300    0.7710   22.5970 N   0  0  0  0  0  0  0  0  0  0  0  0
   12.0680    0.0580   22.7740 C   0  0  1  0  0  0  0  0  0  0  0  0
   12.4580    0.2080   24.0690 C   0  0  0  0  0  0  0  0  0  0  0  0
   12.8300   -0.8170   24.9390 C   0  0  0  0  0  0  0  0  0  0  0  0
   12.8780   -2.1640   24.6180 C   0  0  0  0  0  0  0  0  0  0  0  0
   13.4730   -3.1230   25.3960 C   0  0  0  0  0  0  0  0  0  0  0  0
   14.6740   -2.8600   26.0300 N   0  0  0  0  0  0  0  0  0  0  0  0
   12.3060   -2.4520   23.4900 C   0  0  0  0  0  0  0  0  0  0  0  0
   11.6800   -1.3440   22.7000 C   0  0  1  0  0  0  0  0  0  0  0  0
  1  2  1  0
  2  3  2  0
  2  4  1  0
  4  5  1  0
  4  6  1  0
  6  7  1  0
  7  8  1  0
  8  9  1  0
  8 10  1  0
 10 11  1  0
 11 12  2  0
 12 13  1  0
 13 14  1  0
 14 15  1  1
 15 16  2  0
 16 17  1  0
 17 18  1  0
 18 19  3  0
 17 20  2  0
 11 21  1  0
 14 21  1  0
 21 20  1  1
M  END
