JAN-GHE-6413aaf8-2-chloroacetamide
     RDKit          3D

 28 31  0  0  0  0  0  0  0  0999 V2000
    6.0520   -5.4360   20.0670 C   0  0  0  0  0  0  0  0  0  0  0  0
    6.0310   -3.9240   20.1840 C   0  0  0  0  0  0  0  0  0  0  0  0
    5.7590   -3.2680   19.1900 O   0  0  0  0  0  0  0  0  0  0  0  0
    6.2610   -3.3490   21.4200 N   0  0  0  0  0  0  0  0  0  0  0  0
    7.4930   -3.4720   22.1540 C   0  0  0  0  0  0  0  0  0  0  0  0
    7.1630   -2.3190   23.0560 C   0  0  0  0  0  0  0  0  0  0  0  0
    8.2770   -1.3260   23.0030 N   0  0  0  0  0  0  0  0  0  0  0  0
    9.3320   -1.5530   24.0240 C   0  0  0  0  0  0  0  0  0  0  0  0
   10.5280   -0.6640   23.5940 C   0  0  0  0  0  0  0  0  0  0  0  0
   11.5830   -1.6600   23.1390 C   0  0  0  0  0  0  0  0  0  0  0  0
   12.8720   -0.9600   22.6570 C   0  0  0  0  0  0  0  0  0  0  0  0
   13.0490    0.5620   22.6430 C   0  0  0  0  0  0  0  0  0  0  0  0
   11.8530    1.3510   23.1230 C   0  0  0  0  0  0  0  0  0  0  0  0
   11.6730    2.7540   23.1930 C   0  0  0  0  0  0  0  0  0  0  0  0
   12.5910    3.7340   22.7760 C   0  0  0  0  0  0  0  0  0  0  0  0
   12.4040    5.0240   23.2900 C   0  0  0  0  0  0  0  0  0  0  0  0
   11.1170    5.5220   22.8150 N   0  0  0  0  0  0  0  0  0  0  0  0
   10.1150    6.1070   23.7380 C   0  0  0  0  0  0  0  0  0  0  0  0
   10.3530    6.2610   24.9280 O   0  0  0  0  0  0  0  0  0  0  0  0
    8.8930    6.4860   23.1840 C   0  0  0  0  0  0  0  0  0  0  0  0
    8.6070    6.9700   21.9240 C   0  0  0  0  0  0  0  0  0  0  0  0
    7.2480    7.2310   21.7690 C   0  0  0  0  0  0  0  0  0  0  0  0
    6.5950    6.9230   22.9440 C   0  0  0  0  0  0  0  0  0  0  0  0
    7.6070    6.4380   23.8950 N   0  0  0  0  0  0  0  0  0  0  0  0
   10.4220    2.9570   23.7300 C   0  0  0  0  0  0  0  0  0  0  0  0
    9.8480    1.7340   23.9520 N   0  0  0  0  0  0  0  0  0  0  0  0
   10.7010    0.7250   23.5720 C   0  0  0  0  0  0  0  0  0  0  0  0
    6.0470   -2.0040   21.9910 C   0  0  0  0  0  0  0  0  0  0  0  0
  1  2  1  0
  2  3  2  0
  2  4  1  0
  4  5  1  0
  5  6  1  0
  6  7  1  0
  7  8  1  0
  8  9  1  0
  9 10  2  0
 10 11  1  0
 11 12  2  0
 12 13  1  0
 13 14  1  0
 14 15  1  0
 15 16  1  0
 16 17  1  0
 17 18  1  0
 18 19  2  0
 18 20  1  0
 20 21  2  0
 21 22  1  0
 22 23  2  0
 20 24  1  0
 23 24  1  0
 14 25  2  0
 25 26  1  0
  9 27  1  0
 13 27  2  0
 26 27  1  0
  4 28  1  0
  6 28  1  0
M  END
