JAN-GHE-bf40f168-4-nitrile
     RDKit          3D

 34 38  0  0  0  0  0  0  0  0999 V2000
    6.7540   -3.7830   19.7600 C   0  0  0  0  0  0  0  0  0  0  0  0
    5.8060   -3.2790   19.0570 N   0  0  0  0  0  0  0  0  0  0  0  0
    6.5740   -4.2760   21.0110 N   0  0  0  0  0  0  0  0  0  0  0  0
    6.7080   -5.6970   21.2220 C   0  0  0  0  0  0  0  0  0  0  0  0
    6.2300   -5.9740   22.6230 C   0  0  1  0  0  0  0  0  0  0  0  0
    6.7750   -5.2010   23.8440 C   0  0  0  0  0  0  0  0  0  0  0  0
    5.5040   -4.7150   24.4890 N   0  0  0  0  0  0  0  0  0  0  0  0
    5.1850   -4.7330   26.1380 S   0  0  0  0  0  0  0  0  0  0  0  0
    4.5960   -6.0170   26.4770 O   0  0  0  0  0  0  0  0  0  0  0  0
    6.2730   -4.1690   26.8590 O   0  0  0  0  0  0  0  0  0  0  0  0
    3.9540   -3.5100   26.0930 C   0  0  0  0  0  0  0  0  0  0  0  0
    2.5080   -4.0200   26.0860 C   0  0  0  0  0  0  0  0  0  0  0  0
    1.4720   -2.9320   26.0480 C   0  0  0  0  0  0  0  0  0  0  0  0
    1.9150   -1.4950   26.0210 C   0  0  0  0  0  0  0  0  0  0  0  0
    3.2790   -1.1620   26.0220 C   0  0  0  0  0  0  0  0  0  0  0  0
    4.2970   -2.1270   26.0550 C   0  0  0  0  0  0  0  0  0  0  0  0
    5.6280   -1.6080   26.0290 C   0  0  0  0  0  0  0  0  0  0  0  0
    6.3440   -1.7060   24.8380 C   0  0  0  0  0  0  0  0  0  0  0  0
    7.6450   -1.2100   24.7140 C   0  0  0  0  0  0  0  0  0  0  0  0
    8.3550   -0.5310   25.8770 C   0  0  0  0  0  0  0  0  0  0  0  0
    9.6790   -0.0310   25.7430 N   0  0  0  0  0  0  0  0  0  0  0  0
   10.5700   -0.3930   24.6950 C   0  0  0  0  0  0  0  0  0  0  0  0
   10.2330   -1.8150   24.1910 C   0  0  0  0  0  0  0  0  0  0  0  0
   11.3010   -1.9120   23.1080 C   0  0  0  0  0  0  0  0  0  0  0  0
   12.2570   -1.0050   22.7240 C   0  0  0  0  0  0  0  0  0  0  0  0
   13.0580   -1.3250   21.7420 C   0  0  0  0  0  0  0  0  0  0  0  0
   13.7740   -1.6210   20.6710 N   0  0  0  0  0  0  0  0  0  0  0  0
   12.3530    0.1860   23.3380 C   0  0  0  0  0  0  0  0  0  0  0  0
   11.5180    0.4900   24.3060 N   0  0  0  0  0  0  0  0  0  0  0  0
    7.6090   -0.4480   27.0660 C   0  0  0  0  0  0  0  0  0  0  0  0
    6.2750   -0.9760   27.1380 C   0  0  0  0  0  0  0  0  0  0  0  0
    4.3570   -5.2010   23.7200 C   0  0  0  0  0  0  0  0  0  0  0  0
    4.9580   -5.2480   22.3770 C   0  0  1  0  0  0  0  0  0  0  0  0
    5.4860   -3.9010   21.8670 C   0  0  0  0  0  0  0  0  0  0  0  0
  1  2  2  3
  1  3  1  0
  3  4  1  0
  5  4  1  6
  5  6  1  0
  6  7  1  0
  7  8  1  0
  8  9  2  0
  8 10  2  0
  8 11  1  0
 11 12  2  0
 12 13  1  0
 13 14  2  0
 14 15  1  0
 11 16  1  0
 15 16  2  0
 16 17  1  0
 17 18  2  0
 18 19  1  0
 19 20  2  0
 20 21  1  0
 21 22  1  0
 22 23  2  0
 23 24  1  0
 24 25  2  0
 25 26  1  0
 26 27  3  0
 25 28  1  0
 22 29  1  0
 28 29  2  0
 20 30  1  0
 17 31  1  0
 30 31  2  0
  7 32  1  0
  5 33  1  0
 33 32  1  1
  3 34  1  0
 33 34  1  0
M  END
