JAN-UNI-2e92c4b1-5-chloroacetamide
     RDKit          3D

 20 21  0  0  0  0  0  0  0  0999 V2000
    8.8180   -3.7250   20.1220 C   0  0  0  0  0  0  0  0  0  0  0  0
    8.0190   -2.6180   20.0900 C   0  0  0  0  0  0  0  0  0  0  0  0
    6.9850   -2.7540   19.1040 O   0  0  0  0  0  0  0  0  0  0  0  0
    8.6920   -1.7980   21.3610 C   0  0  0  0  0  0  0  0  0  0  0  0
    9.6340   -0.5580   21.6570 C   0  0  0  0  0  0  0  0  0  0  0  0
   10.0750   -0.0740   22.8830 N   0  0  0  0  0  0  0  0  0  0  0  0
    9.6650   -0.7270   23.9870 C   0  0  0  0  0  0  0  0  0  0  0  0
   10.0760   -0.2200   25.3260 N   0  0  0  0  0  0  0  0  0  0  0  0
    9.0260   -0.6300   26.2870 C   0  0  0  0  0  0  0  0  0  0  0  0
    9.0040    0.2070   27.5420 C   0  0  0  0  0  0  0  0  0  0  0  0
    8.8360   -1.8770   23.8490 C   0  0  0  0  0  0  0  0  0  0  0  0
    8.3430   -2.6540   24.9200 C   0  0  0  0  0  0  0  0  0  0  0  0
    7.7970   -3.9880   24.4950 N   0  0  0  0  0  0  0  0  0  0  0  0
    6.7840   -4.3810   23.5570 C   0  0  0  0  0  0  0  0  0  0  0  0
    6.7660   -5.4260   22.6760 C   0  0  0  0  0  0  0  0  0  0  0  0
    5.6410   -5.5080   21.9230 C   0  0  0  0  0  0  0  0  0  0  0  0
    5.4670   -6.3820   21.0780 O   0  0  0  0  0  0  0  0  0  0  0  0
    4.8670   -4.4390   22.3440 N   0  0  0  0  0  0  0  0  0  0  0  0
    5.6690   -3.7980   23.3700 O   0  0  0  0  0  0  0  0  0  0  0  0
    8.4040   -2.3480   22.5930 C   0  0  0  0  0  0  0  0  0  0  0  0
  1  2  1  0
  2  3  2  0
  2  4  1  0
  4  5  2  0
  5  6  1  0
  6  7  2  0
  7  8  1  0
  8  9  1  0
  9 10  1  0
  7 11  1  0
 11 12  1  0
 12 13  1  0
 13 14  1  0
 14 15  2  0
 15 16  1  0
 16 17  1  0
 16 18  2  0
 14 19  1  0
 18 19  1  0
  4 20  1  0
 11 20  2  0
M  END
