JAN-LUN-8953ce76-3
     RDKit          3D

 24 26  0  0  0  0  0  0  0  0999 V2000
    4.8350    3.9790   23.6030 O   0  0  0  0  0  0  0  0  0  0  0  0
    3.8770    3.5450   22.9730 C   0  0  0  0  0  0  0  0  0  0  0  0
    2.8730    4.3540   22.5530 O   0  0  0  0  0  0  0  0  0  0  0  0
    3.6810    2.0890   22.5940 C   0  0  0  0  0  0  0  0  0  0  0  0
    4.4090    1.6900   21.3130 C   0  0  0  0  0  0  0  0  0  0  0  0
    5.7590    1.5220   21.0960 C   0  0  0  0  0  0  0  0  0  0  0  0
    6.3940    1.1690   19.8840 C   0  0  1  0  0  0  0  0  0  0  0  0
    7.1530   -0.0140   20.0570 C   0  0  0  0  0  0  0  0  0  0  0  0
    7.9630   -0.3550   21.1470 N   0  0  0  0  0  0  0  0  0  0  0  0
    8.8510    0.6800   21.7240 C   0  0  0  0  0  0  0  0  0  0  0  0
    8.9900    2.0020   21.1870 O   0  0  0  0  0  0  0  0  0  0  0  0
    9.5390    0.2350   22.8460 N   0  0  0  0  0  0  0  0  0  0  0  0
    9.9480   -1.1490   23.0620 C   0  0  0  0  0  0  0  0  0  0  0  0
   11.2910   -0.0520   23.0210 C   0  0  0  0  0  0  0  0  0  0  0  0
   12.9600   -0.1860   23.1770 C   0  0  0  0  0  0  0  0  0  0  0  0
   13.3210   -1.6210   23.4120 C   0  0  0  0  0  0  0  0  0  0  0  0
   11.9560   -1.4730   23.2750 C   0  0  0  0  0  0  0  0  0  0  0  0
   11.7940   -0.2700   23.1000 O   0  0  0  0  0  0  0  0  0  0  0  0
   10.8040   -2.1920   23.2730 C   0  0  0  0  0  0  0  0  0  0  0  0
    6.9560   -0.7350   18.9230 C   0  0  0  0  0  0  0  0  0  0  0  0
    6.1350   -0.1080   18.1150 N   0  0  0  0  0  0  0  0  0  0  0  0
    5.6010    1.0940   18.6280 C   0  0  1  0  0  0  0  0  0  0  0  0
    4.2460    1.1440   18.8620 N   0  0  0  0  0  0  0  0  0  0  0  0
    3.6260    1.4180   20.0680 C   0  0  0  0  0  0  0  0  0  0  0  0
  1  2  2  0
  2  3  1  0
  2  4  1  0
  4  5  1  0
  5  6  2  0
  7  6  1  1
  7  8  1  0
  8  9  1  0
  9 10  1  0
 10 11  2  0
 10 12  1  0
 12 13  1  0
 13 14  2  0
 14 15  1  0
 15 16  2  0
 16 17  1  0
 17 18  1  0
 13 19  1  0
 17 19  2  0
  8 20  2  0
 20 21  1  0
  7 22  1  0
 22 21  1  1
 22 23  1  0
  5 24  1  0
 23 24  2  0
M  END
