JAN-GHE-bf40f168-5-acrylamide
     RDKit          3D

 33 36  0  0  0  0  0  0  0  0999 V2000
    6.5250   -5.7460   19.9340 C   0  0  0  0  0  0  0  0  0  0  0  0
    6.7380   -6.0740   21.3950 C   0  0  0  0  0  0  0  0  0  0  0  0
    5.3610   -5.8700   21.8570 C   0  0  0  0  0  0  0  0  0  0  0  0
    4.4350   -5.1430   22.2560 O   0  0  0  0  0  0  0  0  0  0  0  0
    6.2400   -4.8700   21.9240 N   0  0  0  0  0  0  0  0  0  0  0  0
    7.1960   -4.8280   22.9770 C   0  0  0  0  0  0  0  0  0  0  0  0
    6.3710   -3.8020   23.6070 C   0  0  0  0  0  0  0  0  0  0  0  0
    5.3250   -4.5550   24.2960 N   0  0  0  0  0  0  0  0  0  0  0  0
    5.0620   -4.6900   25.9600 S   0  0  0  0  0  0  0  0  0  0  0  0
    6.2540   -4.2430   26.6160 O   0  0  0  0  0  0  0  0  0  0  0  0
    4.4580   -5.9760   26.2480 O   0  0  0  0  0  0  0  0  0  0  0  0
    3.8560   -3.4470   26.0210 C   0  0  0  0  0  0  0  0  0  0  0  0
    2.4200   -3.9050   26.0410 C   0  0  0  0  0  0  0  0  0  0  0  0
    1.3930   -2.8180   26.0860 C   0  0  0  0  0  0  0  0  0  0  0  0
    1.8150   -1.4840   26.1080 C   0  0  0  0  0  0  0  0  0  0  0  0
    3.1760   -1.1310   26.0820 C   0  0  0  0  0  0  0  0  0  0  0  0
    4.2080   -2.0720   26.0380 C   0  0  0  0  0  0  0  0  0  0  0  0
    5.5370   -1.5670   25.9990 C   0  0  0  0  0  0  0  0  0  0  0  0
    6.1620   -1.5040   24.7540 C   0  0  0  0  0  0  0  0  0  0  0  0
    7.5840   -0.9760   24.6090 C   0  0  0  0  0  0  0  0  0  0  0  0
    8.3240   -0.5100   25.8530 C   0  0  0  0  0  0  0  0  0  0  0  0
    9.6550   -0.0180   25.7810 N   0  0  0  0  0  0  0  0  0  0  0  0
   10.5720   -0.3270   24.7390 C   0  0  0  0  0  0  0  0  0  0  0  0
   10.3400   -1.6050   24.0150 C   0  0  0  0  0  0  0  0  0  0  0  0
   11.2000   -1.9310   22.9930 C   0  0  0  0  0  0  0  0  0  0  0  0
   12.2100   -1.1280   22.6650 C   0  0  0  0  0  0  0  0  0  0  0  0
   13.0610   -1.4770   21.6170 C   0  0  0  0  0  0  0  0  0  0  0  0
   13.7010   -1.7220   20.7210 N   0  0  0  0  0  0  0  0  0  0  0  0
   12.4050    0.0500   23.3580 C   0  0  0  0  0  0  0  0  0  0  0  0
   11.6120    0.4540   24.3730 N   0  0  0  0  0  0  0  0  0  0  0  0
    7.6140   -0.6010   27.0720 C   0  0  0  0  0  0  0  0  0  0  0  0
    6.2720   -1.1120   27.1390 C   0  0  0  0  0  0  0  0  0  0  0  0
    6.1490   -3.4660   22.0490 C   0  0  0  0  0  0  0  0  0  0  0  0
  1  2  1  0
  2  3  1  0
  3  4  2  0
  3  5  1  0
  5  6  1  0
  6  7  1  0
  7  8  1  0
  9  8  1  0
  9 10  2  0
  9 11  2  0
  9 12  1  0
 12 13  2  0
 13 14  1  0
 14 15  2  0
 15 16  1  0
 12 17  1  0
 16 17  2  0
 17 18  1  0
 18 19  2  0
 19 20  1  0
 20 21  2  0
 21 22  1  0
 22 23  1  0
 23 24  2  0
 24 25  1  0
 25 26  2  0
 26 27  1  0
 27 28  3  0
 26 29  1  0
 23 30  1  0
 29 30  2  0
 21 31  1  0
 18 32  1  0
 31 32  2  0
  5 33  1  0
  7 33  1  0
M  END
