JAN-GHE-6413aaf8-4-chloroacetamide
     RDKit          3D

 31 35  0  0  0  0  0  0  0  0999 V2000
    6.2350   -5.2080   20.2480 C   0  0  0  0  0  0  0  0  0  0  0  0
    6.3170   -3.7060   20.2400 C   0  0  0  0  0  0  0  0  0  0  0  0
    5.9130   -3.1810   19.2030 O   0  0  0  0  0  0  0  0  0  0  0  0
    6.8090   -3.0080   21.3580 N   0  0  0  0  0  0  0  0  0  0  0  0
    7.9300   -3.5170   22.1620 C   0  0  0  0  0  0  0  0  0  0  0  0
    9.0240   -2.7410   21.4380 C   0  0  2  0  0  0  0  0  0  0  0  0
   10.0750   -2.6030   22.5630 C   0  0  0  0  0  0  0  0  0  0  0  0
   10.6840   -1.2430   22.2920 N   0  0  0  0  0  0  0  0  0  0  0  0
   11.4740   -0.6170   23.4280 C   0  0  0  0  0  0  0  0  0  0  0  0
   10.3850   -0.5820   24.4010 C   0  0  0  0  0  0  0  0  0  0  0  0
   11.2280   -1.7340   23.8640 C   0  0  0  0  0  0  0  0  0  0  0  0
   12.3680   -1.2420   22.9090 C   0  0  0  0  0  0  0  0  0  0  0  0
   12.4040    0.3140   22.7210 C   0  0  0  0  0  0  0  0  0  0  0  0
   11.4670    1.2270   23.3460 C   0  0  0  0  0  0  0  0  0  0  0  0
   11.3810    2.6340   23.2630 C   0  0  0  0  0  0  0  0  0  0  0  0
   12.2270    3.4830   22.5290 C   0  0  0  0  0  0  0  0  0  0  0  0
   12.2660    4.8340   22.9170 C   0  0  0  0  0  0  0  0  0  0  0  0
   11.2380    5.6330   22.5140 N   0  0  0  0  0  0  0  0  0  0  0  0
   10.3830    6.1560   23.4300 C   0  0  0  0  0  0  0  0  0  0  0  0
   10.5940    6.2210   24.6370 O   0  0  0  0  0  0  0  0  0  0  0  0
    9.1600    6.6850   23.0040 C   0  0  0  0  0  0  0  0  0  0  0  0
    8.1700    6.1990   22.1570 C   0  0  0  0  0  0  0  0  0  0  0  0
    7.1780    7.1090   22.0720 C   0  0  0  0  0  0  0  0  0  0  0  0
    7.4690    8.2210   22.8580 C   0  0  0  0  0  0  0  0  0  0  0  0
    8.7160    7.9670   23.4510 N   0  0  0  0  0  0  0  0  0  0  0  0
   10.3010    3.0060   24.0460 C   0  0  0  0  0  0  0  0  0  0  0  0
    9.7450    1.8800   24.6010 N   0  0  0  0  0  0  0  0  0  0  0  0
   10.4440    0.7790   24.1880 C   0  0  0  0  0  0  0  0  0  0  0  0
    9.4560   -0.4460   22.0140 C   0  0  0  0  0  0  0  0  0  0  0  0
    8.4650   -1.3150   21.2090 C   0  0  2  0  0  0  0  0  0  0  0  0
    7.0070   -1.5590   21.4390 C   0  0  0  0  0  0  0  0  0  0  0  0
  1  2  1  0
  2  3  2  0
  2  4  1  0
  4  5  1  0
  6  5  1  1
  6  7  1  0
  7  8  1  0
  8  9  1  0
  9 10  1  0
 10 11  2  0
 11 12  1  0
 12 13  2  0
 13 14  1  0
 14 15  1  0
 15 16  1  0
 16 17  1  0
 17 18  1  0
 18 19  1  0
 19 20  2  0
 19 21  1  0
 21 22  2  0
 22 23  1  0
 23 24  2  0
 21 25  1  0
 24 25  1  0
 15 26  2  0
 26 27  1  0
 10 28  1  0
 14 28  2  0
 27 28  1  0
  8 29  1  0
  6 30  1  0
 30 29  1  1
  4 31  1  0
 30 31  1  0
M  END
