JAN-GHE-6413aaf8-3-nitrile
     RDKit          3D

 27 30  0  0  0  0  0  0  0  0999 V2000
    6.9060   -4.1760   20.2990 C   0  0  0  0  0  0  0  0  0  0  0  0
    5.7030   -4.3760   19.8990 N   0  0  0  0  0  0  0  0  0  0  0  0
    7.3490   -4.1740   21.5860 N   0  0  0  0  0  0  0  0  0  0  0  0
    7.4620   -2.9020   22.3090 C   0  0  0  0  0  0  0  0  0  0  0  0
    7.8110   -3.2480   23.7770 C   0  0  0  0  0  0  0  0  0  0  0  0
    9.1570   -2.6470   23.6110 N   0  0  0  0  0  0  0  0  0  0  0  0
    9.2630   -1.3020   24.1800 C   0  0  0  0  0  0  0  0  0  0  0  0
   10.5610   -0.7130   23.6520 C   0  0  0  0  0  0  0  0  0  0  0  0
   11.6240   -1.7460   23.1610 C   0  0  0  0  0  0  0  0  0  0  0  0
   12.9140   -1.0500   22.6300 C   0  0  0  0  0  0  0  0  0  0  0  0
   12.9810    0.5200   22.6500 C   0  0  0  0  0  0  0  0  0  0  0  0
   11.8500    1.4010   23.1440 C   0  0  0  0  0  0  0  0  0  0  0  0
   11.7130    2.8940   23.2020 C   0  0  0  0  0  0  0  0  0  0  0  0
   12.6130    3.8840   22.7750 C   0  0  0  0  0  0  0  0  0  0  0  0
   12.2820    5.1710   23.2230 C   0  0  0  0  0  0  0  0  0  0  0  0
   11.2500    5.8610   22.5990 N   0  0  0  0  0  0  0  0  0  0  0  0
   10.3330    6.1390   23.5070 C   0  0  0  0  0  0  0  0  0  0  0  0
   10.5060    6.0500   24.7180 O   0  0  0  0  0  0  0  0  0  0  0  0
    9.1130    6.5800   22.9760 C   0  0  0  0  0  0  0  0  0  0  0  0
    8.1890    5.9790   22.1630 C   0  0  0  0  0  0  0  0  0  0  0  0
    7.1290    6.7690   21.8730 C   0  0  0  0  0  0  0  0  0  0  0  0
    7.3010    8.0040   22.5210 C   0  0  0  0  0  0  0  0  0  0  0  0
    8.6020    7.8800   23.2480 N   0  0  0  0  0  0  0  0  0  0  0  0
   10.4520    3.0460   23.7800 C   0  0  0  0  0  0  0  0  0  0  0  0
    9.8520    1.8080   24.0350 N   0  0  0  0  0  0  0  0  0  0  0  0
   10.6640    0.7700   23.6510 C   0  0  0  0  0  0  0  0  0  0  0  0
    8.8980   -2.3070   22.1760 C   0  0  0  0  0  0  0  0  0  0  0  0
  1  2  2  3
  1  3  1  0
  3  4  1  0
  4  5  1  0
  5  6  1  0
  6  7  1  0
  7  8  1  0
  8  9  2  0
  9 10  1  0
 10 11  2  0
 11 12  1  0
 12 13  1  0
 13 14  1  0
 14 15  1  0
 15 16  1  0
 16 17  1  0
 17 18  2  0
 17 19  1  0
 19 20  2  0
 20 21  1  0
 21 22  2  0
 19 23  1  0
 22 23  1  0
 13 24  2  0
 24 25  1  0
  8 26  1  0
 12 26  2  0
 25 26  1  0
  4 27  1  0
  6 27  1  0
M  END
