JAN-LUN-04aedcc0-4-nitrile
     RDKit          3D

 35 39  0  0  0  0  0  0  0  0999 V2000
    7.0420   -4.1880   20.3660 C   0  0  0  0  0  0  0  0  0  0  0  0
    5.8970   -4.7190   20.0460 N   0  0  0  0  0  0  0  0  0  0  0  0
    7.4680   -3.8750   21.6620 N   0  0  0  0  0  0  0  0  0  0  0  0
    7.6040   -4.8740   22.7280 C   0  0  0  0  0  0  0  0  0  0  0  0
    8.1100   -4.2830   24.0850 C   0  0  1  0  0  0  0  0  0  0  0  0
    8.3370   -5.5060   24.7210 C   0  0  0  0  0  0  0  0  0  0  0  0
    9.1780   -5.4690   25.8240 C   0  0  0  0  0  0  0  0  0  0  0  0
   10.0420   -4.3460   26.0430 C   0  0  0  0  0  0  0  0  0  0  0  0
   10.2390   -3.4870   24.9630 C   0  0  0  0  0  0  0  0  0  0  0  0
    9.1060   -3.2620   24.1650 C   0  0  1  0  0  0  0  0  0  0  0  0
    9.4270   -2.7300   22.8160 C   0  0  2  0  0  0  0  0  0  0  0  0
   10.4870   -1.6710   22.9240 C   0  0  0  0  0  0  0  0  0  0  0  0
   11.6120   -1.2940   23.0480 C   0  0  0  0  0  0  0  0  0  0  0  0
   12.5950   -0.3070   23.1510 C   0  0  0  0  0  0  0  0  0  0  0  0
   12.0680    0.9340   23.0810 C   0  0  0  0  0  0  0  0  0  0  0  0
   12.6530    2.0130   23.1370 O   0  0  0  0  0  0  0  0  0  0  0  0
   10.6860    0.8620   22.9250 C   0  0  0  0  0  0  0  0  0  0  0  0
    9.8750   -0.3140   22.8400 C   0  0  0  0  0  0  0  0  0  0  0  0
    8.5290   -0.1090   22.6790 N   0  0  0  0  0  0  0  0  0  0  0  0
    8.1460    0.9930   21.9460 C   0  0  0  0  0  0  0  0  0  0  0  0
    8.9180    1.7470   21.3380 O   0  0  0  0  0  0  0  0  0  0  0  0
    6.7420    1.1740   21.9880 N   0  0  0  0  0  0  0  0  0  0  0  0
    6.0860    1.5300   20.7840 C   0  0  0  0  0  0  0  0  0  0  0  0
    5.4610    2.7090   20.6630 C   0  0  0  0  0  0  0  0  0  0  0  0
    5.0990    2.4870   19.4510 C   0  0  0  0  0  0  0  0  0  0  0  0
    5.8870    1.3490   20.1470 C   0  0  0  0  0  0  0  0  0  0  0  0
    6.3180   -0.0490   19.6050 C   0  0  0  0  0  0  0  0  0  0  0  0
    7.0070   -0.9590   20.3860 C   0  0  0  0  0  0  0  0  0  0  0  0
    6.4880   -1.9210   20.9350 O   0  0  0  0  0  0  0  0  0  0  0  0
    8.2150   -0.7780   20.5300 O   0  0  0  0  0  0  0  0  0  0  0  0
    6.0000   -0.3820   18.3330 C   0  0  0  0  0  0  0  0  0  0  0  0
    5.3500    0.4850   17.6170 N   0  0  0  0  0  0  0  0  0  0  0  0
    5.1430    1.5580   18.4080 C   0  0  0  0  0  0  0  0  0  0  0  0
    5.8890    0.8900   19.4950 N   0  0  0  0  0  0  0  0  0  0  0  0
    8.1360   -2.5590   22.0050 C   0  0  0  0  0  0  0  0  0  0  0  0
  1  2  2  3
  1  3  1  0
  3  4  1  0
  5  4  1  6
  5  6  1  0
  6  7  1  0
  7  8  1  0
  8  9  1  0
  5 10  1  0
 10  9  1  6
 10 11  1  0
 11 12  1  1
 12 13  2  0
 13 14  1  0
 14 15  2  0
 15 16  1  0
 15 17  1  0
 12 18  1  0
 17 18  2  0
 18 19  1  0
 19 20  1  0
 20 21  2  0
 20 22  1  0
 22 23  1  0
 23 24  2  0
 24 25  1  0
 25 26  2  0
 26 27  1  0
 27 28  1  0
 28 29  2  0
 28 30  1  0
 27 31  2  0
 31 32  1  0
 25 33  1  0
 32 33  2  0
 23 34  1  0
 33 34  1  0
  3 35  1  0
 11 35  1  0
M  END
