JAN-LUN-8953ce76-6
     RDKit          3D

 23 24  0  0  0  0  0  0  0  0999 V2000
    5.5310   -3.2840   21.8300 O   0  0  0  0  0  0  0  0  0  0  0  0
    6.3470   -2.3800   21.9870 C   0  0  0  0  0  0  0  0  0  0  0  0
    7.3220   -2.4620   22.9210 O   0  0  0  0  0  0  0  0  0  0  0  0
    6.3770   -1.0870   21.1820 C   0  0  0  0  0  0  0  0  0  0  0  0
    4.9760   -0.6340   20.7630 C   0  0  0  0  0  0  0  0  0  0  0  0
    4.8780    0.5740   20.0270 C   0  0  0  0  0  0  0  0  0  0  0  0
    6.0820    1.2080   19.7550 C   0  0  0  0  0  0  0  0  0  0  0  0
    6.5710    0.7130   18.7520 C   0  0  0  0  0  0  0  0  0  0  0  0
    5.4570    0.0330   18.8230 N   0  0  0  0  0  0  0  0  0  0  0  0
    4.7240    0.6800   20.1670 C   0  0  0  0  0  0  0  0  0  0  0  0
    5.0790    1.9090   21.3670 C   0  0  0  0  0  0  0  0  0  0  0  0
    3.7540    1.3940   21.7800 N   0  0  0  0  0  0  0  0  0  0  0  0
    3.2400    2.0460   22.9870 C   0  0  0  0  0  0  0  0  0  0  0  0
    3.0480    1.5020   24.0810 O   0  0  0  0  0  0  0  0  0  0  0  0
    2.9810    3.3670   22.7380 N   0  0  0  0  0  0  0  0  0  0  0  0
    1.5410    3.7100   22.7950 C   0  0  0  0  0  0  0  0  0  0  0  0
    1.0910    4.6470   23.9290 C   0  0  0  0  0  0  0  0  0  0  0  0
   -0.3680    5.0740   24.0920 C   0  0  0  0  0  0  0  0  0  0  0  0
   -1.2930    4.4810   23.0320 C   0  0  0  0  0  0  0  0  0  0  0  0
   -0.7850    3.5500   21.9200 C   0  0  0  0  0  0  0  0  0  0  0  0
   -1.8920    2.9230   20.7620 Cl  0  0  0  0  0  0  0  0  0  0  0  0
    0.5880    3.2210   21.8650 C   0  0  0  0  0  0  0  0  0  0  0  0
    6.2680    2.1380   20.7150 C   0  0  0  0  0  0  0  0  0  0  0  0
  1  2  2  0
  2  3  1  0
  2  4  1  0
  4  5  1  0
  5  6  1  0
  6  7  1  0
  7  8  2  0
  8  9  1  0
  9 10  2  0
 10 11  1  0
 11 12  1  0
 12 13  1  0
 13 14  2  0
 13 15  1  0
 15 16  1  0
 16 17  2  0
 17 18  1  0
 18 19  2  0
 19 20  1  0
 20 21  1  0
 16 22  1  0
 20 22  2  0
  7 23  1  0
 11 23  2  0
M  END
