JAN-LUN-04aedcc0-4-chloroacetamide
     RDKit          3D

 36 40  0  0  0  0  0  0  0  0999 V2000
    7.2960   -3.2520   19.2320 C   0  0  0  0  0  0  0  0  0  0  0  0
    6.5610   -3.9680   20.3210 C   0  0  0  0  0  0  0  0  0  0  0  0
    5.6160   -4.7200   20.0090 O   0  0  0  0  0  0  0  0  0  0  0  0
    6.9930   -3.7810   21.6500 N   0  0  0  0  0  0  0  0  0  0  0  0
    6.8260   -4.7650   22.7160 C   0  0  0  0  0  0  0  0  0  0  0  0
    6.6120   -4.1210   23.9410 C   0  0  1  0  0  0  0  0  0  0  0  0
    7.2760   -4.7640   24.9880 C   0  0  0  0  0  0  0  0  0  0  0  0
    8.1730   -4.0040   25.8400 C   0  0  0  0  0  0  0  0  0  0  0  0
    7.7140   -2.7350   26.2180 C   0  0  0  0  0  0  0  0  0  0  0  0
    6.9020   -2.1090   25.2660 C   0  0  0  0  0  0  0  0  0  0  0  0
    6.9630   -2.7490   23.9270 C   0  0  1  0  0  0  0  0  0  0  0  0
    8.2910   -2.3120   23.3730 C   0  0  2  0  0  0  0  0  0  0  0  0
    9.2950   -1.5650   23.3210 C   0  0  0  0  0  0  0  0  0  0  0  0
   10.1780   -0.4600   23.5700 C   0  0  0  0  0  0  0  0  0  0  0  0
   11.4260   -0.2340   23.1130 C   0  0  0  0  0  0  0  0  0  0  0  0
   12.0350   -1.0890   22.3100 C   0  0  0  0  0  0  0  0  0  0  0  0
   13.1770   -0.9380   21.8890 O   0  0  0  0  0  0  0  0  0  0  0  0
   11.2910   -2.1830   21.9670 C   0  0  0  0  0  0  0  0  0  0  0  0
    9.8360   -2.6570   22.3260 C   0  0  0  0  0  0  0  0  0  0  0  0
    8.5010   -2.5810   22.9570 N   0  0  0  0  0  0  0  0  0  0  0  0
    7.9820   -1.2230   22.4230 C   0  0  0  0  0  0  0  0  0  0  0  0
    8.7270   -0.3430   21.9820 O   0  0  0  0  0  0  0  0  0  0  0  0
    6.5870   -0.9970   22.4270 N   0  0  0  0  0  0  0  0  0  0  0  0
    6.1120   -1.0480   21.1220 C   0  0  0  0  0  0  0  0  0  0  0  0
    5.4990   -2.1300   20.7550 C   0  0  0  0  0  0  0  0  0  0  0  0
    5.2860   -1.7050   19.4640 C   0  0  0  0  0  0  0  0  0  0  0  0
    6.0090   -0.6100   20.4270 C   0  0  0  0  0  0  0  0  0  0  0  0
    6.4910    0.7470   20.2170 C   0  0  0  0  0  0  0  0  0  0  0  0
    7.1340    1.7050   21.2180 C   0  0  0  0  0  0  0  0  0  0  0  0
    6.4900    2.2790   22.0900 O   0  0  0  0  0  0  0  0  0  0  0  0
    8.5470    1.9070   21.0420 O   0  0  0  0  0  0  0  0  0  0  0  0
    6.2780    1.0800   18.9470 C   0  0  0  0  0  0  0  0  0  0  0  0
    5.8170    0.6900   17.8380 N   0  0  0  0  0  0  0  0  0  0  0  0
    5.4750   -0.5900   18.5140 C   0  0  0  0  0  0  0  0  0  0  0  0
    6.0900   -0.1230   19.8160 N   0  0  0  0  0  0  0  0  0  0  0  0
    8.1170   -2.8250   21.8830 C   0  0  0  0  0  0  0  0  0  0  0  0
  1  2  1  0
  2  3  2  0
  2  4  1  0
  4  5  1  0
  6  5  1  6
  6  7  1  0
  7  8  1  0
  8  9  1  0
  9 10  1  0
  6 11  1  0
 11 10  1  1
 11 12  1  0
 12 13  1  6
 13 14  2  0
 14 15  1  0
 15 16  2  0
 16 17  1  0
 16 18  1  0
 13 19  1  0
 18 19  2  0
 19 20  1  0
 20 21  1  0
 21 22  2  0
 21 23  1  0
 23 24  1  0
 24 25  2  0
 25 26  1  0
 26 27  2  0
 27 28  1  0
 28 29  1  0
 29 30  2  0
 29 31  1  0
 28 32  2  0
 32 33  1  0
 26 34  1  0
 33 34  2  0
 24 35  1  0
 34 35  1  0
  4 36  1  0
 12 36  1  0
M  END
