JAN-GHE-6413aaf8-10-vinylsulfonamide
     RDKit          3D

 24 26  0  0  0  0  0  0  0  0999 V2000
    8.4870   -3.9140   20.3500 C   0  0  0  0  0  0  0  0  0  0  0  0
    7.4860   -2.8110   19.9790 C   0  0  0  0  0  0  0  0  0  0  0  0
    5.9720   -2.9280   20.9000 S   0  0  0  0  0  0  0  0  0  0  0  0
    5.3290   -4.1910   20.6020 O   0  0  0  0  0  0  0  0  0  0  0  0
    5.2560   -1.6830   20.7320 O   0  0  0  0  0  0  0  0  0  0  0  0
    6.5120   -2.9920   22.5030 N   0  0  0  0  0  0  0  0  0  0  0  0
    7.3610   -1.9500   22.9400 C   0  0  0  0  0  0  0  0  0  0  0  0
    8.2640   -3.0070   23.5760 C   0  0  0  0  0  0  0  0  0  0  0  0
    9.5600   -3.0120   22.8470 N   0  0  0  0  0  0  0  0  0  0  0  0
   10.7030   -2.4510   23.5970 C   0  0  0  0  0  0  0  0  0  0  0  0
   10.5200   -0.9180   23.7350 C   0  0  0  0  0  0  0  0  0  0  0  0
   11.7610   -1.6560   23.1410 C   0  0  0  0  0  0  0  0  0  0  0  0
   12.9880   -0.9040   22.6150 C   0  0  0  0  0  0  0  0  0  0  0  0
   13.0680    0.5700   22.6380 C   0  0  0  0  0  0  0  0  0  0  0  0
   11.8840    1.2390   23.1740 C   0  0  0  0  0  0  0  0  0  0  0  0
   11.6760    2.6330   23.2720 C   0  0  0  0  0  0  0  0  0  0  0  0
   12.5230    3.6810   22.8560 C   0  0  0  0  0  0  0  0  0  0  0  0
   12.1200    4.9090   23.4030 C   0  0  0  0  0  0  0  0  0  0  0  0
   11.2570    5.6810   22.5320 N   0  0  0  0  0  0  0  0  0  0  0  0
   12.4410    5.3240   24.5060 O   0  0  0  0  0  0  0  0  0  0  0  0
   10.4280    2.7230   23.8650 C   0  0  0  0  0  0  0  0  0  0  0  0
    9.9160    1.4810   24.0880 N   0  0  0  0  0  0  0  0  0  0  0  0
   10.7990    0.5130   23.6530 C   0  0  0  0  0  0  0  0  0  0  0  0
    7.2800   -4.1230   23.0050 C   0  0  0  0  0  0  0  0  0  0  0  0
  1  2  1  0
  3  2  1  0
  3  4  2  0
  3  5  2  0
  3  6  1  0
  6  7  1  0
  7  8  1  0
  8  9  1  0
  9 10  1  0
 10 11  1  0
 11 12  2  0
 12 13  1  0
 13 14  2  0
 14 15  1  0
 15 16  1  0
 16 17  1  0
 17 18  1  0
 18 19  1  0
 18 20  2  0
 16 21  2  0
 21 22  1  0
 11 23  1  0
 15 23  2  0
 22 23  1  0
  6 24  1  0
  8 24  1  0
M  END
