JAN-GHE-6413aaf8-6-nitrile
     RDKit          3D

 28 31  0  0  0  0  0  0  0  0999 V2000
    6.7440   -3.4080   19.6520 C   0  0  0  0  0  0  0  0  0  0  0  0
    5.8570   -3.1380   18.7790 N   0  0  0  0  0  0  0  0  0  0  0  0
    6.7970   -2.6990   20.8430 N   0  0  0  0  0  0  0  0  0  0  0  0
    6.3740   -3.2620   22.1240 C   0  0  0  0  0  0  0  0  0  0  0  0
    7.4960   -3.3650   22.9530 C   0  0  0  0  0  0  0  0  0  0  0  0
    8.3270   -2.1420   23.0360 N   0  0  0  0  0  0  0  0  0  0  0  0
    9.4240   -2.2980   23.9980 C   0  0  0  0  0  0  0  0  0  0  0  0
   10.4740   -1.4140   23.7410 C   0  0  0  0  0  0  0  0  0  0  0  0
   11.7840   -1.8800   23.3030 C   0  0  0  0  0  0  0  0  0  0  0  0
   12.8700   -0.9470   23.0300 C   0  0  0  0  0  0  0  0  0  0  0  0
   12.6370    0.4010   23.1920 C   0  0  0  0  0  0  0  0  0  0  0  0
   11.3930    0.8880   23.6090 C   0  0  0  0  0  0  0  0  0  0  0  0
   11.1330    2.4020   23.7790 C   0  0  0  0  0  0  0  0  0  0  0  0
   10.4740    3.7460   24.0630 C   0  0  0  0  0  0  0  0  0  0  0  0
   10.0090    4.3900   22.7740 C   0  0  0  0  0  0  0  0  0  0  0  0
    9.1030    5.4290   22.8770 N   0  0  0  0  0  0  0  0  0  0  0  0
    8.6550    6.0630   24.0550 C   0  0  0  0  0  0  0  0  0  0  0  0
    9.1850    5.8910   25.1560 O   0  0  0  0  0  0  0  0  0  0  0  0
    7.5690    6.9300   23.9690 C   0  0  2  0  0  0  0  0  0  0  0  0
    7.8760    8.0330   23.0050 C   0  0  0  0  0  0  0  0  0  0  0  0
    7.6300    9.1950   23.7390 C   0  0  0  0  0  0  0  0  0  0  0  0
    7.1590    8.7960   25.0000 C   0  0  0  0  0  0  0  0  0  0  0  0
    7.1380    7.4450   25.1420 N   0  0  0  0  0  0  0  0  0  0  0  0
    9.7960    2.0620   24.1790 C   0  0  0  0  0  0  0  0  0  0  0  0
    9.4290    0.7810   24.2150 N   0  0  0  0  0  0  0  0  0  0  0  0
   10.3780   -0.0100   23.8670 C   0  0  0  0  0  0  0  0  0  0  0  0
    8.7550   -1.6870   21.8250 C   0  0  0  0  0  0  0  0  0  0  0  0
    7.5190   -1.4290   20.9560 C   0  0  0  0  0  0  0  0  0  0  0  0
  1  2  2  3
  1  3  1  0
  3  4  1  0
  4  5  1  0
  5  6  1  0
  6  7  1  0
  7  8  1  0
  8  9  2  0
  9 10  1  0
 10 11  2  0
 11 12  1  0
 12 13  1  0
 13 14  1  0
 14 15  1  0
 15 16  1  0
 16 17  1  0
 17 18  2  0
 19 17  1  1
 19 20  1  0
 20 21  1  0
 21 22  1  0
 19 23  1  0
 22 23  1  0
 13 24  2  0
 24 25  1  0
  8 26  1  0
 12 26  2  0
 25 26  1  0
  6 27  1  0
  3 28  1  0
 27 28  1  0
M  END
