JAN-UNI-2e92c4b1-3-chloroacetamide
     RDKit          3D

 20 21  0  0  0  0  0  0  0  0999 V2000
    7.2660   -4.1290   20.4640 C   0  0  0  0  0  0  0  0  0  0  0  0
    5.7550   -3.6770   20.5360 C   0  0  0  0  0  0  0  0  0  0  0  0
    4.9710   -4.2630   19.7680 O   0  0  0  0  0  0  0  0  0  0  0  0
    5.2700   -2.5030   21.4750 C   0  0  0  0  0  0  0  0  0  0  0  0
    5.2720   -1.2500   20.9410 C   0  0  0  0  0  0  0  0  0  0  0  0
    5.6660   -1.7370   19.8930 N   0  0  0  0  0  0  0  0  0  0  0  0
    5.7740   -3.1960   20.1110 C   0  0  0  0  0  0  0  0  0  0  0  0
    6.1460   -2.6710   18.7660 N   0  0  0  0  0  0  0  0  0  0  0  0
    7.0700   -1.4980   18.8630 C   0  0  0  0  0  0  0  0  0  0  0  0
    7.5700   -1.2050   20.2790 C   0  0  0  0  0  0  0  0  0  0  0  0
    5.3350   -3.6150   21.6270 C   0  0  0  0  0  0  0  0  0  0  0  0
    5.3060   -4.9350   22.1540 C   0  0  0  0  0  0  0  0  0  0  0  0
    6.2230   -5.0950   23.3250 N   0  0  0  0  0  0  0  0  0  0  0  0
    7.6000   -5.4150   23.4370 C   0  0  0  0  0  0  0  0  0  0  0  0
    8.3300   -5.1810   24.6140 C   0  0  0  0  0  0  0  0  0  0  0  0
    7.6180   -4.9830   25.8100 C   0  0  0  0  0  0  0  0  0  0  0  0
    8.1460   -4.1130   26.4880 O   0  0  0  0  0  0  0  0  0  0  0  0
    6.3250   -4.4980   25.6250 C   0  0  0  0  0  0  0  0  0  0  0  0
    5.5320   -5.2640   24.5440 C   0  0  0  0  0  0  0  0  0  0  0  0
    4.9150   -2.7260   22.6270 C   0  0  0  0  0  0  0  0  0  0  0  0
  1  2  1  0
  2  3  2  0
  2  4  1  0
  4  5  2  0
  5  6  1  0
  6  7  2  0
  7  8  1  0
  8  9  1  0
  9 10  1  0
  7 11  1  0
 11 12  1  0
 12 13  1  0
 13 14  1  0
 14 15  1  0
 15 16  1  0
 16 17  1  0
 16 18  1  0
 13 19  1  0
 18 19  1  0
  4 20  1  0
 11 20  2  0
M  END
