JAN-LUN-04aedcc0-6-vinylsulfonamide
     RDKit          3D

 38 42  0  0  0  0  0  0  0  0999 V2000
    7.5370   -2.9860   18.4680 C   0  0  0  0  0  0  0  0  0  0  0  0
    7.0170   -2.0780   19.5140 C   0  0  0  0  0  0  0  0  0  0  0  0
    5.9220   -3.0520   20.5250 S   0  0  0  0  0  0  0  0  0  0  0  0
    4.6190   -2.9430   19.9630 O   0  0  0  0  0  0  0  0  0  0  0  0
    6.2800   -4.3990   20.8920 O   0  0  0  0  0  0  0  0  0  0  0  0
    6.0190   -2.2710   22.0100 N   0  0  0  0  0  0  0  0  0  0  0  0
    5.6520   -3.1290   23.1330 C   0  0  0  0  0  0  0  0  0  0  0  0
    6.7530   -3.6060   23.8080 C   0  0  0  0  0  0  0  0  0  0  0  0
    6.7630   -4.7890   24.5360 C   0  0  0  0  0  0  0  0  0  0  0  0
    7.8910   -5.3380   25.2650 C   0  0  0  0  0  0  0  0  0  0  0  0
    9.0850   -4.6310   25.2490 C   0  0  0  0  0  0  0  0  0  0  0  0
    9.1450   -3.4330   24.5360 C   0  0  0  0  0  0  0  0  0  0  0  0
    7.9440   -2.9220   23.8080 C   0  0  0  0  0  0  0  0  0  0  0  0
    8.2860   -1.6620   23.1740 C   0  0  2  0  0  0  0  0  0  0  0  0
    8.8680   -0.6560   23.3370 C   0  0  0  0  0  0  0  0  0  0  0  0
   10.2050   -0.1260   23.3000 C   0  0  0  0  0  0  0  0  0  0  0  0
   10.7140    1.0910   23.5470 C   0  0  0  0  0  0  0  0  0  0  0  0
    9.9170    2.1310   23.9180 C   0  0  0  0  0  0  0  0  0  0  0  0
   10.4040    3.2320   24.1430 O   0  0  0  0  0  0  0  0  0  0  0  0
    8.5070    1.9790   24.0520 C   0  0  0  0  0  0  0  0  0  0  0  0
    7.7810    0.6240   23.7890 C   0  0  0  0  0  0  0  0  0  0  0  0
    6.0670    0.7180   23.9850 N   0  0  0  0  0  0  0  0  0  0  0  0
    5.0240    1.7290   24.8960 C   0  0  0  0  0  0  0  0  0  0  0  0
    5.4800    2.0900   26.2120 O   0  0  0  0  0  0  0  0  0  0  0  0
    3.5560    2.3250   24.4430 N   0  0  0  0  0  0  0  0  0  0  0  0
    2.1000    2.1570   25.1410 C   0  0  0  0  0  0  0  0  0  0  0  0
    1.5430    2.8530   25.7420 C   0  0  0  0  0  0  0  0  0  0  0  0
    2.7790    3.8990   25.2960 C   0  0  0  0  0  0  0  0  0  0  0  0
    3.4480    2.8690   24.2390 C   0  0  0  0  0  0  0  0  0  0  0  0
    2.5070    1.7350   24.2130 C   0  0  0  0  0  0  0  0  0  0  0  0
    3.3840    1.1560   23.1970 C   0  0  0  0  0  0  0  0  0  0  0  0
    3.1460   -0.2200   22.9370 O   0  0  0  0  0  0  0  0  0  0  0  0
    4.2940    2.0670   22.5900 O   0  0  0  0  0  0  0  0  0  0  0  0
    2.0530    2.5000   25.0180 C   0  0  0  0  0  0  0  0  0  0  0  0
    1.3630    2.9650   25.8190 N   0  0  0  0  0  0  0  0  0  0  0  0
    1.9050    4.2310   26.0960 C   0  0  0  0  0  0  0  0  0  0  0  0
    1.0830    3.4270   26.2380 N   0  0  0  0  0  0  0  0  0  0  0  0
    7.1540   -1.3160   22.1570 C   0  0  0  0  0  0  0  0  0  0  0  0
  1  2  1  0
  3  2  1  0
  3  4  2  0
  3  5  2  0
  3  6  1  0
  6  7  1  0
  7  8  1  0
  8  9  1  0
  9 10  2  0
 10 11  1  0
 11 12  2  0
  8 13  2  0
 12 13  1  0
 13 14  1  0
 14 15  1  1
 15 16  2  0
 16 17  1  0
 17 18  2  0
 18 19  1  0
 18 20  1  0
 15 21  1  0
 20 21  2  0
 21 22  1  0
 22 23  1  0
 23 24  2  0
 23 25  1  0
 25 26  1  0
 26 27  2  0
 27 28  1  0
 28 29  2  0
 29 30  1  0
 30 31  1  0
 31 32  2  0
 31 33  1  0
 30 34  2  0
 34 35  1  0
 28 36  1  0
 35 36  2  0
 26 37  1  0
 36 37  1  0
  6 38  1  0
 14 38  1  0
M  END
