JAN-GHE-6413aaf8-7-nitrile
     RDKit          3D

 25 27  0  0  0  0  0  0  0  0999 V2000
    6.7540   -3.4040   19.6370 C   0  0  0  0  0  0  0  0  0  0  0  0
    5.8220   -3.1370   18.8220 N   0  0  0  0  0  0  0  0  0  0  0  0
    6.8890   -2.6820   20.7910 N   0  0  0  0  0  0  0  0  0  0  0  0
    7.4210   -1.3170   20.8690 C   0  0  0  0  0  0  0  0  0  0  0  0
    8.6870   -1.5420   21.7490 C   0  0  0  0  0  0  0  0  0  0  0  0
    8.2260   -2.1190   23.0410 N   0  0  0  0  0  0  0  0  0  0  0  0
    9.3800   -2.3820   23.9160 C   0  0  0  0  0  0  0  0  0  0  0  0
   10.3890   -1.2520   23.7300 C   0  0  0  0  0  0  0  0  0  0  0  0
   11.7420   -1.9060   23.3010 C   0  0  0  0  0  0  0  0  0  0  0  0
   12.8610   -0.8620   23.0730 C   0  0  0  0  0  0  0  0  0  0  0  0
   12.4940    0.6330   23.2950 C   0  0  0  0  0  0  0  0  0  0  0  0
   11.1100    1.0790   23.7140 C   0  0  0  0  0  0  0  0  0  0  0  0
   10.8910    2.6010   23.8890 C   0  0  0  0  0  0  0  0  0  0  0  0
   10.4070    3.9110   24.1210 C   0  0  0  0  0  0  0  0  0  0  0  0
    9.5900    4.0720   25.2550 C   0  0  0  0  0  0  0  0  0  0  0  0
    9.7920    5.1650   26.0660 N   0  0  0  0  0  0  0  0  0  0  0  0
    9.0660    5.1810   27.5880 S   0  0  0  0  0  0  0  0  0  0  0  0
    8.7660    3.4580   27.9330 C   0  0  0  0  0  0  0  0  0  0  0  0
    7.7980    5.8570   27.4040 O   0  0  0  0  0  0  0  0  0  0  0  0
   10.0390    5.6680   28.5420 O   0  0  0  0  0  0  0  0  0  0  0  0
    9.5250    2.2810   24.2400 C   0  0  0  0  0  0  0  0  0  0  0  0
    9.1300    0.9390   24.2510 N   0  0  0  0  0  0  0  0  0  0  0  0
   10.1960    0.1230   23.8930 C   0  0  0  0  0  0  0  0  0  0  0  0
    7.5120   -3.2860   22.8010 C   0  0  0  0  0  0  0  0  0  0  0  0
    6.3130   -3.0440   22.0820 C   0  0  0  0  0  0  0  0  0  0  0  0
  1  2  2  3
  1  3  1  0
  3  4  1  0
  4  5  1  0
  5  6  1  0
  6  7  1  0
  7  8  1  0
  8  9  2  0
  9 10  1  0
 10 11  2  0
 11 12  1  0
 12 13  1  0
 13 14  1  0
 14 15  1  0
 15 16  1  0
 17 16  1  0
 17 18  1  0
 17 19  2  0
 17 20  2  0
 13 21  2  0
 21 22  1  0
  8 23  1  0
 12 23  2  0
 22 23  1  0
  6 24  1  0
  3 25  1  0
 24 25  1  0
M  END
