JAN-UNI-2e92c4b1-4-chloroacetamide
     RDKit          3D

 19 20  0  0  0  0  0  0  0  0999 V2000
    8.7620   -3.8460   19.4340 C   0  0  0  0  0  0  0  0  0  0  0  0
    8.0640   -2.8580   20.1620 C   0  0  0  0  0  0  0  0  0  0  0  0
    6.8320   -2.9720   19.4460 O   0  0  0  0  0  0  0  0  0  0  0  0
    8.7610   -2.0940   21.4710 C   0  0  0  0  0  0  0  0  0  0  0  0
    9.8750   -0.9750   21.6280 C   0  0  0  0  0  0  0  0  0  0  0  0
   10.3760   -0.3770   22.7950 N   0  0  0  0  0  0  0  0  0  0  0  0
    9.8460   -0.7990   23.9610 C   0  0  0  0  0  0  0  0  0  0  0  0
   10.2370   -0.2110   25.2740 N   0  0  0  0  0  0  0  0  0  0  0  0
    9.1120   -0.5400   26.1860 C   0  0  0  0  0  0  0  0  0  0  0  0
    9.1500    0.1450   27.5290 C   0  0  0  0  0  0  0  0  0  0  0  0
    8.8770   -1.8170   23.9510 C   0  0  0  0  0  0  0  0  0  0  0  0
    8.3180   -2.2920   25.1410 C   0  0  0  0  0  0  0  0  0  0  0  0
    8.5980   -3.7140   25.4130 N   0  0  0  0  0  0  0  0  0  0  0  0
    7.9770   -4.5420   26.3670 C   0  0  0  0  0  0  0  0  0  0  0  0
    8.4540   -5.4430   27.2580 C   0  0  0  0  0  0  0  0  0  0  0  0
    7.4870   -6.0230   28.0100 C   0  0  0  0  0  0  0  0  0  0  0  0
    6.2690   -5.4910   27.6090 N   0  0  0  0  0  0  0  0  0  0  0  0
    6.6090   -4.5610   26.5730 O   0  0  0  0  0  0  0  0  0  0  0  0
    8.3770   -2.4200   22.7600 C   0  0  0  0  0  0  0  0  0  0  0  0
  1  2  1  0
  2  3  2  0
  2  4  1  0
  4  5  2  0
  5  6  1  0
  6  7  2  0
  7  8  1  0
  8  9  1  0
  9 10  1  0
  7 11  1  0
 11 12  1  0
 12 13  1  0
 13 14  1  0
 14 15  2  0
 15 16  1  0
 16 17  2  0
 14 18  1  0
 17 18  1  0
  4 19  1  0
 11 19  2  0
M  END
