JAN-LUN-04aedcc0-1-acrylamide
     RDKit          3D

 33 35  0  0  0  0  0  0  0  0999 V2000
    7.5870   -2.7920   18.6710 C   0  0  0  0  0  0  0  0  0  0  0  0
    6.1800   -2.9970   19.1670 C   0  0  0  0  0  0  0  0  0  0  0  0
    5.9650   -3.8920   20.3370 C   0  0  0  0  0  0  0  0  0  0  0  0
    5.2100   -4.8370   20.1450 O   0  0  0  0  0  0  0  0  0  0  0  0
    6.6130   -3.6350   21.5410 N   0  0  0  0  0  0  0  0  0  0  0  0
    6.1560   -4.0300   22.8600 C   0  0  0  0  0  0  0  0  0  0  0  0
    7.2480   -4.3370   23.6610 C   0  0  0  0  0  0  0  0  0  0  0  0
    8.1650   -3.2090   23.9230 N   0  0  0  0  0  0  0  0  0  0  0  0
    7.9500   -2.0760   22.9980 C   0  0  1  0  0  0  0  0  0  0  0  0
    9.0500   -1.1940   22.9740 C   0  0  0  0  0  0  0  0  0  0  0  0
    9.0130    0.2070   23.4850 C   0  0  0  0  0  0  0  0  0  0  0  0
   10.2670    1.1920   23.4820 C   0  0  0  0  0  0  0  0  0  0  0  0
   11.3670    0.4370   22.9000 C   0  0  0  0  0  0  0  0  0  0  0  0
   12.4020    1.0970   22.8530 O   0  0  0  0  0  0  0  0  0  0  0  0
   11.4020   -0.6140   22.5180 C   0  0  0  0  0  0  0  0  0  0  0  0
   10.3280   -1.4430   22.5270 C   0  0  0  0  0  0  0  0  0  0  0  0
    9.9800   -0.2000   22.9390 N   0  0  0  0  0  0  0  0  0  0  0  0
    9.1190    0.4590   21.8340 C   0  0  0  0  0  0  0  0  0  0  0  0
    9.3120    1.6390   21.4980 O   0  0  0  0  0  0  0  0  0  0  0  0
    8.1430   -0.3210   21.2360 N   0  0  0  0  0  0  0  0  0  0  0  0
    7.1430    0.1780   20.4090 C   0  0  0  0  0  0  0  0  0  0  0  0
    7.1730   -0.1310   19.0490 C   0  0  0  0  0  0  0  0  0  0  0  0
    6.2710    0.2880   18.1360 N   0  0  0  0  0  0  0  0  0  0  0  0
    5.2660    1.0590   18.6150 C   0  0  0  0  0  0  0  0  0  0  0  0
    5.1260    1.4270   19.9600 C   0  0  0  0  0  0  0  0  0  0  0  0
    4.0670    2.2190   20.4070 C   0  0  0  0  0  0  0  0  0  0  0  0
    3.3610    2.7750   19.3590 C   0  0  0  0  0  0  0  0  0  0  0  0
    2.4780    3.9380   19.7240 C   0  0  0  0  0  0  0  0  0  0  0  0
    1.0700    3.4360   20.0780 C   0  0  0  0  0  0  0  0  0  0  0  0
    0.0040    3.9470   19.7590 O   0  0  0  0  0  0  0  0  0  0  0  0
    1.0900    2.3120   20.8200 O   0  0  0  0  0  0  0  0  0  0  0  0
    6.0960    0.9690   20.8670 C   0  0  0  0  0  0  0  0  0  0  0  0
    7.7290   -2.6660   21.5800 C   0  0  0  0  0  0  0  0  0  0  0  0
  1  2  1  0
  2  3  1  0
  3  4  2  0
  3  5  1  0
  5  6  1  0
  6  7  1  0
  7  8  1  0
  8  9  1  0
  9 10  1  6
 10 11  2  0
 11 12  1  0
 12 13  2  0
 13 14  1  0
 13 15  1  0
 10 16  1  0
 15 16  2  0
 16 17  1  0
 17 18  1  0
 18 19  2  0
 18 20  1  0
 20 21  1  0
 21 22  2  0
 22 23  1  0
 23 24  2  0
 24 25  1  0
 25 26  1  0
 26 27  1  0
 27 28  1  0
 28 29  1  0
 29 30  2  0
 29 31  1  0
 21 32  1  0
 25 32  2  0
  5 33  1  0
  9 33  1  0
M  END
