JAN-LUN-04aedcc0-1-vinylsulfonamide
     RDKit          3D

 34 36  0  0  0  0  0  0  0  0999 V2000
    7.2120   -2.9310   18.5560 C   0  0  0  0  0  0  0  0  0  0  0  0
    6.0470   -3.2580   19.4590 C   0  0  0  0  0  0  0  0  0  0  0  0
    6.3670   -3.9970   21.0210 S   0  0  0  0  0  0  0  0  0  0  0  0
    5.0960   -4.2070   21.6720 O   0  0  0  0  0  0  0  0  0  0  0  0
    7.2870   -5.0940   21.0260 O   0  0  0  0  0  0  0  0  0  0  0  0
    6.9920   -2.7370   21.8590 N   0  0  0  0  0  0  0  0  0  0  0  0
    6.6460   -2.8340   23.2030 C   0  0  0  0  0  0  0  0  0  0  0  0
    7.4790   -3.6750   23.9000 C   0  0  0  0  0  0  0  0  0  0  0  0
    8.8450   -3.1280   24.0280 N   0  0  0  0  0  0  0  0  0  0  0  0
    9.0900   -2.1010   23.0100 C   0  0  1  0  0  0  0  0  0  0  0  0
   10.3870   -1.5860   23.0010 C   0  0  0  0  0  0  0  0  0  0  0  0
   11.6300   -2.2310   22.9280 C   0  0  0  0  0  0  0  0  0  0  0  0
   12.9270   -1.4710   22.9290 C   0  0  0  0  0  0  0  0  0  0  0  0
   12.9400    0.0340   23.0120 C   0  0  0  0  0  0  0  0  0  0  0  0
   14.1190    0.7740   22.9800 O   0  0  0  0  0  0  0  0  0  0  0  0
   11.6470    0.7410   23.1100 C   0  0  0  0  0  0  0  0  0  0  0  0
   10.3980   -0.0810   23.0970 C   0  0  0  0  0  0  0  0  0  0  0  0
    9.1300    0.6180   23.1690 N   0  0  0  0  0  0  0  0  0  0  0  0
    8.6870    0.9040   21.8150 C   0  0  0  0  0  0  0  0  0  0  0  0
    9.1180    1.8430   21.1630 O   0  0  0  0  0  0  0  0  0  0  0  0
    7.7120    0.0180   21.3490 N   0  0  0  0  0  0  0  0  0  0  0  0
    6.8750    0.3380   20.2680 C   0  0  0  0  0  0  0  0  0  0  0  0
    7.0770   -0.1070   18.8560 C   0  0  0  0  0  0  0  0  0  0  0  0
    6.1660    0.3190   17.8280 N   0  0  0  0  0  0  0  0  0  0  0  0
    5.1180    1.1240   18.1430 C   0  0  0  0  0  0  0  0  0  0  0  0
    4.8880    1.5690   19.5490 C   0  0  0  0  0  0  0  0  0  0  0  0
    3.6870    2.4670   19.7410 C   0  0  0  0  0  0  0  0  0  0  0  0
    2.5660    1.9050   20.5720 C   0  0  0  0  0  0  0  0  0  0  0  0
    1.2510    2.6050   20.3110 C   0  0  0  0  0  0  0  0  0  0  0  0
    0.0420    2.0120   21.0730 C   0  0  0  0  0  0  0  0  0  0  0  0
   -0.2430    2.5980   22.2520 O   0  0  0  0  0  0  0  0  0  0  0  0
   -0.6380    0.9790   20.5110 O   0  0  0  0  0  0  0  0  0  0  0  0
    5.7740    1.1530   20.5540 C   0  0  0  0  0  0  0  0  0  0  0  0
    8.4400   -2.5390   21.6740 C   0  0  0  0  0  0  0  0  0  0  0  0
  1  2  1  0
  3  2  1  0
  3  4  2  0
  3  5  2  0
  3  6  1  0
  6  7  1  0
  7  8  1  0
  8  9  1  0
  9 10  1  0
 10 11  1  6
 11 12  2  0
 12 13  1  0
 13 14  2  0
 14 15  1  0
 14 16  1  0
 11 17  1  0
 16 17  2  0
 17 18  1  0
 18 19  1  0
 19 20  2  0
 19 21  1  0
 21 22  1  0
 22 23  2  0
 23 24  1  0
 24 25  2  0
 25 26  1  0
 26 27  1  0
 27 28  1  0
 28 29  1  0
 29 30  1  0
 30 31  2  0
 30 32  1  0
 22 33  1  0
 26 33  2  0
  6 34  1  0
 10 34  1  0
M  END
