JAN-UNI-2e92c4b1-1-chloroacetamide
     RDKit          3D

 23 25  0  0  0  0  0  0  0  0999 V2000
    7.7840   -4.4410   20.7990 C   0  0  0  0  0  0  0  0  0  0  0  0
    6.3070   -4.6580   21.0230 C   0  0  0  0  0  0  0  0  0  0  0  0
    5.5290   -4.9950   20.0850 O   0  0  0  0  0  0  0  0  0  0  0  0
    5.8790   -4.4180   22.4230 C   0  0  0  0  0  0  0  0  0  0  0  0
    6.8150   -3.6560   23.4760 C   0  0  0  0  0  0  0  0  0  0  0  0
    6.5830   -3.3190   24.8500 N   0  0  0  0  0  0  0  0  0  0  0  0
    5.3930   -3.7300   25.3140 C   0  0  0  0  0  0  0  0  0  0  0  0
    4.5670   -4.4340   24.3150 C   0  0  0  0  0  0  0  0  0  0  0  0
    5.8470   -3.9640   23.7140 N   0  0  0  0  0  0  0  0  0  0  0  0
    5.6490   -2.7870   22.7990 C   0  0  0  0  0  0  0  0  0  0  0  0
    5.7800   -1.5490   22.0460 C   0  0  0  0  0  0  0  0  0  0  0  0
    4.9010   -1.0770   21.2010 N   0  0  0  0  0  0  0  0  0  0  0  0
    5.0160   -0.1890   20.0290 C   0  0  0  0  0  0  0  0  0  0  0  0
    4.1940    0.9330   19.8480 C   0  0  0  0  0  0  0  0  0  0  0  0
    4.3520    1.7290   18.7110 C   0  0  0  0  0  0  0  0  0  0  0  0
    5.2930    1.4830   17.7140 C   0  0  0  0  0  0  0  0  0  0  0  0
    6.0910    0.3890   17.8980 N   0  0  0  0  0  0  0  0  0  0  0  0
    5.9600   -0.4300   19.0270 C   0  0  0  0  0  0  0  0  0  0  0  0
    7.0570   -0.8940   22.3880 C   0  0  0  0  0  0  0  0  0  0  0  0
    8.2760   -0.5750   22.9200 O   0  0  0  0  0  0  0  0  0  0  0  0
    6.9700   -2.1500   23.1930 C   0  0  0  0  0  0  0  0  0  0  0  0
    8.0960   -2.2530   23.9710 O   0  0  0  0  0  0  0  0  0  0  0  0
    4.6370   -4.8450   22.9030 C   0  0  0  0  0  0  0  0  0  0  0  0
  1  2  1  0
  2  3  2  0
  2  4  1  0
  4  5  2  0
  5  6  1  0
  6  7  2  0
  7  8  1  0
  8  9  1  0
  9 10  1  0
 10 11  2  0
 11 12  1  0
 12 13  1  0
 13 14  2  0
 14 15  1  0
 15 16  2  0
 16 17  1  0
 13 18  1  0
 17 18  2  0
 11 19  1  0
 19 20  2  0
 10 21  1  0
 19 21  1  0
 21 22  2  0
  4 23  1  0
  8 23  2  0
M  END
