JAN-GHE-6413aaf8-2-vinylsulfonamide
     RDKit          3D

 30 33  0  0  0  0  0  0  0  0999 V2000
    7.5150   -3.0830   19.2240 C   0  0  0  0  0  0  0  0  0  0  0  0
    6.1600   -2.4380   19.0040 C   0  0  0  0  0  0  0  0  0  0  0  0
    5.4380   -1.9560   20.5380 S   0  0  0  0  0  0  0  0  0  0  0  0
    4.8930   -3.1480   21.2200 O   0  0  0  0  0  0  0  0  0  0  0  0
    4.5760   -0.8390   20.2090 O   0  0  0  0  0  0  0  0  0  0  0  0
    6.6660   -1.2060   21.4430 N   0  0  0  0  0  0  0  0  0  0  0  0
    7.5640   -1.9150   22.3000 C   0  0  0  0  0  0  0  0  0  0  0  0
    7.4230   -0.9960   23.2970 C   0  0  0  0  0  0  0  0  0  0  0  0
    8.4300   -0.0920   23.4540 N   0  0  0  0  0  0  0  0  0  0  0  0
    9.4340   -0.4750   24.4730 C   0  0  0  0  0  0  0  0  0  0  0  0
   10.5980   -1.1320   23.8750 C   0  0  0  0  0  0  0  0  0  0  0  0
   11.9050   -1.5350   23.2040 C   0  0  0  0  0  0  0  0  0  0  0  0
   13.0230   -0.9430   22.6350 C   0  0  0  0  0  0  0  0  0  0  0  0
   13.0570    0.3920   22.6280 C   0  0  0  0  0  0  0  0  0  0  0  0
   11.9140    1.0480   23.1940 C   0  0  0  0  0  0  0  0  0  0  0  0
   11.6630    2.5490   23.2900 C   0  0  0  0  0  0  0  0  0  0  0  0
   12.6360    3.6080   22.7370 C   0  0  0  0  0  0  0  0  0  0  0  0
   12.2180    4.9870   23.2660 C   0  0  0  0  0  0  0  0  0  0  0  0
   11.2400    5.7320   22.6650 N   0  0  0  0  0  0  0  0  0  0  0  0
   10.2170    6.1620   23.4670 C   0  0  0  0  0  0  0  0  0  0  0  0
   10.2840    6.1490   24.6950 O   0  0  0  0  0  0  0  0  0  0  0  0
    8.9130    6.7090   22.9040 C   0  0  0  0  0  0  0  0  0  0  0  0
    8.0710    5.9820   22.0680 C   0  0  0  0  0  0  0  0  0  0  0  0
    7.0040    6.7720   21.7490 C   0  0  0  0  0  0  0  0  0  0  0  0
    7.2220    7.9710   22.4100 C   0  0  0  0  0  0  0  0  0  0  0  0
    8.3850    7.9820   23.1360 N   0  0  0  0  0  0  0  0  0  0  0  0
   10.4640    2.6250   23.9200 C   0  0  0  0  0  0  0  0  0  0  0  0
   10.0310    1.3540   24.1620 N   0  0  0  0  0  0  0  0  0  0  0  0
   10.8610    0.3230   23.7370 C   0  0  0  0  0  0  0  0  0  0  0  0
    6.3390   -0.3410   22.6800 C   0  0  0  0  0  0  0  0  0  0  0  0
  1  2  1  0
  3  2  1  0
  3  4  2  0
  3  5  2  0
  3  6  1  0
  6  7  1  0
  7  8  1  0
  8  9  1  0
  9 10  1  0
 10 11  1  0
 11 12  2  0
 12 13  1  0
 13 14  2  0
 14 15  1  0
 15 16  1  0
 16 17  1  0
 17 18  1  0
 18 19  1  0
 19 20  1  0
 20 21  2  0
 20 22  1  0
 22 23  2  0
 23 24  1  0
 24 25  2  0
 22 26  1  0
 25 26  1  0
 16 27  2  0
 27 28  1  0
 11 29  1  0
 15 29  2  0
 28 29  1  0
  6 30  1  0
  8 30  1  0
M  END
