JAN-UNI-2e92c4b1-2-nitrile
     RDKit          3D

 20 21  0  0  0  0  0  0  0  0999 V2000
    7.1720   -3.3410   19.6430 C   0  0  0  0  0  0  0  0  0  0  0  0
    6.2410   -2.9010   18.8750 N   0  0  0  0  0  0  0  0  0  0  0  0
    7.9670   -2.6350   20.6330 N   0  0  0  0  0  0  0  0  0  0  0  0
    7.6510   -1.4050   21.3930 C   0  0  0  0  0  0  0  0  0  0  0  0
    6.5410   -0.7550   21.2050 N   0  0  0  0  0  0  0  0  0  0  0  0
    6.0760   -0.0010   20.1310 C   0  0  0  0  0  0  0  0  0  0  0  0
    4.8330    0.8830   20.2290 C   0  0  0  0  0  0  0  0  0  0  0  0
    4.4130    1.6600   19.0010 C   0  0  0  0  0  0  0  0  0  0  0  0
    5.2550    1.5150   17.7410 C   0  0  0  0  0  0  0  0  0  0  0  0
    6.3760    0.7010   17.6980 N   0  0  0  0  0  0  0  0  0  0  0  0
    6.7450   -0.0290   18.9020 C   0  0  0  0  0  0  0  0  0  0  0  0
    8.3470   -0.7260   22.4200 N   0  0  0  0  0  0  0  0  0  0  0  0
    9.7250   -0.5470   22.6980 C   0  0  0  0  0  0  0  0  0  0  0  0
   10.1650    0.3250   23.7060 C   0  0  0  0  0  0  0  0  0  0  0  0
   11.4480    0.5930   24.0630 N   0  0  0  0  0  0  0  0  0  0  0  0
   12.3880   -0.0680   23.3510 C   0  0  0  0  0  0  0  0  0  0  0  0
   12.0460   -0.9600   22.3350 C   0  0  0  0  0  0  0  0  0  0  0  0
   12.9390   -1.6550   21.5690 C   0  0  0  0  0  0  0  0  0  0  0  0
   13.5670   -2.2270   20.8360 N   0  0  0  0  0  0  0  0  0  0  0  0
   10.7240   -1.1980   22.0160 C   0  0  0  0  0  0  0  0  0  0  0  0
  1  2  2  3
  1  3  1  0
  3  4  2  3
  4  5  1  0
  5  6  1  0
  6  7  2  0
  7  8  1  0
  8  9  2  0
  9 10  1  0
  6 11  1  0
 10 11  2  0
  4 12  1  0
 12 13  1  0
 13 14  2  0
 14 15  1  0
 15 16  2  0
 16 17  1  0
 17 18  1  0
 18 19  3  0
 13 20  1  0
 17 20  2  0
M  END
