JAN-GHE-6413aaf8-3-vinylsulfonamide
     RDKit          3D

 30 33  0  0  0  0  0  0  0  0999 V2000
    6.0020   -5.2450   20.2450 C   0  0  0  0  0  0  0  0  0  0  0  0
    6.0110   -5.2900   21.7730 C   0  0  0  0  0  0  0  0  0  0  0  0
    4.8070   -4.1790   22.4330 S   0  0  0  0  0  0  0  0  0  0  0  0
    3.6060   -4.9390   22.6940 O   0  0  0  0  0  0  0  0  0  0  0  0
    4.7770   -3.0320   21.5640 O   0  0  0  0  0  0  0  0  0  0  0  0
    5.4280   -3.6980   23.9270 N   0  0  0  0  0  0  0  0  0  0  0  0
    6.8610   -3.4620   24.0820 C   0  0  0  0  0  0  0  0  0  0  0  0
    7.3790   -2.8290   22.7950 C   0  0  0  0  0  0  0  0  0  0  0  0
    7.7690   -1.6320   23.5400 N   0  0  0  0  0  0  0  0  0  0  0  0
    9.2310   -1.5780   23.8070 C   0  0  0  0  0  0  0  0  0  0  0  0
    9.5780   -0.0880   23.7400 C   0  0  0  0  0  0  0  0  0  0  0  0
   10.9660    0.4890   23.3490 C   0  0  0  0  0  0  0  0  0  0  0  0
   12.2730    1.3020   22.9820 C   0  0  0  0  0  0  0  0  0  0  0  0
   13.4830    0.5310   22.6540 C   0  0  0  0  0  0  0  0  0  0  0  0
   12.0350    0.6600   23.0460 C   0  0  0  0  0  0  0  0  0  0  0  0
   11.7600    2.1320   23.0760 C   0  0  0  0  0  0  0  0  0  0  0  0
   12.5620    3.2780   22.7690 C   0  0  0  0  0  0  0  0  0  0  0  0
   12.1610    4.4610   23.4370 C   0  0  0  0  0  0  0  0  0  0  0  0
   11.1520    5.2410   22.7180 N   0  0  0  0  0  0  0  0  0  0  0  0
   10.1750    6.0200   23.5140 C   0  0  0  0  0  0  0  0  0  0  0  0
   10.3890    6.3040   24.6890 O   0  0  0  0  0  0  0  0  0  0  0  0
    8.9930    6.4250   22.8790 C   0  0  0  0  0  0  0  0  0  0  0  0
    8.0860    5.7580   22.0700 C   0  0  0  0  0  0  0  0  0  0  0  0
    7.0310    6.5480   21.6380 C   0  0  0  0  0  0  0  0  0  0  0  0
    7.2030    7.8070   22.1710 C   0  0  0  0  0  0  0  0  0  0  0  0
    8.4450    7.7850   22.9800 N   0  0  0  0  0  0  0  0  0  0  0  0
   10.5490    2.2550   23.4410 C   0  0  0  0  0  0  0  0  0  0  0  0
   10.1280    1.0160   23.5850 N   0  0  0  0  0  0  0  0  0  0  0  0
   10.8870   -0.1940   23.3750 C   0  0  0  0  0  0  0  0  0  0  0  0
    7.1250   -2.0930   24.7890 C   0  0  0  0  0  0  0  0  0  0  0  0
  1  2  1  0
  2  3  1  0
  3  4  2  0
  3  5  2  0
  3  6  1  0
  6  7  1  0
  7  8  1  0
  8  9  1  0
  9 10  1  0
 10 11  1  0
 11 12  2  0
 12 13  1  0
 13 14  2  0
 14 15  1  0
 15 16  1  0
 16 17  1  0
 17 18  1  0
 18 19  1  0
 19 20  1  0
 20 21  2  0
 20 22  1  0
 22 23  2  0
 23 24  1  0
 24 25  2  0
 22 26  1  0
 25 26  1  0
 16 27  2  0
 27 28  1  0
 11 29  1  0
 15 29  2  0
 28 29  1  0
  7 30  1  0
  9 30  1  0
M  END
