JAN-LUN-04aedcc0-4-vinylsulfonamide
     RDKit          3D

 38 42  0  0  0  0  0  0  0  0999 V2000
    7.3510   -3.0600   18.4450 C   0  0  0  0  0  0  0  0  0  0  0  0
    6.9310   -2.2080   19.5570 C   0  0  0  0  0  0  0  0  0  0  0  0
    6.6110   -3.3660   20.7890 S   0  0  0  0  0  0  0  0  0  0  0  0
    5.3240   -3.9130   20.7060 O   0  0  0  0  0  0  0  0  0  0  0  0
    7.6910   -4.2570   21.0950 O   0  0  0  0  0  0  0  0  0  0  0  0
    6.4620   -2.3920   22.1060 N   0  0  0  0  0  0  0  0  0  0  0  0
    5.9380   -2.9360   23.3580 C   0  0  0  0  0  0  0  0  0  0  0  0
    6.9760   -3.4070   24.1870 C   0  0  1  0  0  0  0  0  0  0  0  0
    6.8360   -4.6410   24.8390 C   0  0  0  0  0  0  0  0  0  0  0  0
    8.0070   -5.3100   25.4520 C   0  0  0  0  0  0  0  0  0  0  0  0
    9.2990   -4.7430   25.3280 C   0  0  0  0  0  0  0  0  0  0  0  0
    9.4160   -3.6660   24.4420 C   0  0  0  0  0  0  0  0  0  0  0  0
    8.2510   -3.1470   23.6220 C   0  0  2  0  0  0  0  0  0  0  0  0
    8.6310   -1.8670   23.3350 C   0  0  2  0  0  0  0  0  0  0  0  0
    9.0870   -0.8410   23.4940 C   0  0  0  0  0  0  0  0  0  0  0  0
   10.4080   -0.1730   23.5220 C   0  0  0  0  0  0  0  0  0  0  0  0
   10.7490    1.1050   23.7880 C   0  0  0  0  0  0  0  0  0  0  0  0
    9.7710    2.0330   24.0940 C   0  0  0  0  0  0  0  0  0  0  0  0
   10.0160    3.2200   24.3420 O   0  0  0  0  0  0  0  0  0  0  0  0
    8.3800    1.6910   24.1640 C   0  0  0  0  0  0  0  0  0  0  0  0
    7.8450    0.2850   23.8990 C   0  0  0  0  0  0  0  0  0  0  0  0
    6.1230    0.1560   24.0050 N   0  0  0  0  0  0  0  0  0  0  0  0
    4.8710    0.9960   24.8400 C   0  0  0  0  0  0  0  0  0  0  0  0
    5.3530    1.6710   26.0990 O   0  0  0  0  0  0  0  0  0  0  0  0
    3.2510    1.2110   24.4220 N   0  0  0  0  0  0  0  0  0  0  0  0
    2.3400    1.9840   25.4620 C   0  0  0  0  0  0  0  0  0  0  0  0
    1.2780    2.0210   26.3830 C   0  0  0  0  0  0  0  0  0  0  0  0
    2.1840    2.7870   25.9140 C   0  0  0  0  0  0  0  0  0  0  0  0
    3.1810    3.0650   25.0340 C   0  0  0  0  0  0  0  0  0  0  0  0
    3.0600    2.3120   24.6170 C   0  0  0  0  0  0  0  0  0  0  0  0
    3.8080    2.1740   23.3200 C   0  0  0  0  0  0  0  0  0  0  0  0
    3.4710    1.0320   22.5280 O   0  0  0  0  0  0  0  0  0  0  0  0
    4.6790    3.2110   23.0680 O   0  0  0  0  0  0  0  0  0  0  0  0
    2.2440    1.1590   24.8830 C   0  0  0  0  0  0  0  0  0  0  0  0
    1.4000    0.0280   25.2090 N   0  0  0  0  0  0  0  0  0  0  0  0
    2.2540    1.1720   24.8800 C   0  0  0  0  0  0  0  0  0  0  0  0
    1.4060    1.0930   25.8390 N   0  0  0  0  0  0  0  0  0  0  0  0
    7.6840   -1.5060   22.1840 C   0  0  0  0  0  0  0  0  0  0  0  0
  1  2  1  0
  3  2  1  0
  3  4  2  0
  3  5  2  0
  3  6  1  0
  6  7  1  0
  8  7  1  6
  8  9  1  0
  9 10  1  0
 10 11  1  0
 11 12  1  0
  8 13  1  0
 13 12  1  1
 13 14  1  0
 14 15  1  1
 15 16  2  0
 16 17  1  0
 17 18  2  0
 18 19  1  0
 18 20  1  0
 15 21  1  0
 20 21  2  0
 21 22  1  0
 22 23  1  0
 23 24  2  0
 23 25  1  0
 25 26  1  0
 26 27  2  0
 27 28  1  0
 28 29  2  0
 29 30  1  0
 30 31  1  0
 31 32  2  0
 31 33  1  0
 30 34  2  0
 34 35  1  0
 28 36  1  0
 35 36  2  0
 26 37  1  0
 36 37  1  0
  6 38  1  0
 14 38  1  0
M  END
