JAN-GHE-6413aaf8-6-vinylsulfonamide
     RDKit          3D

 31 34  0  0  0  0  0  0  0  0999 V2000
    7.4720   -2.9030   18.7850 C   0  0  0  0  0  0  0  0  0  0  0  0
    6.0160   -2.5460   19.1160 C   0  0  0  0  0  0  0  0  0  0  0  0
    5.5070   -3.4240   20.5770 S   0  0  0  0  0  0  0  0  0  0  0  0
    4.5410   -2.8350   21.4050 O   0  0  0  0  0  0  0  0  0  0  0  0
    5.2920   -4.8040   20.2150 O   0  0  0  0  0  0  0  0  0  0  0  0
    6.8000   -3.0790   21.5560 N   0  0  0  0  0  0  0  0  0  0  0  0
    7.2980   -1.7070   21.4530 C   0  0  0  0  0  0  0  0  0  0  0  0
    8.7200   -1.8970   21.9290 C   0  0  0  0  0  0  0  0  0  0  0  0
    8.6580   -2.2450   23.3770 N   0  0  0  0  0  0  0  0  0  0  0  0
   10.0110   -2.5090   23.8700 C   0  0  0  0  0  0  0  0  0  0  0  0
   10.7160   -1.1700   23.7170 C   0  0  0  0  0  0  0  0  0  0  0  0
   12.0460   -1.5810   23.0950 C   0  0  0  0  0  0  0  0  0  0  0  0
   12.9270   -0.3400   22.8240 C   0  0  0  0  0  0  0  0  0  0  0  0
   12.4650    1.0830   23.1530 C   0  0  0  0  0  0  0  0  0  0  0  0
   11.1030    1.2460   23.7670 C   0  0  0  0  0  0  0  0  0  0  0  0
   10.4170    2.4130   24.1560 C   0  0  0  0  0  0  0  0  0  0  0  0
   10.8700    3.7260   24.0280 C   0  0  0  0  0  0  0  0  0  0  0  0
    9.8530    4.4800   23.4410 C   0  0  0  0  0  0  0  0  0  0  0  0
   10.4460    5.5960   22.7380 N   0  0  0  0  0  0  0  0  0  0  0  0
   11.2080    6.6770   23.4020 C   0  0  0  0  0  0  0  0  0  0  0  0
   12.3320    6.9950   23.0390 O   0  0  0  0  0  0  0  0  0  0  0  0
   10.5740    7.3270   24.4700 C   0  0  2  0  0  0  0  0  0  0  0  0
   11.4660    8.0920   25.2610 C   0  0  0  0  0  0  0  0  0  0  0  0
   11.5570    7.5930   26.5870 C   0  0  0  0  0  0  0  0  0  0  0  0
   10.7340    6.4960   26.6980 C   0  0  0  0  0  0  0  0  0  0  0  0
   10.0970    6.3200   25.4080 N   0  0  0  0  0  0  0  0  0  0  0  0
    9.2090    1.9960   24.6710 C   0  0  0  0  0  0  0  0  0  0  0  0
    9.1550    0.6320   24.5860 N   0  0  0  0  0  0  0  0  0  0  0  0
   10.3150    0.1410   24.0220 C   0  0  0  0  0  0  0  0  0  0  0  0
    7.8450   -3.4400   23.7020 C   0  0  0  0  0  0  0  0  0  0  0  0
    6.6050   -3.5550   22.9050 C   0  0  0  0  0  0  0  0  0  0  0  0
  1  2  1  0
  3  2  1  0
  3  4  2  0
  3  5  2  0
  3  6  1  0
  6  7  1  0
  7  8  1  0
  8  9  1  0
  9 10  1  0
 10 11  1  0
 11 12  2  0
 12 13  1  0
 13 14  2  0
 14 15  1  0
 15 16  1  0
 16 17  1  0
 17 18  1  0
 18 19  1  0
 19 20  1  0
 20 21  2  0
 22 20  1  6
 22 23  1  0
 23 24  1  0
 24 25  1  0
 22 26  1  0
 25 26  1  0
 16 27  2  0
 27 28  1  0
 11 29  1  0
 15 29  2  0
 28 29  1  0
  9 30  1  0
  6 31  1  0
 30 31  1  0
M  END
