JAN-GHE-6413aaf8-8-acrylamide
     RDKit          3D

 31 33  0  0  0  0  0  0  0  0999 V2000
    7.3340   -2.9100   18.5070 C   0  0  0  0  0  0  0  0  0  0  0  0
    6.6960   -1.8200   19.3390 C   0  0  0  0  0  0  0  0  0  0  0  0
    5.8390   -2.3870   20.4450 C   0  0  0  0  0  0  0  0  0  0  0  0
    4.9590   -3.2340   20.2460 O   0  0  0  0  0  0  0  0  0  0  0  0
    6.1170   -1.9110   21.6850 N   0  0  0  0  0  0  0  0  0  0  0  0
    6.8840   -0.6610   21.8220 C   0  0  0  0  0  0  0  0  0  0  0  0
    8.3210   -1.1550   22.0020 C   0  0  0  0  0  0  0  0  0  0  0  0
    8.2630   -1.8010   23.3460 N   0  0  0  0  0  0  0  0  0  0  0  0
    9.4870   -1.7810   24.1590 C   0  0  0  0  0  0  0  0  0  0  0  0
   10.4560   -0.6620   23.7860 C   0  0  0  0  0  0  0  0  0  0  0  0
   11.7650   -1.3050   23.2970 C   0  0  0  0  0  0  0  0  0  0  0  0
   12.9010   -0.3850   22.8750 C   0  0  0  0  0  0  0  0  0  0  0  0
   12.6740    1.1100   22.9630 C   0  0  0  0  0  0  0  0  0  0  0  0
   11.4330    1.5980   23.4220 C   0  0  0  0  0  0  0  0  0  0  0  0
   11.0900    2.9580   23.5490 C   0  0  0  0  0  0  0  0  0  0  0  0
   11.9000    4.0900   23.2490 C   0  0  0  0  0  0  0  0  0  0  0  0
   13.2180    3.8330   22.8620 C   0  0  0  0  0  0  0  0  0  0  0  0
   14.2590    4.7320   23.1920 N   0  0  0  0  0  0  0  0  0  0  0  0
   15.5520    4.4410   22.7660 C   0  0  0  0  0  0  0  0  0  0  0  0
   15.7730    3.7280   21.8300 O   0  0  0  0  0  0  0  0  0  0  0  0
   16.7420    4.8560   23.4310 C   0  0  0  0  0  0  0  0  0  0  0  0
   17.9440    4.4960   22.7910 C   0  0  0  0  0  0  0  0  0  0  0  0
   19.0700    5.2470   23.1790 C   0  0  0  0  0  0  0  0  0  0  0  0
   19.4150    6.3370   22.2650 N   0  0  0  0  0  0  0  0  0  0  0  0
   20.4640    7.2160   22.7540 C   0  0  0  0  0  0  0  0  0  0  0  0
   19.6360    5.9320   20.9790 C   0  0  0  0  0  0  0  0  0  0  0  0
    9.7880    2.9500   24.0280 C   0  0  0  0  0  0  0  0  0  0  0  0
    9.3720    1.6400   24.1850 N   0  0  0  0  0  0  0  0  0  0  0  0
   10.3690    0.7590   23.8160 C   0  0  0  0  0  0  0  0  0  0  0  0
    7.5080   -3.0550   23.3660 C   0  0  0  0  0  0  0  0  0  0  0  0
    6.1350   -2.8610   22.8060 C   0  0  0  0  0  0  0  0  0  0  0  0
  1  2  1  0
  2  3  1  0
  3  4  2  0
  3  5  1  0
  5  6  1  0
  6  7  1  0
  7  8  1  0
  8  9  1  0
  9 10  1  0
 10 11  2  0
 11 12  1  0
 12 13  2  0
 13 14  1  0
 14 15  1  0
 15 16  1  0
 16 17  1  0
 17 18  1  0
 18 19  1  0
 19 20  2  0
 19 21  1  0
 21 22  1  0
 22 23  1  0
 23 24  1  0
 24 25  1  0
 24 26  1  0
 15 27  2  0
 27 28  1  0
 10 29  1  0
 14 29  2  0
 28 29  1  0
  8 30  1  0
  5 31  1  0
 30 31  1  0
M  END
