JAN-GHE-6413aaf8-8-nitrile
     RDKit          3D

 29 31  0  0  0  0  0  0  0  0999 V2000
    6.7430   -3.4140   19.6410 C   0  0  0  0  0  0  0  0  0  0  0  0
    5.8580   -3.1380   18.7820 N   0  0  0  0  0  0  0  0  0  0  0  0
    6.8140   -2.7010   20.8100 N   0  0  0  0  0  0  0  0  0  0  0  0
    6.2750   -3.1350   22.1040 C   0  0  0  0  0  0  0  0  0  0  0  0
    7.5800   -3.3910   22.9370 C   0  0  0  0  0  0  0  0  0  0  0  0
    8.3050   -2.0920   23.1150 N   0  0  0  0  0  0  0  0  0  0  0  0
    9.4260   -2.2430   24.0660 C   0  0  0  0  0  0  0  0  0  0  0  0
   10.4960   -1.2080   23.7380 C   0  0  0  0  0  0  0  0  0  0  0  0
   11.8500   -1.8200   23.2600 C   0  0  0  0  0  0  0  0  0  0  0  0
   12.9050   -0.7210   22.9300 C   0  0  0  0  0  0  0  0  0  0  0  0
   12.4900    0.7800   23.1100 C   0  0  0  0  0  0  0  0  0  0  0  0
   11.1080    1.1560   23.5890 C   0  0  0  0  0  0  0  0  0  0  0  0
   10.5740    2.5190   23.7880 C   0  0  0  0  0  0  0  0  0  0  0  0
   11.1980    3.7630   23.5740 C   0  0  0  0  0  0  0  0  0  0  0  0
   10.3650    4.7670   23.0730 C   0  0  0  0  0  0  0  0  0  0  0  0
   10.0480    5.8090   23.9200 N   0  0  0  0  0  0  0  0  0  0  0  0
    8.7730    6.0740   23.7440 C   0  0  0  0  0  0  0  0  0  0  0  0
    8.3300    6.7730   22.8350 O   0  0  0  0  0  0  0  0  0  0  0  0
    7.9460    5.4950   24.7090 C   0  0  0  0  0  0  0  0  0  0  0  0
    7.2600    6.3420   25.5840 C   0  0  0  0  0  0  0  0  0  0  0  0
    5.9940    5.8820   25.9550 C   0  0  0  0  0  0  0  0  0  0  0  0
    5.9690    5.5200   27.3830 N   0  0  0  0  0  0  0  0  0  0  0  0
    7.0110    4.5200   27.6450 C   0  0  0  0  0  0  0  0  0  0  0  0
    6.2320    6.7080   28.2160 C   0  0  0  0  0  0  0  0  0  0  0  0
    9.2610    2.3910   24.2420 C   0  0  0  0  0  0  0  0  0  0  0  0
    9.0260    1.0070   24.3030 N   0  0  0  0  0  0  0  0  0  0  0  0
   10.1510    0.2530   23.8970 C   0  0  0  0  0  0  0  0  0  0  0  0
    8.7080   -1.6070   21.8820 C   0  0  0  0  0  0  0  0  0  0  0  0
    7.5950   -1.4460   20.9040 C   0  0  0  0  0  0  0  0  0  0  0  0
  1  2  2  3
  1  3  1  0
  3  4  1  0
  4  5  1  0
  5  6  1  0
  6  7  1  0
  7  8  1  0
  8  9  2  0
  9 10  1  0
 10 11  2  0
 11 12  1  0
 12 13  1  0
 13 14  1  0
 14 15  1  0
 15 16  1  0
 16 17  1  0
 17 18  2  0
 17 19  1  0
 19 20  1  0
 20 21  1  0
 21 22  1  0
 22 23  1  0
 22 24  1  0
 13 25  2  0
 25 26  1  0
  8 27  1  0
 12 27  2  0
 26 27  1  0
  6 28  1  0
  3 29  1  0
 28 29  1  0
M  END
