JAN-UNI-2e92c4b1-3-acrylamide
     RDKit          3D

 21 22  0  0  0  0  0  0  0  0999 V2000
    6.5760   -3.8560   19.9500 C   0  0  0  0  0  0  0  0  0  0  0  0
    6.3070   -4.9140   21.0150 C   0  0  0  0  0  0  0  0  0  0  0  0
    5.7340   -4.2860   22.2600 C   0  0  0  0  0  0  0  0  0  0  0  0
    4.5760   -3.8650   22.2570 O   0  0  0  0  0  0  0  0  0  0  0  0
    6.5860   -4.2240   23.4800 C   0  0  0  0  0  0  0  0  0  0  0  0
    7.5550   -3.3220   22.7480 C   0  0  0  0  0  0  0  0  0  0  0  0
    8.7840   -2.7070   23.1540 N   0  0  0  0  0  0  0  0  0  0  0  0
    8.6980   -2.3010   21.9750 C   0  0  0  0  0  0  0  0  0  0  0  0
    9.9350   -1.4970   21.8800 N   0  0  0  0  0  0  0  0  0  0  0  0
   11.1100   -2.0580   22.5610 C   0  0  0  0  0  0  0  0  0  0  0  0
   12.3220   -1.9370   21.8470 C   0  0  0  0  0  0  0  0  0  0  0  0
    7.8650   -3.1460   22.8020 C   0  0  0  0  0  0  0  0  0  0  0  0
    8.8660   -2.8930   23.7880 C   0  0  0  0  0  0  0  0  0  0  0  0
    8.6600   -3.1720   25.1710 N   0  0  0  0  0  0  0  0  0  0  0  0
    9.1400   -4.5400   25.5340 C   0  0  0  0  0  0  0  0  0  0  0  0
    9.0170   -4.7870   26.9050 C   0  0  0  0  0  0  0  0  0  0  0  0
    7.6780   -4.7730   27.3020 C   0  0  0  0  0  0  0  0  0  0  0  0
    7.5810   -4.7720   28.7120 O   0  0  0  0  0  0  0  0  0  0  0  0
    6.8230   -3.5650   26.8490 C   0  0  0  0  0  0  0  0  0  0  0  0
    7.3810   -2.6530   25.7450 C   0  0  0  0  0  0  0  0  0  0  0  0
    7.6150   -3.8630   24.2260 C   0  0  0  0  0  0  0  0  0  0  0  0
  1  2  1  0
  2  3  1  0
  3  4  2  0
  3  5  1  0
  5  6  2  0
  6  7  1  0
  7  8  2  0
  8  9  1  0
  9 10  1  0
 10 11  1  0
  8 12  1  0
 12 13  1  0
 13 14  1  0
 14 15  1  0
 15 16  1  0
 16 17  1  0
 17 18  1  0
 17 19  1  0
 14 20  1  0
 19 20  1  0
  5 21  1  0
 12 21  2  0
M  END
