JAN-GHE-6413aaf8-3-chloroacetamide
     RDKit          3D

 28 31  0  0  0  0  0  0  0  0999 V2000
    7.4400   -3.1290   19.1320 C   0  0  0  0  0  0  0  0  0  0  0  0
    6.4270   -3.5740   20.1590 C   0  0  0  0  0  0  0  0  0  0  0  0
    5.4890   -4.3400   19.8900 O   0  0  0  0  0  0  0  0  0  0  0  0
    6.6210   -3.0360   21.4720 N   0  0  0  0  0  0  0  0  0  0  0  0
    7.6350   -3.6350   22.3480 C   0  0  0  0  0  0  0  0  0  0  0  0
    8.8810   -3.0610   22.2290 C   0  0  0  0  0  0  0  0  0  0  0  0
    8.9090   -2.8590   23.5460 N   0  0  0  0  0  0  0  0  0  0  0  0
    9.1650   -1.4450   23.9390 C   0  0  0  0  0  0  0  0  0  0  0  0
   10.4570   -0.8790   23.4910 C   0  0  0  0  0  0  0  0  0  0  0  0
   11.6390   -1.6320   22.9680 C   0  0  0  0  0  0  0  0  0  0  0  0
   12.8220   -1.0160   22.5510 C   0  0  0  0  0  0  0  0  0  0  0  0
   12.9930    0.3670   22.5880 C   0  0  0  0  0  0  0  0  0  0  0  0
   11.8210    1.1350   23.0980 C   0  0  0  0  0  0  0  0  0  0  0  0
   11.6500    2.6430   23.2400 C   0  0  0  0  0  0  0  0  0  0  0  0
   12.7280    3.6510   22.8100 C   0  0  0  0  0  0  0  0  0  0  0  0
   12.2670    5.0310   23.2950 C   0  0  0  0  0  0  0  0  0  0  0  0
   11.2530    5.7190   22.6900 N   0  0  0  0  0  0  0  0  0  0  0  0
   10.1530    5.9720   23.4530 C   0  0  0  0  0  0  0  0  0  0  0  0
   10.1630    6.1710   24.6680 O   0  0  0  0  0  0  0  0  0  0  0  0
    8.7700    6.0520   22.8260 C   0  0  0  0  0  0  0  0  0  0  0  0
    8.4560    7.0710   21.9580 C   0  0  0  0  0  0  0  0  0  0  0  0
    7.1590    6.8780   21.5500 C   0  0  0  0  0  0  0  0  0  0  0  0
    6.7320    5.7290   22.2040 C   0  0  0  0  0  0  0  0  0  0  0  0
    7.6990    5.1840   23.0080 N   0  0  0  0  0  0  0  0  0  0  0  0
   10.3980    2.8000   23.7830 C   0  0  0  0  0  0  0  0  0  0  0  0
    9.8620    1.5500   23.9260 N   0  0  0  0  0  0  0  0  0  0  0  0
   10.6720    0.5190   23.5170 C   0  0  0  0  0  0  0  0  0  0  0  0
    7.4760   -3.2910   23.7190 C   0  0  0  0  0  0  0  0  0  0  0  0
  1  2  1  0
  2  3  2  0
  2  4  1  0
  4  5  1  0
  5  6  1  0
  6  7  1  0
  7  8  1  0
  8  9  1  0
  9 10  2  0
 10 11  1  0
 11 12  2  0
 12 13  1  0
 13 14  1  0
 14 15  1  0
 15 16  1  0
 16 17  1  0
 17 18  1  0
 18 19  2  0
 18 20  1  0
 20 21  2  0
 21 22  1  0
 22 23  2  0
 20 24  1  0
 23 24  1  0
 14 25  2  0
 25 26  1  0
  9 27  1  0
 13 27  2  0
 26 27  1  0
  5 28  1  0
  7 28  1  0
M  END
