JAN-UNI-2e92c4b1-1-vinylsulfonamide
     RDKit          3D

 25 27  0  0  0  0  0  0  0  0999 V2000
    7.4350   -3.0960   19.0690 C   0  0  0  0  0  0  0  0  0  0  0  0
    6.1680   -3.6570   19.7530 C   0  0  0  0  0  0  0  0  0  0  0  0
    6.1330   -3.3650   21.4870 S   0  0  0  0  0  0  0  0  0  0  0  0
    4.7280   -3.4200   21.8740 O   0  0  0  0  0  0  0  0  0  0  0  0
    7.0750   -4.2920   22.0820 O   0  0  0  0  0  0  0  0  0  0  0  0
    6.7860   -1.7160   21.6380 C   0  0  0  0  0  0  0  0  0  0  0  0
    7.7540   -0.8290   22.1840 C   0  0  0  0  0  0  0  0  0  0  0  0
    7.1170    0.0520   21.5150 N   0  0  0  0  0  0  0  0  0  0  0  0
    7.9540    0.8600   21.9800 C   0  0  0  0  0  0  0  0  0  0  0  0
    8.4070   -0.5970   22.6310 C   0  0  0  0  0  0  0  0  0  0  0  0
    9.5900   -0.4730   23.5160 N   0  0  0  0  0  0  0  0  0  0  0  0
   10.8370   -1.1640   23.1140 C   0  0  0  0  0  0  0  0  0  0  0  0
   11.4970   -2.0250   23.9670 C   0  0  0  0  0  0  0  0  0  0  0  0
   11.3950   -2.5390   25.1850 N   0  0  0  0  0  0  0  0  0  0  0  0
   12.1650   -3.7000   25.6740 C   0  0  0  0  0  0  0  0  0  0  0  0
   13.1710   -2.8300   25.3050 C   0  0  0  0  0  0  0  0  0  0  0  0
   12.1470   -1.8540   24.9470 C   0  0  0  0  0  0  0  0  0  0  0  0
   10.6870   -1.9660   25.0320 C   0  0  0  0  0  0  0  0  0  0  0  0
   10.0070   -3.0850   25.4800 N   0  0  0  0  0  0  0  0  0  0  0  0
   10.8610   -4.0680   25.8460 C   0  0  0  0  0  0  0  0  0  0  0  0
   12.5170   -2.1830   22.9500 C   0  0  0  0  0  0  0  0  0  0  0  0
   13.5820   -2.7440   22.8000 O   0  0  0  0  0  0  0  0  0  0  0  0
   11.7620   -1.2770   21.9390 C   0  0  0  0  0  0  0  0  0  0  0  0
   12.8200   -1.6370   21.1540 O   0  0  0  0  0  0  0  0  0  0  0  0
    7.7900   -2.1610   22.4910 C   0  0  0  0  0  0  0  0  0  0  0  0
  1  2  1  0
  3  2  1  0
  3  4  2  0
  3  5  2  0
  3  6  1  0
  6  7  2  0
  7  8  1  0
  8  9  2  0
  9 10  1  0
 10 11  1  0
 11 12  1  0
 12 13  2  0
 13 14  1  0
 14 15  1  0
 15 16  2  0
 16 17  1  0
 17 18  2  0
 18 19  1  0
 15 20  1  0
 19 20  2  0
 13 21  1  0
 21 22  2  0
 12 23  1  0
 21 23  1  0
 23 24  2  0
  6 25  1  0
 10 25  2  0
M  END
