JAN-GHE-6413aaf8-4-vinylsulfonamide
     RDKit          3D

 33 37  0  0  0  0  0  0  0  0999 V2000
    9.0120   -4.0360   20.4110 C   0  0  0  0  0  0  0  0  0  0  0  0
    7.7500   -3.2590   19.8940 C   0  0  0  0  0  0  0  0  0  0  0  0
    6.1350   -3.5310   20.6930 S   0  0  0  0  0  0  0  0  0  0  0  0
    5.1840   -4.3080   19.8950 O   0  0  0  0  0  0  0  0  0  0  0  0
    5.6910   -2.2130   21.1120 O   0  0  0  0  0  0  0  0  0  0  0  0
    6.3070   -4.4030   22.1440 N   0  0  0  0  0  0  0  0  0  0  0  0
    6.5650   -3.5470   23.2550 C   0  0  0  0  0  0  0  0  0  0  0  0
    7.9240   -3.6130   23.2900 C   0  0  1  0  0  0  0  0  0  0  0  0
    8.6950   -2.8690   24.1320 C   0  0  0  0  0  0  0  0  0  0  0  0
    9.8720   -3.5860   23.9750 N   0  0  0  0  0  0  0  0  0  0  0  0
   11.0080   -3.0190   23.3680 C   0  0  0  0  0  0  0  0  0  0  0  0
   11.0490   -1.5530   23.3680 C   0  0  0  0  0  0  0  0  0  0  0  0
   12.2300   -1.5780   23.9600 C   0  0  0  0  0  0  0  0  0  0  0  0
   12.2060   -0.3290   23.8210 C   0  0  0  0  0  0  0  0  0  0  0  0
   12.0950    0.8410   22.8830 C   0  0  0  0  0  0  0  0  0  0  0  0
   10.9950    1.3240   23.5990 C   0  0  0  0  0  0  0  0  0  0  0  0
   11.7160    2.5120   23.2490 C   0  0  0  0  0  0  0  0  0  0  0  0
   11.2340    3.9460   23.3760 C   0  0  0  0  0  0  0  0  0  0  0  0
   11.9000    4.9360   22.6710 C   0  0  0  0  0  0  0  0  0  0  0  0
   11.0160    5.9520   22.3960 N   0  0  0  0  0  0  0  0  0  0  0  0
   10.1340    6.4720   23.3620 C   0  0  0  0  0  0  0  0  0  0  0  0
   10.4210    6.4900   24.5560 O   0  0  0  0  0  0  0  0  0  0  0  0
    8.8890    6.9630   22.9170 C   0  0  0  0  0  0  0  0  0  0  0  0
    8.0390    6.2500   22.0680 C   0  0  0  0  0  0  0  0  0  0  0  0
    6.9290    7.0320   21.8450 C   0  0  0  0  0  0  0  0  0  0  0  0
    7.1720    8.1730   22.5810 C   0  0  0  0  0  0  0  0  0  0  0  0
    8.3540    8.1750   23.2510 N   0  0  0  0  0  0  0  0  0  0  0  0
   12.8790    1.8630   22.9330 C   0  0  0  0  0  0  0  0  0  0  0  0
   12.7450    0.4390   23.0540 N   0  0  0  0  0  0  0  0  0  0  0  0
   11.4830   -0.0670   23.3690 C   0  0  0  0  0  0  0  0  0  0  0  0
    9.4860   -4.9240   23.4460 C   0  0  0  0  0  0  0  0  0  0  0  0
    8.0990   -4.9810   23.4730 C   0  0  2  0  0  0  0  0  0  0  0  0
    7.3230   -5.4580   22.2240 C   0  0  0  0  0  0  0  0  0  0  0  0
  1  2  1  0
  3  2  1  0
  3  4  2  0
  3  5  2  0
  3  6  1  0
  6  7  1  0
  8  7  1  1
  8  9  1  0
  9 10  1  0
 10 11  1  0
 11 12  1  0
 12 13  2  0
 13 14  1  0
 14 15  2  0
 15 16  1  0
 16 17  1  0
 17 18  1  0
 18 19  1  0
 19 20  1  0
 20 21  1  0
 21 22  2  0
 21 23  1  0
 23 24  2  0
 24 25  1  0
 25 26  2  0
 23 27  1  0
 26 27  1  0
 17 28  2  0
 28 29  1  0
 12 30  1  0
 16 30  2  0
 29 30  1  0
 10 31  1  0
  8 32  1  0
 32 31  1  6
  6 33  1  0
 32 33  1  0
M  END
