JAN-GHE-bf40f168-9-vinylsulfonamide
     RDKit          3D

 23 25  0  0  0  0  0  0  0  0999 V2000
    6.2300   -5.1920   20.5260 C   0  0  0  0  0  0  0  0  0  0  0  0
    5.5780   -4.1390   21.4530 C   0  0  0  0  0  0  0  0  0  0  0  0
    4.5050   -4.7510   22.7760 S   0  0  0  0  0  0  0  0  0  0  0  0
    3.5220   -5.6790   22.3070 O   0  0  0  0  0  0  0  0  0  0  0  0
    4.1080   -3.6390   23.6040 O   0  0  0  0  0  0  0  0  0  0  0  0
    5.4820   -5.7730   23.6380 N   0  0  0  0  0  0  0  0  0  0  0  0
    5.8950   -5.3070   24.9600 C   0  0  0  0  0  0  0  0  0  0  0  0
    7.3680   -4.8730   25.0130 C   0  0  0  0  0  0  0  0  0  0  0  0
    7.3320   -4.3300   23.6300 N   0  0  0  0  0  0  0  0  0  0  0  0
    8.3560   -3.3070   23.3560 C   0  0  0  0  0  0  0  0  0  0  0  0
    7.8190   -1.8710   23.4180 C   0  0  0  0  0  0  0  0  0  0  0  0
    8.4550   -0.8150   24.2090 C   0  0  0  0  0  0  0  0  0  0  0  0
    7.8890    0.3550   24.1750 N   0  0  0  0  0  0  0  0  0  0  0  0
    6.5790    0.1980   23.6560 C   0  0  1  0  0  0  0  0  0  0  0  0
    5.9920    1.2640   22.9300 C   0  0  0  0  0  0  0  0  0  0  0  0
    5.9290    1.3160   21.5220 C   0  0  0  0  0  0  0  0  0  0  0  0
    6.4430    0.3090   20.7080 C   0  0  0  0  0  0  0  0  0  0  0  0
    6.5960    0.5020   19.3440 C   0  0  0  0  0  0  0  0  0  0  0  0
    6.7100    0.6690   18.2070 N   0  0  0  0  0  0  0  0  0  0  0  0
    6.7930   -0.8970   21.3070 C   0  0  0  0  0  0  0  0  0  0  0  0
    6.6380   -1.1660   22.7900 C   0  0  1  0  0  0  0  0  0  0  0  0
    7.7410   -5.6540   23.1250 C   0  0  0  0  0  0  0  0  0  0  0  0
    6.4920   -6.3970   22.8320 C   0  0  0  0  0  0  0  0  0  0  0  0
  1  2  1  0
  3  2  1  0
  3  4  2  0
  3  5  2  0
  3  6  1  0
  6  7  1  0
  7  8  1  0
  8  9  1  0
  9 10  1  0
 10 11  1  0
 11 12  2  0
 12 13  1  0
 13 14  1  0
 14 15  1  6
 15 16  2  0
 16 17  1  0
 17 18  1  0
 18 19  3  0
 17 20  2  0
 11 21  1  0
 14 21  1  0
 21 20  1  6
  9 22  1  0
  6 23  1  0
 22 23  1  0
M  END
