JAN-UNI-2e92c4b1-5-nitrile
     RDKit          3D

 19 20  0  0  0  0  0  0  0  0999 V2000
    7.9670   -3.5500   19.9600 C   0  0  0  0  0  0  0  0  0  0  0  0
    6.6300   -3.7190   19.7320 N   0  0  0  0  0  0  0  0  0  0  0  0
    8.6190   -2.3870   21.0120 C   0  0  0  0  0  0  0  0  0  0  0  0
    9.9990   -2.5240   21.4190 C   0  0  0  0  0  0  0  0  0  0  0  0
    9.0110   -1.5210   21.7640 N   0  0  0  0  0  0  0  0  0  0  0  0
    8.7560   -0.3460   22.4510 C   0  0  0  0  0  0  0  0  0  0  0  0
    9.0420    0.7550   23.2270 N   0  0  0  0  0  0  0  0  0  0  0  0
    9.2180    1.5450   22.0240 C   0  0  0  0  0  0  0  0  0  0  0  0
    7.9900    2.3290   21.5970 C   0  0  0  0  0  0  0  0  0  0  0  0
    9.9340   -0.7100   22.6100 C   0  0  0  0  0  0  0  0  0  0  0  0
   11.0590   -0.2050   23.3160 C   0  0  0  0  0  0  0  0  0  0  0  0
   10.7170    0.3330   24.6550 N   0  0  0  0  0  0  0  0  0  0  0  0
    9.7640   -0.3770   25.4370 C   0  0  0  0  0  0  0  0  0  0  0  0
    8.9360   -1.4000   25.1210 C   0  0  0  0  0  0  0  0  0  0  0  0
    8.2140   -1.7390   26.2140 C   0  0  0  0  0  0  0  0  0  0  0  0
    7.2610   -2.8000   26.1560 O   0  0  0  0  0  0  0  0  0  0  0  0
    8.5090   -0.9630   27.3360 N   0  0  0  0  0  0  0  0  0  0  0  0
    9.5270   -0.0700   26.8290 O   0  0  0  0  0  0  0  0  0  0  0  0
    9.8190   -1.8250   21.8280 C   0  0  0  0  0  0  0  0  0  0  0  0
  1  2  2  3
  1  3  1  0
  3  4  2  0
  4  5  1  0
  5  6  2  0
  6  7  1  0
  7  8  1  0
  8  9  1  0
  6 10  1  0
 10 11  1  0
 11 12  1  0
 12 13  1  0
 13 14  2  0
 14 15  1  0
 15 16  1  0
 15 17  2  0
 13 18  1  0
 17 18  1  0
  3 19  1  0
 10 19  2  0
M  END
