JAN-LUN-04aedcc0-5-vinylsulfonamide
     RDKit          3D

 39 43  0  0  0  0  0  0  0  0999 V2000
    8.0680   -4.6450   20.9900 C   0  0  0  0  0  0  0  0  0  0  0  0
    6.6230   -4.7680   21.4100 C   0  0  0  0  0  0  0  0  0  0  0  0
    6.0020   -3.1640   21.8100 S   0  0  0  0  0  0  0  0  0  0  0  0
    4.5780   -3.3660   22.0000 O   0  0  0  0  0  0  0  0  0  0  0  0
    6.4330   -2.1880   20.8330 O   0  0  0  0  0  0  0  0  0  0  0  0
    6.7640   -2.7680   23.2890 N   0  0  0  0  0  0  0  0  0  0  0  0
    6.8040   -3.8190   24.3220 C   0  0  0  0  0  0  0  0  0  0  0  0
    8.0920   -3.9790   24.8150 C   0  0  0  0  0  0  0  0  0  0  0  0
    8.6020   -5.1780   25.2720 C   0  0  0  0  0  0  0  0  0  0  0  0
    9.9280   -5.3920   25.7880 C   0  0  0  0  0  0  0  0  0  0  0  0
   10.8030   -4.2970   25.8370 C   0  0  0  0  0  0  0  0  0  0  0  0
   12.0810   -4.3710   26.2960 O   0  0  0  0  0  0  0  0  0  0  0  0
   10.3550   -3.0590   25.3950 C   0  0  0  0  0  0  0  0  0  0  0  0
    8.9760   -2.9100   24.8830 C   0  0  0  0  0  0  0  0  0  0  0  0
    8.7070   -1.5380   24.4890 C   0  0  1  0  0  0  0  0  0  0  0  0
    9.1170   -0.4040   24.3140 C   0  0  0  0  0  0  0  0  0  0  0  0
    9.4510    1.1190   24.1590 C   0  0  0  0  0  0  0  0  0  0  0  0
   10.5620    1.7730   23.7330 C   0  0  0  0  0  0  0  0  0  0  0  0
   11.0540    0.7150   23.5750 C   0  0  0  0  0  0  0  0  0  0  0  0
   12.1570    0.3570   23.1750 O   0  0  0  0  0  0  0  0  0  0  0  0
    9.8650    0.0570   24.0290 C   0  0  0  0  0  0  0  0  0  0  0  0
    8.3520    0.6760   24.5800 C   0  0  0  0  0  0  0  0  0  0  0  0
    7.1230    0.0130   25.0500 N   0  0  0  0  0  0  0  0  0  0  0  0
    6.1910    0.9230   25.7420 C   0  0  0  0  0  0  0  0  0  0  0  0
    6.3710    2.3510   25.6860 O   0  0  0  0  0  0  0  0  0  0  0  0
    5.2000    0.2070   26.3970 N   0  0  0  0  0  0  0  0  0  0  0  0
    3.9910    0.8740   26.5530 C   0  0  0  0  0  0  0  0  0  0  0  0
    4.1700    0.6150   27.9230 C   0  0  0  0  0  0  0  0  0  0  0  0
    2.9470    1.2520   28.4150 C   0  0  0  0  0  0  0  0  0  0  0  0
    3.5410    1.0820   26.8510 C   0  0  0  0  0  0  0  0  0  0  0  0
    2.9010    1.5640   25.7030 C   0  0  0  0  0  0  0  0  0  0  0  0
    3.1050    1.6070   24.1960 C   0  0  0  0  0  0  0  0  0  0  0  0
    3.0410    0.3890   23.4290 O   0  0  0  0  0  0  0  0  0  0  0  0
    3.3380    2.9000   23.6120 O   0  0  0  0  0  0  0  0  0  0  0  0
    2.0200    1.9890   26.4310 C   0  0  0  0  0  0  0  0  0  0  0  0
    1.0080    2.5530   26.5450 N   0  0  0  0  0  0  0  0  0  0  0  0
    1.7100    2.0200   27.7860 C   0  0  0  0  0  0  0  0  0  0  0  0
    2.9690    1.3330   27.5810 N   0  0  0  0  0  0  0  0  0  0  0  0
    7.9760   -1.8880   23.1510 C   0  0  0  0  0  0  0  0  0  0  0  0
  1  2  1  0
  3  2  1  0
  3  4  2  0
  3  5  2  0
  3  6  1  0
  6  7  1  0
  7  8  1  0
  8  9  1  0
  9 10  2  0
 10 11  1  0
 11 12  1  0
 11 13  2  0
  8 14  2  0
 13 14  1  0
 14 15  1  0
 15 16  1  6
 16 17  2  0
 17 18  1  0
 18 19  2  0
 19 20  1  0
 19 21  1  0
 16 22  1  0
 21 22  2  0
 22 23  1  0
 23 24  1  0
 24 25  2  0
 24 26  1  0
 26 27  1  0
 27 28  2  0
 28 29  1  0
 29 30  2  0
 30 31  1  0
 31 32  1  0
 32 33  2  0
 32 34  1  0
 31 35  2  0
 35 36  1  0
 29 37  1  0
 36 37  2  0
 27 38  1  0
 37 38  1  0
  6 39  1  0
 15 39  1  0
M  END
