JAN-GHE-bf40f168-7-acrylamide
     RDKit          3D

 32 34  0  0  0  0  0  0  0  0999 V2000
    7.3350   -3.0490   18.9840 C   0  0  0  0  0  0  0  0  0  0  0  0
    6.7730   -3.1080   20.3880 C   0  0  0  0  0  0  0  0  0  0  0  0
    6.1890   -4.4690   20.6080 C   0  0  0  0  0  0  0  0  0  0  0  0
    5.1710   -4.7890   20.0140 O   0  0  0  0  0  0  0  0  0  0  0  0
    6.9250   -5.2980   21.4220 N   0  0  0  0  0  0  0  0  0  0  0  0
    6.4280   -5.9920   22.5760 C   0  0  0  0  0  0  0  0  0  0  0  0
    5.1470   -5.5210   23.1880 C   0  0  0  0  0  0  0  0  0  0  0  0
    5.6900   -4.9530   24.3930 N   0  0  0  0  0  0  0  0  0  0  0  0
    5.0370   -5.1750   25.9390 S   0  0  0  0  0  0  0  0  0  0  0  0
    3.8990   -6.0360   25.7200 O   0  0  0  0  0  0  0  0  0  0  0  0
    6.0820   -5.5220   26.8720 O   0  0  0  0  0  0  0  0  0  0  0  0
    4.5360   -3.5260   26.2270 C   0  0  0  0  0  0  0  0  0  0  0  0
    5.2170   -2.4900   27.0750 C   0  0  0  0  0  0  0  0  0  0  0  0
    6.3480   -2.7060   27.7470 F   0  0  0  0  0  0  0  0  0  0  0  0
    4.5280   -1.0860   27.1580 C   0  0  0  0  0  0  0  0  0  0  0  0
    3.2970   -0.7910   26.4580 C   0  0  0  0  0  0  0  0  0  0  0  0
    2.7110   -1.7980   25.6960 C   0  0  0  0  0  0  0  0  0  0  0  0
    3.4440   -2.9290   25.7480 C   0  0  0  0  0  0  0  0  0  0  0  0
    4.2210   -2.0340   26.4780 O   0  0  0  0  0  0  0  0  0  0  0  0
    5.1330   -1.2020   25.6110 C   0  0  0  0  0  0  0  0  0  0  0  0
    6.4960   -1.1080   26.0800 C   0  0  0  0  0  0  0  0  0  0  0  0
    7.4300   -0.0940   25.3580 C   0  0  0  0  0  0  0  0  0  0  0  0
    8.8770   -0.2520   25.6100 N   0  0  0  0  0  0  0  0  0  0  0  0
    9.7520   -0.6890   24.6040 C   0  0  0  0  0  0  0  0  0  0  0  0
    9.3130   -1.8650   23.7140 C   0  0  0  0  0  0  0  0  0  0  0  0
   10.5310   -1.9960   22.7940 C   0  0  0  0  0  0  0  0  0  0  0  0
   11.6980   -1.2550   22.7840 C   0  0  0  0  0  0  0  0  0  0  0  0
   12.6430   -1.5360   21.8920 C   0  0  0  0  0  0  0  0  0  0  0  0
   13.4170   -1.7750   21.0720 N   0  0  0  0  0  0  0  0  0  0  0  0
   11.8510   -0.2550   23.6850 C   0  0  0  0  0  0  0  0  0  0  0  0
   10.9000    0.0250   24.5750 N   0  0  0  0  0  0  0  0  0  0  0  0
    7.0330   -5.4040   23.8840 C   0  0  0  0  0  0  0  0  0  0  0  0
  1  2  1  0
  2  3  1  0
  3  4  2  0
  3  5  1  0
  5  6  1  0
  6  7  1  0
  7  8  1  0
  8  9  1  0
  9 10  2  0
  9 11  2  0
  9 12  1  0
 12 13  2  0
 13 14  1  0
 13 15  1  0
 15 16  2  0
 16 17  1  0
 12 18  1  0
 17 18  2  0
 18 19  1  0
 19 20  1  0
 20 21  1  0
 21 22  1  0
 22 23  1  0
 23 24  1  0
 24 25  2  0
 25 26  1  0
 26 27  2  0
 27 28  1  0
 28 29  3  0
 27 30  1  0
 24 31  1  0
 30 31  2  0
  6 32  1  0
  8 32  1  0
M  END
