JAN-GHE-6413aaf8-3-chloroacetamide
     RDKit          3D

 28 31  0  0  0  0  0  0  0  0999 V2000
    7.5390   -3.7250   20.1570 C   0  0  0  0  0  0  0  0  0  0  0  0
    6.7720   -2.4760   19.7610 C   0  0  0  0  0  0  0  0  0  0  0  0
    5.9400   -3.3810   19.3810 O   0  0  0  0  0  0  0  0  0  0  0  0
    7.9410   -1.8310   20.2960 N   0  0  0  0  0  0  0  0  0  0  0  0
    8.3200   -1.6000   21.7280 C   0  0  0  0  0  0  0  0  0  0  0  0
    9.6940   -2.2820   21.8960 C   0  0  0  0  0  0  0  0  0  0  0  0
   10.4190   -0.9880   21.9650 N   0  0  0  0  0  0  0  0  0  0  0  0
   11.2380   -0.7200   23.2330 C   0  0  0  0  0  0  0  0  0  0  0  0
   10.0950   -0.5160   24.1640 C   0  0  0  0  0  0  0  0  0  0  0  0
   10.7850   -1.7560   23.6500 C   0  0  0  0  0  0  0  0  0  0  0  0
   12.0200   -1.2260   22.7990 C   0  0  0  0  0  0  0  0  0  0  0  0
   12.3490    0.2990   22.6060 C   0  0  0  0  0  0  0  0  0  0  0  0
   11.3870    1.2920   23.2770 C   0  0  0  0  0  0  0  0  0  0  0  0
   11.4050    2.7070   23.2750 C   0  0  0  0  0  0  0  0  0  0  0  0
   12.3490    3.5250   22.6270 C   0  0  0  0  0  0  0  0  0  0  0  0
   12.3540    4.8690   23.0270 C   0  0  0  0  0  0  0  0  0  0  0  0
   11.0970    5.4850   22.6080 N   0  0  0  0  0  0  0  0  0  0  0  0
   10.2200    6.2410   23.5300 C   0  0  0  0  0  0  0  0  0  0  0  0
   10.5280    6.4500   24.6980 O   0  0  0  0  0  0  0  0  0  0  0  0
    9.0110    6.7210   23.0000 C   0  0  0  0  0  0  0  0  0  0  0  0
    8.0990    6.1410   22.1130 C   0  0  0  0  0  0  0  0  0  0  0  0
    7.0310    7.0120   21.8720 C   0  0  0  0  0  0  0  0  0  0  0  0
    7.2100    8.1730   22.5950 C   0  0  0  0  0  0  0  0  0  0  0  0
    8.4710    8.0400   23.3390 N   0  0  0  0  0  0  0  0  0  0  0  0
   10.3180    3.1020   24.0310 C   0  0  0  0  0  0  0  0  0  0  0  0
    9.6640    1.9770   24.4840 N   0  0  0  0  0  0  0  0  0  0  0  0
   10.2990    0.8560   24.0300 C   0  0  0  0  0  0  0  0  0  0  0  0
    9.1080   -0.2500   21.9670 C   0  0  0  0  0  0  0  0  0  0  0  0
  1  2  1  0
  2  3  2  0
  2  4  1  0
  4  5  1  0
  5  6  1  0
  6  7  1  0
  7  8  1  0
  8  9  1  0
  9 10  2  0
 10 11  1  0
 11 12  2  0
 12 13  1  0
 13 14  1  0
 14 15  1  0
 15 16  1  0
 16 17  1  0
 17 18  1  0
 18 19  2  0
 18 20  1  0
 20 21  2  0
 21 22  1  0
 22 23  2  0
 20 24  1  0
 23 24  1  0
 14 25  2  0
 25 26  1  0
  9 27  1  0
 13 27  2  0
 26 27  1  0
  5 28  1  0
  7 28  1  0
M  END
