JAN-GHE-1d98ec1c-4
     RDKit          3D

 23 25  0  0  0  0  0  0  0  0999 V2000
    6.6030   -2.0390   18.7420 C   0  0  0  0  0  0  0  0  0  0  0  0
    6.2530   -2.8570   19.9660 C   0  0  0  0  0  0  0  0  0  0  0  0
    5.5490   -3.8790   19.8430 O   0  0  0  0  0  0  0  0  0  0  0  0
    6.7880   -2.4200   21.1780 N   0  0  0  0  0  0  0  0  0  0  0  0
    6.6290   -3.1930   22.4290 C   0  0  0  0  0  0  0  0  0  0  0  0
    7.8170   -3.3600   23.1880 C   0  0  0  0  0  0  0  0  0  0  0  0
    8.6990   -2.1760   23.2180 N   0  0  0  0  0  0  0  0  0  0  0  0
   10.0140   -2.3170   23.9160 C   0  0  0  0  0  0  0  0  0  0  0  0
   10.7620   -1.1300   23.6120 C   0  0  0  0  0  0  0  0  0  0  0  0
   12.0080   -1.1020   22.9250 C   0  0  0  0  0  0  0  0  0  0  0  0
   12.6490    0.1040   22.6090 C   0  0  0  0  0  0  0  0  0  0  0  0
   11.8720    1.2600   23.0610 C   0  0  0  0  0  0  0  0  0  0  0  0
   11.9190    2.5890   23.0140 C   0  0  0  0  0  0  0  0  0  0  0  0
   13.1970    3.3210   22.1700 S   0  0  0  0  0  0  0  0  0  0  0  0
   13.7790    4.5300   23.1760 N   0  0  0  0  0  0  0  0  0  0  0  0
   14.2000    2.3090   21.9860 O   0  0  0  0  0  0  0  0  0  0  0  0
   12.5800    4.0120   21.0690 O   0  0  0  0  0  0  0  0  0  0  0  0
   11.2510    3.3620   23.4230 C   0  0  0  0  0  0  0  0  0  0  0  0
   10.1820    2.6430   24.0820 N   0  0  0  0  0  0  0  0  0  0  0  0
   10.7070    1.2880   23.7460 C   0  0  0  0  0  0  0  0  0  0  0  0
   10.1500    0.0640   24.0300 C   0  0  0  0  0  0  0  0  0  0  0  0
    8.8600   -1.5310   21.8890 C   0  0  0  0  0  0  0  0  0  0  0  0
    7.6780   -1.2560   21.2260 C   0  0  0  0  0  0  0  0  0  0  0  0
  1  2  1  0
  2  3  2  0
  2  4  1  0
  4  5  1  0
  5  6  1  0
  6  7  1  0
  7  8  1  0
  8  9  1  0
  9 10  2  0
 10 11  1  0
 11 12  2  0
 12 13  1  0
 13 14  1  0
 14 15  1  0
 14 16  2  0
 14 17  2  0
 13 18  2  0
 18 19  1  0
 12 20  1  0
 19 20  1  0
  9 21  1  0
 20 21  2  0
  7 22  1  0
  4 23  1  0
 22 23  1  0
M  END
