JAN-UNI-2e92c4b1-1-acrylamide
     RDKit          3D

 24 26  0  0  0  0  0  0  0  0999 V2000
    7.2980   -3.6360   19.9530 C   0  0  0  0  0  0  0  0  0  0  0  0
    6.6880   -2.3600   19.4620 C   0  0  0  0  0  0  0  0  0  0  0  0
    5.4570   -2.0360   20.2780 C   0  0  0  0  0  0  0  0  0  0  0  0
    4.8110   -2.9530   20.8800 O   0  0  0  0  0  0  0  0  0  0  0  0
    5.0730   -0.5850   20.3090 C   0  0  0  0  0  0  0  0  0  0  0  0
    4.8220   -0.2810   18.9970 C   0  0  0  0  0  0  0  0  0  0  0  0
    5.1200   -1.5430   18.6970 N   0  0  0  0  0  0  0  0  0  0  0  0
    5.4700   -2.2050   20.0000 C   0  0  0  0  0  0  0  0  0  0  0  0
    5.5390   -1.6780   21.5760 C   0  0  0  0  0  0  0  0  0  0  0  0
    5.8840   -2.3060   22.7900 N   0  0  0  0  0  0  0  0  0  0  0  0
    6.8790   -1.9290   23.5560 C   0  0  0  0  0  0  0  0  0  0  0  0
    8.3320   -2.1020   23.3850 C   0  0  0  0  0  0  0  0  0  0  0  0
    9.7990   -2.0680   23.5700 N   0  0  0  0  0  0  0  0  0  0  0  0
   10.7900   -2.2000   22.5710 C   0  0  0  0  0  0  0  0  0  0  0  0
   11.9040   -2.2340   21.6230 C   0  0  0  0  0  0  0  0  0  0  0  0
   13.0980   -1.5600   21.6830 C   0  0  0  0  0  0  0  0  0  0  0  0
   13.1440   -0.8350   22.7490 C   0  0  0  0  0  0  0  0  0  0  0  0
   12.4800   -0.5230   23.7620 N   0  0  0  0  0  0  0  0  0  0  0  0
   11.3170   -1.2510   23.5920 C   0  0  0  0  0  0  0  0  0  0  0  0
    8.2920   -1.2780   24.6970 C   0  0  0  0  0  0  0  0  0  0  0  0
    9.0890   -0.6750   25.6240 O   0  0  0  0  0  0  0  0  0  0  0  0
    6.8440   -1.2320   24.7890 C   0  0  0  0  0  0  0  0  0  0  0  0
    6.2110   -0.6440   25.8390 O   0  0  0  0  0  0  0  0  0  0  0  0
    5.1400   -0.2460   21.5130 C   0  0  0  0  0  0  0  0  0  0  0  0
  1  2  1  0
  2  3  1  0
  3  4  2  0
  3  5  1  0
  5  6  2  0
  6  7  1  0
  7  8  2  0
  8  9  1  0
  9 10  1  0
 10 11  1  0
 11 12  2  0
 12 13  1  0
 13 14  1  0
 14 15  2  0
 15 16  1  0
 16 17  2  0
 17 18  1  0
 14 19  1  0
 18 19  2  0
 12 20  1  0
 20 21  2  0
 11 22  1  0
 20 22  1  0
 22 23  2  0
  5 24  1  0
  9 24  2  0
M  END
