JAN-UNI-2e92c4b1-5-acrylamide
     RDKit          3D

 21 22  0  0  0  0  0  0  0  0999 V2000
    8.8390   -3.1710   20.1930 C   0  0  0  0  0  0  0  0  0  0  0  0
    7.4690   -2.5720   20.2550 C   0  0  0  0  0  0  0  0  0  0  0  0
    6.7610   -2.7790   21.6550 C   0  0  0  0  0  0  0  0  0  0  0  0
    5.1830   -3.4540   21.3700 O   0  0  0  0  0  0  0  0  0  0  0  0
    8.0670   -2.4440   23.0050 C   0  0  0  0  0  0  0  0  0  0  0  0
    8.9450   -1.1020   22.9540 C   0  0  0  0  0  0  0  0  0  0  0  0
    8.5080   -0.4810   22.2950 N   0  0  0  0  0  0  0  0  0  0  0  0
    8.0280   -1.8040   22.8080 C   0  0  0  0  0  0  0  0  0  0  0  0
    6.7350   -1.9770   22.6020 N   0  0  0  0  0  0  0  0  0  0  0  0
    6.4010   -1.8560   24.1150 C   0  0  0  0  0  0  0  0  0  0  0  0
    6.3300   -0.5620   24.7350 C   0  0  0  0  0  0  0  0  0  0  0  0
    8.6010   -3.0550   23.7790 C   0  0  0  0  0  0  0  0  0  0  0  0
    8.6890   -4.0930   24.3980 C   0  0  0  0  0  0  0  0  0  0  0  0
    8.4390   -4.4880   25.7650 N   0  0  0  0  0  0  0  0  0  0  0  0
    8.4000   -3.2610   26.6840 C   0  0  0  0  0  0  0  0  0  0  0  0
    8.4390   -1.9680   26.1760 C   0  0  0  0  0  0  0  0  0  0  0  0
    8.4190   -1.0960   27.1850 C   0  0  0  0  0  0  0  0  0  0  0  0
    8.5070    0.3830   26.8690 O   0  0  0  0  0  0  0  0  0  0  0  0
    8.4670   -1.7730   28.4640 N   0  0  0  0  0  0  0  0  0  0  0  0
    8.4530   -3.1580   28.0890 O   0  0  0  0  0  0  0  0  0  0  0  0
    7.4310   -3.4140   23.0390 C   0  0  0  0  0  0  0  0  0  0  0  0
  1  2  1  0
  2  3  1  0
  3  4  2  0
  3  5  1  0
  5  6  2  0
  6  7  1  0
  7  8  2  0
  8  9  1  0
  9 10  1  0
 10 11  1  0
  8 12  1  0
 12 13  1  0
 13 14  1  0
 14 15  1  0
 15 16  2  0
 16 17  1  0
 17 18  1  0
 17 19  2  0
 15 20  1  0
 19 20  1  0
  5 21  1  0
 12 21  2  0
M  END
