JAN-GHE-6413aaf8-9-vinylsulfonamide
     RDKit          3D

 25 27  0  0  0  0  0  0  0  0999 V2000
    7.2760   -3.4860   19.4160 C   0  0  0  0  0  0  0  0  0  0  0  0
    6.6260   -4.3190   20.4900 C   0  0  0  0  0  0  0  0  0  0  0  0
    5.3270   -3.3530   20.9660 S   0  0  0  0  0  0  0  0  0  0  0  0
    4.6540   -3.1120   19.7230 O   0  0  0  0  0  0  0  0  0  0  0  0
    4.5840   -4.0510   21.9840 O   0  0  0  0  0  0  0  0  0  0  0  0
    6.0900   -2.0080   21.6660 N   0  0  0  0  0  0  0  0  0  0  0  0
    7.3190   -1.4460   21.0990 C   0  0  0  0  0  0  0  0  0  0  0  0
    8.4360   -1.4730   21.9710 C   0  0  0  0  0  0  0  0  0  0  0  0
    8.5040   -2.4730   22.9070 N   0  0  0  0  0  0  0  0  0  0  0  0
    9.3630   -2.1390   24.0640 C   0  0  0  0  0  0  0  0  0  0  0  0
   10.4350   -1.1970   23.7740 C   0  0  0  0  0  0  0  0  0  0  0  0
   11.7710   -1.6250   23.3090 C   0  0  0  0  0  0  0  0  0  0  0  0
   12.8310   -0.7780   23.0140 C   0  0  0  0  0  0  0  0  0  0  0  0
   12.6350    0.5990   23.1630 C   0  0  0  0  0  0  0  0  0  0  0  0
   11.3380    1.1970   23.6230 C   0  0  0  0  0  0  0  0  0  0  0  0
   11.0890    2.7270   23.7920 C   0  0  0  0  0  0  0  0  0  0  0  0
   10.3770    4.0550   24.1000 C   0  0  0  0  0  0  0  0  0  0  0  0
   11.4320    5.1570   24.2660 C   0  0  0  0  0  0  0  0  0  0  0  0
   12.6300    5.2510   23.6290 N   0  0  0  0  0  0  0  0  0  0  0  0
   11.0680    5.9980   25.0870 O   0  0  0  0  0  0  0  0  0  0  0  0
    9.7460    2.3330   24.2090 C   0  0  0  0  0  0  0  0  0  0  0  0
    9.3950    1.0350   24.2510 N   0  0  0  0  0  0  0  0  0  0  0  0
   10.3000    0.1930   23.9030 C   0  0  0  0  0  0  0  0  0  0  0  0
    7.2610   -2.9850   23.3170 C   0  0  0  0  0  0  0  0  0  0  0  0
    6.1490   -2.1910   23.0560 C   0  0  0  0  0  0  0  0  0  0  0  0
  1  2  1  0
  3  2  1  0
  3  4  2  0
  3  5  2  0
  3  6  1  0
  6  7  1  0
  7  8  1  0
  8  9  1  0
  9 10  1  0
 10 11  1  0
 11 12  2  0
 12 13  1  0
 13 14  2  0
 14 15  1  0
 15 16  1  0
 16 17  1  0
 17 18  1  0
 18 19  1  0
 18 20  2  0
 16 21  2  0
 21 22  1  0
 11 23  1  0
 15 23  2  0
 22 23  1  0
  9 24  1  0
  6 25  1  0
 24 25  1  0
M  END
