JAN-LUN-04aedcc0-5-chloroacetamide
     RDKit          3D

 37 41  0  0  0  0  0  0  0  0999 V2000
    7.3290   -2.9640   18.9380 C   0  0  0  0  0  0  0  0  0  0  0  0
    6.5000   -3.3660   20.1070 C   0  0  0  0  0  0  0  0  0  0  0  0
    5.5950   -4.1980   19.8570 O   0  0  0  0  0  0  0  0  0  0  0  0
    6.7570   -2.8480   21.4230 N   0  0  0  0  0  0  0  0  0  0  0  0
    6.0500   -3.3080   22.6140 C   0  0  0  0  0  0  0  0  0  0  0  0
    6.9600   -3.7790   23.5450 C   0  0  0  0  0  0  0  0  0  0  0  0
    6.6650   -4.8260   24.4220 C   0  0  0  0  0  0  0  0  0  0  0  0
    7.6330   -5.3180   25.3900 C   0  0  0  0  0  0  0  0  0  0  0  0
    8.8920   -4.7490   25.4530 C   0  0  0  0  0  0  0  0  0  0  0  0
    9.7880   -5.0970   26.2280 O   0  0  0  0  0  0  0  0  0  0  0  0
    9.2370   -3.7080   24.6160 C   0  0  0  0  0  0  0  0  0  0  0  0
    8.2210   -3.2190   23.6420 C   0  0  0  0  0  0  0  0  0  0  0  0
    8.8240   -2.1280   22.9120 C   0  0  2  0  0  0  0  0  0  0  0  0
    9.5880   -1.2240   22.9450 C   0  0  0  0  0  0  0  0  0  0  0  0
   10.9090   -0.6900   22.6310 C   0  0  0  0  0  0  0  0  0  0  0  0
   11.4660    0.5470   22.9100 C   0  0  0  0  0  0  0  0  0  0  0  0
   10.7780    1.5270   23.5790 C   0  0  0  0  0  0  0  0  0  0  0  0
   11.2830    2.6160   23.8180 O   0  0  0  0  0  0  0  0  0  0  0  0
    9.4750    1.2760   23.9890 C   0  0  0  0  0  0  0  0  0  0  0  0
    8.7290   -0.0360   23.7530 C   0  0  0  0  0  0  0  0  0  0  0  0
    7.2110   -0.0460   24.3410 N   0  0  0  0  0  0  0  0  0  0  0  0
    6.3140    1.2280   24.7830 C   0  0  0  0  0  0  0  0  0  0  0  0
    6.8640    2.5550   24.7380 O   0  0  0  0  0  0  0  0  0  0  0  0
    4.8730    0.9980   25.2430 N   0  0  0  0  0  0  0  0  0  0  0  0
    3.9390    2.0590   25.8410 C   0  0  0  0  0  0  0  0  0  0  0  0
    3.6240    2.8790   26.7720 C   0  0  0  0  0  0  0  0  0  0  0  0
    2.5860    3.1950   26.0340 C   0  0  0  0  0  0  0  0  0  0  0  0
    1.5890    3.1630   24.8020 C   0  0  0  0  0  0  0  0  0  0  0  0
    1.8800    2.3040   23.8350 C   0  0  0  0  0  0  0  0  0  0  0  0
    1.3920    1.8610   22.5560 C   0  0  0  0  0  0  0  0  0  0  0  0
    0.2290    1.0520   22.5710 O   0  0  0  0  0  0  0  0  0  0  0  0
    2.2220    2.2770   21.4780 O   0  0  0  0  0  0  0  0  0  0  0  0
    2.8840    1.8990   24.3950 C   0  0  0  0  0  0  0  0  0  0  0  0
    3.8310    1.1070   24.2720 N   0  0  0  0  0  0  0  0  0  0  0  0
    3.8940    1.8820   25.5200 C   0  0  0  0  0  0  0  0  0  0  0  0
    4.9220    1.8320   26.6240 N   0  0  0  0  0  0  0  0  0  0  0  0
    7.8340   -1.8270   21.7060 C   0  0  0  0  0  0  0  0  0  0  0  0
  1  2  1  0
  2  3  2  0
  2  4  1  0
  4  5  1  0
  5  6  1  0
  6  7  1  0
  7  8  2  0
  8  9  1  0
  9 10  1  0
  9 11  2  0
  6 12  2  0
 11 12  1  0
 12 13  1  0
 13 14  1  1
 14 15  2  0
 15 16  1  0
 16 17  2  0
 17 18  1  0
 17 19  1  0
 14 20  1  0
 19 20  2  0
 20 21  1  0
 21 22  1  0
 22 23  2  0
 22 24  1  0
 24 25  1  0
 25 26  2  0
 26 27  1  0
 27 28  2  0
 28 29  1  0
 29 30  1  0
 30 31  2  0
 30 32  1  0
 29 33  2  0
 33 34  1  0
 27 35  1  0
 34 35  2  0
 25 36  1  0
 35 36  1  0
  4 37  1  0
 13 37  1  0
M  END
