JAN-GHE-6413aaf8-9-acrylamide
     RDKit          3D

 24 26  0  0  0  0  0  0  0  0999 V2000
    7.9370   -3.2760   19.0480 C   0  0  0  0  0  0  0  0  0  0  0  0
    6.7380   -2.4090   18.8780 C   0  0  0  0  0  0  0  0  0  0  0  0
    5.8130   -2.7400   19.9850 C   0  0  0  0  0  0  0  0  0  0  0  0
    4.9240   -3.5490   19.7530 O   0  0  0  0  0  0  0  0  0  0  0  0
    6.1050   -2.1670   21.2290 N   0  0  0  0  0  0  0  0  0  0  0  0
    7.1420   -1.1230   21.2480 C   0  0  0  0  0  0  0  0  0  0  0  0
    8.3640   -1.6640   21.6750 C   0  0  0  0  0  0  0  0  0  0  0  0
    8.1780   -2.0740   22.9810 N   0  0  0  0  0  0  0  0  0  0  0  0
    9.1930   -2.1620   23.9660 C   0  0  0  0  0  0  0  0  0  0  0  0
   10.3970   -1.3360   23.7530 C   0  0  0  0  0  0  0  0  0  0  0  0
   11.6670   -1.8760   23.5940 C   0  0  0  0  0  0  0  0  0  0  0  0
   12.8110   -1.1120   23.3810 C   0  0  0  0  0  0  0  0  0  0  0  0
   12.7480    0.3730   23.3070 C   0  0  0  0  0  0  0  0  0  0  0  0
   11.3780    0.9950   23.4770 C   0  0  0  0  0  0  0  0  0  0  0  0
   11.2850    2.5660   23.3900 C   0  0  0  0  0  0  0  0  0  0  0  0
   10.5700    3.9260   23.3960 C   0  0  0  0  0  0  0  0  0  0  0  0
   10.2880    4.6190   24.5740 C   0  0  0  0  0  0  0  0  0  0  0  0
    9.0360    4.4390   25.1230 N   0  0  0  0  0  0  0  0  0  0  0  0
   11.1880    5.3430   25.0010 O   0  0  0  0  0  0  0  0  0  0  0  0
    9.8830    2.3280   23.6090 C   0  0  0  0  0  0  0  0  0  0  0  0
    9.3840    1.0730   23.7630 N   0  0  0  0  0  0  0  0  0  0  0  0
   10.3460    0.0880   23.6810 C   0  0  0  0  0  0  0  0  0  0  0  0
    7.3050   -3.1860   23.0330 C   0  0  0  0  0  0  0  0  0  0  0  0
    6.0390   -3.0060   22.4420 C   0  0  0  0  0  0  0  0  0  0  0  0
  1  2  1  0
  2  3  1  0
  3  4  2  0
  3  5  1  0
  5  6  1  0
  6  7  1  0
  7  8  1  0
  8  9  1  0
  9 10  1  0
 10 11  2  0
 11 12  1  0
 12 13  2  0
 13 14  1  0
 14 15  1  0
 15 16  1  0
 16 17  1  0
 17 18  1  0
 17 19  2  0
 15 20  2  0
 20 21  1  0
 10 22  1  0
 14 22  2  0
 21 22  1  0
  8 23  1  0
  5 24  1  0
 23 24  1  0
M  END
