JAS-UND-c13ee042-5
     RDKit          3D

 13 13  0  0  0  0  0  0  0  0999 V2000
    8.2290    4.4800   24.2070 C   0  0  0  0  0  0  0  0  0  0  0  0
    9.1570    5.1080   23.4020 N   0  0  0  0  0  0  0  0  0  0  0  0
    8.6410    5.9220   22.4660 N   0  0  0  0  0  0  0  0  0  0  0  0
   10.5520    5.0100   23.5410 C   0  0  0  0  0  0  0  0  0  0  0  0
   11.3140    5.9620   23.7530 O   0  0  0  0  0  0  0  0  0  0  0  0
   11.1490    3.6110   23.4120 C   0  0  0  0  0  0  0  0  0  0  0  0
   10.4640    2.5240   23.8690 N   0  0  0  0  0  0  0  0  0  0  0  0
   11.0300    1.2200   23.7610 C   0  0  0  0  0  0  0  0  0  0  0  0
   10.3530    0.1590   24.2150 F   0  0  0  0  0  0  0  0  0  0  0  0
   12.2890    1.0640   23.1790 C   0  0  0  0  0  0  0  0  0  0  0  0
   12.9400    2.1600   22.7280 N   0  0  0  0  0  0  0  0  0  0  0  0
   12.5130    3.4740   22.7700 C   0  0  0  0  0  0  0  0  0  0  0  0
   13.1770    4.4130   22.3290 O   0  0  0  0  0  0  0  0  0  0  0  0
  1  2  1  0
  2  3  1  0
  2  4  1  0
  4  5  2  0
  4  6  1  0
  6  7  2  0
  7  8  1  0
  8  9  1  0
  8 10  2  0
 10 11  1  0
  6 12  1  0
 11 12  2  0
 12 13  1  0
M  END
