JAS-UND-c13ee042-1
     RDKit          3D

 11 11  0  0  0  0  0  0  0  0999 V2000
    9.3760    5.2510   23.3350 N   0  0  0  0  0  0  0  0  0  0  0  0
   10.6720    4.8850   23.6740 C   0  0  0  0  0  0  0  0  0  0  0  0
   11.5740    5.9150   24.0430 O   0  0  0  0  0  0  0  0  0  0  0  0
   11.0550    3.4160   23.5840 C   0  0  0  0  0  0  0  0  0  0  0  0
   12.2270    3.1190   23.0350 N   0  0  0  0  0  0  0  0  0  0  0  0
   12.5140    1.8030   22.9230 C   0  0  0  0  0  0  0  0  0  0  0  0
   13.9770    1.4760   22.1380 Cl  0  0  0  0  0  0  0  0  0  0  0  0
   11.7650    0.7390   23.3410 C   0  0  0  0  0  0  0  0  0  0  0  0
   10.5530    0.8830   23.9450 N   0  0  0  0  0  0  0  0  0  0  0  0
   10.1250    2.3060   24.0840 C   0  0  0  0  0  0  0  0  0  0  0  0
    9.0140    2.4440   24.6080 O   0  0  0  0  0  0  0  0  0  0  0  0
  1  2  1  0
  2  3  2  0
  2  4  1  0
  4  5  2  0
  5  6  1  0
  6  7  1  0
  6  8  2  0
  8  9  1  0
  4 10  1  0
  9 10  2  0
 10 11  1  0
M  END
