JAS-UND-c13ee042-4
     RDKit          3D

 13 13  0  0  0  0  0  0  0  0999 V2000
    9.4040    5.3030   23.3470 N   0  0  0  0  0  0  0  0  0  0  0  0
   10.7070    4.9310   23.6640 C   0  0  0  0  0  0  0  0  0  0  0  0
   11.6290    5.9560   24.0020 O   0  0  0  0  0  0  0  0  0  0  0  0
   11.0620    3.4520   23.5920 C   0  0  0  0  0  0  0  0  0  0  0  0
   12.2920    3.2120   23.0980 N   0  0  0  0  0  0  0  0  0  0  0  0
   12.6910    1.9130   22.9360 C   0  0  0  0  0  0  0  0  0  0  0  0
   13.8940    1.7300   22.3940 F   0  0  0  0  0  0  0  0  0  0  0  0
   11.9480    0.8060   23.2750 C   0  0  0  0  0  0  0  0  0  0  0  0
   12.5120   -0.4430   23.0440 C   0  0  0  0  0  0  0  0  0  0  0  0
   13.0920   -1.5090   23.2750 O   0  0  0  0  0  0  0  0  0  0  0  0
   10.7120    0.9740   23.8070 N   0  0  0  0  0  0  0  0  0  0  0  0
   10.2510    2.3810   23.9600 C   0  0  0  0  0  0  0  0  0  0  0  0
    9.1100    2.4790   24.4260 O   0  0  0  0  0  0  0  0  0  0  0  0
  1  2  1  0
  2  3  2  0
  2  4  1  0
  4  5  2  0
  5  6  1  0
  6  7  1  0
  6  8  2  0
  8  9  1  0
  9 10  2  0
  8 11  1  0
  4 12  1  0
 11 12  2  0
 12 13  1  0
M  END
