JAV-UNI-4503e1e6-1
     RDKit          3D

 26 29  0  0  0  0  0  0  0  0999 V2000
    7.3330   -2.7780   20.5180 C   0  0  0  0  0  0  0  0  0  0  0  0
    6.3640   -3.9420   20.6260 C   0  0  0  0  0  0  0  0  0  0  0  0
    5.5640   -4.2180   19.7290 O   0  0  0  0  0  0  0  0  0  0  0  0
    6.5150   -4.6430   21.8730 N   0  0  0  0  0  0  0  0  0  0  0  0
    5.4670   -5.5050   22.2180 C   0  0  0  0  0  0  0  0  0  0  0  0
    4.7710   -5.3350   23.3940 C   0  0  0  0  0  0  0  0  0  0  0  0
    3.7440   -6.3310   23.6150 C   0  0  0  0  0  0  0  0  0  0  0  0
    3.0270   -6.2000   24.8140 C   0  0  0  0  0  0  0  0  0  0  0  0
    3.3220   -5.1770   25.6910 C   0  0  0  0  0  0  0  0  0  0  0  0
    4.3400   -4.1530   25.5160 C   0  0  0  0  0  0  0  0  0  0  0  0
    5.1040   -4.2710   24.2400 C   0  0  0  0  0  0  0  0  0  0  0  0
    6.1650   -3.2640   23.9740 C   0  0  2  0  0  0  0  0  0  0  0  0
    6.1220   -1.8180   23.6380 C   0  0  0  0  0  0  0  0  0  0  0  0
    4.8930   -1.2340   23.5460 C   0  0  0  0  0  0  0  0  0  0  0  0
    4.9310    0.2080   23.2130 C   0  0  0  0  0  0  0  0  0  0  0  0
    6.2450    0.9550   22.9930 C   0  0  0  0  0  0  0  0  0  0  0  0
    7.4690    0.3550   23.0900 C   0  0  0  0  0  0  0  0  0  0  0  0
    7.3550   -1.1420   23.4400 C   0  0  0  0  0  0  0  0  0  0  0  0
    7.1810   -3.9130   23.0270 C   0  0  1  0  0  0  0  0  0  0  0  0
    8.0080   -4.6610   24.0000 C   0  0  0  0  0  0  0  0  0  0  0  0
    7.7180   -6.0530   23.7420 C   0  0  0  0  0  0  0  0  0  0  0  0
    6.4250   -6.4440   23.8420 C   0  0  0  0  0  0  0  0  0  0  0  0
    6.1110   -7.7180   23.5520 C   0  0  0  0  0  0  0  0  0  0  0  0
    7.1380   -8.5510   23.1650 C   0  0  0  0  0  0  0  0  0  0  0  0
    8.3870   -8.1940   23.0960 N   0  0  0  0  0  0  0  0  0  0  0  0
    8.6560   -6.9600   23.3910 C   0  0  0  0  0  0  0  0  0  0  0  0
  1  2  1  0
  2  3  2  0
  2  4  1  0
  4  5  1  0
  5  6  1  0
  6  7  1  0
  7  8  2  0
  8  9  1  0
  9 10  2  0
  6 11  2  0
 10 11  1  0
 11 12  1  0
 12 13  1  6
 13 14  2  0
 14 15  1  0
 15 16  2  0
 16 17  1  0
 13 18  1  0
 17 18  2  0
  4 19  1  0
 12 19  1  0
 19 20  1  1
 20 21  1  0
 21 22  2  0
 22 23  1  0
 23 24  2  0
 24 25  1  0
 21 26  1  0
 25 26  2  0
M  END
