JIA-UNI-93b03cae-1-acrylamide
     RDKit          3D

 22 23  0  0  0  0  0  0  0  0999 V2000
    7.3760   -2.9410   18.4450 C   0  0  0  0  0  0  0  0  0  0  0  0
    6.6840   -1.9180   19.2810 C   0  0  0  0  0  0  0  0  0  0  0  0
    5.8710   -2.6210   20.3370 C   0  0  0  0  0  0  0  0  0  0  0  0
    4.9960   -3.4260   20.0390 O   0  0  0  0  0  0  0  0  0  0  0  0
    6.2420   -2.3120   21.6330 N   0  0  0  0  0  0  0  0  0  0  0  0
    6.3300   -3.2940   22.5840 C   0  0  0  0  0  0  0  0  0  0  0  0
    7.5420   -3.5020   23.2810 C   0  0  0  0  0  0  0  0  0  0  0  0
    8.4370   -2.4540   23.5260 N   0  0  0  0  0  0  0  0  0  0  0  0
    9.7260   -2.6510   24.2300 C   0  0  0  0  0  0  0  0  0  0  0  0
   10.6840   -1.5770   23.7540 C   0  0  0  0  0  0  0  0  0  0  0  0
   12.0110   -1.9510   23.1100 C   0  0  0  0  0  0  0  0  0  0  0  0
   12.8690   -0.7810   22.6420 C   0  0  0  0  0  0  0  0  0  0  0  0
   12.3630    0.6690   22.8310 C   0  0  0  0  0  0  0  0  0  0  0  0
   13.1570    1.8950   22.3520 C   0  0  0  0  0  0  0  0  0  0  0  0
   12.3590    3.4400   22.3340 S   0  0  0  0  0  0  0  0  0  0  0  0
   12.5810    4.1730   21.1150 O   0  0  0  0  0  0  0  0  0  0  0  0
   12.6040    4.1830   23.5260 O   0  0  0  0  0  0  0  0  0  0  0  0
   10.7860    3.1750   22.3190 F   0  0  0  0  0  0  0  0  0  0  0  0
   11.1700    0.8840   23.4260 C   0  0  0  0  0  0  0  0  0  0  0  0
   10.3110   -0.2520   23.9030 C   0  0  0  0  0  0  0  0  0  0  0  0
    8.5710   -1.5200   22.4240 C   0  0  0  0  0  0  0  0  0  0  0  0
    7.1690   -1.3310   21.8530 C   0  0  0  0  0  0  0  0  0  0  0  0
  1  2  1  0
  2  3  1  0
  3  4  2  0
  3  5  1  0
  5  6  1  0
  6  7  1  0
  7  8  1  0
  8  9  1  0
  9 10  1  0
 10 11  2  0
 11 12  1  0
 12 13  2  0
 13 14  1  0
 14 15  1  0
 15 16  2  0
 15 17  2  0
 15 18  1  0
 13 19  1  0
 10 20  1  0
 19 20  2  0
  8 21  1  0
  5 22  1  0
 21 22  1  0
M  END
