JIA-UNI-93b03cae-1-chloroacetamide
     RDKit          3D

 21 22  0  0  0  0  0  0  0  0999 V2000
    7.1920   -3.0070   18.8600 C   0  0  0  0  0  0  0  0  0  0  0  0
    6.2350   -3.3680   19.9570 C   0  0  0  0  0  0  0  0  0  0  0  0
    5.3590   -4.2210   19.7900 O   0  0  0  0  0  0  0  0  0  0  0  0
    6.4280   -2.6760   21.1750 N   0  0  0  0  0  0  0  0  0  0  0  0
    6.3380   -3.3410   22.4780 C   0  0  0  0  0  0  0  0  0  0  0  0
    7.5810   -3.5490   23.0820 C   0  0  0  0  0  0  0  0  0  0  0  0
    8.3510   -2.4260   23.1020 N   0  0  0  0  0  0  0  0  0  0  0  0
    9.6710   -2.6140   23.7990 C   0  0  0  0  0  0  0  0  0  0  0  0
   10.6080   -1.6480   23.4160 C   0  0  0  0  0  0  0  0  0  0  0  0
   10.0670   -0.2520   23.4530 C   0  0  0  0  0  0  0  0  0  0  0  0
   10.9710    0.8720   23.0640 C   0  0  0  0  0  0  0  0  0  0  0  0
   12.3780    0.5690   22.6680 C   0  0  0  0  0  0  0  0  0  0  0  0
   13.2850    1.7480   22.2960 C   0  0  0  0  0  0  0  0  0  0  0  0
   12.7290    3.3770   22.5610 S   0  0  0  0  0  0  0  0  0  0  0  0
   11.5550    3.3800   23.4030 O   0  0  0  0  0  0  0  0  0  0  0  0
   13.8350    4.2470   22.8750 O   0  0  0  0  0  0  0  0  0  0  0  0
   12.1990    3.9830   21.1920 F   0  0  0  0  0  0  0  0  0  0  0  0
   12.8670   -0.8990   22.6380 C   0  0  0  0  0  0  0  0  0  0  0  0
   11.9440   -1.9140   23.0180 C   0  0  0  0  0  0  0  0  0  0  0  0
    8.4790   -1.6710   21.8360 C   0  0  0  0  0  0  0  0  0  0  0  0
    7.1800   -1.4210   21.2490 C   0  0  0  0  0  0  0  0  0  0  0  0
  1  2  1  0
  2  3  2  0
  2  4  1  0
  4  5  1  0
  5  6  1  0
  6  7  1  0
  7  8  1  0
  8  9  1  0
  9 10  2  0
 10 11  1  0
 11 12  2  0
 12 13  1  0
 13 14  1  0
 14 15  2  0
 14 16  2  0
 14 17  1  0
 12 18  1  0
  9 19  1  0
 18 19  2  0
  7 20  1  0
  4 21  1  0
 20 21  1  0
M  END
