JIG-UNK-11bede03-3
     RDKit          3D

 33 37  0  0  0  0  0  0  0  0999 V2000
   10.4710   -3.0920   24.6520 O   0  0  0  0  0  0  0  0  0  0  0  0
    9.7560   -2.1270   24.8990 C   0  0  0  0  0  0  0  0  0  0  0  0
   10.2760   -0.6980   25.1320 C   0  0  0  0  0  0  0  0  0  0  0  0
   11.0620   -0.1390   24.0470 N   0  0  0  0  0  0  0  0  0  0  0  0
   12.1950   -0.8310   23.4440 C   0  0  0  0  0  0  0  0  0  0  0  0
   13.0610    0.2640   22.7810 C   0  0  0  0  0  0  0  0  0  0  0  0
   13.1180    1.7450   22.5930 C   0  0  0  0  0  0  0  0  0  0  0  0
   12.8870    3.1380   22.5550 C   0  0  0  0  0  0  0  0  0  0  0  0
   11.7160    3.8040   23.0550 C   0  0  0  0  0  0  0  0  0  0  0  0
   11.3830    2.5690   23.3570 N   0  0  0  0  0  0  0  0  0  0  0  0
   12.0160    1.3930   23.1750 C   0  0  0  0  0  0  0  0  0  0  0  0
   10.7990    1.1470   23.8010 C   0  0  0  0  0  0  0  0  0  0  0  0
    9.8450    1.8740   24.0350 O   0  0  0  0  0  0  0  0  0  0  0  0
    8.3760   -2.2190   25.0130 N   0  0  0  0  0  0  0  0  0  0  0  0
    7.5700   -3.3120   24.4530 C   0  0  2  0  0  0  0  0  0  0  0  0
    6.1270   -2.8780   24.1910 C   0  0  0  0  0  0  0  0  0  0  0  0
    6.2270   -1.8940   23.0400 C   0  0  1  0  0  0  0  0  0  0  0  0
    5.7540   -2.5000   21.7350 C   0  0  0  0  0  0  0  0  0  0  0  0
    5.4590   -1.2620   20.9160 C   0  0  0  0  0  0  0  0  0  0  0  0
    4.7300   -0.5020   21.8830 N   0  0  0  0  0  0  0  0  0  0  0  0
    5.2490   -0.7370   23.1430 C   0  0  0  0  0  0  0  0  0  0  0  0
    4.9620   -0.1160   24.1540 O   0  0  0  0  0  0  0  0  0  0  0  0
    7.6230   -4.6580   25.2110 C   0  0  0  0  0  0  0  0  0  0  0  0
    8.6680   -5.1310   25.6530 O   0  0  0  0  0  0  0  0  0  0  0  0
    6.3240   -5.4580   25.4440 C   0  0  0  0  0  0  0  0  0  0  0  0
    6.0540   -6.4460   24.7670 O   0  0  0  0  0  0  0  0  0  0  0  0
    5.5410   -4.9570   26.4650 N   0  0  0  0  0  0  0  0  0  0  0  0
    5.1640   -5.6910   27.6570 C   0  0  1  0  0  0  0  0  0  0  0  0
    3.8710   -6.4980   27.5930 C   0  0  0  0  0  0  0  0  0  0  0  0
    3.8460   -6.9930   29.0410 C   0  0  0  0  0  0  0  0  0  0  0  0
    5.1260   -6.3310   29.5620 C   0  0  1  0  0  0  0  0  0  0  0  0
    6.1920   -6.5590   28.4420 C   0  0  0  0  0  0  0  0  0  0  0  0
    5.0940   -4.8820   28.9790 C   0  0  0  0  0  0  0  0  0  0  0  0
  1  2  2  0
  2  3  1  0
  3  4  1  0
  4  5  1  0
  5  6  2  0
  6  7  1  0
  7  8  1  0
  8  9  2  0
  9 10  1  0
  7 11  2  0
 10 11  1  0
  4 12  1  0
 11 12  1  0
 12 13  2  0
  2 14  1  0
 14 15  1  0
 15 16  1  1
 17 16  1  1
 17 18  1  0
 18 19  1  0
 19 20  1  0
 17 21  1  0
 20 21  1  0
 21 22  2  0
 15 23  1  0
 23 24  2  0
 23 25  1  0
 25 26  2  0
 25 27  1  0
 28 27  1  6
 28 29  1  0
 29 30  1  0
 31 30  1  6
 28 32  1  0
 31 32  1  0
 28 33  1  0
 31 33  1  0
M  END
