JOE-SYG-2c9a1216-1-acrylamide
     RDKit          3D

 27 29  0  0  0  0  0  0  0  0999 V2000
    7.3740   -3.0980   19.1580 C   0  0  0  0  0  0  0  0  0  0  0  0
    6.9490   -3.2220   20.6180 C   0  0  0  0  0  0  0  0  0  0  0  0
    6.0800   -4.4360   20.7570 C   0  0  0  0  0  0  0  0  0  0  0  0
    5.1770   -4.6360   19.9470 O   0  0  0  0  0  0  0  0  0  0  0  0
    6.3590   -5.2790   21.8060 N   0  0  0  0  0  0  0  0  0  0  0  0
    5.4170   -6.2260   22.3160 C   0  0  0  0  0  0  0  0  0  0  0  0
    4.6290   -5.5580   23.4190 C   0  0  0  0  0  0  0  0  0  0  0  0
    5.5450   -5.1030   24.5000 N   0  0  0  0  0  0  0  0  0  0  0  0
    4.9970   -5.0510   26.0910 S   0  0  0  0  0  0  0  0  0  0  0  0
    6.0810   -4.5440   26.9010 O   0  0  0  0  0  0  0  0  0  0  0  0
    4.3540   -6.3110   26.3800 O   0  0  0  0  0  0  0  0  0  0  0  0
    3.7010   -3.7730   26.0000 C   0  0  0  0  0  0  0  0  0  0  0  0
    4.1790   -2.3070   26.1420 C   0  0  0  0  0  0  0  0  0  0  0  0
    5.4600   -1.9680   26.3260 F   0  0  0  0  0  0  0  0  0  0  0  0
    3.1240   -1.1960   26.0620 C   0  0  0  0  0  0  0  0  0  0  0  0
    1.7010   -1.6920   25.8510 C   0  0  0  0  0  0  0  0  0  0  0  0
    1.3560   -3.0190   25.7350 C   0  0  0  0  0  0  0  0  0  0  0  0
    2.3670   -4.1200   25.8090 C   0  0  0  0  0  0  0  0  0  0  0  0
    1.9500   -5.3880   25.6890 F   0  0  0  0  0  0  0  0  0  0  0  0
    6.7920   -4.4100   24.1510 C   0  0  2  0  0  0  0  0  0  0  0  0
    6.6110   -3.0450   23.9370 C   0  0  0  0  0  0  0  0  0  0  0  0
    7.7720   -2.3000   23.7930 C   0  0  0  0  0  0  0  0  0  0  0  0
    7.7850   -0.9210   23.5690 C   0  0  0  0  0  0  0  0  0  0  0  0
    6.4570   -0.1810   23.4760 C   0  0  0  0  0  0  0  0  0  0  0  0
    5.3230   -0.9090   23.6160 C   0  0  0  0  0  0  0  0  0  0  0  0
    5.3960   -2.3920   23.8530 C   0  0  0  0  0  0  0  0  0  0  0  0
    7.3610   -4.9330   22.8200 C   0  0  0  0  0  0  0  0  0  0  0  0
  1  2  1  0
  2  3  1  0
  3  4  2  0
  3  5  1  0
  5  6  1  0
  6  7  1  0
  7  8  1  0
  8  9  1  0
  9 10  2  0
  9 11  2  0
  9 12  1  0
 12 13  2  0
 13 14  1  0
 13 15  1  0
 15 16  2  0
 16 17  1  0
 12 18  1  0
 17 18  2  0
 18 19  1  0
  8 20  1  0
 20 21  1  6
 21 22  2  0
 22 23  1  0
 23 24  2  0
 24 25  1  0
 21 26  1  0
 25 26  2  0
  5 27  1  0
 20 27  1  0
M  END
