JOE-SYG-2c9a1216-1-vinylsulfonamide
     RDKit          3D

 28 30  0  0  0  0  0  0  0  0999 V2000
    7.6660   -3.2200   18.7860 C   0  0  0  0  0  0  0  0  0  0  0  0
    7.3390   -2.8750   20.2150 C   0  0  0  0  0  0  0  0  0  0  0  0
    5.9660   -3.7900   20.8530 S   0  0  0  0  0  0  0  0  0  0  0  0
    5.1520   -4.4220   19.8190 O   0  0  0  0  0  0  0  0  0  0  0  0
    5.3710   -2.8230   21.6910 O   0  0  0  0  0  0  0  0  0  0  0  0
    6.5530   -5.0230   21.8110 N   0  0  0  0  0  0  0  0  0  0  0  0
    5.6080   -6.0380   22.2230 C   0  0  0  0  0  0  0  0  0  0  0  0
    4.7900   -5.5740   23.4160 C   0  0  0  0  0  0  0  0  0  0  0  0
    5.7050   -5.1200   24.5400 N   0  0  0  0  0  0  0  0  0  0  0  0
    5.0130   -5.0630   26.1260 S   0  0  0  0  0  0  0  0  0  0  0  0
    4.2780   -6.2830   26.3750 O   0  0  0  0  0  0  0  0  0  0  0  0
    6.0910   -4.6390   26.9860 O   0  0  0  0  0  0  0  0  0  0  0  0
    3.7960   -3.8020   26.0550 C   0  0  0  0  0  0  0  0  0  0  0  0
    4.2470   -2.3510   26.2140 C   0  0  0  0  0  0  0  0  0  0  0  0
    5.5140   -1.9790   26.4000 F   0  0  0  0  0  0  0  0  0  0  0  0
    3.1680   -1.2730   26.1560 C   0  0  0  0  0  0  0  0  0  0  0  0
    1.7250   -1.6810   25.9480 C   0  0  0  0  0  0  0  0  0  0  0  0
    1.4440   -3.1750   25.8030 C   0  0  0  0  0  0  0  0  0  0  0  0
    2.4590   -4.1350   25.8610 C   0  0  0  0  0  0  0  0  0  0  0  0
    2.0850   -5.4150   25.7250 F   0  0  0  0  0  0  0  0  0  0  0  0
    6.7490   -4.1470   24.1940 C   0  0  2  0  0  0  0  0  0  0  0  0
    6.3770   -2.8130   24.1720 C   0  0  0  0  0  0  0  0  0  0  0  0
    5.0380   -2.4330   23.9170 C   0  0  0  0  0  0  0  0  0  0  0  0
    4.7550   -1.0600   23.9170 C   0  0  0  0  0  0  0  0  0  0  0  0
    5.7480   -0.1270   24.1540 C   0  0  0  0  0  0  0  0  0  0  0  0
    7.1600   -0.5320   24.4210 C   0  0  0  0  0  0  0  0  0  0  0  0
    7.3960   -1.8520   24.4130 C   0  0  0  0  0  0  0  0  0  0  0  0
    7.4670   -4.6640   22.9150 C   0  0  0  0  0  0  0  0  0  0  0  0
  1  2  1  0
  3  2  1  0
  3  4  2  0
  3  5  2  0
  3  6  1  0
  6  7  1  0
  7  8  1  0
  8  9  1  0
  9 10  1  0
 10 11  2  0
 10 12  2  0
 10 13  1  0
 13 14  2  0
 14 15  1  0
 14 16  1  0
 16 17  2  0
 17 18  1  0
 13 19  1  0
 18 19  2  0
 19 20  1  0
  9 21  1  0
 21 22  1  6
 22 23  2  0
 23 24  1  0
 24 25  2  0
 25 26  1  0
 22 27  1  0
 26 27  2  0
  6 28  1  0
 21 28  1  0
M  END
