JOH-MSK-a63bdd1d-3
     RDKit          3D

 30 32  0  0  0  0  0  0  0  0999 V2000
   12.8880   -1.3360   21.6300 C   0  0  0  0  0  0  0  0  0  0  0  0
   11.4490   -1.1370   21.5440 O   0  0  0  0  0  0  0  0  0  0  0  0
   10.7200   -2.2230   21.8160 C   0  0  2  0  0  0  0  0  0  0  0  0
    9.3290   -1.8230   21.7230 C   0  0  0  0  0  0  0  0  0  0  0  0
    8.6580   -1.5950   20.7480 O   0  0  0  0  0  0  0  0  0  0  0  0
    8.7170   -1.6660   22.9190 O   0  0  0  0  0  0  0  0  0  0  0  0
   11.3370   -2.4140   23.0100 O   0  0  0  0  0  0  0  0  0  0  0  0
   12.6350   -2.1310   22.6360 C   0  0  1  0  0  0  0  0  0  0  0  0
   13.2880   -1.4610   23.7280 O   0  0  0  0  0  0  0  0  0  0  0  0
   12.6170   -0.2600   23.6930 C   0  0  0  0  0  0  0  0  0  0  0  0
   13.0290    1.0890   23.0690 C   0  0  0  0  0  0  0  0  0  0  0  0
   12.1040    2.3350   23.0860 C   0  0  0  0  0  0  0  0  0  0  0  0
   10.8600    2.1580   23.7090 C   0  0  0  0  0  0  0  0  0  0  0  0
    9.7970    3.0050   23.9090 C   0  0  0  0  0  0  0  0  0  0  0  0
    8.7300    2.4530   24.5770 C   0  0  0  0  0  0  0  0  0  0  0  0
    9.0780    1.1490   24.8550 N   0  0  0  0  0  0  0  0  0  0  0  0
   10.4510    0.9850   24.2830 C   0  0  0  0  0  0  0  0  0  0  0  0
   11.2180   -0.1630   24.3080 C   0  0  0  0  0  0  0  0  0  0  0  0
   13.2930   -3.3090   21.8270 C   0  0  2  0  0  0  0  0  0  0  0  0
   13.8700   -2.7180   20.6350 O   0  0  0  0  0  0  0  0  0  0  0  0
   12.3260   -4.0780   21.1310 C   0  0  1  0  0  0  0  0  0  0  0  0
   13.1670   -3.9460   19.9920 O   0  0  0  0  0  0  0  0  0  0  0  0
   12.1860   -5.4260   20.5700 C   0  0  0  0  0  0  0  0  0  0  0  0
   11.0030   -6.3120   20.6710 C   0  0  0  0  0  0  0  0  0  0  0  0
   10.9490   -7.8880   20.9790 N   0  0  0  0  0  0  0  0  0  0  0  0
   10.3710   -8.9490   19.8240 C   0  0  0  0  0  0  0  0  0  0  0  0
   10.2320  -10.3160   19.6860 C   0  0  0  0  0  0  0  0  0  0  0  0
    9.8400   -8.4390   18.8880 O   0  0  0  0  0  0  0  0  0  0  0  0
   11.4030   -3.2350   20.7730 C   0  0  1  0  0  0  0  0  0  0  0  0
   10.6630   -3.9940   19.8450 O   0  0  0  0  0  0  0  0  0  0  0  0
  1  2  1  0
  3  2  1  6
  3  4  1  0
  4  5  2  0
  4  6  1  0
  3  7  1  0
  7  8  1  0
  8  9  1  1
  9 10  1  0
 10 11  2  0
 11 12  1  0
 12 13  2  0
 13 14  1  0
 14 15  2  0
 15 16  1  0
 13 17  1  0
 16 17  1  0
 10 18  1  0
 17 18  2  0
  8 19  1  0
 19 20  1  6
 19 21  1  0
 21 22  1  6
 21 23  1  0
 23 24  1  0
 24 25  1  0
 25 26  1  0
 26 27  1  0
 26 28  2  0
  3 29  1  0
 21 29  1  0
 29 30  1  1
M  END
