JOH-UNI-27ac80fd-37-nitrile
     RDKit          3D

 17 19  0  0  0  0  0  0  0  0999 V2000
    6.8970   -3.4200   19.8760 C   0  0  0  0  0  0  0  0  0  0  0  0
    5.7630   -3.7230   19.3930 N   0  0  0  0  0  0  0  0  0  0  0  0
    7.0140   -2.8430   21.0910 N   0  0  0  0  0  0  0  0  0  0  0  0
    6.5180   -3.4820   22.2740 C   0  0  0  0  0  0  0  0  0  0  0  0
    7.6160   -3.9230   23.0140 C   0  0  0  0  0  0  0  0  0  0  0  0
    8.4390   -2.7060   23.2690 N   0  0  0  0  0  0  0  0  0  0  0  0
    9.5290   -3.0220   24.2020 C   0  0  0  0  0  0  0  0  0  0  0  0
    9.1380   -3.9200   25.1840 C   0  0  0  0  0  0  0  0  0  0  0  0
    9.7920   -5.2660   25.3270 C   0  0  0  0  0  0  0  0  0  0  0  0
    9.2110   -6.0650   26.4410 C   0  0  0  0  0  0  0  0  0  0  0  0
    8.1030   -5.3070   27.1380 C   0  0  0  0  0  0  0  0  0  0  0  0
    7.0530   -5.9110   28.6010 Br  0  0  0  0  0  0  0  0  0  0  0  0
    7.8520   -3.6860   26.4030 S   0  0  0  0  0  0  0  0  0  0  0  0
   10.9810   -2.9140   23.7730 C   0  0  0  0  0  0  0  0  0  0  0  0
   10.3660   -1.8560   24.6760 C   0  0  0  0  0  0  0  0  0  0  0  0
    8.9050   -2.1180   22.1030 C   0  0  0  0  0  0  0  0  0  0  0  0
    7.8040   -1.5970   21.3440 C   0  0  0  0  0  0  0  0  0  0  0  0
  1  2  2  3
  1  3  1  0
  3  4  1  0
  4  5  1  0
  5  6  1  0
  6  7  1  0
  7  8  1  0
  8  9  2  0
  9 10  1  0
 10 11  2  0
 11 12  1  0
  8 13  1  0
 11 13  1  0
  7 14  1  0
  7 15  1  0
 14 15  1  0
  6 16  1  0
  3 17  1  0
 16 17  1  0
M  END
