JOH-UNI-27ac80fd-28-acrylamide
     RDKit          3D

 18 19  0  0  0  0  0  0  0  0999 V2000
    8.0220   -3.3000   19.1410 C   0  0  0  0  0  0  0  0  0  0  0  0
    6.7850   -2.4810   18.9540 C   0  0  0  0  0  0  0  0  0  0  0  0
    5.9260   -2.8910   20.0800 C   0  0  0  0  0  0  0  0  0  0  0  0
    5.0100   -3.6600   19.8280 O   0  0  0  0  0  0  0  0  0  0  0  0
    6.3210   -2.4350   21.3230 N   0  0  0  0  0  0  0  0  0  0  0  0
    7.3680   -1.4130   21.4570 C   0  0  0  0  0  0  0  0  0  0  0  0
    8.4770   -1.8520   22.2260 C   0  0  0  0  0  0  0  0  0  0  0  0
    8.3250   -2.6600   23.3010 N   0  0  0  0  0  0  0  0  0  0  0  0
    9.5680   -2.8990   24.1100 C   0  0  0  0  0  0  0  0  0  0  0  0
    9.2130   -3.9410   25.1710 C   0  0  0  0  0  0  0  0  0  0  0  0
    9.8800   -5.2600   25.3830 C   0  0  0  0  0  0  0  0  0  0  0  0
    9.3010   -6.0670   26.4880 C   0  0  0  0  0  0  0  0  0  0  0  0
    8.1530   -5.2770   27.1040 C   0  0  0  0  0  0  0  0  0  0  0  0
    7.0500   -5.8500   28.5520 Br  0  0  0  0  0  0  0  0  0  0  0  0
    7.8990   -3.7520   26.3580 S   0  0  0  0  0  0  0  0  0  0  0  0
    7.6630   -3.8000   22.9460 C   0  0  1  0  0  0  0  0  0  0  0  0
    7.3630   -4.9630   23.7140 C   0  0  0  0  0  0  0  0  0  0  0  0
    6.2560   -3.3270   22.4810 C   0  0  0  0  0  0  0  0  0  0  0  0
  1  2  1  0
  2  3  1  0
  3  4  2  0
  3  5  1  0
  5  6  1  0
  6  7  1  0
  7  8  1  0
  8  9  1  0
  9 10  1  0
 10 11  2  0
 11 12  1  0
 12 13  2  0
 13 14  1  0
 10 15  1  0
 13 15  1  0
  8 16  1  0
 16 17  1  1
  5 18  1  0
 16 18  1  0
M  END
