JOH-UNI-9dc98897-10-chloroacetamide
     RDKit          3D

 20 21  0  0  0  0  0  0  0  0999 V2000
    7.0270   -4.1460   20.1820 C   0  0  0  0  0  0  0  0  0  0  0  0
    6.4880   -2.7230   19.8790 C   0  0  0  0  0  0  0  0  0  0  0  0
    5.8650   -3.2730   18.9730 O   0  0  0  0  0  0  0  0  0  0  0  0
    7.3740   -2.5840   21.0250 C   0  0  0  0  0  0  0  0  0  0  0  0
    7.1550   -3.3680   22.0640 C   0  0  0  0  0  0  0  0  0  0  0  0
    8.0560   -3.1860   22.9980 C   0  0  0  0  0  0  0  0  0  0  0  0
    9.1010   -2.2610   22.8770 C   0  0  0  0  0  0  0  0  0  0  0  0
    9.8430   -2.3480   24.0220 N   0  0  0  0  0  0  0  0  0  0  0  0
   10.5980   -3.6010   24.1950 C   0  0  0  0  0  0  0  0  0  0  0  0
    9.7250   -4.8060   24.5820 C   0  0  0  0  0  0  0  0  0  0  0  0
    9.5670   -4.9470   26.0910 C   0  0  0  0  0  0  0  0  0  0  0  0
    8.9250   -3.8380   26.6940 O   0  0  0  0  0  0  0  0  0  0  0  0
    8.1480   -3.0420   25.8030 C   0  0  0  0  0  0  0  0  0  0  0  0
    8.9700   -1.9290   25.1110 C   0  0  0  0  0  0  0  0  0  0  0  0
    9.4230   -1.3190   21.7720 C   0  0  0  0  0  0  0  0  0  0  0  0
   10.5250   -1.0260   22.7910 C   0  0  0  0  0  0  0  0  0  0  0  0
   11.1510    0.1570   22.5150 F   0  0  0  0  0  0  0  0  0  0  0  0
   11.5550   -1.9300   22.8060 F   0  0  0  0  0  0  0  0  0  0  0  0
   10.1020   -0.8430   24.0710 F   0  0  0  0  0  0  0  0  0  0  0  0
    8.3640   -1.6940   20.9410 N   0  0  0  0  0  0  0  0  0  0  0  0
  1  2  1  0
  2  3  2  0
  2  4  1  0
  4  5  2  0
  5  6  1  0
  6  7  2  0
  7  8  1  0
  8  9  1  0
  9 10  1  0
 10 11  1  0
 11 12  1  0
 12 13  1  0
  8 14  1  0
 13 14  1  0
  7 15  1  0
 15 16  1  0
 16 17  1  0
 16 18  1  0
 16 19  1  0
  4 20  1  0
 15 20  2  0
M  END
