JOH-UNI-27ac80fd-4-nitrile
     RDKit          3D

 16 17  0  0  0  0  0  0  0  0999 V2000
    6.8890   -3.7330   19.8340 C   0  0  0  0  0  0  0  0  0  0  0  0
    6.0020   -4.6670   19.9910 N   0  0  0  0  0  0  0  0  0  0  0  0
    6.5540   -2.4100   20.1060 N   0  0  0  0  0  0  0  0  0  0  0  0
    7.4320   -1.2610   19.9370 C   0  0  0  0  0  0  0  0  0  0  0  0
    8.2820   -1.0580   21.2160 C   0  0  0  0  0  0  0  0  0  0  0  0
    7.5980   -1.3550   22.4990 N   0  0  0  0  0  0  0  0  0  0  0  0
    8.5340   -1.6190   23.6090 C   0  0  0  0  0  0  0  0  0  0  0  0
    8.3850   -2.8790   24.1590 N   0  0  0  0  0  0  0  0  0  0  0  0
    8.9550   -4.0970   23.7380 C   0  0  0  0  0  0  0  0  0  0  0  0
    8.2360   -5.2960   23.7770 C   0  0  0  0  0  0  0  0  0  0  0  0
    6.9290   -5.1840   24.2420 C   0  0  0  0  0  0  0  0  0  0  0  0
    6.8920   -4.9000   25.6360 O   0  0  0  0  0  0  0  0  0  0  0  0
    6.8160   -3.5030   25.9370 C   0  0  0  0  0  0  0  0  0  0  0  0
    7.9920   -2.8310   25.5790 C   0  0  0  0  0  0  0  0  0  0  0  0
    6.3820   -2.2310   22.4380 C   0  0  0  0  0  0  0  0  0  0  0  0
    5.6420   -2.1440   21.2560 C   0  0  0  0  0  0  0  0  0  0  0  0
  1  2  2  3
  1  3  1  0
  3  4  1  0
  4  5  1  0
  5  6  1  0
  6  7  1  0
  7  8  1  0
  8  9  1  0
  9 10  1  0
 10 11  1  0
 11 12  1  0
 12 13  1  0
  8 14  1  0
 13 14  1  0
  6 15  1  0
  3 16  1  0
 15 16  1  0
M  END
