JOH-UNI-27ac80fd-10-acrylamide
     RDKit          3D

 19 20  0  0  0  0  0  0  0  0999 V2000
    7.5320   -2.9270   18.5650 C   0  0  0  0  0  0  0  0  0  0  0  0
    6.9330   -2.2540   19.7640 C   0  0  0  0  0  0  0  0  0  0  0  0
    5.7530   -2.9920   20.3740 C   0  0  0  0  0  0  0  0  0  0  0  0
    5.1180   -3.9340   19.8510 O   0  0  0  0  0  0  0  0  0  0  0  0
    5.4400   -2.5290   21.6260 N   0  0  0  0  0  0  0  0  0  0  0  0
    5.9820   -1.2520   22.1160 C   0  0  0  0  0  0  0  0  0  0  0  0
    7.3520   -1.4190   22.7530 C   0  0  0  0  0  0  0  0  0  0  0  0
    7.3430   -2.3930   23.8580 N   0  0  0  0  0  0  0  0  0  0  0  0
    8.6700   -2.4840   24.5020 C   0  0  0  0  0  0  0  0  0  0  0  0
    8.8430   -3.5630   25.3480 N   0  0  0  0  0  0  0  0  0  0  0  0
    9.7260   -4.7250   25.1120 C   0  0  0  0  0  0  0  0  0  0  0  0
    8.9990   -5.5090   24.2570 C   0  0  0  0  0  0  0  0  0  0  0  0
    7.6410   -5.5230   24.5020 C   0  0  0  0  0  0  0  0  0  0  0  0
    7.2790   -5.7530   25.6500 O   0  0  0  0  0  0  0  0  0  0  0  0
    6.8830   -4.6010   26.3850 C   0  0  0  0  0  0  0  0  0  0  0  0
    7.9240   -3.6760   26.5110 C   0  0  0  0  0  0  0  0  0  0  0  0
    6.6760   -3.6500   23.4590 C   0  0  2  0  0  0  0  0  0  0  0  0
    7.2760   -4.3980   22.2390 C   0  0  0  0  0  0  0  0  0  0  0  0
    5.3590   -3.5450   22.6630 C   0  0  0  0  0  0  0  0  0  0  0  0
  1  2  1  0
  2  3  1  0
  3  4  2  0
  3  5  1  0
  5  6  1  0
  6  7  1  0
  7  8  1  0
  8  9  1  0
  9 10  1  0
 10 11  1  0
 11 12  1  0
 12 13  1  0
 13 14  1  0
 14 15  1  0
 10 16  1  0
 15 16  1  0
  8 17  1  0
 17 18  1  6
  5 19  1  0
 17 19  1  0
M  END
