JOH-UNI-522b0723-4-chloroacetamide
     RDKit          3D

 17 18  0  0  0  0  0  0  0  0999 V2000
    7.7030   -2.8860   18.8380 C   0  0  0  0  0  0  0  0  0  0  0  0
    6.8580   -3.1410   20.0230 C   0  0  0  0  0  0  0  0  0  0  0  0
    5.7670   -3.7410   19.7280 O   0  0  0  0  0  0  0  0  0  0  0  0
    7.3510   -2.8940   21.4560 C   0  0  0  0  0  0  0  0  0  0  0  0
    6.7460   -1.8930   22.4480 C   0  0  0  0  0  0  0  0  0  0  0  0
    7.3640   -1.9000   23.8740 C   0  0  0  0  0  0  0  0  0  0  0  0
    8.4990   -2.9020   24.1150 C   0  0  0  0  0  0  0  0  0  0  0  0
    9.0710   -3.0640   25.3590 N   0  0  0  0  0  0  0  0  0  0  0  0
    8.0800   -3.6690   26.2630 C   0  0  0  0  0  0  0  0  0  0  0  0
    7.9590   -4.8830   25.6600 C   0  0  0  0  0  0  0  0  0  0  0  0
    8.2930   -5.6420   24.8780 N   0  0  0  0  0  0  0  0  0  0  0  0
    7.6800   -5.7230   23.5340 C   0  0  0  0  0  0  0  0  0  0  0  0
    9.7320   -5.3610   24.7320 C   0  0  0  0  0  0  0  0  0  0  0  0
   10.1810   -4.0190   25.3210 C   0  0  1  0  0  0  0  0  0  0  0  0
   11.2730   -3.3580   24.7670 C   0  0  0  0  0  0  0  0  0  0  0  0
    8.9500   -3.6990   23.0700 C   0  0  0  0  0  0  0  0  0  0  0  0
    8.4680   -3.7490   21.8070 N   0  0  0  0  0  0  0  0  0  0  0  0
  1  2  1  0
  2  3  2  0
  2  4  1  0
  4  5  2  0
  5  6  1  0
  6  7  2  0
  7  8  1  0
  8  9  1  0
  9 10  1  0
 10 11  1  0
 11 12  1  0
 11 13  1  0
  8 14  1  0
 13 14  1  0
 14 15  1  6
  7 16  1  0
  4 17  1  0
 16 17  2  0
M  END
