JOH-MSK-a63bdd1d-10
     RDKit          3D

 14 15  0  0  0  0  0  0  0  0999 V2000
   11.9510    5.9840   21.8570 C   0  0  0  0  0  0  0  0  0  0  0  0
   11.6230    5.7540   23.1720 N   0  0  0  0  0  0  0  0  0  0  0  0
   10.3380    5.7320   23.6060 C   0  0  0  0  0  0  0  0  0  0  0  0
   12.2020    4.8450   23.7890 C   0  0  0  0  0  0  0  0  0  0  0  0
   12.5380    3.6630   22.8640 C   0  0  0  0  0  0  0  0  0  0  0  0
   11.7110    2.4500   23.3080 C   0  0  0  0  0  0  0  0  0  0  0  0
   10.3910    2.5260   24.0350 C   0  0  0  0  0  0  0  0  0  0  0  0
   10.0000    1.2060   24.2230 N   0  0  0  0  0  0  0  0  0  0  0  0
   10.9220    0.3070   23.6980 C   0  0  0  0  0  0  0  0  0  0  0  0
   10.7830   -1.0780   23.7340 C   0  0  0  0  0  0  0  0  0  0  0  0
   11.7960   -1.8520   23.1570 C   0  0  0  0  0  0  0  0  0  0  0  0
   12.9100   -1.2330   22.5740 C   0  0  0  0  0  0  0  0  0  0  0  0
   13.0290    0.1590   22.5600 C   0  0  0  0  0  0  0  0  0  0  0  0
   12.0300    0.9540   23.1130 C   0  0  0  0  0  0  0  0  0  0  0  0
  1  2  1  0
  2  3  1  0
  2  4  1  0
  4  5  1  0
  5  6  1  0
  6  7  2  0
  7  8  1  0
  8  9  1  0
  9 10  1  0
 10 11  2  0
 11 12  1  0
 12 13  2  0
  6 14  1  0
  9 14  2  0
 13 14  1  0
M  END
