JOH-UNI-522b0723-7-vinylsulfonamide
     RDKit          3D

 28 30  0  0  0  0  0  0  0  0999 V2000
    7.0850   -3.1770   18.8790 C   0  0  0  0  0  0  0  0  0  0  0  0
    7.1850   -1.8650   19.6020 C   0  0  0  0  0  0  0  0  0  0  0  0
    5.8410   -1.8700   20.7520 S   0  0  0  0  0  0  0  0  0  0  0  0
    4.9540   -3.1010   20.5900 O   0  0  0  0  0  0  0  0  0  0  0  0
    5.2930   -0.5280   20.8330 O   0  0  0  0  0  0  0  0  0  0  0  0
    6.9190   -2.1400   22.1040 C   0  0  0  0  0  0  0  0  0  0  0  0
    8.0140   -1.3860   22.1820 N   0  0  0  0  0  0  0  0  0  0  0  0
    8.6730   -1.8200   23.2630 C   0  0  0  0  0  0  0  0  0  0  0  0
    8.9930   -2.5440   24.3820 C   0  0  0  0  0  0  0  0  0  0  0  0
    8.9870   -3.4480   25.4210 N   0  0  0  0  0  0  0  0  0  0  0  0
    9.5870   -4.7660   25.1030 C   0  0  0  0  0  0  0  0  0  0  0  0
    8.6600   -5.5220   24.4050 C   0  0  0  0  0  0  0  0  0  0  0  0
    7.3670   -5.6350   25.1050 N   0  0  0  0  0  0  0  0  0  0  0  0
    7.4110   -4.9980   26.4430 C   0  0  1  0  0  0  0  0  0  0  0  0
    8.3120   -5.8530   27.3780 C   0  0  0  0  0  0  0  0  0  0  0  0
    7.9000   -3.5160   26.4080 C   0  0  2  0  0  0  0  0  0  0  0  0
    6.7810   -2.4600   26.2980 C   0  0  0  0  0  0  0  0  0  0  0  0
    7.7530   -3.2400   24.1450 C   0  0  0  0  0  0  0  0  0  0  0  0
    6.6840   -3.0810   23.0330 C   0  0  0  0  0  0  0  0  0  0  0  0
    5.4440   -4.0090   23.0530 C   0  0  0  0  0  0  0  0  0  0  0  0
    5.4630   -4.9210   22.2300 O   0  0  0  0  0  0  0  0  0  0  0  0
    4.4150   -3.7500   23.9450 N   0  0  0  0  0  0  0  0  0  0  0  0
    4.1030   -2.5190   24.5740 C   0  0  0  0  0  0  0  0  0  0  0  0
    3.0200   -2.5380   25.4600 C   0  0  0  0  0  0  0  0  0  0  0  0
    2.6340   -1.3810   26.1330 C   0  0  0  0  0  0  0  0  0  0  0  0
    3.3270   -0.1960   25.9270 C   0  0  0  0  0  0  0  0  0  0  0  0
    4.4080   -0.1630   25.0450 C   0  0  0  0  0  0  0  0  0  0  0  0
    4.7900   -1.3210   24.3740 C   0  0  0  0  0  0  0  0  0  0  0  0
  1  2  1  0
  3  2  1  0
  3  4  2  0
  3  5  2  0
  3  6  1  0
  6  7  2  0
  7  8  1  0
  8  9  2  0
  9 10  1  0
 10 11  1  0
 11 12  1  0
 12 13  1  0
 13 14  1  0
 14 15  1  1
 10 16  1  0
 14 16  1  0
 16 17  1  6
  9 18  1  0
  6 19  1  0
 18 19  2  0
 19 20  1  0
 20 21  2  0
 20 22  1  0
 22 23  1  0
 23 24  2  0
 24 25  1  0
 25 26  2  0
 26 27  1  0
 23 28  1  0
 27 28  2  0
M  END
