JOH-UNI-abdb2f0c-2-vinylsulfonamide
     RDKit          3D

 27 29  0  0  0  0  0  0  0  0999 V2000
    6.3690   -3.6360   19.2900 C   0  0  0  0  0  0  0  0  0  0  0  0
    6.3070   -2.5400   20.3150 C   0  0  0  0  0  0  0  0  0  0  0  0
    6.0480   -3.1660   21.9570 S   0  0  0  0  0  0  0  0  0  0  0  0
    4.6620   -3.6100   22.0730 O   0  0  0  0  0  0  0  0  0  0  0  0
    7.1340   -4.0840   22.3200 O   0  0  0  0  0  0  0  0  0  0  0  0
    6.2830   -1.6240   22.8140 C   0  0  0  0  0  0  0  0  0  0  0  0
    7.6010   -1.1540   22.8840 N   0  0  0  0  0  0  0  0  0  0  0  0
    7.9870    0.1730   23.5720 C   0  0  0  0  0  0  0  0  0  0  0  0
    6.4750    0.1140   23.7650 C   0  0  0  0  0  0  0  0  0  0  0  0
    6.7370    1.4490   24.4620 N   0  0  0  0  0  0  0  0  0  0  0  0
    6.3450    1.4560   25.8990 C   0  0  0  0  0  0  0  0  0  0  0  0
    5.3340    2.5340   26.2510 C   0  0  0  0  0  0  0  0  0  0  0  0
    5.6730    3.8670   25.9440 C   0  0  0  0  0  0  0  0  0  0  0  0
    7.0430    4.0370   25.6100 O   0  0  0  0  0  0  0  0  0  0  0  0
    7.3480    3.7390   24.2460 C   0  0  0  0  0  0  0  0  0  0  0  0
    7.8120    2.4240   24.1100 C   0  0  0  0  0  0  0  0  0  0  0  0
    5.1270    0.3400   24.0910 C   0  0  0  0  0  0  0  0  0  0  0  0
    5.3350   -0.8370   23.4000 C   0  0  0  0  0  0  0  0  0  0  0  0
    6.5400   -0.2070   23.5460 C   0  0  0  0  0  0  0  0  0  0  0  0
    7.0940   -0.3750   24.6520 O   0  0  0  0  0  0  0  0  0  0  0  0
    6.9520    0.5110   22.3880 N   0  0  0  0  0  0  0  0  0  0  0  0
    6.2700    1.5920   21.7480 C   0  0  0  0  0  0  0  0  0  0  0  0
    5.6670    2.1060   20.6080 C   0  0  0  0  0  0  0  0  0  0  0  0
    5.8560    0.9060   19.6200 C   0  0  0  0  0  0  0  0  0  0  0  0
    5.6160    0.5110   18.3970 C   0  0  0  0  0  0  0  0  0  0  0  0
    5.4340    1.5490   19.1950 N   0  0  0  0  0  0  0  0  0  0  0  0
    6.1050    0.9630   20.4350 C   0  0  0  0  0  0  0  0  0  0  0  0
  1  2  1  0
  3  2  1  0
  3  4  2  0
  3  5  2  0
  3  6  1  0
  6  7  2  0
  7  8  1  0
  8  9  2  0
  9 10  1  0
 10 11  1  0
 11 12  1  0
 12 13  1  0
 13 14  1  0
 14 15  1  0
 10 16  1  0
 15 16  1  0
  9 17  1  0
  6 18  1  0
 17 18  2  0
 18 19  1  0
 19 20  2  0
 19 21  1  0
 21 22  1  0
 22 23  2  0
 23 24  1  0
 24 25  2  0
 25 26  1  0
 22 27  1  0
 26 27  2  0
M  END
