JOH-UNK-14e6adc5-2-chloroacetamide
     RDKit          3D

 19 20  0  0  0  0  0  0  0  0999 V2000
    7.4520   -4.8870   20.8630 C   0  0  0  0  0  0  0  0  0  0  0  0
    7.4120   -3.3990   20.4210 C   0  0  0  0  0  0  0  0  0  0  0  0
    6.6300   -3.2420   19.3800 O   0  0  0  0  0  0  0  0  0  0  0  0
    8.4310   -2.2940   21.0960 C   0  0  0  0  0  0  0  0  0  0  0  0
    8.4180   -1.0290   20.7720 C   0  0  0  0  0  0  0  0  0  0  0  0
    7.3810   -1.4200   20.1490 C   0  0  0  0  0  0  0  0  0  0  0  0
    7.1930   -2.8520   20.5060 C   0  0  0  0  0  0  0  0  0  0  0  0
    6.0110   -3.3010   19.9880 N   0  0  0  0  0  0  0  0  0  0  0  0
    5.0560   -2.8970   21.0060 C   0  0  0  0  0  0  0  0  0  0  0  0
    4.4490   -3.7120   21.7020 O   0  0  0  0  0  0  0  0  0  0  0  0
    4.9520   -1.4840   21.1100 N   0  0  0  0  0  0  0  0  0  0  0  0
    5.0070   -0.5580   20.0680 C   0  0  0  0  0  0  0  0  0  0  0  0
    4.3880    0.6970   20.1210 C   0  0  0  0  0  0  0  0  0  0  0  0
    4.4930    1.6300   18.9790 C   0  0  0  0  0  0  0  0  0  0  0  0
    5.1780    1.3730   17.8050 C   0  0  0  0  0  0  0  0  0  0  0  0
    5.7670    0.1280   17.8060 N   0  0  0  0  0  0  0  0  0  0  0  0
    5.6960   -0.8050   18.8620 C   0  0  0  0  0  0  0  0  0  0  0  0
    8.1440   -3.7120   21.4070 C   0  0  0  0  0  0  0  0  0  0  0  0
    9.1450   -2.9820   21.8400 C   0  0  0  0  0  0  0  0  0  0  0  0
  1  2  1  0
  2  3  2  0
  2  4  1  0
  4  5  2  0
  5  6  1  0
  6  7  2  0
  7  8  1  0
  8  9  1  0
  9 10  2  0
  9 11  1  0
 11 12  1  0
 12 13  2  0
 13 14  1  0
 14 15  2  0
 15 16  1  0
 12 17  1  0
 16 17  2  0
  7 18  1  0
  4 19  1  0
 18 19  2  0
M  END
