JOH-UNI-27ac80fd-23-nitrile
     RDKit          3D

 15 16  0  0  0  0  0  0  0  0999 V2000
    6.8010   -3.5780   19.9740 C   0  0  0  0  0  0  0  0  0  0  0  0
    5.6610   -3.6640   19.4170 N   0  0  0  0  0  0  0  0  0  0  0  0
    6.9310   -2.8050   21.0840 N   0  0  0  0  0  0  0  0  0  0  0  0
    6.4990   -3.2350   22.3880 C   0  0  0  0  0  0  0  0  0  0  0  0
    7.6010   -3.7560   23.0690 C   0  0  0  0  0  0  0  0  0  0  0  0
    8.5020   -2.6040   23.3640 N   0  0  0  0  0  0  0  0  0  0  0  0
    9.6540   -3.0620   24.1650 C   0  0  0  0  0  0  0  0  0  0  0  0
    9.2180   -3.9370   25.1680 C   0  0  0  0  0  0  0  0  0  0  0  0
    9.8770   -5.2910   25.3390 C   0  0  0  0  0  0  0  0  0  0  0  0
    9.2330   -6.0380   26.4560 C   0  0  0  0  0  0  0  0  0  0  0  0
    8.1160   -5.2820   27.1200 C   0  0  0  0  0  0  0  0  0  0  0  0
    7.0340   -5.8810   28.5660 Br  0  0  0  0  0  0  0  0  0  0  0  0
    7.8960   -3.6720   26.3540 S   0  0  0  0  0  0  0  0  0  0  0  0
    8.8900   -2.0250   22.2070 C   0  0  0  0  0  0  0  0  0  0  0  0
    7.8290   -1.6140   21.1700 C   0  0  0  0  0  0  0  0  0  0  0  0
  1  2  2  3
  1  3  1  0
  3  4  1  0
  4  5  1  0
  5  6  1  0
  6  7  1  0
  7  8  1  0
  8  9  2  0
  9 10  1  0
 10 11  2  0
 11 12  1  0
  8 13  1  0
 11 13  1  0
  6 14  1  0
  3 15  1  0
 14 15  1  0
M  END
