JOH-UNI-27ac80fd-10-nitrile
     RDKit          3D

 17 18  0  0  0  0  0  0  0  0999 V2000
    6.9690   -3.4320   19.9130 C   0  0  0  0  0  0  0  0  0  0  0  0
    5.8400   -3.7610   19.4300 N   0  0  0  0  0  0  0  0  0  0  0  0
    7.1160   -2.7420   21.1020 N   0  0  0  0  0  0  0  0  0  0  0  0
    6.1480   -2.8880   22.1880 C   0  0  0  0  0  0  0  0  0  0  0  0
    6.7850   -2.4140   23.5090 C   0  0  0  0  0  0  0  0  0  0  0  0
    8.2570   -2.3770   23.4640 N   0  0  0  0  0  0  0  0  0  0  0  0
    8.9560   -2.5110   24.7600 C   0  0  0  0  0  0  0  0  0  0  0  0
    8.9210   -3.7930   25.2740 N   0  0  0  0  0  0  0  0  0  0  0  0
    9.2410   -4.9900   24.6080 C   0  0  0  0  0  0  0  0  0  0  0  0
    8.3970   -5.5180   23.6290 C   0  0  0  0  0  0  0  0  0  0  0  0
    7.0480   -5.5060   23.9550 C   0  0  0  0  0  0  0  0  0  0  0  0
    6.8620   -5.7100   25.3520 O   0  0  0  0  0  0  0  0  0  0  0  0
    6.7240   -4.5340   26.1450 C   0  0  0  0  0  0  0  0  0  0  0  0
    7.9460   -3.8990   26.3840 C   0  0  0  0  0  0  0  0  0  0  0  0
    8.8520   -1.6150   22.3300 C   0  0  1  0  0  0  0  0  0  0  0  0
   10.1310   -2.1080   22.0550 C   0  0  0  0  0  0  0  0  0  0  0  0
    7.9510   -1.5290   21.2500 C   0  0  0  0  0  0  0  0  0  0  0  0
  1  2  2  3
  1  3  1  0
  3  4  1  0
  4  5  1  0
  5  6  1  0
  6  7  1  0
  7  8  1  0
  8  9  1  0
  9 10  1  0
 10 11  1  0
 11 12  1  0
 12 13  1  0
  8 14  1  0
 13 14  1  0
  6 15  1  0
 15 16  1  6
  3 17  1  0
 15 17  1  0
M  END
