JOH-UNI-abdb2f0c-2-chloroacetamide
     RDKit          3D

 25 27  0  0  0  0  0  0  0  0999 V2000
    8.3740   -3.8350   20.1410 C   0  0  0  0  0  0  0  0  0  0  0  0
    7.5640   -2.7080   19.9590 C   0  0  0  0  0  0  0  0  0  0  0  0
    6.4730   -2.8100   19.1750 O   0  0  0  0  0  0  0  0  0  0  0  0
    8.5560   -1.9380   20.8570 C   0  0  0  0  0  0  0  0  0  0  0  0
    9.1010   -1.1900   21.6700 N   0  0  0  0  0  0  0  0  0  0  0  0
   10.4130   -1.3160   21.7880 C   0  0  0  0  0  0  0  0  0  0  0  0
   10.6550   -0.3950   22.7860 C   0  0  0  0  0  0  0  0  0  0  0  0
   10.4650    0.5960   23.7780 N   0  0  0  0  0  0  0  0  0  0  0  0
   11.3570   -0.0940   24.7220 C   0  0  0  0  0  0  0  0  0  0  0  0
   12.0720   -1.2220   24.0400 C   0  0  0  0  0  0  0  0  0  0  0  0
   12.8650   -0.7660   22.9710 C   0  0  0  0  0  0  0  0  0  0  0  0
   12.4270    0.4210   22.2910 O   0  0  0  0  0  0  0  0  0  0  0  0
   12.3300    1.6560   23.0180 C   0  0  0  0  0  0  0  0  0  0  0  0
   11.0290    1.8950   23.4390 C   0  0  0  0  0  0  0  0  0  0  0  0
    9.1220   -0.2880   22.5870 C   0  0  0  0  0  0  0  0  0  0  0  0
    8.0590   -0.9700   21.6970 C   0  0  0  0  0  0  0  0  0  0  0  0
    6.7940   -0.5360   21.8580 C   0  0  0  0  0  0  0  0  0  0  0  0
    6.6190    0.1920   22.8200 O   0  0  0  0  0  0  0  0  0  0  0  0
    5.8990   -0.9020   20.9240 N   0  0  0  0  0  0  0  0  0  0  0  0
    5.5850   -0.0350   19.8860 C   0  0  0  0  0  0  0  0  0  0  0  0
    4.4450    0.9580   19.9200 C   0  0  0  0  0  0  0  0  0  0  0  0
    4.2390    1.8460   18.7150 C   0  0  0  0  0  0  0  0  0  0  0  0
    5.1260    1.6680   17.6650 C   0  0  0  0  0  0  0  0  0  0  0  0
    6.1450    0.7650   17.6490 N   0  0  0  0  0  0  0  0  0  0  0  0
    6.3500   -0.0410   18.7240 C   0  0  0  0  0  0  0  0  0  0  0  0
  1  2  1  0
  2  3  2  0
  2  4  1  0
  4  5  2  0
  5  6  1  0
  6  7  2  0
  7  8  1  0
  8  9  1  0
  9 10  1  0
 10 11  1  0
 11 12  1  0
 12 13  1  0
  8 14  1  0
 13 14  1  0
  7 15  1  0
  4 16  1  0
 15 16  2  0
 16 17  1  0
 17 18  2  0
 17 19  1  0
 19 20  1  0
 20 21  2  0
 21 22  1  0
 22 23  2  0
 23 24  1  0
 20 25  1  0
 24 25  2  0
M  END
