JOH-UNI-27ac80fd-34-nitrile
     RDKit          3D

 18 20  0  0  0  0  0  0  0  0999 V2000
    6.8480   -3.3830   19.8490 C   0  0  0  0  0  0  0  0  0  0  0  0
    5.7210   -3.6960   19.3670 N   0  0  0  0  0  0  0  0  0  0  0  0
    6.9390   -2.7860   21.0790 N   0  0  0  0  0  0  0  0  0  0  0  0
    6.4550   -3.4270   22.2990 C   0  0  0  0  0  0  0  0  0  0  0  0
    7.6480   -3.6870   23.2270 C   0  0  0  0  0  0  0  0  0  0  0  0
    8.5220   -2.5010   23.3920 N   0  0  0  0  0  0  0  0  0  0  0  0
    9.6510   -2.8400   24.2830 C   0  0  1  0  0  0  0  0  0  0  0  0
    9.2060   -3.9060   25.2850 C   0  0  0  0  0  0  0  0  0  0  0  0
    9.7890   -5.2910   25.4160 C   0  0  0  0  0  0  0  0  0  0  0  0
    9.1070   -6.0400   26.5040 C   0  0  0  0  0  0  0  0  0  0  0  0
    8.1030   -5.3000   27.1340 C   0  0  0  0  0  0  0  0  0  0  0  0
    7.0040   -5.9120   28.5600 Br  0  0  0  0  0  0  0  0  0  0  0  0
    7.9060   -3.6710   26.4720 S   0  0  0  0  0  0  0  0  0  0  0  0
   10.8000   -3.1700   23.6190 C   0  0  0  0  0  0  0  0  0  0  0  0
   11.3990   -2.3090   24.3600 C   0  0  0  0  0  0  0  0  0  0  0  0
   10.3800   -1.8950   24.8860 O   0  0  0  0  0  0  0  0  0  0  0  0
    8.9300   -2.0840   22.1460 C   0  0  0  0  0  0  0  0  0  0  0  0
    7.8550   -1.6470   21.3450 C   0  0  0  0  0  0  0  0  0  0  0  0
  1  2  2  3
  1  3  1  0
  3  4  1  0
  4  5  1  0
  5  6  1  0
  6  7  1  0
  7  8  1  1
  8  9  2  0
  9 10  1  0
 10 11  2  0
 11 12  1  0
  8 13  1  0
 11 13  1  0
  7 14  1  0
 14 15  1  0
  7 16  1  0
 15 16  1  0
  6 17  1  0
  3 18  1  0
 17 18  1  0
M  END
