JOH-UNI-27ac80fd-34-vinylsulfonamide
     RDKit          3D

 21 23  0  0  0  0  0  0  0  0999 V2000
    8.0430   -3.4870   19.5740 C   0  0  0  0  0  0  0  0  0  0  0  0
    6.9180   -2.7960   18.8690 C   0  0  0  0  0  0  0  0  0  0  0  0
    5.7340   -3.3760   20.0000 S   0  0  0  0  0  0  0  0  0  0  0  0
    4.4480   -2.9470   19.6830 O   0  0  0  0  0  0  0  0  0  0  0  0
    5.8410   -4.7970   20.0370 O   0  0  0  0  0  0  0  0  0  0  0  0
    6.3510   -2.6720   21.4290 N   0  0  0  0  0  0  0  0  0  0  0  0
    6.1580   -3.4610   22.6310 C   0  0  0  0  0  0  0  0  0  0  0  0
    7.5000   -3.9280   23.2130 C   0  0  0  0  0  0  0  0  0  0  0  0
    8.6030   -2.9540   23.0570 N   0  0  0  0  0  0  0  0  0  0  0  0
    9.6140   -2.9830   24.1450 C   0  0  2  0  0  0  0  0  0  0  0  0
    9.1860   -3.9670   25.2210 C   0  0  0  0  0  0  0  0  0  0  0  0
    9.8260   -5.3000   25.4600 C   0  0  0  0  0  0  0  0  0  0  0  0
    9.2000   -5.9570   26.5060 C   0  0  0  0  0  0  0  0  0  0  0  0
    8.1540   -5.2560   27.0850 C   0  0  0  0  0  0  0  0  0  0  0  0
    7.0780   -5.8630   28.5330 Br  0  0  0  0  0  0  0  0  0  0  0  0
    7.8980   -3.7420   26.3550 S   0  0  0  0  0  0  0  0  0  0  0  0
    9.9080   -1.7340   24.5890 C   0  0  0  0  0  0  0  0  0  0  0  0
   11.1610   -1.9170   24.3600 C   0  0  0  0  0  0  0  0  0  0  0  0
   10.9260   -3.0750   23.9600 O   0  0  0  0  0  0  0  0  0  0  0  0
    8.2500   -1.6460   22.4470 C   0  0  0  0  0  0  0  0  0  0  0  0
    7.4090   -1.6370   21.3200 C   0  0  0  0  0  0  0  0  0  0  0  0
  1  2  1  0
  3  2  1  0
  3  4  2  0
  3  5  2  0
  3  6  1  0
  6  7  1  0
  7  8  1  0
  8  9  1  0
  9 10  1  0
 10 11  1  1
 11 12  2  0
 12 13  1  0
 13 14  2  0
 14 15  1  0
 11 16  1  0
 14 16  1  0
 10 17  1  0
 17 18  1  0
 10 19  1  0
 18 19  1  0
  9 20  1  0
  6 21  1  0
 20 21  1  0
M  END
