JOH-UNK-14e6adc5-5
     RDKit          3D

 28 30  0  0  0  0  0  0  0  0999 V2000
   13.2670   -3.2260   20.7880 C   0  0  0  0  0  0  0  0  0  0  0  0
   12.6720   -2.3820   21.8470 C   0  0  0  0  0  0  0  0  0  0  0  0
   11.5570   -1.7180   21.4250 N   0  0  0  0  0  0  0  0  0  0  0  0
   10.4110   -1.6800   22.2640 C   0  0  0  0  0  0  0  0  0  0  0  0
    9.3310   -2.3680   21.8860 C   0  0  0  0  0  0  0  0  0  0  0  0
    8.3470   -2.2620   22.7500 C   0  0  0  0  0  0  0  0  0  0  0  0
    8.4630   -1.5030   23.9080 C   0  0  0  0  0  0  0  0  0  0  0  0
    7.3680   -1.5030   24.6850 F   0  0  0  0  0  0  0  0  0  0  0  0
    9.5930   -0.7270   24.3700 C   0  0  0  0  0  0  0  0  0  0  0  0
   10.9540    0.0230   24.6280 C   0  0  0  0  0  0  0  0  0  0  0  0
   12.0410    0.0630   23.6900 C   0  0  0  0  0  0  0  0  0  0  0  0
   12.6620   -0.9340   24.0600 C   0  0  0  0  0  0  0  0  0  0  0  0
   11.8530   -1.2300   24.9320 C   0  0  0  0  0  0  0  0  0  0  0  0
   10.8180   -0.0160   24.6770 C   0  0  0  0  0  0  0  0  0  0  0  0
   10.6670    1.3160   23.6450 C   0  0  0  0  0  0  0  0  0  0  0  0
    9.5230    1.4870   24.3530 N   0  0  0  0  0  0  0  0  0  0  0  0
    8.4090    2.1390   23.6690 C   0  0  0  0  0  0  0  0  0  0  0  0
    8.2440    1.8200   22.2800 C   0  0  0  0  0  0  0  0  0  0  0  0
    8.8750    2.4900   21.4490 O   0  0  0  0  0  0  0  0  0  0  0  0
    7.3530    0.7180   21.8990 N   0  0  0  0  0  0  0  0  0  0  0  0
    6.6880    0.8870   20.5960 C   0  0  0  0  0  0  0  0  0  0  0  0
    5.7220    1.8830   20.4800 C   0  0  0  0  0  0  0  0  0  0  0  0
    5.0900    2.0400   19.2600 C   0  0  0  0  0  0  0  0  0  0  0  0
    5.4110    1.2300   18.1840 C   0  0  0  0  0  0  0  0  0  0  0  0
    6.3490    0.2440   18.2390 N   0  0  0  0  0  0  0  0  0  0  0  0
    6.9680    0.0950   19.4640 C   0  0  0  0  0  0  0  0  0  0  0  0
   11.8690    0.9990   23.0180 C   0  0  0  0  0  0  0  0  0  0  0  0
   10.4780   -0.9730   23.3600 N   0  0  0  0  0  0  0  0  0  0  0  0
  1  2  1  0
  2  3  1  0
  3  4  1  0
  4  5  2  0
  5  6  1  0
  6  7  2  0
  7  8  1  0
  7  9  1  0
  9 10  1  0
 10 11  1  0
 11 12  2  0
 12 13  1  0
 13 14  2  0
 14 15  1  0
 15 16  1  0
 16 17  1  0
 17 18  1  0
 18 19  2  0
 18 20  1  0
 20 21  1  0
 21 22  2  0
 22 23  1  0
 23 24  2  0
 24 25  1  0
 21 26  1  0
 25 26  2  0
 11 27  1  0
 15 27  2  0
  4 28  1  0
  9 28  2  0
M  END
