JOH-UNI-522b0723-13-chloroacetamide
     RDKit          3D

 26 28  0  0  0  0  0  0  0  0999 V2000
    8.5640   -3.5590   20.4440 C   0  0  0  0  0  0  0  0  0  0  0  0
    7.5860   -2.3410   20.1040 C   0  0  0  0  0  0  0  0  0  0  0  0
    7.2710   -2.9460   18.9380 O   0  0  0  0  0  0  0  0  0  0  0  0
    8.1160   -2.3560   21.5710 C   0  0  0  0  0  0  0  0  0  0  0  0
    9.2770   -3.0690   21.7820 N   0  0  0  0  0  0  0  0  0  0  0  0
    9.7000   -3.3450   23.1530 C   0  0  0  0  0  0  0  0  0  0  0  0
    8.7980   -2.7980   24.2400 C   0  0  0  0  0  0  0  0  0  0  0  0
    9.0930   -3.1830   25.6010 N   0  0  0  0  0  0  0  0  0  0  0  0
    7.9380   -3.2400   26.3740 C   0  0  0  0  0  0  0  0  0  0  0  0
    6.9620   -4.3600   25.9550 C   0  0  0  0  0  0  0  0  0  0  0  0
    7.4060   -5.4920   25.7580 O   0  0  0  0  0  0  0  0  0  0  0  0
    8.7150   -5.4840   25.1350 C   0  0  1  0  0  0  0  0  0  0  0  0
    8.4020   -5.3180   23.7810 C   0  0  0  0  0  0  0  0  0  0  0  0
    9.5040   -4.5420   25.8320 C   0  0  1  0  0  0  0  0  0  0  0  0
   10.9270   -4.6720   25.7760 C   0  0  0  0  0  0  0  0  0  0  0  0
    7.7220   -2.0080   23.9130 C   0  0  0  0  0  0  0  0  0  0  0  0
    7.3570   -1.7630   22.5920 C   0  0  0  0  0  0  0  0  0  0  0  0
    6.1070   -0.9220   22.3730 C   0  0  0  0  0  0  0  0  0  0  0  0
    5.0140   -1.4300   22.1710 O   0  0  0  0  0  0  0  0  0  0  0  0
    6.3720    0.4410   22.4290 N   0  0  0  0  0  0  0  0  0  0  0  0
    7.6090    1.0460   22.7660 C   0  0  0  0  0  0  0  0  0  0  0  0
    8.1780    0.8470   24.0120 C   0  0  0  0  0  0  0  0  0  0  0  0
    9.3810    1.3990   24.4130 C   0  0  0  0  0  0  0  0  0  0  0  0
   10.0750    2.2100   23.5240 C   0  0  0  0  0  0  0  0  0  0  0  0
    9.5410    2.4420   22.2570 C   0  0  0  0  0  0  0  0  0  0  0  0
    8.3100    1.8650   21.8710 C   0  0  0  0  0  0  0  0  0  0  0  0
  1  2  1  0
  2  3  2  0
  2  4  1  0
  4  5  2  0
  5  6  1  0
  6  7  2  0
  7  8  1  0
  8  9  1  0
  9 10  1  0
 10 11  1  0
 11 12  1  0
 12 13  1  6
  8 14  1  0
 12 14  1  0
 14 15  1  6
  7 16  1  0
  4 17  1  0
 16 17  2  0
 17 18  1  0
 18 19  2  0
 18 20  1  0
 20 21  1  0
 21 22  2  0
 22 23  1  0
 23 24  2  0
 24 25  1  0
 21 26  1  0
 25 26  2  0
M  END
