JOH-UNI-522b0723-3-vinylsulfonamide
     RDKit          3D

 18 19  0  0  0  0  0  0  0  0999 V2000
    7.2500   -3.0830   19.0140 C   0  0  0  0  0  0  0  0  0  0  0  0
    7.4370   -1.8340   19.9190 C   0  0  0  0  0  0  0  0  0  0  0  0
    6.0540   -1.8660   21.0530 S   0  0  0  0  0  0  0  0  0  0  0  0
    4.9750   -3.0820   20.8780 O   0  0  0  0  0  0  0  0  0  0  0  0
    5.5840   -0.5000   21.1130 O   0  0  0  0  0  0  0  0  0  0  0  0
    7.0670   -2.0830   22.5080 C   0  0  0  0  0  0  0  0  0  0  0  0
    6.8370   -1.3660   23.8220 C   0  0  0  0  0  0  0  0  0  0  0  0
    7.7060   -1.7640   24.9930 C   0  0  0  0  0  0  0  0  0  0  0  0
    8.7260   -2.8430   24.7280 C   0  0  0  0  0  0  0  0  0  0  0  0
    9.5000   -3.3600   25.7150 N   0  0  0  0  0  0  0  0  0  0  0  0
    8.6650   -4.0590   26.7150 C   0  0  0  0  0  0  0  0  0  0  0  0
    8.2590   -5.0690   25.8920 C   0  0  0  0  0  0  0  0  0  0  0  0
    8.3730   -5.5570   24.8710 N   0  0  0  0  0  0  0  0  0  0  0  0
    9.6770   -5.2200   24.2680 C   0  0  0  0  0  0  0  0  0  0  0  0
   10.4290   -4.3060   25.1030 C   0  0  1  0  0  0  0  0  0  0  0  0
   11.4370   -3.3610   24.5210 C   0  0  0  0  0  0  0  0  0  0  0  0
    8.8720   -3.3730   23.4180 C   0  0  0  0  0  0  0  0  0  0  0  0
    8.1400   -3.0580   22.3420 N   0  0  0  0  0  0  0  0  0  0  0  0
  1  2  1  0
  3  2  1  0
  3  4  2  0
  3  5  2  0
  3  6  1  0
  6  7  2  0
  7  8  1  0
  8  9  2  0
  9 10  1  0
 10 11  1  0
 11 12  1  0
 12 13  1  0
 13 14  1  0
 10 15  1  0
 14 15  1  0
 15 16  1  6
  9 17  1  0
  6 18  1  0
 17 18  2  0
M  END
