JOH-UNI-27ac80fd-29-nitrile
     RDKit          3D

 16 17  0  0  0  0  0  0  0  0999 V2000
    6.8770   -3.3600   19.8000 C   0  0  0  0  0  0  0  0  0  0  0  0
    5.7550   -3.6210   19.2730 N   0  0  0  0  0  0  0  0  0  0  0  0
    6.9740   -2.8980   21.0920 N   0  0  0  0  0  0  0  0  0  0  0  0
    6.4850   -3.6970   22.1990 C   0  0  0  0  0  0  0  0  0  0  0  0
    7.6250   -3.7810   23.2120 C   0  0  0  0  0  0  0  0  0  0  0  0
    8.4720   -2.5640   23.2730 N   0  0  0  0  0  0  0  0  0  0  0  0
    9.6410   -2.8970   24.0970 C   0  0  0  0  0  0  0  0  0  0  0  0
    9.2580   -3.9430   25.1570 C   0  0  0  0  0  0  0  0  0  0  0  0
    9.8700   -5.3040   25.3540 C   0  0  0  0  0  0  0  0  0  0  0  0
    9.2230   -6.0400   26.4790 C   0  0  0  0  0  0  0  0  0  0  0  0
    8.2060   -5.2790   27.0710 C   0  0  0  0  0  0  0  0  0  0  0  0
    7.1230   -5.8480   28.5300 Br  0  0  0  0  0  0  0  0  0  0  0  0
    7.9680   -3.6840   26.3460 S   0  0  0  0  0  0  0  0  0  0  0  0
    8.7870   -2.0090   22.0330 C   0  0  0  0  0  0  0  0  0  0  0  0
    7.5190   -1.6940   21.5130 C   0  0  1  0  0  0  0  0  0  0  0  0
    7.4880   -0.8930   20.3530 C   0  0  0  0  0  0  0  0  0  0  0  0
  1  2  2  3
  1  3  1  0
  3  4  1  0
  4  5  1  0
  5  6  1  0
  6  7  1  0
  7  8  1  0
  8  9  2  0
  9 10  1  0
 10 11  2  0
 11 12  1  0
  8 13  1  0
 11 13  1  0
  6 14  1  0
  3 15  1  0
 14 15  1  0
 15 16  1  6
M  END
