JOH-UNI-27ac80fd-15-vinylsulfonamide
     RDKit          3D

 21 23  0  0  0  0  0  0  0  0999 V2000
    7.2820   -2.7670   18.3120 C   0  0  0  0  0  0  0  0  0  0  0  0
    6.4690   -2.1330   19.4010 C   0  0  0  0  0  0  0  0  0  0  0  0
    5.7080   -3.3440   20.4060 S   0  0  0  0  0  0  0  0  0  0  0  0
    4.6660   -2.8940   21.2420 O   0  0  0  0  0  0  0  0  0  0  0  0
    5.5470   -4.6070   19.7430 O   0  0  0  0  0  0  0  0  0  0  0  0
    6.8970   -3.3300   21.5210 N   0  0  0  0  0  0  0  0  0  0  0  0
    7.5700   -2.0280   21.6530 C   0  0  0  0  0  0  0  0  0  0  0  0
    8.7390   -2.1780   22.3810 C   0  0  0  0  0  0  0  0  0  0  0  0
    8.5140   -2.9400   23.6540 N   0  0  0  0  0  0  0  0  0  0  0  0
    9.7740   -3.1970   24.3530 C   0  0  0  0  0  0  0  0  0  0  0  0
    9.5810   -4.0270   25.5520 N   0  0  0  0  0  0  0  0  0  0  0  0
    9.4690   -5.4540   25.4330 C   0  0  0  0  0  0  0  0  0  0  0  0
    9.4100   -6.0910   26.8260 C   0  0  0  0  0  0  0  0  0  0  0  0
    8.0380   -6.1920   27.5140 C   0  0  0  0  0  0  0  0  0  0  0  0
    7.5470   -5.1470   27.8360 O   0  0  0  0  0  0  0  0  0  0  0  0
    7.3870   -4.3780   26.6760 C   0  0  0  0  0  0  0  0  0  0  0  0
    8.6320   -3.5730   26.4140 C   0  0  0  0  0  0  0  0  0  0  0  0
   10.6560   -2.0660   24.6700 C   0  0  0  0  0  0  0  0  0  0  0  0
   11.2150   -2.9450   23.7460 C   0  0  0  0  0  0  0  0  0  0  0  0
    7.7160   -4.1610   23.5910 C   0  0  0  0  0  0  0  0  0  0  0  0
    6.6410   -3.7770   22.8480 C   0  0  0  0  0  0  0  0  0  0  0  0
  1  2  1  0
  3  2  1  0
  3  4  2  0
  3  5  2  0
  3  6  1  0
  6  7  1  0
  7  8  1  0
  8  9  1  0
 10  9  1  0
 10 11  1  0
 11 12  1  0
 12 13  1  0
 13 14  1  0
 14 15  1  0
 15 16  1  0
 11 17  1  0
 16 17  1  0
 10 18  1  0
 10 19  1  0
 18 19  1  0
  9 20  1  0
  6 21  1  0
 20 21  1  0
M  END
