JOH-UNI-27ac80fd-37-chloroacetamide
     RDKit          3D

 18 20  0  0  0  0  0  0  0  0999 V2000
    7.2990   -2.9510   18.7540 C   0  0  0  0  0  0  0  0  0  0  0  0
    6.3470   -3.2680   19.8660 C   0  0  0  0  0  0  0  0  0  0  0  0
    5.3970   -4.0440   19.7060 O   0  0  0  0  0  0  0  0  0  0  0  0
    6.6150   -2.6580   21.0940 N   0  0  0  0  0  0  0  0  0  0  0  0
    7.5770   -1.5450   21.1780 C   0  0  0  0  0  0  0  0  0  0  0  0
    8.8020   -1.9230   22.0380 C   0  0  0  0  0  0  0  0  0  0  0  0
    8.4050   -2.6600   23.2500 N   0  0  0  0  0  0  0  0  0  0  0  0
    9.5150   -3.0540   24.1220 C   0  0  0  0  0  0  0  0  0  0  0  0
    9.1230   -4.0190   25.2070 C   0  0  0  0  0  0  0  0  0  0  0  0
    9.7540   -5.3700   25.4210 C   0  0  0  0  0  0  0  0  0  0  0  0
    9.1670   -6.0190   26.4830 C   0  0  0  0  0  0  0  0  0  0  0  0
    8.1580   -5.3390   27.1160 C   0  0  0  0  0  0  0  0  0  0  0  0
    7.1190   -5.9290   28.5910 Br  0  0  0  0  0  0  0  0  0  0  0  0
    7.8790   -3.7540   26.3830 S   0  0  0  0  0  0  0  0  0  0  0  0
   10.4220   -1.9830   24.4600 C   0  0  0  0  0  0  0  0  0  0  0  0
   10.9150   -2.8130   23.7030 C   0  0  0  0  0  0  0  0  0  0  0  0
    7.4390   -3.7410   22.9770 C   0  0  0  0  0  0  0  0  0  0  0  0
    6.2690   -3.3430   22.3300 C   0  0  0  0  0  0  0  0  0  0  0  0
  1  2  1  0
  2  3  2  0
  2  4  1  0
  4  5  1  0
  5  6  1  0
  6  7  1  0
  7  8  1  0
  8  9  1  0
  9 10  2  0
 10 11  1  0
 11 12  2  0
 12 13  1  0
  9 14  1  0
 12 14  1  0
  8 15  1  0
  8 16  1  0
 15 16  1  0
  7 17  1  0
  4 18  1  0
 17 18  1  0
M  END
