JOH-UNI-27ac80fd-38-chloroacetamide
     RDKit          3D

 19 20  0  0  0  0  0  0  0  0999 V2000
    7.2680   -2.9620   18.7490 C   0  0  0  0  0  0  0  0  0  0  0  0
    6.2910   -3.2410   19.8510 C   0  0  0  0  0  0  0  0  0  0  0  0
    5.3750   -4.0490   19.6870 O   0  0  0  0  0  0  0  0  0  0  0  0
    6.4960   -2.5710   21.0300 N   0  0  0  0  0  0  0  0  0  0  0  0
    6.3480   -3.2700   22.2920 C   0  0  0  0  0  0  0  0  0  0  0  0
    7.5950   -3.6140   22.7920 C   0  0  0  0  0  0  0  0  0  0  0  0
    8.4700   -2.4140   22.9840 N   0  0  0  0  0  0  0  0  0  0  0  0
    9.6900   -2.7640   23.7390 C   0  0  0  0  0  0  0  0  0  0  0  0
    9.1490   -3.3820   24.9950 C   0  0  0  0  0  0  0  0  0  0  0  0
    9.8170   -4.2780   25.9540 C   0  0  0  0  0  0  0  0  0  0  0  0
    8.8960   -4.6520   27.0550 C   0  0  0  0  0  0  0  0  0  0  0  0
    9.2370   -5.5030   28.1350 C   0  0  0  0  0  0  0  0  0  0  0  0
    9.1140   -6.6150   27.8270 O   0  0  0  0  0  0  0  0  0  0  0  0
    9.4080   -6.6970   26.4480 C   0  0  0  0  0  0  0  0  0  0  0  0
    7.6880   -4.1190   26.9380 C   0  0  0  0  0  0  0  0  0  0  0  0
    6.3570   -4.5160   28.2570 Br  0  0  0  0  0  0  0  0  0  0  0  0
    7.4820   -3.1210   25.5790 S   0  0  0  0  0  0  0  0  0  0  0  0
    8.7440   -1.7370   21.7060 C   0  0  0  0  0  0  0  0  0  0  0  0
    7.4110   -1.4050   21.0410 C   0  0  0  0  0  0  0  0  0  0  0  0
  1  2  1  0
  2  3  2  0
  2  4  1  0
  4  5  1  0
  5  6  1  0
  6  7  1  0
  7  8  1  0
  8  9  1  0
  9 10  2  0
 10 11  1  0
 11 12  1  0
 12 13  1  0
 13 14  1  0
 11 15  2  0
 15 16  1  0
  9 17  1  0
 15 17  1  0
  7 18  1  0
  4 19  1  0
 18 19  1  0
M  END
