JOH-UNI-522b0723-6-acrylamide
     RDKit          3D

 19 20  0  0  0  0  0  0  0  0999 V2000
    7.2830   -2.8300   18.7500 C   0  0  0  0  0  0  0  0  0  0  0  0
    6.9830   -1.7590   19.8600 C   0  0  0  0  0  0  0  0  0  0  0  0
    6.2850   -2.5200   20.9790 C   0  0  0  0  0  0  0  0  0  0  0  0
    5.0030   -3.1250   20.9150 O   0  0  0  0  0  0  0  0  0  0  0  0
    7.2000   -2.7260   22.1460 C   0  0  0  0  0  0  0  0  0  0  0  0
    7.7350   -1.2320   22.5050 C   0  0  0  0  0  0  0  0  0  0  0  0
    8.7090   -1.6750   23.8630 C   0  0  0  0  0  0  0  0  0  0  0  0
    8.8460   -3.1890   24.3630 C   0  0  0  0  0  0  0  0  0  0  0  0
    9.3990   -3.9580   25.3030 N   0  0  0  0  0  0  0  0  0  0  0  0
    9.9410   -5.1930   24.7520 C   0  0  0  0  0  0  0  0  0  0  0  0
    8.8200   -5.9750   24.5560 C   0  0  0  0  0  0  0  0  0  0  0  0
    7.7150   -6.1940   24.7640 N   0  0  0  0  0  0  0  0  0  0  0  0
    6.9090   -6.3370   23.5380 C   0  0  0  0  0  0  0  0  0  0  0  0
    7.3130   -5.1160   25.6920 C   0  0  1  0  0  0  0  0  0  0  0  0
    7.5240   -5.2740   27.0460 C   0  0  0  0  0  0  0  0  0  0  0  0
    8.4270   -4.2700   26.3260 C   0  0  2  0  0  0  0  0  0  0  0  0
    7.9580   -2.9640   26.9760 C   0  0  0  0  0  0  0  0  0  0  0  0
    8.1750   -3.6430   23.5240 C   0  0  0  0  0  0  0  0  0  0  0  0
    7.9190   -2.5440   22.9910 N   0  0  0  0  0  0  0  0  0  0  0  0
  1  2  1  0
  2  3  1  0
  3  4  2  0
  3  5  1  0
  5  6  2  0
  6  7  1  0
  7  8  2  0
  8  9  1  0
  9 10  1  0
 10 11  1  0
 11 12  1  0
 12 13  1  0
 12 14  1  0
 14 15  1  1
  9 16  1  0
 14 16  1  0
 16 17  1  6
  8 18  1  0
  5 19  1  0
 18 19  2  0
M  END
