JOH-UNI-522b0723-4-vinylsulfonamide
     RDKit          3D

 19 20  0  0  0  0  0  0  0  0999 V2000
    7.6110   -2.9940   18.6070 C   0  0  0  0  0  0  0  0  0  0  0  0
    7.3000   -2.3240   19.9380 C   0  0  0  0  0  0  0  0  0  0  0  0
    6.0950   -3.3150   20.7770 S   0  0  0  0  0  0  0  0  0  0  0  0
    4.7760   -2.9360   20.4450 O   0  0  0  0  0  0  0  0  0  0  0  0
    6.4450   -4.7070   20.7280 O   0  0  0  0  0  0  0  0  0  0  0  0
    6.4870   -2.8540   22.4140 C   0  0  0  0  0  0  0  0  0  0  0  0
    6.0850   -1.7220   23.2620 C   0  0  0  0  0  0  0  0  0  0  0  0
    6.9260   -2.2530   24.3240 C   0  0  0  0  0  0  0  0  0  0  0  0
    7.6680   -2.5580   25.5090 C   0  0  0  0  0  0  0  0  0  0  0  0
    8.5390   -3.3380   26.2630 N   0  0  0  0  0  0  0  0  0  0  0  0
    7.9820   -4.5070   26.9530 C   0  0  0  0  0  0  0  0  0  0  0  0
    8.2140   -5.4280   25.9850 C   0  0  0  0  0  0  0  0  0  0  0  0
    8.5810   -5.6750   24.9390 N   0  0  0  0  0  0  0  0  0  0  0  0
    8.7140   -7.0330   24.4060 C   0  0  0  0  0  0  0  0  0  0  0  0
    9.8060   -4.8960   24.7720 C   0  0  0  0  0  0  0  0  0  0  0  0
    9.8510   -3.6520   25.6310 C   0  0  1  0  0  0  0  0  0  0  0  0
   10.4140   -2.5120   25.0460 C   0  0  0  0  0  0  0  0  0  0  0  0
    7.9090   -3.5690   24.4940 C   0  0  0  0  0  0  0  0  0  0  0  0
    7.4320   -3.7620   23.1350 N   0  0  0  0  0  0  0  0  0  0  0  0
  1  2  1  0
  3  2  1  0
  3  4  2  0
  3  5  2  0
  3  6  1  0
  6  7  2  0
  7  8  1  0
  8  9  2  0
  9 10  1  0
 10 11  1  0
 11 12  1  0
 12 13  1  0
 13 14  1  0
 13 15  1  0
 10 16  1  0
 15 16  1  0
 16 17  1  6
  9 18  1  0
  6 19  1  0
 18 19  2  0
M  END
