JOH-UNI-9dc98897-10-nitrile
     RDKit          3D

 19 20  0  0  0  0  0  0  0  0999 V2000
    7.4680   -3.6670   19.9510 C   0  0  0  0  0  0  0  0  0  0  0  0
    6.2700   -3.4960   19.4920 N   0  0  0  0  0  0  0  0  0  0  0  0
    7.8450   -3.2660   21.3510 C   0  0  0  0  0  0  0  0  0  0  0  0
    8.6180   -2.0540   21.8390 C   0  0  0  0  0  0  0  0  0  0  0  0
    8.9430   -1.8020   23.2960 C   0  0  0  0  0  0  0  0  0  0  0  0
    8.4450   -2.8200   24.0730 C   0  0  0  0  0  0  0  0  0  0  0  0
    8.3800   -3.2380   25.4070 N   0  0  0  0  0  0  0  0  0  0  0  0
    9.5670   -3.9140   25.9600 C   0  0  0  0  0  0  0  0  0  0  0  0
    9.6150   -5.3900   25.6070 C   0  0  0  0  0  0  0  0  0  0  0  0
    8.8180   -5.6910   24.3430 C   0  0  0  0  0  0  0  0  0  0  0  0
    7.3990   -5.7140   24.5250 O   0  0  0  0  0  0  0  0  0  0  0  0
    6.8600   -5.1810   25.7390 C   0  0  0  0  0  0  0  0  0  0  0  0
    7.0760   -3.6730   25.9280 C   0  0  0  0  0  0  0  0  0  0  0  0
    8.0430   -3.2420   22.9330 C   0  0  0  0  0  0  0  0  0  0  0  0
    8.4610   -2.2910   21.9850 C   0  0  0  0  0  0  0  0  0  0  0  0
    7.6270   -2.1430   20.9030 F   0  0  0  0  0  0  0  0  0  0  0  0
    9.7320   -2.5410   21.5100 F   0  0  0  0  0  0  0  0  0  0  0  0
    8.5020   -1.0130   22.4930 F   0  0  0  0  0  0  0  0  0  0  0  0
    7.4400   -4.1290   22.3030 N   0  0  0  0  0  0  0  0  0  0  0  0
  1  2  2  3
  1  3  1  0
  3  4  2  0
  4  5  1  0
  5  6  2  0
  6  7  1  0
  7  8  1  0
  8  9  1  0
  9 10  1  0
 10 11  1  0
 11 12  1  0
  7 13  1  0
 12 13  1  0
  6 14  1  0
 14 15  1  0
 15 16  1  0
 15 17  1  0
 15 18  1  0
  3 19  1  0
 14 19  2  0
M  END
