JOH-UNI-27ac80fd-26-vinylsulfonamide
     RDKit          3D

 19 20  0  0  0  0  0  0  0  0999 V2000
    8.0900   -3.4810   19.6010 C   0  0  0  0  0  0  0  0  0  0  0  0
    6.9580   -2.7370   18.9770 C   0  0  0  0  0  0  0  0  0  0  0  0
    5.7820   -3.2970   20.1230 S   0  0  0  0  0  0  0  0  0  0  0  0
    4.4840   -2.9860   19.6840 O   0  0  0  0  0  0  0  0  0  0  0  0
    6.0270   -4.6810   20.3890 O   0  0  0  0  0  0  0  0  0  0  0  0
    6.2770   -2.4310   21.5050 N   0  0  0  0  0  0  0  0  0  0  0  0
    6.1850   -3.2080   22.7320 C   0  0  0  0  0  0  0  0  0  0  0  0
    7.5390   -3.8470   23.0810 C   0  0  0  0  0  0  0  0  0  0  0  0
    8.6780   -2.9150   22.9400 N   0  0  0  0  0  0  0  0  0  0  0  0
    9.6490   -2.9640   24.0640 C   0  0  0  0  0  0  0  0  0  0  0  0
   10.6640   -2.2980   24.1290 O   0  0  0  0  0  0  0  0  0  0  0  0
    9.2250   -3.9520   25.1430 C   0  0  0  0  0  0  0  0  0  0  0  0
    9.8590   -5.2890   25.3890 C   0  0  0  0  0  0  0  0  0  0  0  0
    9.2390   -5.9410   26.4360 C   0  0  0  0  0  0  0  0  0  0  0  0
    8.1950   -5.2390   27.0200 C   0  0  0  0  0  0  0  0  0  0  0  0
    7.1290   -5.8440   28.4710 Br  0  0  0  0  0  0  0  0  0  0  0  0
    7.9420   -3.7250   26.2850 S   0  0  0  0  0  0  0  0  0  0  0  0
    8.3430   -1.6380   22.5160 C   0  0  0  0  0  0  0  0  0  0  0  0
    7.5110   -1.7350   21.3710 C   0  0  0  0  0  0  0  0  0  0  0  0
  1  2  1  0
  3  2  1  0
  3  4  2  0
  3  5  2  0
  3  6  1  0
  6  7  1  0
  7  8  1  0
  8  9  1  0
  9 10  1  0
 10 11  2  0
 10 12  1  0
 12 13  2  0
 13 14  1  0
 14 15  2  0
 15 16  1  0
 12 17  1  0
 15 17  1  0
  9 18  1  0
  6 19  1  0
 18 19  1  0
M  END
