JOH-UNI-27ac80fd-14-chloroacetamide
     RDKit          3D

 18 19  0  0  0  0  0  0  0  0999 V2000
    7.2210   -2.9570   18.8710 C   0  0  0  0  0  0  0  0  0  0  0  0
    6.2170   -3.2400   19.9470 C   0  0  0  0  0  0  0  0  0  0  0  0
    5.3150   -4.0490   19.7040 O   0  0  0  0  0  0  0  0  0  0  0  0
    6.3470   -2.6170   21.1900 N   0  0  0  0  0  0  0  0  0  0  0  0
    6.1600   -3.3640   22.4200 C   0  0  0  0  0  0  0  0  0  0  0  0
    7.3860   -3.6990   23.0160 C   0  0  0  0  0  0  0  0  0  0  0  0
    8.2850   -2.5450   23.3390 N   0  0  0  0  0  0  0  0  0  0  0  0
    9.5780   -2.9730   23.9940 C   0  0  0  0  0  0  0  0  0  0  0  0
    9.4080   -4.0040   25.0730 N   0  0  0  0  0  0  0  0  0  0  0  0
    9.5480   -5.3870   24.6620 C   0  0  0  0  0  0  0  0  0  0  0  0
    8.5400   -5.8590   23.6210 C   0  0  0  0  0  0  0  0  0  0  0  0
    7.1050   -5.6110   24.0630 C   0  0  0  0  0  0  0  0  0  0  0  0
    7.0650   -5.7520   25.4300 O   0  0  0  0  0  0  0  0  0  0  0  0
    7.2200   -4.5770   26.2130 C   0  0  0  0  0  0  0  0  0  0  0  0
    8.5290   -3.7780   26.1260 C   0  0  0  0  0  0  0  0  0  0  0  0
    8.3540   -1.8130   22.1690 C   0  0  0  0  0  0  0  0  0  0  0  0
    7.1880   -1.4230   21.4140 C   0  0  1  0  0  0  0  0  0  0  0  0
    7.4650   -0.6540   20.1440 C   0  0  0  0  0  0  0  0  0  0  0  0
  1  2  1  0
  2  3  2  0
  2  4  1  0
  4  5  1  0
  5  6  1  0
  6  7  1  0
  7  8  1  0
  8  9  1  0
  9 10  1  0
 10 11  1  0
 11 12  1  0
 12 13  1  0
 13 14  1  0
  9 15  1  0
 14 15  1  0
  7 16  1  0
  4 17  1  0
 16 17  1  0
 17 18  1  6
M  END
