JOH-UNI-522b0723-9-acrylamide
     RDKit          3D

 27 29  0  0  0  0  0  0  0  0999 V2000
    7.8130   -3.6730   20.1720 C   0  0  0  0  0  0  0  0  0  0  0  0
    7.1200   -2.3090   20.0200 C   0  0  0  0  0  0  0  0  0  0  0  0
    6.1680   -2.3290   21.1880 C   0  0  0  0  0  0  0  0  0  0  0  0
    4.9370   -3.0840   21.1660 O   0  0  0  0  0  0  0  0  0  0  0  0
    6.8360   -1.4750   22.3060 C   0  0  0  0  0  0  0  0  0  0  0  0
    7.1800   -2.8170   22.3450 N   0  0  0  0  0  0  0  0  0  0  0  0
    7.9430   -3.5350   23.1720 C   0  0  0  0  0  0  0  0  0  0  0  0
    8.6450   -3.0260   24.3340 C   0  0  0  0  0  0  0  0  0  0  0  0
    9.3200   -3.9130   25.0990 N   0  0  0  0  0  0  0  0  0  0  0  0
    9.8840   -5.0570   24.5890 C   0  0  0  0  0  0  0  0  0  0  0  0
    9.0210   -6.0560   24.1220 C   0  0  0  0  0  0  0  0  0  0  0  0
    7.6500   -5.8810   24.6490 N   0  0  0  0  0  0  0  0  0  0  0  0
    6.5850   -6.6660   23.9990 C   0  0  0  0  0  0  0  0  0  0  0  0
    7.3430   -4.8300   25.6420 C   0  0  1  0  0  0  0  0  0  0  0  0
    6.2380   -5.2570   26.5200 C   0  0  0  0  0  0  0  0  0  0  0  0
    8.4900   -4.3070   26.2030 C   0  0  0  0  0  0  0  0  0  0  0  0
    8.4760   -1.6950   24.4570 C   0  0  0  0  0  0  0  0  0  0  0  0
    7.5890   -0.9540   23.4490 C   0  0  0  0  0  0  0  0  0  0  0  0
    7.5260    0.5460   23.7500 C   0  0  0  0  0  0  0  0  0  0  0  0
    6.2920    0.8560   24.2280 O   0  0  0  0  0  0  0  0  0  0  0  0
    8.5780    1.3810   23.5540 N   0  0  0  0  0  0  0  0  0  0  0  0
    8.5540    2.7420   23.0770 C   0  0  0  0  0  0  0  0  0  0  0  0
    8.7340    4.0800   23.2060 C   0  0  0  0  0  0  0  0  0  0  0  0
    8.7090    5.3230   22.7550 C   0  0  0  0  0  0  0  0  0  0  0  0
    9.1840    5.7480   24.0250 C   0  0  0  0  0  0  0  0  0  0  0  0
    9.2920    4.4660   24.7430 C   0  0  0  0  0  0  0  0  0  0  0  0
    8.9990    3.0200   24.3230 C   0  0  0  0  0  0  0  0  0  0  0  0
  1  2  1  0
  2  3  1  0
  3  4  2  0
  3  5  1  0
  5  6  2  0
  6  7  1  0
  7  8  2  0
  8  9  1  0
  9 10  1  0
 10 11  1  0
 11 12  1  0
 12 13  1  0
 12 14  1  0
 14 15  1  1
  9 16  1  0
 14 16  1  0
  8 17  1  0
  5 18  1  0
 17 18  2  0
 18 19  1  0
 19 20  2  0
 19 21  1  0
 21 22  1  0
 22 23  2  0
 23 24  1  0
 24 25  2  0
 25 26  1  0
 22 27  1  0
 26 27  2  0
M  END
