JOH-UNI-27ac80fd-23-chloroacetamide
     RDKit          3D

 16 17  0  0  0  0  0  0  0  0999 V2000
    7.2940   -2.9510   18.7650 C   0  0  0  0  0  0  0  0  0  0  0  0
    6.3400   -3.2670   19.8790 C   0  0  0  0  0  0  0  0  0  0  0  0
    5.4000   -4.0560   19.7240 O   0  0  0  0  0  0  0  0  0  0  0  0
    6.6020   -2.6320   21.1010 N   0  0  0  0  0  0  0  0  0  0  0  0
    7.5420   -1.5070   21.2130 C   0  0  0  0  0  0  0  0  0  0  0  0
    8.7680   -1.8770   22.0650 C   0  0  0  0  0  0  0  0  0  0  0  0
    8.4020   -2.6910   23.2390 N   0  0  0  0  0  0  0  0  0  0  0  0
    9.5710   -3.0520   24.0600 C   0  0  0  0  0  0  0  0  0  0  0  0
    9.1500   -3.9950   25.1670 C   0  0  0  0  0  0  0  0  0  0  0  0
    9.7810   -5.3490   25.3930 C   0  0  0  0  0  0  0  0  0  0  0  0
    9.1960   -6.0070   26.4680 C   0  0  0  0  0  0  0  0  0  0  0  0
    8.1910   -5.2820   27.0640 C   0  0  0  0  0  0  0  0  0  0  0  0
    7.1490   -5.8600   28.5430 Br  0  0  0  0  0  0  0  0  0  0  0  0
    7.9070   -3.7040   26.3230 S   0  0  0  0  0  0  0  0  0  0  0  0
    7.6280   -3.7880   22.8950 C   0  0  0  0  0  0  0  0  0  0  0  0
    6.4420   -3.2890   22.3310 C   0  0  0  0  0  0  0  0  0  0  0  0
  1  2  1  0
  2  3  2  0
  2  4  1  0
  4  5  1  0
  5  6  1  0
  6  7  1  0
  7  8  1  0
  8  9  1  0
  9 10  2  0
 10 11  1  0
 11 12  2  0
 12 13  1  0
  9 14  1  0
 12 14  1  0
  7 15  1  0
  4 16  1  0
 15 16  1  0
M  END
