JOH-MSK-a63bdd1d-9
     RDKit          3D

 15 16  0  0  0  0  0  0  0  0999 V2000
    9.9880    5.7540   23.7020 C   0  0  0  0  0  0  0  0  0  0  0  0
   11.2010    5.4150   23.0280 N   0  0  0  0  0  0  0  0  0  0  0  0
   11.7020    6.1160   22.0410 C   0  0  0  0  0  0  0  0  0  0  0  0
   12.2480    4.9580   23.5530 C   0  0  0  0  0  0  0  0  0  0  0  0
   12.6270    3.6670   22.8160 C   0  0  0  0  0  0  0  0  0  0  0  0
   11.7430    2.5070   23.3050 C   0  0  0  0  0  0  0  0  0  0  0  0
   10.4520    2.6470   24.0690 C   0  0  0  0  0  0  0  0  0  0  0  0
   10.0030    1.3480   24.2800 N   0  0  0  0  0  0  0  0  0  0  0  0
   10.8640    0.4050   23.7370 C   0  0  0  0  0  0  0  0  0  0  0  0
   10.6570   -0.9730   23.7910 C   0  0  0  0  0  0  0  0  0  0  0  0
   11.6070   -1.7970   23.1900 C   0  0  0  0  0  0  0  0  0  0  0  0
   12.7270   -1.2280   22.5690 C   0  0  0  0  0  0  0  0  0  0  0  0
   13.5240   -1.9750   22.0540 O   0  0  0  0  0  0  0  0  0  0  0  0
   12.9250    0.1530   22.5370 C   0  0  0  0  0  0  0  0  0  0  0  0
   11.9850    0.9970   23.1130 C   0  0  0  0  0  0  0  0  0  0  0  0
  1  2  1  0
  2  3  1  0
  2  4  1  0
  4  5  1  0
  5  6  1  0
  6  7  2  0
  7  8  1  0
  8  9  1  0
  9 10  1  0
 10 11  2  0
 11 12  1  0
 12 13  1  0
 12 14  2  0
  6 15  1  0
  9 15  2  0
 14 15  1  0
M  END
