JOH-UNI-27ac80fd-16-acrylamide
     RDKit          3D

 20 21  0  0  0  0  0  0  0  0999 V2000
    7.9240   -3.2530   19.1680 C   0  0  0  0  0  0  0  0  0  0  0  0
    6.7030   -2.4090   18.9810 C   0  0  0  0  0  0  0  0  0  0  0  0
    5.9260   -2.5320   20.2360 C   0  0  0  0  0  0  0  0  0  0  0  0
    4.8950   -3.1540   20.2340 O   0  0  0  0  0  0  0  0  0  0  0  0
    6.4830   -1.9650   21.3490 N   0  0  0  0  0  0  0  0  0  0  0  0
    6.1270   -2.4740   22.6540 C   0  0  0  0  0  0  0  0  0  0  0  0
    7.2610   -3.0260   23.2630 C   0  0  0  0  0  0  0  0  0  0  0  0
    8.3360   -2.2560   23.4890 N   0  0  0  0  0  0  0  0  0  0  0  0
    9.4400   -2.8370   24.3340 C   0  0  0  0  0  0  0  0  0  0  0  0
   10.4650   -3.1590   23.5010 F   0  0  0  0  0  0  0  0  0  0  0  0
    9.9560   -1.8620   25.1250 F   0  0  0  0  0  0  0  0  0  0  0  0
    9.0520   -4.0160   25.1500 N   0  0  0  0  0  0  0  0  0  0  0  0
    9.3300   -5.3030   24.7410 C   0  0  0  0  0  0  0  0  0  0  0  0
    8.3330   -5.7960   23.7080 C   0  0  0  0  0  0  0  0  0  0  0  0
    6.9470   -5.5440   24.2780 C   0  0  0  0  0  0  0  0  0  0  0  0
    6.7450   -5.6770   25.4830 O   0  0  0  0  0  0  0  0  0  0  0  0
    6.8860   -4.4710   26.2270 C   0  0  0  0  0  0  0  0  0  0  0  0
    8.2800   -3.8360   26.2760 C   0  0  0  0  0  0  0  0  0  0  0  0
    8.8330   -1.7370   22.1820 C   0  0  0  0  0  0  0  0  0  0  0  0
    7.7160   -1.1580   21.3210 C   0  0  0  0  0  0  0  0  0  0  0  0
  1  2  1  0
  2  3  1  0
  3  4  2  0
  3  5  1  0
  5  6  1  0
  6  7  1  0
  7  8  1  0
  8  9  1  0
  9 10  1  0
  9 11  1  0
  9 12  1  0
 12 13  1  0
 13 14  1  0
 14 15  1  0
 15 16  1  0
 16 17  1  0
 12 18  1  0
 17 18  1  0
  8 19  1  0
  5 20  1  0
 19 20  1  0
M  END
