JOH-UNI-522b0723-11-nitrile
     RDKit          3D

 24 26  0  0  0  0  0  0  0  0999 V2000
    7.8030   -3.0630   19.7780 C   0  0  0  0  0  0  0  0  0  0  0  0
    7.0020   -2.6390   18.8220 N   0  0  0  0  0  0  0  0  0  0  0  0
    8.1110   -2.0050   21.0340 C   0  0  0  0  0  0  0  0  0  0  0  0
    8.4310   -3.1800   21.6710 N   0  0  0  0  0  0  0  0  0  0  0  0
    8.8430   -3.6030   22.8850 C   0  0  0  0  0  0  0  0  0  0  0  0
    9.0860   -2.9020   23.9680 C   0  0  0  0  0  0  0  0  0  0  0  0
    9.4570   -3.5410   25.0940 N   0  0  0  0  0  0  0  0  0  0  0  0
    8.5080   -3.3500   26.2310 C   0  0  0  0  0  0  0  0  0  0  0  0
    7.4700   -4.2780   26.3480 C   0  0  0  0  0  0  0  0  0  0  0  0
    7.1780   -4.9320   25.1440 O   0  0  0  0  0  0  0  0  0  0  0  0
    8.2970   -5.6810   24.7500 C   0  0  1  0  0  0  0  0  0  0  0  0
    8.0720   -6.2120   23.3380 C   0  0  0  0  0  0  0  0  0  0  0  0
    9.6670   -4.9850   24.9600 C   0  0  0  0  0  0  0  0  0  0  0  0
    8.8830   -1.6030   23.6520 C   0  0  0  0  0  0  0  0  0  0  0  0
    8.4140   -1.1630   22.2180 C   0  0  0  0  0  0  0  0  0  0  0  0
    8.2700    0.3710   22.1620 C   0  0  0  0  0  0  0  0  0  0  0  0
    9.1880    0.9970   21.6420 O   0  0  0  0  0  0  0  0  0  0  0  0
    7.1270    0.9180   22.7080 N   0  0  0  0  0  0  0  0  0  0  0  0
    7.0030    1.5370   23.9720 C   0  0  0  0  0  0  0  0  0  0  0  0
    5.8740    2.5560   24.1430 C   0  0  0  0  0  0  0  0  0  0  0  0
    5.7480    3.1710   25.3880 C   0  0  0  0  0  0  0  0  0  0  0  0
    6.6240    2.8660   26.4370 C   0  0  0  0  0  0  0  0  0  0  0  0
    7.6460    1.9380   26.2690 C   0  0  0  0  0  0  0  0  0  0  0  0
    7.8400    1.2800   25.0630 C   0  0  0  0  0  0  0  0  0  0  0  0
  1  2  2  3
  1  3  1  0
  3  4  2  0
  4  5  1  0
  5  6  2  0
  6  7  1  0
  7  8  1  0
  8  9  1  0
  9 10  1  0
 10 11  1  0
 11 12  1  6
  7 13  1  0
 11 13  1  0
  6 14  1  0
  3 15  1  0
 14 15  2  0
 15 16  1  0
 16 17  2  0
 16 18  1  0
 18 19  1  0
 19 20  2  0
 20 21  1  0
 21 22  2  0
 22 23  1  0
 19 24  1  0
 23 24  2  0
M  END
