JOH-UNI-27ac80fd-34-nitrile
     RDKit          3D

 18 20  0  0  0  0  0  0  0  0999 V2000
    6.8220   -3.5110   19.9300 C   0  0  0  0  0  0  0  0  0  0  0  0
    5.7690   -4.2140   19.7780 N   0  0  0  0  0  0  0  0  0  0  0  0
    6.9530   -2.8170   21.0910 N   0  0  0  0  0  0  0  0  0  0  0  0
    6.4570   -3.3590   22.3300 C   0  0  0  0  0  0  0  0  0  0  0  0
    7.5480   -3.7780   23.0920 C   0  0  0  0  0  0  0  0  0  0  0  0
    8.3740   -2.5550   23.2990 N   0  0  0  0  0  0  0  0  0  0  0  0
    9.4780   -2.8230   24.2470 C   0  0  1  0  0  0  0  0  0  0  0  0
    9.0990   -3.7880   25.1880 C   0  0  0  0  0  0  0  0  0  0  0  0
    9.7750   -5.1360   25.2750 C   0  0  0  0  0  0  0  0  0  0  0  0
    9.2130   -5.9940   26.3610 C   0  0  0  0  0  0  0  0  0  0  0  0
    8.0970   -5.2800   27.0940 C   0  0  0  0  0  0  0  0  0  0  0  0
    7.0630   -5.9470   28.5410 Br  0  0  0  0  0  0  0  0  0  0  0  0
    7.8120   -3.6340   26.4220 S   0  0  0  0  0  0  0  0  0  0  0  0
   10.8690   -2.9930   23.6120 C   0  0  0  0  0  0  0  0  0  0  0  0
   11.0300   -2.4530   25.0250 C   0  0  0  0  0  0  0  0  0  0  0  0
    9.8190   -1.7810   24.7990 O   0  0  0  0  0  0  0  0  0  0  0  0
    8.8530   -2.0570   22.0870 C   0  0  0  0  0  0  0  0  0  0  0  0
    7.7700   -1.5750   21.2700 C   0  0  0  0  0  0  0  0  0  0  0  0
  1  2  2  3
  1  3  1  0
  3  4  1  0
  4  5  1  0
  5  6  1  0
  6  7  1  0
  7  8  1  1
  8  9  2  0
  9 10  1  0
 10 11  2  0
 11 12  1  0
  8 13  1  0
 11 13  1  0
  7 14  1  0
 14 15  1  0
  7 16  1  0
 15 16  1  0
  6 17  1  0
  3 18  1  0
 17 18  1  0
M  END
