JOH-UNI-27ac80fd-39-chloroacetamide
     RDKit          3D

 20 21  0  0  0  0  0  0  0  0999 V2000
    7.4240   -2.9910   18.8540 C   0  0  0  0  0  0  0  0  0  0  0  0
    6.3580   -3.2140   19.8850 C   0  0  0  0  0  0  0  0  0  0  0  0
    5.3920   -3.9580   19.6910 O   0  0  0  0  0  0  0  0  0  0  0  0
    6.5190   -2.5560   21.1020 N   0  0  0  0  0  0  0  0  0  0  0  0
    5.9300   -3.0720   22.3330 C   0  0  0  0  0  0  0  0  0  0  0  0
    7.0060   -3.3510   23.3790 C   0  0  0  0  0  0  0  0  0  0  0  0
    8.0250   -2.2940   23.4020 N   0  0  0  0  0  0  0  0  0  0  0  0
    9.0880   -2.5940   24.3520 C   0  0  0  0  0  0  0  0  0  0  0  0
    8.7310   -3.7370   25.2900 C   0  0  0  0  0  0  0  0  0  0  0  0
    7.7910   -3.5290   26.7190 S   0  0  0  0  0  0  0  0  0  0  0  0
    7.9200   -5.1370   27.1000 C   0  0  0  0  0  0  0  0  0  0  0  0
    7.1160   -5.8930   28.6380 Br  0  0  0  0  0  0  0  0  0  0  0  0
    8.6520   -5.8260   26.1690 C   0  0  0  0  0  0  0  0  0  0  0  0
    9.0900   -5.0490   25.1260 C   0  0  0  0  0  0  0  0  0  0  0  0
    9.7750   -5.4770   24.0550 C   0  0  0  0  0  0  0  0  0  0  0  0
    9.0260   -5.3170   22.8760 C   0  0  0  0  0  0  0  0  0  0  0  0
    9.0660   -6.2730   21.9130 O   0  0  0  0  0  0  0  0  0  0  0  0
    9.2040   -7.5950   22.3960 C   0  0  0  0  0  0  0  0  0  0  0  0
    8.5640   -1.8380   22.0980 C   0  0  0  0  0  0  0  0  0  0  0  0
    7.4840   -1.4610   21.3020 C   0  0  0  0  0  0  0  0  0  0  0  0
  1  2  1  0
  2  3  2  0
  2  4  1  0
  4  5  1  0
  5  6  1  0
  6  7  1  0
  7  8  1  0
  8  9  1  0
  9 10  1  0
 10 11  1  0
 11 12  1  0
 11 13  2  0
  9 14  2  0
 13 14  1  0
 14 15  1  0
 15 16  1  0
 16 17  1  0
 17 18  1  0
  7 19  1  0
  4 20  1  0
 19 20  1  0
M  END
