JOH-UNI-522b0723-10-chloroacetamide
     RDKit          3D

 24 26  0  0  0  0  0  0  0  0999 V2000
    8.0420   -3.2910   19.8290 C   0  0  0  0  0  0  0  0  0  0  0  0
    6.7760   -2.5660   20.3490 C   0  0  0  0  0  0  0  0  0  0  0  0
    6.4550   -2.8770   19.1420 O   0  0  0  0  0  0  0  0  0  0  0  0
    7.5370   -2.4130   21.7000 C   0  0  0  0  0  0  0  0  0  0  0  0
    7.6640   -3.6610   22.1730 N   0  0  0  0  0  0  0  0  0  0  0  0
    8.2800   -3.9970   23.4200 C   0  0  0  0  0  0  0  0  0  0  0  0
    8.8150   -2.8920   24.2730 C   0  0  0  0  0  0  0  0  0  0  0  0
    9.3710   -3.4240   25.5110 N   0  0  0  0  0  0  0  0  0  0  0  0
    8.4060   -3.6940   26.4700 C   0  0  0  0  0  0  0  0  0  0  0  0
    7.6230   -4.9600   26.1680 C   0  0  0  0  0  0  0  0  0  0  0  0
    8.3050   -5.9220   25.8520 O   0  0  0  0  0  0  0  0  0  0  0  0
    9.2820   -5.6110   24.8200 C   0  0  0  0  0  0  0  0  0  0  0  0
   10.1560   -4.6410   25.3530 C   0  0  0  0  0  0  0  0  0  0  0  0
    8.6790   -1.5970   23.7550 C   0  0  0  0  0  0  0  0  0  0  0  0
    8.0220   -1.2840   22.4160 C   0  0  0  0  0  0  0  0  0  0  0  0
    7.9510    0.0550   22.0570 C   0  0  0  0  0  0  0  0  0  0  0  0
    8.3740    0.7830   23.1140 O   0  0  0  0  0  0  0  0  0  0  0  0
    7.5050    0.5810   20.8950 N   0  0  0  0  0  0  0  0  0  0  0  0
    6.9010    1.9130   21.0930 C   0  0  0  0  0  0  0  0  0  0  0  0
    5.5410    2.1120   20.4650 C   0  0  0  0  0  0  0  0  0  0  0  0
    4.8900    3.4560   20.6550 C   0  0  0  0  0  0  0  0  0  0  0  0
    5.5140    4.4670   21.3760 C   0  0  0  0  0  0  0  0  0  0  0  0
    6.7860    4.2200   21.9370 C   0  0  0  0  0  0  0  0  0  0  0  0
    7.4620    2.9950   21.8070 C   0  0  0  0  0  0  0  0  0  0  0  0
  1  2  1  0
  2  3  2  0
  2  4  1  0
  4  5  2  0
  5  6  1  0
  6  7  2  0
  7  8  1  0
  8  9  1  0
  9 10  1  0
 10 11  1  0
 11 12  1  0
  8 13  1  0
 12 13  1  0
  7 14  1  0
  4 15  1  0
 14 15  2  0
 15 16  1  0
 16 17  2  0
 16 18  1  0
 18 19  1  0
 19 20  2  0
 20 21  1  0
 21 22  2  0
 22 23  1  0
 19 24  1  0
 23 24  2  0
M  END
