JOH-UNI-27ac80fd-40-nitrile
     RDKit          3D

 20 22  0  0  0  0  0  0  0  0999 V2000
    6.6650   -3.7010   19.8810 C   0  0  0  0  0  0  0  0  0  0  0  0
    5.7920   -4.6510   19.9470 N   0  0  0  0  0  0  0  0  0  0  0  0
    6.6380   -2.6730   20.8150 N   0  0  0  0  0  0  0  0  0  0  0  0
    6.0130   -2.8590   21.9730 C   0  0  0  0  0  0  0  0  0  0  0  0
    6.7680   -2.3970   23.2190 C   0  0  0  0  0  0  0  0  0  0  0  0
    7.9980   -1.7670   23.0540 N   0  0  0  0  0  0  0  0  0  0  0  0
    9.0080   -2.0310   24.0910 C   0  0  0  0  0  0  0  0  0  0  0  0
    8.4560   -2.6880   25.3280 C   0  0  0  0  0  0  0  0  0  0  0  0
    9.1750   -3.5910   26.0850 C   0  0  0  0  0  0  0  0  0  0  0  0
    8.4900   -4.0630   27.1740 C   0  0  0  0  0  0  0  0  0  0  0  0
    9.0870   -4.9540   28.0190 C   0  0  0  0  0  0  0  0  0  0  0  0
   10.0400   -5.5210   27.5750 O   0  0  0  0  0  0  0  0  0  0  0  0
    9.7060   -6.1090   26.3370 C   0  0  0  0  0  0  0  0  0  0  0  0
    7.2050   -3.5310   27.2760 C   0  0  0  0  0  0  0  0  0  0  0  0
    5.9310   -3.9350   28.6500 Br  0  0  0  0  0  0  0  0  0  0  0  0
    6.8970   -2.4440   25.9980 S   0  0  0  0  0  0  0  0  0  0  0  0
   10.2980   -1.2670   24.1550 C   0  0  0  0  0  0  0  0  0  0  0  0
   10.2490   -2.6110   23.7330 C   0  0  0  0  0  0  0  0  0  0  0  0
    8.5070   -1.7360   21.7460 C   0  0  0  0  0  0  0  0  0  0  0  0
    7.4390   -1.5570   20.8620 C   0  0  0  0  0  0  0  0  0  0  0  0
  1  2  2  3
  1  3  1  0
  3  4  1  0
  4  5  1  0
  5  6  1  0
  6  7  1  0
  7  8  1  0
  8  9  2  0
  9 10  1  0
 10 11  1  0
 11 12  1  0
 12 13  1  0
 10 14  2  0
 14 15  1  0
  8 16  1  0
 14 16  1  0
  7 17  1  0
  7 18  1  0
 17 18  1  0
  6 19  1  0
  3 20  1  0
 19 20  1  0
M  END
