JOH-UNI-27ac80fd-15-chloroacetamide
     RDKit          3D

 19 21  0  0  0  0  0  0  0  0999 V2000
    7.2250   -2.9390   18.7410 C   0  0  0  0  0  0  0  0  0  0  0  0
    6.3110   -3.2820   19.8740 C   0  0  0  0  0  0  0  0  0  0  0  0
    5.3790   -4.0770   19.7220 O   0  0  0  0  0  0  0  0  0  0  0  0
    6.5780   -2.6870   21.1090 N   0  0  0  0  0  0  0  0  0  0  0  0
    6.0830   -3.2760   22.3490 C   0  0  0  0  0  0  0  0  0  0  0  0
    7.2500   -3.7110   23.2370 C   0  0  0  0  0  0  0  0  0  0  0  0
    8.2450   -2.6410   23.3500 N   0  0  0  0  0  0  0  0  0  0  0  0
    9.3210   -3.0010   24.2880 C   0  0  0  0  0  0  0  0  0  0  0  0
    8.9950   -4.1430   25.1920 N   0  0  0  0  0  0  0  0  0  0  0  0
    9.9280   -5.1110   25.4850 C   0  0  0  0  0  0  0  0  0  0  0  0
    9.2960   -6.1460   26.4000 C   0  0  0  0  0  0  0  0  0  0  0  0
    9.0800   -5.5890   27.6730 C   0  0  0  0  0  0  0  0  0  0  0  0
    7.8140   -5.2060   27.9410 O   0  0  0  0  0  0  0  0  0  0  0  0
    7.3180   -4.5580   26.8030 C   0  0  0  0  0  0  0  0  0  0  0  0
    8.2900   -3.7040   26.2910 C   0  0  0  0  0  0  0  0  0  0  0  0
   10.2730   -2.1580   24.4320 C   0  0  0  0  0  0  0  0  0  0  0  0
   10.8440   -2.8760   23.5270 C   0  0  0  0  0  0  0  0  0  0  0  0
    8.6970   -2.0230   22.0820 C   0  0  0  0  0  0  0  0  0  0  0  0
    7.5990   -1.6330   21.2980 C   0  0  0  0  0  0  0  0  0  0  0  0
  1  2  1  0
  2  3  2  0
  2  4  1  0
  4  5  1  0
  5  6  1  0
  6  7  1  0
  8  7  1  0
  8  9  1  0
  9 10  1  0
 10 11  1  0
 11 12  1  0
 12 13  1  0
 13 14  1  0
  9 15  1  0
 14 15  1  0
  8 16  1  0
  8 17  1  0
 16 17  1  0
  7 18  1  0
  4 19  1  0
 18 19  1  0
M  END
