JOH-UNI-522b0723-9-chloroacetamide
     RDKit          3D

 26 28  0  0  0  0  0  0  0  0999 V2000
    8.2290   -3.1290   19.6230 C   0  0  0  0  0  0  0  0  0  0  0  0
    7.0540   -2.8160   20.3190 C   0  0  0  0  0  0  0  0  0  0  0  0
    5.9900   -3.1740   19.5870 O   0  0  0  0  0  0  0  0  0  0  0  0
    7.4080   -2.4010   21.7670 C   0  0  0  0  0  0  0  0  0  0  0  0
    8.1550   -3.4880   21.9550 N   0  0  0  0  0  0  0  0  0  0  0  0
    8.7750   -3.8150   23.1480 C   0  0  0  0  0  0  0  0  0  0  0  0
    8.5420   -2.8660   24.2350 C   0  0  0  0  0  0  0  0  0  0  0  0
    9.1610   -3.4600   25.3590 N   0  0  0  0  0  0  0  0  0  0  0  0
    9.7650   -4.6460   24.9280 C   0  0  0  0  0  0  0  0  0  0  0  0
    8.7970   -5.5230   24.1150 C   0  0  0  0  0  0  0  0  0  0  0  0
    7.5530   -5.1700   24.5440 N   0  0  0  0  0  0  0  0  0  0  0  0
    6.5230   -5.6690   23.7170 C   0  0  0  0  0  0  0  0  0  0  0  0
    7.3760   -4.8010   25.9730 C   0  0  1  0  0  0  0  0  0  0  0  0
    7.6360   -5.9070   26.7580 C   0  0  0  0  0  0  0  0  0  0  0  0
    8.0910   -3.6530   26.3330 C   0  0  0  0  0  0  0  0  0  0  0  0
    7.8060   -1.6830   24.0280 C   0  0  0  0  0  0  0  0  0  0  0  0
    7.2030   -1.3930   22.7610 C   0  0  0  0  0  0  0  0  0  0  0  0
    6.4070   -0.0980   22.6490 C   0  0  0  0  0  0  0  0  0  0  0  0
    6.3070    0.3930   21.5280 O   0  0  0  0  0  0  0  0  0  0  0  0
    5.8280    0.5120   23.7070 N   0  0  0  0  0  0  0  0  0  0  0  0
    6.3500    1.7040   24.0960 C   0  0  0  0  0  0  0  0  0  0  0  0
    7.6710    1.7280   24.4950 C   0  0  0  0  0  0  0  0  0  0  0  0
    8.3240    2.8700   24.9140 C   0  0  0  0  0  0  0  0  0  0  0  0
    7.6540    4.0830   24.9530 C   0  0  0  0  0  0  0  0  0  0  0  0
    6.3070    4.1160   24.5580 C   0  0  0  0  0  0  0  0  0  0  0  0
    5.6680    2.9230   24.1310 C   0  0  0  0  0  0  0  0  0  0  0  0
  1  2  1  0
  2  3  2  0
  2  4  1  0
  4  5  2  0
  5  6  1  0
  6  7  2  0
  7  8  1  0
  8  9  1  0
  9 10  1  0
 10 11  1  0
 11 12  1  0
 11 13  1  0
 13 14  1  1
  8 15  1  0
 13 15  1  0
  7 16  1  0
  4 17  1  0
 16 17  2  0
 17 18  1  0
 18 19  2  0
 18 20  1  0
 20 21  1  0
 21 22  2  0
 22 23  1  0
 23 24  2  0
 24 25  1  0
 21 26  1  0
 25 26  2  0
M  END
