JOH-MSK-ec639444-1
     RDKit          3D

 19 20  0  0  0  0  0  0  0  0999 V2000
   13.0480   -2.4170   21.3550 C   0  0  0  0  0  0  0  0  0  0  0  0
   13.6350   -1.6270   22.0690 O   0  0  0  0  0  0  0  0  0  0  0  0
   12.8240   -0.6760   22.5500 C   0  0  0  0  0  0  0  0  0  0  0  0
   13.0550    0.8470   22.5050 C   0  0  0  0  0  0  0  0  0  0  0  0
   11.9370    1.6720   23.0930 C   0  0  0  0  0  0  0  0  0  0  0  0
   11.8390    3.1680   23.1970 C   0  0  0  0  0  0  0  0  0  0  0  0
   12.8080    4.0840   22.7830 C   0  0  1  0  0  0  0  0  0  0  0  0
   13.1760    4.0930   21.4650 C   0  0  0  0  0  0  0  0  0  0  0  0
   12.3750    5.5060   23.1540 C   0  0  0  0  0  0  0  0  0  0  0  0
   11.2990    6.0430   22.3260 N   0  0  0  0  0  0  0  0  0  0  0  0
   10.1770    6.3330   23.2250 C   0  0  0  0  0  0  0  0  0  0  0  0
    8.9410    6.6300   22.6560 C   0  0  0  0  0  0  0  0  0  0  0  0
   10.3010    6.3260   24.4480 O   0  0  0  0  0  0  0  0  0  0  0  0
   10.5950    3.3810   23.7910 C   0  0  0  0  0  0  0  0  0  0  0  0
   10.0460    2.1310   24.0280 N   0  0  0  0  0  0  0  0  0  0  0  0
   10.8330    1.0810   23.6190 C   0  0  0  0  0  0  0  0  0  0  0  0
   10.6780   -0.2590   23.6640 C   0  0  0  0  0  0  0  0  0  0  0  0
   11.6160   -1.1100   23.1620 C   0  0  0  0  0  0  0  0  0  0  0  0
   11.1580   -2.7270   23.3610 Cl  0  0  0  0  0  0  0  0  0  0  0  0
  1  2  1  0
  2  3  1  0
  3  4  2  0
  4  5  1  0
  5  6  1  0
  6  7  1  0
  7  8  1  6
  7  9  1  0
  9 10  1  0
 10 11  1  0
 11 12  1  0
 11 13  2  0
  6 14  2  0
 14 15  1  0
  5 16  2  0
 15 16  1  0
 16 17  1  0
  3 18  1  0
 17 18  2  0
 18 19  1  0
M  END
