JOH-UNI-27ac80fd-35-acrylamide
     RDKit          3D

 20 21  0  0  0  0  0  0  0  0999 V2000
    7.4350   -2.9710   18.4380 C   0  0  0  0  0  0  0  0  0  0  0  0
    6.7360   -1.9290   19.2530 C   0  0  0  0  0  0  0  0  0  0  0  0
    5.9200   -2.6020   20.3200 C   0  0  0  0  0  0  0  0  0  0  0  0
    4.9880   -3.3730   20.0690 O   0  0  0  0  0  0  0  0  0  0  0  0
    6.3610   -2.3020   21.5690 N   0  0  0  0  0  0  0  0  0  0  0  0
    6.3080   -3.3250   22.5980 C   0  0  0  0  0  0  0  0  0  0  0  0
    7.6020   -3.6140   23.0680 C   0  0  0  0  0  0  0  0  0  0  0  0
    8.4740   -2.6150   23.2870 N   0  0  0  0  0  0  0  0  0  0  0  0
    9.5400   -2.7770   24.3240 C   0  0  0  0  0  0  0  0  0  0  0  0
   10.7340   -2.9900   23.7160 F   0  0  0  0  0  0  0  0  0  0  0  0
    9.6980   -1.5920   24.9600 F   0  0  0  0  0  0  0  0  0  0  0  0
    9.2030   -3.8930   25.3030 C   0  0  0  0  0  0  0  0  0  0  0  0
    9.8730   -5.2200   25.4350 C   0  0  0  0  0  0  0  0  0  0  0  0
    9.2610   -6.0570   26.4960 C   0  0  0  0  0  0  0  0  0  0  0  0
    8.1110   -5.3130   27.1600 C   0  0  0  0  0  0  0  0  0  0  0  0
    6.9830   -5.9340   28.5690 Br  0  0  0  0  0  0  0  0  0  0  0  0
    7.8800   -3.7560   26.4900 S   0  0  0  0  0  0  0  0  0  0  0  0
    8.7740   -1.8840   22.1840 C   0  0  2  0  0  0  0  0  0  0  0  0
    9.5950   -0.7320   22.1650 C   0  0  0  0  0  0  0  0  0  0  0  0
    7.4040   -1.2860   21.7740 C   0  0  0  0  0  0  0  0  0  0  0  0
  1  2  1  0
  2  3  1  0
  3  4  2  0
  3  5  1  0
  5  6  1  0
  6  7  1  0
  7  8  1  0
  8  9  1  0
  9 10  1  0
  9 11  1  0
  9 12  1  0
 12 13  2  0
 13 14  1  0
 14 15  2  0
 15 16  1  0
 12 17  1  0
 15 17  1  0
  8 18  1  0
 18 19  1  1
  5 20  1  0
 18 20  1  0
M  END
