JOH-UNI-27ac80fd-14-vinylsulfonamide
     RDKit          3D

 20 21  0  0  0  0  0  0  0  0999 V2000
    8.7550   -3.8970   20.2150 C   0  0  0  0  0  0  0  0  0  0  0  0
    7.5820   -3.0790   19.6440 C   0  0  0  0  0  0  0  0  0  0  0  0
    6.2180   -3.2660   20.7610 S   0  0  0  0  0  0  0  0  0  0  0  0
    4.9720   -3.3660   20.0340 O   0  0  0  0  0  0  0  0  0  0  0  0
    6.5580   -4.3090   21.6990 O   0  0  0  0  0  0  0  0  0  0  0  0
    6.3080   -1.7680   21.5750 N   0  0  0  0  0  0  0  0  0  0  0  0
    5.6820   -1.7340   22.9010 C   0  0  0  0  0  0  0  0  0  0  0  0
    6.7010   -2.0280   24.0270 C   0  0  0  0  0  0  0  0  0  0  0  0
    8.0660   -1.5470   23.7200 N   0  0  0  0  0  0  0  0  0  0  0  0
    9.0680   -2.0410   24.6890 C   0  0  0  0  0  0  0  0  0  0  0  0
    8.9710   -3.5070   24.9610 N   0  0  0  0  0  0  0  0  0  0  0  0
    9.9780   -4.3670   24.5910 C   0  0  0  0  0  0  0  0  0  0  0  0
    9.3580   -5.7200   24.2990 C   0  0  0  0  0  0  0  0  0  0  0  0
    8.0030   -5.5690   23.9510 C   0  0  0  0  0  0  0  0  0  0  0  0
    7.1610   -5.6050   25.0380 O   0  0  0  0  0  0  0  0  0  0  0  0
    7.6250   -4.9750   26.2280 C   0  0  0  0  0  0  0  0  0  0  0  0
    8.3900   -3.8170   26.1720 C   0  0  0  0  0  0  0  0  0  0  0  0
    8.5360   -1.6350   22.4250 C   0  0  0  0  0  0  0  0  0  0  0  0
    7.6500   -1.1010   21.4700 C   0  0  2  0  0  0  0  0  0  0  0  0
    7.5260    0.2900   21.4420 C   0  0  0  0  0  0  0  0  0  0  0  0
  1  2  1  0
  3  2  1  0
  3  4  2  0
  3  5  2  0
  3  6  1  0
  6  7  1  0
  7  8  1  0
  8  9  1  0
  9 10  1  0
 10 11  1  0
 11 12  1  0
 12 13  1  0
 13 14  1  0
 14 15  1  0
 15 16  1  0
 11 17  1  0
 16 17  1  0
  9 18  1  0
  6 19  1  0
 18 19  1  0
 19 20  1  1
M  END
