JOH-UNI-27ac80fd-28-chloroacetamide
     RDKit          3D

 17 18  0  0  0  0  0  0  0  0999 V2000
    7.2660   -2.9480   18.7830 C   0  0  0  0  0  0  0  0  0  0  0  0
    6.3010   -3.2440   19.8860 C   0  0  0  0  0  0  0  0  0  0  0  0
    5.3700   -4.0300   19.6930 O   0  0  0  0  0  0  0  0  0  0  0  0
    6.5330   -2.6190   21.0990 N   0  0  0  0  0  0  0  0  0  0  0  0
    7.5060   -1.5170   21.2710 C   0  0  0  0  0  0  0  0  0  0  0  0
    8.6470   -1.8430   22.0420 C   0  0  0  0  0  0  0  0  0  0  0  0
    8.3800   -2.7220   23.2320 N   0  0  0  0  0  0  0  0  0  0  0  0
    9.5930   -2.9810   24.0640 C   0  0  0  0  0  0  0  0  0  0  0  0
    9.2180   -3.9890   25.1410 C   0  0  0  0  0  0  0  0  0  0  0  0
    9.8390   -5.3490   25.3510 C   0  0  0  0  0  0  0  0  0  0  0  0
    9.2480   -6.1010   26.4700 C   0  0  0  0  0  0  0  0  0  0  0  0
    8.1590   -5.2710   27.0980 C   0  0  0  0  0  0  0  0  0  0  0  0
    7.0930   -5.8300   28.5640 Br  0  0  0  0  0  0  0  0  0  0  0  0
    7.9280   -3.7210   26.3600 S   0  0  0  0  0  0  0  0  0  0  0  0
    7.7430   -3.9800   22.7680 C   0  0  1  0  0  0  0  0  0  0  0  0
    7.4080   -5.1710   23.6620 C   0  0  0  0  0  0  0  0  0  0  0  0
    6.3760   -3.4880   22.2550 C   0  0  0  0  0  0  0  0  0  0  0  0
  1  2  1  0
  2  3  2  0
  2  4  1  0
  4  5  1  0
  5  6  1  0
  6  7  1  0
  7  8  1  0
  8  9  1  0
  9 10  2  0
 10 11  1  0
 11 12  2  0
 12 13  1  0
  9 14  1  0
 12 14  1  0
  7 15  1  0
 15 16  1  1
  4 17  1  0
 15 17  1  0
M  END
