JOH-UNI-27ac80fd-12-nitrile
     RDKit          3D

 16 17  0  0  0  0  0  0  0  0999 V2000
    7.2040   -3.5530   19.9560 C   0  0  0  0  0  0  0  0  0  0  0  0
    6.0040   -3.7820   19.5430 N   0  0  0  0  0  0  0  0  0  0  0  0
    7.4890   -2.6650   20.9860 N   0  0  0  0  0  0  0  0  0  0  0  0
    8.7140   -2.7660   21.8110 C   0  0  0  0  0  0  0  0  0  0  0  0
    8.6380   -1.7990   23.0080 C   0  0  0  0  0  0  0  0  0  0  0  0
    7.3220   -1.7770   23.6820 N   0  0  0  0  0  0  0  0  0  0  0  0
    7.4160   -2.3690   25.0370 C   0  0  0  0  0  0  0  0  0  0  0  0
    6.9720   -3.7870   25.0470 N   0  0  0  0  0  0  0  0  0  0  0  0
    7.6390   -4.7900   24.3640 C   0  0  0  0  0  0  0  0  0  0  0  0
    6.7000   -5.5670   23.4510 C   0  0  0  0  0  0  0  0  0  0  0  0
    5.3720   -5.8340   24.1520 C   0  0  0  0  0  0  0  0  0  0  0  0
    5.2930   -5.9640   25.5180 O   0  0  0  0  0  0  0  0  0  0  0  0
    5.3210   -4.7850   26.3180 C   0  0  0  0  0  0  0  0  0  0  0  0
    6.5690   -4.1720   26.2830 C   0  0  0  0  0  0  0  0  0  0  0  0
    6.3000   -2.3080   22.9040 C   0  0  0  0  0  0  0  0  0  0  0  0
    6.5140   -1.8820   21.5760 C   0  0  0  0  0  0  0  0  0  0  0  0
  1  2  2  3
  1  3  1  0
  3  4  1  0
  4  5  1  0
  5  6  1  0
  6  7  1  0
  7  8  1  0
  8  9  1  0
  9 10  1  0
 10 11  1  0
 11 12  1  0
 12 13  1  0
  8 14  1  0
 13 14  1  0
  6 15  1  0
  3 16  1  0
 15 16  1  0
M  END
