JOH-UNI-27ac80fd-38-vinylsulfonamide
     RDKit          3D

 21 22  0  0  0  0  0  0  0  0999 V2000
    7.2160   -2.8210   18.3980 C   0  0  0  0  0  0  0  0  0  0  0  0
    6.1650   -2.3510   19.4050 C   0  0  0  0  0  0  0  0  0  0  0  0
    5.8000   -3.4350   20.7410 S   0  0  0  0  0  0  0  0  0  0  0  0
    4.6630   -3.0110   21.4890 O   0  0  0  0  0  0  0  0  0  0  0  0
    5.7870   -4.7920   20.2410 O   0  0  0  0  0  0  0  0  0  0  0  0
    7.0950   -2.9520   21.6910 N   0  0  0  0  0  0  0  0  0  0  0  0
    7.5910   -1.6100   21.3440 C   0  0  0  0  0  0  0  0  0  0  0  0
    8.9000   -1.4460   21.7650 C   0  0  0  0  0  0  0  0  0  0  0  0
    9.0270   -1.5540   23.2390 N   0  0  0  0  0  0  0  0  0  0  0  0
   10.2240   -2.3560   23.6170 C   0  0  0  0  0  0  0  0  0  0  0  0
    9.7030   -3.4620   24.4660 C   0  0  0  0  0  0  0  0  0  0  0  0
    9.2170   -4.7550   23.9770 C   0  0  0  0  0  0  0  0  0  0  0  0
    8.7340   -5.6000   25.0760 C   0  0  0  0  0  0  0  0  0  0  0  0
    8.2330   -6.9130   24.6450 C   0  0  0  0  0  0  0  0  0  0  0  0
    8.1260   -7.1430   23.4480 O   0  0  0  0  0  0  0  0  0  0  0  0
    6.9110   -7.7930   23.1130 C   0  0  0  0  0  0  0  0  0  0  0  0
    8.8520   -4.9430   26.2780 C   0  0  0  0  0  0  0  0  0  0  0  0
    8.3390   -5.5140   28.0140 Br  0  0  0  0  0  0  0  0  0  0  0  0
    9.5420   -3.4170   26.1290 S   0  0  0  0  0  0  0  0  0  0  0  0
    7.7600   -2.0830   23.8730 C   0  0  0  0  0  0  0  0  0  0  0  0
    7.0040   -3.1820   23.1220 C   0  0  0  0  0  0  0  0  0  0  0  0
  1  2  1  0
  3  2  1  0
  3  4  2  0
  3  5  2  0
  3  6  1  0
  6  7  1  0
  7  8  1  0
  8  9  1  0
  9 10  1  0
 10 11  1  0
 11 12  2  0
 12 13  1  0
 13 14  1  0
 14 15  1  0
 15 16  1  0
 13 17  2  0
 17 18  1  0
 11 19  1  0
 17 19  1  0
  9 20  1  0
  6 21  1  0
 20 21  1  0
M  END
