JOH-MSK-d60b0211-1-nitrile
     RDKit          3D

 27 29  0  0  0  0  0  0  0  0999 V2000
    7.8930   -3.1980   19.6110 C   0  0  0  0  0  0  0  0  0  0  0  0
    6.6420   -3.2970   19.2110 N   0  0  0  0  0  0  0  0  0  0  0  0
    8.2830   -2.4460   20.9870 C   0  0  0  0  0  0  0  0  0  0  0  0
    7.8300   -3.1130   22.2520 C   0  0  0  0  0  0  0  0  0  0  0  0
    8.0910   -2.4950   23.6180 C   0  0  0  0  0  0  0  0  0  0  0  0
    7.5480   -3.2340   24.6870 C   0  0  0  0  0  0  0  0  0  0  0  0
    6.1530   -3.2640   24.3070 N   0  0  0  0  0  0  0  0  0  0  0  0
    5.6270   -4.3230   23.5730 C   0  0  0  0  0  0  0  0  0  0  0  0
    5.3110   -3.8250   22.3180 C   0  0  0  0  0  0  0  0  0  0  0  0
    5.3160   -2.9610   21.5680 N   0  0  0  0  0  0  0  0  0  0  0  0
    5.3740   -3.0950   20.1180 C   0  0  0  0  0  0  0  0  0  0  0  0
    5.5620   -1.8750   19.4110 C   0  0  0  0  0  0  0  0  0  0  0  0
    5.2620   -4.1810   19.5570 O   0  0  0  0  0  0  0  0  0  0  0  0
    5.6960   -1.7520   22.3080 C   0  0  0  0  0  0  0  0  0  0  0  0
    5.7170   -1.9230   23.8020 C   0  0  0  0  0  0  0  0  0  0  0  0
    8.7740   -1.2870   23.7470 C   0  0  0  0  0  0  0  0  0  0  0  0
    9.0280   -0.7100   24.7820 N   0  0  0  0  0  0  0  0  0  0  0  0
    9.7260    0.5170   24.5360 C   0  0  0  0  0  0  0  0  0  0  0  0
    9.8590    0.5970   23.1550 C   0  0  0  0  0  0  0  0  0  0  0  0
   10.5550    1.8140   22.5370 C   0  0  0  0  0  0  0  0  0  0  0  0
   10.8140    3.0840   23.3710 C   0  0  0  0  0  0  0  0  0  0  0  0
   10.3570    4.3410   22.7600 N   0  0  0  0  0  0  0  0  0  0  0  0
   10.2180    5.5740   23.3440 C   0  0  0  0  0  0  0  0  0  0  0  0
    9.5650    6.5730   22.6140 C   0  0  0  0  0  0  0  0  0  0  0  0
   10.7340    5.8210   24.6480 O   0  0  0  0  0  0  0  0  0  0  0  0
    9.2410   -0.5880   22.5830 C   0  0  0  0  0  0  0  0  0  0  0  0
    8.9850   -1.1920   21.2770 C   0  0  0  0  0  0  0  0  0  0  0  0
  1  2  2  3
  1  3  1  0
  3  4  2  0
  4  5  1  0
  5  6  1  0
  6  7  1  0
  7  8  1  0
  8  9  1  0
  9 10  1  0
 10 11  1  0
 11 12  1  0
 11 13  2  0
 10 14  1  0
  7 15  1  0
 14 15  1  0
  5 16  2  0
 16 17  1  0
 17 18  1  0
 18 19  2  0
 19 20  1  0
 20 21  1  0
 21 22  1  0
 22 23  1  0
 23 24  1  0
 23 25  2  0
 16 26  1  0
 19 26  1  0
  3 27  1  0
 26 27  2  0
M  END
