JOH-UNI-27ac80fd-12-nitrile
     RDKit          3D

 16 17  0  0  0  0  0  0  0  0999 V2000
    6.7680   -3.6360   19.8180 C   0  0  0  0  0  0  0  0  0  0  0  0
    5.8160   -4.4900   19.9290 N   0  0  0  0  0  0  0  0  0  0  0  0
    6.7960   -2.5840   20.6970 N   0  0  0  0  0  0  0  0  0  0  0  0
    7.4850   -1.3250   20.5030 C   0  0  0  0  0  0  0  0  0  0  0  0
    8.5190   -1.2050   21.4450 C   0  0  0  0  0  0  0  0  0  0  0  0
    7.8900   -1.1490   22.8030 N   0  0  0  0  0  0  0  0  0  0  0  0
    8.7580   -1.7370   23.8480 C   0  0  0  0  0  0  0  0  0  0  0  0
    8.2990   -3.0840   24.2010 N   0  0  0  0  0  0  0  0  0  0  0  0
    9.1400   -4.1590   23.6830 C   0  0  0  0  0  0  0  0  0  0  0  0
    8.4500   -5.5130   23.6060 C   0  0  0  0  0  0  0  0  0  0  0  0
    7.0020   -5.4380   24.1000 C   0  0  0  0  0  0  0  0  0  0  0  0
    6.9010   -5.4430   25.3230 O   0  0  0  0  0  0  0  0  0  0  0  0
    6.7480   -4.1520   25.9240 C   0  0  0  0  0  0  0  0  0  0  0  0
    7.9120   -3.1980   25.6150 C   0  0  0  0  0  0  0  0  0  0  0  0
    6.5750   -1.6380   22.8870 C   0  0  0  0  0  0  0  0  0  0  0  0
    6.0040   -2.5660   21.8110 C   0  0  0  0  0  0  0  0  0  0  0  0
  1  2  2  3
  1  3  1  0
  3  4  1  0
  4  5  1  0
  5  6  1  0
  6  7  1  0
  7  8  1  0
  8  9  1  0
  9 10  1  0
 10 11  1  0
 11 12  1  0
 12 13  1  0
  8 14  1  0
 13 14  1  0
  6 15  1  0
  3 16  1  0
 15 16  1  0
M  END
