JOH-UNI-9dc98897-5-chloroacetamide
     RDKit          3D

 19 20  0  0  0  0  0  0  0  0999 V2000
    7.9670   -3.8640   19.9930 C   0  0  0  0  0  0  0  0  0  0  0  0
    6.6540   -4.0330   20.6450 C   0  0  0  0  0  0  0  0  0  0  0  0
    5.6270   -4.2930   19.9760 O   0  0  0  0  0  0  0  0  0  0  0  0
    6.7610   -3.9220   22.1250 C   0  0  0  0  0  0  0  0  0  0  0  0
    5.7540   -4.2860   22.9960 C   0  0  0  0  0  0  0  0  0  0  0  0
    6.0010   -4.1540   24.3700 C   0  0  0  0  0  0  0  0  0  0  0  0
    7.2330   -3.6690   24.8430 C   0  0  0  0  0  0  0  0  0  0  0  0
    7.5160   -3.5350   26.2100 N   0  0  0  0  0  0  0  0  0  0  0  0
    8.5240   -4.4530   26.7850 C   0  0  0  0  0  0  0  0  0  0  0  0
    7.9260   -5.7540   27.3060 C   0  0  0  0  0  0  0  0  0  0  0  0
    6.4160   -5.8320   27.0930 C   0  0  0  0  0  0  0  0  0  0  0  0
    5.6700   -5.1060   28.0600 O   0  0  0  0  0  0  0  0  0  0  0  0
    6.1730   -3.8010   28.3290 C   0  0  0  0  0  0  0  0  0  0  0  0
    6.3860   -3.0310   27.0270 C   0  0  0  0  0  0  0  0  0  0  0  0
    8.1850   -3.3200   23.8730 C   0  0  0  0  0  0  0  0  0  0  0  0
    9.5390   -2.7790   24.2900 C   0  0  0  0  0  0  0  0  0  0  0  0
   10.5670   -3.6430   24.0390 F   0  0  0  0  0  0  0  0  0  0  0  0
    9.8840   -1.6330   23.6300 F   0  0  0  0  0  0  0  0  0  0  0  0
    7.9550   -3.4410   22.5380 N   0  0  0  0  0  0  0  0  0  0  0  0
  1  2  1  0
  2  3  2  0
  2  4  1  0
  4  5  2  0
  5  6  1  0
  6  7  2  0
  7  8  1  0
  8  9  1  0
  9 10  1  0
 10 11  1  0
 11 12  1  0
 12 13  1  0
  8 14  1  0
 13 14  1  0
  7 15  1  0
 15 16  1  0
 16 17  1  0
 16 18  1  0
  4 19  1  0
 15 19  2  0
M  END
