JOH-UNI-27ac80fd-25-nitrile
     RDKit          3D

 16 17  0  0  0  0  0  0  0  0999 V2000
    6.8370   -3.4060   19.8530 C   0  0  0  0  0  0  0  0  0  0  0  0
    5.6950   -3.7560   19.4330 N   0  0  0  0  0  0  0  0  0  0  0  0
    6.9590   -2.7440   21.0290 N   0  0  0  0  0  0  0  0  0  0  0  0
    6.5170   -3.2690   22.3000 C   0  0  0  0  0  0  0  0  0  0  0  0
    7.6250   -3.7880   22.9760 C   0  0  0  0  0  0  0  0  0  0  0  0
    8.5100   -2.6300   23.2920 N   0  0  0  0  0  0  0  0  0  0  0  0
    9.6200   -3.0650   24.1520 C   0  0  0  0  0  0  0  0  0  0  0  0
   10.7450   -2.6290   23.9000 O   0  0  0  0  0  0  0  0  0  0  0  0
    9.2100   -3.9390   25.1560 C   0  0  0  0  0  0  0  0  0  0  0  0
    9.8630   -5.2800   25.3360 C   0  0  0  0  0  0  0  0  0  0  0  0
    9.2650   -6.0620   26.4510 C   0  0  0  0  0  0  0  0  0  0  0  0
    8.1480   -5.2970   27.1160 C   0  0  0  0  0  0  0  0  0  0  0  0
    7.0790   -5.8900   28.5700 Br  0  0  0  0  0  0  0  0  0  0  0  0
    7.9030   -3.6860   26.3500 S   0  0  0  0  0  0  0  0  0  0  0  0
    8.9100   -2.0360   22.1500 C   0  0  0  0  0  0  0  0  0  0  0  0
    7.8230   -1.5350   21.1920 C   0  0  0  0  0  0  0  0  0  0  0  0
  1  2  2  3
  1  3  1  0
  3  4  1  0
  4  5  1  0
  5  6  1  0
  6  7  1  0
  7  8  2  0
  7  9  1  0
  9 10  2  0
 10 11  1  0
 11 12  2  0
 12 13  1  0
  9 14  1  0
 12 14  1  0
  6 15  1  0
  3 16  1  0
 15 16  1  0
M  END
