JOH-UNI-27ac80fd-18-vinylsulfonamide
     RDKit          3D

 22 24  0  0  0  0  0  0  0  0999 V2000
    8.6130   -3.8650   20.2620 C   0  0  0  0  0  0  0  0  0  0  0  0
    7.4660   -3.0470   19.6390 C   0  0  0  0  0  0  0  0  0  0  0  0
    5.9800   -3.4470   20.5400 S   0  0  0  0  0  0  0  0  0  0  0  0
    4.8020   -3.3540   19.7080 O   0  0  0  0  0  0  0  0  0  0  0  0
    6.2190   -4.6930   21.2210 O   0  0  0  0  0  0  0  0  0  0  0  0
    5.9240   -2.2020   21.7030 N   0  0  0  0  0  0  0  0  0  0  0  0
    7.1990   -1.5280   21.9990 C   0  0  0  0  0  0  0  0  0  0  0  0
    7.9830   -2.2580   23.1060 C   0  0  0  0  0  0  0  0  0  0  0  0
    7.0680   -2.9190   24.0550 N   0  0  0  0  0  0  0  0  0  0  0  0
    7.6580   -3.1310   25.3920 C   0  0  1  0  0  0  0  0  0  0  0  0
    8.5970   -4.2840   25.4590 N   0  0  0  0  0  0  0  0  0  0  0  0
    9.3680   -4.6520   24.3750 C   0  0  0  0  0  0  0  0  0  0  0  0
    8.7970   -5.7370   23.4780 C   0  0  0  0  0  0  0  0  0  0  0  0
    7.4220   -5.5640   23.1950 C   0  0  0  0  0  0  0  0  0  0  0  0
    6.5660   -6.0190   24.1730 O   0  0  0  0  0  0  0  0  0  0  0  0
    6.6920   -5.5140   25.5030 C   0  0  0  0  0  0  0  0  0  0  0  0
    7.9570   -5.3340   26.0480 C   0  0  0  0  0  0  0  0  0  0  0  0
    7.8230   -2.0260   26.0790 C   0  0  0  0  0  0  0  0  0  0  0  0
    6.9870   -2.1760   27.1180 C   0  0  0  0  0  0  0  0  0  0  0  0
    6.6310   -3.2430   26.5030 O   0  0  0  0  0  0  0  0  0  0  0  0
    5.6770   -2.4130   24.1020 C   0  0  0  0  0  0  0  0  0  0  0  0
    5.0520   -2.4820   22.8560 C   0  0  0  0  0  0  0  0  0  0  0  0
  1  2  1  0
  3  2  1  0
  3  4  2  0
  3  5  2  0
  3  6  1  0
  6  7  1  0
  7  8  1  0
  8  9  1  0
 10  9  1  6
 10 11  1  0
 11 12  1  0
 12 13  1  0
 13 14  1  0
 14 15  1  0
 15 16  1  0
 11 17  1  0
 16 17  1  0
 10 18  1  0
 18 19  1  0
 10 20  1  0
 19 20  1  0
  9 21  1  0
  6 22  1  0
 21 22  1  0
M  END
