JOH-UNI-27ac80fd-8-nitrile
     RDKit          3D

 17 18  0  0  0  0  0  0  0  0999 V2000
    6.8050   -3.6920   20.0210 C   0  0  0  0  0  0  0  0  0  0  0  0
    5.7950   -4.4790   19.9010 N   0  0  0  0  0  0  0  0  0  0  0  0
    6.8340   -2.6730   20.9750 N   0  0  0  0  0  0  0  0  0  0  0  0
    6.0660   -2.8060   22.2210 C   0  0  0  0  0  0  0  0  0  0  0  0
    6.8400   -2.3360   23.4860 C   0  0  0  0  0  0  0  0  0  0  0  0
    8.2920   -2.0690   23.3550 N   0  0  0  0  0  0  0  0  0  0  0  0
    9.1720   -2.5560   24.4430 C   0  0  0  0  0  0  0  0  0  0  0  0
    8.8470   -3.7970   24.9540 N   0  0  0  0  0  0  0  0  0  0  0  0
    9.1670   -5.0610   24.4400 C   0  0  0  0  0  0  0  0  0  0  0  0
    8.2690   -5.7190   23.6030 C   0  0  0  0  0  0  0  0  0  0  0  0
    6.9430   -5.5830   23.9860 C   0  0  0  0  0  0  0  0  0  0  0  0
    6.8230   -5.6540   25.4050 O   0  0  0  0  0  0  0  0  0  0  0  0
    6.7470   -4.4060   26.0970 C   0  0  0  0  0  0  0  0  0  0  0  0
    7.9750   -3.7330   26.1440 C   0  0  0  0  0  0  0  0  0  0  0  0
    8.8440   -1.8770   21.9840 C   0  0  2  0  0  0  0  0  0  0  0  0
    9.9390   -1.0210   22.0530 C   0  0  0  0  0  0  0  0  0  0  0  0
    7.8300   -1.5860   21.0550 C   0  0  0  0  0  0  0  0  0  0  0  0
  1  2  2  3
  1  3  1  0
  3  4  1  0
  4  5  1  0
  5  6  1  0
  6  7  1  0
  7  8  1  0
  8  9  1  0
  9 10  1  0
 10 11  1  0
 11 12  1  0
 12 13  1  0
  8 14  1  0
 13 14  1  0
  6 15  1  0
 15 16  1  1
  3 17  1  0
 15 17  1  0
M  END
