JOH-UNI-27ac80fd-11-nitrile
     RDKit          3D

 17 18  0  0  0  0  0  0  0  0999 V2000
    6.8520   -3.6490   19.8100 C   0  0  0  0  0  0  0  0  0  0  0  0
    5.8820   -4.4930   19.9180 N   0  0  0  0  0  0  0  0  0  0  0  0
    6.7140   -2.4230   20.4360 N   0  0  0  0  0  0  0  0  0  0  0  0
    7.5680   -1.2560   20.2400 C   0  0  0  0  0  0  0  0  0  0  0  0
    8.4900   -1.1540   21.4820 C   0  0  0  0  0  0  0  0  0  0  0  0
    7.7910   -1.4960   22.7540 N   0  0  0  0  0  0  0  0  0  0  0  0
    8.7660   -1.7380   23.8350 C   0  0  0  0  0  0  0  0  0  0  0  0
    8.4540   -3.0400   24.4780 N   0  0  0  0  0  0  0  0  0  0  0  0
    9.1220   -4.2020   24.1510 C   0  0  0  0  0  0  0  0  0  0  0  0
    8.3040   -5.4460   24.4580 C   0  0  0  0  0  0  0  0  0  0  0  0
    6.8570   -5.0920   24.7760 C   0  0  0  0  0  0  0  0  0  0  0  0
    6.5000   -4.5100   25.9660 O   0  0  0  0  0  0  0  0  0  0  0  0
    6.8470   -3.1430   26.1360 C   0  0  0  0  0  0  0  0  0  0  0  0
    8.1750   -2.9340   25.7940 C   0  0  0  0  0  0  0  0  0  0  0  0
    6.9510   -2.5920   22.6360 C   0  0  0  0  0  0  0  0  0  0  0  0
    6.0280   -2.3290   21.6130 C   0  0  1  0  0  0  0  0  0  0  0  0
    5.3240   -1.1210   21.6850 C   0  0  0  0  0  0  0  0  0  0  0  0
  1  2  2  3
  1  3  1  0
  3  4  1  0
  4  5  1  0
  5  6  1  0
  6  7  1  0
  7  8  1  0
  8  9  1  0
  9 10  1  0
 10 11  1  0
 11 12  1  0
 12 13  1  0
  8 14  1  0
 13 14  1  0
  6 15  1  0
  3 16  1  0
 15 16  1  0
 16 17  1  1
M  END
