JOH-UNI-27ac80fd-28-vinylsulfonamide
     RDKit          3D

 19 20  0  0  0  0  0  0  0  0999 V2000
    7.1630   -2.7390   18.2480 C   0  0  0  0  0  0  0  0  0  0  0  0
    6.3040   -2.1020   19.3020 C   0  0  0  0  0  0  0  0  0  0  0  0
    5.6460   -3.2920   20.3940 S   0  0  0  0  0  0  0  0  0  0  0  0
    4.6310   -2.8730   21.2710 O   0  0  0  0  0  0  0  0  0  0  0  0
    5.5470   -4.6010   19.8040 O   0  0  0  0  0  0  0  0  0  0  0  0
    6.8580   -3.1290   21.4580 N   0  0  0  0  0  0  0  0  0  0  0  0
    7.5320   -1.8230   21.5610 C   0  0  0  0  0  0  0  0  0  0  0  0
    8.7050   -1.9560   22.3030 C   0  0  0  0  0  0  0  0  0  0  0  0
    8.4880   -2.8180   23.5090 N   0  0  0  0  0  0  0  0  0  0  0  0
    9.6830   -3.0130   24.3050 C   0  0  0  0  0  0  0  0  0  0  0  0
    9.2600   -4.0460   25.3120 C   0  0  0  0  0  0  0  0  0  0  0  0
    9.8630   -5.4130   25.4430 C   0  0  0  0  0  0  0  0  0  0  0  0
    9.2210   -6.1860   26.5250 C   0  0  0  0  0  0  0  0  0  0  0  0
    8.1400   -5.3390   27.1700 C   0  0  0  0  0  0  0  0  0  0  0  0
    7.0160   -5.8870   28.5990 Br  0  0  0  0  0  0  0  0  0  0  0  0
    8.0090   -3.7750   26.4600 S   0  0  0  0  0  0  0  0  0  0  0  0
    7.9650   -4.1630   23.1550 C   0  0  1  0  0  0  0  0  0  0  0  0
    7.7580   -5.3720   24.0600 C   0  0  0  0  0  0  0  0  0  0  0  0
    6.5930   -3.8280   22.6590 C   0  0  0  0  0  0  0  0  0  0  0  0
  1  2  1  0
  3  2  1  0
  3  4  2  0
  3  5  2  0
  3  6  1  0
  6  7  1  0
  7  8  1  0
  8  9  1  0
  9 10  1  0
 10 11  1  0
 11 12  2  0
 12 13  1  0
 13 14  2  0
 14 15  1  0
 11 16  1  0
 14 16  1  0
  9 17  1  0
 17 18  1  1
  6 19  1  0
 17 19  1  0
M  END
