JOH-UNI-522b0723-11-chloroacetamide
     RDKit          3D

 25 27  0  0  0  0  0  0  0  0999 V2000
    8.3520   -3.3150   19.7490 C   0  0  0  0  0  0  0  0  0  0  0  0
    7.2140   -2.5900   20.2660 C   0  0  0  0  0  0  0  0  0  0  0  0
    6.1600   -3.0400   19.5190 O   0  0  0  0  0  0  0  0  0  0  0  0
    7.4110   -1.5870   21.5100 C   0  0  0  0  0  0  0  0  0  0  0  0
    7.9310   -2.8240   21.7470 N   0  0  0  0  0  0  0  0  0  0  0  0
    8.5910   -3.4960   22.8520 C   0  0  0  0  0  0  0  0  0  0  0  0
    8.8010   -2.7680   24.1090 C   0  0  0  0  0  0  0  0  0  0  0  0
    9.4090   -3.5990   25.1630 N   0  0  0  0  0  0  0  0  0  0  0  0
    8.6440   -3.6870   26.3320 C   0  0  0  0  0  0  0  0  0  0  0  0
    7.6360   -4.8690   26.4560 C   0  0  0  0  0  0  0  0  0  0  0  0
    7.4810   -5.6500   25.5170 O   0  0  0  0  0  0  0  0  0  0  0  0
    8.2060   -5.2030   24.3620 C   0  0  2  0  0  0  0  0  0  0  0  0
    7.9790   -6.1390   23.3760 C   0  0  0  0  0  0  0  0  0  0  0  0
    9.5180   -4.9770   24.7650 C   0  0  0  0  0  0  0  0  0  0  0  0
    8.3520   -1.4730   23.9750 C   0  0  0  0  0  0  0  0  0  0  0  0
    7.7250   -0.9180   22.7990 C   0  0  0  0  0  0  0  0  0  0  0  0
    7.3700    0.4230   22.9520 C   0  0  0  0  0  0  0  0  0  0  0  0
    8.4320    1.1860   23.3030 O   0  0  0  0  0  0  0  0  0  0  0  0
    6.0720    0.8310   22.7440 N   0  0  0  0  0  0  0  0  0  0  0  0
    5.3480    1.9340   23.4540 C   0  0  0  0  0  0  0  0  0  0  0  0
    4.0500    2.3470   22.8190 C   0  0  0  0  0  0  0  0  0  0  0  0
    3.2940    3.3450   23.3720 C   0  0  0  0  0  0  0  0  0  0  0  0
    3.7400    3.9740   24.5310 C   0  0  0  0  0  0  0  0  0  0  0  0
    4.9470    3.6260   25.1640 C   0  0  0  0  0  0  0  0  0  0  0  0
    5.7530    2.6040   24.6260 C   0  0  0  0  0  0  0  0  0  0  0  0
  1  2  1  0
  2  3  2  0
  2  4  1  0
  4  5  2  0
  5  6  1  0
  6  7  2  0
  7  8  1  0
  8  9  1  0
  9 10  1  0
 10 11  1  0
 11 12  1  0
 12 13  1  6
  8 14  1  0
 12 14  1  0
  7 15  1  0
  4 16  1  0
 15 16  2  0
 16 17  1  0
 17 18  2  0
 17 19  1  0
 19 20  1  0
 20 21  2  0
 21 22  1  0
 22 23  2  0
 23 24  1  0
 20 25  1  0
 24 25  2  0
M  END
