JOH-UNI-27ac80fd-7
     RDKit          3D

 19 20  0  0  0  0  0  0  0  0999 V2000
    9.7560   -0.7690   22.5560 C   0  0  0  0  0  0  0  0  0  0  0  0
    8.8230   -1.8810   22.1140 C   0  0  2  0  0  0  0  0  0  0  0  0
    7.6380   -1.3600   21.2920 C   0  0  0  0  0  0  0  0  0  0  0  0
    6.4600   -2.2440   21.1820 N   0  0  0  0  0  0  0  0  0  0  0  0
    6.1330   -2.7330   19.8430 C   0  0  0  0  0  0  0  0  0  0  0  0
    5.4800   -3.7560   19.6020 O   0  0  0  0  0  0  0  0  0  0  0  0
    6.6550   -1.8400   18.7470 C   0  0  0  0  0  0  0  0  0  0  0  0
    6.3860   -0.5120   18.9650 F   0  0  0  0  0  0  0  0  0  0  0  0
    6.3160   -3.1040   22.3600 C   0  0  0  0  0  0  0  0  0  0  0  0
    7.5470   -3.6630   22.7130 C   0  0  0  0  0  0  0  0  0  0  0  0
    8.3930   -2.7100   23.2660 N   0  0  0  0  0  0  0  0  0  0  0  0
    9.5570   -2.9480   24.1880 C   0  0  0  0  0  0  0  0  0  0  0  0
    9.3480   -4.0880   25.1430 N   0  0  0  0  0  0  0  0  0  0  0  0
    9.4400   -5.5350   24.8480 C   0  0  0  0  0  0  0  0  0  0  0  0
    8.5260   -5.8090   23.8320 C   0  0  0  0  0  0  0  0  0  0  0  0
    7.1930   -5.6140   24.1510 C   0  0  0  0  0  0  0  0  0  0  0  0
    6.8910   -5.7080   25.5320 O   0  0  0  0  0  0  0  0  0  0  0  0
    7.1130   -4.5150   26.2720 C   0  0  0  0  0  0  0  0  0  0  0  0
    8.4790   -3.7900   26.3000 C   0  0  0  0  0  0  0  0  0  0  0  0
  2  1  1  1
  2  3  1  0
  3  4  1  0
  4  5  1  0
  5  6  2  0
  5  7  1  0
  7  8  1  0
  4  9  1  0
  9 10  1  0
  2 11  1  0
 10 11  1  0
 11 12  1  0
 12 13  1  0
 13 14  1  0
 14 15  1  0
 15 16  1  0
 16 17  1  0
 17 18  1  0
 13 19  1  0
 18 19  1  0
M  END
