JOH-UNI-27ac80fd-13-nitrile
     RDKit          3D

 17 18  0  0  0  0  0  0  0  0999 V2000
    7.1490   -3.2970   19.5630 C   0  0  0  0  0  0  0  0  0  0  0  0
    6.1770   -3.1840   18.7390 N   0  0  0  0  0  0  0  0  0  0  0  0
    7.1290   -2.7030   20.7780 N   0  0  0  0  0  0  0  0  0  0  0  0
    6.3080   -3.1470   21.8730 C   0  0  0  0  0  0  0  0  0  0  0  0
    7.0750   -3.1700   23.0530 C   0  0  0  0  0  0  0  0  0  0  0  0
    7.5050   -1.7690   23.3670 N   0  0  0  0  0  0  0  0  0  0  0  0
    8.0770   -1.6620   24.7330 C   0  0  0  0  0  0  0  0  0  0  0  0
    7.9590   -2.9490   25.4270 N   0  0  0  0  0  0  0  0  0  0  0  0
    9.1120   -3.8510   25.4390 C   0  0  0  0  0  0  0  0  0  0  0  0
    8.6850   -5.2920   25.2470 C   0  0  0  0  0  0  0  0  0  0  0  0
    7.1820   -5.3170   24.9370 C   0  0  0  0  0  0  0  0  0  0  0  0
    6.4670   -5.3920   25.9300 O   0  0  0  0  0  0  0  0  0  0  0  0
    5.9020   -4.1370   26.3350 C   0  0  0  0  0  0  0  0  0  0  0  0
    6.9650   -3.0420   26.5090 C   0  0  0  0  0  0  0  0  0  0  0  0
    8.3800   -1.2730   22.4070 C   0  0  1  0  0  0  0  0  0  0  0  0
    9.7610   -1.9110   22.2810 C   0  0  0  0  0  0  0  0  0  0  0  0
    7.7200   -1.3570   21.0060 C   0  0  0  0  0  0  0  0  0  0  0  0
  1  2  2  3
  1  3  1  0
  3  4  1  0
  4  5  1  0
  5  6  1  0
  6  7  1  0
  7  8  1  0
  8  9  1  0
  9 10  1  0
 10 11  1  0
 11 12  1  0
 12 13  1  0
  8 14  1  0
 13 14  1  0
  6 15  1  0
 15 16  1  6
  3 17  1  0
 15 17  1  0
M  END
