JOH-UNI-27ac80fd-21-vinylsulfonamide
     RDKit          3D

 21 22  0  0  0  0  0  0  0  0999 V2000
    8.0080   -3.5560   19.6150 C   0  0  0  0  0  0  0  0  0  0  0  0
    6.9200   -2.7890   18.9190 C   0  0  0  0  0  0  0  0  0  0  0  0
    5.7000   -3.3550   20.0080 S   0  0  0  0  0  0  0  0  0  0  0  0
    4.4170   -2.9700   19.6150 O   0  0  0  0  0  0  0  0  0  0  0  0
    5.8380   -4.7710   20.0880 O   0  0  0  0  0  0  0  0  0  0  0  0
    6.2270   -2.5950   21.4410 N   0  0  0  0  0  0  0  0  0  0  0  0
    7.3210   -1.5860   21.3620 C   0  0  0  0  0  0  0  0  0  0  0  0
    8.5460   -1.9220   22.2490 C   0  0  0  0  0  0  0  0  0  0  0  0
    8.1940   -2.7260   23.4350 N   0  0  0  0  0  0  0  0  0  0  0  0
    9.3420   -3.0100   24.3200 C   0  0  0  0  0  0  0  0  0  0  0  0
    9.0130   -3.9740   25.4250 N   0  0  0  0  0  0  0  0  0  0  0  0
    9.4450   -5.2770   25.2720 C   0  0  0  0  0  0  0  0  0  0  0  0
    9.2650   -6.1210   26.5110 C   0  0  0  0  0  0  0  0  0  0  0  0
    7.9090   -6.4350   26.7740 O   0  0  0  0  0  0  0  0  0  0  0  0
    7.4760   -5.6920   27.8780 C   0  0  0  0  0  0  0  0  0  0  0  0
    8.0540   -4.4590   28.0050 C   0  0  0  0  0  0  0  0  0  0  0  0
    7.9370   -3.4760   26.6290 S   0  0  0  0  0  0  0  0  0  0  0  0
    8.3760   -2.1730   27.0660 O   0  0  0  0  0  0  0  0  0  0  0  0
    6.5970   -3.6810   26.1430 O   0  0  0  0  0  0  0  0  0  0  0  0
    7.4740   -3.8500   23.0930 C   0  0  0  0  0  0  0  0  0  0  0  0
    6.2510   -3.4440   22.5510 C   0  0  0  0  0  0  0  0  0  0  0  0
  1  2  1  0
  3  2  1  0
  3  4  2  0
  3  5  2  0
  3  6  1  0
  6  7  1  0
  7  8  1  0
  8  9  1  0
  9 10  1  0
 10 11  1  0
 11 12  1  0
 12 13  1  0
 13 14  1  0
 14 15  1  0
 15 16  1  0
 17 11  1  0
 16 17  1  0
 17 18  2  0
 17 19  2  0
  9 20  1  0
  6 21  1  0
 20 21  1  0
M  END
