JOH-UNI-27ac80fd-3-chloroacetamide
     RDKit          3D

 17 18  0  0  0  0  0  0  0  0999 V2000
    7.2930   -2.9450   18.7550 C   0  0  0  0  0  0  0  0  0  0  0  0
    6.3240   -3.2140   19.8630 C   0  0  0  0  0  0  0  0  0  0  0  0
    5.4250   -4.0580   19.7250 O   0  0  0  0  0  0  0  0  0  0  0  0
    6.5030   -2.4870   21.0540 N   0  0  0  0  0  0  0  0  0  0  0  0
    6.1630   -3.1310   22.3120 C   0  0  0  0  0  0  0  0  0  0  0  0
    7.4290   -3.5300   23.0810 C   0  0  0  0  0  0  0  0  0  0  0  0
    8.4070   -2.4580   23.3030 N   0  0  0  0  0  0  0  0  0  0  0  0
    9.5060   -2.9150   24.1850 C   0  0  0  0  0  0  0  0  0  0  0  0
    9.2230   -4.0510   24.9380 N   0  0  0  0  0  0  0  0  0  0  0  0
    9.4840   -5.3620   24.5770 C   0  0  0  0  0  0  0  0  0  0  0  0
    8.5950   -5.8740   23.6500 C   0  0  0  0  0  0  0  0  0  0  0  0
    7.2980   -5.6800   24.0920 C   0  0  0  0  0  0  0  0  0  0  0  0
    7.1910   -5.7370   25.5090 O   0  0  0  0  0  0  0  0  0  0  0  0
    7.2310   -4.4830   26.1970 C   0  0  0  0  0  0  0  0  0  0  0  0
    8.4930   -3.8450   26.2250 C   0  0  0  0  0  0  0  0  0  0  0  0
    8.7850   -1.7680   22.0210 C   0  0  0  0  0  0  0  0  0  0  0  0
    7.5410   -1.4240   21.1470 C   0  0  0  0  0  0  0  0  0  0  0  0
  1  2  1  0
  2  3  2  0
  2  4  1  0
  4  5  1  0
  5  6  1  0
  6  7  1  0
  7  8  1  0
  8  9  1  0
  9 10  1  0
 10 11  1  0
 11 12  1  0
 12 13  1  0
 13 14  1  0
  9 15  1  0
 14 15  1  0
  7 16  1  0
  4 17  1  0
 16 17  1  0
M  END
