JOH-UNI-27ac80fd-21-nitrile
     RDKit          3D

 18 19  0  0  0  0  0  0  0  0999 V2000
    6.7400   -3.5220   19.9370 C   0  0  0  0  0  0  0  0  0  0  0  0
    5.7280   -4.2810   19.7970 N   0  0  0  0  0  0  0  0  0  0  0  0
    6.8300   -2.7350   21.0650 N   0  0  0  0  0  0  0  0  0  0  0  0
    7.7200   -1.5680   21.2090 C   0  0  0  0  0  0  0  0  0  0  0  0
    8.8060   -1.9140   22.2510 C   0  0  0  0  0  0  0  0  0  0  0  0
    8.3230   -2.7760   23.3610 N   0  0  0  0  0  0  0  0  0  0  0  0
    9.4860   -3.2780   24.1020 C   0  0  0  0  0  0  0  0  0  0  0  0
    9.1140   -4.1090   25.2780 N   0  0  0  0  0  0  0  0  0  0  0  0
    9.9660   -5.1250   25.6510 C   0  0  0  0  0  0  0  0  0  0  0  0
    9.3000   -6.1850   26.5010 C   0  0  0  0  0  0  0  0  0  0  0  0
    9.1970   -5.7760   27.7870 O   0  0  0  0  0  0  0  0  0  0  0  0
    7.8470   -5.5180   28.1170 C   0  0  0  0  0  0  0  0  0  0  0  0
    7.1820   -4.8540   27.0830 C   0  0  0  0  0  0  0  0  0  0  0  0
    8.1240   -3.4930   26.4810 S   0  0  0  0  0  0  0  0  0  0  0  0
    8.9990   -3.1200   27.5490 O   0  0  0  0  0  0  0  0  0  0  0  0
    7.2610   -2.5520   25.8080 O   0  0  0  0  0  0  0  0  0  0  0  0
    7.5270   -3.8150   22.9200 C   0  0  0  0  0  0  0  0  0  0  0  0
    6.4330   -3.2450   22.2730 C   0  0  0  0  0  0  0  0  0  0  0  0
  1  2  2  3
  1  3  1  0
  3  4  1  0
  4  5  1  0
  5  6  1  0
  6  7  1  0
  7  8  1  0
  8  9  1  0
  9 10  1  0
 10 11  1  0
 11 12  1  0
 12 13  1  0
 14  8  1  0
 13 14  1  0
 14 15  2  0
 14 16  2  0
  6 17  1  0
  3 18  1  0
 17 18  1  0
M  END
