JOH-UNI-522b0723-7-acrylamide
     RDKit          3D

 27 29  0  0  0  0  0  0  0  0999 V2000
    8.1160   -3.4160   20.0340 C   0  0  0  0  0  0  0  0  0  0  0  0
    7.1240   -2.2290   19.8060 C   0  0  0  0  0  0  0  0  0  0  0  0
    6.2570   -2.5280   20.9920 C   0  0  0  0  0  0  0  0  0  0  0  0
    4.9670   -3.0900   20.9790 O   0  0  0  0  0  0  0  0  0  0  0  0
    7.1540   -2.3250   22.1830 C   0  0  0  0  0  0  0  0  0  0  0  0
    7.5050   -3.3880   22.7060 N   0  0  0  0  0  0  0  0  0  0  0  0
    8.0530   -2.4510   23.3770 C   0  0  0  0  0  0  0  0  0  0  0  0
    8.5440   -3.4270   24.2150 C   0  0  0  0  0  0  0  0  0  0  0  0
    9.2220   -3.8190   25.2630 N   0  0  0  0  0  0  0  0  0  0  0  0
    9.8900   -4.9830   25.0030 C   0  0  0  0  0  0  0  0  0  0  0  0
    9.1150   -5.8050   24.2150 C   0  0  0  0  0  0  0  0  0  0  0  0
    7.7150   -5.6750   24.6780 N   0  0  0  0  0  0  0  0  0  0  0  0
    7.3530   -4.9340   25.9100 C   0  0  1  0  0  0  0  0  0  0  0  0
    6.7970   -5.8220   26.7980 C   0  0  0  0  0  0  0  0  0  0  0  0
    8.3800   -4.1400   26.4180 C   0  0  2  0  0  0  0  0  0  0  0  0
    7.9800   -2.9890   27.1020 C   0  0  0  0  0  0  0  0  0  0  0  0
    8.6800   -2.0070   24.2320 C   0  0  0  0  0  0  0  0  0  0  0  0
    7.8310   -1.3180   23.0020 C   0  0  0  0  0  0  0  0  0  0  0  0
    7.7680    0.1940   22.7720 C   0  0  0  0  0  0  0  0  0  0  0  0
    6.5540    0.4790   22.2320 O   0  0  0  0  0  0  0  0  0  0  0  0
    8.7390    1.0920   23.0490 N   0  0  0  0  0  0  0  0  0  0  0  0
   10.1610    0.9120   22.9570 C   0  0  0  0  0  0  0  0  0  0  0  0
   11.0300    1.9860   22.9350 C   0  0  0  0  0  0  0  0  0  0  0  0
   12.3950    1.9060   22.8660 C   0  0  0  0  0  0  0  0  0  0  0  0
   12.9710    0.6450   22.8060 C   0  0  0  0  0  0  0  0  0  0  0  0
   12.1990   -0.5240   22.8100 C   0  0  0  0  0  0  0  0  0  0  0  0
   10.7030   -0.3770   22.8920 C   0  0  0  0  0  0  0  0  0  0  0  0
  1  2  1  0
  2  3  1  0
  3  4  2  0
  3  5  1  0
  5  6  2  0
  6  7  1  0
  7  8  2  0
  8  9  1  0
  9 10  1  0
 10 11  1  0
 11 12  1  0
 12 13  1  0
 13 14  1  1
  9 15  1  0
 13 15  1  0
 15 16  1  6
  8 17  1  0
  5 18  1  0
 17 18  2  0
 18 19  1  0
 19 20  2  0
 19 21  1  0
 21 22  1  0
 22 23  2  0
 23 24  1  0
 24 25  2  0
 25 26  1  0
 22 27  1  0
 26 27  2  0
M  END
