JOH-UNI-27ac80fd-18-vinylsulfonamide
     RDKit          3D

 22 24  0  0  0  0  0  0  0  0999 V2000
    8.1740   -3.5610   19.9490 C   0  0  0  0  0  0  0  0  0  0  0  0
    7.0810   -2.6990   19.3860 C   0  0  0  0  0  0  0  0  0  0  0  0
    5.6770   -2.9500   20.4090 S   0  0  0  0  0  0  0  0  0  0  0  0
    4.5590   -3.1940   19.5460 O   0  0  0  0  0  0  0  0  0  0  0  0
    6.0050   -3.9190   21.4250 O   0  0  0  0  0  0  0  0  0  0  0  0
    5.4780   -1.4400   21.1410 N   0  0  0  0  0  0  0  0  0  0  0  0
    6.4920   -0.4400   20.8010 C   0  0  0  0  0  0  0  0  0  0  0  0
    7.6800   -0.6300   21.5240 C   0  0  0  0  0  0  0  0  0  0  0  0
    7.4950   -0.7550   23.0200 N   0  0  0  0  0  0  0  0  0  0  0  0
    8.7600   -1.2060   23.7150 C   0  0  2  0  0  0  0  0  0  0  0  0
    8.6270   -2.6140   24.1650 N   0  0  0  0  0  0  0  0  0  0  0  0
    9.8040   -3.4480   23.9460 C   0  0  0  0  0  0  0  0  0  0  0  0
    9.5950   -4.8590   24.5120 C   0  0  0  0  0  0  0  0  0  0  0  0
    8.1340   -5.2670   24.4200 C   0  0  0  0  0  0  0  0  0  0  0  0
    7.5420   -5.1450   25.4960 O   0  0  0  0  0  0  0  0  0  0  0  0
    7.1230   -3.8060   25.7860 C   0  0  0  0  0  0  0  0  0  0  0  0
    8.1780   -2.7350   25.4690 C   0  0  0  0  0  0  0  0  0  0  0  0
    9.4510   -0.3800   24.7670 C   0  0  0  0  0  0  0  0  0  0  0  0
   10.2980   -0.0030   23.6740 C   0  0  0  0  0  0  0  0  0  0  0  0
    9.9480   -0.9460   22.9270 O   0  0  0  0  0  0  0  0  0  0  0  0
    6.3230   -1.5190   23.4900 C   0  0  0  0  0  0  0  0  0  0  0  0
    5.2910   -1.2620   22.5820 C   0  0  0  0  0  0  0  0  0  0  0  0
  1  2  1  0
  3  2  1  0
  3  4  2  0
  3  5  2  0
  3  6  1  0
  6  7  1  0
  7  8  1  0
  8  9  1  0
 10  9  1  6
 10 11  1  0
 11 12  1  0
 12 13  1  0
 13 14  1  0
 14 15  1  0
 15 16  1  0
 11 17  1  0
 16 17  1  0
 10 18  1  0
 18 19  1  0
 10 20  1  0
 19 20  1  0
  9 21  1  0
  6 22  1  0
 21 22  1  0
M  END
