JOH-UNI-27ac80fd-37-vinylsulfonamide
     RDKit          3D

 20 22  0  0  0  0  0  0  0  0999 V2000
    7.4820   -2.8770   18.2110 C   0  0  0  0  0  0  0  0  0  0  0  0
    6.6080   -2.1930   19.2090 C   0  0  0  0  0  0  0  0  0  0  0  0
    5.8550   -3.3450   20.2850 S   0  0  0  0  0  0  0  0  0  0  0  0
    4.7130   -2.8590   20.8640 O   0  0  0  0  0  0  0  0  0  0  0  0
    5.7320   -4.7000   19.7970 O   0  0  0  0  0  0  0  0  0  0  0  0
    6.9450   -3.1230   21.5030 N   0  0  0  0  0  0  0  0  0  0  0  0
    6.5120   -3.7500   22.7000 C   0  0  0  0  0  0  0  0  0  0  0  0
    7.7340   -3.8950   23.5550 C   0  0  0  0  0  0  0  0  0  0  0  0
    8.5620   -2.6660   23.5870 N   0  0  0  0  0  0  0  0  0  0  0  0
    9.6900   -2.9830   24.4250 C   0  0  0  0  0  0  0  0  0  0  0  0
    9.2960   -4.0240   25.4260 C   0  0  0  0  0  0  0  0  0  0  0  0
    9.8950   -5.3750   25.5800 C   0  0  0  0  0  0  0  0  0  0  0  0
    9.2390   -6.0600   26.5880 C   0  0  0  0  0  0  0  0  0  0  0  0
    8.2090   -5.3540   27.2050 C   0  0  0  0  0  0  0  0  0  0  0  0
    7.0780   -5.9600   28.6070 Br  0  0  0  0  0  0  0  0  0  0  0  0
    8.0150   -3.8060   26.5640 S   0  0  0  0  0  0  0  0  0  0  0  0
   11.0440   -2.5860   24.1150 C   0  0  0  0  0  0  0  0  0  0  0  0
   10.4590   -1.7990   24.8400 C   0  0  0  0  0  0  0  0  0  0  0  0
    8.8100   -2.0030   22.3000 C   0  0  0  0  0  0  0  0  0  0  0  0
    7.6810   -1.8410   21.5070 C   0  0  0  0  0  0  0  0  0  0  0  0
  1  2  1  0
  3  2  1  0
  3  4  2  0
  3  5  2  0
  3  6  1  0
  6  7  1  0
  7  8  1  0
  8  9  1  0
  9 10  1  0
 10 11  1  0
 11 12  2  0
 12 13  1  0
 13 14  2  0
 14 15  1  0
 11 16  1  0
 14 16  1  0
 10 17  1  0
 10 18  1  0
 17 18  1  0
  9 19  1  0
  6 20  1  0
 19 20  1  0
M  END
