JOH-UNI-522b0723-7-chloroacetamide
     RDKit          3D

 26 28  0  0  0  0  0  0  0  0999 V2000
    8.1750   -3.1640   19.6310 C   0  0  0  0  0  0  0  0  0  0  0  0
    7.0330   -2.8560   20.3350 C   0  0  0  0  0  0  0  0  0  0  0  0
    5.9500   -3.2090   19.6370 O   0  0  0  0  0  0  0  0  0  0  0  0
    7.4490   -2.4320   21.7790 C   0  0  0  0  0  0  0  0  0  0  0  0
    8.2020   -3.4980   22.0700 N   0  0  0  0  0  0  0  0  0  0  0  0
    8.7850   -3.7020   23.2320 C   0  0  0  0  0  0  0  0  0  0  0  0
    8.7460   -2.9120   24.3270 C   0  0  0  0  0  0  0  0  0  0  0  0
    9.3990   -3.4090   25.4470 N   0  0  0  0  0  0  0  0  0  0  0  0
   10.1580   -4.6310   25.0890 C   0  0  0  0  0  0  0  0  0  0  0  0
    9.3000   -5.7230   24.8190 C   0  0  0  0  0  0  0  0  0  0  0  0
    7.8670   -5.4230   24.6630 N   0  0  0  0  0  0  0  0  0  0  0  0
    7.3840   -4.6910   25.8440 C   0  0  1  0  0  0  0  0  0  0  0  0
    6.7990   -5.7590   26.7780 C   0  0  0  0  0  0  0  0  0  0  0  0
    8.4870   -3.8080   26.5300 C   0  0  1  0  0  0  0  0  0  0  0  0
    9.1570   -4.5270   27.7320 C   0  0  0  0  0  0  0  0  0  0  0  0
    8.0080   -1.7040   24.1240 C   0  0  0  0  0  0  0  0  0  0  0  0
    7.2890   -1.4060   22.7440 C   0  0  0  0  0  0  0  0  0  0  0  0
    6.5020   -0.0970   22.6080 C   0  0  0  0  0  0  0  0  0  0  0  0
    6.0160    0.3680   23.6400 O   0  0  0  0  0  0  0  0  0  0  0  0
    6.4100    0.4390   21.3420 N   0  0  0  0  0  0  0  0  0  0  0  0
    5.5080    1.4160   20.8660 C   0  0  0  0  0  0  0  0  0  0  0  0
    5.7170    2.7290   21.3030 C   0  0  0  0  0  0  0  0  0  0  0  0
    4.8800    3.7580   20.8810 C   0  0  0  0  0  0  0  0  0  0  0  0
    3.8270    3.4810   20.0170 C   0  0  0  0  0  0  0  0  0  0  0  0
    3.6100    2.1750   19.5760 C   0  0  0  0  0  0  0  0  0  0  0  0
    4.4460    1.1480   19.9990 C   0  0  0  0  0  0  0  0  0  0  0  0
  1  2  1  0
  2  3  2  0
  2  4  1  0
  4  5  2  0
  5  6  1  0
  6  7  2  0
  7  8  1  0
  8  9  1  0
  9 10  1  0
 10 11  1  0
 11 12  1  0
 12 13  1  1
  8 14  1  0
 12 14  1  0
 14 15  1  1
  7 16  1  0
  4 17  1  0
 16 17  2  0
 17 18  1  0
 18 19  2  0
 18 20  1  0
 20 21  1  0
 21 22  2  0
 22 23  1  0
 23 24  2  0
 24 25  1  0
 21 26  1  0
 25 26  2  0
M  END
