JOH-UNI-9dc98897-6-vinylsulfonamide
     RDKit          3D

 19 20  0  0  0  0  0  0  0  0999 V2000
    6.8800   -3.0050   18.9380 C   0  0  0  0  0  0  0  0  0  0  0  0
    7.0710   -1.6780   19.6900 C   0  0  0  0  0  0  0  0  0  0  0  0
    5.9480   -1.7630   21.0480 S   0  0  0  0  0  0  0  0  0  0  0  0
    4.9290   -3.0370   20.9520 O   0  0  0  0  0  0  0  0  0  0  0  0
    5.3780   -0.4360   21.1540 O   0  0  0  0  0  0  0  0  0  0  0  0
    7.1830   -1.8600   22.3610 C   0  0  0  0  0  0  0  0  0  0  0  0
    7.6140   -2.7020   23.0090 N   0  0  0  0  0  0  0  0  0  0  0  0
    8.8360   -3.1300   23.3400 C   0  0  0  0  0  0  0  0  0  0  0  0
    8.9390   -3.1670   24.5540 C   0  0  0  0  0  0  0  0  0  0  0  0
    9.5910   -3.7980   25.5600 N   0  0  0  0  0  0  0  0  0  0  0  0
    9.9850   -5.0540   24.9850 C   0  0  0  0  0  0  0  0  0  0  0  0
    8.9140   -5.6210   24.0470 C   0  0  0  0  0  0  0  0  0  0  0  0
    7.4520   -5.3240   24.3930 C   0  0  0  0  0  0  0  0  0  0  0  0
    7.0480   -5.5880   25.7370 O   0  0  0  0  0  0  0  0  0  0  0  0
    8.0420   -5.3700   26.7490 C   0  0  0  0  0  0  0  0  0  0  0  0
    8.7500   -4.0060   26.7470 C   0  0  0  0  0  0  0  0  0  0  0  0
    8.3580   -1.7590   24.4700 C   0  0  0  0  0  0  0  0  0  0  0  0
    7.6840   -0.9840   23.2940 C   0  0  0  0  0  0  0  0  0  0  0  0
    7.3960    0.7140   23.3730 Cl  0  0  0  0  0  0  0  0  0  0  0  0
  1  2  1  0
  3  2  1  0
  3  4  2  0
  3  5  2  0
  3  6  1  0
  6  7  2  0
  7  8  1  0
  8  9  2  0
  9 10  1  0
 10 11  1  0
 11 12  1  0
 12 13  1  0
 13 14  1  0
 14 15  1  0
 10 16  1  0
 15 16  1  0
  9 17  1  0
  6 18  1  0
 17 18  2  0
 18 19  1  0
M  END
