JOH-UNI-27ac80fd-15-acrylamide
     RDKit          3D

 20 22  0  0  0  0  0  0  0  0999 V2000
    7.9700   -3.2860   19.0730 C   0  0  0  0  0  0  0  0  0  0  0  0
    6.7570   -2.4300   18.8820 C   0  0  0  0  0  0  0  0  0  0  0  0
    5.9190   -2.6480   20.0860 C   0  0  0  0  0  0  0  0  0  0  0  0
    4.8690   -3.2460   19.9820 O   0  0  0  0  0  0  0  0  0  0  0  0
    6.4340   -2.2060   21.2870 N   0  0  0  0  0  0  0  0  0  0  0  0
    7.6260   -1.3340   21.3680 C   0  0  0  0  0  0  0  0  0  0  0  0
    8.7960   -1.9440   22.1600 C   0  0  0  0  0  0  0  0  0  0  0  0
    8.3260   -2.5810   23.3960 N   0  0  0  0  0  0  0  0  0  0  0  0
    9.3880   -3.0750   24.2790 C   0  0  0  0  0  0  0  0  0  0  0  0
    8.9370   -4.1540   25.1840 N   0  0  0  0  0  0  0  0  0  0  0  0
    9.8500   -5.1250   25.6680 C   0  0  0  0  0  0  0  0  0  0  0  0
    9.2670   -6.1250   26.4670 C   0  0  0  0  0  0  0  0  0  0  0  0
    8.9070   -5.6610   27.7280 C   0  0  0  0  0  0  0  0  0  0  0  0
    7.6280   -5.2790   27.9190 O   0  0  0  0  0  0  0  0  0  0  0  0
    7.2390   -4.5210   26.8120 C   0  0  0  0  0  0  0  0  0  0  0  0
    8.1810   -3.6800   26.2150 C   0  0  0  0  0  0  0  0  0  0  0  0
   10.3090   -2.2540   24.6270 C   0  0  0  0  0  0  0  0  0  0  0  0
   10.9770   -2.8640   23.7180 C   0  0  0  0  0  0  0  0  0  0  0  0
    7.3640   -3.4820   23.1070 C   0  0  0  0  0  0  0  0  0  0  0  0
    6.1920   -3.0660   22.4670 C   0  0  0  0  0  0  0  0  0  0  0  0
  1  2  1  0
  2  3  1  0
  3  4  2  0
  3  5  1  0
  5  6  1  0
  6  7  1  0
  7  8  1  0
  9  8  1  0
  9 10  1  0
 10 11  1  0
 11 12  1  0
 12 13  1  0
 13 14  1  0
 14 15  1  0
 10 16  1  0
 15 16  1  0
  9 17  1  0
  9 18  1  0
 17 18  1  0
  8 19  1  0
  5 20  1  0
 19 20  1  0
M  END
