JOH-UNI-27ac80fd-22-acrylamide
     RDKit          3D

 19 20  0  0  0  0  0  0  0  0999 V2000
    7.9470   -3.0330   18.8280 C   0  0  0  0  0  0  0  0  0  0  0  0
    6.4340   -2.9800   18.9850 C   0  0  0  0  0  0  0  0  0  0  0  0
    5.8840   -3.5470   20.2410 C   0  0  0  0  0  0  0  0  0  0  0  0
    5.2590   -4.6060   20.1850 O   0  0  0  0  0  0  0  0  0  0  0  0
    6.1280   -2.7760   21.3720 N   0  0  0  0  0  0  0  0  0  0  0  0
    6.8100   -1.4760   21.2760 C   0  0  0  0  0  0  0  0  0  0  0  0
    8.1500   -1.4960   22.0160 C   0  0  0  0  0  0  0  0  0  0  0  0
    7.9820   -1.9750   23.3960 N   0  0  0  0  0  0  0  0  0  0  0  0
    9.2020   -2.6090   23.9370 C   0  0  1  0  0  0  0  0  0  0  0  0
    9.8510   -1.7840   24.7970 F   0  0  0  0  0  0  0  0  0  0  0  0
    8.9600   -3.9130   24.5730 N   0  0  0  0  0  0  0  0  0  0  0  0
    9.5910   -5.1000   24.1460 C   0  0  0  0  0  0  0  0  0  0  0  0
    8.7320   -5.9490   23.4530 C   0  0  0  0  0  0  0  0  0  0  0  0
    7.3890   -5.7150   23.7250 C   0  0  0  0  0  0  0  0  0  0  0  0
    6.8910   -5.7310   25.0180 O   0  0  0  0  0  0  0  0  0  0  0  0
    7.3940   -4.8420   26.0160 C   0  0  0  0  0  0  0  0  0  0  0  0
    8.4610   -3.9510   25.8400 C   0  0  0  0  0  0  0  0  0  0  0  0
    6.6600   -2.5750   23.7400 C   0  0  0  0  0  0  0  0  0  0  0  0
    5.8390   -3.1710   22.7550 C   0  0  0  0  0  0  0  0  0  0  0  0
  1  2  1  0
  2  3  1  0
  3  4  2  0
  3  5  1  0
  5  6  1  0
  6  7  1  0
  7  8  1  0
  8  9  1  0
  9 10  1  1
  9 11  1  0
 11 12  1  0
 12 13  1  0
 13 14  1  0
 14 15  1  0
 15 16  1  0
 11 17  1  0
 16 17  1  0
  8 18  1  0
  5 19  1  0
 18 19  1  0
M  END
