JOH-UNI-27ac80fd-14-chloroacetamide
     RDKit          3D

 18 19  0  0  0  0  0  0  0  0999 V2000
    7.2610   -2.9610   18.7890 C   0  0  0  0  0  0  0  0  0  0  0  0
    6.2960   -3.2390   19.8970 C   0  0  0  0  0  0  0  0  0  0  0  0
    5.3580   -4.0270   19.7080 O   0  0  0  0  0  0  0  0  0  0  0  0
    6.5070   -2.6200   21.1490 N   0  0  0  0  0  0  0  0  0  0  0  0
    6.0610   -3.2460   22.3820 C   0  0  0  0  0  0  0  0  0  0  0  0
    7.2440   -3.5330   23.3260 C   0  0  0  0  0  0  0  0  0  0  0  0
    8.2850   -2.4960   23.3490 N   0  0  0  0  0  0  0  0  0  0  0  0
    9.4880   -2.9280   24.1050 C   0  0  0  0  0  0  0  0  0  0  0  0
    9.2820   -4.1030   25.0250 N   0  0  0  0  0  0  0  0  0  0  0  0
    9.5310   -5.3720   24.6050 C   0  0  0  0  0  0  0  0  0  0  0  0
    8.5400   -5.8240   23.5670 C   0  0  0  0  0  0  0  0  0  0  0  0
    7.2500   -5.6830   24.0820 C   0  0  0  0  0  0  0  0  0  0  0  0
    7.0710   -5.7160   25.4420 O   0  0  0  0  0  0  0  0  0  0  0  0
    7.2510   -4.5220   26.2000 C   0  0  0  0  0  0  0  0  0  0  0  0
    8.5310   -3.9430   26.1770 C   0  0  0  0  0  0  0  0  0  0  0  0
    8.6020   -1.9110   22.1310 C   0  0  0  0  0  0  0  0  0  0  0  0
    7.4420   -1.4770   21.4490 C   0  0  1  0  0  0  0  0  0  0  0  0
    7.5980   -0.6060   20.3800 C   0  0  0  0  0  0  0  0  0  0  0  0
  1  2  1  0
  2  3  2  0
  2  4  1  0
  4  5  1  0
  5  6  1  0
  6  7  1  0
  7  8  1  0
  8  9  1  0
  9 10  1  0
 10 11  1  0
 11 12  1  0
 12 13  1  0
 13 14  1  0
  9 15  1  0
 14 15  1  0
  7 16  1  0
  4 17  1  0
 16 17  1  0
 17 18  1  6
M  END
