JOH-UNI-27ac80fd-17-acrylamide
     RDKit          3D

 19 20  0  0  0  0  0  0  0  0999 V2000
    7.3460   -2.8500   18.2990 C   0  0  0  0  0  0  0  0  0  0  0  0
    6.5270   -1.9400   19.1530 C   0  0  0  0  0  0  0  0  0  0  0  0
    5.9810   -2.6850   20.3260 C   0  0  0  0  0  0  0  0  0  0  0  0
    5.1330   -3.5840   20.2060 O   0  0  0  0  0  0  0  0  0  0  0  0
    6.5290   -2.3000   21.5240 N   0  0  0  0  0  0  0  0  0  0  0  0
    7.5870   -1.2750   21.5970 C   0  0  0  0  0  0  0  0  0  0  0  0
    8.8300   -1.7000   22.4140 C   0  0  0  0  0  0  0  0  0  0  0  0
    8.4780   -2.4880   23.6100 N   0  0  0  0  0  0  0  0  0  0  0  0
    9.6600   -2.9800   24.3570 C   0  0  0  0  0  0  0  0  0  0  0  0
   10.7760   -2.4910   24.2020 O   0  0  0  0  0  0  0  0  0  0  0  0
    9.3990   -4.1060   25.3050 N   0  0  0  0  0  0  0  0  0  0  0  0
    9.4270   -5.4550   24.8920 C   0  0  0  0  0  0  0  0  0  0  0  0
    8.5100   -5.7610   23.8700 C   0  0  0  0  0  0  0  0  0  0  0  0
    7.1940   -5.5850   24.2630 C   0  0  0  0  0  0  0  0  0  0  0  0
    7.0600   -5.7240   25.4750 O   0  0  0  0  0  0  0  0  0  0  0  0
    7.2850   -4.5830   26.2910 C   0  0  0  0  0  0  0  0  0  0  0  0
    8.5170   -3.9100   26.3260 C   0  0  0  0  0  0  0  0  0  0  0  0
    7.4480   -3.4880   23.3360 C   0  0  0  0  0  0  0  0  0  0  0  0
    6.2750   -3.0110   22.7620 C   0  0  0  0  0  0  0  0  0  0  0  0
  1  2  1  0
  2  3  1  0
  3  4  2  0
  3  5  1  0
  5  6  1  0
  6  7  1  0
  7  8  1  0
  8  9  1  0
  9 10  2  0
  9 11  1  0
 11 12  1  0
 12 13  1  0
 13 14  1  0
 14 15  1  0
 15 16  1  0
 11 17  1  0
 16 17  1  0
  8 18  1  0
  5 19  1  0
 18 19  1  0
M  END
