JOH-UNI-27ac80fd-25-nitrile
     RDKit          3D

 16 17  0  0  0  0  0  0  0  0999 V2000
    6.8790   -3.3820   19.8460 C   0  0  0  0  0  0  0  0  0  0  0  0
    5.7490   -3.6990   19.3620 N   0  0  0  0  0  0  0  0  0  0  0  0
    7.0160   -2.7850   21.0740 N   0  0  0  0  0  0  0  0  0  0  0  0
    6.4600   -3.4150   22.2590 C   0  0  0  0  0  0  0  0  0  0  0  0
    7.6230   -3.6480   23.2220 C   0  0  0  0  0  0  0  0  0  0  0  0
    8.5840   -2.5220   23.2690 N   0  0  0  0  0  0  0  0  0  0  0  0
    9.7010   -2.9530   24.1200 C   0  0  0  0  0  0  0  0  0  0  0  0
   10.8730   -2.5730   24.0460 O   0  0  0  0  0  0  0  0  0  0  0  0
    9.2880   -3.9780   25.1770 C   0  0  0  0  0  0  0  0  0  0  0  0
    9.8750   -5.3440   25.3810 C   0  0  0  0  0  0  0  0  0  0  0  0
    9.1930   -6.0410   26.5030 C   0  0  0  0  0  0  0  0  0  0  0  0
    8.1860   -5.2820   27.0920 C   0  0  0  0  0  0  0  0  0  0  0  0
    7.0940   -5.8540   28.5390 Br  0  0  0  0  0  0  0  0  0  0  0  0
    7.9880   -3.6870   26.3560 S   0  0  0  0  0  0  0  0  0  0  0  0
    8.9860   -2.0680   22.0230 C   0  0  0  0  0  0  0  0  0  0  0  0
    7.8210   -1.6870   21.3360 C   0  0  0  0  0  0  0  0  0  0  0  0
  1  2  2  3
  1  3  1  0
  3  4  1  0
  4  5  1  0
  5  6  1  0
  6  7  1  0
  7  8  2  0
  7  9  1  0
  9 10  2  0
 10 11  1  0
 11 12  2  0
 12 13  1  0
  9 14  1  0
 12 14  1  0
  6 15  1  0
  3 16  1  0
 15 16  1  0
M  END
