JOH-UNI-27ac80fd-30-chloroacetamide
     RDKit          3D

 18 19  0  0  0  0  0  0  0  0999 V2000
    7.2870   -2.9670   18.7850 C   0  0  0  0  0  0  0  0  0  0  0  0
    6.3450   -3.2960   19.8980 C   0  0  0  0  0  0  0  0  0  0  0  0
    5.3940   -4.0600   19.7060 O   0  0  0  0  0  0  0  0  0  0  0  0
    6.6270   -2.7300   21.1200 N   0  0  0  0  0  0  0  0  0  0  0  0
    7.5740   -1.6040   21.2650 C   0  0  0  0  0  0  0  0  0  0  0  0
    8.7250   -1.9200   22.0130 C   0  0  0  0  0  0  0  0  0  0  0  0
    8.4080   -2.4920   23.3610 N   0  0  0  0  0  0  0  0  0  0  0  0
    9.5980   -2.8580   24.1800 C   0  0  0  0  0  0  0  0  0  0  0  0
   10.0510   -1.7560   24.8350 F   0  0  0  0  0  0  0  0  0  0  0  0
   10.6190   -3.2420   23.3740 F   0  0  0  0  0  0  0  0  0  0  0  0
    9.2190   -3.9320   25.1980 C   0  0  0  0  0  0  0  0  0  0  0  0
    9.8380   -5.3050   25.3420 C   0  0  0  0  0  0  0  0  0  0  0  0
    9.2280   -6.0920   26.4380 C   0  0  0  0  0  0  0  0  0  0  0  0
    8.1420   -5.2820   27.1000 C   0  0  0  0  0  0  0  0  0  0  0  0
    7.0640   -5.8800   28.5500 Br  0  0  0  0  0  0  0  0  0  0  0  0
    7.9250   -3.7090   26.4200 S   0  0  0  0  0  0  0  0  0  0  0  0
    7.4400   -3.6050   23.2230 C   0  0  0  0  0  0  0  0  0  0  0  0
    6.2060   -3.3510   22.3790 C   0  0  0  0  0  0  0  0  0  0  0  0
  1  2  1  0
  2  3  2  0
  2  4  1  0
  4  5  1  0
  5  6  1  0
  6  7  1  0
  7  8  1  0
  8  9  1  0
  8 10  1  0
  8 11  1  0
 11 12  2  0
 12 13  1  0
 13 14  2  0
 14 15  1  0
 11 16  1  0
 14 16  1  0
  7 17  1  0
  4 18  1  0
 17 18  1  0
M  END
