JOH-MSK-a63bdd1d-6
     RDKit          3D

 28 30  0  0  0  0  0  0  0  0999 V2000
    9.7710    6.7030   22.8830 C   0  0  0  0  0  0  0  0  0  0  0  0
   10.5970    5.7260   23.7020 C   0  0  0  0  0  0  0  0  0  0  0  0
   10.7630    5.8170   24.8860 O   0  0  0  0  0  0  0  0  0  0  0  0
   11.1600    4.6780   22.8060 N   0  0  0  0  0  0  0  0  0  0  0  0
   10.9540    3.5070   23.3330 C   0  0  0  0  0  0  0  0  0  0  0  0
   12.1970    2.5770   23.1270 C   0  0  0  0  0  0  0  0  0  0  0  0
   11.8840    1.1050   23.3560 C   0  0  0  0  0  0  0  0  0  0  0  0
   10.9030    0.4980   24.2890 C   0  0  0  0  0  0  0  0  0  0  0  0
   10.8870   -0.8580   24.1050 N   0  0  0  0  0  0  0  0  0  0  0  0
   11.8190   -1.1160   23.0820 C   0  0  0  0  0  0  0  0  0  0  0  0
   12.0850   -2.3430   22.5440 C   0  0  0  0  0  0  0  0  0  0  0  0
   13.0070   -2.4190   21.4970 C   0  0  0  0  0  0  0  0  0  0  0  0
   13.6920   -1.2840   21.0180 C   0  0  0  0  0  0  0  0  0  0  0  0
   14.6310   -1.4320   19.8950 O   0  0  0  0  0  0  0  0  0  0  0  0
   15.2470   -0.6840   18.7920 C   0  0  1  0  0  0  0  0  0  0  0  0
   16.0250    0.4040   19.1600 O   0  0  0  0  0  0  0  0  0  0  0  0
   16.7150    0.9330   18.1130 C   0  0  2  0  0  0  0  0  0  0  0  0
   16.2080    1.0550   16.8330 C   0  0  0  0  0  0  0  0  0  0  0  0
   16.8160    1.4710   15.8690 O   0  0  0  0  0  0  0  0  0  0  0  0
   14.9870    0.5860   16.6780 O   0  0  0  0  0  0  0  0  0  0  0  0
   17.8010    0.0150   17.5930 C   0  0  1  0  0  0  0  0  0  0  0  0
   19.0830    0.1090   18.1190 O   0  0  0  0  0  0  0  0  0  0  0  0
   17.4720   -1.1870   17.9600 C   0  0  2  0  0  0  0  0  0  0  0  0
   18.2070   -2.1490   17.2120 O   0  0  0  0  0  0  0  0  0  0  0  0
   16.1540   -1.4510   17.9190 C   0  0  1  0  0  0  0  0  0  0  0  0
   16.3000   -2.8630   18.1120 O   0  0  0  0  0  0  0  0  0  0  0  0
   13.4440   -0.0190   21.6530 C   0  0  0  0  0  0  0  0  0  0  0  0
   12.4710    0.0650   22.6360 C   0  0  0  0  0  0  0  0  0  0  0  0
  1  2  1  0
  2  3  2  0
  2  4  1  0
  4  5  1  0
  5  6  1  0
  6  7  1  0
  7  8  2  0
  8  9  1  0
  9 10  1  0
 10 11  1  0
 11 12  2  0
 12 13  1  0
 13 14  1  0
 15 14  1  1
 15 16  1  0
 16 17  1  0
 17 18  1  6
 18 19  2  0
 18 20  1  0
 17 21  1  0
 21 22  1  1
 21 23  1  0
 23 24  1  6
 15 25  1  0
 23 25  1  0
 25 26  1  1
 13 27  2  0
  7 28  1  0
 10 28  2  0
 27 28  1  0
M  END
