JOH-UNI-27ac80fd-35-vinylsulfonamide
     RDKit          3D

 21 22  0  0  0  0  0  0  0  0999 V2000
    7.4060   -2.7890   18.2390 C   0  0  0  0  0  0  0  0  0  0  0  0
    6.4620   -2.1370   19.2330 C   0  0  0  0  0  0  0  0  0  0  0  0
    5.7890   -3.3000   20.3630 S   0  0  0  0  0  0  0  0  0  0  0  0
    4.6810   -2.8650   21.1110 O   0  0  0  0  0  0  0  0  0  0  0  0
    5.6650   -4.6160   19.7950 O   0  0  0  0  0  0  0  0  0  0  0  0
    6.9790   -3.1350   21.5010 N   0  0  0  0  0  0  0  0  0  0  0  0
    7.7420   -1.8820   21.4860 C   0  0  0  0  0  0  0  0  0  0  0  0
    8.9580   -2.0420   22.3990 C   0  0  0  0  0  0  0  0  0  0  0  0
    8.5960   -2.5910   23.7240 N   0  0  0  0  0  0  0  0  0  0  0  0
    9.7490   -2.8830   24.5720 C   0  0  0  0  0  0  0  0  0  0  0  0
   10.8360   -3.2400   23.8570 F   0  0  0  0  0  0  0  0  0  0  0  0
   10.0960   -1.7440   25.2150 F   0  0  0  0  0  0  0  0  0  0  0  0
    9.3150   -3.9720   25.5170 C   0  0  0  0  0  0  0  0  0  0  0  0
    9.8910   -5.3480   25.6060 C   0  0  0  0  0  0  0  0  0  0  0  0
    9.2170   -6.0690   26.5800 C   0  0  0  0  0  0  0  0  0  0  0  0
    8.1980   -5.3760   27.2270 C   0  0  0  0  0  0  0  0  0  0  0  0
    7.0460   -6.0120   28.5980 Br  0  0  0  0  0  0  0  0  0  0  0  0
    8.0330   -3.7990   26.6580 S   0  0  0  0  0  0  0  0  0  0  0  0
    7.6780   -3.6460   23.7680 C   0  0  2  0  0  0  0  0  0  0  0  0
    8.3200   -4.8570   23.4840 C   0  0  0  0  0  0  0  0  0  0  0  0
    6.4980   -3.4660   22.8230 C   0  0  0  0  0  0  0  0  0  0  0  0
  1  2  1  0
  3  2  1  0
  3  4  2  0
  3  5  2  0
  3  6  1  0
  6  7  1  0
  7  8  1  0
  8  9  1  0
  9 10  1  0
 10 11  1  0
 10 12  1  0
 10 13  1  0
 13 14  2  0
 14 15  1  0
 15 16  2  0
 16 17  1  0
 13 18  1  0
 16 18  1  0
  9 19  1  0
 19 20  1  6
  6 21  1  0
 19 21  1  0
M  END
