JOH-UNI-27ac80fd-29-chloroacetamide
     RDKit          3D

 17 18  0  0  0  0  0  0  0  0999 V2000
    7.3030   -2.9830   18.8030 C   0  0  0  0  0  0  0  0  0  0  0  0
    6.3200   -3.2880   19.8840 C   0  0  0  0  0  0  0  0  0  0  0  0
    5.3350   -3.9910   19.6530 O   0  0  0  0  0  0  0  0  0  0  0  0
    6.6160   -2.7910   21.1290 N   0  0  0  0  0  0  0  0  0  0  0  0
    7.5120   -1.6290   21.3100 C   0  0  0  0  0  0  0  0  0  0  0  0
    8.6850   -1.9200   22.0200 C   0  0  0  0  0  0  0  0  0  0  0  0
    8.4140   -2.5480   23.3500 N   0  0  0  0  0  0  0  0  0  0  0  0
    9.6440   -2.9390   24.0990 C   0  0  0  0  0  0  0  0  0  0  0  0
    9.2450   -3.9660   25.1600 C   0  0  0  0  0  0  0  0  0  0  0  0
    9.8370   -5.3410   25.3520 C   0  0  0  0  0  0  0  0  0  0  0  0
    9.2300   -6.0990   26.4650 C   0  0  0  0  0  0  0  0  0  0  0  0
    8.1590   -5.2570   27.1040 C   0  0  0  0  0  0  0  0  0  0  0  0
    7.0800   -5.8070   28.5690 Br  0  0  0  0  0  0  0  0  0  0  0  0
    7.9580   -3.6970   26.3820 S   0  0  0  0  0  0  0  0  0  0  0  0
    7.5290   -3.7220   23.1790 C   0  0  0  0  0  0  0  0  0  0  0  0
    6.2770   -3.5440   22.3460 C   0  0  2  0  0  0  0  0  0  0  0  0
    5.9310   -4.8700   21.9180 C   0  0  0  0  0  0  0  0  0  0  0  0
  1  2  1  0
  2  3  2  0
  2  4  1  0
  4  5  1  0
  5  6  1  0
  6  7  1  0
  7  8  1  0
  8  9  1  0
  9 10  2  0
 10 11  1  0
 11 12  2  0
 12 13  1  0
  9 14  1  0
 12 14  1  0
  7 15  1  0
  4 16  1  0
 15 16  1  0
 16 17  1  6
M  END
