JOH-UNI-27ac80fd-29-chloroacetamide
     RDKit          3D

 17 18  0  0  0  0  0  0  0  0999 V2000
    7.2710   -2.9560   18.7570 C   0  0  0  0  0  0  0  0  0  0  0  0
    6.3220   -3.2740   19.8730 C   0  0  0  0  0  0  0  0  0  0  0  0
    5.3820   -4.0660   19.7200 O   0  0  0  0  0  0  0  0  0  0  0  0
    6.5860   -2.6430   21.0960 N   0  0  0  0  0  0  0  0  0  0  0  0
    7.5190   -1.5130   21.2090 C   0  0  0  0  0  0  0  0  0  0  0  0
    8.7430   -1.8750   22.0690 C   0  0  0  0  0  0  0  0  0  0  0  0
    8.3730   -2.6810   23.2440 N   0  0  0  0  0  0  0  0  0  0  0  0
    9.5460   -3.0530   24.0540 C   0  0  0  0  0  0  0  0  0  0  0  0
    9.1280   -3.9890   25.1700 C   0  0  0  0  0  0  0  0  0  0  0  0
    9.7590   -5.3410   25.4040 C   0  0  0  0  0  0  0  0  0  0  0  0
    9.1760   -5.9910   26.4830 C   0  0  0  0  0  0  0  0  0  0  0  0
    8.1680   -5.2640   27.0790 C   0  0  0  0  0  0  0  0  0  0  0  0
    7.1340   -5.8410   28.5660 Br  0  0  0  0  0  0  0  0  0  0  0  0
    7.8850   -3.6940   26.3270 S   0  0  0  0  0  0  0  0  0  0  0  0
    7.5990   -3.7790   22.9150 C   0  0  0  0  0  0  0  0  0  0  0  0
    6.4080   -3.3130   22.3180 C   0  0  1  0  0  0  0  0  0  0  0  0
    5.7300   -2.3910   23.1350 C   0  0  0  0  0  0  0  0  0  0  0  0
  1  2  1  0
  2  3  2  0
  2  4  1  0
  4  5  1  0
  5  6  1  0
  6  7  1  0
  7  8  1  0
  8  9  1  0
  9 10  2  0
 10 11  1  0
 11 12  2  0
 12 13  1  0
  9 14  1  0
 12 14  1  0
  7 15  1  0
  4 16  1  0
 15 16  1  0
 16 17  1  1
M  END
