JOH-UNI-27ac80fd-11-acrylamide
     RDKit          3D

 19 20  0  0  0  0  0  0  0  0999 V2000
    7.9720   -3.2890   19.0920 C   0  0  0  0  0  0  0  0  0  0  0  0
    6.7580   -2.4320   18.9010 C   0  0  0  0  0  0  0  0  0  0  0  0
    5.9470   -2.6470   20.1220 C   0  0  0  0  0  0  0  0  0  0  0  0
    4.8810   -3.2250   20.0440 O   0  0  0  0  0  0  0  0  0  0  0  0
    6.5050   -2.2380   21.3200 N   0  0  0  0  0  0  0  0  0  0  0  0
    7.6320   -1.2820   21.3770 C   0  0  0  0  0  0  0  0  0  0  0  0
    8.8510   -1.7810   22.1870 C   0  0  0  0  0  0  0  0  0  0  0  0
    8.4400   -2.4410   23.4320 N   0  0  0  0  0  0  0  0  0  0  0  0
    9.5960   -2.9580   24.2020 C   0  0  0  0  0  0  0  0  0  0  0  0
    9.3140   -4.0730   25.1530 N   0  0  0  0  0  0  0  0  0  0  0  0
    9.4450   -5.4160   24.7660 C   0  0  0  0  0  0  0  0  0  0  0  0
    8.5500   -5.8530   23.7720 C   0  0  0  0  0  0  0  0  0  0  0  0
    7.2300   -5.6430   24.0980 C   0  0  0  0  0  0  0  0  0  0  0  0
    6.9000   -5.6690   25.4260 O   0  0  0  0  0  0  0  0  0  0  0  0
    7.2120   -4.5290   26.2200 C   0  0  0  0  0  0  0  0  0  0  0  0
    8.4630   -3.8780   26.2110 C   0  0  0  0  0  0  0  0  0  0  0  0
    7.3450   -3.3850   23.1970 C   0  0  0  0  0  0  0  0  0  0  0  0
    6.1810   -2.9310   22.5690 C   0  0  1  0  0  0  0  0  0  0  0  0
    5.2500   -2.2960   23.3830 C   0  0  0  0  0  0  0  0  0  0  0  0
  1  2  1  0
  2  3  1  0
  3  4  2  0
  3  5  1  0
  5  6  1  0
  6  7  1  0
  7  8  1  0
  8  9  1  0
  9 10  1  0
 10 11  1  0
 11 12  1  0
 12 13  1  0
 13 14  1  0
 14 15  1  0
 10 16  1  0
 15 16  1  0
  8 17  1  0
  5 18  1  0
 17 18  1  0
 18 19  1  1
M  END
