JOH-UNI-27ac80fd-9
     RDKit          3D

 19 20  0  0  0  0  0  0  0  0999 V2000
    7.4360    0.1380   21.4400 C   0  0  0  0  0  0  0  0  0  0  0  0
    7.8820   -1.3130   21.2160 C   0  0  1  0  0  0  0  0  0  0  0  0
    8.9390   -1.7430   22.2560 C   0  0  0  0  0  0  0  0  0  0  0  0
    8.4760   -2.4500   23.4700 N   0  0  0  0  0  0  0  0  0  0  0  0
    9.5820   -2.9800   24.2940 C   0  0  0  0  0  0  0  0  0  0  0  0
    9.1990   -4.0630   25.2530 N   0  0  0  0  0  0  0  0  0  0  0  0
    9.4620   -5.4260   24.8260 C   0  0  0  0  0  0  0  0  0  0  0  0
    8.5650   -5.8340   23.8380 C   0  0  0  0  0  0  0  0  0  0  0  0
    7.2410   -5.6300   24.1620 C   0  0  0  0  0  0  0  0  0  0  0  0
    7.0310   -5.6750   25.5660 O   0  0  0  0  0  0  0  0  0  0  0  0
    6.9710   -4.3980   26.1910 C   0  0  0  0  0  0  0  0  0  0  0  0
    8.2380   -3.8290   26.3760 C   0  0  0  0  0  0  0  0  0  0  0  0
    7.5500   -3.4990   23.0240 C   0  0  0  0  0  0  0  0  0  0  0  0
    6.4450   -3.0610   22.2990 C   0  0  0  0  0  0  0  0  0  0  0  0
    6.7310   -2.2450   21.1450 N   0  0  0  0  0  0  0  0  0  0  0  0
    6.2380   -2.6620   19.7960 C   0  0  0  0  0  0  0  0  0  0  0  0
    5.4400   -3.7780   19.5960 O   0  0  0  0  0  0  0  0  0  0  0  0
    6.6980   -1.7270   18.6660 C   0  0  0  0  0  0  0  0  0  0  0  0
    6.5320   -0.4040   18.9810 F   0  0  0  0  0  0  0  0  0  0  0  0
  2  1  1  1
  2  3  1  0
  3  4  1  0
  4  5  1  0
  5  6  1  0
  6  7  1  0
  7  8  1  0
  8  9  1  0
  9 10  1  0
 10 11  1  0
  6 12  1  0
 11 12  1  0
  4 13  1  0
 13 14  1  0
  2 15  1  0
 14 15  1  0
 15 16  1  0
 16 17  2  0
 16 18  1  0
 18 19  1  0
M  END
