JOH-UNI-27ac80fd-26-nitrile
     RDKit          3D

 16 17  0  0  0  0  0  0  0  0999 V2000
    6.8020   -3.6020   19.9740 C   0  0  0  0  0  0  0  0  0  0  0  0
    5.7950   -4.3770   19.8530 N   0  0  0  0  0  0  0  0  0  0  0  0
    6.8520   -2.7140   21.0130 N   0  0  0  0  0  0  0  0  0  0  0  0
    6.4400   -3.1070   22.3360 C   0  0  0  0  0  0  0  0  0  0  0  0
    7.5300   -3.6870   22.9980 C   0  0  0  0  0  0  0  0  0  0  0  0
    8.4930   -2.5810   23.2490 N   0  0  0  0  0  0  0  0  0  0  0  0
    9.6050   -3.0500   24.0970 C   0  0  0  0  0  0  0  0  0  0  0  0
   10.7330   -2.6350   23.8310 O   0  0  0  0  0  0  0  0  0  0  0  0
    9.2010   -3.9220   25.1090 C   0  0  0  0  0  0  0  0  0  0  0  0
    9.8600   -5.2620   25.3030 C   0  0  0  0  0  0  0  0  0  0  0  0
    9.2720   -6.0430   26.4230 C   0  0  0  0  0  0  0  0  0  0  0  0
    8.1510   -5.2840   27.0850 C   0  0  0  0  0  0  0  0  0  0  0  0
    7.0960   -5.8820   28.5450 Br  0  0  0  0  0  0  0  0  0  0  0  0
    7.8940   -3.6770   26.3110 S   0  0  0  0  0  0  0  0  0  0  0  0
    8.8860   -2.0490   22.0730 C   0  0  0  0  0  0  0  0  0  0  0  0
    7.8020   -1.5510   21.0890 C   0  0  0  0  0  0  0  0  0  0  0  0
  1  2  2  3
  1  3  1  0
  3  4  1  0
  4  5  1  0
  5  6  1  0
  6  7  1  0
  7  8  2  0
  7  9  1  0
  9 10  2  0
 10 11  1  0
 11 12  2  0
 12 13  1  0
  9 14  1  0
 12 14  1  0
  6 15  1  0
  3 16  1  0
 15 16  1  0
M  END
