JOH-UNI-27ac80fd-10-vinylsulfonamide
     RDKit          3D

 20 21  0  0  0  0  0  0  0  0999 V2000
    8.2450   -3.5920   20.0790 C   0  0  0  0  0  0  0  0  0  0  0  0
    7.0660   -2.7590   19.6170 C   0  0  0  0  0  0  0  0  0  0  0  0
    5.6370   -3.5090   20.3380 S   0  0  0  0  0  0  0  0  0  0  0  0
    4.5630   -3.3520   19.4100 O   0  0  0  0  0  0  0  0  0  0  0  0
    5.9600   -4.8340   20.8060 O   0  0  0  0  0  0  0  0  0  0  0  0
    5.2970   -2.5520   21.6980 N   0  0  0  0  0  0  0  0  0  0  0  0
    6.0300   -1.2830   21.8470 C   0  0  0  0  0  0  0  0  0  0  0  0
    7.1630   -1.3670   22.8940 C   0  0  0  0  0  0  0  0  0  0  0  0
    6.8470   -2.2100   24.0680 N   0  0  0  0  0  0  0  0  0  0  0  0
    7.8150   -2.0730   25.1650 C   0  0  0  0  0  0  0  0  0  0  0  0
    8.3320   -3.2580   25.6410 N   0  0  0  0  0  0  0  0  0  0  0  0
    9.7010   -3.5230   25.8330 C   0  0  0  0  0  0  0  0  0  0  0  0
   10.1430   -4.6520   25.1960 C   0  0  0  0  0  0  0  0  0  0  0  0
    9.2250   -5.6660   25.0560 C   0  0  0  0  0  0  0  0  0  0  0  0
    8.5140   -5.9420   26.2670 O   0  0  0  0  0  0  0  0  0  0  0  0
    7.2820   -5.2200   26.4000 C   0  0  0  0  0  0  0  0  0  0  0  0
    7.4540   -3.8560   26.7010 C   0  0  0  0  0  0  0  0  0  0  0  0
    6.2940   -3.5610   23.7470 C   0  0  2  0  0  0  0  0  0  0  0  0
    7.3460   -4.4200   22.9980 C   0  0  0  0  0  0  0  0  0  0  0  0
    5.0190   -3.3340   22.9080 C   0  0  0  0  0  0  0  0  0  0  0  0
  1  2  1  0
  3  2  1  0
  3  4  2  0
  3  5  2  0
  3  6  1  0
  6  7  1  0
  7  8  1  0
  8  9  1  0
  9 10  1  0
 10 11  1  0
 11 12  1  0
 12 13  1  0
 13 14  1  0
 14 15  1  0
 15 16  1  0
 11 17  1  0
 16 17  1  0
  9 18  1  0
 18 19  1  6
  6 20  1  0
 18 20  1  0
M  END
