JOH-UNI-27ac80fd-39-chloroacetamide
     RDKit          3D

 20 21  0  0  0  0  0  0  0  0999 V2000
    7.5390   -3.0420   18.8670 C   0  0  0  0  0  0  0  0  0  0  0  0
    6.4160   -3.2080   19.8820 C   0  0  0  0  0  0  0  0  0  0  0  0
    5.4340   -3.9050   19.6100 O   0  0  0  0  0  0  0  0  0  0  0  0
    6.4940   -2.6100   21.1350 N   0  0  0  0  0  0  0  0  0  0  0  0
    6.0450   -3.3210   22.3110 C   0  0  0  0  0  0  0  0  0  0  0  0
    7.2060   -3.7970   23.1310 C   0  0  0  0  0  0  0  0  0  0  0  0
    8.1160   -2.6310   23.3870 N   0  0  0  0  0  0  0  0  0  0  0  0
    8.6620   -2.2960   24.5980 C   0  0  0  0  0  0  0  0  0  0  0  0
    8.4220   -3.4370   25.5770 C   0  0  0  0  0  0  0  0  0  0  0  0
    7.2850   -3.5120   26.8210 S   0  0  0  0  0  0  0  0  0  0  0  0
    7.8880   -5.1440   27.2000 C   0  0  0  0  0  0  0  0  0  0  0  0
    7.0480   -6.0600   28.6330 Br  0  0  0  0  0  0  0  0  0  0  0  0
    9.0300   -5.6840   26.3360 C   0  0  0  0  0  0  0  0  0  0  0  0
    9.3280   -4.5810   25.3300 C   0  0  0  0  0  0  0  0  0  0  0  0
   10.2170   -4.4570   24.3150 C   0  0  0  0  0  0  0  0  0  0  0  0
   11.3560   -3.4650   24.5620 C   0  0  0  0  0  0  0  0  0  0  0  0
   12.3220   -3.6390   25.5280 O   0  0  0  0  0  0  0  0  0  0  0  0
   13.5480   -2.8960   25.3870 C   0  0  0  0  0  0  0  0  0  0  0  0
    8.6310   -1.9830   22.1700 C   0  0  0  0  0  0  0  0  0  0  0  0
    7.4860   -1.5170   21.4630 C   0  0  0  0  0  0  0  0  0  0  0  0
  1  2  1  0
  2  3  2  0
  2  4  1  0
  4  5  1  0
  5  6  1  0
  6  7  1  0
  7  8  1  0
  8  9  1  0
  9 10  1  0
 10 11  1  0
 11 12  1  0
 11 13  2  0
  9 14  2  0
 13 14  1  0
 14 15  1  0
 15 16  1  0
 16 17  1  0
 17 18  1  0
  7 19  1  0
  4 20  1  0
 19 20  1  0
M  END
