JOH-UNI-522b0723-2-acrylamide
     RDKit          3D

 18 19  0  0  0  0  0  0  0  0999 V2000
    7.4630   -2.8350   18.9400 C   0  0  0  0  0  0  0  0  0  0  0  0
    7.2650   -1.9030   20.1920 C   0  0  0  0  0  0  0  0  0  0  0  0
    6.0320   -2.5890   20.7640 C   0  0  0  0  0  0  0  0  0  0  0  0
    4.9420   -3.1950   21.3580 O   0  0  0  0  0  0  0  0  0  0  0  0
    6.8160   -2.1460   22.0760 C   0  0  0  0  0  0  0  0  0  0  0  0
    7.1300   -0.9610   22.9240 C   0  0  0  0  0  0  0  0  0  0  0  0
    8.0320   -1.2390   24.2680 C   0  0  0  0  0  0  0  0  0  0  0  0
    8.3380   -2.8940   24.1990 C   0  0  0  0  0  0  0  0  0  0  0  0
    9.0650   -3.4660   25.2450 N   0  0  0  0  0  0  0  0  0  0  0  0
    8.3410   -3.8680   26.4530 C   0  0  0  0  0  0  0  0  0  0  0  0
    7.4750   -4.8750   26.0390 C   0  0  0  0  0  0  0  0  0  0  0  0
    8.1410   -5.8600   25.6920 O   0  0  0  0  0  0  0  0  0  0  0  0
    9.0090   -5.6910   24.5540 C   0  0  1  0  0  0  0  0  0  0  0  0
    8.2080   -5.8410   23.2920 C   0  0  0  0  0  0  0  0  0  0  0  0
    9.8340   -4.5570   24.7190 C   0  0  1  0  0  0  0  0  0  0  0  0
   10.2480   -3.9750   23.5440 C   0  0  0  0  0  0  0  0  0  0  0  0
    7.9490   -3.8670   23.1940 C   0  0  0  0  0  0  0  0  0  0  0  0
    7.5710   -2.7650   22.9940 N   0  0  0  0  0  0  0  0  0  0  0  0
  1  2  1  0
  2  3  1  0
  3  4  2  0
  3  5  1  0
  5  6  2  0
  6  7  1  0
  7  8  2  0
  8  9  1  0
  9 10  1  0
 10 11  1  0
 11 12  1  0
 12 13  1  0
 13 14  1  6
  9 15  1  0
 13 15  1  0
 15 16  1  6
  8 17  1  0
  5 18  1  0
 17 18  2  0
M  END
