JOH-UNI-abdb2f0c-4-chloroacetamide
     RDKit          3D

 21 23  0  0  0  0  0  0  0  0999 V2000
    7.7350   -2.7440   18.8600 C   0  0  0  0  0  0  0  0  0  0  0  0
    7.1710   -3.0720   20.1600 C   0  0  0  0  0  0  0  0  0  0  0  0
    6.1690   -3.9100   19.8970 O   0  0  0  0  0  0  0  0  0  0  0  0
    7.7920   -2.5950   21.5360 C   0  0  0  0  0  0  0  0  0  0  0  0
    8.1700   -3.6220   22.2370 N   0  0  0  0  0  0  0  0  0  0  0  0
    8.7440   -3.5500   23.5700 C   0  0  0  0  0  0  0  0  0  0  0  0
    9.0380   -2.3330   24.4380 C   0  0  0  0  0  0  0  0  0  0  0  0
    9.4050   -3.5780   25.2000 N   0  0  0  0  0  0  0  0  0  0  0  0
    9.8060   -4.7290   24.3520 C   0  0  0  0  0  0  0  0  0  0  0  0
    8.6700   -5.5620   23.7450 C   0  0  0  0  0  0  0  0  0  0  0  0
    7.3330   -5.3820   24.1750 C   0  0  0  0  0  0  0  0  0  0  0  0
    7.0680   -5.4130   25.5680 O   0  0  0  0  0  0  0  0  0  0  0  0
    8.2050   -5.2810   26.4170 C   0  0  0  0  0  0  0  0  0  0  0  0
    8.6980   -3.9750   26.4460 C   0  0  0  0  0  0  0  0  0  0  0  0
    8.5890   -1.3510   23.4670 C   0  0  0  0  0  0  0  0  0  0  0  0
    8.0140   -1.3700   22.1470 C   0  0  0  0  0  0  0  0  0  0  0  0
    7.7150   -0.1190   21.5950 C   0  0  0  0  0  0  0  0  0  0  0  0
    8.2820    1.0530   22.0730 N   0  0  0  0  0  0  0  0  0  0  0  0
    7.7680    2.0530   21.3150 C   0  0  0  0  0  0  0  0  0  0  0  0
    6.8470    1.3810   20.3460 C   0  0  0  0  0  0  0  0  0  0  0  0
    6.8920    0.0120   20.6120 O   0  0  0  0  0  0  0  0  0  0  0  0
  1  2  1  0
  2  3  2  0
  2  4  1  0
  4  5  2  0
  5  6  1  0
  6  7  2  0
  7  8  1  0
  8  9  1  0
  9 10  1  0
 10 11  1  0
 11 12  1  0
 12 13  1  0
  8 14  1  0
 13 14  1  0
  7 15  1  0
  4 16  1  0
 15 16  2  0
 16 17  1  0
 17 18  2  0
 18 19  1  0
 19 20  2  0
 17 21  1  0
 20 21  1  0
M  END
