JOH-MEM-5e386bbd-7
     RDKit          3D

 13 14  0  0  0  0  0  0  0  0999 V2000
   11.7990    5.9720   23.5690 O   0  0  0  0  0  0  0  0  0  0  0  0
   12.6110    5.1670   23.1440 C   0  0  0  0  0  0  0  0  0  0  0  0
   12.4610    3.6890   22.8790 C   0  0  0  0  0  0  0  0  0  0  0  0
   11.7610    2.5170   23.2640 C   0  0  0  0  0  0  0  0  0  0  0  0
   10.4740    2.6850   24.0430 C   0  0  0  0  0  0  0  0  0  0  0  0
    9.9470    1.5140   24.3120 N   0  0  0  0  0  0  0  0  0  0  0  0
   10.7560    0.5630   23.7860 C   0  0  0  0  0  0  0  0  0  0  0  0
   10.5400   -0.9430   23.8420 C   0  0  0  0  0  0  0  0  0  0  0  0
   11.5770   -1.8290   23.1670 C   0  0  0  0  0  0  0  0  0  0  0  0
   12.6480   -1.1520   22.5650 C   0  0  0  0  0  0  0  0  0  0  0  0
   13.5820   -1.8840   21.9480 O   0  0  0  0  0  0  0  0  0  0  0  0
   12.8440    0.2360   22.5370 C   0  0  0  0  0  0  0  0  0  0  0  0
   11.9050    1.0800   23.1280 C   0  0  0  0  0  0  0  0  0  0  0  0
  1  2  2  0
  2  3  1  0
  3  4  1  0
  4  5  2  0
  5  6  1  0
  6  7  1  0
  7  8  1  0
  8  9  2  0
  9 10  1  0
 10 11  1  0
 10 12  2  0
  4 13  1  0
  7 13  2  0
 12 13  1  0
M  END
