JOH-UNI-27ac80fd-3-acrylamide
     RDKit          3D

 18 19  0  0  0  0  0  0  0  0999 V2000
    7.8700   -2.8510   18.7320 C   0  0  0  0  0  0  0  0  0  0  0  0
    6.3620   -2.8870   18.9460 C   0  0  0  0  0  0  0  0  0  0  0  0
    5.8860   -3.4900   20.2180 C   0  0  0  0  0  0  0  0  0  0  0  0
    5.2610   -4.5510   20.1720 O   0  0  0  0  0  0  0  0  0  0  0  0
    6.1900   -2.7450   21.3490 N   0  0  0  0  0  0  0  0  0  0  0  0
    7.0030   -1.5230   21.3200 C   0  0  0  0  0  0  0  0  0  0  0  0
    8.2320   -1.6730   22.1710 C   0  0  0  0  0  0  0  0  0  0  0  0
    7.8910   -1.8940   23.5820 N   0  0  0  0  0  0  0  0  0  0  0  0
    9.0290   -2.4350   24.3590 C   0  0  0  0  0  0  0  0  0  0  0  0
    8.8650   -3.7240   24.8090 N   0  0  0  0  0  0  0  0  0  0  0  0
    9.6080   -4.9280   24.3430 C   0  0  0  0  0  0  0  0  0  0  0  0
    8.7100   -5.6460   23.5880 C   0  0  0  0  0  0  0  0  0  0  0  0
    7.3950   -5.5630   24.0140 C   0  0  0  0  0  0  0  0  0  0  0  0
    7.1810   -5.7830   25.2090 O   0  0  0  0  0  0  0  0  0  0  0  0
    7.0160   -4.6480   26.0550 C   0  0  0  0  0  0  0  0  0  0  0  0
    8.1770   -3.8720   26.1130 C   0  0  0  0  0  0  0  0  0  0  0  0
    6.5170   -2.4030   23.8320 C   0  0  0  0  0  0  0  0  0  0  0  0
    5.8430   -3.2150   22.6890 C   0  0  0  0  0  0  0  0  0  0  0  0
  1  2  1  0
  2  3  1  0
  3  4  2  0
  3  5  1  0
  5  6  1  0
  6  7  1  0
  7  8  1  0
  8  9  1  0
  9 10  1  0
 10 11  1  0
 11 12  1  0
 12 13  1  0
 13 14  1  0
 14 15  1  0
 10 16  1  0
 15 16  1  0
  8 17  1  0
  5 18  1  0
 17 18  1  0
M  END
