JOH-UNI-27ac80fd-41-vinylsulfonamide
     RDKit          3D

 24 26  0  0  0  0  0  0  0  0999 V2000
    8.3160   -3.6600   19.9320 C   0  0  0  0  0  0  0  0  0  0  0  0
    7.2240   -2.9280   19.1460 C   0  0  0  0  0  0  0  0  0  0  0  0
    5.8580   -3.3210   20.1680 S   0  0  0  0  0  0  0  0  0  0  0  0
    4.5530   -3.1140   19.5990 O   0  0  0  0  0  0  0  0  0  0  0  0
    6.0780   -4.6510   20.6520 O   0  0  0  0  0  0  0  0  0  0  0  0
    6.2070   -2.2580   21.4060 N   0  0  0  0  0  0  0  0  0  0  0  0
    7.3710   -1.3610   21.2430 C   0  0  0  0  0  0  0  0  0  0  0  0
    8.5760   -1.7360   22.1230 C   0  0  0  0  0  0  0  0  0  0  0  0
    8.3670   -2.5830   23.1470 N   0  0  0  0  0  0  0  0  0  0  0  0
    9.3720   -3.1230   23.8380 C   0  0  0  0  0  0  0  0  0  0  0  0
    9.0110   -3.9670   24.8520 C   0  0  0  0  0  0  0  0  0  0  0  0
    8.4610   -3.5410   26.3680 S   0  0  0  0  0  0  0  0  0  0  0  0
    8.2530   -5.1300   26.8100 C   0  0  0  0  0  0  0  0  0  0  0  0
    7.5560   -5.4960   28.5280 Br  0  0  0  0  0  0  0  0  0  0  0  0
    8.6250   -6.0130   25.7810 C   0  0  0  0  0  0  0  0  0  0  0  0
    9.0620   -5.4430   24.6090 C   0  0  0  0  0  0  0  0  0  0  0  0
    9.4190   -6.1820   23.5020 C   0  0  0  0  0  0  0  0  0  0  0  0
    8.4240   -7.0500   23.0920 C   0  0  0  0  0  0  0  0  0  0  0  0
    7.5370   -7.0050   23.9160 O   0  0  0  0  0  0  0  0  0  0  0  0
    6.3920   -7.6560   23.4240 C   0  0  0  0  0  0  0  0  0  0  0  0
   10.2010   -2.2900   24.3810 C   0  0  0  0  0  0  0  0  0  0  0  0
   10.8490   -2.8570   23.4190 C   0  0  0  0  0  0  0  0  0  0  0  0
    7.2170   -3.3910   23.1100 C   0  0  0  0  0  0  0  0  0  0  0  0
    6.0560   -2.7990   22.6550 C   0  0  0  0  0  0  0  0  0  0  0  0
  1  2  1  0
  3  2  1  0
  3  4  2  0
  3  5  2  0
  3  6  1  0
  6  7  1  0
  7  8  1  0
  8  9  1  0
  9 10  1  0
 10 11  1  0
 11 12  1  0
 12 13  1  0
 13 14  1  0
 13 15  2  0
 11 16  2  0
 15 16  1  0
 16 17  1  0
 17 18  1  0
 18 19  1  0
 19 20  1  0
 10 21  1  0
 10 22  1  0
 21 22  1  0
  9 23  1  0
  6 24  1  0
 23 24  1  0
M  END
