JOH-MSK-2d8052dc-1-vinylsulfonamide
     RDKit          3D

 33 36  0  0  0  0  0  0  0  0999 V2000
    6.2670   -5.4800   20.5150 C   0  0  0  0  0  0  0  0  0  0  0  0
    6.7100   -5.8830   21.9360 C   0  0  0  0  0  0  0  0  0  0  0  0
    5.3340   -5.7010   23.0580 S   0  0  0  0  0  0  0  0  0  0  0  0
    4.3810   -4.7660   22.4270 O   0  0  0  0  0  0  0  0  0  0  0  0
    4.8820   -7.0470   23.3530 O   0  0  0  0  0  0  0  0  0  0  0  0
    5.9350   -5.0300   24.6780 C   0  0  0  0  0  0  0  0  0  0  0  0
    5.0310   -4.9150   25.8600 C   0  0  0  0  0  0  0  0  0  0  0  0
    6.4860   -4.8190   25.6220 C   0  0  0  0  0  0  0  0  0  0  0  0
    5.6320   -4.7870   24.3790 C   0  0  2  0  0  0  0  0  0  0  0  0
    6.0950   -3.5690   23.5670 C   0  0  0  0  0  0  0  0  0  0  0  0
    4.9760   -2.7620   23.1830 N   0  0  0  0  0  0  0  0  0  0  0  0
    5.0330   -2.2460   21.9120 C   0  0  0  0  0  0  0  0  0  0  0  0
    5.2850   -0.8860   21.7670 C   0  0  0  0  0  0  0  0  0  0  0  0
    4.8350   -3.0770   20.7790 O   0  0  0  0  0  0  0  0  0  0  0  0
    4.1630   -2.3250   24.3090 C   0  0  0  0  0  0  0  0  0  0  0  0
    3.4450   -3.4430   24.7240 C   0  0  0  0  0  0  0  0  0  0  0  0
    2.0880   -3.3050   25.0840 C   0  0  0  0  0  0  0  0  0  0  0  0
    1.3010   -4.3850   25.5000 C   0  0  0  0  0  0  0  0  0  0  0  0
    1.9000   -5.8050   25.5850 C   0  0  0  0  0  0  0  0  0  0  0  0
    3.3660   -5.9720   25.2050 C   0  0  0  0  0  0  0  0  0  0  0  0
    4.1260   -4.7020   24.7650 C   0  0  0  0  0  0  0  0  0  0  0  0
    7.5750   -4.7150   24.6730 C   0  0  0  0  0  0  0  0  0  0  0  0
    8.8200   -5.2130   25.4140 N   0  0  0  0  0  0  0  0  0  0  0  0
   10.2830   -4.7440   25.2590 C   0  0  0  0  0  0  0  0  0  0  0  0
    9.5420   -3.6030   24.9380 C   0  0  0  0  0  0  0  0  0  0  0  0
   10.9300   -2.9940   25.1090 C   0  0  0  0  0  0  0  0  0  0  0  0
   11.7820   -2.5530   23.9520 C   0  0  0  0  0  0  0  0  0  0  0  0
   11.6780   -1.1200   23.7420 N   0  0  0  0  0  0  0  0  0  0  0  0
   12.5520   -0.4590   22.9080 C   0  0  0  0  0  0  0  0  0  0  0  0
   12.5670    1.0270   23.1310 C   0  0  0  0  0  0  0  0  0  0  0  0
   13.2510   -1.0150   22.0670 O   0  0  0  0  0  0  0  0  0  0  0  0
    8.7060   -4.5670   24.6140 C   0  0  0  0  0  0  0  0  0  0  0  0
    7.3490   -4.5870   25.0320 C   0  0  0  0  0  0  0  0  0  0  0  0
  1  2  1  0
  3  2  1  0
  3  4  2  0
  3  5  2  0
  3  6  1  0
  6  7  2  0
  7  8  1  0
  9  8  1  1
  9 10  1  0
 10 11  1  0
 11 12  1  0
 12 13  1  0
 12 14  2  0
 11 15  1  0
 15 16  1  0
 16 17  2  0
 17 18  1  0
 18 19  2  0
 19 20  1  0
  9 21  1  0
 16 21  1  0
 20 21  2  0
  8 22  2  0
 22 23  1  0
 23 24  1  0
 24 25  2  0
 25 26  1  0
 26 27  1  0
 27 28  1  0
 28 29  1  0
 29 30  1  0
 29 31  2  0
 22 32  1  0
 25 32  1  0
  6 33  1  0
 32 33  2  0
M  END
