JOH-UNI-522b0723-9-vinylsulfonamide
     RDKit          3D

 28 30  0  0  0  0  0  0  0  0999 V2000
    8.3870   -3.4800   20.0550 C   0  0  0  0  0  0  0  0  0  0  0  0
    7.4910   -2.2170   19.9980 C   0  0  0  0  0  0  0  0  0  0  0  0
    6.4420   -2.8430   21.2420 S   0  0  0  0  0  0  0  0  0  0  0  0
    4.8880   -3.0340   21.0930 O   0  0  0  0  0  0  0  0  0  0  0  0
    6.8920   -4.2180   21.1780 O   0  0  0  0  0  0  0  0  0  0  0  0
    7.3490   -2.4660   22.7470 C   0  0  0  0  0  0  0  0  0  0  0  0
    8.2830   -3.5630   22.7200 N   0  0  0  0  0  0  0  0  0  0  0  0
    9.2250   -3.9230   23.6640 C   0  0  0  0  0  0  0  0  0  0  0  0
    8.6900   -2.8700   24.1640 C   0  0  0  0  0  0  0  0  0  0  0  0
    9.4870   -3.2300   25.2280 N   0  0  0  0  0  0  0  0  0  0  0  0
   10.3280   -4.4050   24.9060 C   0  0  0  0  0  0  0  0  0  0  0  0
    9.5190   -5.5800   24.8410 C   0  0  0  0  0  0  0  0  0  0  0  0
    8.0950   -5.3980   24.5180 N   0  0  0  0  0  0  0  0  0  0  0  0
    7.4210   -6.6610   24.1400 C   0  0  0  0  0  0  0  0  0  0  0  0
    7.4400   -4.5720   25.5780 C   0  0  1  0  0  0  0  0  0  0  0  0
    6.6780   -5.3950   26.5820 C   0  0  0  0  0  0  0  0  0  0  0  0
    8.4860   -3.6140   26.2640 C   0  0  0  0  0  0  0  0  0  0  0  0
    8.2110   -1.7930   24.7890 C   0  0  0  0  0  0  0  0  0  0  0  0
    7.2150   -1.4230   23.7460 C   0  0  0  0  0  0  0  0  0  0  0  0
    6.3000   -0.1960   23.9080 C   0  0  0  0  0  0  0  0  0  0  0  0
    6.3110    0.5920   22.9690 O   0  0  0  0  0  0  0  0  0  0  0  0
    5.5680   -0.1060   25.0720 N   0  0  0  0  0  0  0  0  0  0  0  0
    5.7180    0.8520   26.1010 C   0  0  0  0  0  0  0  0  0  0  0  0
    6.8360    1.6950   26.0400 C   0  0  0  0  0  0  0  0  0  0  0  0
    7.0390    2.6640   27.0210 C   0  0  0  0  0  0  0  0  0  0  0  0
    6.1370    2.8030   28.0680 C   0  0  0  0  0  0  0  0  0  0  0  0
    5.0200    1.9670   28.1400 C   0  0  0  0  0  0  0  0  0  0  0  0
    4.8170    1.0000   27.1600 C   0  0  0  0  0  0  0  0  0  0  0  0
  1  2  1  0
  3  2  1  0
  3  4  2  0
  3  5  2  0
  3  6  1  0
  6  7  2  0
  7  8  1  0
  8  9  2  0
  9 10  1  0
 10 11  1  0
 11 12  1  0
 12 13  1  0
 13 14  1  0
 13 15  1  0
 15 16  1  1
 10 17  1  0
 15 17  1  0
  9 18  1  0
  6 19  1  0
 18 19  2  0
 19 20  1  0
 20 21  2  0
 20 22  1  0
 22 23  1  0
 23 24  2  0
 24 25  1  0
 25 26  2  0
 26 27  1  0
 23 28  1  0
 27 28  2  0
M  END
