JOH-UNI-522b0723-9-vinylsulfonamide
     RDKit          3D

 28 30  0  0  0  0  0  0  0  0999 V2000
    7.0030   -3.0700   19.0330 C   0  0  0  0  0  0  0  0  0  0  0  0
    7.1680   -1.7510   19.8470 C   0  0  0  0  0  0  0  0  0  0  0  0
    6.0230   -1.8890   21.2120 S   0  0  0  0  0  0  0  0  0  0  0  0
    4.9720   -3.1180   21.0590 O   0  0  0  0  0  0  0  0  0  0  0  0
    5.5030   -0.5510   21.3480 O   0  0  0  0  0  0  0  0  0  0  0  0
    7.3380   -2.0320   22.4620 C   0  0  0  0  0  0  0  0  0  0  0  0
    8.2750   -2.8060   22.5300 N   0  0  0  0  0  0  0  0  0  0  0  0
    9.6600   -2.4770   22.8320 C   0  0  0  0  0  0  0  0  0  0  0  0
    9.7850   -3.1750   24.1110 C   0  0  0  0  0  0  0  0  0  0  0  0
    9.5330   -3.8110   25.4110 N   0  0  0  0  0  0  0  0  0  0  0  0
   10.0040   -5.1020   25.3500 C   0  0  0  0  0  0  0  0  0  0  0  0
    8.9810   -6.0990   24.7790 C   0  0  0  0  0  0  0  0  0  0  0  0
    7.9020   -5.4090   24.3680 N   0  0  0  0  0  0  0  0  0  0  0  0
    7.1180   -6.1940   23.4960 C   0  0  0  0  0  0  0  0  0  0  0  0
    7.3130   -4.5780   25.4410 C   0  0  1  0  0  0  0  0  0  0  0  0
    6.5680   -5.3600   26.2950 C   0  0  0  0  0  0  0  0  0  0  0  0
    8.2010   -3.6460   25.9950 C   0  0  0  0  0  0  0  0  0  0  0  0
    8.4960   -2.3970   24.4110 C   0  0  0  0  0  0  0  0  0  0  0  0
    7.4210   -1.5950   23.7210 C   0  0  0  0  0  0  0  0  0  0  0  0
    6.4400   -0.6890   24.4770 C   0  0  0  0  0  0  0  0  0  0  0  0
    5.6870   -1.2180   25.2900 O   0  0  0  0  0  0  0  0  0  0  0  0
    6.4500    0.6430   24.2090 N   0  0  0  0  0  0  0  0  0  0  0  0
    6.7350    1.5040   25.2280 C   0  0  0  0  0  0  0  0  0  0  0  0
    6.6940    2.8610   24.9140 C   0  0  0  0  0  0  0  0  0  0  0  0
    6.9590    3.8360   25.8560 C   0  0  0  0  0  0  0  0  0  0  0  0
    7.2740    3.4810   27.1390 C   0  0  0  0  0  0  0  0  0  0  0  0
    7.3340    2.1550   27.5240 C   0  0  0  0  0  0  0  0  0  0  0  0
    7.0610    1.1540   26.5550 C   0  0  0  0  0  0  0  0  0  0  0  0
  1  2  1  0
  3  2  1  0
  3  4  2  0
  3  5  2  0
  3  6  1  0
  6  7  2  0
  7  8  1  0
  8  9  2  0
  9 10  1  0
 10 11  1  0
 11 12  1  0
 12 13  1  0
 13 14  1  0
 13 15  1  0
 15 16  1  1
 10 17  1  0
 15 17  1  0
  9 18  1  0
  6 19  1  0
 18 19  2  0
 19 20  1  0
 20 21  2  0
 20 22  1  0
 22 23  1  0
 23 24  2  0
 24 25  1  0
 25 26  2  0
 26 27  1  0
 23 28  1  0
 27 28  2  0
M  END
