JOH-UNI-27ac80fd-30-nitrile
     RDKit          3D

 17 18  0  0  0  0  0  0  0  0999 V2000
    6.8750   -3.4090   19.8540 C   0  0  0  0  0  0  0  0  0  0  0  0
    5.7430   -3.7000   19.3630 N   0  0  0  0  0  0  0  0  0  0  0  0
    7.0150   -2.8420   21.0940 N   0  0  0  0  0  0  0  0  0  0  0  0
    6.4810   -3.5130   22.2710 C   0  0  0  0  0  0  0  0  0  0  0  0
    7.6410   -3.7100   23.2470 C   0  0  0  0  0  0  0  0  0  0  0  0
    8.5210   -2.5240   23.3170 N   0  0  0  0  0  0  0  0  0  0  0  0
    9.6140   -2.8000   24.2600 C   0  0  0  0  0  0  0  0  0  0  0  0
   10.7440   -3.1600   23.6120 F   0  0  0  0  0  0  0  0  0  0  0  0
    9.9150   -1.6390   24.8900 F   0  0  0  0  0  0  0  0  0  0  0  0
    9.2300   -3.8980   25.2600 C   0  0  0  0  0  0  0  0  0  0  0  0
    9.8420   -5.2670   25.4040 C   0  0  0  0  0  0  0  0  0  0  0  0
    9.1700   -6.0210   26.5010 C   0  0  0  0  0  0  0  0  0  0  0  0
    8.1500   -5.2960   27.1200 C   0  0  0  0  0  0  0  0  0  0  0  0
    7.0610   -5.9180   28.5510 Br  0  0  0  0  0  0  0  0  0  0  0  0
    7.9230   -3.6800   26.4450 S   0  0  0  0  0  0  0  0  0  0  0  0
    8.9540   -2.0900   22.0740 C   0  0  0  0  0  0  0  0  0  0  0  0
    7.8030   -1.7310   21.3570 C   0  0  0  0  0  0  0  0  0  0  0  0
  1  2  2  3
  1  3  1  0
  3  4  1  0
  4  5  1  0
  5  6  1  0
  6  7  1  0
  7  8  1  0
  7  9  1  0
  7 10  1  0
 10 11  2  0
 11 12  1  0
 12 13  2  0
 13 14  1  0
 10 15  1  0
 13 15  1  0
  6 16  1  0
  3 17  1  0
 16 17  1  0
M  END
