JOH-MSK-d60b0211-1-vinylsulfonamide
     RDKit          3D

 30 32  0  0  0  0  0  0  0  0999 V2000
    8.5310   -3.7050   20.0980 C   0  0  0  0  0  0  0  0  0  0  0  0
    7.2350   -4.2980   20.6620 C   0  0  0  0  0  0  0  0  0  0  0  0
    6.3660   -3.3650   21.8940 S   0  0  0  0  0  0  0  0  0  0  0  0
    4.9350   -3.4500   21.5740 O   0  0  0  0  0  0  0  0  0  0  0  0
    6.7800   -3.9150   23.1740 O   0  0  0  0  0  0  0  0  0  0  0  0
    6.8010   -1.6170   21.8790 C   0  0  0  0  0  0  0  0  0  0  0  0
    7.6240   -2.3980   22.7150 C   0  0  0  0  0  0  0  0  0  0  0  0
    8.5240   -1.6840   23.5340 C   0  0  0  0  0  0  0  0  0  0  0  0
    9.2090   -2.3840   24.4800 C   0  0  0  0  0  0  0  0  0  0  0  0
   10.3130   -2.9960   23.9470 N   0  0  0  0  0  0  0  0  0  0  0  0
   10.2210   -2.9230   22.5990 C   0  0  0  0  0  0  0  0  0  0  0  0
   11.0150   -2.0650   21.7150 C   0  0  0  0  0  0  0  0  0  0  0  0
   11.9040   -1.2720   22.5250 N   0  0  0  0  0  0  0  0  0  0  0  0
   11.6770    0.0690   22.7010 C   0  0  0  0  0  0  0  0  0  0  0  0
   12.7830    0.8810   23.2350 C   0  0  0  0  0  0  0  0  0  0  0  0
   10.6080    0.5970   22.4210 O   0  0  0  0  0  0  0  0  0  0  0  0
   12.4810   -1.9810   23.5440 C   0  0  0  0  0  0  0  0  0  0  0  0
   11.5640   -2.4710   24.4550 C   0  0  0  0  0  0  0  0  0  0  0  0
    8.6790   -0.3780   23.5140 C   0  0  0  0  0  0  0  0  0  0  0  0
    9.3640    0.5480   24.3990 N   0  0  0  0  0  0  0  0  0  0  0  0
    9.2070    1.8560   23.8820 C   0  0  0  0  0  0  0  0  0  0  0  0
    8.4970    1.8050   22.7280 C   0  0  0  0  0  0  0  0  0  0  0  0
    8.2530    3.1330   22.0030 C   0  0  0  0  0  0  0  0  0  0  0  0
    8.0760    4.3360   22.9460 C   0  0  0  0  0  0  0  0  0  0  0  0
    8.8240    5.5000   22.4890 N   0  0  0  0  0  0  0  0  0  0  0  0
    8.2390    6.8360   22.5220 C   0  0  0  0  0  0  0  0  0  0  0  0
    7.3530    7.1260   21.3350 C   0  0  0  0  0  0  0  0  0  0  0  0
    8.4370    7.6640   23.4080 O   0  0  0  0  0  0  0  0  0  0  0  0
    8.1670    0.3800   22.4880 C   0  0  0  0  0  0  0  0  0  0  0  0
    7.5740   -0.3990   21.4940 C   0  0  0  0  0  0  0  0  0  0  0  0
  1  2  1  0
  3  2  1  0
  3  4  2  0
  3  5  2  0
  3  6  1  0
  6  7  2  0
  7  8  1  0
  8  9  1  0
  9 10  1  0
 10 11  1  0
 11 12  1  0
 12 13  1  0
 13 14  1  0
 14 15  1  0
 14 16  2  0
 13 17  1  0
 10 18  1  0
 17 18  1  0
  8 19  2  0
 19 20  1  0
 20 21  1  0
 21 22  2  0
 22 23  1  0
 23 24  1  0
 24 25  1  0
 25 26  1  0
 26 27  1  0
 26 28  2  0
 19 29  1  0
 22 29  1  0
  6 30  1  0
 29 30  2  0
M  END
