JOH-MSK-a63bdd1d-5
     RDKit          3D

 20 21  0  0  0  0  0  0  0  0999 V2000
    8.9670    6.5750   22.5620 C   0  0  0  0  0  0  0  0  0  0  0  0
   10.1930    6.2890   23.4110 C   0  0  0  0  0  0  0  0  0  0  0  0
   10.2150    6.3760   24.6130 O   0  0  0  0  0  0  0  0  0  0  0  0
   11.3380    5.8920   22.5460 N   0  0  0  0  0  0  0  0  0  0  0  0
   12.1930    5.3100   23.3300 C   0  0  0  0  0  0  0  0  0  0  0  0
   12.5750    3.9520   22.7400 C   0  0  0  0  0  0  0  0  0  0  0  0
   11.6970    2.8110   23.2910 C   0  0  0  0  0  0  0  0  0  0  0  0
   10.4450    2.8550   24.0940 C   0  0  0  0  0  0  0  0  0  0  0  0
    9.9570    1.5950   24.3650 N   0  0  0  0  0  0  0  0  0  0  0  0
   10.8240    0.6690   23.7780 C   0  0  0  0  0  0  0  0  0  0  0  0
   10.6770   -0.7180   23.8050 C   0  0  0  0  0  0  0  0  0  0  0  0
   11.6390   -1.4720   23.1250 C   0  0  0  0  0  0  0  0  0  0  0  0
   12.7040   -0.8250   22.4790 C   0  0  0  0  0  0  0  0  0  0  0  0
   13.6670   -1.4570   21.7600 O   0  0  0  0  0  0  0  0  0  0  0  0
   13.0940   -2.8970   21.4300 S   0  0  0  0  0  0  0  0  0  0  0  0
   11.8390   -3.0260   20.7540 O   0  0  0  0  0  0  0  0  0  0  0  0
   13.2470   -3.3600   22.7690 O   0  0  0  0  0  0  0  0  0  0  0  0
   14.1490   -3.6860   20.4890 O   0  0  0  0  0  0  0  0  0  0  0  0
   12.8450    0.5160   22.5020 C   0  0  0  0  0  0  0  0  0  0  0  0
   11.9180    1.3050   23.1130 C   0  0  0  0  0  0  0  0  0  0  0  0
  1  2  1  0
  2  3  2  0
  2  4  1  0
  4  5  1  0
  5  6  1  0
  6  7  1  0
  7  8  2  0
  8  9  1  0
  9 10  1  0
 10 11  1  0
 11 12  2  0
 12 13  1  0
 13 14  1  0
 15 14  1  0
 15 16  2  0
 15 17  2  0
 15 18  1  0
 13 19  2  0
  7 20  1  0
 10 20  2  0
 19 20  1  0
M  END
