JOH-UNI-27ac80fd-26-chloroacetamide
     RDKit          3D

 17 18  0  0  0  0  0  0  0  0999 V2000
    7.3040   -2.9420   18.7660 C   0  0  0  0  0  0  0  0  0  0  0  0
    6.3540   -3.2610   19.8770 C   0  0  0  0  0  0  0  0  0  0  0  0
    5.4030   -4.0370   19.7080 O   0  0  0  0  0  0  0  0  0  0  0  0
    6.6130   -2.6740   21.1200 N   0  0  0  0  0  0  0  0  0  0  0  0
    6.2540   -3.3520   22.3490 C   0  0  0  0  0  0  0  0  0  0  0  0
    7.5260   -3.7600   23.0900 C   0  0  0  0  0  0  0  0  0  0  0  0
    8.5010   -2.6510   23.1810 N   0  0  0  0  0  0  0  0  0  0  0  0
    9.6360   -3.0440   24.0340 C   0  0  0  0  0  0  0  0  0  0  0  0
   10.7980   -2.6700   23.8790 O   0  0  0  0  0  0  0  0  0  0  0  0
    9.2030   -3.9870   25.1380 C   0  0  0  0  0  0  0  0  0  0  0  0
    9.8060   -5.3450   25.3730 C   0  0  0  0  0  0  0  0  0  0  0  0
    9.2080   -5.9830   26.4330 C   0  0  0  0  0  0  0  0  0  0  0  0
    8.2050   -5.2860   27.0550 C   0  0  0  0  0  0  0  0  0  0  0  0
    7.1640   -5.8740   28.5280 Br  0  0  0  0  0  0  0  0  0  0  0  0
    7.9510   -3.7000   26.3050 S   0  0  0  0  0  0  0  0  0  0  0  0
    8.8480   -2.1230   21.9530 C   0  0  0  0  0  0  0  0  0  0  0  0
    7.6380   -1.7090   21.3420 C   0  0  0  0  0  0  0  0  0  0  0  0
  1  2  1  0
  2  3  2  0
  2  4  1  0
  4  5  1  0
  5  6  1  0
  6  7  1  0
  7  8  1  0
  8  9  2  0
  8 10  1  0
 10 11  2  0
 11 12  1  0
 12 13  2  0
 13 14  1  0
 10 15  1  0
 13 15  1  0
  7 16  1  0
  4 17  1  0
 16 17  1  0
M  END
