JOH-UNI-27ac80fd-27-nitrile
     RDKit          3D

 15 16  0  0  0  0  0  0  0  0999 V2000
    6.7850   -3.5240   19.9010 C   0  0  0  0  0  0  0  0  0  0  0  0
    5.7660   -4.2920   19.8210 N   0  0  0  0  0  0  0  0  0  0  0  0
    6.9130   -2.7720   21.0320 N   0  0  0  0  0  0  0  0  0  0  0  0
    6.4760   -3.2280   22.3290 C   0  0  0  0  0  0  0  0  0  0  0  0
    7.5780   -3.7600   23.0170 C   0  0  0  0  0  0  0  0  0  0  0  0
    8.4650   -2.6080   23.3420 N   0  0  0  0  0  0  0  0  0  0  0  0
    9.6160   -3.0540   24.1530 C   0  0  0  0  0  0  0  0  0  0  0  0
    9.1900   -3.9260   25.1620 C   0  0  0  0  0  0  0  0  0  0  0  0
    9.8610   -5.2730   25.3320 C   0  0  0  0  0  0  0  0  0  0  0  0
    9.2270   -6.0170   26.4620 C   0  0  0  0  0  0  0  0  0  0  0  0
    8.1110   -5.2590   27.1250 C   0  0  0  0  0  0  0  0  0  0  0  0
    7.0500   -5.8620   28.5840 Br  0  0  0  0  0  0  0  0  0  0  0  0
    7.8740   -3.6550   26.3500 S   0  0  0  0  0  0  0  0  0  0  0  0
    8.8640   -2.0140   22.1950 C   0  0  0  0  0  0  0  0  0  0  0  0
    7.8140   -1.5810   21.1540 C   0  0  0  0  0  0  0  0  0  0  0  0
  1  2  2  3
  1  3  1  0
  3  4  1  0
  4  5  1  0
  5  6  1  0
  6  7  1  0
  7  8  1  0
  8  9  2  0
  9 10  1  0
 10 11  2  0
 11 12  1  0
  8 13  1  0
 11 13  1  0
  6 14  1  0
  3 15  1  0
 14 15  1  0
M  END
