JOH-UNI-522b0723-2-nitrile
     RDKit          3D

 16 17  0  0  0  0  0  0  0  0999 V2000
    7.7000   -3.0140   19.6240 C   0  0  0  0  0  0  0  0  0  0  0  0
    6.4500   -2.9810   19.2270 N   0  0  0  0  0  0  0  0  0  0  0  0
    8.0300   -2.8410   21.1390 C   0  0  0  0  0  0  0  0  0  0  0  0
    7.5710   -1.7440   22.1570 C   0  0  0  0  0  0  0  0  0  0  0  0
    7.9060   -1.8470   23.6530 C   0  0  0  0  0  0  0  0  0  0  0  0
    8.7100   -3.1270   23.9360 C   0  0  0  0  0  0  0  0  0  0  0  0
    9.0370   -3.4930   25.2990 N   0  0  0  0  0  0  0  0  0  0  0  0
    8.0720   -3.1680   26.2350 C   0  0  0  0  0  0  0  0  0  0  0  0
    6.8050   -4.0340   26.1980 C   0  0  0  0  0  0  0  0  0  0  0  0
    6.8370   -4.8580   25.0360 O   0  0  0  0  0  0  0  0  0  0  0  0
    8.0530   -5.5930   24.8950 C   0  0  1  0  0  0  0  0  0  0  0  0
    8.2580   -5.9160   23.5480 C   0  0  0  0  0  0  0  0  0  0  0  0
    9.0720   -4.9170   25.5630 C   0  0  1  0  0  0  0  0  0  0  0  0
   10.3660   -5.4890   25.4660 C   0  0  0  0  0  0  0  0  0  0  0  0
    9.0960   -3.9590   22.9040 C   0  0  0  0  0  0  0  0  0  0  0  0
    8.7940   -3.8370   21.6080 N   0  0  0  0  0  0  0  0  0  0  0  0
  1  2  2  3
  1  3  1  0
  3  4  2  0
  4  5  1  0
  5  6  2  0
  6  7  1  0
  7  8  1  0
  8  9  1  0
  9 10  1  0
 10 11  1  0
 11 12  1  6
  7 13  1  0
 11 13  1  0
 13 14  1  6
  6 15  1  0
  3 16  1  0
 15 16  2  0
M  END
