JOH-UNI-27ac80fd-6
     RDKit          3D

 18 19  0  0  0  0  0  0  0  0999 V2000
    6.6540   -1.9860   18.6920 C   0  0  0  0  0  0  0  0  0  0  0  0
    6.1470   -2.7960   19.8800 C   0  0  0  0  0  0  0  0  0  0  0  0
    5.4290   -3.7800   19.6630 O   0  0  0  0  0  0  0  0  0  0  0  0
    6.5160   -2.4020   21.1830 N   0  0  0  0  0  0  0  0  0  0  0  0
    6.2150   -3.3020   22.2830 C   0  0  0  0  0  0  0  0  0  0  0  0
    7.4710   -3.6430   23.0990 C   0  0  0  0  0  0  0  0  0  0  0  0
    8.4110   -2.5450   23.3680 N   0  0  0  0  0  0  0  0  0  0  0  0
    9.5180   -2.9830   24.2570 C   0  0  0  0  0  0  0  0  0  0  0  0
    9.2260   -4.0910   25.0540 N   0  0  0  0  0  0  0  0  0  0  0  0
    9.3860   -5.4280   24.7180 C   0  0  0  0  0  0  0  0  0  0  0  0
    8.4870   -5.8010   23.7330 C   0  0  0  0  0  0  0  0  0  0  0  0
    7.1850   -5.6410   24.1520 C   0  0  0  0  0  0  0  0  0  0  0  0
    7.0770   -5.7150   25.5640 O   0  0  0  0  0  0  0  0  0  0  0  0
    7.1540   -4.4640   26.2470 C   0  0  0  0  0  0  0  0  0  0  0  0
    8.4270   -3.8440   26.2860 C   0  0  0  0  0  0  0  0  0  0  0  0
    8.7400   -1.7630   22.1300 C   0  0  0  0  0  0  0  0  0  0  0  0
    7.4190   -1.2720   21.4950 C   0  0  1  0  0  0  0  0  0  0  0  0
    7.5060   -0.2900   20.3310 C   0  0  0  0  0  0  0  0  0  0  0  0
  1  2  1  0
  2  3  2  0
  2  4  1  0
  4  5  1  0
  5  6  1  0
  6  7  1  0
  7  8  1  0
  8  9  1  0
  9 10  1  0
 10 11  1  0
 11 12  1  0
 12 13  1  0
 13 14  1  0
  9 15  1  0
 14 15  1  0
  7 16  1  0
  4 17  1  0
 16 17  1  0
 17 18  1  6
M  END
