JOH-UNI-27ac80fd-5
     RDKit          3D

 18 19  0  0  0  0  0  0  0  0999 V2000
    6.6680   -1.8980   18.6670 C   0  0  0  0  0  0  0  0  0  0  0  0
    6.2310   -2.7590   19.8470 C   0  0  0  0  0  0  0  0  0  0  0  0
    5.4630   -3.7150   19.6660 O   0  0  0  0  0  0  0  0  0  0  0  0
    6.7550   -2.4080   21.1020 N   0  0  0  0  0  0  0  0  0  0  0  0
    6.2920   -3.1630   22.2460 C   0  0  0  0  0  0  0  0  0  0  0  0
    7.4760   -3.5350   23.1380 C   0  0  0  0  0  0  0  0  0  0  0  0
    8.3660   -2.4400   23.5480 N   0  0  0  0  0  0  0  0  0  0  0  0
    9.4990   -2.9900   24.3320 C   0  0  0  0  0  0  0  0  0  0  0  0
    9.1860   -4.1180   25.0790 N   0  0  0  0  0  0  0  0  0  0  0  0
    9.3840   -5.4470   24.7240 C   0  0  0  0  0  0  0  0  0  0  0  0
    8.4570   -5.8710   23.7740 C   0  0  0  0  0  0  0  0  0  0  0  0
    7.1580   -5.6200   24.1630 C   0  0  0  0  0  0  0  0  0  0  0  0
    7.0050   -5.6930   25.5680 O   0  0  0  0  0  0  0  0  0  0  0  0
    7.1050   -4.4430   26.2510 C   0  0  0  0  0  0  0  0  0  0  0  0
    8.3950   -3.8770   26.3180 C   0  0  0  0  0  0  0  0  0  0  0  0
    8.7300   -1.4680   22.4590 C   0  0  1  0  0  0  0  0  0  0  0  0
    9.9990   -1.9620   21.7810 C   0  0  0  0  0  0  0  0  0  0  0  0
    7.5830   -1.2310   21.4080 C   0  0  0  0  0  0  0  0  0  0  0  0
  1  2  1  0
  2  3  2  0
  2  4  1  0
  4  5  1  0
  5  6  1  0
  6  7  1  0
  7  8  1  0
  8  9  1  0
  9 10  1  0
 10 11  1  0
 11 12  1  0
 12 13  1  0
 13 14  1  0
  9 15  1  0
 14 15  1  0
  7 16  1  0
 16 17  1  6
  4 18  1  0
 16 18  1  0
M  END
