JOH-UNI-522b0723-7-acrylamide
     RDKit          3D

 27 29  0  0  0  0  0  0  0  0999 V2000
    7.2160   -2.7290   18.8030 C   0  0  0  0  0  0  0  0  0  0  0  0
    7.1640   -1.8390   20.0760 C   0  0  0  0  0  0  0  0  0  0  0  0
    5.9920   -2.5610   20.6850 C   0  0  0  0  0  0  0  0  0  0  0  0
    4.9690   -3.2170   21.3250 O   0  0  0  0  0  0  0  0  0  0  0  0
    6.9790   -2.3720   21.9110 C   0  0  0  0  0  0  0  0  0  0  0  0
    7.4320   -3.4300   22.4830 N   0  0  0  0  0  0  0  0  0  0  0  0
    7.9710   -2.4620   23.1560 C   0  0  0  0  0  0  0  0  0  0  0  0
    8.5340   -3.2640   23.9960 C   0  0  0  0  0  0  0  0  0  0  0  0
    9.2960   -3.5620   25.0880 N   0  0  0  0  0  0  0  0  0  0  0  0
    9.9420   -4.8090   24.7520 C   0  0  0  0  0  0  0  0  0  0  0  0
    8.8610   -5.6480   24.0520 C   0  0  0  0  0  0  0  0  0  0  0  0
    7.4730   -5.4550   24.5390 N   0  0  0  0  0  0  0  0  0  0  0  0
    7.3320   -4.7880   25.8890 C   0  0  1  0  0  0  0  0  0  0  0  0
    7.1430   -5.8450   26.9450 C   0  0  0  0  0  0  0  0  0  0  0  0
    8.5050   -3.8240   26.2960 C   0  0  2  0  0  0  0  0  0  0  0  0
    8.0060   -2.4920   26.8890 C   0  0  0  0  0  0  0  0  0  0  0  0
    8.5570   -1.8490   23.9380 C   0  0  0  0  0  0  0  0  0  0  0  0
    7.6330   -1.2850   22.6980 C   0  0  0  0  0  0  0  0  0  0  0  0
    7.5620    0.1040   22.5420 C   0  0  0  0  0  0  0  0  0  0  0  0
    6.7000    0.5330   21.7780 O   0  0  0  0  0  0  0  0  0  0  0  0
    8.4610    0.8740   23.2540 N   0  0  0  0  0  0  0  0  0  0  0  0
    8.3150    2.2290   23.6140 C   0  0  0  0  0  0  0  0  0  0  0  0
    7.0620    2.6110   24.0940 C   0  0  0  0  0  0  0  0  0  0  0  0
    6.8190    3.9250   24.4720 C   0  0  0  0  0  0  0  0  0  0  0  0
    7.8330    4.8840   24.3760 C   0  0  0  0  0  0  0  0  0  0  0  0
    9.0880    4.5100   23.8990 C   0  0  0  0  0  0  0  0  0  0  0  0
    9.3280    3.1870   23.5200 C   0  0  0  0  0  0  0  0  0  0  0  0
  1  2  1  0
  2  3  1  0
  3  4  2  0
  3  5  1  0
  5  6  2  0
  6  7  1  0
  7  8  2  0
  8  9  1  0
  9 10  1  0
 10 11  1  0
 11 12  1  0
 12 13  1  0
 13 14  1  1
  9 15  1  0
 13 15  1  0
 15 16  1  6
  8 17  1  0
  5 18  1  0
 17 18  2  0
 18 19  1  0
 19 20  2  0
 19 21  1  0
 21 22  1  0
 22 23  2  0
 23 24  1  0
 24 25  2  0
 25 26  1  0
 22 27  1  0
 26 27  2  0
M  END
