JOH-UNI-522b0723-1-acrylamide
     RDKit          3D

 17 18  0  0  0  0  0  0  0  0999 V2000
    7.3210   -2.9180   18.8670 C   0  0  0  0  0  0  0  0  0  0  0  0
    6.9440   -1.8670   19.9780 C   0  0  0  0  0  0  0  0  0  0  0  0
    6.3430   -2.6080   21.2020 C   0  0  0  0  0  0  0  0  0  0  0  0
    5.0700   -3.2860   21.1560 O   0  0  0  0  0  0  0  0  0  0  0  0
    7.3740   -2.5670   22.3870 C   0  0  0  0  0  0  0  0  0  0  0  0
    8.5480   -1.5090   23.0730 C   0  0  0  0  0  0  0  0  0  0  0  0
    9.5530   -1.5580   24.2700 C   0  0  0  0  0  0  0  0  0  0  0  0
    9.0480   -2.7770   24.4170 C   0  0  0  0  0  0  0  0  0  0  0  0
    9.2590   -3.8360   25.2970 N   0  0  0  0  0  0  0  0  0  0  0  0
    9.5880   -5.1480   24.7550 C   0  0  0  0  0  0  0  0  0  0  0  0
    8.4220   -5.5940   24.1440 C   0  0  0  0  0  0  0  0  0  0  0  0
    7.5330   -5.8010   25.0140 O   0  0  0  0  0  0  0  0  0  0  0  0
    7.1620   -4.7100   25.8710 C   0  0  0  0  0  0  0  0  0  0  0  0
    8.3190   -3.9370   26.3930 C   0  0  2  0  0  0  0  0  0  0  0  0
    8.0790   -2.6890   26.9780 C   0  0  0  0  0  0  0  0  0  0  0  0
    8.2120   -2.5250   23.2940 C   0  0  0  0  0  0  0  0  0  0  0  0
    7.9390   -1.4260   22.3020 N   0  0  0  0  0  0  0  0  0  0  0  0
  1  2  1  0
  2  3  1  0
  3  4  2  0
  3  5  1  0
  5  6  2  0
  6  7  1  0
  7  8  2  0
  8  9  1  0
  9 10  1  0
 10 11  1  0
 11 12  1  0
 12 13  1  0
  9 14  1  0
 13 14  1  0
 14 15  1  6
  8 16  1  0
  5 17  1  0
 16 17  2  0
M  END
