JOH-UNI-27ac80fd-27-acrylamide
     RDKit          3D

 17 18  0  0  0  0  0  0  0  0999 V2000
    7.9350   -3.2650   19.1810 C   0  0  0  0  0  0  0  0  0  0  0  0
    6.7500   -2.3850   18.9790 C   0  0  0  0  0  0  0  0  0  0  0  0
    5.9220   -2.6350   20.1790 C   0  0  0  0  0  0  0  0  0  0  0  0
    4.8490   -3.1750   20.0540 O   0  0  0  0  0  0  0  0  0  0  0  0
    6.4900   -2.2830   21.3810 N   0  0  0  0  0  0  0  0  0  0  0  0
    6.2850   -3.1290   22.5490 C   0  0  0  0  0  0  0  0  0  0  0  0
    7.5170   -3.4850   23.1190 C   0  0  0  0  0  0  0  0  0  0  0  0
    8.4230   -2.5220   23.3550 N   0  0  0  0  0  0  0  0  0  0  0  0
    9.6380   -2.8830   24.1600 C   0  0  0  0  0  0  0  0  0  0  0  0
    9.2410   -3.9340   25.2000 C   0  0  0  0  0  0  0  0  0  0  0  0
    9.8870   -5.2680   25.4110 C   0  0  0  0  0  0  0  0  0  0  0  0
    9.2790   -6.0770   26.4960 C   0  0  0  0  0  0  0  0  0  0  0  0
    8.1310   -5.2820   27.1040 C   0  0  0  0  0  0  0  0  0  0  0  0
    7.0020   -5.8540   28.5360 Br  0  0  0  0  0  0  0  0  0  0  0  0
    7.9080   -3.7460   26.3660 S   0  0  0  0  0  0  0  0  0  0  0  0
    8.6540   -1.7520   22.2490 C   0  0  0  0  0  0  0  0  0  0  0  0
    7.5870   -1.2920   21.4080 C   0  0  0  0  0  0  0  0  0  0  0  0
  1  2  1  0
  2  3  1  0
  3  4  2  0
  3  5  1  0
  5  6  1  0
  6  7  1  0
  7  8  1  0
  8  9  1  0
  9 10  1  0
 10 11  2  0
 11 12  1  0
 12 13  2  0
 13 14  1  0
 10 15  1  0
 13 15  1  0
  8 16  1  0
  5 17  1  0
 16 17  1  0
M  END
