JOH-UNI-27ac80fd-39-vinylsulfonamide
     RDKit          3D

 22 23  0  0  0  0  0  0  0  0999 V2000
    8.2040   -3.2650   18.8640 C   0  0  0  0  0  0  0  0  0  0  0  0
    6.7310   -3.0610   18.7770 C   0  0  0  0  0  0  0  0  0  0  0  0
    5.7530   -3.4350   20.1450 S   0  0  0  0  0  0  0  0  0  0  0  0
    4.4970   -3.0810   19.6090 O   0  0  0  0  0  0  0  0  0  0  0  0
    5.9720   -4.7610   20.6410 O   0  0  0  0  0  0  0  0  0  0  0  0
    6.1810   -2.2840   21.3110 N   0  0  0  0  0  0  0  0  0  0  0  0
    7.3790   -1.4440   21.1010 C   0  0  0  0  0  0  0  0  0  0  0  0
    8.4970   -1.7260   22.1230 C   0  0  0  0  0  0  0  0  0  0  0  0
    7.9450   -2.1510   23.4190 N   0  0  0  0  0  0  0  0  0  0  0  0
    8.9770   -2.4760   24.4020 C   0  0  0  0  0  0  0  0  0  0  0  0
    8.6100   -3.6510   25.2930 C   0  0  0  0  0  0  0  0  0  0  0  0
    7.6330   -3.4250   26.7190 S   0  0  0  0  0  0  0  0  0  0  0  0
    7.7300   -5.0440   27.1000 C   0  0  0  0  0  0  0  0  0  0  0  0
    6.9080   -5.8210   28.6250 Br  0  0  0  0  0  0  0  0  0  0  0  0
    8.4680   -5.7300   26.1670 C   0  0  0  0  0  0  0  0  0  0  0  0
    8.9580   -4.9780   25.1280 C   0  0  0  0  0  0  0  0  0  0  0  0
    9.6770   -5.4980   24.0950 C   0  0  0  0  0  0  0  0  0  0  0  0
    8.8370   -5.7310   23.0050 C   0  0  0  0  0  0  0  0  0  0  0  0
    8.2250   -6.7830   23.0590 O   0  0  0  0  0  0  0  0  0  0  0  0
    6.9140   -6.6550   22.5260 C   0  0  0  0  0  0  0  0  0  0  0  0
    6.8950   -3.1820   23.3720 C   0  0  0  0  0  0  0  0  0  0  0  0
    5.8190   -2.6740   22.6700 C   0  0  0  0  0  0  0  0  0  0  0  0
  1  2  1  0
  3  2  1  0
  3  4  2  0
  3  5  2  0
  3  6  1  0
  6  7  1  0
  7  8  1  0
  8  9  1  0
  9 10  1  0
 10 11  1  0
 11 12  1  0
 12 13  1  0
 13 14  1  0
 13 15  2  0
 11 16  2  0
 15 16  1  0
 16 17  1  0
 17 18  1  0
 18 19  1  0
 19 20  1  0
  9 21  1  0
  6 22  1  0
 21 22  1  0
M  END
