JOH-UNI-27ac80fd-36-acrylamide
     RDKit          3D

 19 20  0  0  0  0  0  0  0  0999 V2000
    8.0180   -3.3410   19.2320 C   0  0  0  0  0  0  0  0  0  0  0  0
    6.8360   -2.4530   18.9860 C   0  0  0  0  0  0  0  0  0  0  0  0
    5.9350   -2.6880   20.1410 C   0  0  0  0  0  0  0  0  0  0  0  0
    4.8610   -3.2400   19.9700 O   0  0  0  0  0  0  0  0  0  0  0  0
    6.4120   -2.3310   21.3900 N   0  0  0  0  0  0  0  0  0  0  0  0
    6.1770   -3.1820   22.5600 C   0  0  0  0  0  0  0  0  0  0  0  0
    7.4830   -3.6690   23.2030 C   0  0  0  0  0  0  0  0  0  0  0  0
    8.4440   -2.5680   23.3350 N   0  0  0  0  0  0  0  0  0  0  0  0
    9.5960   -2.9150   24.1860 C   0  0  0  0  0  0  0  0  0  0  0  0
   10.6700   -3.2440   23.4390 F   0  0  0  0  0  0  0  0  0  0  0  0
    9.9640   -1.8000   24.8620 F   0  0  0  0  0  0  0  0  0  0  0  0
    9.2150   -3.9640   25.2150 C   0  0  0  0  0  0  0  0  0  0  0  0
    9.7990   -5.2190   25.3820 C   0  0  0  0  0  0  0  0  0  0  0  0
    9.2380   -5.9510   26.3980 C   0  0  0  0  0  0  0  0  0  0  0  0
    8.2000   -5.2830   27.0470 C   0  0  0  0  0  0  0  0  0  0  0  0
    7.1540   -5.9300   28.4930 Br  0  0  0  0  0  0  0  0  0  0  0  0
    7.9260   -3.7480   26.3960 S   0  0  0  0  0  0  0  0  0  0  0  0
    8.7490   -2.0590   22.0870 C   0  0  0  0  0  0  0  0  0  0  0  0
    7.6290   -1.4390   21.4730 C   0  0  0  0  0  0  0  0  0  0  0  0
  1  2  1  0
  2  3  1  0
  3  4  2  0
  3  5  1  0
  5  6  1  0
  6  7  1  0
  7  8  1  0
  8  9  1  0
  9 10  1  0
  9 11  1  0
  9 12  1  0
 12 13  2  0
 13 14  1  0
 14 15  2  0
 15 16  1  0
 12 17  1  0
 15 17  1  0
  8 18  1  0
  5 19  1  0
 18 19  1  0
M  END
