JOH-UNI-522b0723-10-vinylsulfonamide
     RDKit          3D

 26 28  0  0  0  0  0  0  0  0999 V2000
    6.7130   -5.3830   20.9500 C   0  0  0  0  0  0  0  0  0  0  0  0
    6.7600   -4.6580   22.3280 C   0  0  0  0  0  0  0  0  0  0  0  0
    5.8960   -3.1150   22.3100 S   0  0  0  0  0  0  0  0  0  0  0  0
    4.8670   -3.1610   21.3010 O   0  0  0  0  0  0  0  0  0  0  0  0
    5.5370   -2.8570   23.6880 O   0  0  0  0  0  0  0  0  0  0  0  0
    7.1260   -1.8820   21.8950 C   0  0  0  0  0  0  0  0  0  0  0  0
    6.2130   -1.2600   21.1550 N   0  0  0  0  0  0  0  0  0  0  0  0
    6.5970    0.0810   20.3940 C   0  0  0  0  0  0  0  0  0  0  0  0
    5.3340    0.3720   19.7580 C   0  0  0  0  0  0  0  0  0  0  0  0
    5.5170    1.5680   19.0510 N   0  0  0  0  0  0  0  0  0  0  0  0
    4.3000    2.2530   19.1150 C   0  0  0  0  0  0  0  0  0  0  0  0
    4.1890    3.5060   18.2930 C   0  0  0  0  0  0  0  0  0  0  0  0
    4.9740    3.4890   17.3900 O   0  0  0  0  0  0  0  0  0  0  0  0
    5.4740    2.2340   16.8930 C   0  0  0  0  0  0  0  0  0  0  0  0
    6.0610    1.3450   17.7460 C   0  0  0  0  0  0  0  0  0  0  0  0
    6.0720   -0.4570   20.5620 C   0  0  0  0  0  0  0  0  0  0  0  0
    7.4200   -0.8050   21.2650 C   0  0  0  0  0  0  0  0  0  0  0  0
    8.6480   -0.2040   21.2800 C   0  0  0  0  0  0  0  0  0  0  0  0
    8.6870    1.2340   21.1490 O   0  0  0  0  0  0  0  0  0  0  0  0
    9.6380   -1.0890   21.3960 N   0  0  0  0  0  0  0  0  0  0  0  0
   10.7790   -0.7790   22.2130 C   0  0  0  0  0  0  0  0  0  0  0  0
   10.4830    0.2700   23.1560 C   0  0  0  0  0  0  0  0  0  0  0  0
   11.5530    0.6640   24.0080 C   0  0  0  0  0  0  0  0  0  0  0  0
   12.8240    0.1710   24.0390 C   0  0  0  0  0  0  0  0  0  0  0  0
   12.8340   -0.8460   23.0120 C   0  0  0  0  0  0  0  0  0  0  0  0
   11.9820   -1.4600   22.0320 C   0  0  0  0  0  0  0  0  0  0  0  0
  1  2  1  0
  3  2  1  0
  3  4  2  0
  3  5  2  0
  3  6  1  0
  6  7  2  0
  7  8  1  0
  8  9  2  0
  9 10  1  0
 10 11  1  0
 11 12  1  0
 12 13  1  0
 13 14  1  0
 10 15  1  0
 14 15  1  0
  9 16  1  0
  6 17  1  0
 16 17  2  0
 17 18  1  0
 18 19  2  0
 18 20  1  0
 20 21  1  0
 21 22  2  0
 22 23  1  0
 23 24  2  0
 24 25  1  0
 21 26  1  0
 25 26  2  0
M  END
