JOH-UNI-522b0723-7-nitrile
     RDKit          3D

 25 27  0  0  0  0  0  0  0  0999 V2000
    7.7740   -3.0460   19.8690 C   0  0  0  0  0  0  0  0  0  0  0  0
    6.9600   -2.6580   18.9160 N   0  0  0  0  0  0  0  0  0  0  0  0
    8.3260   -1.9540   20.9960 C   0  0  0  0  0  0  0  0  0  0  0  0
    8.3440   -3.0100   21.8690 N   0  0  0  0  0  0  0  0  0  0  0  0
    8.6750   -3.1930   23.1960 C   0  0  0  0  0  0  0  0  0  0  0  0
    9.1730   -2.3250   24.3410 C   0  0  0  0  0  0  0  0  0  0  0  0
    9.0400   -3.5720   24.8400 N   0  0  0  0  0  0  0  0  0  0  0  0
    9.7050   -4.6900   24.1980 C   0  0  0  0  0  0  0  0  0  0  0  0
    8.7330   -5.8510   24.1610 C   0  0  0  0  0  0  0  0  0  0  0  0
    7.3440   -5.4010   24.3690 N   0  0  0  0  0  0  0  0  0  0  0  0
    7.1590   -4.7840   25.6890 C   0  0  1  0  0  0  0  0  0  0  0  0
    7.1090   -5.8030   26.6080 C   0  0  0  0  0  0  0  0  0  0  0  0
    8.3400   -3.9170   26.0780 C   0  0  2  0  0  0  0  0  0  0  0  0
    7.8720   -2.7720   26.7220 C   0  0  0  0  0  0  0  0  0  0  0  0
    9.1510   -1.2860   23.4450 C   0  0  0  0  0  0  0  0  0  0  0  0
    8.8130   -1.1060   22.0830 C   0  0  0  0  0  0  0  0  0  0  0  0
    9.0280    0.2330   21.7840 C   0  0  0  0  0  0  0  0  0  0  0  0
    8.1530    0.7750   21.1250 O   0  0  0  0  0  0  0  0  0  0  0  0
   10.1690    0.7920   22.2560 N   0  0  0  0  0  0  0  0  0  0  0  0
   10.1670    2.0080   22.8290 C   0  0  0  0  0  0  0  0  0  0  0  0
   11.3570    2.9330   22.8590 C   0  0  0  0  0  0  0  0  0  0  0  0
   11.2580    4.1480   23.4690 C   0  0  0  0  0  0  0  0  0  0  0  0
   10.0820    4.5650   24.0730 C   0  0  0  0  0  0  0  0  0  0  0  0
    8.9430    3.7440   24.0740 C   0  0  0  0  0  0  0  0  0  0  0  0
    8.9850    2.4740   23.4550 C   0  0  0  0  0  0  0  0  0  0  0  0
  1  2  2  3
  1  3  1  0
  3  4  2  0
  4  5  1  0
  5  6  2  0
  6  7  1  0
  7  8  1  0
  8  9  1  0
  9 10  1  0
 10 11  1  0
 11 12  1  1
  7 13  1  0
 11 13  1  0
 13 14  1  6
  6 15  1  0
  3 16  1  0
 15 16  2  0
 16 17  1  0
 17 18  2  0
 17 19  1  0
 19 20  1  0
 20 21  2  0
 21 22  1  0
 22 23  2  0
 23 24  1  0
 20 25  1  0
 24 25  2  0
M  END
