JOH-UNI-522b0723-9-acrylamide
     RDKit          3D

 27 29  0  0  0  0  0  0  0  0999 V2000
    6.7830   -3.3260   19.3960 C   0  0  0  0  0  0  0  0  0  0  0  0
    6.8030   -2.0820   20.3050 C   0  0  0  0  0  0  0  0  0  0  0  0
    6.1000   -2.3590   21.6510 C   0  0  0  0  0  0  0  0  0  0  0  0
    5.0920   -3.2710   21.0860 O   0  0  0  0  0  0  0  0  0  0  0  0
    7.3070   -1.3200   21.9170 C   0  0  0  0  0  0  0  0  0  0  0  0
    7.8700   -2.0930   22.8400 N   0  0  0  0  0  0  0  0  0  0  0  0
    7.5310   -3.2590   23.2980 C   0  0  0  0  0  0  0  0  0  0  0  0
    8.6620   -2.8710   24.0090 C   0  0  0  0  0  0  0  0  0  0  0  0
    9.2340   -3.6520   25.0100 N   0  0  0  0  0  0  0  0  0  0  0  0
    9.8720   -4.8650   24.5190 C   0  0  0  0  0  0  0  0  0  0  0  0
    8.8370   -5.7280   23.7890 C   0  0  0  0  0  0  0  0  0  0  0  0
    7.4540   -5.7390   24.2940 N   0  0  0  0  0  0  0  0  0  0  0  0
    6.4440   -5.7060   23.1840 C   0  0  0  0  0  0  0  0  0  0  0  0
    7.1520   -4.9580   25.5430 C   0  0  1  0  0  0  0  0  0  0  0  0
    6.6850   -5.8400   26.6920 C   0  0  0  0  0  0  0  0  0  0  0  0
    8.3310   -4.0730   26.0870 C   0  0  0  0  0  0  0  0  0  0  0  0
    9.1610   -1.5880   23.5900 C   0  0  0  0  0  0  0  0  0  0  0  0
    8.4760   -0.7210   22.4540 C   0  0  0  0  0  0  0  0  0  0  0  0
    9.0780    0.5240   22.1190 C   0  0  0  0  0  0  0  0  0  0  0  0
    8.5930    1.1670   21.1660 O   0  0  0  0  0  0  0  0  0  0  0  0
   10.1600    0.9370   22.8750 N   0  0  0  0  0  0  0  0  0  0  0  0
   10.7960    2.2000   22.8050 C   0  0  0  0  0  0  0  0  0  0  0  0
   12.1400    2.2660   22.7420 C   0  0  0  0  0  0  0  0  0  0  0  0
   12.8000    3.4950   22.6630 C   0  0  0  0  0  0  0  0  0  0  0  0
   12.3320    4.8490   22.6350 C   0  0  0  0  0  0  0  0  0  0  0  0
   10.9280    4.5930   22.7130 C   0  0  0  0  0  0  0  0  0  0  0  0
   10.1900    3.4020   22.7900 C   0  0  0  0  0  0  0  0  0  0  0  0
  1  2  1  0
  2  3  1  0
  3  4  2  0
  3  5  1  0
  5  6  2  0
  6  7  1  0
  7  8  2  0
  8  9  1  0
  9 10  1  0
 10 11  1  0
 11 12  1  0
 12 13  1  0
 12 14  1  0
 14 15  1  1
  9 16  1  0
 14 16  1  0
  8 17  1  0
  5 18  1  0
 17 18  2  0
 18 19  1  0
 19 20  2  0
 19 21  1  0
 21 22  1  0
 22 23  2  0
 23 24  1  0
 24 25  2  0
 25 26  1  0
 22 27  1  0
 26 27  2  0
M  END
