JOH-UNI-27ac80fd-11-acrylamide
     RDKit          3D

 19 20  0  0  0  0  0  0  0  0999 V2000
    8.0580   -3.1210   18.8400 C   0  0  0  0  0  0  0  0  0  0  0  0
    6.5490   -3.0440   19.0340 C   0  0  0  0  0  0  0  0  0  0  0  0
    6.0100   -3.5980   20.2850 C   0  0  0  0  0  0  0  0  0  0  0  0
    5.2740   -4.5850   20.2340 O   0  0  0  0  0  0  0  0  0  0  0  0
    6.4170   -2.8720   21.4000 N   0  0  0  0  0  0  0  0  0  0  0  0
    7.2660   -1.6850   21.3100 C   0  0  0  0  0  0  0  0  0  0  0  0
    8.4590   -1.8370   22.2070 C   0  0  0  0  0  0  0  0  0  0  0  0
    8.0980   -2.1510   23.6010 N   0  0  0  0  0  0  0  0  0  0  0  0
    9.2770   -2.6850   24.2990 C   0  0  0  0  0  0  0  0  0  0  0  0
    9.0860   -3.9550   24.7970 N   0  0  0  0  0  0  0  0  0  0  0  0
    9.5550   -5.2260   24.1940 C   0  0  0  0  0  0  0  0  0  0  0  0
    8.5050   -5.7440   23.4690 C   0  0  0  0  0  0  0  0  0  0  0  0
    7.2460   -5.5820   24.0250 C   0  0  0  0  0  0  0  0  0  0  0  0
    7.1400   -5.7930   25.2400 O   0  0  0  0  0  0  0  0  0  0  0  0
    7.1740   -4.6660   26.1130 C   0  0  0  0  0  0  0  0  0  0  0  0
    8.4320   -4.0530   26.1240 C   0  0  0  0  0  0  0  0  0  0  0  0
    6.8260   -2.9000   23.8230 C   0  0  0  0  0  0  0  0  0  0  0  0
    5.7660   -2.9690   22.6910 C   0  0  2  0  0  0  0  0  0  0  0  0
    4.7100   -4.0870   22.7800 C   0  0  0  0  0  0  0  0  0  0  0  0
  1  2  1  0
  2  3  1  0
  3  4  2  0
  3  5  1  0
  5  6  1  0
  6  7  1  0
  7  8  1  0
  8  9  1  0
  9 10  1  0
 10 11  1  0
 11 12  1  0
 12 13  1  0
 13 14  1  0
 14 15  1  0
 10 16  1  0
 15 16  1  0
  8 17  1  0
  5 18  1  0
 17 18  1  0
 18 19  1  6
M  END
