JOH-UNI-27ac80fd-35-nitrile
     RDKit          3D

 18 19  0  0  0  0  0  0  0  0999 V2000
    6.9070   -3.3820   19.8520 C   0  0  0  0  0  0  0  0  0  0  0  0
    5.7750   -3.6940   19.3710 N   0  0  0  0  0  0  0  0  0  0  0  0
    7.0200   -2.8140   21.0790 N   0  0  0  0  0  0  0  0  0  0  0  0
    6.6310   -3.5060   22.2690 C   0  0  0  0  0  0  0  0  0  0  0  0
    7.8020   -3.8940   22.9160 C   0  0  0  0  0  0  0  0  0  0  0  0
    8.4080   -2.6440   23.4550 N   0  0  0  0  0  0  0  0  0  0  0  0
    9.5530   -2.9710   24.3220 C   0  0  0  0  0  0  0  0  0  0  0  0
   10.6260   -3.3750   23.5990 F   0  0  0  0  0  0  0  0  0  0  0  0
    9.9520   -1.8340   24.9580 F   0  0  0  0  0  0  0  0  0  0  0  0
    9.1500   -3.8930   25.2680 C   0  0  0  0  0  0  0  0  0  0  0  0
    9.8050   -5.2460   25.3760 C   0  0  0  0  0  0  0  0  0  0  0  0
    9.2130   -6.0760   26.4530 C   0  0  0  0  0  0  0  0  0  0  0  0
    8.0950   -5.3400   27.1610 C   0  0  0  0  0  0  0  0  0  0  0  0
    7.0280   -5.9810   28.5930 Br  0  0  0  0  0  0  0  0  0  0  0  0
    7.8470   -3.6960   26.4770 S   0  0  0  0  0  0  0  0  0  0  0  0
    8.7340   -1.7460   22.4990 C   0  0  1  0  0  0  0  0  0  0  0  0
   10.1240   -1.7870   21.8630 C   0  0  0  0  0  0  0  0  0  0  0  0
    7.7030   -1.6430   21.3170 C   0  0  0  0  0  0  0  0  0  0  0  0
  1  2  2  3
  1  3  1  0
  3  4  1  0
  4  5  1  0
  5  6  1  0
  6  7  1  0
  7  8  1  0
  7  9  1  0
  7 10  1  0
 10 11  2  0
 11 12  1  0
 12 13  2  0
 13 14  1  0
 10 15  1  0
 13 15  1  0
  6 16  1  0
 16 17  1  6
  3 18  1  0
 16 18  1  0
M  END
