JOH-UNI-27ac80fd-13-acrylamide
     RDKit          3D

 19 20  0  0  0  0  0  0  0  0999 V2000
    8.0060   -3.3230   19.2240 C   0  0  0  0  0  0  0  0  0  0  0  0
    6.8120   -2.4670   18.9260 C   0  0  0  0  0  0  0  0  0  0  0  0
    5.9150   -2.6640   20.0810 C   0  0  0  0  0  0  0  0  0  0  0  0
    4.8660   -3.2680   19.9370 O   0  0  0  0  0  0  0  0  0  0  0  0
    6.3820   -2.1990   21.2940 N   0  0  0  0  0  0  0  0  0  0  0  0
    7.5200   -1.2620   21.4150 C   0  0  0  0  0  0  0  0  0  0  0  0
    8.7550   -1.8250   22.1590 C   0  0  0  0  0  0  0  0  0  0  0  0
    8.4190   -2.3310   23.5020 N   0  0  0  0  0  0  0  0  0  0  0  0
    9.5860   -2.9150   24.2030 C   0  0  0  0  0  0  0  0  0  0  0  0
    9.3060   -4.0530   25.1210 N   0  0  0  0  0  0  0  0  0  0  0  0
    9.4610   -5.3880   24.7010 C   0  0  0  0  0  0  0  0  0  0  0  0
    8.5340   -5.8310   23.7420 C   0  0  0  0  0  0  0  0  0  0  0  0
    7.2200   -5.6160   24.0980 C   0  0  0  0  0  0  0  0  0  0  0  0
    6.9090   -5.6610   25.4310 O   0  0  0  0  0  0  0  0  0  0  0  0
    7.2460   -4.5420   26.2460 C   0  0  0  0  0  0  0  0  0  0  0  0
    8.4900   -3.8830   26.2060 C   0  0  0  0  0  0  0  0  0  0  0  0
    7.1730   -3.0990   23.5330 C   0  0  1  0  0  0  0  0  0  0  0  0
    5.9470   -2.5150   23.8800 C   0  0  0  0  0  0  0  0  0  0  0  0
    6.0980   -3.0320   22.4650 C   0  0  0  0  0  0  0  0  0  0  0  0
  1  2  1  0
  2  3  1  0
  3  4  2  0
  3  5  1  0
  5  6  1  0
  6  7  1  0
  7  8  1  0
  8  9  1  0
  9 10  1  0
 10 11  1  0
 11 12  1  0
 12 13  1  0
 13 14  1  0
 14 15  1  0
 10 16  1  0
 15 16  1  0
  8 17  1  0
 17 18  1  1
  5 19  1  0
 17 19  1  0
M  END
