JOH-MSK-35a8745a-1
     RDKit          3D

 17 18  0  0  0  0  0  0  0  0999 V2000
   13.2800   -2.0510   20.9750 C   0  0  0  0  0  0  0  0  0  0  0  0
   13.6070   -1.7210   22.0940 O   0  0  0  0  0  0  0  0  0  0  0  0
   12.6430   -1.0360   22.7080 C   0  0  0  0  0  0  0  0  0  0  0  0
   11.4440   -1.6620   23.4440 C   0  0  0  0  0  0  0  0  0  0  0  0
   10.4260   -0.7350   24.0690 C   0  0  0  0  0  0  0  0  0  0  0  0
   10.7050    0.7140   23.8860 C   0  0  0  0  0  0  0  0  0  0  0  0
    9.9410    1.7410   24.3370 N   0  0  0  0  0  0  0  0  0  0  0  0
   10.5330    2.8740   23.9590 C   0  0  0  0  0  0  0  0  0  0  0  0
   11.6720    2.6310   23.2650 C   0  0  0  0  0  0  0  0  0  0  0  0
   12.5210    3.6070   22.7130 C   0  0  0  0  0  0  0  0  0  0  0  0
   12.2890    4.8860   23.2160 C   0  0  0  0  0  0  0  0  0  0  0  0
   11.2260    5.6330   22.6570 N   0  0  0  0  0  0  0  0  0  0  0  0
   10.1920    6.2100   23.3630 C   0  0  0  0  0  0  0  0  0  0  0  0
    9.1060    6.6410   22.5930 C   0  0  0  0  0  0  0  0  0  0  0  0
   10.1840    6.3520   24.5860 O   0  0  0  0  0  0  0  0  0  0  0  0
   11.8260    1.2200   23.1990 C   0  0  0  0  0  0  0  0  0  0  0  0
   12.7770    0.3700   22.6340 C   0  0  0  0  0  0  0  0  0  0  0  0
  1  2  1  0
  2  3  1  0
  3  4  2  0
  4  5  1  0
  5  6  2  0
  6  7  1  0
  7  8  1  0
  8  9  2  0
  9 10  1  0
 10 11  1  0
 11 12  1  0
 12 13  1  0
 13 14  1  0
 13 15  2  0
  6 16  1  0
  9 16  1  0
  3 17  1  0
 16 17  2  0
M  END
