JOH-UNI-522b0723-6-chloroacetamide
     RDKit          3D

 18 19  0  0  0  0  0  0  0  0999 V2000
    7.7430   -2.7010   18.8100 C   0  0  0  0  0  0  0  0  0  0  0  0
    7.0920   -2.9980   20.0950 C   0  0  0  0  0  0  0  0  0  0  0  0
    6.0350   -3.7330   19.7920 O   0  0  0  0  0  0  0  0  0  0  0  0
    7.6440   -2.7480   21.5490 C   0  0  0  0  0  0  0  0  0  0  0  0
    7.3290   -1.6280   22.5840 C   0  0  0  0  0  0  0  0  0  0  0  0
    7.9840   -1.7870   24.0090 C   0  0  0  0  0  0  0  0  0  0  0  0
    8.8610   -3.0390   24.2030 C   0  0  0  0  0  0  0  0  0  0  0  0
    9.4750   -3.4570   25.3750 N   0  0  0  0  0  0  0  0  0  0  0  0
   10.3570   -4.5690   25.0730 C   0  0  0  0  0  0  0  0  0  0  0  0
    9.4100   -5.5170   24.8390 C   0  0  0  0  0  0  0  0  0  0  0  0
    8.3310   -5.8440   24.7940 N   0  0  0  0  0  0  0  0  0  0  0  0
    7.5960   -5.7910   23.5130 C   0  0  0  0  0  0  0  0  0  0  0  0
    7.6870   -5.0690   25.8720 C   0  0  2  0  0  0  0  0  0  0  0  0
    6.3250   -4.7320   25.4120 C   0  0  0  0  0  0  0  0  0  0  0  0
    8.4980   -4.0030   26.3940 C   0  0  1  0  0  0  0  0  0  0  0  0
    9.2330   -4.5240   27.4740 C   0  0  0  0  0  0  0  0  0  0  0  0
    9.0520   -3.8660   23.1220 C   0  0  0  0  0  0  0  0  0  0  0  0
    8.5490   -3.8170   21.8680 N   0  0  0  0  0  0  0  0  0  0  0  0
  1  2  1  0
  2  3  2  0
  2  4  1  0
  4  5  2  0
  5  6  1  0
  6  7  2  0
  7  8  1  0
  8  9  1  0
  9 10  1  0
 10 11  1  0
 11 12  1  0
 11 13  1  0
 13 14  1  6
  8 15  1  0
 13 15  1  0
 15 16  1  1
  7 17  1  0
  4 18  1  0
 17 18  2  0
M  END
