JOH-UNI-27ac80fd-32-chloroacetamide
     RDKit          3D

 18 20  0  0  0  0  0  0  0  0999 V2000
    7.2870   -2.9510   18.7530 C   0  0  0  0  0  0  0  0  0  0  0  0
    6.3350   -3.2610   19.8630 C   0  0  0  0  0  0  0  0  0  0  0  0
    5.3850   -4.0390   19.7030 O   0  0  0  0  0  0  0  0  0  0  0  0
    6.6030   -2.6530   21.0930 N   0  0  0  0  0  0  0  0  0  0  0  0
    7.5670   -1.5410   21.1780 C   0  0  0  0  0  0  0  0  0  0  0  0
    8.7940   -1.9220   22.0360 C   0  0  0  0  0  0  0  0  0  0  0  0
    8.3960   -2.6650   23.2440 N   0  0  0  0  0  0  0  0  0  0  0  0
    9.5070   -3.0490   24.1230 C   0  0  0  0  0  0  0  0  0  0  0  0
    9.1170   -4.0130   25.2110 C   0  0  0  0  0  0  0  0  0  0  0  0
    9.7520   -5.3590   25.4260 C   0  0  0  0  0  0  0  0  0  0  0  0
    9.1670   -6.0060   26.4870 C   0  0  0  0  0  0  0  0  0  0  0  0
    8.1510   -5.3300   27.1210 C   0  0  0  0  0  0  0  0  0  0  0  0
    7.1130   -5.9240   28.5950 Br  0  0  0  0  0  0  0  0  0  0  0  0
    7.8690   -3.7480   26.3820 S   0  0  0  0  0  0  0  0  0  0  0  0
   10.8820   -2.8240   23.7290 C   0  0  0  0  0  0  0  0  0  0  0  0
   10.4270   -1.9470   24.4550 C   0  0  0  0  0  0  0  0  0  0  0  0
    7.4340   -3.7450   22.9650 C   0  0  0  0  0  0  0  0  0  0  0  0
    6.2620   -3.3430   22.3280 C   0  0  0  0  0  0  0  0  0  0  0  0
  1  2  1  0
  2  3  2  0
  2  4  1  0
  4  5  1  0
  5  6  1  0
  6  7  1  0
  7  8  1  0
  8  9  1  0
  9 10  2  0
 10 11  1  0
 11 12  2  0
 12 13  1  0
  9 14  1  0
 12 14  1  0
  8 15  1  0
  8 16  1  0
 15 16  1  0
  7 17  1  0
  4 18  1  0
 17 18  1  0
M  END
