JOH-UNI-9dc98897-8-chloroacetamide
     RDKit          3D

 19 20  0  0  0  0  0  0  0  0999 V2000
    7.4270   -3.1810   19.2760 C   0  0  0  0  0  0  0  0  0  0  0  0
    6.3150   -3.4700   20.1990 C   0  0  0  0  0  0  0  0  0  0  0  0
    5.2910   -3.9950   19.7600 O   0  0  0  0  0  0  0  0  0  0  0  0
    6.6480   -3.2020   21.6260 C   0  0  0  0  0  0  0  0  0  0  0  0
    6.2560   -2.0660   22.3330 C   0  0  0  0  0  0  0  0  0  0  0  0
    6.6770   -1.9220   23.6730 C   0  0  0  0  0  0  0  0  0  0  0  0
    6.2950   -0.7770   24.4020 C   0  0  0  0  0  0  0  0  0  0  0  0
    5.0530   -0.8630   24.9560 F   0  0  0  0  0  0  0  0  0  0  0  0
    6.2520    0.3510   23.6360 F   0  0  0  0  0  0  0  0  0  0  0  0
    7.4810   -2.9440   24.2380 C   0  0  0  0  0  0  0  0  0  0  0  0
    8.0230   -3.0250   25.5140 N   0  0  0  0  0  0  0  0  0  0  0  0
    9.4340   -3.4370   25.5850 C   0  0  0  0  0  0  0  0  0  0  0  0
    9.6580   -4.5450   26.6050 C   0  0  0  0  0  0  0  0  0  0  0  0
    8.9160   -5.8230   26.2320 C   0  0  0  0  0  0  0  0  0  0  0  0
    7.5470   -5.9010   26.6120 O   0  0  0  0  0  0  0  0  0  0  0  0
    6.6790   -4.8420   26.2300 C   0  0  0  0  0  0  0  0  0  0  0  0
    7.1050   -3.5490   26.5530 C   0  0  0  0  0  0  0  0  0  0  0  0
    7.7900   -4.0270   23.4210 C   0  0  0  0  0  0  0  0  0  0  0  0
    7.4000   -4.1800   22.1590 N   0  0  0  0  0  0  0  0  0  0  0  0
  1  2  1  0
  2  3  2  0
  2  4  1  0
  4  5  2  0
  5  6  1  0
  6  7  1  0
  7  8  1  0
  7  9  1  0
  6 10  2  0
 10 11  1  0
 11 12  1  0
 12 13  1  0
 13 14  1  0
 14 15  1  0
 15 16  1  0
 11 17  1  0
 16 17  1  0
 10 18  1  0
  4 19  1  0
 18 19  2  0
M  END
