JOH-UNI-27ac80fd-21-acrylamide
     RDKit          3D

 20 21  0  0  0  0  0  0  0  0999 V2000
    8.0220   -3.4730   19.6500 C   0  0  0  0  0  0  0  0  0  0  0  0
    6.9430   -2.7100   18.9730 C   0  0  0  0  0  0  0  0  0  0  0  0
    5.9310   -3.0500   19.9870 C   0  0  0  0  0  0  0  0  0  0  0  0
    5.0300   -3.8520   19.7270 O   0  0  0  0  0  0  0  0  0  0  0  0
    6.1900   -2.4820   21.2300 N   0  0  0  0  0  0  0  0  0  0  0  0
    7.2020   -1.4100   21.4080 C   0  0  0  0  0  0  0  0  0  0  0  0
    8.4290   -1.8070   22.2700 C   0  0  0  0  0  0  0  0  0  0  0  0
    8.0770   -2.6810   23.4070 N   0  0  0  0  0  0  0  0  0  0  0  0
    9.2240   -3.0330   24.2710 C   0  0  0  0  0  0  0  0  0  0  0  0
    8.8880   -4.0230   25.3250 N   0  0  0  0  0  0  0  0  0  0  0  0
    9.5090   -5.2970   25.3310 C   0  0  0  0  0  0  0  0  0  0  0  0
    9.2860   -6.1070   26.4540 C   0  0  0  0  0  0  0  0  0  0  0  0
    8.0190   -6.4720   26.7920 O   0  0  0  0  0  0  0  0  0  0  0  0
    7.4730   -5.7310   27.8470 C   0  0  0  0  0  0  0  0  0  0  0  0
    8.1160   -4.5180   27.9240 C   0  0  0  0  0  0  0  0  0  0  0  0
    7.8280   -3.5520   26.5600 S   0  0  0  0  0  0  0  0  0  0  0  0
    8.1720   -2.1940   26.9010 O   0  0  0  0  0  0  0  0  0  0  0  0
    6.5050   -3.8960   26.0870 O   0  0  0  0  0  0  0  0  0  0  0  0
    7.3400   -3.7610   22.9590 C   0  0  0  0  0  0  0  0  0  0  0  0
    6.0950   -3.3870   22.4150 C   0  0  0  0  0  0  0  0  0  0  0  0
  1  2  1  0
  2  3  1  0
  3  4  2  0
  3  5  1  0
  5  6  1  0
  6  7  1  0
  7  8  1  0
  8  9  1  0
  9 10  1  0
 10 11  1  0
 11 12  1  0
 12 13  1  0
 13 14  1  0
 14 15  1  0
 16 10  1  0
 15 16  1  0
 16 17  2  0
 16 18  2  0
  8 19  1  0
  5 20  1  0
 19 20  1  0
M  END
