JOH-UNI-27ac80fd-41-chloroacetamide
     RDKit          3D

 22 24  0  0  0  0  0  0  0  0999 V2000
    7.1800   -2.9410   18.7000 C   0  0  0  0  0  0  0  0  0  0  0  0
    6.2510   -3.1880   19.8390 C   0  0  0  0  0  0  0  0  0  0  0  0
    5.4030   -4.0940   19.7280 O   0  0  0  0  0  0  0  0  0  0  0  0
    6.4010   -2.4040   20.9680 N   0  0  0  0  0  0  0  0  0  0  0  0
    7.2230   -1.1950   20.9400 C   0  0  0  0  0  0  0  0  0  0  0  0
    8.3900   -1.3420   21.9000 C   0  0  0  0  0  0  0  0  0  0  0  0
    8.1140   -1.9840   23.0360 N   0  0  0  0  0  0  0  0  0  0  0  0
    9.1050   -2.1810   23.8770 C   0  0  0  0  0  0  0  0  0  0  0  0
    8.9770   -3.1740   24.7710 C   0  0  0  0  0  0  0  0  0  0  0  0
    9.7800   -4.6130   24.5620 S   0  0  0  0  0  0  0  0  0  0  0  0
    9.0740   -5.1120   25.9380 C   0  0  0  0  0  0  0  0  0  0  0  0
    9.4220   -6.6970   26.5230 Br  0  0  0  0  0  0  0  0  0  0  0  0
    8.2450   -4.2880   26.5920 C   0  0  0  0  0  0  0  0  0  0  0  0
    8.0680   -3.0740   26.0350 C   0  0  0  0  0  0  0  0  0  0  0  0
    7.2290   -2.1290   26.6230 C   0  0  0  0  0  0  0  0  0  0  0  0
    6.4240   -2.5330   27.7010 C   0  0  0  0  0  0  0  0  0  0  0  0
    6.2220   -1.7170   28.5890 O   0  0  0  0  0  0  0  0  0  0  0  0
    7.4170   -1.2820   29.2360 C   0  0  0  0  0  0  0  0  0  0  0  0
    9.9330   -1.2440   24.2640 C   0  0  0  0  0  0  0  0  0  0  0  0
   10.5300   -1.9000   23.3240 C   0  0  0  0  0  0  0  0  0  0  0  0
    7.2960   -3.1340   22.9020 C   0  0  0  0  0  0  0  0  0  0  0  0
    6.1140   -2.8700   22.2340 C   0  0  0  0  0  0  0  0  0  0  0  0
  1  2  1  0
  2  3  2  0
  2  4  1  0
  4  5  1  0
  5  6  1  0
  6  7  1  0
  7  8  1  0
  8  9  1  0
  9 10  1  0
 10 11  1  0
 11 12  1  0
 11 13  2  0
  9 14  2  0
 13 14  1  0
 14 15  1  0
 15 16  1  0
 16 17  1  0
 17 18  1  0
  8 19  1  0
  8 20  1  0
 19 20  1  0
  7 21  1  0
  4 22  1  0
 21 22  1  0
M  END
