JOH-UNI-522b0723-11-vinylsulfonamide
     RDKit          3D

 27 29  0  0  0  0  0  0  0  0999 V2000
    7.9250   -3.9660   19.9370 C   0  0  0  0  0  0  0  0  0  0  0  0
    7.1290   -3.3260   20.9670 C   0  0  0  0  0  0  0  0  0  0  0  0
    6.0780   -2.4160   19.9540 S   0  0  0  0  0  0  0  0  0  0  0  0
    4.7620   -2.8750   20.5330 O   0  0  0  0  0  0  0  0  0  0  0  0
    6.3940   -2.6580   18.5560 O   0  0  0  0  0  0  0  0  0  0  0  0
    6.8990   -0.8940   20.4970 C   0  0  0  0  0  0  0  0  0  0  0  0
    5.8640   -0.3840   20.1990 N   0  0  0  0  0  0  0  0  0  0  0  0
    4.8800   -0.8670   19.6920 C   0  0  0  0  0  0  0  0  0  0  0  0
    4.0690    0.0850   19.6890 C   0  0  0  0  0  0  0  0  0  0  0  0
    3.5270    1.3500   19.8800 N   0  0  0  0  0  0  0  0  0  0  0  0
    2.8520    1.6680   21.1610 C   0  0  0  0  0  0  0  0  0  0  0  0
    1.5310    2.1010   20.9570 C   0  0  0  0  0  0  0  0  0  0  0  0
    1.1730    2.4350   19.6060 O   0  0  0  0  0  0  0  0  0  0  0  0
    2.1840    3.1650   18.8890 C   0  0  1  0  0  0  0  0  0  0  0  0
    2.2760    4.6450   19.3240 C   0  0  0  0  0  0  0  0  0  0  0  0
    3.5780    2.4440   18.9150 C   0  0  0  0  0  0  0  0  0  0  0  0
    5.3180    0.7310   20.2800 C   0  0  0  0  0  0  0  0  0  0  0  0
    6.9110    0.4890   20.7660 C   0  0  0  0  0  0  0  0  0  0  0  0
    8.3880    0.2630   21.2160 C   0  0  0  0  0  0  0  0  0  0  0  0
    9.0670    1.2370   20.8970 O   0  0  0  0  0  0  0  0  0  0  0  0
    8.9560   -0.7470   21.9650 N   0  0  0  0  0  0  0  0  0  0  0  0
   10.2530   -0.4570   22.4910 C   0  0  0  0  0  0  0  0  0  0  0  0
   11.3550   -1.1530   21.9780 C   0  0  0  0  0  0  0  0  0  0  0  0
   12.6480   -0.8800   22.4410 C   0  0  0  0  0  0  0  0  0  0  0  0
   12.8510    0.0840   23.4160 C   0  0  0  0  0  0  0  0  0  0  0  0
   11.7730    0.7780   23.9380 C   0  0  0  0  0  0  0  0  0  0  0  0
   10.4840    0.5110   23.4830 C   0  0  0  0  0  0  0  0  0  0  0  0
  1  2  1  0
  3  2  1  0
  3  4  2  0
  3  5  2  0
  3  6  1  0
  6  7  2  0
  7  8  1  0
  8  9  2  0
  9 10  1  0
 10 11  1  0
 11 12  1  0
 12 13  1  0
 13 14  1  0
 14 15  1  1
 10 16  1  0
 14 16  1  0
  9 17  1  0
  6 18  1  0
 17 18  2  0
 18 19  1  0
 19 20  2  0
 19 21  1  0
 21 22  1  0
 22 23  2  0
 23 24  1  0
 24 25  2  0
 25 26  1  0
 22 27  1  0
 26 27  2  0
M  END
