JOH-UNI-27ac80fd-35-acrylamide
     RDKit          3D

 20 21  0  0  0  0  0  0  0  0999 V2000
    8.0100   -3.3280   19.1980 C   0  0  0  0  0  0  0  0  0  0  0  0
    6.8130   -2.4570   18.9520 C   0  0  0  0  0  0  0  0  0  0  0  0
    5.9520   -2.6850   20.1380 C   0  0  0  0  0  0  0  0  0  0  0  0
    4.8780   -3.2370   20.0160 O   0  0  0  0  0  0  0  0  0  0  0  0
    6.4790   -2.3150   21.3630 N   0  0  0  0  0  0  0  0  0  0  0  0
    6.2760   -3.1680   22.5230 C   0  0  0  0  0  0  0  0  0  0  0  0
    7.6110   -3.6450   23.0980 C   0  0  0  0  0  0  0  0  0  0  0  0
    8.4480   -2.5180   23.5190 N   0  0  0  0  0  0  0  0  0  0  0  0
    9.6180   -2.9570   24.3010 C   0  0  0  0  0  0  0  0  0  0  0  0
   10.2130   -1.8820   24.8740 F   0  0  0  0  0  0  0  0  0  0  0  0
   10.5450   -3.5050   23.4920 F   0  0  0  0  0  0  0  0  0  0  0  0
    9.2060   -3.9960   25.3110 C   0  0  0  0  0  0  0  0  0  0  0  0
    9.7750   -5.2590   25.4640 C   0  0  0  0  0  0  0  0  0  0  0  0
    9.1920   -5.9870   26.4670 C   0  0  0  0  0  0  0  0  0  0  0  0
    8.1580   -5.3100   27.1140 C   0  0  0  0  0  0  0  0  0  0  0  0
    7.0830   -5.9480   28.5410 Br  0  0  0  0  0  0  0  0  0  0  0  0
    7.9120   -3.7660   26.4770 S   0  0  0  0  0  0  0  0  0  0  0  0
    8.7260   -1.6160   22.5010 C   0  0  1  0  0  0  0  0  0  0  0  0
    9.9260   -1.9400   21.8530 C   0  0  0  0  0  0  0  0  0  0  0  0
    7.5760   -1.3250   21.4880 C   0  0  0  0  0  0  0  0  0  0  0  0
  1  2  1  0
  2  3  1  0
  3  4  2  0
  3  5  1  0
  5  6  1  0
  6  7  1  0
  7  8  1  0
  8  9  1  0
  9 10  1  0
  9 11  1  0
  9 12  1  0
 12 13  2  0
 13 14  1  0
 14 15  2  0
 15 16  1  0
 12 17  1  0
 15 17  1  0
  8 18  1  0
 18 19  1  6
  5 20  1  0
 18 20  1  0
M  END
