JOH-UNI-27ac80fd-11-vinylsulfonamide
     RDKit          3D

 20 21  0  0  0  0  0  0  0  0999 V2000
    7.9860   -3.2460   19.2450 C   0  0  0  0  0  0  0  0  0  0  0  0
    6.8210   -2.4560   18.6660 C   0  0  0  0  0  0  0  0  0  0  0  0
    5.5610   -2.3250   19.8570 S   0  0  0  0  0  0  0  0  0  0  0  0
    4.9270   -3.6160   19.7160 O   0  0  0  0  0  0  0  0  0  0  0  0
    4.8530   -1.0780   19.6770 O   0  0  0  0  0  0  0  0  0  0  0  0
    6.4370   -2.2330   21.3090 N   0  0  0  0  0  0  0  0  0  0  0  0
    5.8880   -2.8920   22.4770 C   0  0  0  0  0  0  0  0  0  0  0  0
    6.9900   -3.1440   23.5230 C   0  0  0  0  0  0  0  0  0  0  0  0
    8.0380   -2.1060   23.6850 N   0  0  0  0  0  0  0  0  0  0  0  0
    9.1050   -2.5870   24.5940 C   0  0  0  0  0  0  0  0  0  0  0  0
    8.8930   -3.8510   25.1340 N   0  0  0  0  0  0  0  0  0  0  0  0
    9.4370   -5.0870   24.7430 C   0  0  0  0  0  0  0  0  0  0  0  0
    8.6600   -5.7050   23.7810 C   0  0  0  0  0  0  0  0  0  0  0  0
    7.2940   -5.6680   23.9950 C   0  0  0  0  0  0  0  0  0  0  0  0
    6.9490   -5.7630   25.3900 O   0  0  0  0  0  0  0  0  0  0  0  0
    6.8480   -4.5250   26.1130 C   0  0  0  0  0  0  0  0  0  0  0  0
    8.0630   -3.8620   26.3740 C   0  0  0  0  0  0  0  0  0  0  0  0
    8.4260   -1.3560   22.4360 C   0  0  0  0  0  0  0  0  0  0  0  0
    7.1880   -1.0030   21.5840 C   0  0  1  0  0  0  0  0  0  0  0  0
    7.3840   -0.1950   20.2910 C   0  0  0  0  0  0  0  0  0  0  0  0
  1  2  1  0
  3  2  1  0
  3  4  2  0
  3  5  2  0
  3  6  1  0
  6  7  1  0
  7  8  1  0
  8  9  1  0
  9 10  1  0
 10 11  1  0
 11 12  1  0
 12 13  1  0
 13 14  1  0
 14 15  1  0
 15 16  1  0
 11 17  1  0
 16 17  1  0
  9 18  1  0
  6 19  1  0
 18 19  1  0
 19 20  1  6
M  END
