JOH-UNI-27ac80fd-8-vinylsulfonamide
     RDKit          3D

 20 21  0  0  0  0  0  0  0  0999 V2000
    8.5390   -4.3620   20.3100 C   0  0  0  0  0  0  0  0  0  0  0  0
    7.4530   -3.4460   19.7070 C   0  0  0  0  0  0  0  0  0  0  0  0
    5.8860   -3.8840   20.4430 S   0  0  0  0  0  0  0  0  0  0  0  0
    4.8260   -3.6840   19.4920 O   0  0  0  0  0  0  0  0  0  0  0  0
    6.0070   -5.1770   21.0720 O   0  0  0  0  0  0  0  0  0  0  0  0
    5.6490   -2.7120   21.6500 N   0  0  0  0  0  0  0  0  0  0  0  0
    6.6310   -1.6210   21.7570 C   0  0  0  0  0  0  0  0  0  0  0  0
    7.5350   -1.7330   23.0070 C   0  0  0  0  0  0  0  0  0  0  0  0
    6.8690   -2.3070   24.1940 N   0  0  0  0  0  0  0  0  0  0  0  0
    7.6780   -2.1860   25.4120 C   0  0  0  0  0  0  0  0  0  0  0  0
    8.3050   -3.3470   25.8120 N   0  0  0  0  0  0  0  0  0  0  0  0
    9.6900   -3.5290   25.8890 C   0  0  0  0  0  0  0  0  0  0  0  0
   10.1500   -4.6470   25.2400 C   0  0  0  0  0  0  0  0  0  0  0  0
    9.2670   -5.6950   25.1360 C   0  0  0  0  0  0  0  0  0  0  0  0
    8.6430   -6.0310   26.3820 O   0  0  0  0  0  0  0  0  0  0  0  0
    7.4090   -5.3420   26.6300 C   0  0  0  0  0  0  0  0  0  0  0  0
    7.5680   -3.9830   26.9490 C   0  0  0  0  0  0  0  0  0  0  0  0
    6.1140   -3.5680   23.9390 C   0  0  2  0  0  0  0  0  0  0  0  0
    7.0780   -4.6720   23.4450 C   0  0  0  0  0  0  0  0  0  0  0  0
    5.0400   -3.2360   22.8820 C   0  0  0  0  0  0  0  0  0  0  0  0
  1  2  1  0
  3  2  1  0
  3  4  2  0
  3  5  2  0
  3  6  1  0
  6  7  1  0
  7  8  1  0
  8  9  1  0
  9 10  1  0
 10 11  1  0
 11 12  1  0
 12 13  1  0
 13 14  1  0
 14 15  1  0
 15 16  1  0
 11 17  1  0
 16 17  1  0
  9 18  1  0
 18 19  1  6
  6 20  1  0
 18 20  1  0
M  END
