JOH-UNI-522b0723-11-acrylamide
     RDKit          3D

 26 28  0  0  0  0  0  0  0  0999 V2000
    8.2770   -3.4390   20.2550 C   0  0  0  0  0  0  0  0  0  0  0  0
    7.5230   -2.0560   20.3330 C   0  0  0  0  0  0  0  0  0  0  0  0
    6.1480   -2.6220   20.6540 C   0  0  0  0  0  0  0  0  0  0  0  0
    4.9720   -3.1540   21.2020 O   0  0  0  0  0  0  0  0  0  0  0  0
    7.0070   -2.4710   21.9650 C   0  0  0  0  0  0  0  0  0  0  0  0
    7.3300   -3.5250   22.5590 N   0  0  0  0  0  0  0  0  0  0  0  0
    7.8290   -2.5380   23.2080 C   0  0  0  0  0  0  0  0  0  0  0  0
    8.3370   -3.4060   24.1690 C   0  0  0  0  0  0  0  0  0  0  0  0
    8.9920   -3.6590   25.2890 N   0  0  0  0  0  0  0  0  0  0  0  0
    8.2230   -3.9160   26.4240 C   0  0  0  0  0  0  0  0  0  0  0  0
    7.3890   -4.9980   26.2580 C   0  0  0  0  0  0  0  0  0  0  0  0
    7.8720   -6.0160   25.7520 O   0  0  0  0  0  0  0  0  0  0  0  0
    8.8820   -5.8380   24.7020 C   0  0  1  0  0  0  0  0  0  0  0  0
    8.2350   -5.6820   23.4800 C   0  0  0  0  0  0  0  0  0  0  0  0
    9.7630   -4.8590   25.1070 C   0  0  0  0  0  0  0  0  0  0  0  0
    8.3940   -1.9740   24.0570 C   0  0  0  0  0  0  0  0  0  0  0  0
    7.6660   -1.4180   22.8420 C   0  0  0  0  0  0  0  0  0  0  0  0
    7.6900    0.1040   22.6660 C   0  0  0  0  0  0  0  0  0  0  0  0
    6.6670    0.7750   22.5650 O   0  0  0  0  0  0  0  0  0  0  0  0
    8.9900    0.5960   22.6440 N   0  0  0  0  0  0  0  0  0  0  0  0
    9.4680    1.7920   23.2340 C   0  0  0  0  0  0  0  0  0  0  0  0
   10.6970    2.3200   22.8780 C   0  0  0  0  0  0  0  0  0  0  0  0
   11.2280    3.4840   23.4080 C   0  0  0  0  0  0  0  0  0  0  0  0
   10.4940    4.1760   24.3610 C   0  0  0  0  0  0  0  0  0  0  0  0
    9.2490    3.6810   24.7550 C   0  0  0  0  0  0  0  0  0  0  0  0
    8.7320    2.4920   24.1950 C   0  0  0  0  0  0  0  0  0  0  0  0
  1  2  1  0
  2  3  1  0
  3  4  2  0
  3  5  1  0
  5  6  2  0
  6  7  1  0
  7  8  2  0
  8  9  1  0
  9 10  1  0
 10 11  1  0
 11 12  1  0
 12 13  1  0
 13 14  1  6
  9 15  1  0
 13 15  1  0
  8 16  1  0
  5 17  1  0
 16 17  2  0
 17 18  1  0
 18 19  2  0
 18 20  1  0
 20 21  1  0
 21 22  2  0
 22 23  1  0
 23 24  2  0
 24 25  1  0
 21 26  1  0
 25 26  2  0
M  END
