JOH-UNI-27ac80fd-22-vinylsulfonamide
     RDKit          3D

 20 21  0  0  0  0  0  0  0  0999 V2000
    7.5450   -2.9560   18.5030 C   0  0  0  0  0  0  0  0  0  0  0  0
    6.7990   -2.3880   19.7180 C   0  0  0  0  0  0  0  0  0  0  0  0
    5.9960   -3.5500   20.8010 S   0  0  0  0  0  0  0  0  0  0  0  0
    4.7670   -3.0370   21.3250 O   0  0  0  0  0  0  0  0  0  0  0  0
    5.9150   -4.8600   20.1990 O   0  0  0  0  0  0  0  0  0  0  0  0
    7.0990   -3.4070   22.0780 N   0  0  0  0  0  0  0  0  0  0  0  0
    8.1010   -2.3540   21.8730 C   0  0  0  0  0  0  0  0  0  0  0  0
    9.1910   -2.5610   22.7030 C   0  0  0  0  0  0  0  0  0  0  0  0
    8.8170   -2.4280   24.1460 N   0  0  0  0  0  0  0  0  0  0  0  0
    9.8780   -2.9280   25.0920 C   0  0  2  0  0  0  0  0  0  0  0  0
   11.0840   -2.8570   24.4590 F   0  0  0  0  0  0  0  0  0  0  0  0
    9.7100   -4.3190   25.5880 N   0  0  0  0  0  0  0  0  0  0  0  0
    9.2120   -5.2490   24.5890 C   0  0  0  0  0  0  0  0  0  0  0  0
    7.6970   -5.3640   24.4140 C   0  0  0  0  0  0  0  0  0  0  0  0
    6.7850   -5.3030   25.6530 C   0  0  0  0  0  0  0  0  0  0  0  0
    7.1320   -6.0440   26.5780 O   0  0  0  0  0  0  0  0  0  0  0  0
    8.4350   -5.7990   27.1190 C   0  0  0  0  0  0  0  0  0  0  0  0
    9.0400   -4.4350   26.7990 C   0  0  0  0  0  0  0  0  0  0  0  0
    7.4810   -2.7470   24.3540 C   0  0  0  0  0  0  0  0  0  0  0  0
    6.5020   -3.2410   23.4070 C   0  0  0  0  0  0  0  0  0  0  0  0
  1  2  1  0
  3  2  1  0
  3  4  2  0
  3  5  2  0
  3  6  1  0
  6  7  1  0
  7  8  1  0
  8  9  1  0
  9 10  1  0
 10 11  1  6
 10 12  1  0
 12 13  1  0
 13 14  1  0
 14 15  1  0
 15 16  1  0
 16 17  1  0
 12 18  1  0
 17 18  1  0
  9 19  1  0
  6 20  1  0
 19 20  1  0
M  END
