JOH-UNI-27ac80fd-39-nitrile
     RDKit          3D

 19 20  0  0  0  0  0  0  0  0999 V2000
    8.2830   -3.5480   19.7570 C   0  0  0  0  0  0  0  0  0  0  0  0
    7.0600   -3.5480   19.2170 N   0  0  0  0  0  0  0  0  0  0  0  0
    8.4340   -2.9610   20.9980 N   0  0  0  0  0  0  0  0  0  0  0  0
    8.3750   -1.5240   21.2860 C   0  0  0  0  0  0  0  0  0  0  0  0
    8.9680   -1.2240   22.6560 C   0  0  0  0  0  0  0  0  0  0  0  0
    8.2320   -2.0070   23.7180 N   0  0  0  0  0  0  0  0  0  0  0  0
    8.2430   -1.7510   25.0860 C   0  0  0  0  0  0  0  0  0  0  0  0
    7.7800   -2.9350   25.9400 C   0  0  0  0  0  0  0  0  0  0  0  0
    6.8090   -2.6840   27.4530 S   0  0  0  0  0  0  0  0  0  0  0  0
    6.6780   -4.4800   27.7930 C   0  0  0  0  0  0  0  0  0  0  0  0
    5.7510   -5.2640   29.2590 Br  0  0  0  0  0  0  0  0  0  0  0  0
    7.4080   -5.2970   26.7330 C   0  0  0  0  0  0  0  0  0  0  0  0
    8.0390   -4.4210   25.6650 C   0  0  0  0  0  0  0  0  0  0  0  0
    8.7780   -5.1320   24.5440 C   0  0  0  0  0  0  0  0  0  0  0  0
    8.0080   -5.6130   23.4710 C   0  0  0  0  0  0  0  0  0  0  0  0
    8.7020   -5.9640   22.5390 O   0  0  0  0  0  0  0  0  0  0  0  0
    9.6490   -6.8830   22.9850 C   0  0  0  0  0  0  0  0  0  0  0  0
    7.3430   -2.9770   23.0890 C   0  0  0  0  0  0  0  0  0  0  0  0
    8.0670   -3.7580   22.1580 C   0  0  0  0  0  0  0  0  0  0  0  0
  1  2  2  3
  1  3  1  0
  3  4  1  0
  4  5  1  0
  5  6  1  0
  6  7  1  0
  7  8  1  0
  8  9  1  0
  9 10  1  0
 10 11  1  0
 10 12  2  0
  8 13  2  0
 12 13  1  0
 13 14  1  0
 14 15  1  0
 15 16  1  0
 16 17  1  0
  6 18  1  0
  3 19  1  0
 18 19  1  0
M  END
