JOH-UNI-27ac80fd-41-vinylsulfonamide
     RDKit          3D

 24 26  0  0  0  0  0  0  0  0999 V2000
    8.2990   -3.4790   19.9510 C   0  0  0  0  0  0  0  0  0  0  0  0
    7.1330   -2.8520   19.1680 C   0  0  0  0  0  0  0  0  0  0  0  0
    5.7590   -3.3890   20.1180 S   0  0  0  0  0  0  0  0  0  0  0  0
    4.4920   -3.1430   19.5050 O   0  0  0  0  0  0  0  0  0  0  0  0
    6.0080   -4.7390   20.5060 O   0  0  0  0  0  0  0  0  0  0  0  0
    5.9430   -2.4240   21.4480 N   0  0  0  0  0  0  0  0  0  0  0  0
    6.9750   -1.3690   21.4480 C   0  0  0  0  0  0  0  0  0  0  0  0
    8.2610   -1.6820   22.2160 C   0  0  0  0  0  0  0  0  0  0  0  0
    8.0490   -2.5810   23.4150 N   0  0  0  0  0  0  0  0  0  0  0  0
    8.9740   -2.9380   24.3290 C   0  0  0  0  0  0  0  0  0  0  0  0
    8.4650   -3.7540   25.5240 C   0  0  0  0  0  0  0  0  0  0  0  0
    7.0160   -3.7410   26.4220 S   0  0  0  0  0  0  0  0  0  0  0  0
    7.6080   -5.0940   27.4270 C   0  0  0  0  0  0  0  0  0  0  0  0
    6.5760   -5.8600   28.8290 Br  0  0  0  0  0  0  0  0  0  0  0  0
    8.9710   -5.5860   27.0930 C   0  0  0  0  0  0  0  0  0  0  0  0
    9.4650   -4.7600   25.9550 C   0  0  0  0  0  0  0  0  0  0  0  0
   10.6360   -4.8810   25.3810 C   0  0  0  0  0  0  0  0  0  0  0  0
   11.6990   -3.8130   25.5500 C   0  0  0  0  0  0  0  0  0  0  0  0
   12.7840   -3.8010   26.0750 O   0  0  0  0  0  0  0  0  0  0  0  0
   13.6470   -2.8430   25.4620 C   0  0  0  0  0  0  0  0  0  0  0  0
   10.3700   -2.7690   23.9790 C   0  0  0  0  0  0  0  0  0  0  0  0
   10.0480   -1.8970   24.8150 C   0  0  0  0  0  0  0  0  0  0  0  0
    7.1490   -3.6970   23.1370 C   0  0  0  0  0  0  0  0  0  0  0  0
    5.8150   -3.1890   22.6840 C   0  0  0  0  0  0  0  0  0  0  0  0
  1  2  1  0
  3  2  1  0
  3  4  2  0
  3  5  2  0
  3  6  1  0
  6  7  1  0
  7  8  1  0
  8  9  1  0
  9 10  1  0
 10 11  1  0
 11 12  1  0
 12 13  1  0
 13 14  1  0
 13 15  2  0
 11 16  2  0
 15 16  1  0
 16 17  1  0
 17 18  1  0
 18 19  1  0
 19 20  1  0
 10 21  1  0
 10 22  1  0
 21 22  1  0
  9 23  1  0
  6 24  1  0
 23 24  1  0
M  END
