JOH-UNI-abdb2f0c-1
     RDKit          3D

 22 24  0  0  0  0  0  0  0  0999 V2000
    8.2730    1.6810   21.0840 O   0  0  0  0  0  0  0  0  0  0  0  0
    8.1580    0.5180   21.4820 C   0  0  0  0  0  0  0  0  0  0  0  0
    7.0910   -0.2980   21.2130 N   0  0  0  0  0  0  0  0  0  0  0  0
    6.3150    0.2320   20.2070 C   0  0  0  0  0  0  0  0  0  0  0  0
    4.9830    0.9190   20.4010 C   0  0  0  0  0  0  0  0  0  0  0  0
    4.3260    1.4890   19.1570 C   0  0  0  0  0  0  0  0  0  0  0  0
    5.0290    1.3390   17.8200 C   0  0  0  0  0  0  0  0  0  0  0  0
    6.3090    0.6400   17.7010 N   0  0  0  0  0  0  0  0  0  0  0  0
    6.8580    0.1270   18.9480 C   0  0  0  0  0  0  0  0  0  0  0  0
    9.2980   -0.0120   22.2320 C   0  0  0  0  0  0  0  0  0  0  0  0
   10.3150    0.4590   22.6720 C   0  0  0  0  0  0  0  0  0  0  0  0
   10.8900    1.4870   22.7520 C   0  0  0  0  0  0  0  0  0  0  0  0
   11.9060    0.8970   23.3550 C   0  0  0  0  0  0  0  0  0  0  0  0
   12.7840    0.0300   23.9440 N   0  0  0  0  0  0  0  0  0  0  0  0
   13.4240   -0.6760   22.8540 C   0  0  0  0  0  0  0  0  0  0  0  0
   12.6020   -1.3820   22.0100 C   0  0  0  0  0  0  0  0  0  0  0  0
   12.2710   -2.6480   22.3940 C   0  0  0  0  0  0  0  0  0  0  0  0
   12.0330   -2.9130   23.7780 O   0  0  0  0  0  0  0  0  0  0  0  0
   12.8280   -2.2350   24.7390 C   0  0  0  0  0  0  0  0  0  0  0  0
   12.3650   -0.8000   25.0540 C   0  0  0  0  0  0  0  0  0  0  0  0
   11.0970   -0.4970   23.2630 C   0  0  0  0  0  0  0  0  0  0  0  0
    9.7760   -1.0690   22.7320 N   0  0  0  0  0  0  0  0  0  0  0  0
  1  2  2  0
  2  3  1  0
  3  4  1  0
  4  5  2  0
  5  6  1  0
  6  7  2  0
  7  8  1  0
  4  9  1  0
  8  9  2  0
  2 10  1  0
 10 11  2  0
 11 12  1  0
 12 13  2  0
 13 14  1  0
 14 15  1  0
 15 16  1  0
 16 17  1  0
 17 18  1  0
 18 19  1  0
 14 20  1  0
 19 20  1  0
 13 21  1  0
 10 22  1  0
 21 22  2  0
M  END
