JOH-UNI-27ac80fd-34-acrylamide
     RDKit          3D

 20 22  0  0  0  0  0  0  0  0999 V2000
    7.9400   -3.2700   19.1770 C   0  0  0  0  0  0  0  0  0  0  0  0
    6.7520   -2.3820   19.0050 C   0  0  0  0  0  0  0  0  0  0  0  0
    5.9690   -2.6090   20.2410 C   0  0  0  0  0  0  0  0  0  0  0  0
    4.9130   -3.1980   20.1840 O   0  0  0  0  0  0  0  0  0  0  0  0
    6.5630   -2.1730   21.4000 N   0  0  0  0  0  0  0  0  0  0  0  0
    7.7640   -1.3520   21.3660 C   0  0  0  0  0  0  0  0  0  0  0  0
    8.7670   -1.9410   22.1600 C   0  0  0  0  0  0  0  0  0  0  0  0
    8.4540   -2.4650   23.3690 N   0  0  0  0  0  0  0  0  0  0  0  0
    9.5920   -2.8040   24.3070 C   0  0  1  0  0  0  0  0  0  0  0  0
    9.1900   -3.8900   25.3030 C   0  0  0  0  0  0  0  0  0  0  0  0
    9.8410   -5.2360   25.4450 C   0  0  0  0  0  0  0  0  0  0  0  0
    9.2150   -6.0610   26.5040 C   0  0  0  0  0  0  0  0  0  0  0  0
    8.0740   -5.3000   27.1580 C   0  0  0  0  0  0  0  0  0  0  0  0
    6.9520   -5.9210   28.5710 Br  0  0  0  0  0  0  0  0  0  0  0  0
    7.8600   -3.7380   26.4780 S   0  0  0  0  0  0  0  0  0  0  0  0
   10.8090   -3.0510   23.7610 C   0  0  0  0  0  0  0  0  0  0  0  0
   11.5260   -2.1640   24.4970 C   0  0  0  0  0  0  0  0  0  0  0  0
   10.1550   -1.7690   24.8500 O   0  0  0  0  0  0  0  0  0  0  0  0
    7.5620   -3.6190   23.1880 C   0  0  0  0  0  0  0  0  0  0  0  0
    6.4440   -3.0410   22.5770 C   0  0  0  0  0  0  0  0  0  0  0  0
  1  2  1  0
  2  3  1  0
  3  4  2  0
  3  5  1  0
  5  6  1  0
  6  7  1  0
  7  8  1  0
  8  9  1  0
  9 10  1  1
 10 11  2  0
 11 12  1  0
 12 13  2  0
 13 14  1  0
 10 15  1  0
 13 15  1  0
  9 16  1  0
 16 17  1  0
  9 18  1  0
 17 18  1  0
  8 19  1  0
  5 20  1  0
 19 20  1  0
M  END
