JOH-UNI-27ac80fd-15-acrylamide
     RDKit          3D

 20 22  0  0  0  0  0  0  0  0999 V2000
    7.9070   -3.2490   19.0860 C   0  0  0  0  0  0  0  0  0  0  0  0
    6.7430   -2.3300   18.9100 C   0  0  0  0  0  0  0  0  0  0  0  0
    5.8420   -2.6500   20.0400 C   0  0  0  0  0  0  0  0  0  0  0  0
    4.8070   -3.2570   19.8350 O   0  0  0  0  0  0  0  0  0  0  0  0
    6.3040   -2.2950   21.2800 N   0  0  0  0  0  0  0  0  0  0  0  0
    7.5160   -1.4810   21.4400 C   0  0  0  0  0  0  0  0  0  0  0  0
    8.5110   -2.1460   22.1900 C   0  0  0  0  0  0  0  0  0  0  0  0
    8.2090   -2.7240   23.3750 N   0  0  0  0  0  0  0  0  0  0  0  0
    9.2760   -2.8860   24.3960 C   0  0  0  0  0  0  0  0  0  0  0  0
    8.9240   -3.7790   25.5150 N   0  0  0  0  0  0  0  0  0  0  0  0
    9.2510   -5.1190   25.4220 C   0  0  0  0  0  0  0  0  0  0  0  0
    9.6750   -5.6910   26.7520 C   0  0  0  0  0  0  0  0  0  0  0  0
    8.5380   -5.9050   27.7420 C   0  0  0  0  0  0  0  0  0  0  0  0
    7.6390   -5.1220   27.9350 O   0  0  0  0  0  0  0  0  0  0  0  0
    7.0720   -4.7760   26.6980 C   0  0  0  0  0  0  0  0  0  0  0  0
    7.6750   -3.5450   26.0370 C   0  0  0  0  0  0  0  0  0  0  0  0
   10.6950   -3.0330   23.9780 C   0  0  0  0  0  0  0  0  0  0  0  0
   10.3380   -1.7420   24.5910 C   0  0  0  0  0  0  0  0  0  0  0  0
    7.2970   -3.8190   23.1100 C   0  0  0  0  0  0  0  0  0  0  0  0
    6.0960   -3.1260   22.5060 C   0  0  0  0  0  0  0  0  0  0  0  0
  1  2  1  0
  2  3  1  0
  3  4  2  0
  3  5  1  0
  5  6  1  0
  6  7  1  0
  7  8  1  0
  9  8  1  0
  9 10  1  0
 10 11  1  0
 11 12  1  0
 12 13  1  0
 13 14  1  0
 14 15  1  0
 10 16  1  0
 15 16  1  0
  9 17  1  0
  9 18  1  0
 17 18  1  0
  8 19  1  0
  5 20  1  0
 19 20  1  0
M  END
