JOH-CHE-3504ac3d-2
     RDKit          3D

 25 27  0  0  0  0  0  0  0  0999 V2000
    9.0240    6.7020   22.5900 C   0  0  0  0  0  0  0  0  0  0  0  0
   10.2740    6.2440   23.3060 C   0  0  0  0  0  0  0  0  0  0  0  0
   10.4530    6.4040   24.5110 O   0  0  0  0  0  0  0  0  0  0  0  0
   11.2130    5.5970   22.3960 N   0  0  0  0  0  0  0  0  0  0  0  0
   12.6170    5.4350   22.7090 C   0  0  0  0  0  0  0  0  0  0  0  0
   12.9640    4.1180   23.0010 C   0  0  0  0  0  0  0  0  0  0  0  0
   11.9250    3.1900   23.2910 C   0  0  0  0  0  0  0  0  0  0  0  0
   10.6420    3.5180   23.8700 C   0  0  0  0  0  0  0  0  0  0  0  0
    9.9070    2.3750   23.9520 N   0  0  0  0  0  0  0  0  0  0  0  0
   10.6230    1.3340   23.4690 C   0  0  0  0  0  0  0  0  0  0  0  0
   11.9030    1.6840   23.0570 C   0  0  0  0  0  0  0  0  0  0  0  0
   12.7550    0.6780   22.5680 C   0  0  0  0  0  0  0  0  0  0  0  0
   12.2940   -0.7500   22.4260 C   0  0  0  0  0  0  0  0  0  0  0  0
   13.2630   -1.9610   21.7960 Cl  0  0  0  0  0  0  0  0  0  0  0  0
   10.8820   -1.0320   22.8590 C   0  0  0  0  0  0  0  0  0  0  0  0
   10.2100   -2.3810   22.7660 C   0  0  0  0  0  0  0  0  0  0  0  0
    8.8040   -2.1450   23.3140 C   0  0  0  0  0  0  0  0  0  0  0  0
    7.8340   -3.1130   23.4030 C   0  0  0  0  0  0  0  0  0  0  0  0
    8.4460   -4.4650   23.3200 C   0  0  0  0  0  0  0  0  0  0  0  0
    7.9420   -5.2950   24.3090 C   0  0  0  0  0  0  0  0  0  0  0  0
    8.7380   -5.3330   25.4500 C   0  0  0  0  0  0  0  0  0  0  0  0
    9.9600   -5.6390   25.3080 N   0  0  0  0  0  0  0  0  0  0  0  0
    8.2130   -5.0510   26.6700 N   0  0  0  0  0  0  0  0  0  0  0  0
    8.5330   -0.5390   23.8190 S   0  0  0  0  0  0  0  0  0  0  0  0
   10.0880   -0.0760   23.3650 C   0  0  0  0  0  0  0  0  0  0  0  0
  1  2  1  0
  2  3  2  0
  2  4  1  0
  4  5  1  0
  5  6  1  0
  6  7  1  0
  7  8  2  0
  8  9  1  0
  9 10  1  0
  7 11  1  0
 10 11  2  0
 11 12  1  0
 12 13  2  0
 13 14  1  0
 13 15  1  0
 15 16  1  0
 16 17  2  0
 17 18  1  0
 18 19  1  0
 19 20  1  0
 20 21  1  0
 21 22  2  3
 21 23  1  0
 17 24  1  0
 10 25  1  0
 15 25  2  0
 24 25  1  0
M  END
