JOH-UNI-9dc98897-7-chloroacetamide
     RDKit          3D

 20 21  0  0  0  0  0  0  0  0999 V2000
    8.4130   -3.7940   20.0760 C   0  0  0  0  0  0  0  0  0  0  0  0
    7.2780   -3.1540   19.6240 C   0  0  0  0  0  0  0  0  0  0  0  0
    6.3010   -2.6040   19.2340 O   0  0  0  0  0  0  0  0  0  0  0  0
    7.6520   -2.7000   21.1350 C   0  0  0  0  0  0  0  0  0  0  0  0
    7.4450   -1.5840   22.0380 C   0  0  0  0  0  0  0  0  0  0  0  0
    7.9950   -1.6560   23.4170 C   0  0  0  0  0  0  0  0  0  0  0  0
    7.7890   -0.5670   24.2980 C   0  0  0  0  0  0  0  0  0  0  0  0
    7.1510    0.5070   23.7440 F   0  0  0  0  0  0  0  0  0  0  0  0
    7.0360   -0.8890   25.3900 F   0  0  0  0  0  0  0  0  0  0  0  0
    8.9650   -0.0950   24.8030 F   0  0  0  0  0  0  0  0  0  0  0  0
    8.7180   -2.8440   23.8220 C   0  0  0  0  0  0  0  0  0  0  0  0
    9.3420   -3.3260   24.9980 N   0  0  0  0  0  0  0  0  0  0  0  0
   10.0430   -4.6200   24.7970 C   0  0  0  0  0  0  0  0  0  0  0  0
    9.2610   -5.6840   24.0020 C   0  0  0  0  0  0  0  0  0  0  0  0
    7.7480   -5.6410   24.2110 C   0  0  0  0  0  0  0  0  0  0  0  0
    7.3260   -5.4300   25.5460 O   0  0  0  0  0  0  0  0  0  0  0  0
    7.2580   -4.0740   25.9920 C   0  0  0  0  0  0  0  0  0  0  0  0
    8.4790   -3.4010   26.2210 C   0  0  0  0  0  0  0  0  0  0  0  0
    8.8520   -3.7710   22.8440 C   0  0  0  0  0  0  0  0  0  0  0  0
    8.3720   -3.7170   21.6150 N   0  0  0  0  0  0  0  0  0  0  0  0
  1  2  1  0
  2  3  2  0
  2  4  1  0
  4  5  2  0
  5  6  1  0
  6  7  1  0
  7  8  1  0
  7  9  1  0
  7 10  1  0
  6 11  2  0
 11 12  1  0
 12 13  1  0
 13 14  1  0
 14 15  1  0
 15 16  1  0
 16 17  1  0
 12 18  1  0
 17 18  1  0
 11 19  1  0
  4 20  1  0
 19 20  2  0
M  END
