JOH-UNI-9dc98897-8-nitrile
     RDKit          3D

 18 19  0  0  0  0  0  0  0  0999 V2000
    7.5800   -3.4850   19.6960 C   0  0  0  0  0  0  0  0  0  0  0  0
    6.4410   -3.1530   19.1710 N   0  0  0  0  0  0  0  0  0  0  0  0
    7.9700   -3.2220   21.1210 C   0  0  0  0  0  0  0  0  0  0  0  0
    8.5730   -2.0670   21.6300 C   0  0  0  0  0  0  0  0  0  0  0  0
    8.8860   -2.0000   22.9920 C   0  0  0  0  0  0  0  0  0  0  0  0
    9.4880   -0.8270   23.4620 C   0  0  0  0  0  0  0  0  0  0  0  0
   10.7090   -0.5760   22.9130 F   0  0  0  0  0  0  0  0  0  0  0  0
    8.7530    0.2920   23.1800 F   0  0  0  0  0  0  0  0  0  0  0  0
    8.5850   -3.1100   23.8220 C   0  0  0  0  0  0  0  0  0  0  0  0
    8.8150   -3.2500   25.2050 N   0  0  0  0  0  0  0  0  0  0  0  0
    8.9920   -4.6340   25.7130 C   0  0  0  0  0  0  0  0  0  0  0  0
    7.8490   -5.5550   25.3640 C   0  0  0  0  0  0  0  0  0  0  0  0
    6.4720   -4.9140   25.3630 C   0  0  0  0  0  0  0  0  0  0  0  0
    6.2720   -4.0620   26.4720 O   0  0  0  0  0  0  0  0  0  0  0  0
    6.5500   -2.6860   26.2490 C   0  0  0  0  0  0  0  0  0  0  0  0
    8.0210   -2.2970   26.0360 C   0  0  0  0  0  0  0  0  0  0  0  0
    7.9880   -4.1970   23.1890 C   0  0  0  0  0  0  0  0  0  0  0  0
    7.6780   -4.2820   21.9020 N   0  0  0  0  0  0  0  0  0  0  0  0
  1  2  2  3
  1  3  1  0
  3  4  2  0
  4  5  1  0
  5  6  1  0
  6  7  1  0
  6  8  1  0
  5  9  2  0
  9 10  1  0
 10 11  1  0
 11 12  1  0
 12 13  1  0
 13 14  1  0
 14 15  1  0
 10 16  1  0
 15 16  1  0
  9 17  1  0
  3 18  1  0
 17 18  2  0
M  END
