JOH-UNI-27ac80fd-16-vinylsulfonamide
     RDKit          3D

 21 22  0  0  0  0  0  0  0  0999 V2000
    7.5930   -3.0290   18.9850 C   0  0  0  0  0  0  0  0  0  0  0  0
    6.2410   -3.4110   19.6120 C   0  0  0  0  0  0  0  0  0  0  0  0
    6.1430   -3.1200   21.3520 S   0  0  0  0  0  0  0  0  0  0  0  0
    4.7820   -3.4000   21.7760 O   0  0  0  0  0  0  0  0  0  0  0  0
    7.2420   -3.8070   21.9700 O   0  0  0  0  0  0  0  0  0  0  0  0
    6.3690   -1.4530   21.5410 N   0  0  0  0  0  0  0  0  0  0  0  0
    6.1070   -0.9930   22.9030 C   0  0  0  0  0  0  0  0  0  0  0  0
    7.0890   -1.4460   23.8040 C   0  0  0  0  0  0  0  0  0  0  0  0
    8.5210   -1.1320   23.4230 N   0  0  0  0  0  0  0  0  0  0  0  0
    9.5200   -1.9770   24.1670 C   0  0  0  0  0  0  0  0  0  0  0  0
    9.9410   -1.3390   25.2830 F   0  0  0  0  0  0  0  0  0  0  0  0
   10.6380   -2.1320   23.4010 F   0  0  0  0  0  0  0  0  0  0  0  0
    8.9800   -3.2950   24.5570 N   0  0  0  0  0  0  0  0  0  0  0  0
    9.9630   -4.3650   24.4980 C   0  0  0  0  0  0  0  0  0  0  0  0
    9.2890   -5.7250   24.5410 C   0  0  0  0  0  0  0  0  0  0  0  0
    7.7990   -5.5650   24.2810 C   0  0  0  0  0  0  0  0  0  0  0  0
    7.1570   -5.5100   25.3360 O   0  0  0  0  0  0  0  0  0  0  0  0
    7.0490   -4.2000   25.9140 C   0  0  0  0  0  0  0  0  0  0  0  0
    8.2820   -3.2920   25.7620 C   0  0  0  0  0  0  0  0  0  0  0  0
    8.6710   -1.1430   22.0520 C   0  0  0  0  0  0  0  0  0  0  0  0
    7.6640   -0.9730   21.0550 C   0  0  0  0  0  0  0  0  0  0  0  0
  1  2  1  0
  3  2  1  0
  3  4  2  0
  3  5  2  0
  3  6  1  0
  6  7  1  0
  7  8  1  0
  8  9  1  0
  9 10  1  0
 10 11  1  0
 10 12  1  0
 10 13  1  0
 13 14  1  0
 14 15  1  0
 15 16  1  0
 16 17  1  0
 17 18  1  0
 13 19  1  0
 18 19  1  0
  9 20  1  0
  6 21  1  0
 20 21  1  0
M  END
