JOH-UNK-14e6adc5-7
     RDKit          3D

 23 25  0  0  0  0  0  0  0  0999 V2000
   15.5740    0.9030   19.4660 C   0  0  0  0  0  0  0  0  0  0  0  0
   14.6890   -0.3380   19.7070 O   0  0  0  0  0  0  0  0  0  0  0  0
   13.8280   -0.7100   20.8340 C   0  0  0  0  0  0  0  0  0  0  0  0
   13.1500   -1.9070   21.0790 C   0  0  0  0  0  0  0  0  0  0  0  0
   12.2520   -2.2500   22.0970 C   0  0  0  0  0  0  0  0  0  0  0  0
   11.9630   -1.3080   23.0270 C   0  0  0  0  0  0  0  0  0  0  0  0
   11.0900   -1.6490   23.9060 N   0  0  0  0  0  0  0  0  0  0  0  0
   10.1710   -2.6040   23.6040 C   0  0  0  0  0  0  0  0  0  0  0  0
    9.3740   -2.7780   24.6680 C   0  0  0  0  0  0  0  0  0  0  0  0
    8.1920   -3.7690   24.8010 C   0  0  0  0  0  0  0  0  0  0  0  0
    7.1540   -3.5370   23.7840 N   0  0  0  0  0  0  0  0  0  0  0  0
    6.4920   -4.6040   23.2110 C   0  0  0  0  0  0  0  0  0  0  0  0
    5.1740   -4.1640   22.7070 C   0  0  0  0  0  0  0  0  0  0  0  0
    5.4630   -3.1240   21.7210 N   0  0  0  0  0  0  0  0  0  0  0  0
    5.3470   -3.3260   20.3480 C   0  0  0  0  0  0  0  0  0  0  0  0
    5.3770   -2.2130   19.5260 C   0  0  0  0  0  0  0  0  0  0  0  0
    5.2260   -4.4520   19.8740 O   0  0  0  0  0  0  0  0  0  0  0  0
    6.3050   -2.1490   22.1660 C   0  0  0  0  0  0  0  0  0  0  0  0
    7.4960   -2.5250   22.8000 C   0  0  0  0  0  0  0  0  0  0  0  0
    9.7850   -1.9370   25.6270 N   0  0  0  0  0  0  0  0  0  0  0  0
   10.8490   -1.2290   25.1700 N   0  0  0  0  0  0  0  0  0  0  0  0
   12.5730   -0.0680   22.9850 C   0  0  0  0  0  0  0  0  0  0  0  0
   13.5420    0.2320   21.8420 C   0  0  0  0  0  0  0  0  0  0  0  0
  1  2  1  0
  2  3  1  0
  3  4  2  0
  4  5  1  0
  5  6  2  0
  6  7  1  0
  7  8  1  0
  8  9  2  0
  9 10  1  0
 10 11  1  0
 11 12  1  0
 12 13  1  0
 13 14  1  0
 14 15  1  0
 15 16  1  0
 15 17  2  0
 14 18  1  0
 11 19  1  0
 18 19  1  0
  9 20  1  0
  7 21  1  0
 20 21  2  0
  6 22  1  0
  3 23  1  0
 22 23  2  0
M  END
