JOH-UNI-27ac80fd-4-chloroacetamide
     RDKit          3D

 17 18  0  0  0  0  0  0  0  0999 V2000
    7.2780   -2.9610   18.7740 C   0  0  0  0  0  0  0  0  0  0  0  0
    6.3130   -3.2260   19.8830 C   0  0  0  0  0  0  0  0  0  0  0  0
    5.4100   -4.0640   19.7370 O   0  0  0  0  0  0  0  0  0  0  0  0
    6.4990   -2.5050   21.0780 N   0  0  0  0  0  0  0  0  0  0  0  0
    6.1650   -3.1500   22.3370 C   0  0  0  0  0  0  0  0  0  0  0  0
    7.4350   -3.5600   23.0940 C   0  0  0  0  0  0  0  0  0  0  0  0
    8.4230   -2.4970   23.3100 N   0  0  0  0  0  0  0  0  0  0  0  0
    9.5340   -2.9690   24.1720 C   0  0  0  0  0  0  0  0  0  0  0  0
    9.2540   -4.0970   24.9390 N   0  0  0  0  0  0  0  0  0  0  0  0
    9.4710   -5.4210   24.5810 C   0  0  0  0  0  0  0  0  0  0  0  0
    8.5910   -5.8910   23.6220 C   0  0  0  0  0  0  0  0  0  0  0  0
    7.2910   -5.6740   24.0410 C   0  0  0  0  0  0  0  0  0  0  0  0
    7.1610   -5.7310   25.4570 O   0  0  0  0  0  0  0  0  0  0  0  0
    7.2190   -4.4790   26.1460 C   0  0  0  0  0  0  0  0  0  0  0  0
    8.4970   -3.8780   26.2090 C   0  0  0  0  0  0  0  0  0  0  0  0
    8.7860   -1.7820   22.0380 C   0  0  0  0  0  0  0  0  0  0  0  0
    7.5380   -1.4410   21.1700 C   0  0  0  0  0  0  0  0  0  0  0  0
  1  2  1  0
  2  3  2  0
  2  4  1  0
  4  5  1  0
  5  6  1  0
  6  7  1  0
  7  8  1  0
  8  9  1  0
  9 10  1  0
 10 11  1  0
 11 12  1  0
 12 13  1  0
 13 14  1  0
  9 15  1  0
 14 15  1  0
  7 16  1  0
  4 17  1  0
 16 17  1  0
M  END
