JOH-UNI-27ac80fd-36-vinylsulfonamide
     RDKit          3D

 20 21  0  0  0  0  0  0  0  0999 V2000
    7.3640   -2.8220   18.1790 C   0  0  0  0  0  0  0  0  0  0  0  0
    6.5740   -2.1460   19.2560 C   0  0  0  0  0  0  0  0  0  0  0  0
    5.8530   -3.3500   20.3070 S   0  0  0  0  0  0  0  0  0  0  0  0
    4.7320   -2.8880   20.9730 O   0  0  0  0  0  0  0  0  0  0  0  0
    5.6840   -4.6510   19.7100 O   0  0  0  0  0  0  0  0  0  0  0  0
    7.0170   -3.3110   21.4900 N   0  0  0  0  0  0  0  0  0  0  0  0
    6.5740   -3.8460   22.7280 C   0  0  0  0  0  0  0  0  0  0  0  0
    7.7920   -3.9050   23.6210 C   0  0  0  0  0  0  0  0  0  0  0  0
    8.6310   -2.6820   23.5690 N   0  0  0  0  0  0  0  0  0  0  0  0
    9.7690   -2.9210   24.4520 C   0  0  0  0  0  0  0  0  0  0  0  0
   10.1150   -1.7880   25.1060 F   0  0  0  0  0  0  0  0  0  0  0  0
   10.8510   -3.2800   23.7220 F   0  0  0  0  0  0  0  0  0  0  0  0
    9.3190   -3.9840   25.4260 C   0  0  0  0  0  0  0  0  0  0  0  0
    9.8650   -5.3730   25.5260 C   0  0  0  0  0  0  0  0  0  0  0  0
    9.1970   -6.0660   26.5240 C   0  0  0  0  0  0  0  0  0  0  0  0
    8.2050   -5.3460   27.1800 C   0  0  0  0  0  0  0  0  0  0  0  0
    7.0750   -5.9580   28.5800 Br  0  0  0  0  0  0  0  0  0  0  0  0
    8.0630   -3.7700   26.5910 S   0  0  0  0  0  0  0  0  0  0  0  0
    8.9660   -2.2490   22.2990 C   0  0  0  0  0  0  0  0  0  0  0  0
    7.7500   -2.1060   21.6140 C   0  0  0  0  0  0  0  0  0  0  0  0
  1  2  1  0
  3  2  1  0
  3  4  2  0
  3  5  2  0
  3  6  1  0
  6  7  1  0
  7  8  1  0
  8  9  1  0
  9 10  1  0
 10 11  1  0
 10 12  1  0
 10 13  1  0
 13 14  2  0
 14 15  1  0
 15 16  2  0
 16 17  1  0
 13 18  1  0
 16 18  1  0
  9 19  1  0
  6 20  1  0
 19 20  1  0
M  END
