JOH-UNI-27ac80fd-26-acrylamide
     RDKit          3D

 18 19  0  0  0  0  0  0  0  0999 V2000
    7.9730   -3.3170   19.2140 C   0  0  0  0  0  0  0  0  0  0  0  0
    6.7920   -2.4340   18.9840 C   0  0  0  0  0  0  0  0  0  0  0  0
    5.9560   -2.6470   20.1880 C   0  0  0  0  0  0  0  0  0  0  0  0
    4.9000   -3.2290   20.0910 O   0  0  0  0  0  0  0  0  0  0  0  0
    6.5080   -2.2100   21.3610 N   0  0  0  0  0  0  0  0  0  0  0  0
    6.3020   -2.9510   22.5860 C   0  0  0  0  0  0  0  0  0  0  0  0
    7.5030   -3.5400   23.0120 C   0  0  0  0  0  0  0  0  0  0  0  0
    8.6890   -2.9020   22.8990 N   0  0  0  0  0  0  0  0  0  0  0  0
    9.6370   -3.0050   24.0510 C   0  0  0  0  0  0  0  0  0  0  0  0
   10.6350   -2.2760   24.0160 O   0  0  0  0  0  0  0  0  0  0  0  0
    9.2490   -4.0130   25.1310 C   0  0  0  0  0  0  0  0  0  0  0  0
    9.8770   -5.3510   25.3490 C   0  0  0  0  0  0  0  0  0  0  0  0
    9.2640   -6.0950   26.4680 C   0  0  0  0  0  0  0  0  0  0  0  0
    8.1490   -5.2860   27.0980 C   0  0  0  0  0  0  0  0  0  0  0  0
    7.0490   -5.8210   28.5610 Br  0  0  0  0  0  0  0  0  0  0  0  0
    7.9460   -3.7630   26.3290 S   0  0  0  0  0  0  0  0  0  0  0  0
    8.7470   -1.7780   22.1210 C   0  0  0  0  0  0  0  0  0  0  0  0
    7.6590   -1.2950   21.3250 C   0  0  0  0  0  0  0  0  0  0  0  0
  1  2  1  0
  2  3  1  0
  3  4  2  0
  3  5  1  0
  5  6  1  0
  6  7  1  0
  7  8  1  0
  8  9  1  0
  9 10  2  0
  9 11  1  0
 11 12  2  0
 12 13  1  0
 13 14  2  0
 14 15  1  0
 11 16  1  0
 14 16  1  0
  8 17  1  0
  5 18  1  0
 17 18  1  0
M  END
