JOH-MEM-5e386bbd-3
     RDKit          3D

 29 31  0  0  0  0  0  0  0  0999 V2000
   13.3210   -2.7920   21.3830 C   0  0  0  0  0  0  0  0  0  0  0  0
   13.8010   -1.6830   22.1010 O   0  0  0  0  0  0  0  0  0  0  0  0
   12.8150   -0.9480   22.5960 C   0  0  0  0  0  0  0  0  0  0  0  0
   11.6940   -1.6560   23.1170 C   0  0  0  0  0  0  0  0  0  0  0  0
   10.5280   -0.8600   23.6830 C   0  0  0  0  0  0  0  0  0  0  0  0
   10.6880    0.6550   23.6150 C   0  0  0  0  0  0  0  0  0  0  0  0
   11.8670    1.3610   23.0600 C   0  0  0  0  0  0  0  0  0  0  0  0
   12.9590    0.4310   22.5540 C   0  0  0  0  0  0  0  0  0  0  0  0
   11.7330    2.7330   23.1110 C   0  0  0  0  0  0  0  0  0  0  0  0
   12.4830    3.8600   22.7260 C   0  0  0  0  0  0  0  0  0  0  0  0
   12.1380    5.0110   23.4170 C   0  0  0  0  0  0  0  0  0  0  0  0
   11.3350    5.7700   22.5960 N   0  0  0  0  0  0  0  0  0  0  0  0
   10.2230    6.3340   23.3670 C   0  0  0  0  0  0  0  0  0  0  0  0
    9.1130    6.6620   22.5820 C   0  0  0  0  0  0  0  0  0  0  0  0
   10.2420    6.5070   24.5860 O   0  0  0  0  0  0  0  0  0  0  0  0
   10.4420    2.8900   23.7370 C   0  0  0  0  0  0  0  0  0  0  0  0
    9.7800    1.6890   24.0570 N   0  0  0  0  0  0  0  0  0  0  0  0
    8.4710    1.4830   24.6920 C   0  0  1  0  0  0  0  0  0  0  0  0
    8.2900    2.4070   25.7760 O   0  0  0  0  0  0  0  0  0  0  0  0
    7.1630    2.0440   26.6050 C   0  0  1  0  0  0  0  0  0  0  0  0
    6.8740    2.8320   27.7210 C   0  0  0  0  0  0  0  0  0  0  0  0
    6.8720    2.4800   28.8920 O   0  0  0  0  0  0  0  0  0  0  0  0
    6.5660    4.1100   27.4090 O   0  0  0  0  0  0  0  0  0  0  0  0
    5.9740    2.0800   25.8430 C   0  0  1  0  0  0  0  0  0  0  0  0
    5.5290    3.2240   25.9580 O   0  0  0  0  0  0  0  0  0  0  0  0
    6.0300    1.8360   24.4620 C   0  0  2  0  0  0  0  0  0  0  0  0
    5.2550    0.6530   24.1910 O   0  0  0  0  0  0  0  0  0  0  0  0
    7.4060    1.6480   23.8060 C   0  0  2  0  0  0  0  0  0  0  0  0
    7.3410    0.5290   22.9040 O   0  0  0  0  0  0  0  0  0  0  0  0
  1  2  1  0
  2  3  1  0
  3  4  2  0
  4  5  1  0
  5  6  2  0
  6  7  1  0
  3  8  1  0
  7  8  2  0
  7  9  1  0
  9 10  1  0
 10 11  1  0
 11 12  1  0
 12 13  1  0
 13 14  1  0
 13 15  2  0
  9 16  2  0
  6 17  1  0
 16 17  1  0
 18 17  1  6
 18 19  1  0
 19 20  1  0
 20 21  1  1
 21 22  2  0
 21 23  1  0
 20 24  1  0
 24 25  1  6
 24 26  1  0
 26 27  1  1
 18 28  1  0
 26 28  1  0
 28 29  1  6
M  END
