JOH-UNI-27ac80fd-16-chloroacetamide
     RDKit          3D

 19 20  0  0  0  0  0  0  0  0999 V2000
    7.3040   -2.9800   18.7960 C   0  0  0  0  0  0  0  0  0  0  0  0
    6.3380   -3.2310   19.9010 C   0  0  0  0  0  0  0  0  0  0  0  0
    5.4170   -4.0370   19.7220 O   0  0  0  0  0  0  0  0  0  0  0  0
    6.5750   -2.5360   21.0830 N   0  0  0  0  0  0  0  0  0  0  0  0
    7.6180   -1.5000   21.2320 C   0  0  0  0  0  0  0  0  0  0  0  0
    8.7300   -1.9090   22.0070 C   0  0  0  0  0  0  0  0  0  0  0  0
    8.3840   -2.4550   23.3660 N   0  0  0  0  0  0  0  0  0  0  0  0
    9.6050   -2.9480   24.1030 C   0  0  0  0  0  0  0  0  0  0  0  0
   10.2540   -1.8990   24.6740 F   0  0  0  0  0  0  0  0  0  0  0  0
   10.4780   -3.4270   23.1900 F   0  0  0  0  0  0  0  0  0  0  0  0
    9.3910   -4.0050   25.1360 N   0  0  0  0  0  0  0  0  0  0  0  0
    9.4740   -5.3680   24.6410 C   0  0  0  0  0  0  0  0  0  0  0  0
    8.4670   -5.7800   23.5640 C   0  0  0  0  0  0  0  0  0  0  0  0
    7.0270   -5.6620   24.0420 C   0  0  0  0  0  0  0  0  0  0  0  0
    7.0580   -5.7840   25.4130 O   0  0  0  0  0  0  0  0  0  0  0  0
    7.1860   -4.5940   26.1750 C   0  0  0  0  0  0  0  0  0  0  0  0
    8.4780   -3.7670   26.1560 C   0  0  0  0  0  0  0  0  0  0  0  0
    7.4100   -3.3800   23.1480 C   0  0  0  0  0  0  0  0  0  0  0  0
    6.2590   -3.2440   22.3170 C   0  0  0  0  0  0  0  0  0  0  0  0
  1  2  1  0
  2  3  2  0
  2  4  1  0
  4  5  1  0
  5  6  1  0
  6  7  1  0
  7  8  1  0
  8  9  1  0
  8 10  1  0
  8 11  1  0
 11 12  1  0
 12 13  1  0
 13 14  1  0
 14 15  1  0
 15 16  1  0
 11 17  1  0
 16 17  1  0
  7 18  1  0
  4 19  1  0
 18 19  1  0
M  END
