JOH-UNI-27ac80fd-27-nitrile
     RDKit          3D

 15 16  0  0  0  0  0  0  0  0999 V2000
    6.8340   -3.4970   19.9260 C   0  0  0  0  0  0  0  0  0  0  0  0
    5.7720   -4.1730   19.7420 N   0  0  0  0  0  0  0  0  0  0  0  0
    6.9860   -2.7960   21.1020 N   0  0  0  0  0  0  0  0  0  0  0  0
    6.3990   -3.3350   22.3200 C   0  0  0  0  0  0  0  0  0  0  0  0
    7.5490   -3.5800   23.2880 C   0  0  0  0  0  0  0  0  0  0  0  0
    8.5420   -2.4830   23.2820 N   0  0  0  0  0  0  0  0  0  0  0  0
    9.6660   -2.8870   24.1400 C   0  0  0  0  0  0  0  0  0  0  0  0
    9.2570   -3.9370   25.1880 C   0  0  0  0  0  0  0  0  0  0  0  0
    9.8520   -5.3070   25.3720 C   0  0  0  0  0  0  0  0  0  0  0  0
    9.1930   -6.0480   26.4910 C   0  0  0  0  0  0  0  0  0  0  0  0
    8.1840   -5.2810   27.0870 C   0  0  0  0  0  0  0  0  0  0  0  0
    7.0970   -5.8550   28.5380 Br  0  0  0  0  0  0  0  0  0  0  0  0
    7.9670   -3.6760   26.3770 S   0  0  0  0  0  0  0  0  0  0  0  0
    8.9730   -2.1310   22.0060 C   0  0  0  0  0  0  0  0  0  0  0  0
    7.8210   -1.7040   21.3240 C   0  0  0  0  0  0  0  0  0  0  0  0
  1  2  2  3
  1  3  1  0
  3  4  1  0
  4  5  1  0
  5  6  1  0
  6  7  1  0
  7  8  1  0
  8  9  2  0
  9 10  1  0
 10 11  2  0
 11 12  1  0
  8 13  1  0
 11 13  1  0
  6 14  1  0
  3 15  1  0
 14 15  1  0
M  END
