JOH-UNI-27ac80fd-13-chloroacetamide
     RDKit          3D

 18 19  0  0  0  0  0  0  0  0999 V2000
    7.3350   -2.9650   18.7730 C   0  0  0  0  0  0  0  0  0  0  0  0
    6.3670   -3.2170   19.8880 C   0  0  0  0  0  0  0  0  0  0  0  0
    5.4680   -4.0580   19.7300 O   0  0  0  0  0  0  0  0  0  0  0  0
    6.5620   -2.4820   21.0540 N   0  0  0  0  0  0  0  0  0  0  0  0
    7.6240   -1.4730   21.2090 C   0  0  0  0  0  0  0  0  0  0  0  0
    8.6920   -1.8860   22.0380 C   0  0  0  0  0  0  0  0  0  0  0  0
    8.3070   -2.5840   23.3270 N   0  0  0  0  0  0  0  0  0  0  0  0
    9.5270   -2.8980   24.1620 C   0  0  0  0  0  0  0  0  0  0  0  0
    9.3350   -3.9820   25.1700 N   0  0  0  0  0  0  0  0  0  0  0  0
    9.5810   -5.3390   24.7290 C   0  0  0  0  0  0  0  0  0  0  0  0
    8.5670   -5.8900   23.7310 C   0  0  0  0  0  0  0  0  0  0  0  0
    7.1210   -5.6430   24.1610 C   0  0  0  0  0  0  0  0  0  0  0  0
    7.0460   -5.7720   25.5270 O   0  0  0  0  0  0  0  0  0  0  0  0
    7.1490   -4.5770   26.2750 C   0  0  0  0  0  0  0  0  0  0  0  0
    8.4630   -3.7980   26.2330 C   0  0  0  0  0  0  0  0  0  0  0  0
    7.5320   -3.6570   22.9780 C   0  0  2  0  0  0  0  0  0  0  0  0
    7.8700   -4.7140   22.0820 C   0  0  0  0  0  0  0  0  0  0  0  0
    6.2400   -3.1210   22.3180 C   0  0  0  0  0  0  0  0  0  0  0  0
  1  2  1  0
  2  3  2  0
  2  4  1  0
  4  5  1  0
  5  6  1  0
  6  7  1  0
  7  8  1  0
  8  9  1  0
  9 10  1  0
 10 11  1  0
 11 12  1  0
 12 13  1  0
 13 14  1  0
  9 15  1  0
 14 15  1  0
  7 16  1  0
 16 17  1  6
  4 18  1  0
 16 18  1  0
M  END
