JOH-UNI-abdb2f0c-4-vinylsulfonamide
     RDKit          3D

 23 25  0  0  0  0  0  0  0  0999 V2000
    6.9700   -2.9840   19.1270 C   0  0  0  0  0  0  0  0  0  0  0  0
    7.1380   -1.8240   20.1520 C   0  0  0  0  0  0  0  0  0  0  0  0
    6.2830   -2.2630   21.6750 S   0  0  0  0  0  0  0  0  0  0  0  0
    5.0990   -3.4400   21.3820 O   0  0  0  0  0  0  0  0  0  0  0  0
    5.7110   -0.9800   22.0070 O   0  0  0  0  0  0  0  0  0  0  0  0
    7.8860   -2.2200   22.8120 C   0  0  0  0  0  0  0  0  0  0  0  0
    7.6090   -0.8970   22.5190 N   0  0  0  0  0  0  0  0  0  0  0  0
    8.7640   -1.1560   23.2680 C   0  0  0  0  0  0  0  0  0  0  0  0
    8.9030   -2.5690   23.5680 C   0  0  0  0  0  0  0  0  0  0  0  0
    7.8810   -3.5140   23.2720 N   0  0  0  0  0  0  0  0  0  0  0  0
    8.7180   -4.7510   23.0460 C   0  0  0  0  0  0  0  0  0  0  0  0
    9.3410   -5.3770   24.2700 C   0  0  0  0  0  0  0  0  0  0  0  0
    8.4930   -6.1230   25.0370 C   0  0  0  0  0  0  0  0  0  0  0  0
    7.6730   -5.3350   25.8870 O   0  0  0  0  0  0  0  0  0  0  0  0
    6.6440   -4.7480   25.1620 C   0  0  0  0  0  0  0  0  0  0  0  0
    7.0150   -3.5050   24.5650 C   0  0  0  0  0  0  0  0  0  0  0  0
    9.5140   -3.4860   24.0440 C   0  0  0  0  0  0  0  0  0  0  0  0
    8.1730   -3.6110   23.1190 C   0  0  0  0  0  0  0  0  0  0  0  0
    7.4920   -4.8010   22.6530 C   0  0  0  0  0  0  0  0  0  0  0  0
    8.0570   -5.6370   21.7040 N   0  0  0  0  0  0  0  0  0  0  0  0
    6.8930   -6.0760   22.0450 C   0  0  0  0  0  0  0  0  0  0  0  0
    5.6850   -6.5310   22.3990 C   0  0  0  0  0  0  0  0  0  0  0  0
    6.2270   -5.2650   23.0190 O   0  0  0  0  0  0  0  0  0  0  0  0
  1  2  1  0
  3  2  1  0
  3  4  2  0
  3  5  2  0
  3  6  1  0
  6  7  2  0
  7  8  1  0
  8  9  2  0
  9 10  1  0
 10 11  1  0
 11 12  1  0
 12 13  1  0
 13 14  1  0
 14 15  1  0
 10 16  1  0
 15 16  1  0
  9 17  1  0
  6 18  1  0
 17 18  2  0
 18 19  1  0
 19 20  2  0
 20 21  1  0
 21 22  2  0
 19 23  1  0
 22 23  1  0
M  END
