JOH-UNI-27ac80fd-16-chloroacetamide
     RDKit          3D

 19 20  0  0  0  0  0  0  0  0999 V2000
    7.3020   -2.9510   18.7430 C   0  0  0  0  0  0  0  0  0  0  0  0
    6.3440   -3.2160   19.8560 C   0  0  0  0  0  0  0  0  0  0  0  0
    5.4070   -4.0200   19.7110 O   0  0  0  0  0  0  0  0  0  0  0  0
    6.5950   -2.5260   21.0560 N   0  0  0  0  0  0  0  0  0  0  0  0
    7.5800   -1.4290   21.1530 C   0  0  0  0  0  0  0  0  0  0  0  0
    8.7810   -1.7910   22.0610 C   0  0  0  0  0  0  0  0  0  0  0  0
    8.3510   -2.4890   23.2890 N   0  0  0  0  0  0  0  0  0  0  0  0
    9.4990   -2.9570   24.1120 C   0  0  0  0  0  0  0  0  0  0  0  0
   10.0250   -1.9250   24.8170 F   0  0  0  0  0  0  0  0  0  0  0  0
   10.4850   -3.2870   23.2430 F   0  0  0  0  0  0  0  0  0  0  0  0
    9.1910   -4.1390   24.9890 N   0  0  0  0  0  0  0  0  0  0  0  0
    9.5140   -5.4200   24.6450 C   0  0  0  0  0  0  0  0  0  0  0  0
    8.5180   -5.8720   23.5990 C   0  0  0  0  0  0  0  0  0  0  0  0
    7.2390   -5.6230   24.1250 C   0  0  0  0  0  0  0  0  0  0  0  0
    7.0750   -5.7150   25.4840 O   0  0  0  0  0  0  0  0  0  0  0  0
    7.2470   -4.5420   26.2740 C   0  0  0  0  0  0  0  0  0  0  0  0
    8.5040   -3.9370   26.1670 C   0  0  0  0  0  0  0  0  0  0  0  0
    7.4160   -3.4840   23.1110 C   0  0  0  0  0  0  0  0  0  0  0  0
    6.2720   -3.1070   22.3850 C   0  0  0  0  0  0  0  0  0  0  0  0
  1  2  1  0
  2  3  2  0
  2  4  1  0
  4  5  1  0
  5  6  1  0
  6  7  1  0
  7  8  1  0
  8  9  1  0
  8 10  1  0
  8 11  1  0
 11 12  1  0
 12 13  1  0
 13 14  1  0
 14 15  1  0
 15 16  1  0
 11 17  1  0
 16 17  1  0
  7 18  1  0
  4 19  1  0
 18 19  1  0
M  END
