JOH-MSK-d60b0211-1-chloroacetamide
     RDKit          3D

 28 30  0  0  0  0  0  0  0  0999 V2000
    7.8460   -3.1930   19.2620 C   0  0  0  0  0  0  0  0  0  0  0  0
    7.5900   -3.5160   20.7010 C   0  0  0  0  0  0  0  0  0  0  0  0
    6.6760   -4.2200   19.9690 O   0  0  0  0  0  0  0  0  0  0  0  0
    8.8380   -2.4960   20.9590 C   0  0  0  0  0  0  0  0  0  0  0  0
    8.3520   -2.0250   22.1260 C   0  0  0  0  0  0  0  0  0  0  0  0
    7.5030   -1.8810   23.2000 C   0  0  0  0  0  0  0  0  0  0  0  0
    7.2230   -1.2470   24.3500 C   0  0  0  0  0  0  0  0  0  0  0  0
    5.9410   -1.0140   23.9550 N   0  0  0  0  0  0  0  0  0  0  0  0
    5.4010   -2.2410   23.6890 C   0  0  0  0  0  0  0  0  0  0  0  0
    5.2860   -2.9030   22.3650 C   0  0  0  0  0  0  0  0  0  0  0  0
    5.4990   -1.9810   21.2380 N   0  0  0  0  0  0  0  0  0  0  0  0
    5.5580   -2.4380   19.9210 C   0  0  0  0  0  0  0  0  0  0  0  0
    6.1060   -1.5040   18.8920 C   0  0  0  0  0  0  0  0  0  0  0  0
    5.1750   -3.5740   19.5900 O   0  0  0  0  0  0  0  0  0  0  0  0
    6.1470   -0.7810   21.5130 C   0  0  0  0  0  0  0  0  0  0  0  0
    5.8800   -0.1960   22.7570 C   0  0  0  0  0  0  0  0  0  0  0  0
    8.4920   -0.9380   23.4760 C   0  0  0  0  0  0  0  0  0  0  0  0
    8.6360    0.0070   24.5910 N   0  0  0  0  0  0  0  0  0  0  0  0
    9.8120    0.7740   24.4370 C   0  0  0  0  0  0  0  0  0  0  0  0
   10.4710    0.4250   23.3220 C   0  0  0  0  0  0  0  0  0  0  0  0
   11.7910    1.2240   23.0640 C   0  0  0  0  0  0  0  0  0  0  0  0
   11.7100    2.7830   22.9040 C   0  0  0  0  0  0  0  0  0  0  0  0
   10.5360    3.4710   23.4360 N   0  0  0  0  0  0  0  0  0  0  0  0
   10.5150    4.9310   23.6220 C   0  0  0  0  0  0  0  0  0  0  0  0
    9.4090    5.6560   22.8950 C   0  0  0  0  0  0  0  0  0  0  0  0
   11.3210    5.5500   24.3140 O   0  0  0  0  0  0  0  0  0  0  0  0
    9.6470   -0.6830   22.6730 C   0  0  0  0  0  0  0  0  0  0  0  0
    9.7830   -1.4700   21.4960 C   0  0  0  0  0  0  0  0  0  0  0  0
  1  2  1  0
  2  3  2  0
  2  4  1  0
  4  5  2  0
  5  6  1  0
  6  7  1  0
  7  8  1  0
  8  9  1  0
  9 10  1  0
 10 11  1  0
 11 12  1  0
 12 13  1  0
 12 14  2  0
 11 15  1  0
  8 16  1  0
 15 16  1  0
  6 17  2  0
 17 18  1  0
 18 19  1  0
 19 20  2  0
 20 21  1  0
 21 22  1  0
 22 23  1  0
 23 24  1  0
 24 25  1  0
 24 26  2  0
 17 27  1  0
 20 27  1  0
  4 28  1  0
 27 28  2  0
M  END
