JOH-UNI-27ac80fd-36-chloroacetamide
     RDKit          3D

 18 19  0  0  0  0  0  0  0  0999 V2000
    7.2800   -2.9680   18.7810 C   0  0  0  0  0  0  0  0  0  0  0  0
    6.3460   -3.3010   19.9010 C   0  0  0  0  0  0  0  0  0  0  0  0
    5.3990   -4.0680   19.7130 O   0  0  0  0  0  0  0  0  0  0  0  0
    6.6270   -2.7310   21.1240 N   0  0  0  0  0  0  0  0  0  0  0  0
    7.5850   -1.6110   21.2620 C   0  0  0  0  0  0  0  0  0  0  0  0
    8.7280   -1.9280   22.0190 C   0  0  0  0  0  0  0  0  0  0  0  0
    8.4060   -2.4940   23.3640 N   0  0  0  0  0  0  0  0  0  0  0  0
    9.5930   -2.8500   24.1970 C   0  0  0  0  0  0  0  0  0  0  0  0
   10.0270   -1.7410   24.8510 F   0  0  0  0  0  0  0  0  0  0  0  0
   10.6280   -3.2200   23.3990 F   0  0  0  0  0  0  0  0  0  0  0  0
    9.2180   -3.9240   25.2130 C   0  0  0  0  0  0  0  0  0  0  0  0
    9.8390   -5.2990   25.3640 C   0  0  0  0  0  0  0  0  0  0  0  0
    9.2300   -6.0830   26.4570 C   0  0  0  0  0  0  0  0  0  0  0  0
    8.1410   -5.2780   27.1190 C   0  0  0  0  0  0  0  0  0  0  0  0
    7.0600   -5.8700   28.5670 Br  0  0  0  0  0  0  0  0  0  0  0  0
    7.9210   -3.7060   26.4360 S   0  0  0  0  0  0  0  0  0  0  0  0
    7.4370   -3.6070   23.2270 C   0  0  0  0  0  0  0  0  0  0  0  0
    6.2050   -3.3520   22.3790 C   0  0  0  0  0  0  0  0  0  0  0  0
  1  2  1  0
  2  3  2  0
  2  4  1  0
  4  5  1  0
  5  6  1  0
  6  7  1  0
  7  8  1  0
  8  9  1  0
  8 10  1  0
  8 11  1  0
 11 12  2  0
 12 13  1  0
 13 14  2  0
 14 15  1  0
 11 16  1  0
 14 16  1  0
  7 17  1  0
  4 18  1  0
 17 18  1  0
M  END
