JOH-UNI-522b0723-7-chloroacetamide
     RDKit          3D

 26 28  0  0  0  0  0  0  0  0999 V2000
    7.9880   -3.5100   20.2370 C   0  0  0  0  0  0  0  0  0  0  0  0
    7.2200   -2.1540   20.1250 C   0  0  0  0  0  0  0  0  0  0  0  0
    6.7180   -2.7720   18.9920 O   0  0  0  0  0  0  0  0  0  0  0  0
    7.9550   -2.0770   21.5300 C   0  0  0  0  0  0  0  0  0  0  0  0
    8.1890   -3.3660   21.8020 N   0  0  0  0  0  0  0  0  0  0  0  0
    8.7520   -3.8210   23.0330 C   0  0  0  0  0  0  0  0  0  0  0  0
    9.0800   -2.7950   24.0670 C   0  0  0  0  0  0  0  0  0  0  0  0
    9.5690   -3.4800   25.2740 N   0  0  0  0  0  0  0  0  0  0  0  0
   10.2400   -4.6210   24.9240 C   0  0  0  0  0  0  0  0  0  0  0  0
    9.3200   -5.8450   24.8080 C   0  0  0  0  0  0  0  0  0  0  0  0
    8.0780   -5.3630   24.5700 N   0  0  0  0  0  0  0  0  0  0  0  0
    7.5970   -4.6640   25.6790 C   0  0  1  0  0  0  0  0  0  0  0  0
    6.9170   -5.5370   26.5120 C   0  0  0  0  0  0  0  0  0  0  0  0
    8.6190   -3.9520   26.3200 C   0  0  1  0  0  0  0  0  0  0  0  0
    9.3310   -4.6950   27.4200 C   0  0  0  0  0  0  0  0  0  0  0  0
    8.8680   -1.4380   23.7320 C   0  0  0  0  0  0  0  0  0  0  0  0
    8.3100   -1.0280   22.4580 C   0  0  0  0  0  0  0  0  0  0  0  0
    8.1210    0.4710   22.2480 C   0  0  0  0  0  0  0  0  0  0  0  0
    6.9630    0.8690   22.1490 O   0  0  0  0  0  0  0  0  0  0  0  0
    9.1450    1.3530   22.1730 N   0  0  0  0  0  0  0  0  0  0  0  0
    9.0690    2.4530   22.9600 C   0  0  0  0  0  0  0  0  0  0  0  0
    9.8780    3.5130   22.6190 C   0  0  0  0  0  0  0  0  0  0  0  0
    9.9180    4.7050   23.3130 C   0  0  0  0  0  0  0  0  0  0  0  0
    9.1110    4.8910   24.4250 C   0  0  0  0  0  0  0  0  0  0  0  0
    8.2650    3.8390   24.8210 C   0  0  0  0  0  0  0  0  0  0  0  0
    8.2530    2.6270   24.0820 C   0  0  0  0  0  0  0  0  0  0  0  0
  1  2  1  0
  2  3  2  0
  2  4  1  0
  4  5  2  0
  5  6  1  0
  6  7  2  0
  7  8  1  0
  8  9  1  0
  9 10  1  0
 10 11  1  0
 11 12  1  0
 12 13  1  1
  8 14  1  0
 12 14  1  0
 14 15  1  1
  7 16  1  0
  4 17  1  0
 16 17  2  0
 17 18  1  0
 18 19  2  0
 18 20  1  0
 20 21  1  0
 21 22  2  0
 22 23  1  0
 23 24  2  0
 24 25  1  0
 21 26  1  0
 25 26  2  0
M  END
