JOH-UNI-27ac80fd-33-chloroacetamide
     RDKit          3D

 19 21  0  0  0  0  0  0  0  0999 V2000
    7.3010   -2.9900   18.8010 C   0  0  0  0  0  0  0  0  0  0  0  0
    6.3400   -3.2970   19.9040 C   0  0  0  0  0  0  0  0  0  0  0  0
    5.3790   -4.0540   19.7210 O   0  0  0  0  0  0  0  0  0  0  0  0
    6.6180   -2.7080   21.1420 N   0  0  0  0  0  0  0  0  0  0  0  0
    7.5440   -1.5680   21.2290 C   0  0  0  0  0  0  0  0  0  0  0  0
    8.7940   -1.9160   22.0710 C   0  0  0  0  0  0  0  0  0  0  0  0
    8.4570   -2.6850   23.2840 N   0  0  0  0  0  0  0  0  0  0  0  0
    9.6320   -3.0380   24.1030 C   0  0  2  0  0  0  0  0  0  0  0  0
    9.1760   -3.9900   25.1870 C   0  0  0  0  0  0  0  0  0  0  0  0
    9.7670   -5.3570   25.4060 C   0  0  0  0  0  0  0  0  0  0  0  0
    9.1580   -6.0010   26.4570 C   0  0  0  0  0  0  0  0  0  0  0  0
    8.1580   -5.3030   27.0860 C   0  0  0  0  0  0  0  0  0  0  0  0
    7.1040   -5.8950   28.5520 Br  0  0  0  0  0  0  0  0  0  0  0  0
    7.9200   -3.7070   26.3520 S   0  0  0  0  0  0  0  0  0  0  0  0
   10.2860   -1.9110   24.5850 C   0  0  0  0  0  0  0  0  0  0  0  0
   11.3780   -2.2730   24.0100 C   0  0  0  0  0  0  0  0  0  0  0  0
   10.7800   -3.3900   23.5100 O   0  0  0  0  0  0  0  0  0  0  0  0
    7.5140   -3.7920   23.0100 C   0  0  0  0  0  0  0  0  0  0  0  0
    6.3220   -3.4270   22.3760 C   0  0  0  0  0  0  0  0  0  0  0  0
  1  2  1  0
  2  3  2  0
  2  4  1  0
  4  5  1  0
  5  6  1  0
  6  7  1  0
  7  8  1  0
  8  9  1  1
  9 10  2  0
 10 11  1  0
 11 12  2  0
 12 13  1  0
  9 14  1  0
 12 14  1  0
  8 15  1  0
 15 16  1  0
  8 17  1  0
 16 17  1  0
  7 18  1  0
  4 19  1  0
 18 19  1  0
M  END
