JOH-UNI-27ac80fd-17-vinylsulfonamide
     RDKit          3D

 20 21  0  0  0  0  0  0  0  0999 V2000
    7.2930   -5.3390   20.5070 C   0  0  0  0  0  0  0  0  0  0  0  0
    6.0250   -4.6460   20.8670 C   0  0  0  0  0  0  0  0  0  0  0  0
    5.6160   -4.6670   22.5750 S   0  0  0  0  0  0  0  0  0  0  0  0
    4.2930   -4.0590   22.5180 O   0  0  0  0  0  0  0  0  0  0  0  0
    5.8160   -6.0010   23.0810 O   0  0  0  0  0  0  0  0  0  0  0  0
    6.7900   -3.6520   23.3050 N   0  0  0  0  0  0  0  0  0  0  0  0
    6.4400   -2.2660   23.5920 C   0  0  0  0  0  0  0  0  0  0  0  0
    6.1610   -1.5130   22.4540 C   0  0  0  0  0  0  0  0  0  0  0  0
    7.0200   -1.8810   21.3260 N   0  0  0  0  0  0  0  0  0  0  0  0
    6.2780   -2.1620   20.0430 C   0  0  0  0  0  0  0  0  0  0  0  0
    5.4220   -3.3210   19.8490 O   0  0  0  0  0  0  0  0  0  0  0  0
    6.4960   -1.0960   19.0960 N   0  0  0  0  0  0  0  0  0  0  0  0
    5.6890    0.0060   19.5980 C   0  0  0  0  0  0  0  0  0  0  0  0
    5.9620    1.3180   18.9060 C   0  0  0  0  0  0  0  0  0  0  0  0
    5.7390    1.1360   17.4320 C   0  0  0  0  0  0  0  0  0  0  0  0
    6.9070    0.7150   16.7200 O   0  0  0  0  0  0  0  0  0  0  0  0
    7.1270   -0.6960   16.7390 C   0  0  0  0  0  0  0  0  0  0  0  0
    6.2440   -1.4090   17.7690 C   0  0  0  0  0  0  0  0  0  0  0  0
    8.1000   -2.5710   21.8240 C   0  0  0  0  0  0  0  0  0  0  0  0
    8.0730   -3.7170   22.6610 C   0  0  0  0  0  0  0  0  0  0  0  0
  1  2  1  0
  3  2  1  0
  3  4  2  0
  3  5  2  0
  3  6  1  0
  6  7  1  0
  7  8  1  0
  8  9  1  0
  9 10  1  0
 10 11  2  0
 10 12  1  0
 12 13  1  0
 13 14  1  0
 14 15  1  0
 15 16  1  0
 16 17  1  0
 12 18  1  0
 17 18  1  0
  9 19  1  0
  6 20  1  0
 19 20  1  0
M  END
