JOH-MSK-ec639444-2
     RDKit          3D

 19 21  0  0  0  0  0  0  0  0999 V2000
    8.4730    7.1950   22.0850 C   0  0  0  0  0  0  0  0  0  0  0  0
    8.7910    5.9700   22.9330 C   0  0  0  0  0  0  0  0  0  0  0  0
   10.2090    6.0280   23.5440 C   0  0  0  0  0  0  0  0  0  0  0  0
   10.4250    6.3170   24.7170 O   0  0  0  0  0  0  0  0  0  0  0  0
   11.2720    5.6990   22.5830 N   0  0  0  0  0  0  0  0  0  0  0  0
   12.4020    4.9270   23.1480 C   0  0  0  0  0  0  0  0  0  0  0  0
   12.4350    3.4620   22.7730 C   0  0  0  0  0  0  0  0  0  0  0  0
   11.2830    2.6760   22.9320 C   0  0  2  0  0  0  0  0  0  0  0  0
   10.3560    2.9350   23.9360 C   0  0  0  0  0  0  0  0  0  0  0  0
    9.7060    1.7400   24.3080 C   0  0  0  0  0  0  0  0  0  0  0  0
   10.5340    0.6830   23.9740 C   0  0  0  0  0  0  0  0  0  0  0  0
   10.4380   -0.6620   24.3650 C   0  0  0  0  0  0  0  0  0  0  0  0
   11.3950   -1.5770   23.9070 C   0  0  0  0  0  0  0  0  0  0  0  0
   12.4030   -1.1060   23.0880 C   0  0  0  0  0  0  0  0  0  0  0  0
   12.4530    0.2350   22.7340 C   0  0  0  0  0  0  0  0  0  0  0  0
   11.5310    1.1380   23.1580 C   0  0  0  0  0  0  0  0  0  0  0  0
   13.5920    0.2860   21.9230 C   0  0  0  0  0  0  0  0  0  0  0  0
   13.3770   -1.0610   21.5710 C   0  0  0  0  0  0  0  0  0  0  0  0
   13.3280   -1.7290   22.5770 O   0  0  0  0  0  0  0  0  0  0  0  0
  1  2  1  0
  2  3  1  0
  3  4  2  0
  3  5  1  0
  5  6  1  0
  6  7  1  0
  8  7  1  1
  8  9  1  0
  9 10  1  0
 10 11  1  0
 11 12  2  0
 12 13  1  0
 13 14  2  0
 14 15  1  0
  8 16  1  0
 11 16  1  0
 15 16  2  0
 15 17  1  0
 17 18  1  0
 14 19  1  0
 18 19  1  0
M  END
