JOH-UNI-27ac80fd-25-acrylamide
     RDKit          3D

 18 19  0  0  0  0  0  0  0  0999 V2000
    7.9130   -3.2340   19.1020 C   0  0  0  0  0  0  0  0  0  0  0  0
    6.7510   -2.3070   18.9820 C   0  0  0  0  0  0  0  0  0  0  0  0
    5.8960   -2.6110   20.1580 C   0  0  0  0  0  0  0  0  0  0  0  0
    4.8490   -3.2110   19.9940 O   0  0  0  0  0  0  0  0  0  0  0  0
    6.3690   -2.2770   21.4120 N   0  0  0  0  0  0  0  0  0  0  0  0
    6.1600   -3.1560   22.5590 C   0  0  0  0  0  0  0  0  0  0  0  0
    7.4830   -3.6560   23.1490 C   0  0  0  0  0  0  0  0  0  0  0  0
    8.4480   -2.5610   23.3180 N   0  0  0  0  0  0  0  0  0  0  0  0
    9.6320   -3.0020   24.0850 C   0  0  0  0  0  0  0  0  0  0  0  0
   10.7780   -2.6120   23.8650 O   0  0  0  0  0  0  0  0  0  0  0  0
    9.2420   -3.9980   25.1680 C   0  0  0  0  0  0  0  0  0  0  0  0
    9.8480   -5.2320   25.4060 C   0  0  0  0  0  0  0  0  0  0  0  0
    9.2780   -5.9280   26.4400 C   0  0  0  0  0  0  0  0  0  0  0  0
    8.2170   -5.2590   27.0400 C   0  0  0  0  0  0  0  0  0  0  0  0
    7.1630   -5.8850   28.4900 Br  0  0  0  0  0  0  0  0  0  0  0  0
    7.9280   -3.7570   26.3160 S   0  0  0  0  0  0  0  0  0  0  0  0
    8.6900   -1.9280   22.1080 C   0  0  0  0  0  0  0  0  0  0  0  0
    7.5360   -1.3310   21.5450 C   0  0  0  0  0  0  0  0  0  0  0  0
  1  2  1  0
  2  3  1  0
  3  4  2  0
  3  5  1  0
  5  6  1  0
  6  7  1  0
  7  8  1  0
  8  9  1  0
  9 10  2  0
  9 11  1  0
 11 12  2  0
 12 13  1  0
 13 14  2  0
 14 15  1  0
 11 16  1  0
 14 16  1  0
  8 17  1  0
  5 18  1  0
 17 18  1  0
M  END
