JOH-MSK-2d8052dc-1-chloroacetamide
     RDKit          3D

 31 34  0  0  0  0  0  0  0  0999 V2000
    7.4000   -3.0560   19.1600 C   0  0  0  0  0  0  0  0  0  0  0  0
    6.6320   -3.0000   20.5520 C   0  0  0  0  0  0  0  0  0  0  0  0
    6.3800   -4.2300   20.0870 O   0  0  0  0  0  0  0  0  0  0  0  0
    6.7260   -1.6790   19.8630 C   0  0  0  0  0  0  0  0  0  0  0  0
    5.7830   -2.4280   19.3090 C   0  0  0  0  0  0  0  0  0  0  0  0
    6.3400   -3.0880   20.7280 C   0  0  0  0  0  0  0  0  0  0  0  0
    5.9400   -4.3410   21.5170 C   0  0  2  0  0  0  0  0  0  0  0  0
    4.7420   -4.0240   22.3140 C   0  0  0  0  0  0  0  0  0  0  0  0
    4.4250   -5.3340   22.7460 N   0  0  0  0  0  0  0  0  0  0  0  0
    5.2370   -6.2200   22.0180 C   0  0  0  0  0  0  0  0  0  0  0  0
    6.0390   -7.0600   22.7800 C   0  0  0  0  0  0  0  0  0  0  0  0
    5.3270   -6.2590   20.6000 O   0  0  0  0  0  0  0  0  0  0  0  0
    4.8200   -5.2250   24.1120 C   0  0  0  0  0  0  0  0  0  0  0  0
    6.2140   -5.1510   24.0200 C   0  0  0  0  0  0  0  0  0  0  0  0
    6.9400   -5.5020   25.1820 C   0  0  0  0  0  0  0  0  0  0  0  0
    8.3210   -5.4860   25.1960 C   0  0  0  0  0  0  0  0  0  0  0  0
    9.1240   -5.0820   23.9660 C   0  0  0  0  0  0  0  0  0  0  0  0
    8.3890   -4.6890   22.6950 C   0  0  0  0  0  0  0  0  0  0  0  0
    6.8460   -4.7330   22.7490 C   0  0  0  0  0  0  0  0  0  0  0  0
    7.4470   -2.3600   21.4910 C   0  0  0  0  0  0  0  0  0  0  0  0
    8.0490   -2.7850   22.6830 N   0  0  0  0  0  0  0  0  0  0  0  0
    9.0100   -1.9370   23.1420 C   0  0  0  0  0  0  0  0  0  0  0  0
    9.0760   -0.8170   22.1920 C   0  0  0  0  0  0  0  0  0  0  0  0
   10.0980    0.2700   22.5400 C   0  0  0  0  0  0  0  0  0  0  0  0
    9.8690    1.7530   22.5370 C   0  0  0  0  0  0  0  0  0  0  0  0
   11.1330    2.4660   22.7250 N   0  0  0  0  0  0  0  0  0  0  0  0
   11.2060    3.8410   22.7290 C   0  0  0  0  0  0  0  0  0  0  0  0
   12.2520    4.4140   21.8010 C   0  0  0  0  0  0  0  0  0  0  0  0
   10.4960    4.5560   23.4280 O   0  0  0  0  0  0  0  0  0  0  0  0
    8.0960   -1.1040   21.1770 C   0  0  0  0  0  0  0  0  0  0  0  0
    7.5270   -0.6330   20.0430 C   0  0  0  0  0  0  0  0  0  0  0  0
  1  2  1  0
  2  3  2  0
  2  4  1  0
  4  5  2  0
  5  6  1  0
  7  6  1  1
  7  8  1  0
  8  9  1  0
  9 10  1  0
 10 11  1  0
 10 12  2  0
  9 13  1  0
 13 14  1  0
 14 15  2  0
 15 16  1  0
 16 17  2  0
 17 18  1  0
  7 19  1  0
 14 19  1  0
 18 19  2  0
  6 20  2  0
 20 21  1  0
 21 22  1  0
 22 23  2  0
 23 24  1  0
 24 25  1  0
 25 26  1  0
 26 27  1  0
 27 28  1  0
 27 29  2  0
 20 30  1  0
 23 30  1  0
  4 31  1  0
 30 31  2  0
M  END
