JOH-UNI-27ac80fd-15-nitrile
     RDKit          3D

 18 20  0  0  0  0  0  0  0  0999 V2000
    6.8350   -3.3900   19.8120 C   0  0  0  0  0  0  0  0  0  0  0  0
    5.7000   -3.6670   19.3270 N   0  0  0  0  0  0  0  0  0  0  0  0
    6.9180   -2.8760   21.0490 N   0  0  0  0  0  0  0  0  0  0  0  0
    7.6760   -1.7000   21.4600 C   0  0  0  0  0  0  0  0  0  0  0  0
    8.8250   -2.0690   22.1860 C   0  0  0  0  0  0  0  0  0  0  0  0
    8.3530   -2.7320   23.4420 N   0  0  0  0  0  0  0  0  0  0  0  0
    9.4700   -3.0040   24.3620 C   0  0  0  0  0  0  0  0  0  0  0  0
    9.1640   -3.9200   25.4730 N   0  0  0  0  0  0  0  0  0  0  0  0
    9.5430   -5.3000   25.2290 C   0  0  0  0  0  0  0  0  0  0  0  0
    9.2780   -6.2120   26.4100 C   0  0  0  0  0  0  0  0  0  0  0  0
    9.2540   -5.3570   27.6790 C   0  0  0  0  0  0  0  0  0  0  0  0
    8.1000   -5.2210   28.0360 O   0  0  0  0  0  0  0  0  0  0  0  0
    7.2740   -4.9200   26.9190 C   0  0  0  0  0  0  0  0  0  0  0  0
    7.8270   -3.7440   26.0860 C   0  0  0  0  0  0  0  0  0  0  0  0
   10.3200   -1.8370   24.6820 C   0  0  0  0  0  0  0  0  0  0  0  0
   10.9690   -2.8770   23.8600 C   0  0  0  0  0  0  0  0  0  0  0  0
    7.5770   -3.9310   23.1340 C   0  0  0  0  0  0  0  0  0  0  0  0
    6.4250   -3.5580   22.2360 C   0  0  0  0  0  0  0  0  0  0  0  0
  1  2  2  3
  1  3  1  0
  3  4  1  0
  4  5  1  0
  5  6  1  0
  7  6  1  0
  7  8  1  0
  8  9  1  0
  9 10  1  0
 10 11  1  0
 11 12  1  0
 12 13  1  0
  8 14  1  0
 13 14  1  0
  7 15  1  0
  7 16  1  0
 15 16  1  0
  6 17  1  0
  3 18  1  0
 17 18  1  0
M  END
