JOH-UNI-522b0723-7-vinylsulfonamide
     RDKit          3D

 28 30  0  0  0  0  0  0  0  0999 V2000
    7.8480   -3.5000   20.1230 C   0  0  0  0  0  0  0  0  0  0  0  0
    7.3540   -2.0450   19.8910 C   0  0  0  0  0  0  0  0  0  0  0  0
    6.0690   -1.9040   21.0950 S   0  0  0  0  0  0  0  0  0  0  0  0
    4.9760   -3.1100   21.0200 O   0  0  0  0  0  0  0  0  0  0  0  0
    5.6240   -0.5300   21.0410 O   0  0  0  0  0  0  0  0  0  0  0  0
    7.3150   -1.9740   22.4130 C   0  0  0  0  0  0  0  0  0  0  0  0
    7.5240   -3.0250   22.9280 N   0  0  0  0  0  0  0  0  0  0  0  0
    8.3090   -1.9310   23.4140 C   0  0  0  0  0  0  0  0  0  0  0  0
    8.5940   -3.0280   24.1390 C   0  0  0  0  0  0  0  0  0  0  0  0
    9.2850   -3.7030   25.1840 N   0  0  0  0  0  0  0  0  0  0  0  0
    9.8450   -4.8640   24.7300 C   0  0  0  0  0  0  0  0  0  0  0  0
    8.7790   -5.6280   23.9550 C   0  0  0  0  0  0  0  0  0  0  0  0
    7.5480   -5.2800   24.4390 N   0  0  0  0  0  0  0  0  0  0  0  0
    7.4440   -4.8950   25.8140 C   0  0  1  0  0  0  0  0  0  0  0  0
    7.2430   -5.9860   26.6180 C   0  0  0  0  0  0  0  0  0  0  0  0
    8.4620   -4.0870   26.3200 C   0  0  2  0  0  0  0  0  0  0  0  0
    8.0210   -2.8880   27.0960 C   0  0  0  0  0  0  0  0  0  0  0  0
    9.1710   -1.7310   24.3320 C   0  0  0  0  0  0  0  0  0  0  0  0
    8.2790   -1.1280   23.1680 C   0  0  0  0  0  0  0  0  0  0  0  0
    8.4760    0.3720   22.8890 C   0  0  0  0  0  0  0  0  0  0  0  0
    8.6250    0.7010   21.7160 O   0  0  0  0  0  0  0  0  0  0  0  0
    8.4740    1.2580   23.9080 N   0  0  0  0  0  0  0  0  0  0  0  0
    9.3590    2.2870   23.8190 C   0  0  0  0  0  0  0  0  0  0  0  0
   10.5090    2.0420   23.0740 C   0  0  0  0  0  0  0  0  0  0  0  0
   11.4870    3.0030   22.9130 C   0  0  0  0  0  0  0  0  0  0  0  0
   11.3420    4.2350   23.4870 C   0  0  0  0  0  0  0  0  0  0  0  0
   10.2260    4.5530   24.2420 C   0  0  0  0  0  0  0  0  0  0  0  0
    9.2180    3.5630   24.4120 C   0  0  0  0  0  0  0  0  0  0  0  0
  1  2  1  0
  3  2  1  0
  3  4  2  0
  3  5  2  0
  3  6  1  0
  6  7  2  0
  7  8  1  0
  8  9  2  0
  9 10  1  0
 10 11  1  0
 11 12  1  0
 12 13  1  0
 13 14  1  0
 14 15  1  1
 10 16  1  0
 14 16  1  0
 16 17  1  6
  9 18  1  0
  6 19  1  0
 18 19  2  0
 19 20  1  0
 20 21  2  0
 20 22  1  0
 22 23  1  0
 23 24  2  0
 24 25  1  0
 25 26  2  0
 26 27  1  0
 23 28  1  0
 27 28  2  0
M  END
