JOH-MEM-5e386bbd-2
     RDKit          3D

 18 19  0  0  0  0  0  0  0  0999 V2000
   13.3120   -2.1340   20.8990 C   0  0  0  0  0  0  0  0  0  0  0  0
   13.5280   -2.0000   22.2740 O   0  0  0  0  0  0  0  0  0  0  0  0
   12.6450   -1.1350   22.7540 C   0  0  0  0  0  0  0  0  0  0  0  0
   11.5560   -1.7090   23.4630 C   0  0  0  0  0  0  0  0  0  0  0  0
   10.5020   -0.7800   24.0420 C   0  0  0  0  0  0  0  0  0  0  0  0
   10.7280    0.7030   23.7840 C   0  0  0  0  0  0  0  0  0  0  0  0
   11.8560    1.2840   23.0310 C   0  0  0  0  0  0  0  0  0  0  0  0
   12.8470    0.2290   22.5240 C   0  0  0  0  0  0  0  0  0  0  0  0
   11.8020    2.6710   22.9530 C   0  0  1  0  0  0  0  0  0  0  0  0
   13.0080    2.8130   23.4360 O   0  0  0  0  0  0  0  0  0  0  0  0
   11.7690    3.7150   22.0490 C   0  0  0  0  0  0  0  0  0  0  0  0
   12.1830    4.8890   22.6960 C   0  0  0  0  0  0  0  0  0  0  0  0
   11.3420    5.8670   22.2470 N   0  0  0  0  0  0  0  0  0  0  0  0
   10.3170    6.2270   23.2400 C   0  0  0  0  0  0  0  0  0  0  0  0
    9.1020    6.5760   22.6460 C   0  0  0  0  0  0  0  0  0  0  0  0
   10.5040    6.2380   24.6540 O   0  0  0  0  0  0  0  0  0  0  0  0
   10.7110    2.9520   23.8800 C   0  0  0  0  0  0  0  0  0  0  0  0
    9.9360    1.8220   24.2020 N   0  0  0  0  0  0  0  0  0  0  0  0
  1  2  1  0
  2  3  1  0
  3  4  2  0
  4  5  1  0
  5  6  2  0
  6  7  1  0
  3  8  1  0
  7  8  2  0
  7  9  1  0
  9 10  1  1
  9 11  1  0
 11 12  1  0
 12 13  1  0
 13 14  1  0
 14 15  1  0
 14 16  2  0
  9 17  1  0
  6 18  1  0
 17 18  1  0
M  END
