JOH-UNI-27ac80fd-26-vinylsulfonamide
     RDKit          3D

 19 20  0  0  0  0  0  0  0  0999 V2000
    6.9940   -5.0730   20.2590 C   0  0  0  0  0  0  0  0  0  0  0  0
    6.8490   -4.1660   21.3870 C   0  0  0  0  0  0  0  0  0  0  0  0
    5.6950   -2.9510   20.9610 S   0  0  0  0  0  0  0  0  0  0  0  0
    4.5780   -3.1950   21.8300 O   0  0  0  0  0  0  0  0  0  0  0  0
    5.5640   -2.8220   19.5330 O   0  0  0  0  0  0  0  0  0  0  0  0
    6.4760   -1.7020   21.7110 N   0  0  0  0  0  0  0  0  0  0  0  0
    6.3640   -1.9570   23.1330 C   0  0  0  0  0  0  0  0  0  0  0  0
    7.3440   -2.8320   23.5830 C   0  0  0  0  0  0  0  0  0  0  0  0
    8.6570   -2.1520   23.5060 N   0  0  0  0  0  0  0  0  0  0  0  0
    9.7660   -2.8500   24.2360 C   0  0  0  0  0  0  0  0  0  0  0  0
   11.1310   -2.4550   23.9550 O   0  0  0  0  0  0  0  0  0  0  0  0
    9.3220   -3.9110   25.2460 C   0  0  0  0  0  0  0  0  0  0  0  0
    9.9290   -5.2720   25.4270 C   0  0  0  0  0  0  0  0  0  0  0  0
    9.2890   -6.0710   26.4810 C   0  0  0  0  0  0  0  0  0  0  0  0
    8.1620   -5.2860   27.1140 C   0  0  0  0  0  0  0  0  0  0  0  0
    7.0210   -5.8750   28.5170 Br  0  0  0  0  0  0  0  0  0  0  0  0
    8.0240   -3.7240   26.3770 S   0  0  0  0  0  0  0  0  0  0  0  0
    8.9480   -1.7090   22.1110 C   0  0  0  0  0  0  0  0  0  0  0  0
    7.7940   -1.2830   21.1780 C   0  0  0  0  0  0  0  0  0  0  0  0
  1  2  1  0
  3  2  1  0
  3  4  2  0
  3  5  2  0
  3  6  1  0
  6  7  1  0
  7  8  1  0
  8  9  1  0
  9 10  1  0
 10 11  2  0
 10 12  1  0
 12 13  2  0
 13 14  1  0
 14 15  2  0
 15 16  1  0
 12 17  1  0
 15 17  1  0
  9 18  1  0
  6 19  1  0
 18 19  1  0
M  END
