JOH-UNK-14e6adc5-2-vinylsulfonamide
     RDKit          3D

 21 22  0  0  0  0  0  0  0  0999 V2000
    6.2530   -3.6280   19.5060 C   0  0  0  0  0  0  0  0  0  0  0  0
    6.1380   -2.3240   20.2400 C   0  0  0  0  0  0  0  0  0  0  0  0
    5.6260   -2.5770   21.9120 S   0  0  0  0  0  0  0  0  0  0  0  0
    4.8350   -3.8100   21.9660 O   0  0  0  0  0  0  0  0  0  0  0  0
    5.0320   -1.3530   22.3960 O   0  0  0  0  0  0  0  0  0  0  0  0
    7.1750   -2.7940   22.8140 C   0  0  0  0  0  0  0  0  0  0  0  0
    7.3960   -3.3900   24.1370 C   0  0  0  0  0  0  0  0  0  0  0  0
    6.2410   -3.7280   24.5620 C   0  0  0  0  0  0  0  0  0  0  0  0
    6.4410   -3.0870   23.3580 C   0  0  0  0  0  0  0  0  0  0  0  0
    7.0270   -2.4300   22.2100 N   0  0  0  0  0  0  0  0  0  0  0  0
    7.4850   -0.9810   22.1060 C   0  0  0  0  0  0  0  0  0  0  0  0
    8.6540   -0.6280   22.2870 O   0  0  0  0  0  0  0  0  0  0  0  0
    6.4360   -0.1000   21.7950 N   0  0  0  0  0  0  0  0  0  0  0  0
    6.0440    0.3550   20.5400 C   0  0  0  0  0  0  0  0  0  0  0  0
    4.8700    1.0810   20.3010 C   0  0  0  0  0  0  0  0  0  0  0  0
    4.2710    1.6660   19.0210 C   0  0  0  0  0  0  0  0  0  0  0  0
    5.2230    1.3000   18.0130 C   0  0  0  0  0  0  0  0  0  0  0  0
    6.3810    0.5850   18.2130 N   0  0  0  0  0  0  0  0  0  0  0  0
    6.7920    0.1210   19.4300 C   0  0  0  0  0  0  0  0  0  0  0  0
    7.9040   -3.0930   23.6450 C   0  0  0  0  0  0  0  0  0  0  0  0
    8.4530   -2.5060   22.5310 C   0  0  0  0  0  0  0  0  0  0  0  0
  1  2  1  0
  3  2  1  0
  3  4  2  0
  3  5  2  0
  3  6  1  0
  6  7  2  0
  7  8  1  0
  8  9  2  0
  9 10  1  0
 10 11  1  0
 11 12  2  0
 11 13  1  0
 13 14  1  0
 14 15  2  0
 15 16  1  0
 16 17  2  0
 17 18  1  0
 14 19  1  0
 18 19  2  0
  9 20  1  0
  6 21  1  0
 20 21  2  0
M  END
