JOK-SYG-8934678c-1-vinylsulfonamide
     RDKit          3D

 21 22  0  0  0  0  0  0  0  0999 V2000
    8.1250   -3.5310   19.7590 C   0  0  0  0  0  0  0  0  0  0  0  0
    6.9390   -2.8280   19.1400 C   0  0  0  0  0  0  0  0  0  0  0  0
    5.6430   -3.5320   20.0640 S   0  0  0  0  0  0  0  0  0  0  0  0
    4.4360   -2.9850   19.6230 O   0  0  0  0  0  0  0  0  0  0  0  0
    5.7020   -4.9500   19.9620 O   0  0  0  0  0  0  0  0  0  0  0  0
    5.9770   -3.0340   21.6150 N   0  0  0  0  0  0  0  0  0  0  0  0
    5.7460   -3.9510   22.7300 C   0  0  0  0  0  0  0  0  0  0  0  0
    6.9940   -4.6080   23.3130 C   0  0  0  0  0  0  0  0  0  0  0  0
    8.1670   -3.8370   23.0990 O   0  0  0  0  0  0  0  0  0  0  0  0
    7.8780   -2.4370   23.0600 C   0  0  1  0  0  0  0  0  0  0  0  0
    9.1780   -1.7180   23.2830 C   0  0  0  0  0  0  0  0  0  0  0  0
   10.2020   -1.9020   22.1660 C   0  0  0  0  0  0  0  0  0  0  0  0
   11.5160   -1.2080   22.3640 C   0  0  0  0  0  0  0  0  0  0  0  0
   11.6340   -0.4170   23.6460 C   0  0  0  0  0  0  0  0  0  0  0  0
   12.7710    0.2340   23.8840 C   0  0  0  0  0  0  0  0  0  0  0  0
   12.6370    1.6250   23.5320 N   0  0  0  0  0  0  0  0  0  0  0  0
   13.5040    1.9490   22.4400 C   0  0  0  0  0  0  0  0  0  0  0  0
   11.2580    2.0100   23.2450 C   0  0  0  0  0  0  0  0  0  0  0  0
   10.6230   -0.3240   24.5890 C   0  0  0  0  0  0  0  0  0  0  0  0
    9.4250   -0.9570   24.4140 C   0  0  0  0  0  0  0  0  0  0  0  0
    7.0900   -2.0780   21.7910 C   0  0  0  0  0  0  0  0  0  0  0  0
  1  2  1  0
  3  2  1  0
  3  4  2  0
  3  5  2  0
  3  6  1  0
  6  7  1  0
  7  8  1  0
  8  9  1  0
  9 10  1  0
 10 11  1  6
 11 12  2  0
 12 13  1  0
 13 14  2  0
 14 15  1  0
 15 16  1  0
 16 17  1  0
 16 18  1  0
 14 19  1  0
 11 20  1  0
 19 20  2  0
  6 21  1  0
 10 21  1  0
M  END
