JOK-SYG-b9f02a42-2-acrylamide
     RDKit          3D

 30 32  0  0  0  0  0  0  0  0999 V2000
    7.2460   -2.7790   18.4270 C   0  0  0  0  0  0  0  0  0  0  0  0
    6.0340   -2.3730   19.2230 C   0  0  0  0  0  0  0  0  0  0  0  0
    5.6900   -3.3220   20.3250 C   0  0  0  0  0  0  0  0  0  0  0  0
    5.2310   -4.4340   20.0500 O   0  0  0  0  0  0  0  0  0  0  0  0
    5.9680   -2.7570   21.5510 N   0  0  0  0  0  0  0  0  0  0  0  0
    6.1500   -3.4510   22.7670 C   0  0  0  0  0  0  0  0  0  0  0  0
    7.3390   -3.3130   23.5020 C   0  0  0  0  0  0  0  0  0  0  0  0
    7.7790   -1.8970   23.6330 N   0  0  0  0  0  0  0  0  0  0  0  0
    9.0090   -1.7420   24.4180 C   0  0  0  0  0  0  0  0  0  0  0  0
   10.0590   -1.0380   23.8590 C   0  0  0  0  0  0  0  0  0  0  0  0
   11.1610   -1.8610   23.2250 C   0  0  0  0  0  0  0  0  0  0  0  0
   12.3410   -1.1200   22.6070 C   0  0  0  0  0  0  0  0  0  0  0  0
   13.4520   -1.8700   21.9580 C   0  0  0  0  0  0  0  0  0  0  0  0
   13.7630   -1.0870   20.6610 C   0  0  0  0  0  0  0  0  0  0  0  0
   14.7870   -1.2200   19.5400 N   0  0  0  0  0  0  0  0  0  0  0  0
   15.6990   -0.3030   18.7900 C   0  0  0  0  0  0  0  0  0  0  0  0
   12.3950    0.2760   22.6320 C   0  0  0  0  0  0  0  0  0  0  0  0
   11.2770    0.9960   23.2590 C   0  0  0  0  0  0  0  0  0  0  0  0
   11.1790    2.5030   23.3410 C   0  0  0  0  0  0  0  0  0  0  0  0
   12.1330    3.5500   22.8190 C   0  0  0  0  0  0  0  0  0  0  0  0
   11.9620    4.9190   23.4250 C   0  0  0  0  0  0  0  0  0  0  0  0
   11.0700    5.7760   22.6480 N   0  0  0  0  0  0  0  0  0  0  0  0
   10.1580    6.5720   23.2980 C   0  0  0  0  0  0  0  0  0  0  0  0
    8.9690    6.9410   22.4560 C   0  0  0  0  0  0  0  0  0  0  0  0
   10.2790    6.9550   24.4590 O   0  0  0  0  0  0  0  0  0  0  0  0
    9.9850    2.6870   24.0080 C   0  0  0  0  0  0  0  0  0  0  0  0
    9.4140    1.4420   24.2940 N   0  0  0  0  0  0  0  0  0  0  0  0
   10.1960    0.3840   23.8310 C   0  0  0  0  0  0  0  0  0  0  0  0
    7.8210   -1.3030   22.2900 C   0  0  0  0  0  0  0  0  0  0  0  0
    6.4210   -1.3570   21.6540 C   0  0  0  0  0  0  0  0  0  0  0  0
  1  2  1  0
  2  3  1  0
  3  4  2  0
  3  5  1  0
  5  6  1  0
  6  7  1  0
  7  8  1  0
  8  9  1  0
  9 10  1  0
 10 11  2  0
 11 12  1  0
 12 13  1  0
 13 14  1  0
 14 15  1  0
 15 16  1  0
 12 17  2  0
 17 18  1  0
 18 19  1  0
 19 20  1  0
 20 21  1  0
 21 22  1  0
 22 23  1  0
 23 24  1  0
 23 25  2  0
 19 26  2  0
 26 27  1  0
 10 28  1  0
 18 28  2  0
 27 28  1  0
  8 29  1  0
  5 30  1  0
 29 30  1  0
M  END
