JOK-SYG-b9f02a42-3-acrylamide
     RDKit          3D

 30 32  0  0  0  0  0  0  0  0999 V2000
    7.2960   -2.7850   18.3600 C   0  0  0  0  0  0  0  0  0  0  0  0
    6.1500   -2.2400   19.1440 C   0  0  0  0  0  0  0  0  0  0  0  0
    5.7900   -3.1460   20.2750 C   0  0  0  0  0  0  0  0  0  0  0  0
    5.2290   -4.2290   20.0500 O   0  0  0  0  0  0  0  0  0  0  0  0
    6.2210   -2.5880   21.4500 N   0  0  0  0  0  0  0  0  0  0  0  0
    6.3700   -3.2810   22.6850 C   0  0  0  0  0  0  0  0  0  0  0  0
    7.5310   -3.1560   23.4730 C   0  0  0  0  0  0  0  0  0  0  0  0
    7.9490   -1.7360   23.5540 N   0  0  0  0  0  0  0  0  0  0  0  0
    8.9830   -1.3620   24.5300 C   0  0  0  0  0  0  0  0  0  0  0  0
   10.0180   -0.6050   24.0030 C   0  0  0  0  0  0  0  0  0  0  0  0
   11.1130   -1.4160   23.4090 C   0  0  0  0  0  0  0  0  0  0  0  0
   12.2720   -0.6580   22.8260 C   0  0  0  0  0  0  0  0  0  0  0  0
   13.3240   -1.3880   22.2730 C   0  0  0  0  0  0  0  0  0  0  0  0
   13.4220   -2.6590   23.0460 C   0  0  0  0  0  0  0  0  0  0  0  0
   13.6480   -3.5310   22.0180 O   0  0  0  0  0  0  0  0  0  0  0  0
   13.5140   -2.8190   20.8160 C   0  0  0  0  0  0  0  0  0  0  0  0
   12.3810    0.6850   22.8010 C   0  0  0  0  0  0  0  0  0  0  0  0
   11.2920    1.3970   23.3760 C   0  0  0  0  0  0  0  0  0  0  0  0
   11.2980    2.8770   23.3860 C   0  0  0  0  0  0  0  0  0  0  0  0
   12.3690    3.7740   22.8160 C   0  0  0  0  0  0  0  0  0  0  0  0
   12.2990    5.2080   23.2330 C   0  0  0  0  0  0  0  0  0  0  0  0
   11.1870    5.8920   22.6030 N   0  0  0  0  0  0  0  0  0  0  0  0
   10.1410    6.3360   23.3610 C   0  0  0  0  0  0  0  0  0  0  0  0
    8.9140    6.6530   22.5470 C   0  0  0  0  0  0  0  0  0  0  0  0
   10.1860    6.4720   24.5810 O   0  0  0  0  0  0  0  0  0  0  0  0
   10.1000    3.1470   24.0270 C   0  0  0  0  0  0  0  0  0  0  0  0
    9.4520    1.9420   24.3520 N   0  0  0  0  0  0  0  0  0  0  0  0
   10.1840    0.8260   23.9450 C   0  0  0  0  0  0  0  0  0  0  0  0
    8.2440   -1.3240   22.1880 C   0  0  0  0  0  0  0  0  0  0  0  0
    6.9400   -1.2910   21.3900 C   0  0  0  0  0  0  0  0  0  0  0  0
  1  2  1  0
  2  3  1  0
  3  4  2  0
  3  5  1  0
  5  6  1  0
  6  7  1  0
  7  8  1  0
  8  9  1  0
  9 10  1  0
 10 11  2  0
 11 12  1  0
 12 13  1  0
 13 14  1  0
 14 15  1  0
 15 16  1  0
 12 17  2  0
 17 18  1  0
 18 19  1  0
 19 20  1  0
 20 21  1  0
 21 22  1  0
 22 23  1  0
 23 24  1  0
 23 25  2  0
 19 26  2  0
 26 27  1  0
 10 28  1  0
 18 28  2  0
 27 28  1  0
  8 29  1  0
  5 30  1  0
 29 30  1  0
M  END
