JOK-SYG-b9f02a42-2-chloroacetamide
     RDKit          3D

 29 31  0  0  0  0  0  0  0  0999 V2000
    7.1750   -3.0000   18.7960 C   0  0  0  0  0  0  0  0  0  0  0  0
    6.2420   -3.3630   19.9100 C   0  0  0  0  0  0  0  0  0  0  0  0
    5.3760   -4.2340   19.8080 O   0  0  0  0  0  0  0  0  0  0  0  0
    6.4550   -2.6220   21.1000 N   0  0  0  0  0  0  0  0  0  0  0  0
    6.3980   -3.3530   22.3740 C   0  0  0  0  0  0  0  0  0  0  0  0
    7.5100   -3.1280   23.2170 C   0  0  0  0  0  0  0  0  0  0  0  0
    7.8220   -1.8090   23.3290 N   0  0  0  0  0  0  0  0  0  0  0  0
    8.6940   -1.4640   24.4760 C   0  0  0  0  0  0  0  0  0  0  0  0
    9.9130   -0.7680   24.0770 C   0  0  0  0  0  0  0  0  0  0  0  0
   11.1010   -1.5580   23.7690 C   0  0  0  0  0  0  0  0  0  0  0  0
   12.2530   -0.9980   23.3750 C   0  0  0  0  0  0  0  0  0  0  0  0
   13.3300   -1.6520   23.0580 C   0  0  0  0  0  0  0  0  0  0  0  0
   13.4880   -0.7690   21.9140 C   0  0  0  0  0  0  0  0  0  0  0  0
   13.6610   -1.3000   20.7290 N   0  0  0  0  0  0  0  0  0  0  0  0
   12.9640   -2.5540   20.8680 C   0  0  0  0  0  0  0  0  0  0  0  0
   12.4330    0.3560   23.2170 C   0  0  0  0  0  0  0  0  0  0  0  0
   11.2950    1.2290   23.5020 C   0  0  0  0  0  0  0  0  0  0  0  0
   11.1760    2.5940   23.4150 C   0  0  0  0  0  0  0  0  0  0  0  0
   12.2710    3.5580   22.9370 C   0  0  0  0  0  0  0  0  0  0  0  0
   12.1230    4.8760   23.3920 C   0  0  0  0  0  0  0  0  0  0  0  0
   11.2210    5.6340   22.7210 N   0  0  0  0  0  0  0  0  0  0  0  0
   10.1300    6.2590   23.4320 C   0  0  0  0  0  0  0  0  0  0  0  0
    9.1230    6.6680   22.5550 C   0  0  0  0  0  0  0  0  0  0  0  0
   10.0800    6.4160   24.6510 O   0  0  0  0  0  0  0  0  0  0  0  0
    9.9040    2.9730   23.8110 C   0  0  0  0  0  0  0  0  0  0  0  0
    9.2870    1.7760   24.1070 N   0  0  0  0  0  0  0  0  0  0  0  0
   10.0970    0.6660   23.9250 C   0  0  0  0  0  0  0  0  0  0  0  0
    8.3410   -1.3320   22.0520 C   0  0  0  0  0  0  0  0  0  0  0  0
    7.1590   -1.3250   21.1030 C   0  0  0  0  0  0  0  0  0  0  0  0
  1  2  1  0
  2  3  2  0
  2  4  1  0
  4  5  1  0
  5  6  1  0
  6  7  1  0
  7  8  1  0
  8  9  1  0
  9 10  2  0
 10 11  1  0
 11 12  1  0
 12 13  1  0
 13 14  1  0
 14 15  1  0
 11 16  2  0
 16 17  1  0
 17 18  1  0
 18 19  1  0
 19 20  1  0
 20 21  1  0
 21 22  1  0
 22 23  1  0
 22 24  2  0
 18 25  2  0
 25 26  1  0
  9 27  1  0
 17 27  2  0
 26 27  1  0
  7 28  1  0
  4 29  1  0
 28 29  1  0
M  END
