JOK-SYG-b9f02a42-2-vinylsulfonamide
     RDKit          3D

 31 33  0  0  0  0  0  0  0  0999 V2000
    7.3790   -3.0870   18.9070 C   0  0  0  0  0  0  0  0  0  0  0  0
    5.9400   -2.7590   19.2140 C   0  0  0  0  0  0  0  0  0  0  0  0
    5.5570   -3.5390   20.7720 S   0  0  0  0  0  0  0  0  0  0  0  0
    4.5570   -2.8670   21.4320 O   0  0  0  0  0  0  0  0  0  0  0  0
    5.3600   -4.9730   20.7240 O   0  0  0  0  0  0  0  0  0  0  0  0
    6.8520   -3.0460   21.6670 N   0  0  0  0  0  0  0  0  0  0  0  0
    7.3140   -1.6960   21.5260 C   0  0  0  0  0  0  0  0  0  0  0  0
    8.3680   -1.3060   22.3370 C   0  0  0  0  0  0  0  0  0  0  0  0
    8.1710   -1.6720   23.7550 N   0  0  0  0  0  0  0  0  0  0  0  0
    9.2960   -1.3040   24.6380 C   0  0  0  0  0  0  0  0  0  0  0  0
   10.3180   -0.5500   24.1000 C   0  0  0  0  0  0  0  0  0  0  0  0
   11.3650   -1.2680   23.6300 C   0  0  0  0  0  0  0  0  0  0  0  0
   12.5220   -0.5870   23.0300 C   0  0  0  0  0  0  0  0  0  0  0  0
   13.5150   -1.5280   22.5770 C   0  0  0  0  0  0  0  0  0  0  0  0
   12.9470   -2.7050   22.0080 C   0  0  0  0  0  0  0  0  0  0  0  0
   11.9660   -2.3170   21.0220 N   0  0  0  0  0  0  0  0  0  0  0  0
   10.6730   -2.1280   21.6550 C   0  0  0  0  0  0  0  0  0  0  0  0
   12.6260    0.7590   22.9100 C   0  0  0  0  0  0  0  0  0  0  0  0
   11.5450    1.4900   23.3880 C   0  0  0  0  0  0  0  0  0  0  0  0
   11.3330    2.9280   23.3990 C   0  0  0  0  0  0  0  0  0  0  0  0
   12.4100    3.8370   22.8030 C   0  0  0  0  0  0  0  0  0  0  0  0
   12.4610    5.3080   23.0290 C   0  0  0  0  0  0  0  0  0  0  0  0
   11.2710    5.9470   22.4960 N   0  0  0  0  0  0  0  0  0  0  0  0
   10.2470    6.3100   23.3280 C   0  0  0  0  0  0  0  0  0  0  0  0
    8.9780    6.6220   22.5830 C   0  0  0  0  0  0  0  0  0  0  0  0
   10.3390    6.3820   24.5510 O   0  0  0  0  0  0  0  0  0  0  0  0
   10.1140    3.1380   23.9870 C   0  0  0  0  0  0  0  0  0  0  0  0
    9.5810    1.9050   24.3210 N   0  0  0  0  0  0  0  0  0  0  0  0
   10.4340    0.8670   23.9630 C   0  0  0  0  0  0  0  0  0  0  0  0
    7.9070   -3.1110   23.8780 C   0  0  0  0  0  0  0  0  0  0  0  0
    6.7480   -3.5920   23.0110 C   0  0  0  0  0  0  0  0  0  0  0  0
  1  2  1  0
  3  2  1  0
  3  4  2  0
  3  5  2  0
  3  6  1  0
  6  7  1  0
  7  8  1  0
  8  9  1  0
  9 10  1  0
 10 11  1  0
 11 12  2  0
 12 13  1  0
 13 14  1  0
 14 15  1  0
 15 16  1  0
 16 17  1  0
 13 18  2  0
 18 19  1  0
 19 20  1  0
 20 21  1  0
 21 22  1  0
 22 23  1  0
 23 24  1  0
 24 25  1  0
 24 26  2  0
 20 27  2  0
 27 28  1  0
 11 29  1  0
 19 29  2  0
 28 29  1  0
  9 30  1  0
  6 31  1  0
 30 31  1  0
M  END
