JOK-SYG-b9f02a42-3-chloroacetamide
     RDKit          3D

 29 31  0  0  0  0  0  0  0  0999 V2000
    7.2660   -3.0210   18.8660 C   0  0  0  0  0  0  0  0  0  0  0  0
    6.2720   -3.3520   19.9410 C   0  0  0  0  0  0  0  0  0  0  0  0
    5.4020   -4.2180   19.8100 O   0  0  0  0  0  0  0  0  0  0  0  0
    6.4220   -2.5870   21.1230 N   0  0  0  0  0  0  0  0  0  0  0  0
    6.3920   -3.3020   22.4050 C   0  0  0  0  0  0  0  0  0  0  0  0
    7.5730   -3.1540   23.1720 C   0  0  0  0  0  0  0  0  0  0  0  0
    8.0230   -1.8710   23.2530 N   0  0  0  0  0  0  0  0  0  0  0  0
    9.1220   -1.6650   24.2310 C   0  0  0  0  0  0  0  0  0  0  0  0
   10.2780   -0.9510   23.6660 C   0  0  0  0  0  0  0  0  0  0  0  0
   11.3760   -1.6660   22.9780 C   0  0  0  0  0  0  0  0  0  0  0  0
   12.4870   -1.0530   22.4320 C   0  0  0  0  0  0  0  0  0  0  0  0
   13.4860   -1.7360   21.8100 C   0  0  0  0  0  0  0  0  0  0  0  0
   13.2550   -3.1030   21.2340 C   0  0  0  0  0  0  0  0  0  0  0  0
   13.9750   -3.6430   20.3370 O   0  0  0  0  0  0  0  0  0  0  0  0
   14.8670   -4.7590   20.5200 C   0  0  0  0  0  0  0  0  0  0  0  0
   12.6630    0.3150   22.4920 C   0  0  0  0  0  0  0  0  0  0  0  0
   11.6080    1.1280   23.1360 C   0  0  0  0  0  0  0  0  0  0  0  0
   11.4430    2.4980   23.3290 C   0  0  0  0  0  0  0  0  0  0  0  0
   12.3980    3.5960   22.8430 C   0  0  0  0  0  0  0  0  0  0  0  0
   12.2150    4.8580   23.4390 C   0  0  0  0  0  0  0  0  0  0  0  0
   11.1750    5.4720   22.7480 N   0  0  0  0  0  0  0  0  0  0  0  0
   10.1170    6.1640   23.3600 C   0  0  0  0  0  0  0  0  0  0  0  0
    9.0990    6.6240   22.5280 C   0  0  0  0  0  0  0  0  0  0  0  0
   10.1010    6.3480   24.5790 O   0  0  0  0  0  0  0  0  0  0  0  0
   10.2470    2.6680   24.0220 C   0  0  0  0  0  0  0  0  0  0  0  0
    9.7030    1.4290   24.2200 N   0  0  0  0  0  0  0  0  0  0  0  0
   10.5210    0.4680   23.6730 C   0  0  0  0  0  0  0  0  0  0  0  0
    8.3930   -1.3960   21.9250 C   0  0  0  0  0  0  0  0  0  0  0  0
    7.1020   -1.2830   21.1360 C   0  0  0  0  0  0  0  0  0  0  0  0
  1  2  1  0
  2  3  2  0
  2  4  1  0
  4  5  1  0
  5  6  1  0
  6  7  1  0
  7  8  1  0
  8  9  1  0
  9 10  2  0
 10 11  1  0
 11 12  1  0
 12 13  1  0
 13 14  1  0
 14 15  1  0
 11 16  2  0
 16 17  1  0
 17 18  1  0
 18 19  1  0
 19 20  1  0
 20 21  1  0
 21 22  1  0
 22 23  1  0
 22 24  2  0
 18 25  2  0
 25 26  1  0
  9 27  1  0
 17 27  2  0
 26 27  1  0
  7 28  1  0
  4 29  1  0
 28 29  1  0
M  END
