JOK-SYG-8934678c-1-nitrile
     RDKit          3D

 18 19  0  0  0  0  0  0  0  0999 V2000
    6.7970   -3.4720   19.6400 C   0  0  0  0  0  0  0  0  0  0  0  0
    5.9020   -3.1360   18.8010 N   0  0  0  0  0  0  0  0  0  0  0  0
    6.6840   -3.2820   20.9960 N   0  0  0  0  0  0  0  0  0  0  0  0
    5.9370   -4.1310   21.9110 C   0  0  0  0  0  0  0  0  0  0  0  0
    6.8210   -4.6600   23.0290 C   0  0  0  0  0  0  0  0  0  0  0  0
    7.9910   -3.8920   23.2400 O   0  0  0  0  0  0  0  0  0  0  0  0
    7.8470   -2.4740   23.0630 C   0  0  1  0  0  0  0  0  0  0  0  0
    9.0650   -1.6530   23.2850 C   0  0  0  0  0  0  0  0  0  0  0  0
   10.0690   -1.9430   22.2030 C   0  0  0  0  0  0  0  0  0  0  0  0
   11.3470   -1.2090   22.3330 C   0  0  0  0  0  0  0  0  0  0  0  0
   11.4330   -0.2950   23.5180 C   0  0  0  0  0  0  0  0  0  0  0  0
   12.7620    0.2880   23.4980 C   0  0  0  0  0  0  0  0  0  0  0  0
   13.5690   -0.9060   23.2310 N   0  0  0  0  0  0  0  0  0  0  0  0
   13.2700   -1.9670   24.2180 C   0  0  0  0  0  0  0  0  0  0  0  0
   13.2280   -1.4300   21.9010 C   0  0  0  0  0  0  0  0  0  0  0  0
   10.4450   -0.0740   24.4630 C   0  0  0  0  0  0  0  0  0  0  0  0
    9.2560   -0.7560   24.3470 C   0  0  0  0  0  0  0  0  0  0  0  0
    7.3050   -2.1190   21.6520 C   0  0  0  0  0  0  0  0  0  0  0  0
  1  2  2  3
  1  3  1  0
  3  4  1  0
  4  5  1  0
  5  6  1  0
  6  7  1  0
  7  8  1  6
  8  9  2  0
  9 10  1  0
 10 11  2  0
 11 12  1  0
 12 13  1  0
 13 14  1  0
 13 15  1  0
 11 16  1  0
  8 17  1  0
 16 17  2  0
  3 18  1  0
  7 18  1  0
M  END
