JOK-SYG-a0b0bf84-1-chloroacetamide
     RDKit          3D

 18 18  0  0  0  0  0  0  0  0999 V2000
    8.1540   -3.6560   19.6840 C   0  0  0  0  0  0  0  0  0  0  0  0
    7.1800   -2.7440   20.1410 C   0  0  0  0  0  0  0  0  0  0  0  0
    6.1660   -2.8590   19.3050 O   0  0  0  0  0  0  0  0  0  0  0  0
    7.5090   -2.0090   21.3810 N   0  0  0  0  0  0  0  0  0  0  0  0
    8.3670   -2.4790   22.3530 C   0  0  2  0  0  0  0  0  0  0  0  0
    7.6960   -2.9210   23.6910 C   0  0  0  0  0  0  0  0  0  0  0  0
    8.6540   -3.2140   24.8030 N   0  0  0  0  0  0  0  0  0  0  0  0
    8.2860   -4.3280   26.0110 S   0  0  0  0  0  0  0  0  0  0  0  0
    6.5640   -4.7280   25.8150 C   0  0  0  0  0  0  0  0  0  0  0  0
    8.4330   -3.6710   27.2840 O   0  0  0  0  0  0  0  0  0  0  0  0
    9.0730   -5.5030   25.7360 O   0  0  0  0  0  0  0  0  0  0  0  0
    9.6810   -1.6850   22.6810 C   0  0  0  0  0  0  0  0  0  0  0  0
    9.8320   -0.5740   23.7550 C   0  0  0  0  0  0  0  0  0  0  0  0
   11.1020    0.0380   23.9510 C   0  0  0  0  0  0  0  0  0  0  0  0
   12.2070   -0.3470   23.1870 C   0  0  0  0  0  0  0  0  0  0  0  0
   12.0560   -1.3450   22.2280 C   0  0  0  0  0  0  0  0  0  0  0  0
   13.3640   -1.8490   21.2780 Cl  0  0  0  0  0  0  0  0  0  0  0  0
   10.8500   -1.9840   21.9860 C   0  0  0  0  0  0  0  0  0  0  0  0
  1  2  1  0
  2  3  2  0
  2  4  1  0
  4  5  1  0
  5  6  1  1
  6  7  1  0
  8  7  1  0
  8  9  1  0
  8 10  2  0
  8 11  2  0
  5 12  1  0
 12 13  2  0
 13 14  1  0
 14 15  2  0
 15 16  1  0
 16 17  1  0
 12 18  1  0
 16 18  2  0
M  END
