JOK-SYG-b9f02a42-2-nitrile
     RDKit          3D

 28 30  0  0  0  0  0  0  0  0999 V2000
    6.7010   -3.6530   19.9870 C   0  0  0  0  0  0  0  0  0  0  0  0
    5.7670   -4.5340   19.9190 N   0  0  0  0  0  0  0  0  0  0  0  0
    6.8260   -2.8490   21.1030 N   0  0  0  0  0  0  0  0  0  0  0  0
    6.5620   -3.3620   22.4530 C   0  0  0  0  0  0  0  0  0  0  0  0
    7.6640   -3.1030   23.2770 C   0  0  0  0  0  0  0  0  0  0  0  0
    8.0960   -1.6890   23.2180 N   0  0  0  0  0  0  0  0  0  0  0  0
    8.9140   -1.2420   24.3560 C   0  0  0  0  0  0  0  0  0  0  0  0
   10.0470   -0.5090   23.9740 C   0  0  0  0  0  0  0  0  0  0  0  0
   11.2510   -1.2820   23.7610 C   0  0  0  0  0  0  0  0  0  0  0  0
   12.5240   -0.7230   23.3650 C   0  0  0  0  0  0  0  0  0  0  0  0
   13.5730   -1.4620   23.2190 C   0  0  0  0  0  0  0  0  0  0  0  0
   13.4190   -2.7740   23.1100 C   0  0  0  0  0  0  0  0  0  0  0  0
   13.1160   -3.0120   21.8370 N   0  0  0  0  0  0  0  0  0  0  0  0
   12.5530   -2.1020   20.9880 C   0  0  0  0  0  0  0  0  0  0  0  0
   12.6480    0.6180   23.1450 C   0  0  0  0  0  0  0  0  0  0  0  0
   11.4310    1.4220   23.3630 C   0  0  0  0  0  0  0  0  0  0  0  0
   11.3250    2.8830   23.1950 C   0  0  0  0  0  0  0  0  0  0  0  0
   12.3690    3.7240   22.7730 C   0  0  0  0  0  0  0  0  0  0  0  0
   12.2050    5.2240   22.6830 C   0  0  0  0  0  0  0  0  0  0  0  0
   11.5580    5.8830   23.6870 N   0  0  0  0  0  0  0  0  0  0  0  0
   10.2070    6.2570   23.7620 C   0  0  0  0  0  0  0  0  0  0  0  0
    9.4530    6.5780   22.6230 C   0  0  0  0  0  0  0  0  0  0  0  0
    9.6710    6.3150   24.8620 O   0  0  0  0  0  0  0  0  0  0  0  0
   10.0310    3.2400   23.5180 C   0  0  0  0  0  0  0  0  0  0  0  0
    9.4020    2.0390   23.8440 N   0  0  0  0  0  0  0  0  0  0  0  0
   10.2130    0.9060   23.7590 C   0  0  0  0  0  0  0  0  0  0  0  0
    8.5800   -1.3760   21.9930 C   0  0  0  0  0  0  0  0  0  0  0  0
    7.3900   -1.4860   21.0380 C   0  0  0  0  0  0  0  0  0  0  0  0
  1  2  2  3
  1  3  1  0
  3  4  1  0
  4  5  1  0
  5  6  1  0
  6  7  1  0
  7  8  1  0
  8  9  2  0
  9 10  1  0
 10 11  1  0
 11 12  1  0
 12 13  1  0
 13 14  1  0
 10 15  2  0
 15 16  1  0
 16 17  1  0
 17 18  1  0
 18 19  1  0
 19 20  1  0
 20 21  1  0
 21 22  1  0
 21 23  2  0
 17 24  2  0
 24 25  1  0
  8 26  1  0
 16 26  2  0
 25 26  1  0
  6 27  1  0
  3 28  1  0
 27 28  1  0
M  END
