JOK-SYG-b9f02a42-1-nitrile
     RDKit          3D

 27 29  0  0  0  0  0  0  0  0999 V2000
    6.8390   -3.6520   19.9830 C   0  0  0  0  0  0  0  0  0  0  0  0
    5.8150   -4.4330   19.8850 N   0  0  0  0  0  0  0  0  0  0  0  0
    7.1560   -2.9380   21.1090 N   0  0  0  0  0  0  0  0  0  0  0  0
    7.3530   -1.4900   21.1630 C   0  0  0  0  0  0  0  0  0  0  0  0
    8.3580   -1.2560   22.0870 C   0  0  0  0  0  0  0  0  0  0  0  0
    7.9610   -1.6990   23.4310 N   0  0  0  0  0  0  0  0  0  0  0  0
    8.9970   -1.4860   24.4530 C   0  0  0  0  0  0  0  0  0  0  0  0
   10.1310   -0.8230   23.9790 C   0  0  0  0  0  0  0  0  0  0  0  0
   11.2410   -1.6390   23.5910 C   0  0  0  0  0  0  0  0  0  0  0  0
   12.4620   -1.0780   23.0890 C   0  0  0  0  0  0  0  0  0  0  0  0
   13.5240   -1.7600   22.7240 C   0  0  0  0  0  0  0  0  0  0  0  0
   12.9910   -2.8920   22.2440 N   0  0  0  0  0  0  0  0  0  0  0  0
   12.9760   -2.7520   20.8290 C   0  0  0  0  0  0  0  0  0  0  0  0
   12.6520    0.4080   22.9290 C   0  0  0  0  0  0  0  0  0  0  0  0
   11.4750    1.2550   23.3390 C   0  0  0  0  0  0  0  0  0  0  0  0
   11.3190    2.7380   23.3040 C   0  0  0  0  0  0  0  0  0  0  0  0
   12.3940    3.7030   22.7850 C   0  0  0  0  0  0  0  0  0  0  0  0
   12.2850    5.0370   23.1700 C   0  0  0  0  0  0  0  0  0  0  0  0
   11.3460    5.8140   22.5740 N   0  0  0  0  0  0  0  0  0  0  0  0
   10.3090    6.2410   23.3380 C   0  0  0  0  0  0  0  0  0  0  0  0
    9.1450    6.5880   22.6240 C   0  0  0  0  0  0  0  0  0  0  0  0
   10.3560    6.3280   24.5620 O   0  0  0  0  0  0  0  0  0  0  0  0
   10.0700    3.0590   23.7940 C   0  0  0  0  0  0  0  0  0  0  0  0
    9.5120    1.8260   24.0910 N   0  0  0  0  0  0  0  0  0  0  0  0
   10.3020    0.7090   23.8340 C   0  0  0  0  0  0  0  0  0  0  0  0
    7.4670   -2.9690   23.3920 C   0  0  0  0  0  0  0  0  0  0  0  0
    6.4690   -3.0820   22.4080 C   0  0  0  0  0  0  0  0  0  0  0  0
  1  2  2  3
  1  3  1  0
  3  4  1  0
  4  5  1  0
  5  6  1  0
  6  7  1  0
  7  8  1  0
  8  9  2  0
  9 10  1  0
 10 11  1  0
 11 12  1  0
 12 13  1  0
 10 14  2  0
 14 15  1  0
 15 16  1  0
 16 17  1  0
 17 18  1  0
 18 19  1  0
 19 20  1  0
 20 21  1  0
 20 22  2  0
 16 23  2  0
 23 24  1  0
  8 25  1  0
 15 25  2  0
 24 25  1  0
  6 26  1  0
  3 27  1  0
 26 27  1  0
M  END
