JOK-SYG-b9f02a42-1-chloroacetamide
     RDKit          3D

 28 30  0  0  0  0  0  0  0  0999 V2000
    7.1490   -3.0000   18.8300 C   0  0  0  0  0  0  0  0  0  0  0  0
    6.2480   -3.3770   19.9610 C   0  0  0  0  0  0  0  0  0  0  0  0
    5.3680   -4.2190   19.7790 O   0  0  0  0  0  0  0  0  0  0  0  0
    6.5250   -2.7200   21.1440 N   0  0  0  0  0  0  0  0  0  0  0  0
    6.4120   -3.2740   22.4620 C   0  0  0  0  0  0  0  0  0  0  0  0
    7.5250   -3.1430   23.3090 C   0  0  0  0  0  0  0  0  0  0  0  0
    8.0240   -1.7470   23.3280 N   0  0  0  0  0  0  0  0  0  0  0  0
    8.9770   -1.4380   24.4170 C   0  0  0  0  0  0  0  0  0  0  0  0
   10.1510   -0.8360   23.9860 C   0  0  0  0  0  0  0  0  0  0  0  0
   11.1550   -1.6970   23.7360 C   0  0  0  0  0  0  0  0  0  0  0  0
   12.4530   -1.2190   23.2720 C   0  0  0  0  0  0  0  0  0  0  0  0
   13.3280   -2.4240   23.1110 C   0  0  0  0  0  0  0  0  0  0  0  0
   13.2020   -2.9260   21.7960 N   0  0  0  0  0  0  0  0  0  0  0  0
   13.1280   -1.7940   20.9480 C   0  0  0  0  0  0  0  0  0  0  0  0
   12.7200    0.1520   23.0520 C   0  0  0  0  0  0  0  0  0  0  0  0
   11.6670    1.0740   23.3120 C   0  0  0  0  0  0  0  0  0  0  0  0
   11.5180    2.5200   23.2140 C   0  0  0  0  0  0  0  0  0  0  0  0
   12.5080    3.5490   22.7460 C   0  0  0  0  0  0  0  0  0  0  0  0
   12.2960    4.9600   23.3090 C   0  0  0  0  0  0  0  0  0  0  0  0
   11.1950    5.6490   22.6480 N   0  0  0  0  0  0  0  0  0  0  0  0
   10.2060    6.2320   23.3900 C   0  0  0  0  0  0  0  0  0  0  0  0
    9.0100    6.6600   22.5770 C   0  0  0  0  0  0  0  0  0  0  0  0
   10.2660    6.3930   24.6010 O   0  0  0  0  0  0  0  0  0  0  0  0
   10.2390    2.8050   23.6370 C   0  0  0  0  0  0  0  0  0  0  0  0
    9.6060    1.6400   23.9620 N   0  0  0  0  0  0  0  0  0  0  0  0
   10.4260    0.5550   23.7750 C   0  0  0  0  0  0  0  0  0  0  0  0
    8.4350   -1.3470   21.9930 C   0  0  0  0  0  0  0  0  0  0  0  0
    7.2290   -1.4210   21.0430 C   0  0  0  0  0  0  0  0  0  0  0  0
  1  2  1  0
  2  3  2  0
  2  4  1  0
  4  5  1  0
  5  6  1  0
  6  7  1  0
  7  8  1  0
  8  9  1  0
  9 10  2  0
 10 11  1  0
 11 12  1  0
 12 13  1  0
 13 14  1  0
 11 15  2  0
 15 16  1  0
 16 17  1  0
 17 18  1  0
 18 19  1  0
 19 20  1  0
 20 21  1  0
 21 22  1  0
 21 23  2  0
 17 24  2  0
 24 25  1  0
  9 26  1  0
 16 26  2  0
 25 26  1  0
  7 27  1  0
  4 28  1  0
 27 28  1  0
M  END
