JOK-SYG-b9f02a42-2-vinylsulfonamide
     RDKit          3D

 31 33  0  0  0  0  0  0  0  0999 V2000
    8.3340   -3.5740   19.9280 C   0  0  0  0  0  0  0  0  0  0  0  0
    7.1590   -2.7700   19.5670 C   0  0  0  0  0  0  0  0  0  0  0  0
    6.0970   -3.6110   20.6360 S   0  0  0  0  0  0  0  0  0  0  0  0
    5.0920   -4.1600   19.7540 O   0  0  0  0  0  0  0  0  0  0  0  0
    6.9130   -4.5230   21.4490 O   0  0  0  0  0  0  0  0  0  0  0  0
    5.5770   -2.3800   21.6830 N   0  0  0  0  0  0  0  0  0  0  0  0
    6.3240   -1.1190   21.6070 C   0  0  0  0  0  0  0  0  0  0  0  0
    7.4510   -1.0840   22.4500 C   0  0  0  0  0  0  0  0  0  0  0  0
    7.1390   -1.2870   23.7550 N   0  0  0  0  0  0  0  0  0  0  0  0
    8.1750   -0.9170   24.7580 C   0  0  0  0  0  0  0  0  0  0  0  0
    9.4650   -0.4760   24.2230 C   0  0  0  0  0  0  0  0  0  0  0  0
   10.5660   -1.3880   23.8750 C   0  0  0  0  0  0  0  0  0  0  0  0
   11.7940   -1.0570   23.3640 C   0  0  0  0  0  0  0  0  0  0  0  0
   12.7150   -2.0350   23.0700 C   0  0  0  0  0  0  0  0  0  0  0  0
   12.9980   -2.0470   21.6220 C   0  0  0  0  0  0  0  0  0  0  0  0
   13.5820   -0.9000   21.2590 N   0  0  0  0  0  0  0  0  0  0  0  0
   14.2290   -0.8710   19.9360 C   0  0  0  0  0  0  0  0  0  0  0  0
   12.0920    0.2860   23.1260 C   0  0  0  0  0  0  0  0  0  0  0  0
   11.0130    1.3010   23.4540 C   0  0  0  0  0  0  0  0  0  0  0  0
   10.9530    2.6830   23.3380 C   0  0  0  0  0  0  0  0  0  0  0  0
   12.0280    3.6040   22.7950 C   0  0  0  0  0  0  0  0  0  0  0  0
   11.9950    4.9280   23.2620 C   0  0  0  0  0  0  0  0  0  0  0  0
   11.2160    5.8390   22.6250 N   0  0  0  0  0  0  0  0  0  0  0  0
   10.2590    6.6490   23.3560 C   0  0  0  0  0  0  0  0  0  0  0  0
    9.1740    6.9820   22.5460 C   0  0  0  0  0  0  0  0  0  0  0  0
   10.3670    7.0000   24.5320 O   0  0  0  0  0  0  0  0  0  0  0  0
    9.7320    3.1660   23.7830 C   0  0  0  0  0  0  0  0  0  0  0  0
    9.0640    2.0430   24.1590 N   0  0  0  0  0  0  0  0  0  0  0  0
    9.7890    0.8860   23.9760 C   0  0  0  0  0  0  0  0  0  0  0  0
    6.6010   -2.6390   23.9460 C   0  0  0  0  0  0  0  0  0  0  0  0
    5.3780   -2.8890   23.0540 C   0  0  0  0  0  0  0  0  0  0  0  0
  1  2  1  0
  3  2  1  0
  3  4  2  0
  3  5  2  0
  3  6  1  0
  6  7  1  0
  7  8  1  0
  8  9  1  0
  9 10  1  0
 10 11  1  0
 11 12  2  0
 12 13  1  0
 13 14  1  0
 14 15  1  0
 15 16  1  0
 16 17  1  0
 13 18  2  0
 18 19  1  0
 19 20  1  0
 20 21  1  0
 21 22  1  0
 22 23  1  0
 23 24  1  0
 24 25  1  0
 24 26  2  0
 20 27  2  0
 27 28  1  0
 11 29  1  0
 19 29  2  0
 28 29  1  0
  9 30  1  0
  6 31  1  0
 30 31  1  0
M  END
