JOK-SYG-b9f02a42-3-vinylsulfonamide
     RDKit          3D

 31 33  0  0  0  0  0  0  0  0999 V2000
    7.9120   -3.2350   19.0680 C   0  0  0  0  0  0  0  0  0  0  0  0
    6.7630   -2.3780   18.6010 C   0  0  0  0  0  0  0  0  0  0  0  0
    5.5270   -2.4010   19.8110 S   0  0  0  0  0  0  0  0  0  0  0  0
    4.9450   -3.7170   19.6840 O   0  0  0  0  0  0  0  0  0  0  0  0
    4.7560   -1.1800   19.6900 O   0  0  0  0  0  0  0  0  0  0  0  0
    6.4800   -2.2390   21.1940 N   0  0  0  0  0  0  0  0  0  0  0  0
    7.5010   -1.2080   21.1500 C   0  0  0  0  0  0  0  0  0  0  0  0
    8.5310   -1.4680   22.0220 C   0  0  0  0  0  0  0  0  0  0  0  0
    8.0540   -1.7190   23.2440 N   0  0  0  0  0  0  0  0  0  0  0  0
    8.9940   -1.3270   24.2940 C   0  0  0  0  0  0  0  0  0  0  0  0
   10.2170   -0.7280   23.7640 C   0  0  0  0  0  0  0  0  0  0  0  0
   11.2720   -1.5360   23.1880 C   0  0  0  0  0  0  0  0  0  0  0  0
   12.4750   -1.1320   22.6910 C   0  0  0  0  0  0  0  0  0  0  0  0
   13.2950   -2.1410   22.2590 C   0  0  0  0  0  0  0  0  0  0  0  0
   13.4410   -2.4620   20.8110 C   0  0  0  0  0  0  0  0  0  0  0  0
   13.6880   -3.8720   20.3490 O   0  0  0  0  0  0  0  0  0  0  0  0
   14.8630   -4.7930   20.5100 C   0  0  0  0  0  0  0  0  0  0  0  0
   12.8150    0.2360   22.6730 C   0  0  0  0  0  0  0  0  0  0  0  0
   11.7680    1.1890   23.2400 C   0  0  0  0  0  0  0  0  0  0  0  0
   11.6480    2.5740   23.4340 C   0  0  0  0  0  0  0  0  0  0  0  0
   12.6800    3.6650   23.0900 C   0  0  0  0  0  0  0  0  0  0  0  0
   12.2650    5.0150   23.3170 C   0  0  0  0  0  0  0  0  0  0  0  0
   10.9450    5.1720   22.9010 N   0  0  0  0  0  0  0  0  0  0  0  0
   10.0590    6.0900   23.4690 C   0  0  0  0  0  0  0  0  0  0  0  0
    9.1490    6.6890   22.6010 C   0  0  0  0  0  0  0  0  0  0  0  0
   10.1050    6.3850   24.8760 O   0  0  0  0  0  0  0  0  0  0  0  0
   10.4120    2.8540   24.0200 C   0  0  0  0  0  0  0  0  0  0  0  0
    9.7890    1.6510   24.1880 N   0  0  0  0  0  0  0  0  0  0  0  0
   10.5910    0.6440   23.7240 C   0  0  0  0  0  0  0  0  0  0  0  0
    7.4850   -3.0660   23.3150 C   0  0  0  0  0  0  0  0  0  0  0  0
    6.2840   -3.1270   22.3660 C   0  0  0  0  0  0  0  0  0  0  0  0
  1  2  1  0
  3  2  1  0
  3  4  2  0
  3  5  2  0
  3  6  1  0
  6  7  1  0
  7  8  1  0
  8  9  1  0
  9 10  1  0
 10 11  1  0
 11 12  2  0
 12 13  1  0
 13 14  1  0
 14 15  1  0
 15 16  1  0
 16 17  1  0
 13 18  2  0
 18 19  1  0
 19 20  1  0
 20 21  1  0
 21 22  1  0
 22 23  1  0
 23 24  1  0
 24 25  1  0
 24 26  2  0
 20 27  2  0
 27 28  1  0
 11 29  1  0
 19 29  2  0
 28 29  1  0
  9 30  1  0
  6 31  1  0
 30 31  1  0
M  END
