JOK-SYG-b9f02a42-1-vinylsulfonamide
     RDKit          3D

 30 32  0  0  0  0  0  0  0  0999 V2000
    7.3080   -2.8360   18.3370 C   0  0  0  0  0  0  0  0  0  0  0  0
    6.3630   -2.2590   19.3610 C   0  0  0  0  0  0  0  0  0  0  0  0
    5.7790   -3.4350   20.5330 S   0  0  0  0  0  0  0  0  0  0  0  0
    4.6860   -2.9370   21.2800 O   0  0  0  0  0  0  0  0  0  0  0  0
    5.6730   -4.7610   19.9800 O   0  0  0  0  0  0  0  0  0  0  0  0
    6.9720   -3.1230   21.6160 N   0  0  0  0  0  0  0  0  0  0  0  0
    6.7550   -3.4950   22.9630 C   0  0  0  0  0  0  0  0  0  0  0  0
    7.6980   -3.0920   23.9080 C   0  0  0  0  0  0  0  0  0  0  0  0
    8.2700   -1.7360   23.6980 N   0  0  0  0  0  0  0  0  0  0  0  0
    9.3970   -1.4600   24.5850 C   0  0  0  0  0  0  0  0  0  0  0  0
   10.4100   -0.7520   23.9860 C   0  0  0  0  0  0  0  0  0  0  0  0
   11.3550   -1.5290   23.4030 C   0  0  0  0  0  0  0  0  0  0  0  0
   12.4910   -0.9030   22.7280 C   0  0  0  0  0  0  0  0  0  0  0  0
   13.4140   -1.8860   22.1350 C   0  0  0  0  0  0  0  0  0  0  0  0
   12.6710   -2.9410   21.5100 N   0  0  0  0  0  0  0  0  0  0  0  0
   13.5260   -3.6350   20.5820 C   0  0  0  0  0  0  0  0  0  0  0  0
   12.6490    0.4540   22.6640 C   0  0  0  0  0  0  0  0  0  0  0  0
   11.6830    1.2680   23.2400 C   0  0  0  0  0  0  0  0  0  0  0  0
   11.5470    2.6840   23.3150 C   0  0  0  0  0  0  0  0  0  0  0  0
   12.4970    3.6870   22.7220 C   0  0  0  0  0  0  0  0  0  0  0  0
   12.3360    5.1070   23.2500 C   0  0  0  0  0  0  0  0  0  0  0  0
   11.2340    5.8110   22.6210 N   0  0  0  0  0  0  0  0  0  0  0  0
   10.1850    6.2670   23.3700 C   0  0  0  0  0  0  0  0  0  0  0  0
    8.9710    6.6100   22.5510 C   0  0  0  0  0  0  0  0  0  0  0  0
   10.2210    6.3930   24.5920 O   0  0  0  0  0  0  0  0  0  0  0  0
   10.3870    2.9200   24.0150 C   0  0  0  0  0  0  0  0  0  0  0  0
    9.8220    1.7110   24.3560 N   0  0  0  0  0  0  0  0  0  0  0  0
   10.5890    0.6650   23.8910 C   0  0  0  0  0  0  0  0  0  0  0  0
    8.6730   -1.5220   22.3240 C   0  0  0  0  0  0  0  0  0  0  0  0
    7.4890   -1.7560   21.4230 C   0  0  0  0  0  0  0  0  0  0  0  0
  1  2  1  0
  3  2  1  0
  3  4  2  0
  3  5  2  0
  3  6  1  0
  6  7  1  0
  7  8  1  0
  8  9  1  0
  9 10  1  0
 10 11  1  0
 11 12  2  0
 12 13  1  0
 13 14  1  0
 14 15  1  0
 15 16  1  0
 13 17  2  0
 17 18  1  0
 18 19  1  0
 19 20  1  0
 20 21  1  0
 21 22  1  0
 22 23  1  0
 23 24  1  0
 23 25  2  0
 19 26  2  0
 26 27  1  0
 11 28  1  0
 18 28  2  0
 27 28  1  0
  9 29  1  0
  6 30  1  0
 29 30  1  0
M  END
