JOK-SYG-b9f02a42-2-chloroacetamide
     RDKit          3D

 29 31  0  0  0  0  0  0  0  0999 V2000
    7.1520   -2.9940   18.8360 C   0  0  0  0  0  0  0  0  0  0  0  0
    6.2430   -3.3670   19.9610 C   0  0  0  0  0  0  0  0  0  0  0  0
    5.3620   -4.2060   19.7780 O   0  0  0  0  0  0  0  0  0  0  0  0
    6.5330   -2.6990   21.1390 N   0  0  0  0  0  0  0  0  0  0  0  0
    6.3930   -3.2670   22.4470 C   0  0  0  0  0  0  0  0  0  0  0  0
    7.5220   -3.2270   23.2840 C   0  0  0  0  0  0  0  0  0  0  0  0
    8.0630   -1.8520   23.3950 N   0  0  0  0  0  0  0  0  0  0  0  0
    9.1800   -1.7160   24.3570 C   0  0  0  0  0  0  0  0  0  0  0  0
   10.2660   -1.0240   23.8480 C   0  0  0  0  0  0  0  0  0  0  0  0
   11.2430   -1.8190   23.3580 C   0  0  0  0  0  0  0  0  0  0  0  0
   12.4680   -1.2510   22.7770 C   0  0  0  0  0  0  0  0  0  0  0  0
   13.3390   -2.3980   22.3440 C   0  0  0  0  0  0  0  0  0  0  0  0
   13.5240   -2.6430   20.8580 C   0  0  0  0  0  0  0  0  0  0  0  0
   14.0030   -3.9890   20.2520 N   0  0  0  0  0  0  0  0  0  0  0  0
   15.1160   -4.9550   20.6110 C   0  0  0  0  0  0  0  0  0  0  0  0
   12.6840    0.1390   22.6950 C   0  0  0  0  0  0  0  0  0  0  0  0
   11.6350    0.9810   23.2140 C   0  0  0  0  0  0  0  0  0  0  0  0
   11.4380    2.4690   23.3170 C   0  0  0  0  0  0  0  0  0  0  0  0
   12.4540    3.4930   22.7910 C   0  0  0  0  0  0  0  0  0  0  0  0
   12.4660    4.9540   23.1490 C   0  0  0  0  0  0  0  0  0  0  0  0
   11.3370    5.6850   22.5830 N   0  0  0  0  0  0  0  0  0  0  0  0
   10.3280    6.1690   23.3770 C   0  0  0  0  0  0  0  0  0  0  0  0
    9.1180    6.5970   22.5930 C   0  0  0  0  0  0  0  0  0  0  0  0
   10.3860    6.2560   24.6010 O   0  0  0  0  0  0  0  0  0  0  0  0
   10.2280    2.6680   23.9310 C   0  0  0  0  0  0  0  0  0  0  0  0
    9.6690    1.4360   24.1930 N   0  0  0  0  0  0  0  0  0  0  0  0
   10.4790    0.3880   23.7730 C   0  0  0  0  0  0  0  0  0  0  0  0
    8.4390   -1.3870   22.0620 C   0  0  0  0  0  0  0  0  0  0  0  0
    7.2220   -1.3910   21.1240 C   0  0  0  0  0  0  0  0  0  0  0  0
  1  2  1  0
  2  3  2  0
  2  4  1  0
  4  5  1  0
  5  6  1  0
  6  7  1  0
  7  8  1  0
  8  9  1  0
  9 10  2  0
 10 11  1  0
 11 12  1  0
 12 13  1  0
 13 14  1  0
 14 15  1  0
 11 16  2  0
 16 17  1  0
 17 18  1  0
 18 19  1  0
 19 20  1  0
 20 21  1  0
 21 22  1  0
 22 23  1  0
 22 24  2  0
 18 25  2  0
 25 26  1  0
  9 27  1  0
 17 27  2  0
 26 27  1  0
  7 28  1  0
  4 29  1  0
 28 29  1  0
M  END
