JON-UNI-2a110085-3
     RDKit          3D

 30 32  0  0  0  0  0  0  0  0999 V2000
   13.4790   -2.4800   24.2670 C   0  0  0  0  0  0  0  0  0  0  0  0
   12.1140   -2.5540   23.7950 N   0  0  0  0  0  0  0  0  0  0  0  0
   11.0850   -2.7830   24.7930 C   0  0  0  0  0  0  0  0  0  0  0  0
   10.8760   -3.8490   25.3640 O   0  0  0  0  0  0  0  0  0  0  0  0
   10.2990   -1.4790   25.0200 C   0  0  2  0  0  0  0  0  0  0  0  0
    9.1150   -1.7050   25.9520 C   0  0  0  0  0  0  0  0  0  0  0  0
    7.8920   -1.1350   25.9060 N   0  0  0  0  0  0  0  0  0  0  0  0
    7.6500   -0.2420   24.9220 C   0  0  0  0  0  0  0  0  0  0  0  0
    6.4800    0.5140   24.9590 C   0  0  0  0  0  0  0  0  0  0  0  0
    5.3380   -0.0020   24.3320 C   0  0  0  0  0  0  0  0  0  0  0  0
    5.5960   -0.3610   22.9980 C   0  0  0  0  0  0  0  0  0  0  0  0
    5.1530    0.5000   21.9790 C   0  0  0  0  0  0  0  0  0  0  0  0
    5.4080    0.1310   20.6730 N   0  0  0  0  0  0  0  0  0  0  0  0
    6.0810   -1.0390   20.3010 C   0  0  0  0  0  0  0  0  0  0  0  0
    6.2340   -1.2190   18.9340 C   0  0  0  0  0  0  0  0  0  0  0  0
    7.3510   -1.6910   18.5220 N   0  0  0  0  0  0  0  0  0  0  0  0
    6.5530   -1.9400   21.3430 C   0  0  0  0  0  0  0  0  0  0  0  0
    7.2440   -3.1200   21.0130 C   0  0  0  0  0  0  0  0  0  0  0  0
    6.4250   -4.2520   20.9110 C   0  0  0  0  0  0  0  0  0  0  0  0
    5.5790   -4.4110   20.0150 O   0  0  0  0  0  0  0  0  0  0  0  0
    6.5990   -5.2320   21.8480 N   0  0  0  0  0  0  0  0  0  0  0  0
    7.1390   -4.7740   23.0960 C   0  0  0  0  0  0  0  0  0  0  0  0
    6.0390   -4.8150   23.9290 C   0  0  0  0  0  0  0  0  0  0  0  0
    4.9240   -5.4780   23.3770 C   0  0  1  0  0  0  0  0  0  0  0  0
    3.7830   -4.4620   23.2190 C   0  0  0  0  0  0  0  0  0  0  0  0
    5.5380   -6.1310   22.2080 C   0  0  0  0  0  0  0  0  0  0  0  0
    6.2860   -1.5600   22.6750 C   0  0  0  0  0  0  0  0  0  0  0  0
    8.5020   -0.0480   23.8770 C   0  0  0  0  0  0  0  0  0  0  0  0
    8.3050    0.8560   22.8540 N   0  0  0  0  0  0  0  0  0  0  0  0
    9.8160   -0.8570   23.7330 C   0  0  0  0  0  0  0  0  0  0  0  0
  1  2  1  0
  2  3  1  0
  3  4  2  0
  5  3  1  6
  5  6  1  0
  6  7  2  0
  7  8  1  0
  8  9  1  0
  9 10  1  0
 10 11  1  0
 11 12  2  0
 12 13  1  0
 13 14  2  0
 14 15  1  0
 15 16  3  0
 14 17  1  0
 17 18  1  0
 18 19  1  0
 19 20  2  0
 19 21  1  0
 21 22  1  0
 22 23  1  0
 23 24  1  0
 24 25  1  6
 21 26  1  0
 24 26  1  0
 11 27  1  0
 17 27  2  0
  8 28  2  0
 28 29  1  0
  5 30  1  0
 28 30  1  0
M  END
