JON-UNI-4b544d07-4
     RDKit          3D

 20 21  0  0  0  0  0  0  0  0999 V2000
    5.8750   -1.3090   18.8040 C   0  0  0  0  0  0  0  0  0  0  0  0
    6.6250   -2.6340   18.9500 C   0  0  0  0  0  0  0  0  0  0  0  0
    7.5380   -2.7070   20.1900 C   0  0  1  0  0  0  0  0  0  0  0  0
    8.2080   -1.4460   20.4420 N   0  0  0  0  0  0  0  0  0  0  0  0
    6.7010   -3.1210   21.3730 C   0  0  1  0  0  0  0  0  0  0  0  0
    5.8610   -4.3250   20.9910 C   0  0  0  0  0  0  0  0  0  0  0  0
    7.2850   -3.3090   22.6160 C   0  0  2  0  0  0  0  0  0  0  0  0
    6.3810   -4.1880   23.1130 N   0  0  0  0  0  0  0  0  0  0  0  0
    5.7210   -3.5120   24.1900 C   0  0  0  0  0  0  0  0  0  0  0  0
    6.3360   -2.2860   24.3280 C   0  0  1  0  0  0  0  0  0  0  0  0
    6.5770   -2.0410   25.6800 C   0  0  1  0  0  0  0  0  0  0  0  0
    7.5840   -1.1450   26.0430 C   0  0  0  0  0  0  0  0  0  0  0  0
    5.2400   -1.7800   26.4250 C   0  0  1  0  0  0  0  0  0  0  0  0
    4.1860   -1.3000   25.6350 C   0  0  0  0  0  0  0  0  0  0  0  0
    2.8710   -1.5000   26.0710 C   0  0  0  0  0  0  0  0  0  0  0  0
    2.6700   -2.1230   27.2950 C   0  0  1  0  0  0  0  0  0  0  0  0
    1.5480   -2.4270   27.6610 O   0  0  0  0  0  0  0  0  0  0  0  0
    3.6030   -3.1330   27.5570 C   0  0  0  0  0  0  0  0  0  0  0  0
    4.9290   -2.8780   27.2430 C   0  0  0  0  0  0  0  0  0  0  0  0
    7.4740   -2.1770   23.4670 N   0  0  0  0  0  0  0  0  0  0  0  0
  1  2  1  0
  2  3  1  0
  3  4  1  1
  3  5  1  0
  5  6  1  6
  5  7  1  0
  7  8  1  1
  8  9  2  0
 10  9  1  1
 10 11  1  0
 11 12  1  6
 11 13  1  0
 13 14  1  6
 14 15  1  0
 15 16  1  0
 16 17  1  6
 16 18  1  0
 13 19  1  0
 18 19  1  0
  7 20  1  0
 10 20  1  0
M  END
