JON-UIO-cc955e79-7
     RDKit          3D

 17 17  0  0  0  0  0  0  0  0999 V2000
   10.9490    4.6030   24.1300 C   0  0  0  0  0  0  0  0  0  0  0  0
   10.0830    3.5280   24.2750 N   0  0  0  0  0  0  0  0  0  0  0  0
   10.2210    2.3360   23.3970 C   0  0  0  0  0  0  0  0  0  0  0  0
    9.8740    2.3160   22.2230 O   0  0  0  0  0  0  0  0  0  0  0  0
   10.7740    1.2710   24.0700 N   0  0  0  0  0  0  0  0  0  0  0  0
   11.1700    0.1750   23.4480 C   0  0  0  0  0  0  0  0  0  0  0  0
   10.3560   -0.9870   22.9140 C   0  0  0  0  0  0  0  0  0  0  0  0
    8.9400   -1.0650   23.0100 C   0  0  2  0  0  0  0  0  0  0  0  0
    8.4510   -1.4950   24.2390 C   0  0  0  0  0  0  0  0  0  0  0  0
    8.4100   -2.0380   21.9360 C   0  0  0  0  0  0  0  0  0  0  0  0
    8.1800   -3.4060   22.2390 O   0  0  0  0  0  0  0  0  0  0  0  0
    8.1300   -1.4830   20.7060 N   0  0  0  0  0  0  0  0  0  0  0  0
    7.5490   -0.1580   20.5130 C   0  0  0  0  0  0  0  0  0  0  0  0
   11.1760   -1.9410   22.3390 C   0  0  0  0  0  0  0  0  0  0  0  0
   12.6310   -1.5010   22.4620 C   0  0  1  0  0  0  0  0  0  0  0  0
   13.3360   -1.7890   21.2440 O   0  0  0  0  0  0  0  0  0  0  0  0
   12.6720   -0.1130   23.1440 C   0  0  0  0  0  0  0  0  0  0  0  0
  1  2  1  0
  2  3  1  0
  3  4  2  0
  3  5  1  0
  5  6  1  0
  6  7  2  0
  7  8  1  0
  8  9  1  1
  8 10  1  0
 10 11  2  0
 10 12  1  0
 12 13  1  0
  7 14  1  0
 14 15  1  0
 15 16  1  6
  6 17  1  0
 15 17  1  0
M  END
