JON-UNI-4b544d07-3
     RDKit          3D

 16 17  0  0  0  0  0  0  0  0999 V2000
    6.0180   -7.1260   29.4660 C   0  0  0  0  0  0  0  0  0  0  0  0
    6.6910   -5.9250   28.3480 S   0  0  0  0  0  0  0  0  0  0  0  0
    6.4750   -6.3710   26.9970 O   0  0  0  0  0  0  0  0  0  0  0  0
    7.9960   -5.5070   28.7990 O   0  0  0  0  0  0  0  0  0  0  0  0
    5.5950   -4.5710   28.6150 C   0  0  2  0  0  0  0  0  0  0  0  0
    4.1300   -5.0010   28.8230 C   0  0  0  0  0  0  0  0  0  0  0  0
    3.2050   -3.8000   28.8270 C   0  0  0  0  0  0  0  0  0  0  0  0
    3.5190   -2.9100   27.6580 C   0  0  0  0  0  0  0  0  0  0  0  0
    2.5170   -2.1130   27.1130 C   0  0  0  0  0  0  0  0  0  0  0  0
    0.8660   -2.1140   27.7530 Cl  0  0  0  0  0  0  0  0  0  0  0  0
    2.7880   -1.2790   26.0350 C   0  0  0  0  0  0  0  0  0  0  0  0
    4.0690   -1.2370   25.4890 C   0  0  0  0  0  0  0  0  0  0  0  0
    5.0800   -2.0290   26.0210 C   0  0  0  0  0  0  0  0  0  0  0  0
    4.8220   -2.8690   27.1030 C   0  0  0  0  0  0  0  0  0  0  0  0
    5.8670   -3.6460   27.6030 C   0  0  2  0  0  0  0  0  0  0  0  0
    6.4360   -4.3860   26.5470 N   0  0  0  0  0  0  0  0  0  0  0  0
  2  1  1  0
  2  3  2  0
  2  4  2  0
  5  2  1  6
  5  6  1  0
  6  7  1  0
  7  8  1  0
  8  9  1  0
  9 10  1  0
  9 11  2  0
 11 12  1  0
 12 13  2  0
  8 14  2  0
 13 14  1  0
  5 15  1  0
 14 15  1  0
 15 16  1  6
M  END
