JON-UIO-cc955e79-8-nitrile
     RDKit          3D

 31 33  0  0  0  0  0  0  0  0999 V2000
    8.1890   -3.5900   19.9040 C   0  0  0  0  0  0  0  0  0  0  0  0
    6.9540   -3.4710   19.3770 N   0  0  0  0  0  0  0  0  0  0  0  0
    9.0090   -2.6930   20.9830 C   0  0  0  0  0  0  0  0  0  0  0  0
   10.5060   -3.0090   21.2960 C   0  0  0  0  0  0  0  0  0  0  0  0
   11.3170   -2.1830   22.2690 C   0  0  0  0  0  0  0  0  0  0  0  0
   10.5270   -1.8050   23.3460 C   0  0  0  0  0  0  0  0  0  0  0  0
    9.4330   -1.1150   22.8840 C   0  0  0  0  0  0  0  0  0  0  0  0
    8.6750   -1.4950   21.7630 C   0  0  0  0  0  0  0  0  0  0  0  0
    7.7050   -0.5370   21.5360 C   0  0  0  0  0  0  0  0  0  0  0  0
    6.8680   -0.6970   20.5230 N   0  0  0  0  0  0  0  0  0  0  0  0
    5.9000    0.3510   20.3700 C   0  0  0  0  0  0  0  0  0  0  0  0
    4.5520   -0.2940   19.5040 S   0  0  0  0  0  0  0  0  0  0  0  0
    5.3370   -1.9210   19.2870 C   0  0  0  0  0  0  0  0  0  0  0  0
    5.2100   -3.0470   20.3320 C   0  0  0  0  0  0  0  0  0  0  0  0
    5.2090   -4.1940   19.8840 O   0  0  0  0  0  0  0  0  0  0  0  0
    5.1000   -2.8310   21.6240 N   0  0  0  0  0  0  0  0  0  0  0  0
    5.2190   -3.7720   22.6540 C   0  0  0  0  0  0  0  0  0  0  0  0
    5.5730   -5.0820   22.3590 C   0  0  0  0  0  0  0  0  0  0  0  0
    5.7240   -6.0310   23.3330 C   0  0  0  0  0  0  0  0  0  0  0  0
    6.2650   -5.5200   24.4490 N   0  0  0  0  0  0  0  0  0  0  0  0
    5.9310   -4.2360   24.8090 C   0  0  0  0  0  0  0  0  0  0  0  0
    4.9960   -3.4740   24.0370 C   0  0  2  0  0  0  0  0  0  0  0  0
    3.6370   -3.3610   24.4330 C   0  0  0  0  0  0  0  0  0  0  0  0
    3.4910   -3.3520   25.7650 F   0  0  0  0  0  0  0  0  0  0  0  0
    2.9240   -4.4320   23.9820 F   0  0  0  0  0  0  0  0  0  0  0  0
    5.9960    1.5530   20.8050 N   0  0  0  0  0  0  0  0  0  0  0  0
    7.2440    1.8140   21.5130 C   0  0  1  0  0  0  0  0  0  0  0  0
    7.2020    2.8650   22.1510 O   0  0  0  0  0  0  0  0  0  0  0  0
    7.6510    0.6970   22.4310 C   0  0  1  0  0  0  0  0  0  0  0  0
    6.6200    0.5270   23.5170 C   0  0  0  0  0  0  0  0  0  0  0  0
    5.8600    0.4610   24.3920 N   0  0  0  0  0  0  0  0  0  0  0  0
  1  2  2  3
  1  3  1  0
  3  4  2  0
  4  5  1  0
  5  6  1  0
  6  7  1  0
  3  8  1  0
  7  8  2  0
  8  9  1  0
  9 10  2  0
 10 11  1  0
 11 12  1  0
 12 13  1  0
 13 14  1  0
 14 15  2  0
 14 16  1  0
 16 17  1  0
 17 18  2  0
 18 19  1  0
 19 20  1  0
 20 21  2  0
 17 22  1  0
 21 22  1  0
 22 23  1  1
 23 24  1  0
 23 25  1  0
 11 26  2  0
 26 27  1  0
 27 28  1  1
  9 29  1  0
 27 29  1  0
 29 30  1  1
 30 31  3  0
M  END
