JON-UNI-4b544d07-2
     RDKit          3D

 36 39  0  0  0  0  0  0  0  0999 V2000
    0.8730    1.5420   22.5360 C   0  0  0  0  0  0  0  0  0  0  0  0
    0.9440    1.5280   23.9930 N   0  0  0  0  0  0  0  0  0  0  0  0
    0.4620    0.3260   24.6810 C   0  0  0  0  0  0  0  0  0  0  0  0
   -0.5850   -0.2510   24.4060 O   0  0  0  0  0  0  0  0  0  0  0  0
    1.4510   -0.1170   25.7900 C   0  0  1  0  0  0  0  0  0  0  0  0
    0.9830   -1.4200   26.4340 C   0  0  0  0  0  0  0  0  0  0  0  0
    1.9840   -2.4850   26.7160 C   0  0  0  0  0  0  0  0  0  0  0  0
    3.3250   -2.3440   26.4170 C   0  0  0  0  0  0  0  0  0  0  0  0
    4.2430   -3.3150   26.8490 C   0  0  0  0  0  0  0  0  0  0  0  0
    3.9820   -4.6700   26.7830 C   0  0  0  0  0  0  0  0  0  0  0  0
    4.9200   -5.5290   27.2430 O   0  0  0  0  0  0  0  0  0  0  0  0
    5.6040   -5.1980   28.3850 C   0  0  1  0  0  0  0  0  0  0  0  0
    6.7720   -5.9490   28.5220 C   0  0  0  0  0  0  0  0  0  0  0  0
    5.9770   -3.6850   28.4170 C   0  0  0  0  0  0  0  0  0  0  0  0
    5.4600   -2.9050   27.3770 N   0  0  0  0  0  0  0  0  0  0  0  0
    6.2340   -1.8860   26.7560 C   0  0  0  0  0  0  0  0  0  0  0  0
    6.6610   -0.9060   27.3630 O   0  0  0  0  0  0  0  0  0  0  0  0
    6.5040   -2.0480   25.4330 N   0  0  0  0  0  0  0  0  0  0  0  0
    6.3740   -0.9660   24.5670 C   0  0  0  0  0  0  0  0  0  0  0  0
    7.3100   -1.1990   23.5710 C   0  0  0  0  0  0  0  0  0  0  0  0
    7.0090   -2.2320   22.7480 N   0  0  0  0  0  0  0  0  0  0  0  0
    5.9930   -2.0820   21.8390 C   0  0  2  0  0  0  0  0  0  0  0  0
    6.6510   -2.9540   21.0340 C   0  0  0  0  0  0  0  0  0  0  0  0
    7.2520   -2.1800   20.0720 C   0  0  0  0  0  0  0  0  0  0  0  0
    7.2550   -0.6970   20.4990 C   0  0  0  0  0  0  0  0  0  0  0  0
    5.8740   -0.8340   21.2150 C   0  0  1  0  0  0  0  0  0  0  0  0
    4.7620   -0.7380   20.1960 N   0  0  0  0  0  0  0  0  0  0  0  0
    4.3280    0.6290   19.8620 C   0  0  0  0  0  0  0  0  0  0  0  0
    4.9390   -1.5090   18.9170 C   0  0  0  0  0  0  0  0  0  0  0  0
    4.3180   -2.9940   18.8640 C   0  0  0  0  0  0  0  0  0  0  0  0
    2.2850   -3.6240   17.7530 O   0  0  0  0  0  0  0  0  0  0  0  0
    0.8320   -3.5550   16.8060 C   0  0  0  0  0  0  0  0  0  0  0  0
    6.9320   -3.4150   23.4620 C   0  0  0  0  0  0  0  0  0  0  0  0
    6.2130   -3.3240   24.7920 C   0  0  0  0  0  0  0  0  0  0  0  0
    3.8170   -1.2960   25.7000 N   0  0  0  0  0  0  0  0  0  0  0  0
    2.8740   -0.2460   25.1790 C   0  0  0  0  0  0  0  0  0  0  0  0
  1  2  1  0
  2  3  1  0
  3  4  2  0
  5  3  1  6
  5  6  1  0
  6  7  2  0
  7  8  1  0
  8  9  1  0
  9 10  2  0
 10 11  1  0
 11 12  1  0
 12 13  1  6
 12 14  1  0
  9 15  1  0
 14 15  1  0
 15 16  1  0
 16 17  2  0
 16 18  1  0
 18 19  1  0
 19 20  1  0
 20 21  1  0
 22 21  1  1
 22 23  1  0
 23 24  1  0
 24 25  1  0
 22 26  1  0
 25 26  1  0
 26 27  1  6
 27 28  1  0
 27 29  1  0
 29 30  1  0
 30 31  1  0
 31 32  1  0
 21 33  1  0
 18 34  1  0
 33 34  1  0
  8 35  2  0
  5 36  1  0
 35 36  1  0
M  END
