JON-UNI-2a110085-5
     RDKit          3D

 35 38  0  0  0  0  0  0  0  0999 V2000
    6.0490   -7.4380   29.8380 C   0  0  0  0  0  0  0  0  0  0  0  0
    5.2520   -6.3870   30.6070 C   0  0  0  0  0  0  0  0  0  0  0  0
    3.8990   -6.3950   30.3590 N   0  0  0  0  0  0  0  0  0  0  0  0
    3.3870   -7.3090   29.3620 C   0  0  0  0  0  0  0  0  0  0  0  0
    2.6740   -8.2650   29.6300 O   0  0  0  0  0  0  0  0  0  0  0  0
    3.8540   -6.9770   27.9370 C   0  0  0  0  0  0  0  0  0  0  0  0
    4.9210   -5.9320   27.8580 C   0  0  0  0  0  0  0  0  0  0  0  0
    5.4280   -5.5440   26.6430 C   0  0  0  0  0  0  0  0  0  0  0  0
    4.9830   -6.0890   25.4490 C   0  0  0  0  0  0  0  0  0  0  0  0
    5.5750   -5.6020   24.3010 N   0  0  0  0  0  0  0  0  0  0  0  0
    5.0270   -5.7120   23.0060 C   0  0  0  0  0  0  0  0  0  0  0  0
    5.8490   -5.3770   21.9320 C   0  0  0  0  0  0  0  0  0  0  0  0
    6.2660   -4.0570   22.1050 N   0  0  0  0  0  0  0  0  0  0  0  0
    6.6660   -3.1830   21.0540 C   0  0  2  0  0  0  0  0  0  0  0  0
    8.0270   -2.7920   21.0410 C   0  0  0  0  0  0  0  0  0  0  0  0
    9.1150   -2.3080   21.2550 O   0  0  0  0  0  0  0  0  0  0  0  0
    7.7430   -2.0910   22.1000 N   0  0  0  0  0  0  0  0  0  0  0  0
    8.7680   -1.2230   22.3200 C   0  0  0  0  0  0  0  0  0  0  0  0
   10.0020   -1.8320   22.5850 C   0  0  0  0  0  0  0  0  0  0  0  0
   11.1320   -1.0750   22.8140 C   0  0  0  0  0  0  0  0  0  0  0  0
   11.0610    0.3080   22.7890 C   0  0  0  0  0  0  0  0  0  0  0  0
   12.4960    1.2110   23.0700 Cl  0  0  0  0  0  0  0  0  0  0  0  0
    9.8500    0.9180   22.5380 C   0  0  0  0  0  0  0  0  0  0  0  0
    8.6940    0.1830   22.3010 C   0  0  0  0  0  0  0  0  0  0  0  0
    5.8020   -2.0960   20.8090 C   0  0  1  0  0  0  0  0  0  0  0  0
    6.2710   -0.7440   21.4080 C   0  0  0  0  0  0  0  0  0  0  0  0
    5.0680    0.0370   20.8360 C   0  0  0  0  0  0  0  0  0  0  0  0
    5.9910    0.5670   19.7330 C   0  0  2  0  0  0  0  0  0  0  0  0
    5.4400    1.6340   19.1000 O   0  0  0  0  0  0  0  0  0  0  0  0
    6.2190   -0.5710   18.7270 C   0  0  0  0  0  0  0  0  0  0  0  0
    5.6960   -1.8980   19.2680 C   0  0  0  0  0  0  0  0  0  0  0  0
    7.1610   -4.0050   23.3000 C   0  0  0  0  0  0  0  0  0  0  0  0
    6.9690   -5.0940   24.3240 C   0  0  0  0  0  0  0  0  0  0  0  0
    3.9730   -7.0840   25.5130 C   0  0  0  0  0  0  0  0  0  0  0  0
    3.4100   -7.5270   26.7260 C   0  0  0  0  0  0  0  0  0  0  0  0
  1  2  1  0
  2  3  1  0
  3  4  1  0
  4  5  2  0
  4  6  1  0
  6  7  2  0
  7  8  1  0
  8  9  2  0
  9 10  1  0
 10 11  1  0
 11 12  1  0
 12 13  1  0
 13 14  1  0
 14 15  1  1
 15 16  2  0
 15 17  1  0
 17 18  1  0
 18 19  2  0
 19 20  1  0
 20 21  2  0
 21 22  1  0
 21 23  1  0
 18 24  1  0
 23 24  2  0
 14 25  1  0
 25 26  1  1
 26 27  1  0
 27 28  1  0
 28 29  1  6
 28 30  1  0
 25 31  1  0
 30 31  1  0
 13 32  1  0
 10 33  1  0
 32 33  1  0
  9 34  1  0
  6 35  1  0
 34 35  2  0
M  END
