JON-UIO-cc955e79-1
     RDKit          3D

 25 26  0  0  0  0  0  0  0  0999 V2000
    7.7800    1.3110   21.1600 C   0  0  0  0  0  0  0  0  0  0  0  0
    6.6540    0.7920   22.0250 C   0  0  0  0  0  0  0  0  0  0  0  0
    6.9620   -0.3690   22.9850 C   0  0  2  0  0  0  0  0  0  0  0  0
    5.8800   -0.4700   24.0720 C   0  0  2  0  0  0  0  0  0  0  0  0
    4.6510   -1.0150   23.7720 N   0  0  0  0  0  0  0  0  0  0  0  0
    3.6680   -0.1360   24.0680 C   0  0  0  0  0  0  0  0  0  0  0  0
    4.1150    1.0190   24.5760 C   0  0  0  0  0  0  0  0  0  0  0  0
    5.4870    0.9230   24.6300 C   0  0  0  0  0  0  0  0  0  0  0  0
    6.3620    1.9190   25.1130 C   0  0  0  0  0  0  0  0  0  0  0  0
    5.6280    2.8010   25.9550 O   0  0  0  0  0  0  0  0  0  0  0  0
    8.2200   -0.4900   23.6780 C   0  0  1  0  0  0  0  0  0  0  0  0
    7.9750   -0.2950   25.0780 O   0  0  0  0  0  0  0  0  0  0  0  0
    9.0030   -1.7620   23.2950 C   0  0  0  0  0  0  0  0  0  0  0  0
   10.3240   -0.9390   23.1750 C   0  0  0  0  0  0  0  0  0  0  0  0
   11.4230   -1.4490   22.5050 C   0  0  0  0  0  0  0  0  0  0  0  0
   11.5520   -2.5850   21.9210 C   0  0  0  0  0  0  0  0  0  0  0  0
   12.8780   -2.8120   21.6220 O   0  0  0  0  0  0  0  0  0  0  0  0
   12.6040   -0.6760   22.4440 N   0  0  0  0  0  0  0  0  0  0  0  0
   12.7450    0.4940   23.0250 C   0  0  0  0  0  0  0  0  0  0  0  0
   13.6810    1.4000   22.7450 O   0  0  0  0  0  0  0  0  0  0  0  0
   11.7980    0.7340   23.9880 C   0  0  0  0  0  0  0  0  0  0  0  0
   10.4990    0.3080   23.7370 C   0  0  0  0  0  0  0  0  0  0  0  0
    8.4510   -2.2660   22.1030 C   0  0  0  0  0  0  0  0  0  0  0  0
    8.1920   -1.5380   20.7860 C   0  0  0  0  0  0  0  0  0  0  0  0
    7.9620   -3.9070   22.0690 Cl  0  0  0  0  0  0  0  0  0  0  0  0
  1  2  1  0
  3  2  1  1
  3  4  1  0
  4  5  1  6
  5  6  2  0
  6  7  1  0
  4  8  1  0
  7  8  2  0
  8  9  1  0
  9 10  1  0
  3 11  1  0
 11 12  1  1
 11 13  1  0
 13 14  1  0
 14 15  2  0
 15 16  1  0
 16 17  1  0
 15 18  1  0
 18 19  1  0
 19 20  2  0
 19 21  1  0
 14 22  1  0
 21 22  1  0
 13 23  2  3
 23 24  1  0
 23 25  1  0
M  END
