JON-UNI-2a110085-1
     RDKit          3D

 32 35  0  0  0  0  0  0  0  0999 V2000
    7.2040   -2.9660   20.7710 C   0  0  0  0  0  0  0  0  0  0  0  0
    6.2980   -4.1960   20.7870 C   0  0  0  0  0  0  0  0  0  0  0  0
    5.4670   -4.4000   19.8980 O   0  0  0  0  0  0  0  0  0  0  0  0
    6.5090   -5.0230   21.8660 N   0  0  0  0  0  0  0  0  0  0  0  0
    5.7300   -6.2280   22.0250 C   0  0  0  0  0  0  0  0  0  0  0  0
    4.7550   -6.0520   23.1820 C   0  0  0  0  0  0  0  0  0  0  0  0
    5.1170   -5.2860   24.2340 N   0  0  0  0  0  0  0  0  0  0  0  0
    4.4130   -5.4620   25.3730 C   0  0  0  0  0  0  0  0  0  0  0  0
    4.5500   -6.5390   25.9620 O   0  0  0  0  0  0  0  0  0  0  0  0
    3.5360   -4.4810   25.8580 C   0  0  0  0  0  0  0  0  0  0  0  0
    3.8460   -3.1460   25.5780 C   0  0  0  0  0  0  0  0  0  0  0  0
    2.9430   -2.2740   26.1900 C   0  0  2  0  0  0  0  0  0  0  0  0
    1.6440   -2.7990   26.2350 C   0  0  0  0  0  0  0  0  0  0  0  0
    0.7730   -1.8550   25.7530 C   0  0  0  0  0  0  0  0  0  0  0  0
    1.5050   -0.6690   25.6060 C   0  0  0  0  0  0  0  0  0  0  0  0
    2.8640   -0.9390   25.7700 C   0  0  2  0  0  0  0  0  0  0  0  0
    3.6870   -0.5110   24.7210 C   0  0  0  0  0  0  0  0  0  0  0  0
    4.3340    0.7080   24.8790 C   0  0  2  0  0  0  0  0  0  0  0  0
    3.8830    1.7420   24.0290 C   0  0  0  0  0  0  0  0  0  0  0  0
    4.9170    2.5940   23.6380 C   0  0  0  0  0  0  0  0  0  0  0  0
    6.1170    2.1200   24.1470 C   0  0  0  0  0  0  0  0  0  0  0  0
    5.7250    0.8560   24.9120 C   0  0  1  0  0  0  0  0  0  0  0  0
    6.4020    1.2520   26.2520 C   0  0  2  0  0  0  0  0  0  0  0  0
    5.6110    2.5610   26.4520 C   0  0  0  0  0  0  0  0  0  0  0  0
    7.9650    1.3500   26.2890 C   0  0  0  0  0  0  0  0  0  0  0  0
    8.7340    0.8770   25.0220 C   0  0  0  0  0  0  0  0  0  0  0  0
    9.0210   -0.6270   24.9530 C   0  0  0  0  0  0  0  0  0  0  0  0
    9.5180   -1.1110   26.1920 O   0  0  0  0  0  0  0  0  0  0  0  0
    8.6410   -0.8220   27.2760 C   0  0  0  0  0  0  0  0  0  0  0  0
    8.5300    0.6570   27.5390 C   0  0  0  0  0  0  0  0  0  0  0  0
    6.5350   -4.8960   24.3040 C   0  0  0  0  0  0  0  0  0  0  0  0
    7.0710   -4.4140   23.1110 C   0  0  0  0  0  0  0  0  0  0  0  0
  1  2  1  0
  2  3  2  0
  2  4  1  0
  4  5  1  0
  5  6  1  0
  6  7  1  0
  7  8  1  0
  8  9  2  0
  8 10  1  0
 10 11  1  0
 12 11  1  6
 12 13  1  0
 13 14  1  0
 14 15  1  0
 12 16  1  0
 15 16  1  0
 16 17  1  6
 18 17  1  6
 18 19  1  0
 19 20  1  0
 20 21  1  0
 18 22  1  0
 22 21  1  6
 22 23  1  0
 23 24  1  6
 23 25  1  0
 25 26  1  0
 26 27  1  0
 27 28  1  0
 28 29  1  0
 25 30  1  0
 29 30  1  0
  7 31  1  0
  4 32  1  0
 31 32  1  0
M  END
