JON-UIO-f971c856-7
     RDKit          3D

 23 24  0  0  0  0  0  0  0  0999 V2000
   15.8070   -5.0690   22.1520 C   0  0  0  0  0  0  0  0  0  0  0  0
   15.2430   -3.8690   23.1780 N   0  0  0  0  0  0  0  0  0  0  0  0
   13.9580   -3.0460   23.1380 C   0  0  0  0  0  0  0  0  0  0  0  0
   13.2900   -3.0040   22.1230 O   0  0  0  0  0  0  0  0  0  0  0  0
   13.5180   -2.1100   24.2320 C   0  0  0  0  0  0  0  0  0  0  0  0
   12.3180   -1.3740   24.4350 C   0  0  0  0  0  0  0  0  0  0  0  0
   11.2830   -1.6480   23.3770 C   0  0  0  0  0  0  0  0  0  0  0  0
   11.9180   -0.4280   25.3290 C   0  0  0  0  0  0  0  0  0  0  0  0
   11.8110    0.3550   24.0430 C   0  0  0  0  0  0  0  0  0  0  0  0
   11.8110   -0.7760   22.9040 C   0  0  2  0  0  0  0  0  0  0  0  0
   10.3760   -0.8750   22.2870 C   0  0  2  0  0  0  0  0  0  0  0  0
    9.2350   -0.4010   22.9800 C   0  0  0  0  0  0  0  0  0  0  0  0
    8.5080    0.3220   22.2990 O   0  0  0  0  0  0  0  0  0  0  0  0
   10.0580   -2.3190   21.8390 C   0  0  0  0  0  0  0  0  0  0  0  0
   10.1230   -3.2740   22.9490 N   0  0  0  0  0  0  0  0  0  0  0  0
    8.8050   -3.3890   23.5940 C   0  0  0  0  0  0  0  0  0  0  0  0
    8.4390   -4.6900   23.9670 C   0  0  0  0  0  0  0  0  0  0  0  0
    7.0100   -4.6600   24.9080 S   0  0  0  0  0  0  0  0  0  0  0  0
    5.9020   -5.3830   23.8740 N   0  0  0  0  0  0  0  0  0  0  0  0
    7.1240   -5.5640   26.0270 O   0  0  0  0  0  0  0  0  0  0  0  0
    6.5410   -3.3020   25.0770 O   0  0  0  0  0  0  0  0  0  0  0  0
   11.2910   -2.8970   23.7950 C   0  0  0  0  0  0  0  0  0  0  0  0
   12.3850   -2.2020   23.2740 N   0  0  0  0  0  0  0  0  0  0  0  0
  1  2  1  0
  2  3  1  0
  3  4  2  0
  3  5  1  0
  5  6  2  0
  6  7  1  0
  6  8  1  0
  8  9  1  0
 10  9  1  1
 10 11  1  0
 11 12  1  1
 12 13  1  0
 11 14  1  0
 14 15  1  0
 15 16  1  0
 16 17  1  0
 17 18  1  0
 18 19  1  0
 18 20  2  0
 18 21  2  0
 15 22  1  0
  5 23  1  0
 10 23  1  0
 22 23  1  0
M  END
