JON-UNI-4b544d07-1
     RDKit          3D

 19 20  0  0  0  0  0  0  0  0999 V2000
    5.7330   -2.6530   23.0700 C   0  0  0  0  0  0  0  0  0  0  0  0
    6.7920   -2.2490   23.9870 N   0  0  0  0  0  0  0  0  0  0  0  0
    6.4700   -2.0580   25.4030 C   0  0  0  0  0  0  0  0  0  0  0  0
    7.2290   -1.5720   26.2200 O   0  0  0  0  0  0  0  0  0  0  0  0
    5.0430   -2.5340   25.7260 C   0  0  1  0  0  0  0  0  0  0  0  0
    4.9440   -3.2110   27.0950 C   0  0  0  0  0  0  0  0  0  0  0  0
    3.6370   -3.1170   27.8050 C   0  0  0  0  0  0  0  0  0  0  0  0
    2.5630   -2.4380   27.2530 C   0  0  0  0  0  0  0  0  0  0  0  0
    1.2920   -2.6640   27.7280 N   0  0  0  0  0  0  0  0  0  0  0  0
    0.2000   -2.1030   26.9260 C   0  0  2  0  0  0  0  0  0  0  0  0
    0.0850   -0.7810   27.3550 O   0  0  0  0  0  0  0  0  0  0  0  0
   -1.1080   -0.4310   28.0750 C   0  0  2  0  0  0  0  0  0  0  0  0
   -1.2050    0.9130   28.4400 C   0  0  0  0  0  0  0  0  0  0  0  0
   -0.1070    1.4450   28.5370 O   0  0  0  0  0  0  0  0  0  0  0  0
   -1.1860   -1.3590   29.1420 C   0  0  0  0  0  0  0  0  0  0  0  0
   -1.4510   -2.7040   28.8410 C   0  0  0  0  0  0  0  0  0  0  0  0
   -1.2220   -3.0010   27.1820 S   0  0  0  0  0  0  0  0  0  0  0  0
    2.7750   -1.5030   26.1880 C   0  0  0  0  0  0  0  0  0  0  0  0
    4.0820   -1.2870   25.7160 C   0  0  0  0  0  0  0  0  0  0  0  0
  1  2  1  0
  2  3  1  0
  3  4  2  0
  5  3  1  1
  5  6  1  0
  6  7  2  0
  7  8  1  0
  8  9  1  0
 10  9  1  1
 10 11  1  0
 11 12  1  0
 12 13  1  1
 13 14  1  0
 12 15  1  0
 15 16  1  0
 10 17  1  0
 16 17  1  0
  8 18  2  0
  5 19  1  0
 18 19  1  0
M  END
