JON-UIO-f971c856-5-acrylamide
     RDKit          3D

 28 29  0  0  0  0  0  0  0  0999 V2000
    7.7850   -3.3890   19.7690 C   0  0  0  0  0  0  0  0  0  0  0  0
    6.5270   -2.6300   20.2580 C   0  0  0  0  0  0  0  0  0  0  0  0
    6.1230   -2.9740   21.6770 C   0  0  0  0  0  0  0  0  0  0  0  0
    5.1400   -3.5080   21.0740 O   0  0  0  0  0  0  0  0  0  0  0  0
    7.4270   -2.2290   22.0480 C   0  0  0  0  0  0  0  0  0  0  0  0
    7.5690   -0.7200   22.3210 C   0  0  0  0  0  0  0  0  0  0  0  0
    6.5290    0.1890   22.1890 N   0  0  0  0  0  0  0  0  0  0  0  0
    5.2660    0.1740   22.8270 C   0  0  0  0  0  0  0  0  0  0  0  0
    4.6940    1.5310   23.2830 C   0  0  0  0  0  0  0  0  0  0  0  0
    4.9880    2.7240   22.5660 N   0  0  0  0  0  0  0  0  0  0  0  0
    4.6260    3.0200   21.2200 C   0  0  1  0  0  0  0  0  0  0  0  0
    3.7710    1.9650   20.4990 C   0  0  0  0  0  0  0  0  0  0  0  0
    3.7540    4.1460   21.2800 O   0  0  0  0  0  0  0  0  0  0  0  0
    6.3940    2.7000   22.3350 C   0  0  2  0  0  0  0  0  0  0  0  0
    7.1500    3.9470   21.9180 C   0  0  0  0  0  0  0  0  0  0  0  0
    6.7970    1.4700   21.4690 C   0  0  0  0  0  0  0  0  0  0  0  0
    8.8160   -0.3410   22.7360 C   0  0  1  0  0  0  0  0  0  0  0  0
    9.1610   -1.0230   23.8960 C   0  0  1  0  0  0  0  0  0  0  0  0
    9.7360   -2.0740   23.9720 O   0  0  0  0  0  0  0  0  0  0  0  0
    9.9330    0.0540   24.9600 S   0  0  0  0  0  0  0  0  0  0  0  0
    8.8250    1.2970   25.1590 N   0  0  0  0  0  0  0  0  0  0  0  0
   11.0560    0.6450   24.2560 O   0  0  0  0  0  0  0  0  0  0  0  0
   10.0730   -0.5370   26.2650 O   0  0  0  0  0  0  0  0  0  0  0  0
    9.5780   -0.7290   21.7110 C   0  0  0  0  0  0  0  0  0  0  0  0
    9.8870   -2.1330   22.0360 C   0  0  0  0  0  0  0  0  0  0  0  0
   11.5730   -2.4530   22.1460 Cl  0  0  0  0  0  0  0  0  0  0  0  0
    8.7330   -2.9110   22.2190 C   0  0  0  0  0  0  0  0  0  0  0  0
    8.7430   -4.2180   22.5560 F   0  0  0  0  0  0  0  0  0  0  0  0
  1  2  1  0
  2  3  1  0
  3  4  2  0
  3  5  1  0
  5  6  2  0
  6  7  1  0
  7  8  1  0
  8  9  1  0
  9 10  1  0
 10 11  1  0
 11 12  1  1
 11 13  1  0
 10 14  1  0
 14 15  1  6
  7 16  1  0
 14 16  1  0
  6 17  1  0
 17 18  1  0
 18 19  1  6
 18 20  1  0
 20 21  1  0
 20 22  2  0
 20 23  2  0
 17 24  1  6
 24 25  1  0
 25 26  1  0
  5 27  1  0
 25 27  2  0
 27 28  1  0
M  END
