JOO-IND-3132366c-1-nitrile
     RDKit          3D

 26 29  0  0  0  0  0  0  0  0999 V2000
    6.9430   -3.2620   19.5620 C   0  0  0  0  0  0  0  0  0  0  0  0
    6.0000   -3.1850   18.7140 N   0  0  0  0  0  0  0  0  0  0  0  0
    6.9220   -2.6030   20.7630 N   0  0  0  0  0  0  0  0  0  0  0  0
    6.6250   -3.2990   22.0060 C   0  0  0  0  0  0  0  0  0  0  0  0
    7.9470   -3.5160   22.7490 C   0  0  0  0  0  0  0  0  0  0  0  0
    8.6050   -2.2580   23.1290 N   0  0  0  0  0  0  0  0  0  0  0  0
    9.8710   -2.5590   23.8100 C   0  0  1  0  0  0  0  0  0  0  0  0
   10.8520   -1.3860   23.5710 C   0  0  0  0  0  0  0  0  0  0  0  0
   12.1570   -1.7200   22.9110 C   0  0  0  0  0  0  0  0  0  0  0  0
   13.1070   -0.6020   22.6190 C   0  0  0  0  0  0  0  0  0  0  0  0
   12.7580    0.7030   22.9610 C   0  0  0  0  0  0  0  0  0  0  0  0
   11.5520    0.9890   23.5730 C   0  0  0  0  0  0  0  0  0  0  0  0
   11.2860    2.3180   23.8600 C   0  0  0  0  0  0  0  0  0  0  0  0
   10.0880    2.6650   24.4890 C   0  0  0  0  0  0  0  0  0  0  0  0
    9.1270    1.7200   24.8520 C   0  0  0  0  0  0  0  0  0  0  0  0
    9.4280    0.4020   24.5320 C   0  0  0  0  0  0  0  0  0  0  0  0
   10.5890   -0.0260   23.9030 C   0  0  0  0  0  0  0  0  0  0  0  0
    9.5730   -3.0320   25.1830 N   0  0  0  0  0  0  0  0  0  0  0  0
    8.2530   -3.3970   25.4100 C   0  0  0  0  0  0  0  0  0  0  0  0
    7.7780   -4.7050   25.0550 C   0  0  0  0  0  0  0  0  0  0  0  0
    8.7900   -5.8490   24.8210 C   0  0  0  0  0  0  0  0  0  0  0  0
    9.4290   -6.1210   26.0540 O   0  0  0  0  0  0  0  0  0  0  0  0
    9.8410   -4.9160   26.6460 C   0  0  0  0  0  0  0  0  0  0  0  0
   10.4850   -3.9660   25.6210 C   0  0  0  0  0  0  0  0  0  0  0  0
    8.8280   -1.4410   21.8980 C   0  0  0  0  0  0  0  0  0  0  0  0
    7.6200   -1.3050   20.9520 C   0  0  0  0  0  0  0  0  0  0  0  0
  1  2  2  3
  1  3  1  0
  3  4  1  0
  4  5  1  0
  5  6  1  0
  6  7  1  0
  7  8  1  1
  8  9  2  0
  9 10  1  0
 10 11  2  0
 11 12  1  0
 12 13  1  0
 13 14  2  0
 14 15  1  0
 15 16  2  0
  8 17  1  0
 12 17  2  0
 16 17  1  0
  7 18  1  0
 18 19  1  0
 19 20  1  0
 20 21  1  0
 21 22  1  0
 22 23  1  0
 18 24  1  0
 23 24  1  0
  6 25  1  0
  3 26  1  0
 25 26  1  0
M  END
