JOO-PER-74f994a9-1-acrylamide
     RDKit          3D

 18 19  0  0  0  0  0  0  0  0999 V2000
    7.9140   -3.4700   19.7590 C   0  0  0  0  0  0  0  0  0  0  0  0
    6.8250   -2.7070   19.0710 C   0  0  0  0  0  0  0  0  0  0  0  0
    5.6410   -2.9940   19.8860 C   0  0  0  0  0  0  0  0  0  0  0  0
    4.9560   -3.1450   20.8470 O   0  0  0  0  0  0  0  0  0  0  0  0
    6.6400   -2.7090   20.9760 C   0  0  0  0  0  0  0  0  0  0  0  0
    7.1670   -1.4350   21.0620 C   0  0  0  0  0  0  0  0  0  0  0  0
    8.2360   -1.3710   21.9680 C   0  0  0  0  0  0  0  0  0  0  0  0
    8.3720   -2.4140   22.9200 N   0  0  0  0  0  0  0  0  0  0  0  0
    9.4110   -2.4380   23.9670 C   0  0  0  0  0  0  0  0  0  0  0  0
   10.5440   -1.4460   23.6910 C   0  0  0  0  0  0  0  0  0  0  0  0
   11.8170   -1.8220   23.2830 C   0  0  0  0  0  0  0  0  0  0  0  0
   12.8510   -0.7970   23.0300 C   0  0  0  0  0  0  0  0  0  0  0  0
   12.6150    0.5730   23.1790 C   0  0  0  0  0  0  0  0  0  0  0  0
   11.3520    0.9660   23.5840 C   0  0  0  0  0  0  0  0  0  0  0  0
   10.9940    2.2970   23.7540 C   0  0  0  0  0  0  0  0  0  0  0  0
   10.2830   -0.0870   23.8510 C   0  0  0  0  0  0  0  0  0  0  0  0
    7.1160   -2.9450   23.4310 C   0  0  0  0  0  0  0  0  0  0  0  0
    6.0100   -2.9820   22.3430 C   0  0  0  0  0  0  0  0  0  0  0  0
  1  2  1  0
  2  3  1  0
  3  4  2  0
  3  5  1  0
  5  6  1  0
  6  7  1  0
  7  8  1  0
  8  9  1  0
  9 10  1  0
 10 11  2  0
 11 12  1  0
 12 13  2  0
 13 14  1  0
 14 15  1  0
 10 16  1  0
 14 16  2  0
  8 17  1  0
  5 18  1  0
 17 18  1  0
M  END
