JOO-PER-74f994a9-1-chloroacetamide
     RDKit          3D

 17 18  0  0  0  0  0  0  0  0999 V2000
    7.3540   -3.0190   18.6730 C   0  0  0  0  0  0  0  0  0  0  0  0
    6.4790   -3.2940   19.8310 C   0  0  0  0  0  0  0  0  0  0  0  0
    5.4790   -4.0210   19.7280 O   0  0  0  0  0  0  0  0  0  0  0  0
    6.9690   -2.6840   21.0900 C   0  0  0  0  0  0  0  0  0  0  0  0
    7.2910   -1.3370   21.2160 C   0  0  0  0  0  0  0  0  0  0  0  0
    8.3690   -1.4660   22.0630 C   0  0  0  0  0  0  0  0  0  0  0  0
    8.2010   -2.0370   23.2700 N   0  0  0  0  0  0  0  0  0  0  0  0
    9.3550   -2.2190   24.0210 C   0  0  0  0  0  0  0  0  0  0  0  0
   10.4090   -1.3480   23.7570 C   0  0  0  0  0  0  0  0  0  0  0  0
   11.7860   -1.8450   23.3030 C   0  0  0  0  0  0  0  0  0  0  0  0
   12.8110   -0.9500   23.0430 C   0  0  0  0  0  0  0  0  0  0  0  0
   12.5450    0.4950   23.2110 C   0  0  0  0  0  0  0  0  0  0  0  0
   11.2850    0.9430   23.6220 C   0  0  0  0  0  0  0  0  0  0  0  0
   11.0760    2.2970   23.7510 C   0  0  0  0  0  0  0  0  0  0  0  0
   10.2560    0.0370   23.8910 C   0  0  0  0  0  0  0  0  0  0  0  0
    7.2980   -3.2090   23.3810 C   0  0  0  0  0  0  0  0  0  0  0  0
    6.3160   -3.1750   22.3640 C   0  0  0  0  0  0  0  0  0  0  0  0
  1  2  1  0
  2  3  2  0
  2  4  1  0
  4  5  1  0
  5  6  1  0
  6  7  1  0
  7  8  1  0
  8  9  1  0
  9 10  2  0
 10 11  1  0
 11 12  2  0
 12 13  1  0
 13 14  1  0
  9 15  1  0
 13 15  2  0
  7 16  1  0
  4 17  1  0
 16 17  1  0
M  END
