JOO-PER-74f994a9-1-nitrile
     RDKit          3D

 16 17  0  0  0  0  0  0  0  0999 V2000
    6.7200   -3.3360   19.5300 C   0  0  0  0  0  0  0  0  0  0  0  0
    5.8930   -3.0950   18.5860 N   0  0  0  0  0  0  0  0  0  0  0  0
    6.5910   -2.5550   20.8120 C   0  0  0  0  0  0  0  0  0  0  0  0
    6.3650   -3.1850   22.0420 C   0  0  0  0  0  0  0  0  0  0  0  0
    7.4820   -3.4680   22.8820 C   0  0  0  0  0  0  0  0  0  0  0  0
    8.3880   -2.2730   23.0050 N   0  0  0  0  0  0  0  0  0  0  0  0
    9.3930   -2.3360   23.9310 C   0  0  0  0  0  0  0  0  0  0  0  0
   10.4200   -1.4220   23.6910 C   0  0  0  0  0  0  0  0  0  0  0  0
   11.6760   -1.8520   23.2680 C   0  0  0  0  0  0  0  0  0  0  0  0
   12.7950   -0.8520   23.0030 C   0  0  0  0  0  0  0  0  0  0  0  0
   12.5670    0.4990   23.1810 C   0  0  0  0  0  0  0  0  0  0  0  0
   11.2230    0.9230   23.6300 C   0  0  0  0  0  0  0  0  0  0  0  0
   10.9300    2.2700   23.8140 C   0  0  0  0  0  0  0  0  0  0  0  0
   10.2170   -0.0360   23.8680 C   0  0  0  0  0  0  0  0  0  0  0  0
    8.7190   -1.6930   21.7220 C   0  0  0  0  0  0  0  0  0  0  0  0
    7.5850   -1.4240   20.9400 C   0  0  0  0  0  0  0  0  0  0  0  0
  1  2  2  3
  1  3  1  0
  3  4  1  0
  4  5  1  0
  5  6  1  0
  6  7  1  0
  7  8  1  0
  8  9  2  0
  9 10  1  0
 10 11  2  0
 11 12  1  0
 12 13  1  0
  8 14  1  0
 12 14  2  0
  6 15  1  0
  3 16  1  0
 15 16  1  0
M  END
