JOO-IND-b2fae8f6-2-acrylamide
     RDKit          3D

 19 21  0  0  0  0  0  0  0  0999 V2000
    8.0820   -3.5150   19.4530 C   0  0  0  0  0  0  0  0  0  0  0  0
    7.1070   -2.5280   20.0290 C   0  0  0  0  0  0  0  0  0  0  0  0
    6.0680   -3.2550   20.8060 C   0  0  0  0  0  0  0  0  0  0  0  0
    4.9600   -3.2170   20.3810 O   0  0  0  0  0  0  0  0  0  0  0  0
    6.5160   -4.0140   22.0180 C   0  0  0  0  0  0  0  0  0  0  0  0
    5.7900   -5.0560   22.4540 N   0  0  0  0  0  0  0  0  0  0  0  0
    6.3200   -5.6710   23.5220 C   0  0  0  0  0  0  0  0  0  0  0  0
    7.4520   -5.3270   24.1390 N   0  0  0  0  0  0  0  0  0  0  0  0
    8.0600   -4.2710   23.5900 C   0  0  0  0  0  0  0  0  0  0  0  0
    9.3710   -3.7450   24.1210 C   0  0  0  0  0  0  0  0  0  0  0  0
    9.8520   -2.5710   23.7030 N   0  0  0  0  0  0  0  0  0  0  0  0
   11.0760   -2.3600   24.2580 C   0  0  0  0  0  0  0  0  0  0  0  0
   11.8630   -1.2110   23.9940 C   0  0  0  0  0  0  0  0  0  0  0  0
   13.0600   -1.1750   24.6040 C   0  0  0  0  0  0  0  0  0  0  0  0
   13.5980   -2.1960   25.4900 C   0  0  0  0  0  0  0  0  0  0  0  0
   12.8050   -3.3580   25.7740 C   0  0  0  0  0  0  0  0  0  0  0  0
   11.5250   -3.3670   25.1100 C   0  0  0  0  0  0  0  0  0  0  0  0
   10.3430   -4.5980   25.2380 S   0  0  0  0  0  0  0  0  0  0  0  0
    7.6490   -3.5850   22.5490 N   0  0  0  0  0  0  0  0  0  0  0  0
  1  2  1  0
  2  3  1  0
  3  4  2  0
  3  5  1  0
  5  6  2  0
  6  7  1  0
  7  8  2  0
  8  9  1  0
  9 10  1  0
 10 11  2  0
 11 12  1  0
 12 13  2  0
 13 14  1  0
 14 15  2  0
 15 16  1  0
 12 17  1  0
 16 17  2  0
 10 18  1  0
 17 18  1  0
  5 19  1  0
  9 19  2  0
M  END
