JOO-PER-74f994a9-1-vinylsulfonamide
     RDKit          3D

 19 20  0  0  0  0  0  0  0  0999 V2000
    7.8870   -3.3370   19.6090 C   0  0  0  0  0  0  0  0  0  0  0  0
    6.9760   -2.4980   18.7900 C   0  0  0  0  0  0  0  0  0  0  0  0
    5.5690   -2.4980   19.7890 S   0  0  0  0  0  0  0  0  0  0  0  0
    5.0850   -3.8810   19.8200 O   0  0  0  0  0  0  0  0  0  0  0  0
    4.7520   -1.3770   19.3890 O   0  0  0  0  0  0  0  0  0  0  0  0
    6.2890   -2.0240   21.3220 C   0  0  0  0  0  0  0  0  0  0  0  0
    7.4410   -1.1870   21.2480 C   0  0  0  0  0  0  0  0  0  0  0  0
    8.4750   -1.6440   22.0220 C   0  0  0  0  0  0  0  0  0  0  0  0
    8.2520   -2.0470   23.2500 N   0  0  0  0  0  0  0  0  0  0  0  0
    9.3340   -2.1360   24.1120 C   0  0  0  0  0  0  0  0  0  0  0  0
   10.4130   -1.3080   23.8100 C   0  0  0  0  0  0  0  0  0  0  0  0
   11.7900   -1.8340   23.3830 C   0  0  0  0  0  0  0  0  0  0  0  0
   12.8100   -0.9540   23.0950 C   0  0  0  0  0  0  0  0  0  0  0  0
   12.5740    0.4890   23.1950 C   0  0  0  0  0  0  0  0  0  0  0  0
   11.3300    0.9940   23.5800 C   0  0  0  0  0  0  0  0  0  0  0  0
   11.1350    2.3480   23.6520 C   0  0  0  0  0  0  0  0  0  0  0  0
   10.2960    0.0890   23.8770 C   0  0  0  0  0  0  0  0  0  0  0  0
    7.4220   -3.2440   23.2720 C   0  0  0  0  0  0  0  0  0  0  0  0
    6.4710   -3.2790   22.2190 C   0  0  0  0  0  0  0  0  0  0  0  0
  1  2  1  0
  3  2  1  0
  3  4  2  0
  3  5  2  0
  3  6  1  0
  6  7  1  0
  7  8  1  0
  8  9  1  0
  9 10  1  0
 10 11  1  0
 11 12  2  0
 12 13  1  0
 13 14  2  0
 14 15  1  0
 15 16  1  0
 11 17  1  0
 15 17  2  0
  9 18  1  0
  6 19  1  0
 18 19  1  0
M  END
