JOR-UNI-2fc98d0b-15
     RDKit          3D

 26 28  0  0  0  0  0  0  0  0999 V2000
    6.8220   -7.7000   23.2500 C   0  0  0  0  0  0  0  0  0  0  0  0
    7.2840   -6.5280   24.0700 C   0  0  0  0  0  0  0  0  0  0  0  0
    6.0340   -5.7330   24.4290 C   0  0  0  0  0  0  0  0  0  0  0  0
    6.0980   -4.3480   24.4570 C   0  0  0  0  0  0  0  0  0  0  0  0
    7.2240   -3.8440   23.8770 N   0  0  0  0  0  0  0  0  0  0  0  0
    7.2500   -2.5220   23.5670 C   0  0  0  0  0  0  0  0  0  0  0  0
    8.4290   -1.7620   23.6370 C   0  0  0  0  0  0  0  0  0  0  0  0
    9.0650   -1.1690   22.5350 N   0  0  0  0  0  0  0  0  0  0  0  0
    8.2190   -0.3850   21.5970 C   0  0  0  0  0  0  0  0  0  0  0  0
    8.5960    0.7260   21.2160 O   0  0  0  0  0  0  0  0  0  0  0  0
    6.9530   -0.9720   21.1570 N   0  0  0  0  0  0  0  0  0  0  0  0
    6.4190   -0.1970   20.0280 C   0  0  0  0  0  0  0  0  0  0  0  0
    5.1250    0.5910   20.3890 C   0  0  0  0  0  0  0  0  0  0  0  0
    4.5560    1.4070   19.2370 C   0  0  0  0  0  0  0  0  0  0  0  0
    5.2300    1.4230   17.8670 C   0  0  0  0  0  0  0  0  0  0  0  0
    6.3650    0.6700   17.7140 N   0  0  0  0  0  0  0  0  0  0  0  0
    6.9260   -0.1020   18.7460 C   0  0  0  0  0  0  0  0  0  0  0  0
   10.3590   -0.5660   22.7010 C   0  0  0  0  0  0  0  0  0  0  0  0
   11.6890   -1.3070   22.5690 C   0  0  0  0  0  0  0  0  0  0  0  0
   12.8460   -0.5520   22.7450 C   0  0  0  0  0  0  0  0  0  0  0  0
   12.7760    0.8190   23.0220 C   0  0  0  0  0  0  0  0  0  0  0  0
   11.5490    1.4720   23.1360 C   0  0  0  0  0  0  0  0  0  0  0  0
   11.4040    3.1550   23.4420 Cl  0  0  0  0  0  0  0  0  0  0  0  0
   10.3770    0.7830   22.9840 C   0  0  0  0  0  0  0  0  0  0  0  0
    7.7680   -4.6270   22.7760 C   0  0  0  0  0  0  0  0  0  0  0  0
    8.1770   -5.8570   23.2540 C   0  0  0  0  0  0  0  0  0  0  0  0
  1  2  1  0
  2  3  1  0
  3  4  1  0
  4  5  1  0
  5  6  1  0
  6  7  1  0
  7  8  1  0
  8  9  1  0
  9 10  2  0
  9 11  1  0
 11 12  1  0
 12 13  2  0
 13 14  1  0
 14 15  2  0
 15 16  1  0
 12 17  1  0
 16 17  2  0
  8 18  1  0
 18 19  2  0
 19 20  1  0
 20 21  2  0
 21 22  1  0
 22 23  1  0
 18 24  1  0
 22 24  2  0
  5 25  1  0
  2 26  1  0
 25 26  1  0
M  END
