JOR-UNI-61e7b1d5-12-acrylamide
     RDKit          3D

 27 29  0  0  0  0  0  0  0  0999 V2000
    6.8340   -5.4570   20.8280 C   0  0  0  0  0  0  0  0  0  0  0  0
    7.0010   -4.8060   22.1750 C   0  0  0  0  0  0  0  0  0  0  0  0
    5.9610   -3.7230   22.4710 C   0  0  0  0  0  0  0  0  0  0  0  0
    4.7820   -3.8200   22.0400 O   0  0  0  0  0  0  0  0  0  0  0  0
    6.3780   -2.4840   23.2800 C   0  0  0  0  0  0  0  0  0  0  0  0
    7.4670   -3.4580   23.8200 C   0  0  0  0  0  0  0  0  0  0  0  0
    7.5040   -4.8980   23.3280 C   0  0  0  0  0  0  0  0  0  0  0  0
    6.6540   -3.9190   22.9950 C   0  0  0  0  0  0  0  0  0  0  0  0
    7.1790   -2.9100   23.7900 C   0  0  0  0  0  0  0  0  0  0  0  0
    6.0330   -2.3820   23.0590 N   0  0  0  0  0  0  0  0  0  0  0  0
    4.9650   -2.0680   23.9330 C   0  0  0  0  0  0  0  0  0  0  0  0
    4.8850   -2.8990   25.0630 N   0  0  0  0  0  0  0  0  0  0  0  0
    5.7030   -2.8780   26.2270 C   0  0  0  0  0  0  0  0  0  0  0  0
    5.2150   -1.8220   27.2240 C   0  0  0  0  0  0  0  0  0  0  0  0
    3.8350   -1.6590   27.3820 N   0  0  0  0  0  0  0  0  0  0  0  0
    2.9730   -1.9310   26.3130 C   0  0  0  0  0  0  0  0  0  0  0  0
    3.4810   -3.0960   25.4600 C   0  0  0  0  0  0  0  0  0  0  0  0
    6.2800   -1.4520   21.9770 C   0  0  0  0  0  0  0  0  0  0  0  0
    7.1310   -0.5560   22.0220 O   0  0  0  0  0  0  0  0  0  0  0  0
    5.4920   -1.6550   20.9100 N   0  0  0  0  0  0  0  0  0  0  0  0
    5.4390   -0.6790   19.9670 C   0  0  0  0  0  0  0  0  0  0  0  0
    4.5600    0.4030   20.1480 C   0  0  0  0  0  0  0  0  0  0  0  0
    4.4930    1.3960   19.1760 C   0  0  0  0  0  0  0  0  0  0  0  0
    5.2790    1.3350   18.0430 C   0  0  0  0  0  0  0  0  0  0  0  0
    6.1530    0.3430   17.7960 N   0  0  0  0  0  0  0  0  0  0  0  0
    6.2400   -0.6470   18.7230 C   0  0  0  0  0  0  0  0  0  0  0  0
    7.0990   -1.6840   24.1730 C   0  0  0  0  0  0  0  0  0  0  0  0
  1  2  1  0
  2  3  1  0
  3  4  2  0
  3  5  1  0
  5  6  2  0
  6  7  1  0
  7  8  2  0
  8  9  1  0
  9 10  1  0
 10 11  1  0
 11 12  1  0
 12 13  1  0
 13 14  1  0
 14 15  1  0
 15 16  1  0
 12 17  1  0
 16 17  1  0
 10 18  1  0
 18 19  2  0
 18 20  1  0
 20 21  1  0
 21 22  2  0
 22 23  1  0
 23 24  2  0
 24 25  1  0
 21 26  1  0
 25 26  2  0
  5 27  1  0
  9 27  2  0
M  END
