JOR-UNI-61e7b1d5-6-acrylamide
     RDKit          3D

 31 33  0  0  0  0  0  0  0  0999 V2000
    6.4780   -5.0120   20.5410 C   0  0  0  0  0  0  0  0  0  0  0  0
    6.5680   -4.5010   21.9700 C   0  0  0  0  0  0  0  0  0  0  0  0
    5.4030   -3.5980   22.3060 C   0  0  0  0  0  0  0  0  0  0  0  0
    4.2930   -4.0800   22.5050 O   0  0  0  0  0  0  0  0  0  0  0  0
    5.5840   -2.1130   22.3540 C   0  0  0  0  0  0  0  0  0  0  0  0
    6.4150   -0.8290   22.6640 C   0  0  0  0  0  0  0  0  0  0  0  0
    7.8480   -0.4800   23.2270 N   0  0  0  0  0  0  0  0  0  0  0  0
    8.7920   -1.4540   23.6280 C   0  0  0  0  0  0  0  0  0  0  0  0
    9.7950   -0.5870   24.0040 N   0  0  0  0  0  0  0  0  0  0  0  0
    9.7130   -0.2900   25.3350 C   0  0  0  0  0  0  0  0  0  0  0  0
    8.9030   -1.2250   25.9520 C   0  0  0  0  0  0  0  0  0  0  0  0
    7.5500   -1.4450   23.1240 C   0  0  0  0  0  0  0  0  0  0  0  0
    7.1530   -0.0790   22.8990 N   0  0  0  0  0  0  0  0  0  0  0  0
    6.8740    0.8700   23.9070 C   0  0  0  0  0  0  0  0  0  0  0  0
    5.9710    0.4390   24.8880 N   0  0  0  0  0  0  0  0  0  0  0  0
    4.5670    0.3550   24.7140 C   0  0  0  0  0  0  0  0  0  0  0  0
    3.8220   -0.5700   25.6880 C   0  0  0  0  0  0  0  0  0  0  0  0
    4.3670   -0.4300   27.1110 C   0  0  0  0  0  0  0  0  0  0  0  0
    3.6300    0.3420   27.7230 O   0  0  0  0  0  0  0  0  0  0  0  0
    5.7030   -0.0560   27.2380 C   0  0  0  0  0  0  0  0  0  0  0  0
    6.3160    0.8080   26.1550 C   0  0  0  0  0  0  0  0  0  0  0  0
    7.8080    0.5000   21.7360 C   0  0  0  0  0  0  0  0  0  0  0  0
    9.0480    0.4950   21.6660 O   0  0  0  0  0  0  0  0  0  0  0  0
    6.9770    1.0470   20.7280 N   0  0  0  0  0  0  0  0  0  0  0  0
    5.7920    1.5830   21.1310 C   0  0  0  0  0  0  0  0  0  0  0  0
    5.4410    0.2920   20.7180 C   0  0  0  0  0  0  0  0  0  0  0  0
    6.5190   -0.4690   20.1680 C   0  0  0  0  0  0  0  0  0  0  0  0
    7.1210    0.7660   20.4940 C   0  0  0  0  0  0  0  0  0  0  0  0
    7.8770    1.8980   20.7430 N   0  0  0  0  0  0  0  0  0  0  0  0
    6.8130    2.5020   21.2440 C   0  0  0  0  0  0  0  0  0  0  0  0
    6.6960   -2.2720   22.8070 C   0  0  0  0  0  0  0  0  0  0  0  0
  1  2  1  0
  2  3  1  0
  3  4  2  0
  3  5  1  0
  5  6  2  0
  6  7  1  0
  7  8  2  0
  8  9  1  0
  9 10  1  0
 10 11  1  0
  8 12  1  0
 12 13  1  0
 13 14  1  0
 14 15  1  0
 15 16  1  0
 16 17  1  0
 17 18  1  0
 18 19  1  0
 18 20  1  0
 15 21  1  0
 20 21  1  0
 13 22  1  0
 22 23  2  0
 22 24  1  0
 24 25  1  0
 25 26  2  0
 26 27  1  0
 27 28  2  0
 28 29  1  0
 25 30  1  0
 29 30  2  0
  5 31  1  0
 12 31  2  0
M  END
