JOR-UNI-61e7b1d5-16-acrylamide
     RDKit          3D

 28 30  0  0  0  0  0  0  0  0999 V2000
    6.9740   -4.1860   20.0090 C   0  0  0  0  0  0  0  0  0  0  0  0
    6.1630   -5.0750   20.9720 C   0  0  0  0  0  0  0  0  0  0  0  0
    5.9740   -4.4920   22.3750 C   0  0  0  0  0  0  0  0  0  0  0  0
    4.9670   -3.9950   21.8510 O   0  0  0  0  0  0  0  0  0  0  0  0
    7.2340   -5.2770   22.5730 C   0  0  0  0  0  0  0  0  0  0  0  0
    8.0390   -4.1730   22.8820 C   0  0  0  0  0  0  0  0  0  0  0  0
    7.9580   -2.7080   23.0300 C   0  0  0  0  0  0  0  0  0  0  0  0
    9.2270   -3.3780   23.2400 C   0  0  0  0  0  0  0  0  0  0  0  0
    8.0920   -4.0940   22.9110 C   0  0  0  0  0  0  0  0  0  0  0  0
    7.9730   -2.6310   23.0570 N   0  0  0  0  0  0  0  0  0  0  0  0
    7.2660   -2.2700   24.2230 C   0  0  0  0  0  0  0  0  0  0  0  0
    8.1800   -2.3900   25.4280 C   0  0  0  0  0  0  0  0  0  0  0  0
    7.3830   -2.6250   26.6380 N   0  0  0  0  0  0  0  0  0  0  0  0
    7.5960   -1.7970   27.7380 C   0  0  0  0  0  0  0  0  0  0  0  0
    6.6030   -2.0450   28.8820 C   0  0  0  0  0  0  0  0  0  0  0  0
    6.4510   -3.2520   29.0900 O   0  0  0  0  0  0  0  0  0  0  0  0
    7.3500   -4.1040   28.3490 C   0  0  0  0  0  0  0  0  0  0  0  0
    7.3220   -3.9160   26.9750 C   0  0  0  0  0  0  0  0  0  0  0  0
    7.9250   -1.7590   21.9260 C   0  0  0  0  0  0  0  0  0  0  0  0
    8.9120   -1.1930   21.4520 O   0  0  0  0  0  0  0  0  0  0  0  0
    6.6480   -1.5830   21.4000 N   0  0  0  0  0  0  0  0  0  0  0  0
    6.2230   -0.7620   20.3310 C   0  0  0  0  0  0  0  0  0  0  0  0
    5.0680    0.0020   20.5320 C   0  0  0  0  0  0  0  0  0  0  0  0
    4.5750    0.8340   19.5370 C   0  0  0  0  0  0  0  0  0  0  0  0
    5.2570    0.8950   18.3360 C   0  0  0  0  0  0  0  0  0  0  0  0
    6.3750    0.1910   18.0720 N   0  0  0  0  0  0  0  0  0  0  0  0
    6.8390   -0.6290   19.0750 C   0  0  0  0  0  0  0  0  0  0  0  0
    8.5940   -5.4250   22.8690 C   0  0  0  0  0  0  0  0  0  0  0  0
  1  2  1  0
  2  3  1  0
  3  4  2  0
  3  5  1  0
  5  6  2  0
  6  7  1  0
  7  8  2  0
  8  9  1  0
  9 10  1  0
 10 11  1  0
 11 12  1  0
 12 13  1  0
 13 14  1  0
 14 15  1  0
 15 16  1  0
 16 17  1  0
 13 18  1  0
 17 18  1  0
 10 19  1  0
 19 20  2  0
 19 21  1  0
 21 22  1  0
 22 23  2  0
 23 24  1  0
 24 25  2  0
 25 26  1  0
 22 27  1  0
 26 27  2  0
  5 28  1  0
  9 28  2  0
M  END
