JOR-UNI-61e7b1d5-31-chloroacetamide
     RDKit          3D

 30 32  0  0  0  0  0  0  0  0999 V2000
    8.7030   -3.8950   19.3390 C   0  0  0  0  0  0  0  0  0  0  0  0
    7.9480   -2.9140   19.9400 C   0  0  0  0  0  0  0  0  0  0  0  0
    6.7320   -2.9790   19.3370 O   0  0  0  0  0  0  0  0  0  0  0  0
    8.6400   -2.1120   21.1410 C   0  0  0  0  0  0  0  0  0  0  0  0
   10.0290   -2.0940   21.5960 C   0  0  0  0  0  0  0  0  0  0  0  0
   10.5380   -1.3850   22.6700 N   0  0  0  0  0  0  0  0  0  0  0  0
    9.6860   -0.6280   23.3890 C   0  0  0  0  0  0  0  0  0  0  0  0
   10.1320    0.1010   24.5290 N   0  0  0  0  0  0  0  0  0  0  0  0
    9.7390   -0.4290   25.8410 C   0  0  0  0  0  0  0  0  0  0  0  0
    8.8700    0.3890   26.5870 C   0  0  0  0  0  0  0  0  0  0  0  0
    8.3500   -0.5910   22.9890 C   0  0  0  0  0  0  0  0  0  0  0  0
    7.3190    0.1380   23.5610 N   0  0  0  0  0  0  0  0  0  0  0  0
    6.3500   -0.6870   24.3270 C   0  0  0  0  0  0  0  0  0  0  0  0
    6.9340   -1.3210   25.6020 C   0  0  0  0  0  0  0  0  0  0  0  0
    6.7590   -2.7720   25.8470 N   0  0  0  0  0  0  0  0  0  0  0  0
    6.9720   -3.0580   27.2810 C   0  0  0  0  0  0  0  0  0  0  0  0
    7.0240   -4.5360   27.6770 C   0  0  0  0  0  0  0  0  0  0  0  0
    7.9810   -5.3170   26.7660 C   0  0  0  0  0  0  0  0  0  0  0  0
    7.6850   -5.0030   25.3010 C   0  0  0  0  0  0  0  0  0  0  0  0
    7.6690   -3.4940   25.0440 C   0  0  0  0  0  0  0  0  0  0  0  0
    6.7440    0.9440   22.5820 C   0  0  0  0  0  0  0  0  0  0  0  0
    6.9260    2.1530   22.5430 O   0  0  0  0  0  0  0  0  0  0  0  0
    6.0230    0.2600   21.6300 N   0  0  0  0  0  0  0  0  0  0  0  0
    5.8060    0.6340   20.2990 C   0  0  0  0  0  0  0  0  0  0  0  0
    4.6920    1.4340   20.0950 C   0  0  0  0  0  0  0  0  0  0  0  0
    4.4090    1.8590   18.8220 C   0  0  0  0  0  0  0  0  0  0  0  0
    5.2350    1.4780   17.7830 C   0  0  0  0  0  0  0  0  0  0  0  0
    6.3200    0.6990   17.9280 N   0  0  0  0  0  0  0  0  0  0  0  0
    6.5870    0.2890   19.1930 C   0  0  0  0  0  0  0  0  0  0  0  0
    7.8770   -1.3190   21.9000 C   0  0  0  0  0  0  0  0  0  0  0  0
  1  2  1  0
  2  3  2  0
  2  4  1  0
  4  5  2  0
  5  6  1  0
  6  7  2  0
  7  8  1  0
  8  9  1  0
  9 10  1  0
  7 11  1  0
 11 12  1  0
 12 13  1  0
 13 14  1  0
 14 15  1  0
 15 16  1  0
 16 17  1  0
 17 18  1  0
 18 19  1  0
 15 20  1  0
 19 20  1  0
 12 21  1  0
 21 22  2  0
 21 23  1  0
 23 24  1  0
 24 25  2  0
 25 26  1  0
 26 27  2  0
 27 28  1  0
 24 29  1  0
 28 29  2  0
  4 30  1  0
 11 30  2  0
M  END
