JOR-UNI-61e7b1d5-1-chloroacetamide
     RDKit          3D

 22 23  0  0  0  0  0  0  0  0999 V2000
    7.8630   -3.0540   18.6450 C   0  0  0  0  0  0  0  0  0  0  0  0
    7.2040   -3.2070   19.9180 C   0  0  0  0  0  0  0  0  0  0  0  0
    6.1780   -3.9920   19.8810 O   0  0  0  0  0  0  0  0  0  0  0  0
    7.9040   -2.3990   21.0690 C   0  0  0  0  0  0  0  0  0  0  0  0
    9.2920   -2.4960   21.4460 C   0  0  0  0  0  0  0  0  0  0  0  0
    9.9700   -1.8270   22.4280 N   0  0  0  0  0  0  0  0  0  0  0  0
    9.2490   -0.9530   23.1190 C   0  0  0  0  0  0  0  0  0  0  0  0
    9.8850   -0.2370   24.1320 N   0  0  0  0  0  0  0  0  0  0  0  0
    9.2970    0.3480   25.2770 C   0  0  0  0  0  0  0  0  0  0  0  0
    9.2180   -0.4120   26.5310 C   0  0  0  0  0  0  0  0  0  0  0  0
    7.8010   -0.7510   22.8010 C   0  0  0  0  0  0  0  0  0  0  0  0
    7.1050    0.1940   23.5120 N   0  0  0  0  0  0  0  0  0  0  0  0
    6.5010    1.1580   22.7650 C   0  0  0  0  0  0  0  0  0  0  0  0
    6.6360    2.3570   22.9050 O   0  0  0  0  0  0  0  0  0  0  0  0
    5.7430    0.5140   21.8050 N   0  0  0  0  0  0  0  0  0  0  0  0
    5.5060    0.9080   20.4820 C   0  0  0  0  0  0  0  0  0  0  0  0
    4.3640    1.8490   20.1470 C   0  0  0  0  0  0  0  0  0  0  0  0
    4.2420    2.1870   18.6890 C   0  0  0  0  0  0  0  0  0  0  0  0
    5.2450    1.5600   17.7550 C   0  0  0  0  0  0  0  0  0  0  0  0
    6.2370    0.7210   18.1000 N   0  0  0  0  0  0  0  0  0  0  0  0
    6.3380    0.4250   19.4350 C   0  0  0  0  0  0  0  0  0  0  0  0
    7.1820   -1.4890   21.7930 C   0  0  0  0  0  0  0  0  0  0  0  0
  1  2  1  0
  2  3  2  0
  2  4  1  0
  4  5  2  0
  5  6  1  0
  6  7  2  0
  7  8  1  0
  8  9  1  0
  9 10  1  0
  7 11  1  0
 11 12  1  0
 12 13  1  0
 13 14  2  0
 13 15  1  0
 15 16  1  0
 16 17  2  0
 17 18  1  0
 18 19  2  0
 19 20  1  0
 16 21  1  0
 20 21  2  0
  4 22  1  0
 11 22  2  0
M  END
