JOR-UNI-61e7b1d5-30-chloroacetamide
     RDKit          3D

 27 29  0  0  0  0  0  0  0  0999 V2000
    9.0610   -4.1030   20.2990 C   0  0  0  0  0  0  0  0  0  0  0  0
    8.1720   -2.9310   20.4830 C   0  0  0  0  0  0  0  0  0  0  0  0
    7.1720   -3.6550   19.6920 O   0  0  0  0  0  0  0  0  0  0  0  0
    9.6790   -2.5550   21.2470 C   0  0  0  0  0  0  0  0  0  0  0  0
   10.9830   -2.1660   21.9520 C   0  0  0  0  0  0  0  0  0  0  0  0
   11.3650   -1.1200   22.8110 C   0  0  0  0  0  0  0  0  0  0  0  0
   10.5090   -0.2280   23.1830 C   0  0  0  0  0  0  0  0  0  0  0  0
    9.3060   -0.4230   22.6630 C   0  0  0  0  0  0  0  0  0  0  0  0
    8.2840    0.4160   22.9220 N   0  0  0  0  0  0  0  0  0  0  0  0
    7.2610   -0.0580   23.8680 C   0  0  0  0  0  0  0  0  0  0  0  0
    7.8870   -0.8600   25.0490 C   0  0  0  0  0  0  0  0  0  0  0  0
    7.0120   -1.9450   25.5830 N   0  0  0  0  0  0  0  0  0  0  0  0
    7.5320   -2.3670   26.9130 C   0  0  0  0  0  0  0  0  0  0  0  0
    7.4290   -3.8780   27.2010 C   0  0  0  0  0  0  0  0  0  0  0  0
    8.1450   -4.7220   26.1490 C   0  0  0  0  0  0  0  0  0  0  0  0
    8.2240   -3.9640   24.8250 C   0  0  0  0  0  0  0  0  0  0  0  0
    6.9780   -3.0930   24.6580 C   0  0  0  0  0  0  0  0  0  0  0  0
    7.8710    0.8490   21.6920 C   0  0  0  0  0  0  0  0  0  0  0  0
    8.4430    1.7690   21.0990 O   0  0  0  0  0  0  0  0  0  0  0  0
    6.8340    0.1270   21.1670 N   0  0  0  0  0  0  0  0  0  0  0  0
    6.1950    0.5740   20.0470 C   0  0  0  0  0  0  0  0  0  0  0  0
    5.0070    1.2700   20.0860 C   0  0  0  0  0  0  0  0  0  0  0  0
    4.4620    1.7090   18.9030 C   0  0  0  0  0  0  0  0  0  0  0  0
    5.1330    1.4320   17.7360 C   0  0  0  0  0  0  0  0  0  0  0  0
    6.2820    0.7440   17.6660 N   0  0  0  0  0  0  0  0  0  0  0  0
    6.7850    0.3290   18.8230 C   0  0  0  0  0  0  0  0  0  0  0  0
    8.9620   -1.4810   21.7890 C   0  0  0  0  0  0  0  0  0  0  0  0
  1  2  1  0
  2  3  2  0
  2  4  1  0
  4  5  2  0
  5  6  1  0
  6  7  2  0
  7  8  1  0
  8  9  1  0
  9 10  1  0
 10 11  1  0
 11 12  1  0
 12 13  1  0
 13 14  1  0
 14 15  1  0
 15 16  1  0
 12 17  1  0
 16 17  1  0
  9 18  1  0
 18 19  2  0
 18 20  1  0
 20 21  1  0
 21 22  2  0
 22 23  1  0
 23 24  2  0
 24 25  1  0
 21 26  1  0
 25 26  2  0
  4 27  1  0
  8 27  2  0
M  END
