JOR-UNI-61e7b1d5-6-vinylsulfonamide
     RDKit          3D

 32 34  0  0  0  0  0  0  0  0999 V2000
    8.2690   -3.7880   20.0660 C   0  0  0  0  0  0  0  0  0  0  0  0
    7.2950   -2.9420   19.2560 C   0  0  0  0  0  0  0  0  0  0  0  0
    5.7770   -2.8610   20.1460 S   0  0  0  0  0  0  0  0  0  0  0  0
    5.3270   -4.1870   20.5450 O   0  0  0  0  0  0  0  0  0  0  0  0
    4.9000   -1.9930   19.4070 O   0  0  0  0  0  0  0  0  0  0  0  0
    6.3560   -1.9670   21.5800 C   0  0  0  0  0  0  0  0  0  0  0  0
    5.6780   -2.0100   22.9860 C   0  0  0  0  0  0  0  0  0  0  0  0
    4.6720   -2.8050   22.8510 N   0  0  0  0  0  0  0  0  0  0  0  0
    5.6650   -2.2720   22.2190 C   0  0  0  0  0  0  0  0  0  0  0  0
    5.5940   -1.8850   23.5730 N   0  0  0  0  0  0  0  0  0  0  0  0
    4.5740   -1.2060   24.2960 C   0  0  0  0  0  0  0  0  0  0  0  0
    4.4850    0.2600   24.1860 C   0  0  0  0  0  0  0  0  0  0  0  0
    6.8900   -1.2750   22.4510 C   0  0  0  0  0  0  0  0  0  0  0  0
    7.3140   -0.5500   23.5940 N   0  0  0  0  0  0  0  0  0  0  0  0
    8.2460   -0.9820   24.5460 C   0  0  0  0  0  0  0  0  0  0  0  0
    8.2080   -2.3640   24.7670 N   0  0  0  0  0  0  0  0  0  0  0  0
    7.8070   -3.0370   25.9570 C   0  0  0  0  0  0  0  0  0  0  0  0
    8.0300   -4.5320   26.2460 C   0  0  0  0  0  0  0  0  0  0  0  0
    8.5670   -5.2850   25.0270 C   0  0  0  0  0  0  0  0  0  0  0  0
    7.5660   -5.8330   24.2330 O   0  0  0  0  0  0  0  0  0  0  0  0
    9.4900   -4.3620   24.2550 C   0  0  0  0  0  0  0  0  0  0  0  0
    9.0100   -3.1380   23.7930 C   0  0  0  0  0  0  0  0  0  0  0  0
    7.2660    0.8500   23.3440 C   0  0  0  0  0  0  0  0  0  0  0  0
    6.9830    1.6590   24.2320 O   0  0  0  0  0  0  0  0  0  0  0  0
    7.5700    1.2320   22.0240 N   0  0  0  0  0  0  0  0  0  0  0  0
    6.7200    1.3530   20.8670 C   0  0  0  0  0  0  0  0  0  0  0  0
    5.6260    2.2170   20.7750 C   0  0  0  0  0  0  0  0  0  0  0  0
    4.8670    2.2560   19.5990 C   0  0  0  0  0  0  0  0  0  0  0  0
    5.2120    1.4320   18.5260 C   0  0  0  0  0  0  0  0  0  0  0  0
    6.2560    0.5810   18.5570 N   0  0  0  0  0  0  0  0  0  0  0  0
    6.9740    0.5660   19.7240 C   0  0  0  0  0  0  0  0  0  0  0  0
    7.5000   -1.2000   21.3470 C   0  0  0  0  0  0  0  0  0  0  0  0
  1  2  1  0
  3  2  1  0
  3  4  2  0
  3  5  2  0
  3  6  1  0
  6  7  2  0
  7  8  1  0
  8  9  2  0
  9 10  1  0
 10 11  1  0
 11 12  1  0
  9 13  1  0
 13 14  1  0
 14 15  1  0
 15 16  1  0
 16 17  1  0
 17 18  1  0
 18 19  1  0
 19 20  1  0
 19 21  1  0
 16 22  1  0
 21 22  1  0
 14 23  1  0
 23 24  2  0
 23 25  1  0
 25 26  1  0
 26 27  2  0
 27 28  1  0
 28 29  2  0
 29 30  1  0
 26 31  1  0
 30 31  2  0
  6 32  1  0
 13 32  2  0
M  END
