JOR-UNI-61e7b1d5-9-acrylamide
     RDKit          3D

 25 27  0  0  0  0  0  0  0  0999 V2000
    6.8580   -5.6730   20.6680 C   0  0  0  0  0  0  0  0  0  0  0  0
    6.7380   -5.0520   22.0510 C   0  0  0  0  0  0  0  0  0  0  0  0
    6.4100   -3.6000   21.9540 C   0  0  0  0  0  0  0  0  0  0  0  0
    5.0600   -3.4730   21.4920 O   0  0  0  0  0  0  0  0  0  0  0  0
    7.7480   -2.6070   22.3870 C   0  0  0  0  0  0  0  0  0  0  0  0
    8.7970   -2.9360   23.4480 C   0  0  0  0  0  0  0  0  0  0  0  0
   10.0730   -2.2230   24.0110 C   0  0  0  0  0  0  0  0  0  0  0  0
    9.7540   -1.2380   23.1300 C   0  0  0  0  0  0  0  0  0  0  0  0
    9.0590   -0.6980   22.2230 C   0  0  0  0  0  0  0  0  0  0  0  0
    9.5700    0.5040   21.9120 N   0  0  0  0  0  0  0  0  0  0  0  0
   10.2290    1.0700   23.0040 C   0  0  0  0  0  0  0  0  0  0  0  0
    9.1900    1.5480   23.9960 C   0  0  0  0  0  0  0  0  0  0  0  0
    9.1240    0.4730   25.0870 C   0  0  0  0  0  0  0  0  0  0  0  0
    7.9360   -0.3410   24.9890 C   0  0  0  0  0  0  0  0  0  0  0  0
    7.8950    0.4230   26.2050 C   0  0  0  0  0  0  0  0  0  0  0  0
    8.5550    1.1850   21.3050 C   0  0  0  0  0  0  0  0  0  0  0  0
    8.6390    2.3480   21.0140 O   0  0  0  0  0  0  0  0  0  0  0  0
    7.4430    0.4060   21.0450 N   0  0  0  0  0  0  0  0  0  0  0  0
    6.6650    0.6610   20.0150 C   0  0  0  0  0  0  0  0  0  0  0  0
    5.5160    1.4140   20.1430 C   0  0  0  0  0  0  0  0  0  0  0  0
    4.7080    1.7170   19.0740 C   0  0  0  0  0  0  0  0  0  0  0  0
    5.1070    1.2230   17.8430 C   0  0  0  0  0  0  0  0  0  0  0  0
    6.1960    0.4700   17.6110 N   0  0  0  0  0  0  0  0  0  0  0  0
    6.9680    0.1810   18.6660 C   0  0  0  0  0  0  0  0  0  0  0  0
    7.9790   -1.3850   21.7670 C   0  0  0  0  0  0  0  0  0  0  0  0
  1  2  1  0
  2  3  1  0
  3  4  2  0
  3  5  1  0
  5  6  2  0
  6  7  1  0
  7  8  2  0
  8  9  1  0
  9 10  1  0
 10 11  1  0
 11 12  1  0
 12 13  1  0
 13 14  1  0
 13 15  1  0
 14 15  1  0
 10 16  1  0
 16 17  2  0
 16 18  1  0
 18 19  1  0
 19 20  2  0
 20 21  1  0
 21 22  2  0
 22 23  1  0
 19 24  1  0
 23 24  2  0
  5 25  1  0
  9 25  2  0
M  END
