JOR-UNI-61e7b1d5-19-vinylsulfonamide
     RDKit          3D

 32 34  0  0  0  0  0  0  0  0999 V2000
    6.5790   -3.5440   19.4860 C   0  0  0  0  0  0  0  0  0  0  0  0
    6.4510   -3.0390   20.8880 C   0  0  0  0  0  0  0  0  0  0  0  0
    6.1700   -4.4330   21.9150 S   0  0  0  0  0  0  0  0  0  0  0  0
    4.7290   -4.4770   22.1940 O   0  0  0  0  0  0  0  0  0  0  0  0
    6.8260   -5.5980   21.3370 O   0  0  0  0  0  0  0  0  0  0  0  0
    7.2290   -4.1560   23.3170 C   0  0  0  0  0  0  0  0  0  0  0  0
    7.8270   -3.2750   24.0870 C   0  0  0  0  0  0  0  0  0  0  0  0
    7.7250   -1.8300   23.9450 N   0  0  0  0  0  0  0  0  0  0  0  0
    7.4480   -0.4020   23.5860 C   0  0  0  0  0  0  0  0  0  0  0  0
    8.0390    0.6330   24.2950 N   0  0  0  0  0  0  0  0  0  0  0  0
    8.9950    0.5150   25.3220 C   0  0  0  0  0  0  0  0  0  0  0  0
    8.5530   -0.0230   26.6110 C   0  0  0  0  0  0  0  0  0  0  0  0
    7.8470   -1.5840   24.0910 C   0  0  0  0  0  0  0  0  0  0  0  0
    6.9370   -1.3400   23.0070 N   0  0  0  0  0  0  0  0  0  0  0  0
    5.5540   -1.5020   23.2430 C   0  0  0  0  0  0  0  0  0  0  0  0
    5.0500   -0.7000   24.4370 C   0  0  0  0  0  0  0  0  0  0  0  0
    4.5420   -1.5530   25.6210 C   0  0  0  0  0  0  0  0  0  0  0  0
    5.6610   -2.4650   26.1380 C   0  0  0  0  0  0  0  0  0  0  0  0
    5.1310   -3.3760   27.2510 C   0  0  0  0  0  0  0  0  0  0  0  0
    3.7750   -3.7210   27.2430 C   0  0  0  0  0  0  0  0  0  0  0  0
    2.9160   -3.2580   26.0780 C   0  0  0  0  0  0  0  0  0  0  0  0
    3.3370   -2.1720   25.2900 C   0  0  0  0  0  0  0  0  0  0  0  0
    7.2920   -0.2900   22.0770 C   0  0  0  0  0  0  0  0  0  0  0  0
    7.3760    0.5060   21.1370 O   0  0  0  0  0  0  0  0  0  0  0  0
    6.2290   -0.7410   21.3430 N   0  0  0  0  0  0  0  0  0  0  0  0
    5.8040    0.0000   20.2840 C   0  0  0  0  0  0  0  0  0  0  0  0
    4.7100    0.8730   20.3390 C   0  0  0  0  0  0  0  0  0  0  0  0
    4.3410    1.5960   19.2090 C   0  0  0  0  0  0  0  0  0  0  0  0
    5.1720    1.3880   17.9510 C   0  0  0  0  0  0  0  0  0  0  0  0
    6.2160    0.5460   17.9160 N   0  0  0  0  0  0  0  0  0  0  0  0
    6.5010   -0.1190   19.0670 C   0  0  0  0  0  0  0  0  0  0  0  0
    7.3550   -2.8110   23.4750 C   0  0  0  0  0  0  0  0  0  0  0  0
  1  2  1  0
  3  2  1  0
  3  4  2  0
  3  5  2  0
  3  6  1  0
  6  7  2  0
  7  8  1  0
  8  9  2  0
  9 10  1  0
 10 11  1  0
 11 12  1  0
  9 13  1  0
 13 14  1  0
 14 15  1  0
 15 16  1  0
 16 17  1  0
 17 18  1  0
 18 19  1  0
 19 20  1  0
 20 21  1  0
 17 22  1  0
 21 22  1  0
 14 23  1  0
 23 24  2  0
 23 25  1  0
 25 26  1  0
 26 27  2  0
 27 28  1  0
 28 29  2  0
 29 30  1  0
 26 31  1  0
 30 31  2  0
  6 32  1  0
 13 32  2  0
M  END
