JOR-UNI-61e7b1d5-6-chloroacetamide
     RDKit          3D

 30 32  0  0  0  0  0  0  0  0999 V2000
    8.5350   -3.7070   20.2050 C   0  0  0  0  0  0  0  0  0  0  0  0
    7.6980   -2.5290   20.1320 C   0  0  0  0  0  0  0  0  0  0  0  0
    6.8130   -3.2360   19.3440 O   0  0  0  0  0  0  0  0  0  0  0  0
    9.0380   -2.3020   21.0160 C   0  0  0  0  0  0  0  0  0  0  0  0
   10.2360   -2.0460   21.8780 C   0  0  0  0  0  0  0  0  0  0  0  0
   10.6030   -1.3410   23.0000 N   0  0  0  0  0  0  0  0  0  0  0  0
    9.6660   -0.6540   23.5540 C   0  0  0  0  0  0  0  0  0  0  0  0
    9.8940    0.0870   24.7140 N   0  0  0  0  0  0  0  0  0  0  0  0
    8.9510    0.2480   25.7630 C   0  0  0  0  0  0  0  0  0  0  0  0
    9.2140   -0.2850   27.1020 C   0  0  0  0  0  0  0  0  0  0  0  0
    8.3820   -0.7230   22.8800 C   0  0  0  0  0  0  0  0  0  0  0  0
    7.3180   -0.0140   23.3340 N   0  0  0  0  0  0  0  0  0  0  0  0
    6.3010   -0.4400   24.1850 C   0  0  0  0  0  0  0  0  0  0  0  0
    6.2150   -1.8310   24.2980 N   0  0  0  0  0  0  0  0  0  0  0  0
    5.0530   -2.6010   24.5160 C   0  0  0  0  0  0  0  0  0  0  0  0
    5.1720   -4.1230   24.5890 C   0  0  0  0  0  0  0  0  0  0  0  0
    6.1570   -4.4380   25.7220 C   0  0  0  0  0  0  0  0  0  0  0  0
    6.5390   -5.6010   25.6230 O   0  0  0  0  0  0  0  0  0  0  0  0
    7.3100   -3.4310   25.7590 C   0  0  0  0  0  0  0  0  0  0  0  0
    7.4660   -2.4960   24.7270 C   0  0  0  0  0  0  0  0  0  0  0  0
    6.9840    0.7670   22.2390 C   0  0  0  0  0  0  0  0  0  0  0  0
    7.4590    1.8790   22.0150 O   0  0  0  0  0  0  0  0  0  0  0  0
    6.1090    0.1350   21.3970 N   0  0  0  0  0  0  0  0  0  0  0  0
    5.7550    0.6340   20.1560 C   0  0  0  0  0  0  0  0  0  0  0  0
    4.6480    1.4440   19.9980 C   0  0  0  0  0  0  0  0  0  0  0  0
    4.3500    1.9280   18.7490 C   0  0  0  0  0  0  0  0  0  0  0  0
    5.1680    1.5850   17.6910 C   0  0  0  0  0  0  0  0  0  0  0  0
    6.2510    0.7900   17.7920 N   0  0  0  0  0  0  0  0  0  0  0  0
    6.5230    0.3310   19.0290 C   0  0  0  0  0  0  0  0  0  0  0  0
    8.1720   -1.4900   21.7390 C   0  0  0  0  0  0  0  0  0  0  0  0
  1  2  1  0
  2  3  2  0
  2  4  1  0
  4  5  2  0
  5  6  1  0
  6  7  2  0
  7  8  1  0
  8  9  1  0
  9 10  1  0
  7 11  1  0
 11 12  1  0
 12 13  1  0
 13 14  1  0
 14 15  1  0
 15 16  1  0
 16 17  1  0
 17 18  1  0
 17 19  1  0
 14 20  1  0
 19 20  1  0
 12 21  1  0
 21 22  2  0
 21 23  1  0
 23 24  1  0
 24 25  2  0
 25 26  1  0
 26 27  2  0
 27 28  1  0
 24 29  1  0
 28 29  2  0
  4 30  1  0
 11 30  2  0
M  END
