JOR-UNI-61e7b1d5-22-chloroacetamide
     RDKit          3D

 27 29  0  0  0  0  0  0  0  0999 V2000
    9.2240   -4.3830   20.0460 C   0  0  0  0  0  0  0  0  0  0  0  0
    8.2880   -3.3500   20.3050 C   0  0  0  0  0  0  0  0  0  0  0  0
    7.0430   -3.5050   19.6200 O   0  0  0  0  0  0  0  0  0  0  0  0
    9.1600   -2.3140   21.2940 C   0  0  0  0  0  0  0  0  0  0  0  0
   10.5980   -2.4350   21.6470 C   0  0  0  0  0  0  0  0  0  0  0  0
   11.3140   -1.5210   22.4730 C   0  0  0  0  0  0  0  0  0  0  0  0
   10.6430   -0.4130   23.0210 C   0  0  0  0  0  0  0  0  0  0  0  0
    9.2660   -0.2760   22.6940 C   0  0  0  0  0  0  0  0  0  0  0  0
    8.4590    0.7130   23.0690 N   0  0  0  0  0  0  0  0  0  0  0  0
    7.5780    0.7650   24.1480 C   0  0  0  0  0  0  0  0  0  0  0  0
    7.2190   -0.4640   24.5930 N   0  0  0  0  0  0  0  0  0  0  0  0
    8.1100   -1.2020   25.2970 C   0  0  0  0  0  0  0  0  0  0  0  0
    7.4520   -2.0260   26.3820 C   0  0  0  0  0  0  0  0  0  0  0  0
    6.2630   -2.6890   25.6870 C   0  0  0  0  0  0  0  0  0  0  0  0
    4.9180   -2.0450   26.0670 C   0  0  0  0  0  0  0  0  0  0  0  0
    5.5090   -1.9720   24.5950 C   0  0  0  0  0  0  0  0  0  0  0  0
    6.3970   -1.2080   23.8350 C   0  0  0  0  0  0  0  0  0  0  0  0
    8.0530    1.1290   21.8210 C   0  0  0  0  0  0  0  0  0  0  0  0
    8.6700    2.0000   21.1980 O   0  0  0  0  0  0  0  0  0  0  0  0
    6.9680    0.4390   21.3310 N   0  0  0  0  0  0  0  0  0  0  0  0
    6.3990    0.6880   20.1050 C   0  0  0  0  0  0  0  0  0  0  0  0
    5.2580    1.4760   20.1160 C   0  0  0  0  0  0  0  0  0  0  0  0
    4.6380    1.7980   18.9390 C   0  0  0  0  0  0  0  0  0  0  0  0
    5.1890    1.3160   17.7810 C   0  0  0  0  0  0  0  0  0  0  0  0
    6.2750    0.5460   17.7060 N   0  0  0  0  0  0  0  0  0  0  0  0
    6.8660    0.2380   18.8760 C   0  0  0  0  0  0  0  0  0  0  0  0
    8.6040   -1.2060   21.8690 C   0  0  0  0  0  0  0  0  0  0  0  0
  1  2  1  0
  2  3  2  0
  2  4  1  0
  4  5  2  0
  5  6  1  0
  6  7  2  0
  7  8  1  0
  8  9  1  0
  9 10  1  0
 10 11  1  0
 11 12  1  0
 12 13  1  0
 13 14  1  0
 14 15  1  0
 14 16  1  0
 11 17  1  0
 16 17  1  0
  9 18  1  0
 18 19  2  0
 18 20  1  0
 20 21  1  0
 21 22  2  0
 22 23  1  0
 23 24  2  0
 24 25  1  0
 21 26  1  0
 25 26  2  0
  4 27  1  0
  8 27  2  0
M  END
