JOR-UNI-61e7b1d5-23-vinylsulfonamide
     RDKit          3D

 32 34  0  0  0  0  0  0  0  0999 V2000
    6.4400   -4.6800   20.2640 C   0  0  0  0  0  0  0  0  0  0  0  0
    6.5530   -4.9600   21.7500 C   0  0  0  0  0  0  0  0  0  0  0  0
    5.9040   -3.5300   22.5530 S   0  0  0  0  0  0  0  0  0  0  0  0
    4.5950   -3.3030   21.9370 O   0  0  0  0  0  0  0  0  0  0  0  0
    6.0280   -3.7090   23.9850 O   0  0  0  0  0  0  0  0  0  0  0  0
    7.1140   -2.3280   21.9960 C   0  0  0  0  0  0  0  0  0  0  0  0
    7.8100   -1.1970   22.2630 C   0  0  0  0  0  0  0  0  0  0  0  0
    6.9940   -1.3300   23.5290 N   0  0  0  0  0  0  0  0  0  0  0  0
    7.0610   -0.4010   24.6320 C   0  0  0  0  0  0  0  0  0  0  0  0
    7.6160    0.7710   25.1890 N   0  0  0  0  0  0  0  0  0  0  0  0
    7.6550    0.8940   26.6540 C   0  0  0  0  0  0  0  0  0  0  0  0
    8.8110    0.2760   27.1770 C   0  0  0  0  0  0  0  0  0  0  0  0
    7.7460   -0.2750   23.5700 C   0  0  0  0  0  0  0  0  0  0  0  0
    8.7270    0.6740   23.0430 N   0  0  0  0  0  0  0  0  0  0  0  0
   10.1380    0.4330   23.4090 C   0  0  0  0  0  0  0  0  0  0  0  0
   10.3250   -0.9250   23.9100 N   0  0  0  0  0  0  0  0  0  0  0  0
    9.5480   -1.2460   25.1270 C   0  0  0  0  0  0  0  0  0  0  0  0
    8.7920   -2.5910   25.1390 C   0  0  0  0  0  0  0  0  0  0  0  0
    9.5800   -3.7280   24.5110 C   0  0  0  0  0  0  0  0  0  0  0  0
    8.7030   -4.9580   24.2450 C   0  0  0  0  0  0  0  0  0  0  0  0
   10.2640   -3.2850   23.2330 C   0  0  0  0  0  0  0  0  0  0  0  0
   10.1460   -1.8270   22.8720 C   0  0  0  0  0  0  0  0  0  0  0  0
    8.5840    1.2030   21.7440 C   0  0  0  0  0  0  0  0  0  0  0  0
    9.0960    2.2520   21.3610 O   0  0  0  0  0  0  0  0  0  0  0  0
    7.8070    0.4210   20.9380 N   0  0  0  0  0  0  0  0  0  0  0  0
    6.9010    0.8030   19.9580 C   0  0  0  0  0  0  0  0  0  0  0  0
    5.9580    1.7770   20.2720 C   0  0  0  0  0  0  0  0  0  0  0  0
    5.0620    2.1610   19.2950 C   0  0  0  0  0  0  0  0  0  0  0  0
    5.1400    1.5650   18.0490 C   0  0  0  0  0  0  0  0  0  0  0  0
    6.0380    0.6200   17.7260 N   0  0  0  0  0  0  0  0  0  0  0  0
    6.8940    0.2620   18.6950 C   0  0  0  0  0  0  0  0  0  0  0  0
    7.2040   -1.4510   22.9910 C   0  0  0  0  0  0  0  0  0  0  0  0
  1  2  1  0
  3  2  1  0
  3  4  2  0
  3  5  2  0
  3  6  1  0
  6  7  2  0
  7  8  1  0
  8  9  2  0
  9 10  1  0
 10 11  1  0
 11 12  1  0
  9 13  1  0
 13 14  1  0
 14 15  1  0
 15 16  1  0
 16 17  1  0
 17 18  1  0
 18 19  1  0
 19 20  1  0
 19 21  1  0
 16 22  1  0
 21 22  1  0
 14 23  1  0
 23 24  2  0
 23 25  1  0
 25 26  1  0
 26 27  2  0
 27 28  1  0
 28 29  2  0
 29 30  1  0
 26 31  1  0
 30 31  2  0
  6 32  1  0
 13 32  2  0
M  END
