JOR-UNI-61e7b1d5-26-chloroacetamide
     RDKit          3D

 27 29  0  0  0  0  0  0  0  0999 V2000
    9.8940   -4.3000   19.5240 C   0  0  0  0  0  0  0  0  0  0  0  0
    8.9600   -3.3640   20.0520 C   0  0  0  0  0  0  0  0  0  0  0  0
    7.5730   -3.5420   19.5160 O   0  0  0  0  0  0  0  0  0  0  0  0
   10.2160   -2.5510   20.9950 C   0  0  0  0  0  0  0  0  0  0  0  0
   11.2850   -1.8600   21.7970 C   0  0  0  0  0  0  0  0  0  0  0  0
   11.3510   -0.9030   22.8180 C   0  0  0  0  0  0  0  0  0  0  0  0
   10.2430   -0.3980   23.2770 C   0  0  0  0  0  0  0  0  0  0  0  0
    9.1490   -0.8870   22.6700 C   0  0  0  0  0  0  0  0  0  0  0  0
    7.9040   -0.4520   23.0000 N   0  0  0  0  0  0  0  0  0  0  0  0
    7.0400   -1.5150   23.5540 C   0  0  0  0  0  0  0  0  0  0  0  0
    7.6940   -2.9150   23.3320 C   0  0  0  0  0  0  0  0  0  0  0  0
    7.5180   -3.9180   24.4270 N   0  0  0  0  0  0  0  0  0  0  0  0
    7.4120   -5.2490   23.7540 C   0  0  0  0  0  0  0  0  0  0  0  0
    7.9820   -6.3950   24.6050 C   0  0  0  0  0  0  0  0  0  0  0  0
    7.8220   -6.1260   26.0380 N   0  0  0  0  0  0  0  0  0  0  0  0
    8.6810   -4.9750   26.3650 C   0  0  0  0  0  0  0  0  0  0  0  0
    8.6800   -3.8860   25.2670 C   0  0  0  0  0  0  0  0  0  0  0  0
    7.5460    0.2630   21.8630 C   0  0  0  0  0  0  0  0  0  0  0  0
    8.0660    1.3450   21.5770 O   0  0  0  0  0  0  0  0  0  0  0  0
    6.6380   -0.3540   21.0590 N   0  0  0  0  0  0  0  0  0  0  0  0
    6.2040    0.2100   19.8720 C   0  0  0  0  0  0  0  0  0  0  0  0
    4.8760    0.9250   19.9190 C   0  0  0  0  0  0  0  0  0  0  0  0
    4.3990    1.5130   18.7590 C   0  0  0  0  0  0  0  0  0  0  0  0
    5.1770    1.4230   17.6080 C   0  0  0  0  0  0  0  0  0  0  0  0
    6.3720    0.7830   17.5470 N   0  0  0  0  0  0  0  0  0  0  0  0
    6.8720    0.1910   18.6600 C   0  0  0  0  0  0  0  0  0  0  0  0
    9.1810   -1.8620   21.6380 C   0  0  0  0  0  0  0  0  0  0  0  0
  1  2  1  0
  2  3  2  0
  2  4  1  0
  4  5  2  0
  5  6  1  0
  6  7  2  0
  7  8  1  0
  8  9  1  0
  9 10  1  0
 10 11  1  0
 11 12  1  0
 12 13  1  0
 13 14  1  0
 14 15  1  0
 15 16  1  0
 12 17  1  0
 16 17  1  0
  9 18  1  0
 18 19  2  0
 18 20  1  0
 20 21  1  0
 21 22  2  0
 22 23  1  0
 23 24  2  0
 24 25  1  0
 21 26  1  0
 25 26  2  0
  4 27  1  0
  8 27  2  0
M  END
