JOR-UNI-61e7b1d5-18-acrylamide
     RDKit          3D

 28 30  0  0  0  0  0  0  0  0999 V2000
    6.5110   -3.3260   19.5660 C   0  0  0  0  0  0  0  0  0  0  0  0
    6.3380   -2.6070   20.8880 C   0  0  0  0  0  0  0  0  0  0  0  0
    5.7500   -3.4170   22.0640 C   0  0  0  0  0  0  0  0  0  0  0  0
    4.5260   -3.5980   22.1920 O   0  0  0  0  0  0  0  0  0  0  0  0
    6.6900   -4.1090   23.0220 C   0  0  0  0  0  0  0  0  0  0  0  0
    7.2250   -5.2430   23.4930 C   0  0  0  0  0  0  0  0  0  0  0  0
    7.7630   -4.1250   24.1620 C   0  0  0  0  0  0  0  0  0  0  0  0
    6.8170   -3.2700   23.2740 C   0  0  0  0  0  0  0  0  0  0  0  0
    5.8140   -3.5250   22.2100 C   0  0  0  0  0  0  0  0  0  0  0  0
    5.9780   -2.0810   22.5640 N   0  0  0  0  0  0  0  0  0  0  0  0
    5.1070   -1.6540   23.5820 C   0  0  0  0  0  0  0  0  0  0  0  0
    5.9290   -1.2320   24.7920 C   0  0  0  0  0  0  0  0  0  0  0  0
    4.9320   -1.1260   25.9570 C   0  0  0  0  0  0  0  0  0  0  0  0
    5.5290   -0.1260   26.9590 C   0  0  0  0  0  0  0  0  0  0  0  0
    6.4980   -0.7910   27.9420 C   0  0  0  0  0  0  0  0  0  0  0  0
    6.1880   -2.1010   28.3040 C   0  0  0  0  0  0  0  0  0  0  0  0
    5.7700   -2.9770   27.1400 C   0  0  0  0  0  0  0  0  0  0  0  0
    4.6850   -2.4130   26.4510 C   0  0  0  0  0  0  0  0  0  0  0  0
    6.8750   -1.1230   21.9310 C   0  0  0  0  0  0  0  0  0  0  0  0
    8.0940   -1.2960   21.8270 O   0  0  0  0  0  0  0  0  0  0  0  0
    6.2630    0.0620   21.4750 N   0  0  0  0  0  0  0  0  0  0  0  0
    5.6930    0.4180   20.2040 C   0  0  0  0  0  0  0  0  0  0  0  0
    4.6180    0.8280   20.8720 C   0  0  0  0  0  0  0  0  0  0  0  0
    4.3920    1.0540   19.4690 C   0  0  0  0  0  0  0  0  0  0  0  0
    5.3890    0.7280   18.2710 C   0  0  0  0  0  0  0  0  0  0  0  0
    6.6560    0.1690   18.3380 N   0  0  0  0  0  0  0  0  0  0  0  0
    6.8230   -0.0250   19.6400 C   0  0  0  0  0  0  0  0  0  0  0  0
    6.0580   -4.9300   22.2900 C   0  0  0  0  0  0  0  0  0  0  0  0
  1  2  1  0
  2  3  1  0
  3  4  2  0
  3  5  1  0
  5  6  2  0
  6  7  1  0
  7  8  2  0
  8  9  1  0
  9 10  1  0
 10 11  1  0
 11 12  1  0
 12 13  1  0
 13 14  1  0
 14 15  1  0
 15 16  1  0
 16 17  1  0
 13 18  1  0
 17 18  1  0
 10 19  1  0
 19 20  2  0
 19 21  1  0
 21 22  1  0
 22 23  2  0
 23 24  1  0
 24 25  2  0
 25 26  1  0
 22 27  1  0
 26 27  2  0
  5 28  1  0
  9 28  2  0
M  END
