JOR-UNI-61e7b1d5-29-chloroacetamide
     RDKit          3D

 31 33  0  0  0  0  0  0  0  0999 V2000
    9.3470   -4.1050   20.2420 C   0  0  0  0  0  0  0  0  0  0  0  0
    8.4350   -2.9350   20.4480 C   0  0  0  0  0  0  0  0  0  0  0  0
    7.3990   -3.6130   19.6110 O   0  0  0  0  0  0  0  0  0  0  0  0
    9.9060   -2.6170   21.2300 C   0  0  0  0  0  0  0  0  0  0  0  0
   11.0670   -2.1310   22.0910 C   0  0  0  0  0  0  0  0  0  0  0  0
   11.1810   -1.1640   23.1580 N   0  0  0  0  0  0  0  0  0  0  0  0
   10.1260   -0.4690   23.6350 C   0  0  0  0  0  0  0  0  0  0  0  0
   10.1240    0.4290   24.7090 N   0  0  0  0  0  0  0  0  0  0  0  0
    8.9240    0.2470   25.5520 C   0  0  0  0  0  0  0  0  0  0  0  0
    9.1520   -0.3060   26.8270 C   0  0  0  0  0  0  0  0  0  0  0  0
    9.0510   -0.7880   22.9210 C   0  0  0  0  0  0  0  0  0  0  0  0
    7.7520   -0.3710   22.9310 N   0  0  0  0  0  0  0  0  0  0  0  0
    6.7700   -1.3130   23.4930 C   0  0  0  0  0  0  0  0  0  0  0  0
    7.3650   -2.2780   24.5320 C   0  0  0  0  0  0  0  0  0  0  0  0
    7.3380   -3.7070   24.1870 N   0  0  0  0  0  0  0  0  0  0  0  0
    8.6780   -4.3390   24.2440 C   0  0  0  0  0  0  0  0  0  0  0  0
    8.7130   -5.8090   23.8220 C   0  0  0  0  0  0  0  0  0  0  0  0
    7.3640   -6.3870   23.8650 N   0  0  0  0  0  0  0  0  0  0  0  0
    7.3100   -7.7070   23.2060 C   0  0  0  0  0  0  0  0  0  0  0  0
    6.6330   -5.8670   25.0110 C   0  0  0  0  0  0  0  0  0  0  0  0
    6.3790   -4.3720   24.9660 C   0  0  0  0  0  0  0  0  0  0  0  0
    7.4500    0.1830   21.7150 C   0  0  0  0  0  0  0  0  0  0  0  0
    8.1200    1.1250   21.2600 O   0  0  0  0  0  0  0  0  0  0  0  0
    6.4340   -0.3890   21.0440 N   0  0  0  0  0  0  0  0  0  0  0  0
    6.0220    0.2240   19.8960 C   0  0  0  0  0  0  0  0  0  0  0  0
    4.8520    0.9590   19.9750 C   0  0  0  0  0  0  0  0  0  0  0  0
    4.4210    1.6140   18.8520 C   0  0  0  0  0  0  0  0  0  0  0  0
    5.1650    1.5150   17.6910 C   0  0  0  0  0  0  0  0  0  0  0  0
    6.2950    0.7980   17.5970 N   0  0  0  0  0  0  0  0  0  0  0  0
    6.7020    0.1650   18.7030 C   0  0  0  0  0  0  0  0  0  0  0  0
    9.5360   -1.7020   22.0940 C   0  0  0  0  0  0  0  0  0  0  0  0
  1  2  1  0
  2  3  2  0
  2  4  1  0
  4  5  2  0
  5  6  1  0
  6  7  2  0
  7  8  1  0
  8  9  1  0
  9 10  1  0
  7 11  1  0
 11 12  1  0
 12 13  1  0
 13 14  1  0
 14 15  1  0
 15 16  1  0
 16 17  1  0
 17 18  1  0
 18 19  1  0
 18 20  1  0
 15 21  1  0
 20 21  1  0
 12 22  1  0
 22 23  2  0
 22 24  1  0
 24 25  1  0
 25 26  2  0
 26 27  1  0
 27 28  2  0
 28 29  1  0
 25 30  1  0
 29 30  2  0
  4 31  1  0
 11 31  2  0
M  END
