JOR-UNI-61e7b1d5-28-acrylamide
     RDKit          3D

 29 31  0  0  0  0  0  0  0  0999 V2000
    8.0740   -4.9080   21.0480 C   0  0  0  0  0  0  0  0  0  0  0  0
    6.6040   -5.2300   21.3080 C   0  0  0  0  0  0  0  0  0  0  0  0
    6.0020   -4.1130   22.1180 C   0  0  0  0  0  0  0  0  0  0  0  0
    4.7820   -3.8550   22.0540 O   0  0  0  0  0  0  0  0  0  0  0  0
    6.9330   -3.3290   22.9960 C   0  0  0  0  0  0  0  0  0  0  0  0
    6.7800   -1.8570   23.3410 C   0  0  0  0  0  0  0  0  0  0  0  0
    7.7860   -2.5140   23.8240 C   0  0  0  0  0  0  0  0  0  0  0  0
    8.6470   -1.7010   24.6550 C   0  0  0  0  0  0  0  0  0  0  0  0
    8.0730   -2.8090   23.9300 C   0  0  0  0  0  0  0  0  0  0  0  0
    6.9250   -2.1280   23.3510 N   0  0  0  0  0  0  0  0  0  0  0  0
    5.6540   -2.1320   24.1780 C   0  0  0  0  0  0  0  0  0  0  0  0
    5.8520   -1.7290   25.6560 C   0  0  0  0  0  0  0  0  0  0  0  0
    5.6490   -2.7530   26.7060 N   0  0  0  0  0  0  0  0  0  0  0  0
    5.8190   -4.1410   26.2500 C   0  0  0  0  0  0  0  0  0  0  0  0
    6.1850   -5.0850   27.4080 C   0  0  0  0  0  0  0  0  0  0  0  0
    7.4320   -4.7290   28.0940 N   0  0  0  0  0  0  0  0  0  0  0  0
    8.5680   -5.5160   27.5770 C   0  0  0  0  0  0  0  0  0  0  0  0
    7.6790   -3.2820   27.9740 C   0  0  0  0  0  0  0  0  0  0  0  0
    6.3950   -2.4690   27.9270 C   0  0  0  0  0  0  0  0  0  0  0  0
    7.0930   -0.9760   22.4900 C   0  0  0  0  0  0  0  0  0  0  0  0
    7.3470    0.1700   22.8930 O   0  0  0  0  0  0  0  0  0  0  0  0
    6.9580   -1.2310   21.1290 N   0  0  0  0  0  0  0  0  0  0  0  0
    6.2710   -0.4530   20.1750 C   0  0  0  0  0  0  0  0  0  0  0  0
    5.0900    0.1890   20.3610 C   0  0  0  0  0  0  0  0  0  0  0  0
    4.5240    0.9310   19.3280 C   0  0  0  0  0  0  0  0  0  0  0  0
    4.9830    1.1750   17.9920 C   0  0  0  0  0  0  0  0  0  0  0  0
    6.1670    0.4610   17.9740 N   0  0  0  0  0  0  0  0  0  0  0  0
    6.7630   -0.2760   18.9380 C   0  0  0  0  0  0  0  0  0  0  0  0
    8.1190   -4.0730   23.5790 C   0  0  0  0  0  0  0  0  0  0  0  0
  1  2  1  0
  2  3  1  0
  3  4  2  0
  3  5  1  0
  5  6  2  0
  6  7  1  0
  7  8  2  0
  8  9  1  0
  9 10  1  0
 10 11  1  0
 11 12  1  0
 12 13  1  0
 13 14  1  0
 14 15  1  0
 15 16  1  0
 16 17  1  0
 16 18  1  0
 13 19  1  0
 18 19  1  0
 10 20  1  0
 20 21  2  0
 20 22  1  0
 22 23  1  0
 23 24  2  0
 24 25  1  0
 25 26  2  0
 26 27  1  0
 23 28  1  0
 27 28  2  0
  5 29  1  0
  9 29  2  0
M  END
