JOR-UNI-2fc98d0b-10
     RDKit          3D

 25 27  0  0  0  0  0  0  0  0999 V2000
    8.6640    1.1640   21.1820 O   0  0  0  0  0  0  0  0  0  0  0  0
    8.1910    0.0990   21.6240 C   0  0  0  0  0  0  0  0  0  0  0  0
    7.1120   -0.4990   21.0450 N   0  0  0  0  0  0  0  0  0  0  0  0
    6.4830    0.0870   19.9670 C   0  0  0  0  0  0  0  0  0  0  0  0
    5.2380    0.9230   20.2240 C   0  0  0  0  0  0  0  0  0  0  0  0
    4.5990    1.5480   19.1670 C   0  0  0  0  0  0  0  0  0  0  0  0
    5.1170    1.3940   17.8950 C   0  0  0  0  0  0  0  0  0  0  0  0
    6.2330    0.6430   17.5920 N   0  0  0  0  0  0  0  0  0  0  0  0
    6.9320   -0.0340   18.6710 C   0  0  0  0  0  0  0  0  0  0  0  0
    8.7270   -0.5640   22.6990 N   0  0  0  0  0  0  0  0  0  0  0  0
    7.9570   -1.5440   23.3430 C   0  0  0  0  0  0  0  0  0  0  0  0
    7.9380   -1.5830   24.8920 C   0  0  0  0  0  0  0  0  0  0  0  0
    7.2430   -2.6330   25.4340 N   0  0  0  0  0  0  0  0  0  0  0  0
    7.7280   -3.5180   26.3560 C   0  0  0  0  0  0  0  0  0  0  0  0
    6.5870   -4.4470   26.7970 C   0  0  0  0  0  0  0  0  0  0  0  0
    5.4690   -4.6180   26.0480 N   0  0  0  0  0  0  0  0  0  0  0  0
    5.1290   -3.7780   25.0720 C   0  0  0  0  0  0  0  0  0  0  0  0
    5.8480   -2.4340   25.2860 C   0  0  0  0  0  0  0  0  0  0  0  0
   10.0810   -0.4020   22.8520 C   0  0  0  0  0  0  0  0  0  0  0  0
   10.5870    0.6310   23.8260 C   0  0  0  0  0  0  0  0  0  0  0  0
   11.9470    0.7700   23.9180 C   0  0  0  0  0  0  0  0  0  0  0  0
   12.8300    0.0080   23.1680 C   0  0  0  0  0  0  0  0  0  0  0  0
   12.3230   -0.9370   22.2880 C   0  0  0  0  0  0  0  0  0  0  0  0
   13.2780   -1.9310   21.3190 Cl  0  0  0  0  0  0  0  0  0  0  0  0
   10.9850   -1.1380   22.1320 C   0  0  0  0  0  0  0  0  0  0  0  0
  1  2  2  0
  2  3  1  0
  3  4  1  0
  4  5  2  0
  5  6  1  0
  6  7  2  0
  7  8  1  0
  4  9  1  0
  8  9  2  0
  2 10  1  0
 10 11  1  0
 11 12  1  0
 12 13  1  0
 13 14  1  0
 14 15  1  0
 15 16  1  0
 16 17  1  0
 13 18  1  0
 17 18  1  0
 10 19  1  0
 19 20  2  0
 20 21  1  0
 21 22  2  0
 22 23  1  0
 23 24  1  0
 19 25  1  0
 23 25  2  0
M  END
