JOR-UNI-61e7b1d5-23-chloroacetamide
     RDKit          3D

 30 32  0  0  0  0  0  0  0  0999 V2000
    8.4890   -3.7200   20.1900 C   0  0  0  0  0  0  0  0  0  0  0  0
    7.6750   -2.5310   20.0770 C   0  0  0  0  0  0  0  0  0  0  0  0
    6.8220   -3.2530   19.2960 O   0  0  0  0  0  0  0  0  0  0  0  0
    8.9540   -2.2670   20.9960 C   0  0  0  0  0  0  0  0  0  0  0  0
    9.7990   -1.7850   21.9760 C   0  0  0  0  0  0  0  0  0  0  0  0
   10.7460   -1.4450   22.8280 N   0  0  0  0  0  0  0  0  0  0  0  0
    9.9410   -0.6430   23.4690 C   0  0  0  0  0  0  0  0  0  0  0  0
   10.2990    0.1020   24.6020 N   0  0  0  0  0  0  0  0  0  0  0  0
    9.7120   -0.3750   25.8620 C   0  0  0  0  0  0  0  0  0  0  0  0
    8.7640    0.4930   26.4200 C   0  0  0  0  0  0  0  0  0  0  0  0
    8.6360   -0.5990   22.8950 C   0  0  0  0  0  0  0  0  0  0  0  0
    7.5950    0.2060   23.3510 N   0  0  0  0  0  0  0  0  0  0  0  0
    6.4840   -0.5080   24.0290 C   0  0  0  0  0  0  0  0  0  0  0  0
    6.7460   -0.7360   25.4620 N   0  0  0  0  0  0  0  0  0  0  0  0
    7.1500   -2.1020   25.8060 C   0  0  0  0  0  0  0  0  0  0  0  0
    7.6360   -2.2140   27.2550 C   0  0  0  0  0  0  0  0  0  0  0  0
    6.7170   -1.5610   28.2940 C   0  0  0  0  0  0  0  0  0  0  0  0
    7.5790   -1.1420   29.4980 C   0  0  0  0  0  0  0  0  0  0  0  0
    5.9740   -0.3190   27.7570 C   0  0  0  0  0  0  0  0  0  0  0  0
    5.6470   -0.3970   26.2610 C   0  0  0  0  0  0  0  0  0  0  0  0
    7.1470    0.9910   22.2990 C   0  0  0  0  0  0  0  0  0  0  0  0
    7.6170    2.1010   22.0530 O   0  0  0  0  0  0  0  0  0  0  0  0
    6.1970    0.3960   21.5240 N   0  0  0  0  0  0  0  0  0  0  0  0
    5.8990    0.7370   20.2120 C   0  0  0  0  0  0  0  0  0  0  0  0
    4.7800    1.5380   20.0670 C   0  0  0  0  0  0  0  0  0  0  0  0
    4.4230    1.9370   18.8110 C   0  0  0  0  0  0  0  0  0  0  0  0
    5.1830    1.5290   17.7340 C   0  0  0  0  0  0  0  0  0  0  0  0
    6.2710    0.7440   17.8290 N   0  0  0  0  0  0  0  0  0  0  0  0
    6.6110    0.3590   19.0770 C   0  0  0  0  0  0  0  0  0  0  0  0
    8.2050   -1.3690   21.7400 C   0  0  0  0  0  0  0  0  0  0  0  0
  1  2  1  0
  2  3  2  0
  2  4  1  0
  4  5  2  0
  5  6  1  0
  6  7  2  0
  7  8  1  0
  8  9  1  0
  9 10  1  0
  7 11  1  0
 11 12  1  0
 12 13  1  0
 13 14  1  0
 14 15  1  0
 15 16  1  0
 16 17  1  0
 17 18  1  0
 17 19  1  0
 14 20  1  0
 19 20  1  0
 12 21  1  0
 21 22  2  0
 21 23  1  0
 23 24  1  0
 24 25  2  0
 25 26  1  0
 26 27  2  0
 27 28  1  0
 24 29  1  0
 28 29  2  0
  4 30  1  0
 11 30  2  0
M  END
