JOR-UNI-61e7b1d5-22-acrylamide
     RDKit          3D

 28 30  0  0  0  0  0  0  0  0999 V2000
    8.6140   -4.0500   20.4700 C   0  0  0  0  0  0  0  0  0  0  0  0
    7.0750   -3.8570   20.3940 C   0  0  0  0  0  0  0  0  0  0  0  0
    6.3550   -4.6590   21.4770 C   0  0  0  0  0  0  0  0  0  0  0  0
    5.1100   -4.7040   21.6050 O   0  0  0  0  0  0  0  0  0  0  0  0
    7.2710   -5.4020   22.4110 C   0  0  0  0  0  0  0  0  0  0  0  0
    8.1960   -5.0110   23.3640 C   0  0  0  0  0  0  0  0  0  0  0  0
    8.4020   -3.3600   23.6180 C   0  0  0  0  0  0  0  0  0  0  0  0
    7.3540   -2.5350   22.6030 C   0  0  0  0  0  0  0  0  0  0  0  0
    7.2590   -3.6640   22.4720 C   0  0  0  0  0  0  0  0  0  0  0  0
    8.0810   -2.8020   23.3150 N   0  0  0  0  0  0  0  0  0  0  0  0
    7.3290   -2.2970   24.4090 C   0  0  0  0  0  0  0  0  0  0  0  0
    7.3730   -3.1010   25.5600 N   0  0  0  0  0  0  0  0  0  0  0  0
    7.5940   -2.6230   26.8780 C   0  0  0  0  0  0  0  0  0  0  0  0
    7.6410   -3.7530   27.9300 C   0  0  0  0  0  0  0  0  0  0  0  0
    7.5580   -5.1350   27.2710 C   0  0  0  0  0  0  0  0  0  0  0  0
    8.9640   -5.7090   27.0570 C   0  0  0  0  0  0  0  0  0  0  0  0
    6.9810   -5.3730   26.0510 C   0  0  0  0  0  0  0  0  0  0  0  0
    6.4440   -4.0730   25.5090 C   0  0  0  0  0  0  0  0  0  0  0  0
    8.9670   -1.8990   22.6040 C   0  0  0  0  0  0  0  0  0  0  0  0
   10.1300   -2.2200   22.3280 O   0  0  0  0  0  0  0  0  0  0  0  0
    8.4150   -0.6440   22.2430 N   0  0  0  0  0  0  0  0  0  0  0  0
    7.7160   -0.2820   21.0350 C   0  0  0  0  0  0  0  0  0  0  0  0
    7.1790    1.0130   21.1600 C   0  0  0  0  0  0  0  0  0  0  0  0
    6.4660    1.6160   20.1740 C   0  0  0  0  0  0  0  0  0  0  0  0
    6.3230    0.8660   19.0720 C   0  0  0  0  0  0  0  0  0  0  0  0
    6.8190   -0.3610   18.9250 N   0  0  0  0  0  0  0  0  0  0  0  0
    7.6330   -1.2020   19.8980 C   0  0  0  0  0  0  0  0  0  0  0  0
    7.8960   -4.4710   23.0750 C   0  0  0  0  0  0  0  0  0  0  0  0
  1  2  1  0
  2  3  1  0
  3  4  2  0
  3  5  1  0
  5  6  2  0
  6  7  1  0
  7  8  2  0
  8  9  1  0
  9 10  1  0
 10 11  1  0
 11 12  1  0
 12 13  1  0
 13 14  1  0
 14 15  1  0
 15 16  1  0
 15 17  1  0
 12 18  1  0
 17 18  1  0
 10 19  1  0
 19 20  2  0
 19 21  1  0
 21 22  1  0
 22 23  2  0
 23 24  1  0
 24 25  2  0
 25 26  1  0
 22 27  1  0
 26 27  2  0
  5 28  1  0
  9 28  2  0
M  END
