JOR-UNI-2fc98d0b-14
     RDKit          3D

 25 27  0  0  0  0  0  0  0  0999 V2000
    9.6160   -6.0880   22.8060 C   0  0  0  0  0  0  0  0  0  0  0  0
    9.6610   -4.6780   23.3380 C   0  0  0  0  0  0  0  0  0  0  0  0
    8.8930   -4.6780   24.6490 C   0  0  0  0  0  0  0  0  0  0  0  0
    8.2310   -3.5190   25.0110 C   0  0  0  0  0  0  0  0  0  0  0  0
    7.8740   -2.7380   23.9510 N   0  0  0  0  0  0  0  0  0  0  0  0
    8.3530   -1.4610   23.8940 C   0  0  0  0  0  0  0  0  0  0  0  0
    8.9530   -1.1500   22.6670 N   0  0  0  0  0  0  0  0  0  0  0  0
    8.1760   -0.3960   21.6630 C   0  0  0  0  0  0  0  0  0  0  0  0
    8.7020    0.8680   21.2300 O   0  0  0  0  0  0  0  0  0  0  0  0
    7.0180   -0.8000   21.1380 N   0  0  0  0  0  0  0  0  0  0  0  0
    6.3800   -0.0850   20.1400 C   0  0  0  0  0  0  0  0  0  0  0  0
    5.0780    0.6750   20.3850 C   0  0  0  0  0  0  0  0  0  0  0  0
    4.4780    1.4430   19.2090 C   0  0  0  0  0  0  0  0  0  0  0  0
    5.1850    1.4250   17.8650 C   0  0  0  0  0  0  0  0  0  0  0  0
    6.3850    0.7190   17.6350 N   0  0  0  0  0  0  0  0  0  0  0  0
    6.8900    0.0420   18.7110 C   0  0  0  0  0  0  0  0  0  0  0  0
   10.2850   -0.5500   22.7550 C   0  0  0  0  0  0  0  0  0  0  0  0
   11.6300   -1.1680   22.4780 C   0  0  0  0  0  0  0  0  0  0  0  0
   12.8560   -0.2990   22.6440 C   0  0  0  0  0  0  0  0  0  0  0  0
   12.6660    1.0310   23.0330 C   0  0  0  0  0  0  0  0  0  0  0  0
   11.3690    1.5430   23.2670 C   0  0  0  0  0  0  0  0  0  0  0  0
   11.1050    3.1850   23.7090 Cl  0  0  0  0  0  0  0  0  0  0  0  0
   10.2240    0.7770   23.1410 C   0  0  0  0  0  0  0  0  0  0  0  0
    7.8100   -3.3970   22.6470 C   0  0  0  0  0  0  0  0  0  0  0  0
    9.0850   -3.8790   22.3640 C   0  0  0  0  0  0  0  0  0  0  0  0
  1  2  1  0
  2  3  1  0
  3  4  1  0
  4  5  1  0
  5  6  1  0
  6  7  1  0
  7  8  1  0
  8  9  2  0
  8 10  1  0
 10 11  1  0
 11 12  2  0
 12 13  1  0
 13 14  2  0
 14 15  1  0
 11 16  1  0
 15 16  2  0
  7 17  1  0
 17 18  2  0
 18 19  1  0
 19 20  2  0
 20 21  1  0
 21 22  1  0
 17 23  1  0
 21 23  2  0
  5 24  1  0
  2 25  1  0
 24 25  1  0
M  END
