JOR-UNI-2fc98d0b-9
     RDKit          3D

 26 28  0  0  0  0  0  0  0  0999 V2000
    8.7440    1.2440   21.1810 O   0  0  0  0  0  0  0  0  0  0  0  0
    8.2680    0.1800   21.6160 C   0  0  0  0  0  0  0  0  0  0  0  0
    7.1360   -0.3720   21.0830 N   0  0  0  0  0  0  0  0  0  0  0  0
    6.5030    0.1700   19.9870 C   0  0  0  0  0  0  0  0  0  0  0  0
    5.2610    1.0140   20.2190 C   0  0  0  0  0  0  0  0  0  0  0  0
    4.6160    1.5990   19.1450 C   0  0  0  0  0  0  0  0  0  0  0  0
    5.1300    1.3940   17.8770 C   0  0  0  0  0  0  0  0  0  0  0  0
    6.2420    0.6320   17.5920 N   0  0  0  0  0  0  0  0  0  0  0  0
    6.9470   -0.0000   18.6920 C   0  0  0  0  0  0  0  0  0  0  0  0
    8.8320   -0.5340   22.6370 N   0  0  0  0  0  0  0  0  0  0  0  0
    8.2580   -1.7100   23.0610 C   0  0  0  0  0  0  0  0  0  0  0  0
    9.2880   -2.8010   23.3890 C   0  0  0  0  0  0  0  0  0  0  0  0
    9.1840   -3.3290   24.6200 N   0  0  0  0  0  0  0  0  0  0  0  0
    8.0940   -3.2740   25.4270 C   0  0  0  0  0  0  0  0  0  0  0  0
    7.8600   -4.6890   25.9470 C   0  0  0  0  0  0  0  0  0  0  0  0
    8.6390   -5.0850   27.2120 C   0  0  0  0  0  0  0  0  0  0  0  0
    9.7100   -4.5360   27.3120 O   0  0  0  0  0  0  0  0  0  0  0  0
   10.5350   -4.5220   26.1460 C   0  0  0  0  0  0  0  0  0  0  0  0
   10.4410   -3.2760   25.2660 C   0  0  0  0  0  0  0  0  0  0  0  0
   10.1910   -0.4770   22.7850 C   0  0  0  0  0  0  0  0  0  0  0  0
   10.7090    0.3180   23.7580 C   0  0  0  0  0  0  0  0  0  0  0  0
   12.0630    0.4490   23.9600 C   0  0  0  0  0  0  0  0  0  0  0  0
   12.9190   -0.2590   23.1540 C   0  0  0  0  0  0  0  0  0  0  0  0
   12.3780   -1.0760   22.1770 C   0  0  0  0  0  0  0  0  0  0  0  0
   13.3060   -2.0040   21.1290 Cl  0  0  0  0  0  0  0  0  0  0  0  0
   11.0370   -1.1850   21.9910 C   0  0  0  0  0  0  0  0  0  0  0  0
  1  2  2  0
  2  3  1  0
  3  4  1  0
  4  5  2  0
  5  6  1  0
  6  7  2  0
  7  8  1  0
  4  9  1  0
  8  9  2  0
  2 10  1  0
 10 11  1  0
 11 12  1  0
 12 13  1  0
 13 14  1  0
 14 15  1  0
 15 16  1  0
 16 17  1  0
 17 18  1  0
 13 19  1  0
 18 19  1  0
 10 20  1  0
 20 21  2  0
 21 22  1  0
 22 23  2  0
 23 24  1  0
 24 25  1  0
 20 26  1  0
 24 26  2  0
M  END
