JOR-UNI-61e7b1d5-14-vinylsulfonamide
     RDKit          3D

 29 31  0  0  0  0  0  0  0  0999 V2000
    8.9430   -4.1350   20.5110 C   0  0  0  0  0  0  0  0  0  0  0  0
    7.6170   -3.3740   20.3440 C   0  0  0  0  0  0  0  0  0  0  0  0
    6.5640   -3.7880   21.7070 S   0  0  0  0  0  0  0  0  0  0  0  0
    5.1640   -3.7220   21.2770 O   0  0  0  0  0  0  0  0  0  0  0  0
    7.0780   -5.0000   22.3220 O   0  0  0  0  0  0  0  0  0  0  0  0
    6.8960   -2.4330   22.8130 C   0  0  0  0  0  0  0  0  0  0  0  0
    7.9440   -1.1170   22.8460 C   0  0  0  0  0  0  0  0  0  0  0  0
    7.6790   -0.4090   24.0380 C   0  0  0  0  0  0  0  0  0  0  0  0
    6.8830   -1.2040   24.2580 C   0  0  0  0  0  0  0  0  0  0  0  0
    7.9860   -0.9340   22.9800 C   0  0  0  0  0  0  0  0  0  0  0  0
    8.9830    0.0910   22.7220 N   0  0  0  0  0  0  0  0  0  0  0  0
   10.2400    0.1540   23.3570 C   0  0  0  0  0  0  0  0  0  0  0  0
   10.8070   -1.0540   23.6140 N   0  0  0  0  0  0  0  0  0  0  0  0
   10.2450   -1.7910   24.5990 C   0  0  0  0  0  0  0  0  0  0  0  0
   11.0180   -3.0060   25.0310 C   0  0  0  0  0  0  0  0  0  0  0  0
   12.3370   -2.8730   25.2450 N   0  0  0  0  0  0  0  0  0  0  0  0
   12.9490   -4.0020   25.9680 C   0  0  0  0  0  0  0  0  0  0  0  0
   12.9480   -2.2490   24.1590 C   0  0  0  0  0  0  0  0  0  0  0  0
   12.2760   -0.9250   23.7850 C   0  0  0  0  0  0  0  0  0  0  0  0
    8.6930    1.2110   21.8410 C   0  0  0  0  0  0  0  0  0  0  0  0
    9.4370    1.8450   22.5770 O   0  0  0  0  0  0  0  0  0  0  0  0
    7.9660    0.2450   21.2700 N   0  0  0  0  0  0  0  0  0  0  0  0
    7.0850    0.6190   20.3010 C   0  0  0  0  0  0  0  0  0  0  0  0
    6.1720    1.6460   20.5750 C   0  0  0  0  0  0  0  0  0  0  0  0
    5.2590    2.0430   19.5900 C   0  0  0  0  0  0  0  0  0  0  0  0
    5.2630    1.4180   18.3430 C   0  0  0  0  0  0  0  0  0  0  0  0
    6.1120    0.4250   18.0040 N   0  0  0  0  0  0  0  0  0  0  0  0
    6.9980    0.0270   18.9520 C   0  0  0  0  0  0  0  0  0  0  0  0
    7.7160   -1.9070   22.2480 C   0  0  0  0  0  0  0  0  0  0  0  0
  1  2  1  0
  3  2  1  0
  3  4  2  0
  3  5  2  0
  3  6  1  0
  6  7  2  0
  7  8  1  0
  8  9  2  0
  9 10  1  0
 10 11  1  0
 11 12  1  0
 12 13  1  0
 13 14  1  0
 14 15  1  0
 15 16  1  0
 16 17  1  0
 16 18  1  0
 13 19  1  0
 18 19  1  0
 11 20  1  0
 20 21  2  0
 20 22  1  0
 22 23  1  0
 23 24  2  0
 24 25  1  0
 25 26  2  0
 26 27  1  0
 23 28  1  0
 27 28  2  0
  6 29  1  0
 10 29  2  0
M  END
