JOR-UNI-61e7b1d5-29-vinylsulfonamide
     RDKit          3D

 33 35  0  0  0  0  0  0  0  0999 V2000
    7.1020   -3.2740   19.3250 C   0  0  0  0  0  0  0  0  0  0  0  0
    6.6150   -3.7370   20.6710 C   0  0  0  0  0  0  0  0  0  0  0  0
    5.4710   -2.5260   21.2170 S   0  0  0  0  0  0  0  0  0  0  0  0
    4.4920   -3.2600   22.0020 O   0  0  0  0  0  0  0  0  0  0  0  0
    5.0570   -1.8110   20.0300 O   0  0  0  0  0  0  0  0  0  0  0  0
    6.3990   -1.3610   22.2180 C   0  0  0  0  0  0  0  0  0  0  0  0
    7.5720   -0.6650   22.5180 C   0  0  0  0  0  0  0  0  0  0  0  0
    8.0920    0.2590   23.4070 N   0  0  0  0  0  0  0  0  0  0  0  0
    9.1690    0.1020   22.7000 C   0  0  0  0  0  0  0  0  0  0  0  0
   10.4400    0.6800   22.8170 N   0  0  0  0  0  0  0  0  0  0  0  0
   11.0330    0.6910   24.1450 C   0  0  0  0  0  0  0  0  0  0  0  0
   10.1360    0.0800   25.0420 C   0  0  0  0  0  0  0  0  0  0  0  0
    8.6320   -0.8250   21.8070 C   0  0  0  0  0  0  0  0  0  0  0  0
    7.5140   -0.4520   22.7740 N   0  0  0  0  0  0  0  0  0  0  0  0
    7.6110   -1.0680   24.1500 C   0  0  0  0  0  0  0  0  0  0  0  0
    6.3390   -1.7540   24.6870 C   0  0  0  0  0  0  0  0  0  0  0  0
    6.5490   -2.8770   25.6200 N   0  0  0  0  0  0  0  0  0  0  0  0
    7.1460   -4.0430   24.9470 C   0  0  0  0  0  0  0  0  0  0  0  0
    8.2230   -4.7430   25.7630 C   0  0  0  0  0  0  0  0  0  0  0  0
    7.8720   -4.8690   27.1820 N   0  0  0  0  0  0  0  0  0  0  0  0
    8.7560   -5.8830   27.7760 C   0  0  0  0  0  0  0  0  0  0  0  0
    7.5290   -3.5690   27.7540 C   0  0  0  0  0  0  0  0  0  0  0  0
    7.2820   -2.4560   26.7420 C   0  0  0  0  0  0  0  0  0  0  0  0
    6.5750    0.6810   22.6510 C   0  0  0  0  0  0  0  0  0  0  0  0
    6.0530    0.2550   23.6920 O   0  0  0  0  0  0  0  0  0  0  0  0
    7.3650    0.8980   21.5270 N   0  0  0  0  0  0  0  0  0  0  0  0
    6.9960    0.7000   20.1740 C   0  0  0  0  0  0  0  0  0  0  0  0
    6.0650    1.7540   20.5840 C   0  0  0  0  0  0  0  0  0  0  0  0
    5.2520    2.0380   19.3740 C   0  0  0  0  0  0  0  0  0  0  0  0
    5.2370    1.5150   18.0490 C   0  0  0  0  0  0  0  0  0  0  0  0
    6.0760    0.6060   17.7820 N   0  0  0  0  0  0  0  0  0  0  0  0
    6.4390    0.7560   19.0020 C   0  0  0  0  0  0  0  0  0  0  0  0
    7.5050   -1.5900   21.3970 C   0  0  0  0  0  0  0  0  0  0  0  0
  1  2  1  0
  3  2  1  0
  3  4  2  0
  3  5  2  0
  3  6  1  0
  6  7  2  0
  7  8  1  0
  8  9  2  0
  9 10  1  0
 10 11  1  0
 11 12  1  0
  9 13  1  0
 13 14  1  0
 14 15  1  0
 15 16  1  0
 16 17  1  0
 17 18  1  0
 18 19  1  0
 19 20  1  0
 20 21  1  0
 20 22  1  0
 17 23  1  0
 22 23  1  0
 14 24  1  0
 24 25  2  0
 24 26  1  0
 26 27  1  0
 27 28  2  0
 28 29  1  0
 29 30  2  0
 30 31  1  0
 27 32  1  0
 31 32  2  0
  6 33  1  0
 13 33  2  0
M  END
