JOR-UNI-61e7b1d5-17-vinylsulfonamide
     RDKit          3D

 32 34  0  0  0  0  0  0  0  0999 V2000
    7.1220   -4.3350   20.6500 C   0  0  0  0  0  0  0  0  0  0  0  0
    7.3370   -3.3800   21.8170 C   0  0  0  0  0  0  0  0  0  0  0  0
    6.1290   -2.1770   21.8080 S   0  0  0  0  0  0  0  0  0  0  0  0
    4.6590   -3.0170   21.6460 O   0  0  0  0  0  0  0  0  0  0  0  0
    6.3150   -1.6000   20.4410 O   0  0  0  0  0  0  0  0  0  0  0  0
    6.6080   -0.4940   22.8570 C   0  0  0  0  0  0  0  0  0  0  0  0
    6.9520    0.7160   23.6120 C   0  0  0  0  0  0  0  0  0  0  0  0
    7.9220    0.3480   23.4600 N   0  0  0  0  0  0  0  0  0  0  0  0
    9.0140    0.6810   23.7200 C   0  0  0  0  0  0  0  0  0  0  0  0
    8.6840   -0.4580   23.2410 N   0  0  0  0  0  0  0  0  0  0  0  0
    8.6900   -1.3620   24.4120 C   0  0  0  0  0  0  0  0  0  0  0  0
    8.6720   -0.8350   25.8290 C   0  0  0  0  0  0  0  0  0  0  0  0
    9.8520   -0.2000   23.2070 C   0  0  0  0  0  0  0  0  0  0  0  0
    9.8780   -1.3540   22.4680 N   0  0  0  0  0  0  0  0  0  0  0  0
   10.0040   -2.6780   22.8620 C   0  0  0  0  0  0  0  0  0  0  0  0
    9.0680   -3.0390   23.9770 C   0  0  0  0  0  0  0  0  0  0  0  0
    9.0620   -4.3770   24.2670 N   0  0  0  0  0  0  0  0  0  0  0  0
    9.8470   -5.0800   25.1600 C   0  0  0  0  0  0  0  0  0  0  0  0
    9.3290   -6.4620   25.5330 C   0  0  0  0  0  0  0  0  0  0  0  0
    7.9550   -6.5480   25.4230 O   0  0  0  0  0  0  0  0  0  0  0  0
    7.5140   -6.2160   24.1650 C   0  0  0  0  0  0  0  0  0  0  0  0
    8.1490   -5.2080   23.4510 C   0  0  0  0  0  0  0  0  0  0  0  0
    9.3180   -0.9040   21.2480 C   0  0  0  0  0  0  0  0  0  0  0  0
   10.1260   -0.4310   20.5450 O   0  0  0  0  0  0  0  0  0  0  0  0
    7.9180   -0.8850   20.9890 N   0  0  0  0  0  0  0  0  0  0  0  0
    7.1120   -0.0860   20.0220 C   0  0  0  0  0  0  0  0  0  0  0  0
    5.9680    0.7190   20.3760 C   0  0  0  0  0  0  0  0  0  0  0  0
    5.2830    1.4040   19.3600 C   0  0  0  0  0  0  0  0  0  0  0  0
    5.7380    1.3040   18.0650 C   0  0  0  0  0  0  0  0  0  0  0  0
    6.8130    0.5510   17.7160 N   0  0  0  0  0  0  0  0  0  0  0  0
    7.4590   -0.1270   18.7040 C   0  0  0  0  0  0  0  0  0  0  0  0
    8.3330   -0.7730   22.7620 C   0  0  0  0  0  0  0  0  0  0  0  0
  1  2  1  0
  3  2  1  0
  3  4  2  0
  3  5  2  0
  3  6  1  0
  6  7  2  0
  7  8  1  0
  8  9  2  0
  9 10  1  0
 10 11  1  0
 11 12  1  0
  9 13  1  0
 13 14  1  0
 14 15  1  0
 15 16  1  0
 16 17  1  0
 17 18  1  0
 18 19  1  0
 19 20  1  0
 20 21  1  0
 17 22  1  0
 21 22  1  0
 14 23  1  0
 23 24  2  0
 23 25  1  0
 25 26  1  0
 26 27  2  0
 27 28  1  0
 28 29  2  0
 29 30  1  0
 26 31  1  0
 30 31  2  0
  6 32  1  0
 13 32  2  0
M  END
