JOR-UNI-61e7b1d5-8-acrylamide
     RDKit          3D

 28 29  0  0  0  0  0  0  0  0999 V2000
    8.6360   -3.3100   19.7510 C   0  0  0  0  0  0  0  0  0  0  0  0
    7.6120   -3.9590   20.4250 C   0  0  0  0  0  0  0  0  0  0  0  0
    6.8020   -3.1900   21.4670 C   0  0  0  0  0  0  0  0  0  0  0  0
    5.2170   -3.5100   21.3420 O   0  0  0  0  0  0  0  0  0  0  0  0
    8.0470   -2.3240   22.3940 C   0  0  0  0  0  0  0  0  0  0  0  0
    8.6640   -3.2360   22.5760 C   0  0  0  0  0  0  0  0  0  0  0  0
    9.2750   -2.2800   23.4420 N   0  0  0  0  0  0  0  0  0  0  0  0
    8.7890   -0.8620   23.4550 C   0  0  0  0  0  0  0  0  0  0  0  0
    9.4420   -0.0420   24.3420 N   0  0  0  0  0  0  0  0  0  0  0  0
    8.7110    0.0290   25.5450 C   0  0  0  0  0  0  0  0  0  0  0  0
    9.5060   -0.4440   26.5350 C   0  0  0  0  0  0  0  0  0  0  0  0
    7.5990   -0.1610   22.5600 C   0  0  0  0  0  0  0  0  0  0  0  0
    7.9820    0.9870   23.1310 N   0  0  0  0  0  0  0  0  0  0  0  0
    7.1300    1.8730   23.8520 C   0  0  0  0  0  0  0  0  0  0  0  0
    5.6760    1.3550   23.9060 C   0  0  0  0  0  0  0  0  0  0  0  0
    5.5790    0.5530   25.2470 C   0  0  0  0  0  0  0  0  0  0  0  0
    5.8840    1.1960   26.4780 N   0  0  0  0  0  0  0  0  0  0  0  0
    5.2150   -0.8460   25.1110 N   0  0  0  0  0  0  0  0  0  0  0  0
    8.7060    1.4340   21.7990 C   0  0  0  0  0  0  0  0  0  0  0  0
    8.9890    1.5460   20.6130 O   0  0  0  0  0  0  0  0  0  0  0  0
    7.6670    0.6900   21.1060 N   0  0  0  0  0  0  0  0  0  0  0  0
    6.3710    1.1080   20.5780 C   0  0  0  0  0  0  0  0  0  0  0  0
    5.1120    1.4780   19.9130 C   0  0  0  0  0  0  0  0  0  0  0  0
    5.1100    1.2350   18.7850 C   0  0  0  0  0  0  0  0  0  0  0  0
    4.9450    1.0090   17.4200 C   0  0  0  0  0  0  0  0  0  0  0  0
    6.1410    0.5430   17.8470 N   0  0  0  0  0  0  0  0  0  0  0  0
    6.7780    0.5860   19.1440 C   0  0  0  0  0  0  0  0  0  0  0  0
    7.3530   -1.2940   22.1890 C   0  0  0  0  0  0  0  0  0  0  0  0
  1  2  1  0
  2  3  1  0
  3  4  2  0
  3  5  1  0
  5  6  2  0
  6  7  1  0
  7  8  2  0
  8  9  1  0
  9 10  1  0
 10 11  1  0
  8 12  1  0
 12 13  1  0
 13 14  1  0
 14 15  1  0
 15 16  1  0
 16 17  2  3
 16 18  1  0
 13 19  1  0
 19 20  2  0
 19 21  1  0
 21 22  1  0
 22 23  2  0
 23 24  1  0
 24 25  2  0
 25 26  1  0
 22 27  1  0
 26 27  2  0
  5 28  1  0
 12 28  2  0
M  END
