JOR-UNI-61e7b1d5-1-nitrile
     RDKit          3D

 21 22  0  0  0  0  0  0  0  0999 V2000
    7.4690   -3.6530   19.8860 C   0  0  0  0  0  0  0  0  0  0  0  0
    6.8700   -2.9890   18.9640 N   0  0  0  0  0  0  0  0  0  0  0  0
    8.6130   -3.0840   20.8180 C   0  0  0  0  0  0  0  0  0  0  0  0
    8.0650   -1.9640   21.3490 C   0  0  0  0  0  0  0  0  0  0  0  0
    9.4170   -1.8160   22.0730 N   0  0  0  0  0  0  0  0  0  0  0  0
    9.6600   -0.6250   23.0120 C   0  0  0  0  0  0  0  0  0  0  0  0
   10.9470   -0.8380   23.4440 N   0  0  0  0  0  0  0  0  0  0  0  0
   11.0420    0.1090   24.5520 C   0  0  0  0  0  0  0  0  0  0  0  0
   10.0250   -0.2490   25.5630 C   0  0  0  0  0  0  0  0  0  0  0  0
    8.6610   -0.9110   22.3650 C   0  0  0  0  0  0  0  0  0  0  0  0
    7.6280   -0.1120   22.4480 N   0  0  0  0  0  0  0  0  0  0  0  0
    7.4380    0.8570   21.5470 C   0  0  0  0  0  0  0  0  0  0  0  0
    8.2540    1.7330   21.2200 O   0  0  0  0  0  0  0  0  0  0  0  0
    6.1940    0.6480   21.0780 N   0  0  0  0  0  0  0  0  0  0  0  0
    5.8340    1.0230   19.8310 C   0  0  0  0  0  0  0  0  0  0  0  0
    4.7040    1.9810   19.7830 C   0  0  0  0  0  0  0  0  0  0  0  0
    4.0580    2.6270   18.5540 C   0  0  0  0  0  0  0  0  0  0  0  0
    5.0170    1.8970   17.5580 C   0  0  0  0  0  0  0  0  0  0  0  0
    6.0370    1.0190   17.5630 N   0  0  0  0  0  0  0  0  0  0  0  0
    6.4380    0.5890   18.7130 C   0  0  0  0  0  0  0  0  0  0  0  0
    8.9800   -2.1090   21.6720 C   0  0  0  0  0  0  0  0  0  0  0  0
  1  2  2  3
  1  3  1  0
  3  4  2  0
  4  5  1  0
  5  6  2  0
  6  7  1  0
  7  8  1  0
  8  9  1  0
  6 10  1  0
 10 11  1  0
 11 12  1  0
 12 13  2  0
 12 14  1  0
 14 15  1  0
 15 16  2  0
 16 17  1  0
 17 18  2  0
 18 19  1  0
 15 20  1  0
 19 20  2  0
  3 21  1  0
 10 21  2  0
M  END
