JOR-UNI-61e7b1d5-31-nitrile
     RDKit          3D

 29 31  0  0  0  0  0  0  0  0999 V2000
    8.5610   -3.5970   20.1200 C   0  0  0  0  0  0  0  0  0  0  0  0
    7.6420   -3.0980   19.2080 N   0  0  0  0  0  0  0  0  0  0  0  0
    9.7730   -2.8590   21.1040 C   0  0  0  0  0  0  0  0  0  0  0  0
   10.8000   -2.1780   22.0000 C   0  0  0  0  0  0  0  0  0  0  0  0
   10.9170   -1.2640   23.0240 N   0  0  0  0  0  0  0  0  0  0  0  0
    9.8500   -0.7410   23.4470 C   0  0  0  0  0  0  0  0  0  0  0  0
    9.7890    0.1880   24.5260 N   0  0  0  0  0  0  0  0  0  0  0  0
    9.5610   -0.4440   25.8360 C   0  0  0  0  0  0  0  0  0  0  0  0
    8.6680    0.2840   26.6370 C   0  0  0  0  0  0  0  0  0  0  0  0
    8.7630   -1.1640   22.7600 C   0  0  0  0  0  0  0  0  0  0  0  0
    7.5470   -0.6210   23.0600 N   0  0  0  0  0  0  0  0  0  0  0  0
    6.5330   -1.3780   23.8270 C   0  0  0  0  0  0  0  0  0  0  0  0
    6.4250   -2.8940   23.4850 C   0  0  0  0  0  0  0  0  0  0  0  0
    7.4870   -3.7440   24.0730 N   0  0  0  0  0  0  0  0  0  0  0  0
    7.4770   -5.1050   23.5140 C   0  0  0  0  0  0  0  0  0  0  0  0
    8.8380   -5.7710   23.6920 C   0  0  0  0  0  0  0  0  0  0  0  0
    9.3080   -5.5980   25.1340 C   0  0  0  0  0  0  0  0  0  0  0  0
    8.1690   -5.1150   26.0540 C   0  0  0  0  0  0  0  0  0  0  0  0
    7.5450   -3.8100   25.5380 C   0  0  0  0  0  0  0  0  0  0  0  0
    7.3030    0.0870   21.9000 C   0  0  0  0  0  0  0  0  0  0  0  0
    7.9550    1.0950   21.5810 O   0  0  0  0  0  0  0  0  0  0  0  0
    6.3520   -0.4420   21.1040 N   0  0  0  0  0  0  0  0  0  0  0  0
    5.9920    0.1870   19.9370 C   0  0  0  0  0  0  0  0  0  0  0  0
    4.8470    0.9540   19.9860 C   0  0  0  0  0  0  0  0  0  0  0  0
    4.4340    1.6290   18.8570 C   0  0  0  0  0  0  0  0  0  0  0  0
    5.1920    1.5060   17.7150 C   0  0  0  0  0  0  0  0  0  0  0  0
    6.3090    0.7600   17.6370 N   0  0  0  0  0  0  0  0  0  0  0  0
    6.6900    0.1140   18.7470 C   0  0  0  0  0  0  0  0  0  0  0  0
    8.7520   -2.1200   21.7140 C   0  0  0  0  0  0  0  0  0  0  0  0
  1  2  2  3
  1  3  1  0
  3  4  2  0
  4  5  1  0
  5  6  2  0
  6  7  1  0
  7  8  1  0
  8  9  1  0
  6 10  1  0
 10 11  1  0
 11 12  1  0
 12 13  1  0
 13 14  1  0
 14 15  1  0
 15 16  1  0
 16 17  1  0
 17 18  1  0
 14 19  1  0
 18 19  1  0
 11 20  1  0
 20 21  2  0
 20 22  1  0
 22 23  1  0
 23 24  2  0
 24 25  1  0
 25 26  2  0
 26 27  1  0
 23 28  1  0
 27 28  2  0
  3 29  1  0
 10 29  2  0
M  END
