JOR-UNI-2fc98d0b-11
     RDKit          3D

 26 28  0  0  0  0  0  0  0  0999 V2000
    3.6580   -4.5890   23.4590 C   0  0  0  0  0  0  0  0  0  0  0  0
    4.7900   -5.1290   24.0420 N   0  0  0  0  0  0  0  0  0  0  0  0
    5.4740   -4.6350   25.1720 C   0  0  0  0  0  0  0  0  0  0  0  0
    6.2710   -3.4180   24.7430 C   0  0  0  0  0  0  0  0  0  0  0  0
    6.9990   -3.7280   23.4930 N   0  0  0  0  0  0  0  0  0  0  0  0
    8.2150   -3.0720   23.5960 C   0  0  0  0  0  0  0  0  0  0  0  0
    8.9150   -2.4970   22.5380 C   0  0  0  0  0  0  0  0  0  0  0  0
    9.0650   -1.1400   22.5640 N   0  0  0  0  0  0  0  0  0  0  0  0
    8.2380   -0.3580   21.6020 C   0  0  0  0  0  0  0  0  0  0  0  0
    8.5520    0.9550   21.1190 O   0  0  0  0  0  0  0  0  0  0  0  0
    7.0030   -1.0100   21.1350 N   0  0  0  0  0  0  0  0  0  0  0  0
    6.3590   -0.1750   20.0910 C   0  0  0  0  0  0  0  0  0  0  0  0
    5.0740    0.6150   20.4340 C   0  0  0  0  0  0  0  0  0  0  0  0
    4.5110    1.4440   19.2390 C   0  0  0  0  0  0  0  0  0  0  0  0
    5.2930    1.3620   17.9360 C   0  0  0  0  0  0  0  0  0  0  0  0
    6.4150    0.6420   17.7170 N   0  0  0  0  0  0  0  0  0  0  0  0
    6.9340   -0.0820   18.6950 C   0  0  0  0  0  0  0  0  0  0  0  0
   10.2780   -0.5860   22.7250 C   0  0  0  0  0  0  0  0  0  0  0  0
   11.5890   -1.3380   22.5720 C   0  0  0  0  0  0  0  0  0  0  0  0
   12.8630   -0.5280   22.7690 C   0  0  0  0  0  0  0  0  0  0  0  0
   12.7170    0.8340   23.0680 C   0  0  0  0  0  0  0  0  0  0  0  0
   11.4550    1.4510   23.1920 C   0  0  0  0  0  0  0  0  0  0  0  0
   11.2880    3.1280   23.5290 Cl  0  0  0  0  0  0  0  0  0  0  0  0
   10.2760    0.7590   23.0320 C   0  0  0  0  0  0  0  0  0  0  0  0
    7.0210   -5.1820   23.2160 C   0  0  0  0  0  0  0  0  0  0  0  0
    5.7090   -5.6280   23.0010 C   0  0  0  0  0  0  0  0  0  0  0  0
  1  2  1  0
  2  3  1  0
  3  4  1  0
  4  5  1  0
  5  6  1  0
  6  7  1  0
  7  8  1  0
  8  9  1  0
  9 10  2  0
  9 11  1  0
 11 12  1  0
 12 13  2  0
 13 14  1  0
 14 15  2  0
 15 16  1  0
 12 17  1  0
 16 17  2  0
  8 18  1  0
 18 19  2  0
 19 20  1  0
 20 21  2  0
 21 22  1  0
 22 23  1  0
 18 24  1  0
 22 24  2  0
  5 25  1  0
  2 26  1  0
 25 26  1  0
M  END
