JOR-UNI-61e7b1d5-18-nitrile
     RDKit          3D

 26 28  0  0  0  0  0  0  0  0999 V2000
    8.1020   -3.4130   19.9480 C   0  0  0  0  0  0  0  0  0  0  0  0
    6.7170   -3.5900   19.7590 N   0  0  0  0  0  0  0  0  0  0  0  0
    8.9320   -2.3490   21.2170 C   0  0  0  0  0  0  0  0  0  0  0  0
   10.3920   -1.9720   21.9270 C   0  0  0  0  0  0  0  0  0  0  0  0
   11.0090   -1.0800   22.9510 C   0  0  0  0  0  0  0  0  0  0  0  0
    9.9930   -0.5680   23.2440 C   0  0  0  0  0  0  0  0  0  0  0  0
    9.4210   -1.4290   22.2650 C   0  0  0  0  0  0  0  0  0  0  0  0
    8.1340   -1.1590   22.2510 N   0  0  0  0  0  0  0  0  0  0  0  0
    7.3850   -2.2070   22.7270 C   0  0  0  0  0  0  0  0  0  0  0  0
    7.0700   -2.0110   24.0690 C   0  0  0  0  0  0  0  0  0  0  0  0
    7.1160   -3.2000   24.8200 C   0  0  0  0  0  0  0  0  0  0  0  0
    8.5080   -3.4680   25.3190 C   0  0  0  0  0  0  0  0  0  0  0  0
    8.4660   -4.8640   25.9540 C   0  0  0  0  0  0  0  0  0  0  0  0
    7.5940   -4.8280   27.2140 C   0  0  0  0  0  0  0  0  0  0  0  0
    6.2370   -4.2590   26.8010 C   0  0  0  0  0  0  0  0  0  0  0  0
    6.2490   -3.1920   25.8950 C   0  0  0  0  0  0  0  0  0  0  0  0
    7.7320   -0.2250   21.4350 C   0  0  0  0  0  0  0  0  0  0  0  0
    8.3590    0.8250   21.2580 O   0  0  0  0  0  0  0  0  0  0  0  0
    6.5840   -0.5620   20.8200 N   0  0  0  0  0  0  0  0  0  0  0  0
    6.1230    0.1380   19.7470 C   0  0  0  0  0  0  0  0  0  0  0  0
    4.9480    0.8530   19.9050 C   0  0  0  0  0  0  0  0  0  0  0  0
    4.4580    1.5850   18.8520 C   0  0  0  0  0  0  0  0  0  0  0  0
    5.1740    1.5750   17.6730 C   0  0  0  0  0  0  0  0  0  0  0  0
    6.3130    0.8950   17.4740 N   0  0  0  0  0  0  0  0  0  0  0  0
    6.7650    0.1830   18.5230 C   0  0  0  0  0  0  0  0  0  0  0  0
   10.2060   -2.4630   21.4030 C   0  0  0  0  0  0  0  0  0  0  0  0
  1  2  2  3
  1  3  1  0
  3  4  2  0
  4  5  1  0
  5  6  2  0
  6  7  1  0
  7  8  1  0
  8  9  1  0
  9 10  1  0
 10 11  1  0
 11 12  1  0
 12 13  1  0
 13 14  1  0
 14 15  1  0
 11 16  1  0
 15 16  1  0
  8 17  1  0
 17 18  2  0
 17 19  1  0
 19 20  1  0
 20 21  2  0
 21 22  1  0
 22 23  2  0
 23 24  1  0
 20 25  1  0
 24 25  2  0
  3 26  1  0
  7 26  2  0
M  END
