JOR-UNI-61e7b1d5-25-nitrile
     RDKit          3D

 30 32  0  0  0  0  0  0  0  0999 V2000
    7.9550   -3.2600   19.7310 C   0  0  0  0  0  0  0  0  0  0  0  0
    7.8060   -2.7690   18.4790 N   0  0  0  0  0  0  0  0  0  0  0  0
    9.1040   -2.9750   20.8160 C   0  0  0  0  0  0  0  0  0  0  0  0
    9.8120   -2.4800   21.7760 C   0  0  0  0  0  0  0  0  0  0  0  0
    9.7560   -1.5850   22.5630 N   0  0  0  0  0  0  0  0  0  0  0  0
   10.2260   -0.9790   23.4700 C   0  0  0  0  0  0  0  0  0  0  0  0
   10.0280    0.1150   24.3610 N   0  0  0  0  0  0  0  0  0  0  0  0
    8.9010   -0.0520   25.2890 C   0  0  0  0  0  0  0  0  0  0  0  0
    9.3320   -0.4090   26.5640 C   0  0  0  0  0  0  0  0  0  0  0  0
    8.9640   -0.8230   22.6900 C   0  0  0  0  0  0  0  0  0  0  0  0
    8.0440    0.2130   22.9590 N   0  0  0  0  0  0  0  0  0  0  0  0
    6.8520   -0.1850   23.7550 C   0  0  0  0  0  0  0  0  0  0  0  0
    5.9680   -1.2770   23.0840 C   0  0  0  0  0  0  0  0  0  0  0  0
    5.6230   -2.4580   23.9210 N   0  0  0  0  0  0  0  0  0  0  0  0
    6.8450   -3.2290   24.2480 C   0  0  0  0  0  0  0  0  0  0  0  0
    6.5680   -4.4930   25.0680 C   0  0  0  0  0  0  0  0  0  0  0  0
    5.5350   -5.3920   24.4010 C   0  0  0  0  0  0  0  0  0  0  0  0
    6.1010   -5.9760   23.2320 O   0  0  0  0  0  0  0  0  0  0  0  0
    4.2760   -4.5970   24.0100 C   0  0  0  0  0  0  0  0  0  0  0  0
    4.6470   -3.3240   23.2470 C   0  0  0  0  0  0  0  0  0  0  0  0
    7.8550    0.8480   21.7470 C   0  0  0  0  0  0  0  0  0  0  0  0
    8.6040    1.7380   21.3050 O   0  0  0  0  0  0  0  0  0  0  0  0
    6.7610    0.3260   21.1260 N   0  0  0  0  0  0  0  0  0  0  0  0
    6.2330    0.7510   19.9380 C   0  0  0  0  0  0  0  0  0  0  0  0
    5.1520    1.6070   20.0240 C   0  0  0  0  0  0  0  0  0  0  0  0
    4.5830    2.0810   18.8630 C   0  0  0  0  0  0  0  0  0  0  0  0
    5.1250    1.6720   17.6720 C   0  0  0  0  0  0  0  0  0  0  0  0
    6.1660    0.8340   17.5530 N   0  0  0  0  0  0  0  0  0  0  0  0
    6.7030    0.3860   18.6960 C   0  0  0  0  0  0  0  0  0  0  0  0
    8.4950   -1.7520   21.4900 C   0  0  0  0  0  0  0  0  0  0  0  0
  1  2  2  3
  1  3  1  0
  3  4  2  0
  4  5  1  0
  5  6  2  0
  6  7  1  0
  7  8  1  0
  8  9  1  0
  6 10  1  0
 10 11  1  0
 11 12  1  0
 12 13  1  0
 13 14  1  0
 14 15  1  0
 15 16  1  0
 16 17  1  0
 17 18  1  0
 17 19  1  0
 14 20  1  0
 19 20  1  0
 11 21  1  0
 21 22  2  0
 21 23  1  0
 23 24  1  0
 24 25  2  0
 25 26  1  0
 26 27  2  0
 27 28  1  0
 24 29  1  0
 28 29  2  0
  3 30  1  0
 10 30  2  0
M  END
