JOR-UNI-61e7b1d5-17-nitrile
     RDKit          3D

 29 31  0  0  0  0  0  0  0  0999 V2000
    8.1300   -3.2940   19.6130 C   0  0  0  0  0  0  0  0  0  0  0  0
    7.8170   -2.7510   18.4070 N   0  0  0  0  0  0  0  0  0  0  0  0
    8.8180   -2.5210   20.9040 C   0  0  0  0  0  0  0  0  0  0  0  0
   10.1530   -2.4930   21.4010 C   0  0  0  0  0  0  0  0  0  0  0  0
   10.6210   -1.8150   22.4710 N   0  0  0  0  0  0  0  0  0  0  0  0
    9.9970   -0.9250   23.4560 C   0  0  0  0  0  0  0  0  0  0  0  0
    9.1460   -0.1130   24.2570 N   0  0  0  0  0  0  0  0  0  0  0  0
    9.5840    0.0220   25.6510 C   0  0  0  0  0  0  0  0  0  0  0  0
    8.6460   -0.5790   26.5980 C   0  0  0  0  0  0  0  0  0  0  0  0
    8.6820   -1.0290   22.8450 C   0  0  0  0  0  0  0  0  0  0  0  0
    7.7250   -0.3340   23.3930 N   0  0  0  0  0  0  0  0  0  0  0  0
    6.7140   -0.8820   24.1850 C   0  0  0  0  0  0  0  0  0  0  0  0
    6.8580   -2.2780   24.3560 C   0  0  0  0  0  0  0  0  0  0  0  0
    5.8830   -3.0160   23.7840 N   0  0  0  0  0  0  0  0  0  0  0  0
    6.1590   -4.4590   23.6440 C   0  0  0  0  0  0  0  0  0  0  0  0
    5.0950   -5.3100   22.9260 C   0  0  0  0  0  0  0  0  0  0  0  0
    3.9200   -4.5220   22.8060 O   0  0  0  0  0  0  0  0  0  0  0  0
    3.5970   -3.9770   24.0870 C   0  0  0  0  0  0  0  0  0  0  0  0
    4.5540   -2.8390   24.4240 C   0  0  0  0  0  0  0  0  0  0  0  0
    7.3570    0.6120   22.3360 C   0  0  0  0  0  0  0  0  0  0  0  0
    7.9690    1.6650   22.1250 O   0  0  0  0  0  0  0  0  0  0  0  0
    6.2950    0.1790   21.5780 N   0  0  0  0  0  0  0  0  0  0  0  0
    5.9660    0.5780   20.2870 C   0  0  0  0  0  0  0  0  0  0  0  0
    4.8420    1.3890   20.1530 C   0  0  0  0  0  0  0  0  0  0  0  0
    4.4640    1.8330   18.9030 C   0  0  0  0  0  0  0  0  0  0  0  0
    5.2040    1.4670   17.7940 C   0  0  0  0  0  0  0  0  0  0  0  0
    6.2990    0.6810   17.8270 N   0  0  0  0  0  0  0  0  0  0  0  0
    6.6870    0.2340   19.0440 C   0  0  0  0  0  0  0  0  0  0  0  0
    8.1360   -1.7180   21.7320 C   0  0  0  0  0  0  0  0  0  0  0  0
  1  2  2  3
  1  3  1  0
  3  4  2  0
  4  5  1  0
  5  6  2  0
  6  7  1  0
  7  8  1  0
  8  9  1  0
  6 10  1  0
 10 11  1  0
 11 12  1  0
 12 13  1  0
 13 14  1  0
 14 15  1  0
 15 16  1  0
 16 17  1  0
 17 18  1  0
 14 19  1  0
 18 19  1  0
 11 20  1  0
 20 21  2  0
 20 22  1  0
 22 23  1  0
 23 24  2  0
 24 25  1  0
 25 26  2  0
 26 27  1  0
 23 28  1  0
 27 28  2  0
  3 29  1  0
 10 29  2  0
M  END
