JOR-UNI-61e7b1d5-9-chloroacetamide
     RDKit          3D

 24 26  0  0  0  0  0  0  0  0999 V2000
    8.0040   -3.8890   20.4840 C   0  0  0  0  0  0  0  0  0  0  0  0
    6.6210   -3.3370   20.5910 C   0  0  0  0  0  0  0  0  0  0  0  0
    5.7760   -3.6020   19.6460 O   0  0  0  0  0  0  0  0  0  0  0  0
    6.2450   -2.5470   21.9150 C   0  0  0  0  0  0  0  0  0  0  0  0
    7.4090   -2.2020   22.9200 C   0  0  0  0  0  0  0  0  0  0  0  0
    8.7690   -2.3790   23.0060 C   0  0  0  0  0  0  0  0  0  0  0  0
    8.7670   -2.9220   21.9380 C   0  0  0  0  0  0  0  0  0  0  0  0
    7.3290   -2.8220   21.6670 C   0  0  0  0  0  0  0  0  0  0  0  0
    5.9390   -2.5580   21.7270 N   0  0  0  0  0  0  0  0  0  0  0  0
    4.9770   -3.4800   22.1190 C   0  0  0  0  0  0  0  0  0  0  0  0
    5.2390   -4.1720   23.3030 C   0  0  0  0  0  0  0  0  0  0  0  0
    4.8440   -5.6090   23.0970 C   0  0  0  0  0  0  0  0  0  0  0  0
    5.9760   -6.3810   23.2010 C   0  0  0  0  0  0  0  0  0  0  0  0
    4.7950   -6.4710   24.2870 C   0  0  0  0  0  0  0  0  0  0  0  0
    5.5490   -1.1990   21.8080 C   0  0  0  0  0  0  0  0  0  0  0  0
    6.0080   -0.4050   22.6400 O   0  0  0  0  0  0  0  0  0  0  0  0
    4.6560   -0.7970   20.9380 N   0  0  0  0  0  0  0  0  0  0  0  0
    4.8590   -0.0420   19.8750 C   0  0  0  0  0  0  0  0  0  0  0  0
    4.0420    1.2030   19.7370 C   0  0  0  0  0  0  0  0  0  0  0  0
    4.2550    1.9950   18.6170 C   0  0  0  0  0  0  0  0  0  0  0  0
    5.2040    1.6300   17.6580 C   0  0  0  0  0  0  0  0  0  0  0  0
    5.9420    0.5610   17.7320 N   0  0  0  0  0  0  0  0  0  0  0  0
    5.8080   -0.2780   18.7900 C   0  0  0  0  0  0  0  0  0  0  0  0
    6.8330   -2.0890   22.9530 C   0  0  0  0  0  0  0  0  0  0  0  0
  1  2  1  0
  2  3  2  0
  2  4  1  0
  4  5  2  0
  5  6  1  0
  6  7  2  0
  7  8  1  0
  8  9  1  0
  9 10  1  0
 10 11  1  0
 11 12  1  0
 12 13  1  0
 12 14  1  0
 13 14  1  0
  9 15  1  0
 15 16  2  0
 15 17  1  0
 17 18  1  0
 18 19  2  0
 19 20  1  0
 20 21  2  0
 21 22  1  0
 18 23  1  0
 22 23  2  0
  4 24  1  0
  8 24  2  0
M  END
