JOR-UNI-61e7b1d5-17-chloroacetamide
     RDKit          3D

 30 32  0  0  0  0  0  0  0  0999 V2000
    9.3610   -4.4130   20.4420 C   0  0  0  0  0  0  0  0  0  0  0  0
    8.2860   -3.3350   20.4260 C   0  0  0  0  0  0  0  0  0  0  0  0
    7.3030   -4.0950   19.7840 O   0  0  0  0  0  0  0  0  0  0  0  0
    9.7040   -2.9280   21.0980 C   0  0  0  0  0  0  0  0  0  0  0  0
   10.8400   -2.3390   21.9210 C   0  0  0  0  0  0  0  0  0  0  0  0
   10.9440   -1.3800   22.9940 N   0  0  0  0  0  0  0  0  0  0  0  0
    9.8370   -0.7780   23.5230 C   0  0  0  0  0  0  0  0  0  0  0  0
    9.8810    0.1250   24.5850 N   0  0  0  0  0  0  0  0  0  0  0  0
    8.8950    0.2310   25.5980 C   0  0  0  0  0  0  0  0  0  0  0  0
    9.1700   -0.2540   26.9580 C   0  0  0  0  0  0  0  0  0  0  0  0
    8.6560   -1.2300   22.8270 C   0  0  0  0  0  0  0  0  0  0  0  0
    7.3510   -0.8830   22.9950 N   0  0  0  0  0  0  0  0  0  0  0  0
    6.3530   -1.7010   23.5130 C   0  0  0  0  0  0  0  0  0  0  0  0
    6.9070   -2.6740   24.5430 C   0  0  0  0  0  0  0  0  0  0  0  0
    7.1510   -3.9630   24.0590 N   0  0  0  0  0  0  0  0  0  0  0  0
    6.4610   -4.6150   23.0070 C   0  0  0  0  0  0  0  0  0  0  0  0
    7.0500   -5.9550   22.5530 C   0  0  0  0  0  0  0  0  0  0  0  0
    7.7540   -6.4630   23.4110 O   0  0  0  0  0  0  0  0  0  0  0  0
    8.8810   -5.6720   23.8020 C   0  0  0  0  0  0  0  0  0  0  0  0
    8.5860   -4.3390   24.0950 C   0  0  0  0  0  0  0  0  0  0  0  0
    7.0420   -0.0100   21.9640 C   0  0  0  0  0  0  0  0  0  0  0  0
    7.5540    1.1030   21.8460 O   0  0  0  0  0  0  0  0  0  0  0  0
    6.1490   -0.5170   21.0660 N   0  0  0  0  0  0  0  0  0  0  0  0
    5.7560    0.2070   19.9540 C   0  0  0  0  0  0  0  0  0  0  0  0
    4.6310    1.0200   19.9440 C   0  0  0  0  0  0  0  0  0  0  0  0
    4.3280    1.7170   18.7930 C   0  0  0  0  0  0  0  0  0  0  0  0
    5.1510    1.5790   17.6910 C   0  0  0  0  0  0  0  0  0  0  0  0
    6.2430    0.7910   17.6680 N   0  0  0  0  0  0  0  0  0  0  0  0
    6.5200    0.1250   18.8020 C   0  0  0  0  0  0  0  0  0  0  0  0
    9.2190   -2.0740   21.9740 C   0  0  0  0  0  0  0  0  0  0  0  0
  1  2  1  0
  2  3  2  0
  2  4  1  0
  4  5  2  0
  5  6  1  0
  6  7  2  0
  7  8  1  0
  8  9  1  0
  9 10  1  0
  7 11  1  0
 11 12  1  0
 12 13  1  0
 13 14  1  0
 14 15  1  0
 15 16  1  0
 16 17  1  0
 17 18  1  0
 18 19  1  0
 15 20  1  0
 19 20  1  0
 12 21  1  0
 21 22  2  0
 21 23  1  0
 23 24  1  0
 24 25  2  0
 25 26  1  0
 26 27  2  0
 27 28  1  0
 24 29  1  0
 28 29  2  0
  4 30  1  0
 11 30  2  0
M  END
