JOR-UNI-2fc98d0b-8
     RDKit          3D

 22 24  0  0  0  0  0  0  0  0999 V2000
    8.5690    0.8600   21.2990 O   0  0  0  0  0  0  0  0  0  0  0  0
    8.3070   -0.3120   21.5390 C   0  0  0  0  0  0  0  0  0  0  0  0
    7.1430   -0.8330   21.0400 N   0  0  0  0  0  0  0  0  0  0  0  0
    6.4990   -0.1510   20.0010 C   0  0  0  0  0  0  0  0  0  0  0  0
    5.2460    0.6610   20.2970 C   0  0  0  0  0  0  0  0  0  0  0  0
    4.6070    1.3640   19.2770 C   0  0  0  0  0  0  0  0  0  0  0  0
    5.1350    1.3070   17.9980 C   0  0  0  0  0  0  0  0  0  0  0  0
    6.2580    0.5850   17.6580 N   0  0  0  0  0  0  0  0  0  0  0  0
    6.9560   -0.1650   18.6970 C   0  0  0  0  0  0  0  0  0  0  0  0
    9.1480   -1.1220   22.2800 N   0  0  0  0  0  0  0  0  0  0  0  0
    8.6510   -2.0360   23.2050 C   0  0  0  0  0  0  0  0  0  0  0  0
    9.0320   -3.5200   23.0510 C   0  0  0  0  0  0  0  0  0  0  0  0
    7.9760   -4.4420   23.6900 C   0  0  0  0  0  0  0  0  0  0  0  0
    8.4950   -5.5410   24.3660 C   0  0  0  0  0  0  0  0  0  0  0  0
    7.5810   -5.9240   23.1170 C   0  0  0  0  0  0  0  0  0  0  0  0
   10.3340   -0.5680   22.5270 C   0  0  0  0  0  0  0  0  0  0  0  0
   11.6610   -1.2730   22.3460 C   0  0  0  0  0  0  0  0  0  0  0  0
   12.9030   -0.4480   22.6550 C   0  0  0  0  0  0  0  0  0  0  0  0
   12.7030    0.8760   23.0650 C   0  0  0  0  0  0  0  0  0  0  0  0
   11.4190    1.4460   23.2030 C   0  0  0  0  0  0  0  0  0  0  0  0
   11.1660    3.0770   23.6740 Cl  0  0  0  0  0  0  0  0  0  0  0  0
   10.2770    0.7370   22.9470 C   0  0  0  0  0  0  0  0  0  0  0  0
  1  2  2  0
  2  3  1  0
  3  4  1  0
  4  5  2  0
  5  6  1  0
  6  7  2  0
  7  8  1  0
  4  9  1  0
  8  9  2  0
  2 10  1  0
 10 11  1  0
 11 12  1  0
 12 13  1  0
 13 14  1  0
 13 15  1  0
 14 15  1  0
 10 16  1  0
 16 17  2  0
 17 18  1  0
 18 19  2  0
 19 20  1  0
 20 21  1  0
 16 22  1  0
 20 22  2  0
M  END
