JOR-UNI-61e7b1d5-20-nitrile
     RDKit          3D

 25 27  0  0  0  0  0  0  0  0999 V2000
    8.1220   -3.6330   20.0240 C   0  0  0  0  0  0  0  0  0  0  0  0
    6.7630   -3.7440   19.7390 N   0  0  0  0  0  0  0  0  0  0  0  0
    8.8840   -2.7560   21.2830 C   0  0  0  0  0  0  0  0  0  0  0  0
   10.3240   -2.0710   21.6200 C   0  0  0  0  0  0  0  0  0  0  0  0
   11.1710   -1.2340   22.6270 C   0  0  0  0  0  0  0  0  0  0  0  0
   10.0970   -0.6510   22.8840 C   0  0  0  0  0  0  0  0  0  0  0  0
    9.0510   -1.2060   22.2810 C   0  0  0  0  0  0  0  0  0  0  0  0
    9.2790    0.0500   22.6360 N   0  0  0  0  0  0  0  0  0  0  0  0
    9.0650    0.2250   23.9930 C   0  0  0  0  0  0  0  0  0  0  0  0
    8.4370   -0.8720   24.5910 C   0  0  0  0  0  0  0  0  0  0  0  0
    7.0630   -0.8960   24.2990 C   0  0  0  0  0  0  0  0  0  0  0  0
    6.3470   -1.9620   25.0910 C   0  0  0  0  0  0  0  0  0  0  0  0
    6.4710   -1.5060   26.5420 C   0  0  0  0  0  0  0  0  0  0  0  0
    7.9470   -1.5710   26.9420 C   0  0  0  0  0  0  0  0  0  0  0  0
    8.7200   -0.7160   25.9330 C   0  0  0  0  0  0  0  0  0  0  0  0
    8.6520    0.7720   21.7110 C   0  0  0  0  0  0  0  0  0  0  0  0
    9.0430    1.8570   21.2950 O   0  0  0  0  0  0  0  0  0  0  0  0
    7.4990    0.1380   21.2500 N   0  0  0  0  0  0  0  0  0  0  0  0
    6.7300    0.4880   20.1400 C   0  0  0  0  0  0  0  0  0  0  0  0
    5.6090    1.3000   20.3220 C   0  0  0  0  0  0  0  0  0  0  0  0
    4.8230    1.6880   19.2470 C   0  0  0  0  0  0  0  0  0  0  0  0
    5.1590    1.2630   17.9750 C   0  0  0  0  0  0  0  0  0  0  0  0
    6.2130    0.4730   17.7130 N   0  0  0  0  0  0  0  0  0  0  0  0
    6.9860    0.0840   18.7520 C   0  0  0  0  0  0  0  0  0  0  0  0
    9.0790   -2.6840   22.5120 C   0  0  0  0  0  0  0  0  0  0  0  0
  1  2  2  3
  1  3  1  0
  3  4  2  0
  4  5  1  0
  5  6  2  0
  6  7  1  0
  7  8  1  0
  8  9  1  0
  9 10  1  0
 10 11  1  0
 11 12  1  0
 12 13  1  0
 13 14  1  0
 10 15  1  0
 14 15  1  0
  8 16  1  0
 16 17  2  0
 16 18  1  0
 18 19  1  0
 19 20  2  0
 20 21  1  0
 21 22  2  0
 22 23  1  0
 19 24  1  0
 23 24  2  0
  3 25  1  0
  7 25  2  0
M  END
