JOR-UNI-61e7b1d5-31-acrylamide
     RDKit          3D

 31 33  0  0  0  0  0  0  0  0999 V2000
    8.5270   -3.8290   20.1710 C   0  0  0  0  0  0  0  0  0  0  0  0
    7.3090   -2.9990   20.1120 C   0  0  0  0  0  0  0  0  0  0  0  0
    6.7430   -2.9170   21.5090 C   0  0  0  0  0  0  0  0  0  0  0  0
    5.2510   -3.4650   21.0600 O   0  0  0  0  0  0  0  0  0  0  0  0
    8.4220   -2.5000   21.4140 C   0  0  0  0  0  0  0  0  0  0  0  0
    9.5120   -1.5710   22.3210 C   0  0  0  0  0  0  0  0  0  0  0  0
   10.0250   -0.6480   23.4430 N   0  0  0  0  0  0  0  0  0  0  0  0
    9.0120   -0.4430   24.0240 C   0  0  0  0  0  0  0  0  0  0  0  0
    9.4800    0.3690   25.0880 N   0  0  0  0  0  0  0  0  0  0  0  0
    9.4270   -0.3270   26.3820 C   0  0  0  0  0  0  0  0  0  0  0  0
    8.1000   -0.1620   27.0890 C   0  0  0  0  0  0  0  0  0  0  0  0
    9.5360   -1.1470   22.8930 C   0  0  0  0  0  0  0  0  0  0  0  0
    8.1650   -1.4020   22.7450 N   0  0  0  0  0  0  0  0  0  0  0  0
    7.3420   -1.7910   23.9180 C   0  0  0  0  0  0  0  0  0  0  0  0
    7.9910   -2.9130   24.7520 C   0  0  0  0  0  0  0  0  0  0  0  0
    7.1990   -4.1060   25.1080 N   0  0  0  0  0  0  0  0  0  0  0  0
    6.8820   -4.9920   23.9860 C   0  0  0  0  0  0  0  0  0  0  0  0
    7.3940   -6.4360   24.1340 C   0  0  0  0  0  0  0  0  0  0  0  0
    8.8300   -6.4590   24.6640 C   0  0  0  0  0  0  0  0  0  0  0  0
    9.0440   -5.5430   25.8700 C   0  0  0  0  0  0  0  0  0  0  0  0
    7.7640   -4.8100   26.2630 C   0  0  0  0  0  0  0  0  0  0  0  0
    7.6500   -0.4400   21.8300 C   0  0  0  0  0  0  0  0  0  0  0  0
    8.3280    0.5780   21.5790 O   0  0  0  0  0  0  0  0  0  0  0  0
    6.4650   -0.6440   21.2030 N   0  0  0  0  0  0  0  0  0  0  0  0
    6.0830    0.0330   20.0400 C   0  0  0  0  0  0  0  0  0  0  0  0
    4.9360    0.7940   20.1080 C   0  0  0  0  0  0  0  0  0  0  0  0
    4.5010    1.5000   18.9940 C   0  0  0  0  0  0  0  0  0  0  0  0
    5.2420    1.4130   17.8400 C   0  0  0  0  0  0  0  0  0  0  0  0
    6.3610    0.6790   17.7320 N   0  0  0  0  0  0  0  0  0  0  0  0
    6.7630    0.0030   18.8320 C   0  0  0  0  0  0  0  0  0  0  0  0
    9.4720   -1.9380   21.8060 C   0  0  0  0  0  0  0  0  0  0  0  0
  1  2  1  0
  2  3  1  0
  3  4  2  0
  3  5  1  0
  5  6  2  0
  6  7  1  0
  7  8  2  0
  8  9  1  0
  9 10  1  0
 10 11  1  0
  8 12  1  0
 12 13  1  0
 13 14  1  0
 14 15  1  0
 15 16  1  0
 16 17  1  0
 17 18  1  0
 18 19  1  0
 19 20  1  0
 16 21  1  0
 20 21  1  0
 13 22  1  0
 22 23  2  0
 22 24  1  0
 24 25  1  0
 25 26  2  0
 26 27  1  0
 27 28  2  0
 28 29  1  0
 25 30  1  0
 29 30  2  0
  5 31  1  0
 12 31  2  0
M  END
