JOR-UNI-61e7b1d5-29-acrylamide
     RDKit          3D

 32 34  0  0  0  0  0  0  0  0999 V2000
    8.5060   -3.9960   19.5330 C   0  0  0  0  0  0  0  0  0  0  0  0
    7.7130   -4.5020   20.5860 C   0  0  0  0  0  0  0  0  0  0  0  0
    6.7910   -3.6320   21.3800 C   0  0  0  0  0  0  0  0  0  0  0  0
    5.2530   -3.5730   21.1140 O   0  0  0  0  0  0  0  0  0  0  0  0
    7.8170   -3.3050   22.5790 C   0  0  0  0  0  0  0  0  0  0  0  0
    8.5480   -2.0260   23.1540 C   0  0  0  0  0  0  0  0  0  0  0  0
    8.5190   -0.7710   22.7650 N   0  0  0  0  0  0  0  0  0  0  0  0
    9.3970   -0.5380   23.8570 C   0  0  0  0  0  0  0  0  0  0  0  0
    9.5600    0.7320   23.7350 N   0  0  0  0  0  0  0  0  0  0  0  0
    9.8170    0.8540   25.1850 C   0  0  0  0  0  0  0  0  0  0  0  0
    9.8420   -0.4710   25.9850 C   0  0  0  0  0  0  0  0  0  0  0  0
    9.1910   -1.8110   23.9260 C   0  0  0  0  0  0  0  0  0  0  0  0
    8.4050   -1.6280   22.6710 N   0  0  0  0  0  0  0  0  0  0  0  0
    8.7980   -2.7960   21.8330 C   0  0  0  0  0  0  0  0  0  0  0  0
    8.0160   -4.1370   22.1740 C   0  0  0  0  0  0  0  0  0  0  0  0
    8.0300   -4.7130   23.5330 N   0  0  0  0  0  0  0  0  0  0  0  0
    8.8170   -5.9540   23.6760 C   0  0  0  0  0  0  0  0  0  0  0  0
    8.2140   -7.1700   24.4250 C   0  0  0  0  0  0  0  0  0  0  0  0
    6.8550   -7.0960   24.5910 N   0  0  0  0  0  0  0  0  0  0  0  0
    5.8600   -7.8380   23.7980 C   0  0  0  0  0  0  0  0  0  0  0  0
    6.6010   -5.8510   25.1390 C   0  0  0  0  0  0  0  0  0  0  0  0
    6.8120   -4.6440   24.2740 C   0  0  0  0  0  0  0  0  0  0  0  0
    8.0760   -0.5230   21.7620 C   0  0  0  0  0  0  0  0  0  0  0  0
    8.7770    0.5020   21.5760 O   0  0  0  0  0  0  0  0  0  0  0  0
    6.8970   -0.7570   21.0500 N   0  0  0  0  0  0  0  0  0  0  0  0
    6.3800    0.0510   20.0560 C   0  0  0  0  0  0  0  0  0  0  0  0
    5.2140    0.7380   20.5070 C   0  0  0  0  0  0  0  0  0  0  0  0
    4.8690    1.4840   19.3400 C   0  0  0  0  0  0  0  0  0  0  0  0
    5.4870    1.5230   18.1070 C   0  0  0  0  0  0  0  0  0  0  0  0
    6.5450    0.8330   17.8070 N   0  0  0  0  0  0  0  0  0  0  0  0
    6.9710    0.0870   18.8200 C   0  0  0  0  0  0  0  0  0  0  0  0
    8.6330   -2.9260   23.5030 C   0  0  0  0  0  0  0  0  0  0  0  0
  1  2  1  0
  2  3  1  0
  3  4  2  0
  3  5  1  0
  5  6  2  0
  6  7  1  0
  7  8  2  0
  8  9  1  0
  9 10  1  0
 10 11  1  0
  8 12  1  0
 12 13  1  0
 13 14  1  0
 14 15  1  0
 15 16  1  0
 16 17  1  0
 17 18  1  0
 18 19  1  0
 19 20  1  0
 19 21  1  0
 16 22  1  0
 21 22  1  0
 13 23  1  0
 23 24  2  0
 23 25  1  0
 25 26  1  0
 26 27  2  0
 27 28  1  0
 28 29  2  0
 29 30  1  0
 26 31  1  0
 30 31  2  0
  5 32  1  0
 12 32  2  0
M  END
