JOR-UNI-61e7b1d5-19-chloroacetamide
     RDKit          3D

 30 32  0  0  0  0  0  0  0  0999 V2000
    8.4150   -3.9190   20.2520 C   0  0  0  0  0  0  0  0  0  0  0  0
    7.7300   -2.5740   20.1360 C   0  0  0  0  0  0  0  0  0  0  0  0
    6.7660   -3.1190   19.3390 O   0  0  0  0  0  0  0  0  0  0  0  0
    9.0340   -2.3570   21.0440 C   0  0  0  0  0  0  0  0  0  0  0  0
   10.2700   -2.0810   21.9870 C   0  0  0  0  0  0  0  0  0  0  0  0
   10.7240   -1.2970   23.1160 N   0  0  0  0  0  0  0  0  0  0  0  0
    9.7380   -0.6230   23.4360 C   0  0  0  0  0  0  0  0  0  0  0  0
    9.5910    0.2970   24.4730 N   0  0  0  0  0  0  0  0  0  0  0  0
    8.7010    0.1910   25.5700 C   0  0  0  0  0  0  0  0  0  0  0  0
    9.1470   -0.3980   26.8380 C   0  0  0  0  0  0  0  0  0  0  0  0
    8.9570   -1.1690   22.3960 C   0  0  0  0  0  0  0  0  0  0  0  0
    7.9390   -0.3510   22.8460 N   0  0  0  0  0  0  0  0  0  0  0  0
    6.9930   -0.8020   23.7650 C   0  0  0  0  0  0  0  0  0  0  0  0
    6.0390    0.3010   24.1770 C   0  0  0  0  0  0  0  0  0  0  0  0
    4.7890   -0.2640   24.8770 C   0  0  0  0  0  0  0  0  0  0  0  0
    4.9470    0.1070   26.3550 C   0  0  0  0  0  0  0  0  0  0  0  0
    3.7450   -0.5120   27.0710 C   0  0  0  0  0  0  0  0  0  0  0  0
    3.0510   -1.5510   26.4430 C   0  0  0  0  0  0  0  0  0  0  0  0
    3.7430   -2.3480   25.3490 C   0  0  0  0  0  0  0  0  0  0  0  0
    4.7130   -1.6360   24.6230 C   0  0  0  0  0  0  0  0  0  0  0  0
    7.3860    0.4130   21.8230 C   0  0  0  0  0  0  0  0  0  0  0  0
    7.9460    1.4400   21.4320 O   0  0  0  0  0  0  0  0  0  0  0  0
    6.2400   -0.0590   21.2790 N   0  0  0  0  0  0  0  0  0  0  0  0
    5.8290    0.5010   20.1450 C   0  0  0  0  0  0  0  0  0  0  0  0
    4.6830    1.2810   20.1060 C   0  0  0  0  0  0  0  0  0  0  0  0
    4.2990    1.8500   18.9120 C   0  0  0  0  0  0  0  0  0  0  0  0
    5.1780    1.5720   17.7110 C   0  0  0  0  0  0  0  0  0  0  0  0
    6.2780    0.8080   17.7630 N   0  0  0  0  0  0  0  0  0  0  0  0
    6.5750    0.2960   18.9760 C   0  0  0  0  0  0  0  0  0  0  0  0
    8.0300   -1.4790   21.5600 C   0  0  0  0  0  0  0  0  0  0  0  0
  1  2  1  0
  2  3  2  0
  2  4  1  0
  4  5  2  0
  5  6  1  0
  6  7  2  0
  7  8  1  0
  8  9  1  0
  9 10  1  0
  7 11  1  0
 11 12  1  0
 12 13  1  0
 13 14  1  0
 14 15  1  0
 15 16  1  0
 16 17  1  0
 17 18  1  0
 18 19  1  0
 15 20  1  0
 19 20  1  0
 12 21  1  0
 21 22  2  0
 21 23  1  0
 23 24  1  0
 24 25  2  0
 25 26  1  0
 26 27  2  0
 27 28  1  0
 24 29  1  0
 28 29  2  0
  4 30  1  0
 11 30  2  0
M  END
