JOR-UNI-61e7b1d5-30-vinylsulfonamide
     RDKit          3D

 29 31  0  0  0  0  0  0  0  0999 V2000
    7.7080   -3.0870   19.0410 C   0  0  0  0  0  0  0  0  0  0  0  0
    6.4470   -3.4240   19.7530 C   0  0  0  0  0  0  0  0  0  0  0  0
    6.6730   -3.6930   21.4720 S   0  0  0  0  0  0  0  0  0  0  0  0
    5.0860   -3.7450   21.6310 O   0  0  0  0  0  0  0  0  0  0  0  0
    7.4090   -4.9230   21.7050 O   0  0  0  0  0  0  0  0  0  0  0  0
    7.8470   -2.2450   22.0200 C   0  0  0  0  0  0  0  0  0  0  0  0
    9.1790   -2.9460   22.1960 C   0  0  0  0  0  0  0  0  0  0  0  0
   10.5080   -2.3420   22.6200 C   0  0  0  0  0  0  0  0  0  0  0  0
   10.7210   -0.9760   22.9310 C   0  0  0  0  0  0  0  0  0  0  0  0
    9.5640   -0.4340   22.7620 C   0  0  0  0  0  0  0  0  0  0  0  0
    9.0210    0.8120   22.8560 N   0  0  0  0  0  0  0  0  0  0  0  0
    8.1740    1.0980   24.0260 C   0  0  0  0  0  0  0  0  0  0  0  0
    8.2010   -0.0280   25.1000 C   0  0  0  0  0  0  0  0  0  0  0  0
    6.8950   -0.1850   25.8130 N   0  0  0  0  0  0  0  0  0  0  0  0
    6.1380   -1.2940   25.1820 C   0  0  0  0  0  0  0  0  0  0  0  0
    6.3960   -2.6390   25.8800 C   0  0  0  0  0  0  0  0  0  0  0  0
    7.8250   -2.7790   26.4040 C   0  0  0  0  0  0  0  0  0  0  0  0
    8.1590   -1.6210   27.3590 C   0  0  0  0  0  0  0  0  0  0  0  0
    7.1100   -0.5220   27.2280 C   0  0  0  0  0  0  0  0  0  0  0  0
    8.4680    1.1660   21.6390 C   0  0  0  0  0  0  0  0  0  0  0  0
    8.8800    2.1430   21.0520 O   0  0  0  0  0  0  0  0  0  0  0  0
    7.4740    0.3190   21.1580 N   0  0  0  0  0  0  0  0  0  0  0  0
    6.6270    0.6280   20.1020 C   0  0  0  0  0  0  0  0  0  0  0  0
    5.4730    1.3820   20.2410 C   0  0  0  0  0  0  0  0  0  0  0  0
    4.6990    1.6630   19.1300 C   0  0  0  0  0  0  0  0  0  0  0  0
    5.1190    1.1730   17.9180 C   0  0  0  0  0  0  0  0  0  0  0  0
    6.2150    0.4350   17.7420 N   0  0  0  0  0  0  0  0  0  0  0  0
    6.9420    0.1740   18.8300 C   0  0  0  0  0  0  0  0  0  0  0  0
    8.8500   -1.4640   22.4010 C   0  0  0  0  0  0  0  0  0  0  0  0
  1  2  1  0
  3  2  1  0
  3  4  2  0
  3  5  2  0
  3  6  1  0
  6  7  2  0
  7  8  1  0
  8  9  2  0
  9 10  1  0
 10 11  1  0
 11 12  1  0
 12 13  1  0
 13 14  1  0
 14 15  1  0
 15 16  1  0
 16 17  1  0
 17 18  1  0
 14 19  1  0
 18 19  1  0
 11 20  1  0
 20 21  2  0
 20 22  1  0
 22 23  1  0
 23 24  2  0
 24 25  1  0
 25 26  2  0
 26 27  1  0
 23 28  1  0
 27 28  2  0
  6 29  1  0
 10 29  2  0
M  END
