JOR-UNI-61e7b1d5-20-acrylamide
     RDKit          3D

 27 29  0  0  0  0  0  0  0  0999 V2000
    8.2590   -4.2410   20.7230 C   0  0  0  0  0  0  0  0  0  0  0  0
    7.1280   -3.2120   20.6970 C   0  0  0  0  0  0  0  0  0  0  0  0
    6.2540   -3.3680   21.9300 C   0  0  0  0  0  0  0  0  0  0  0  0
    4.9520   -3.6360   21.7650 O   0  0  0  0  0  0  0  0  0  0  0  0
    7.0180   -3.3450   23.3230 C   0  0  0  0  0  0  0  0  0  0  0  0
    7.8290   -3.1900   24.5620 C   0  0  0  0  0  0  0  0  0  0  0  0
    8.9460   -2.2900   25.0080 C   0  0  0  0  0  0  0  0  0  0  0  0
    9.4530   -1.2880   24.1700 C   0  0  0  0  0  0  0  0  0  0  0  0
    8.8150   -1.3170   23.0380 C   0  0  0  0  0  0  0  0  0  0  0  0
    9.3360   -0.3680   22.2350 N   0  0  0  0  0  0  0  0  0  0  0  0
   10.1890   -1.1790   21.5880 C   0  0  0  0  0  0  0  0  0  0  0  0
   11.4560   -1.4120   22.3550 C   0  0  0  0  0  0  0  0  0  0  0  0
   11.5830   -0.2360   23.3180 C   0  0  0  0  0  0  0  0  0  0  0  0
   12.8450   -0.4450   24.1260 C   0  0  0  0  0  0  0  0  0  0  0  0
   13.0840   -1.9150   24.4270 C   0  0  0  0  0  0  0  0  0  0  0  0
   11.9180   -2.6550   24.4770 C   0  0  0  0  0  0  0  0  0  0  0  0
   11.1760   -2.7030   23.1590 C   0  0  0  0  0  0  0  0  0  0  0  0
    8.5170    0.5180   21.5250 C   0  0  0  0  0  0  0  0  0  0  0  0
    8.8960    1.6580   21.2230 O   0  0  0  0  0  0  0  0  0  0  0  0
    7.2860    0.0060   21.1910 N   0  0  0  0  0  0  0  0  0  0  0  0
    6.5700    0.4460   20.0840 C   0  0  0  0  0  0  0  0  0  0  0  0
    5.4830    1.2920   20.2950 C   0  0  0  0  0  0  0  0  0  0  0  0
    4.7690    1.7600   19.2110 C   0  0  0  0  0  0  0  0  0  0  0  0
    5.1590    1.3710   17.9490 C   0  0  0  0  0  0  0  0  0  0  0  0
    6.1860    0.5540   17.6920 N   0  0  0  0  0  0  0  0  0  0  0  0
    6.8720    0.1050   18.7680 C   0  0  0  0  0  0  0  0  0  0  0  0
    7.8170   -2.2720   22.8870 C   0  0  0  0  0  0  0  0  0  0  0  0
  1  2  1  0
  2  3  1  0
  3  4  2  0
  3  5  1  0
  5  6  2  0
  6  7  1  0
  7  8  2  0
  8  9  1  0
  9 10  1  0
 10 11  1  0
 11 12  1  0
 12 13  1  0
 13 14  1  0
 14 15  1  0
 15 16  1  0
 12 17  1  0
 16 17  1  0
 10 18  1  0
 18 19  2  0
 18 20  1  0
 20 21  1  0
 21 22  2  0
 22 23  1  0
 23 24  2  0
 24 25  1  0
 21 26  1  0
 25 26  2  0
  5 27  1  0
  9 27  2  0
M  END
