JOR-UNI-61e7b1d5-8-chloroacetamide
     RDKit          3D

 27 28  0  0  0  0  0  0  0  0999 V2000
    9.0920   -4.1030   18.7680 C   0  0  0  0  0  0  0  0  0  0  0  0
    8.1470   -3.3780   19.7240 C   0  0  0  0  0  0  0  0  0  0  0  0
    6.8600   -3.4590   19.3860 O   0  0  0  0  0  0  0  0  0  0  0  0
    8.7690   -2.5300   20.9800 C   0  0  0  0  0  0  0  0  0  0  0  0
   10.1370   -2.4550   21.5590 C   0  0  0  0  0  0  0  0  0  0  0  0
   10.6010   -1.7220   22.6540 N   0  0  0  0  0  0  0  0  0  0  0  0
    9.6810   -0.9680   23.2600 C   0  0  0  0  0  0  0  0  0  0  0  0
    9.9800   -0.1990   24.3980 N   0  0  0  0  0  0  0  0  0  0  0  0
    8.9720    0.0930   25.3730 C   0  0  0  0  0  0  0  0  0  0  0  0
    9.2260    0.1270   26.8230 C   0  0  0  0  0  0  0  0  0  0  0  0
    8.3000   -0.9500   22.7160 C   0  0  0  0  0  0  0  0  0  0  0  0
    7.3550   -0.1350   23.2750 N   0  0  0  0  0  0  0  0  0  0  0  0
    6.4310   -0.4470   24.2610 C   0  0  0  0  0  0  0  0  0  0  0  0
    6.1410    0.7680   25.1140 C   0  0  0  0  0  0  0  0  0  0  0  0
    4.6340    0.9650   25.3130 C   0  0  0  0  0  0  0  0  0  0  0  0
    4.1030    2.1310   25.7410 N   0  0  0  0  0  0  0  0  0  0  0  0
    3.7760   -0.0650   25.0570 N   0  0  0  0  0  0  0  0  0  0  0  0
    7.0300    0.5750   22.1350 C   0  0  0  0  0  0  0  0  0  0  0  0
    7.6200    1.6010   21.7920 O   0  0  0  0  0  0  0  0  0  0  0  0
    6.0500   -0.0040   21.4290 N   0  0  0  0  0  0  0  0  0  0  0  0
    5.8200    0.4750   20.1980 C   0  0  0  0  0  0  0  0  0  0  0  0
    4.7190    1.2900   20.0830 C   0  0  0  0  0  0  0  0  0  0  0  0
    4.3740    1.8860   18.7710 C   0  0  0  0  0  0  0  0  0  0  0  0
    5.2020    1.5760   17.7070 C   0  0  0  0  0  0  0  0  0  0  0  0
    6.2790    0.7720   17.8090 N   0  0  0  0  0  0  0  0  0  0  0  0
    6.5680    0.2410   19.0350 C   0  0  0  0  0  0  0  0  0  0  0  0
    7.9020   -1.7190   21.6280 C   0  0  0  0  0  0  0  0  0  0  0  0
  1  2  1  0
  2  3  2  0
  2  4  1  0
  4  5  2  0
  5  6  1  0
  6  7  2  0
  7  8  1  0
  8  9  1  0
  9 10  1  0
  7 11  1  0
 11 12  1  0
 12 13  1  0
 13 14  1  0
 14 15  1  0
 15 16  2  3
 15 17  1  0
 12 18  1  0
 18 19  2  0
 18 20  1  0
 20 21  1  0
 21 22  2  0
 22 23  1  0
 23 24  2  0
 24 25  1  0
 21 26  1  0
 25 26  2  0
  4 27  1  0
 11 27  2  0
M  END
