JOR-UNI-61e7b1d5-8-nitrile
     RDKit          3D

 26 27  0  0  0  0  0  0  0  0999 V2000
    8.5100   -3.3750   19.6480 C   0  0  0  0  0  0  0  0  0  0  0  0
    8.4950   -3.0160   18.4080 N   0  0  0  0  0  0  0  0  0  0  0  0
    9.6580   -2.9170   20.8520 C   0  0  0  0  0  0  0  0  0  0  0  0
   10.1700   -2.1930   21.9720 C   0  0  0  0  0  0  0  0  0  0  0  0
   10.7880   -1.6030   23.0090 N   0  0  0  0  0  0  0  0  0  0  0  0
    9.8760   -0.6200   23.5790 C   0  0  0  0  0  0  0  0  0  0  0  0
   10.8860   -0.3830   24.5310 N   0  0  0  0  0  0  0  0  0  0  0  0
   10.2570   -0.0220   25.8370 C   0  0  0  0  0  0  0  0  0  0  0  0
    9.1370   -0.8740   26.2290 C   0  0  0  0  0  0  0  0  0  0  0  0
    8.9680   -1.0180   22.5120 C   0  0  0  0  0  0  0  0  0  0  0  0
    7.9210   -0.2790   22.6110 N   0  0  0  0  0  0  0  0  0  0  0  0
    6.7530   -0.6180   23.2790 C   0  0  0  0  0  0  0  0  0  0  0  0
    6.9100   -1.7760   24.0690 C   0  0  0  0  0  0  0  0  0  0  0  0
    5.6670   -2.6270   24.2070 C   0  0  0  0  0  0  0  0  0  0  0  0
    5.7950   -3.9930   24.3650 N   0  0  0  0  0  0  0  0  0  0  0  0
    4.4400   -2.0300   24.1760 N   0  0  0  0  0  0  0  0  0  0  0  0
    7.8750    0.3380   21.3910 C   0  0  0  0  0  0  0  0  0  0  0  0
    8.6760    1.4740   21.0260 O   0  0  0  0  0  0  0  0  0  0  0  0
    6.9990   -0.3120   20.5890 N   0  0  0  0  0  0  0  0  0  0  0  0
    6.2760    0.3030   19.6160 C   0  0  0  0  0  0  0  0  0  0  0  0
    4.8710    0.8230   19.7650 C   0  0  0  0  0  0  0  0  0  0  0  0
    4.2600    1.4360   18.7130 C   0  0  0  0  0  0  0  0  0  0  0  0
    5.0410    1.5620   17.4360 C   0  0  0  0  0  0  0  0  0  0  0  0
    6.3080    1.0770   17.3220 N   0  0  0  0  0  0  0  0  0  0  0  0
    6.8780    0.4760   18.3880 C   0  0  0  0  0  0  0  0  0  0  0  0
    8.8050   -1.9510   21.3580 C   0  0  0  0  0  0  0  0  0  0  0  0
  1  2  2  3
  1  3  1  0
  3  4  2  0
  4  5  1  0
  5  6  2  0
  6  7  1  0
  7  8  1  0
  8  9  1  0
  6 10  1  0
 10 11  1  0
 11 12  1  0
 12 13  1  0
 13 14  1  0
 14 15  2  3
 14 16  1  0
 11 17  1  0
 17 18  2  0
 17 19  1  0
 19 20  1  0
 20 21  2  0
 21 22  1  0
 22 23  2  0
 23 24  1  0
 20 25  1  0
 24 25  2  0
  3 26  1  0
 10 26  2  0
M  END
