JOR-UNI-61e7b1d5-13-acrylamide
     RDKit          3D

 30 32  0  0  0  0  0  0  0  0999 V2000
    8.3740   -3.6760   20.1440 C   0  0  0  0  0  0  0  0  0  0  0  0
    7.6310   -4.2660   21.3580 C   0  0  0  0  0  0  0  0  0  0  0  0
    6.1690   -3.8330   21.5180 C   0  0  0  0  0  0  0  0  0  0  0  0
    5.3340   -4.1990   20.6800 O   0  0  0  0  0  0  0  0  0  0  0  0
    5.6760   -3.0100   22.7000 C   0  0  0  0  0  0  0  0  0  0  0  0
    5.4920   -2.1200   23.7100 C   0  0  0  0  0  0  0  0  0  0  0  0
    6.4340   -1.3280   23.7590 N   0  0  0  0  0  0  0  0  0  0  0  0
    6.8320   -0.3400   24.4180 C   0  0  0  0  0  0  0  0  0  0  0  0
    7.8150    0.6220   24.5940 N   0  0  0  0  0  0  0  0  0  0  0  0
    8.8270    0.2100   25.4200 C   0  0  0  0  0  0  0  0  0  0  0  0
    8.2880   -0.2850   26.5930 C   0  0  0  0  0  0  0  0  0  0  0  0
    7.5540   -0.9880   23.2340 C   0  0  0  0  0  0  0  0  0  0  0  0
    8.7630   -0.4890   22.8080 N   0  0  0  0  0  0  0  0  0  0  0  0
    9.8830   -1.3060   22.8690 C   0  0  0  0  0  0  0  0  0  0  0  0
    9.5670   -2.5720   23.4230 N   0  0  0  0  0  0  0  0  0  0  0  0
   10.1660   -3.8160   23.0590 C   0  0  0  0  0  0  0  0  0  0  0  0
    9.4260   -5.1090   23.4680 C   0  0  0  0  0  0  0  0  0  0  0  0
    8.7540   -5.0490   24.6210 N   0  0  0  0  0  0  0  0  0  0  0  0
    8.3590   -3.7690   25.2180 C   0  0  0  0  0  0  0  0  0  0  0  0
    8.9150   -2.5580   24.7710 C   0  0  0  0  0  0  0  0  0  0  0  0
    8.6260    0.3490   21.6750 C   0  0  0  0  0  0  0  0  0  0  0  0
    9.2080    1.4370   21.5000 O   0  0  0  0  0  0  0  0  0  0  0  0
    7.7430   -0.1660   20.7670 N   0  0  0  0  0  0  0  0  0  0  0  0
    6.8170    0.5130   19.9720 C   0  0  0  0  0  0  0  0  0  0  0  0
    5.9700    1.5450   20.3770 C   0  0  0  0  0  0  0  0  0  0  0  0
    5.1120    2.1010   19.4370 C   0  0  0  0  0  0  0  0  0  0  0  0
    5.1250    1.6180   18.1340 C   0  0  0  0  0  0  0  0  0  0  0  0
    5.9350    0.6220   17.7260 N   0  0  0  0  0  0  0  0  0  0  0  0
    6.7480    0.1050   18.6580 C   0  0  0  0  0  0  0  0  0  0  0  0
    6.9460   -2.1940   22.5210 C   0  0  0  0  0  0  0  0  0  0  0  0
  1  2  1  0
  2  3  1  0
  3  4  2  0
  3  5  1  0
  5  6  2  0
  6  7  1  0
  7  8  2  0
  8  9  1  0
  9 10  1  0
 10 11  1  0
  8 12  1  0
 12 13  1  0
 13 14  1  0
 14 15  1  0
 15 16  1  0
 16 17  1  0
 17 18  1  0
 18 19  1  0
 15 20  1  0
 19 20  1  0
 13 21  1  0
 21 22  2  0
 21 23  1  0
 23 24  1  0
 24 25  2  0
 25 26  1  0
 26 27  2  0
 27 28  1  0
 24 29  1  0
 28 29  2  0
  5 30  1  0
 12 30  2  0
M  END
