JOR-UNI-61e7b1d5-21-nitrile
     RDKit          3D

 28 30  0  0  0  0  0  0  0  0999 V2000
    8.6210   -3.7910   19.9280 C   0  0  0  0  0  0  0  0  0  0  0  0
    7.3150   -3.6090   19.4770 N   0  0  0  0  0  0  0  0  0  0  0  0
    9.4710   -3.0540   21.0950 C   0  0  0  0  0  0  0  0  0  0  0  0
    9.6230   -2.0800   22.0190 C   0  0  0  0  0  0  0  0  0  0  0  0
   10.7990   -2.2360   22.5870 N   0  0  0  0  0  0  0  0  0  0  0  0
   10.1940   -1.1160   23.2110 C   0  0  0  0  0  0  0  0  0  0  0  0
   10.6390   -0.2330   24.2740 N   0  0  0  0  0  0  0  0  0  0  0  0
    9.5940    0.3680   25.1300 C   0  0  0  0  0  0  0  0  0  0  0  0
    9.4340   -0.3350   26.4120 C   0  0  0  0  0  0  0  0  0  0  0  0
    8.9240   -1.0400   22.4930 C   0  0  0  0  0  0  0  0  0  0  0  0
    8.0660   -0.0860   22.7920 N   0  0  0  0  0  0  0  0  0  0  0  0
    7.0620   -0.2460   23.7450 C   0  0  0  0  0  0  0  0  0  0  0  0
    7.2530   -1.4260   24.4970 C   0  0  0  0  0  0  0  0  0  0  0  0
    6.6040   -2.6430   23.8800 C   0  0  0  0  0  0  0  0  0  0  0  0
    7.1380   -3.9490   24.5080 C   0  0  0  0  0  0  0  0  0  0  0  0
    7.6510   -3.6680   25.9350 C   0  0  0  0  0  0  0  0  0  0  0  0
    6.9580   -2.4630   26.5810 C   0  0  0  0  0  0  0  0  0  0  0  0
    6.7810   -1.3430   25.7830 C   0  0  0  0  0  0  0  0  0  0  0  0
    7.8260    0.5940   21.6710 C   0  0  0  0  0  0  0  0  0  0  0  0
    8.5480    1.5290   21.2630 O   0  0  0  0  0  0  0  0  0  0  0  0
    6.7200    0.0960   21.0490 N   0  0  0  0  0  0  0  0  0  0  0  0
    6.1240    0.6460   19.9470 C   0  0  0  0  0  0  0  0  0  0  0  0
    4.9740    1.4160   20.0030 C   0  0  0  0  0  0  0  0  0  0  0  0
    4.4740    1.9310   18.8310 C   0  0  0  0  0  0  0  0  0  0  0  0
    5.1410    1.6580   17.6530 C   0  0  0  0  0  0  0  0  0  0  0  0
    6.2510    0.9040   17.5760 N   0  0  0  0  0  0  0  0  0  0  0  0
    6.7140    0.4170   18.7260 C   0  0  0  0  0  0  0  0  0  0  0  0
    8.5520   -2.0250   21.4050 C   0  0  0  0  0  0  0  0  0  0  0  0
  1  2  2  3
  1  3  1  0
  3  4  2  0
  4  5  1  0
  5  6  2  0
  6  7  1  0
  7  8  1  0
  8  9  1  0
  6 10  1  0
 10 11  1  0
 11 12  1  0
 12 13  1  0
 13 14  1  0
 14 15  1  0
 15 16  1  0
 16 17  1  0
 13 18  1  0
 17 18  1  0
 11 19  1  0
 19 20  2  0
 19 21  1  0
 21 22  1  0
 22 23  2  0
 23 24  1  0
 24 25  2  0
 25 26  1  0
 22 27  1  0
 26 27  2  0
  3 28  1  0
 10 28  2  0
M  END
