JOR-UNI-61e7b1d5-14-acrylamide
     RDKit          3D

 28 30  0  0  0  0  0  0  0  0999 V2000
    7.6150   -3.8220   20.4190 C   0  0  0  0  0  0  0  0  0  0  0  0
    6.2690   -4.3280   19.5750 C   0  0  0  0  0  0  0  0  0  0  0  0
    4.5950   -4.6940   19.6620 C   0  0  0  0  0  0  0  0  0  0  0  0
    3.6150   -4.6260   18.5800 O   0  0  0  0  0  0  0  0  0  0  0  0
    5.7330   -4.3610   20.1530 C   0  0  0  0  0  0  0  0  0  0  0  0
    6.9300   -3.9990   20.6840 C   0  0  0  0  0  0  0  0  0  0  0  0
    7.4470   -3.3770   21.4550 C   0  0  0  0  0  0  0  0  0  0  0  0
    6.7800   -4.4350   20.1180 C   0  0  0  0  0  0  0  0  0  0  0  0
    6.2160   -4.5920   19.8890 C   0  0  0  0  0  0  0  0  0  0  0  0
    6.7410   -3.1820   20.9100 N   0  0  0  0  0  0  0  0  0  0  0  0
    6.7930   -3.3780   22.3470 C   0  0  0  0  0  0  0  0  0  0  0  0
    7.3750   -4.5180   22.8100 N   0  0  0  0  0  0  0  0  0  0  0  0
    7.0440   -5.9340   23.1420 C   0  0  0  0  0  0  0  0  0  0  0  0
    8.2660   -5.8270   23.9900 C   0  0  0  0  0  0  0  0  0  0  0  0
    9.2190   -6.1370   23.3440 N   0  0  0  0  0  0  0  0  0  0  0  0
    9.1150   -6.8760   22.1910 C   0  0  0  0  0  0  0  0  0  0  0  0
    9.6410   -4.8580   23.0460 C   0  0  0  0  0  0  0  0  0  0  0  0
    8.4100   -4.4220   22.3470 C   0  0  0  0  0  0  0  0  0  0  0  0
    7.4710   -1.8020   20.4410 C   0  0  0  0  0  0  0  0  0  0  0  0
    8.4270   -1.0220   21.6880 O   0  0  0  0  0  0  0  0  0  0  0  0
    6.0100   -1.6540   20.6720 N   0  0  0  0  0  0  0  0  0  0  0  0
    5.9590   -0.6360   19.5820 C   0  0  0  0  0  0  0  0  0  0  0  0
    5.5750    0.5990   20.1120 C   0  0  0  0  0  0  0  0  0  0  0  0
    5.5540    1.8610   19.4220 C   0  0  0  0  0  0  0  0  0  0  0  0
    5.7570    2.0070   18.1590 C   0  0  0  0  0  0  0  0  0  0  0  0
    6.0660    0.7780   17.6170 N   0  0  0  0  0  0  0  0  0  0  0  0
    6.1950   -0.6560   18.3410 C   0  0  0  0  0  0  0  0  0  0  0  0
    6.0890   -4.5930   19.8690 C   0  0  0  0  0  0  0  0  0  0  0  0
  1  2  1  0
  2  3  1  0
  3  4  2  0
  3  5  1  0
  5  6  2  0
  6  7  1  0
  7  8  2  0
  8  9  1  0
  9 10  1  0
 10 11  1  0
 11 12  1  0
 12 13  1  0
 13 14  1  0
 14 15  1  0
 15 16  1  0
 15 17  1  0
 12 18  1  0
 17 18  1  0
 10 19  1  0
 19 20  2  0
 19 21  1  0
 21 22  1  0
 22 23  2  0
 23 24  1  0
 24 25  2  0
 25 26  1  0
 22 27  1  0
 26 27  2  0
  5 28  1  0
  9 28  2  0
M  END
