JOR-UNI-61e7b1d5-10-nitrile
     RDKit          3D

 27 29  0  0  0  0  0  0  0  0999 V2000
    7.7380   -3.2940   20.3100 C   0  0  0  0  0  0  0  0  0  0  0  0
    6.4420   -3.2950   19.7270 N   0  0  0  0  0  0  0  0  0  0  0  0
    8.9630   -2.4040   21.2500 C   0  0  0  0  0  0  0  0  0  0  0  0
   10.3370   -2.4930   21.5100 C   0  0  0  0  0  0  0  0  0  0  0  0
   10.7610   -1.3850   22.3690 C   0  0  0  0  0  0  0  0  0  0  0  0
    9.8890   -0.2850   22.9190 C   0  0  0  0  0  0  0  0  0  0  0  0
    8.6230   -0.8130   22.2740 C   0  0  0  0  0  0  0  0  0  0  0  0
    8.0810    0.2270   22.8320 N   0  0  0  0  0  0  0  0  0  0  0  0
    7.2040   -0.2790   23.7610 C   0  0  0  0  0  0  0  0  0  0  0  0
    6.7800    0.6950   24.6480 C   0  0  0  0  0  0  0  0  0  0  0  0
    5.9170    0.1160   25.6230 N   0  0  0  0  0  0  0  0  0  0  0  0
    6.1220   -1.0250   26.3640 C   0  0  0  0  0  0  0  0  0  0  0  0
    5.8830   -0.6710   27.8100 C   0  0  0  0  0  0  0  0  0  0  0  0
    6.8100    0.5010   28.1360 C   0  0  0  0  0  0  0  0  0  0  0  0
    6.0830    1.7410   28.2110 O   0  0  0  0  0  0  0  0  0  0  0  0
    5.4590    2.2370   27.0130 C   0  0  0  0  0  0  0  0  0  0  0  0
    4.9270    1.1010   26.1340 C   0  0  0  0  0  0  0  0  0  0  0  0
    7.7080    0.8740   21.7650 C   0  0  0  0  0  0  0  0  0  0  0  0
    8.3570    1.7910   21.2260 O   0  0  0  0  0  0  0  0  0  0  0  0
    6.5640    0.3360   21.3480 N   0  0  0  0  0  0  0  0  0  0  0  0
    6.2120    0.6130   20.1040 C   0  0  0  0  0  0  0  0  0  0  0  0
    5.0080    1.3200   20.0700 C   0  0  0  0  0  0  0  0  0  0  0  0
    4.5140    1.6930   18.8860 C   0  0  0  0  0  0  0  0  0  0  0  0
    5.2300    1.3510   17.8170 C   0  0  0  0  0  0  0  0  0  0  0  0
    6.3810    0.6640   17.8570 N   0  0  0  0  0  0  0  0  0  0  0  0
    7.0820    0.1720   18.9570 C   0  0  0  0  0  0  0  0  0  0  0  0
    9.5740   -1.4470   22.0760 C   0  0  0  0  0  0  0  0  0  0  0  0
  1  2  2  3
  1  3  1  0
  3  4  2  0
  4  5  1  0
  5  6  2  0
  6  7  1  0
  7  8  1  0
  8  9  1  0
  9 10  1  0
 10 11  1  0
 11 12  1  0
 12 13  1  0
 13 14  1  0
 14 15  1  0
 15 16  1  0
 11 17  1  0
 16 17  1  0
  8 18  1  0
 18 19  2  0
 18 20  1  0
 20 21  1  0
 21 22  2  0
 22 23  1  0
 23 24  2  0
 24 25  1  0
 21 26  1  0
 25 26  2  0
  3 27  1  0
  7 27  2  0
M  END
