JOR-WAB-2fd4136b-1
     RDKit          3D

 28 30  0  0  0  0  0  0  0  0999 V2000
    4.0260    7.6010   18.9240 C   0  0  0  0  0  0  0  0  0  0  0  0
    3.3010    6.6210   18.1290 N   0  0  0  0  0  0  0  0  0  0  0  0
    3.7590    6.5840   16.7330 C   0  0  0  0  0  0  0  0  0  0  0  0
    4.1600    5.3530   16.1760 C   0  0  0  0  0  0  0  0  0  0  0  0
    4.1640    4.1180   16.8550 N   0  0  0  0  0  0  0  0  0  0  0  0
    5.0870    3.0740   16.5830 C   0  0  0  0  0  0  0  0  0  0  0  0
    5.8790    3.1880   15.6640 O   0  0  0  0  0  0  0  0  0  0  0  0
    5.2000    1.7590   17.4300 C   0  0  0  0  0  0  0  0  0  0  0  0
    4.5860    1.8580   18.6260 C   0  0  0  0  0  0  0  0  0  0  0  0
    5.5320    0.6130   18.4150 C   0  0  0  0  0  0  0  0  0  0  0  0
    5.6540   -0.3310   19.5570 C   0  0  0  0  0  0  0  0  0  0  0  0
    5.0540   -0.3350   20.8640 C   0  0  0  0  0  0  0  0  0  0  0  0
    4.2310    0.7420   21.0480 C   0  0  0  0  0  0  0  0  0  0  0  0
    3.5220    0.9760   22.2190 C   0  0  0  0  0  0  0  0  0  0  0  0
    2.2940    0.9190   22.1410 O   0  0  0  0  0  0  0  0  0  0  0  0
    4.1520    1.3090   23.4190 C   0  0  0  0  0  0  0  0  0  0  0  0
    3.3860    2.0140   24.3450 N   0  0  0  0  0  0  0  0  0  0  0  0
    2.0360    1.4760   24.5930 C   0  0  0  0  0  0  0  0  0  0  0  0
    1.0370    2.5500   25.0210 C   0  0  0  0  0  0  0  0  0  0  0  0
   -0.4210    2.0920   24.9300 C   0  0  0  0  0  0  0  0  0  0  0  0
   -1.5060    3.0940   25.3420 C   0  0  0  0  0  0  0  0  0  0  0  0
   -1.0190    4.4610   25.8060 C   0  0  0  0  0  0  0  0  0  0  0  0
    0.4720    4.7960   25.8500 C   0  0  0  0  0  0  0  0  0  0  0  0
    1.4140    3.8280   25.4570 C   0  0  0  0  0  0  0  0  0  0  0  0
    2.7140    4.1610   25.5110 F   0  0  0  0  0  0  0  0  0  0  0  0
    4.0750    1.6890   19.9880 C   0  0  0  0  0  0  0  0  0  0  0  0
    3.3670    4.1160   18.0070 C   0  0  0  0  0  0  0  0  0  0  0  0
    2.9300    5.3930   18.6510 C   0  0  0  0  0  0  0  0  0  0  0  0
  1  2  1  0
  2  3  1  0
  3  4  2  0
  4  5  1  0
  5  6  1  0
  6  7  2  0
  6  8  1  0
  8  9  1  0
  9 10  2  0
 10 11  1  0
 11 12  2  0
 12 13  1  0
 13 14  1  0
 14 15  2  0
 14 16  1  0
 16 17  1  0
 17 18  1  0
 18 19  1  0
 19 20  2  0
 20 21  1  0
 21 22  2  0
 22 23  1  0
 19 24  1  0
 23 24  2  0
 24 25  1  0
  9 26  1  0
 13 26  2  0
  5 27  1  0
  2 28  1  0
 27 28  2  0
M  END
