JOR-UNI-61e7b1d5-9-vinylsulfonamide
     RDKit          3D

 26 28  0  0  0  0  0  0  0  0999 V2000
    6.7320   -5.1060   20.2810 C   0  0  0  0  0  0  0  0  0  0  0  0
    6.9620   -4.6600   21.6920 C   0  0  0  0  0  0  0  0  0  0  0  0
    6.1730   -3.1010   21.7980 S   0  0  0  0  0  0  0  0  0  0  0  0
    4.6980   -3.4790   22.0050 O   0  0  0  0  0  0  0  0  0  0  0  0
    6.3390   -2.3750   20.5630 O   0  0  0  0  0  0  0  0  0  0  0  0
    7.3130   -2.1160   22.9260 C   0  0  0  0  0  0  0  0  0  0  0  0
    8.4740   -1.0970   23.3040 C   0  0  0  0  0  0  0  0  0  0  0  0
    8.7420   -0.8610   24.7150 C   0  0  0  0  0  0  0  0  0  0  0  0
    7.8970   -1.6360   24.0620 C   0  0  0  0  0  0  0  0  0  0  0  0
    8.3330   -1.1980   22.6750 C   0  0  0  0  0  0  0  0  0  0  0  0
    9.3030   -0.2350   22.3660 N   0  0  0  0  0  0  0  0  0  0  0  0
   10.6930   -0.2930   22.5520 C   0  0  0  0  0  0  0  0  0  0  0  0
   11.1470   -0.6310   23.8370 C   0  0  0  0  0  0  0  0  0  0  0  0
   12.5640   -1.1170   23.8540 C   0  0  0  0  0  0  0  0  0  0  0  0
   12.7740   -2.2440   24.6230 C   0  0  0  0  0  0  0  0  0  0  0  0
   12.8610   -2.2820   23.0240 C   0  0  0  0  0  0  0  0  0  0  0  0
    8.8310    0.7260   21.4860 C   0  0  0  0  0  0  0  0  0  0  0  0
    9.2790    1.8570   21.3660 O   0  0  0  0  0  0  0  0  0  0  0  0
    7.7820    0.3080   20.7550 N   0  0  0  0  0  0  0  0  0  0  0  0
    6.6400    0.9570   20.5840 C   0  0  0  0  0  0  0  0  0  0  0  0
    5.3140    1.6290   20.1360 C   0  0  0  0  0  0  0  0  0  0  0  0
    4.4700    1.7840   18.9860 C   0  0  0  0  0  0  0  0  0  0  0  0
    5.1600    1.0540   18.0330 C   0  0  0  0  0  0  0  0  0  0  0  0
    6.2190    0.4210   18.1220 N   0  0  0  0  0  0  0  0  0  0  0  0
    6.8870    0.3670   19.2540 C   0  0  0  0  0  0  0  0  0  0  0  0
    7.7050   -1.7810   21.6740 C   0  0  0  0  0  0  0  0  0  0  0  0
  1  2  1  0
  3  2  1  0
  3  4  2  0
  3  5  2  0
  3  6  1  0
  6  7  2  0
  7  8  1  0
  8  9  2  0
  9 10  1  0
 10 11  1  0
 11 12  1  0
 12 13  1  0
 13 14  1  0
 14 15  1  0
 14 16  1  0
 15 16  1  0
 11 17  1  0
 17 18  2  0
 17 19  1  0
 19 20  1  0
 20 21  2  0
 21 22  1  0
 22 23  2  0
 23 24  1  0
 20 25  1  0
 24 25  2  0
  6 26  1  0
 10 26  2  0
M  END
