JOR-UNI-61e7b1d5-7-nitrile
     RDKit          3D

 23 24  0  0  0  0  0  0  0  0999 V2000
    6.5180   -3.7650   19.9240 C   0  0  0  0  0  0  0  0  0  0  0  0
    5.3550   -3.5710   19.3750 N   0  0  0  0  0  0  0  0  0  0  0  0
    7.7030   -2.6020   19.9510 C   0  0  0  0  0  0  0  0  0  0  0  0
    7.7270   -2.4140   18.7680 C   0  0  0  0  0  0  0  0  0  0  0  0
    6.5610   -2.7180   18.3460 C   0  0  0  0  0  0  0  0  0  0  0  0
    5.8750   -2.9490   19.7250 C   0  0  0  0  0  0  0  0  0  0  0  0
    6.6360   -2.8900   21.2130 C   0  0  0  0  0  0  0  0  0  0  0  0
    5.8280   -3.0330   22.2890 N   0  0  0  0  0  0  0  0  0  0  0  0
    6.1890   -4.0580   23.1170 C   0  0  0  0  0  0  0  0  0  0  0  0
    5.0870   -4.8930   23.2630 C   0  0  0  0  0  0  0  0  0  0  0  0
    5.3820   -6.1410   23.8340 C   0  0  0  0  0  0  0  0  0  0  0  0
    5.4380   -5.2940   24.9390 N   0  0  0  0  0  0  0  0  0  0  0  0
    5.1920   -6.4220   22.4920 N   0  0  0  0  0  0  0  0  0  0  0  0
    5.4640   -1.7570   22.7980 C   0  0  0  0  0  0  0  0  0  0  0  0
    5.7680   -1.3650   24.1430 O   0  0  0  0  0  0  0  0  0  0  0  0
    4.7870   -0.9020   21.9010 N   0  0  0  0  0  0  0  0  0  0  0  0
    5.1210   -0.2930   20.6370 C   0  0  0  0  0  0  0  0  0  0  0  0
    4.1370    0.7760   20.1130 C   0  0  0  0  0  0  0  0  0  0  0  0
    4.4320    1.4400   18.7810 C   0  0  0  0  0  0  0  0  0  0  0  0
    5.5340    1.1180   18.0350 C   0  0  0  0  0  0  0  0  0  0  0  0
    6.3930    0.1690   18.5160 N   0  0  0  0  0  0  0  0  0  0  0  0
    6.2140   -0.5130   19.7680 C   0  0  0  0  0  0  0  0  0  0  0  0
    8.0430   -2.5690   21.1360 C   0  0  0  0  0  0  0  0  0  0  0  0
  1  2  2  3
  1  3  1  0
  3  4  2  0
  4  5  1  0
  5  6  2  0
  6  7  1  0
  7  8  1  0
  8  9  1  0
  9 10  1  0
 10 11  1  0
 11 12  2  3
 11 13  1  0
  8 14  1  0
 14 15  2  0
 14 16  1  0
 16 17  1  0
 17 18  2  0
 18 19  1  0
 19 20  2  0
 20 21  1  0
 17 22  1  0
 21 22  2  0
  3 23  1  0
  7 23  2  0
M  END
