JOR-UNI-61e7b1d5-4-nitrile
     RDKit          3D

 28 30  0  0  0  0  0  0  0  0999 V2000
    8.5420   -3.6760   19.8020 C   0  0  0  0  0  0  0  0  0  0  0  0
    7.1960   -3.7890   19.7400 N   0  0  0  0  0  0  0  0  0  0  0  0
    9.2980   -2.6580   21.0260 C   0  0  0  0  0  0  0  0  0  0  0  0
   10.6900   -2.4980   21.5800 C   0  0  0  0  0  0  0  0  0  0  0  0
   11.1160   -1.6360   22.5970 N   0  0  0  0  0  0  0  0  0  0  0  0
   10.1530   -0.7530   23.2140 C   0  0  0  0  0  0  0  0  0  0  0  0
   10.4020    0.1770   24.2970 N   0  0  0  0  0  0  0  0  0  0  0  0
    9.8620   -0.1240   25.6660 C   0  0  0  0  0  0  0  0  0  0  0  0
    8.7130   -1.0070   25.7300 C   0  0  0  0  0  0  0  0  0  0  0  0
    8.8920   -0.8370   22.6770 C   0  0  0  0  0  0  0  0  0  0  0  0
    7.9840   -0.0220   23.0880 N   0  0  0  0  0  0  0  0  0  0  0  0
    6.8430   -0.3080   23.8350 C   0  0  0  0  0  0  0  0  0  0  0  0
    6.6210    0.6460   24.8240 N   0  0  0  0  0  0  0  0  0  0  0  0
    6.7230    2.0540   24.7010 C   0  0  0  0  0  0  0  0  0  0  0  0
    6.6360    2.8220   25.9980 C   0  0  0  0  0  0  0  0  0  0  0  0
    5.5370    2.4340   26.8300 O   0  0  0  0  0  0  0  0  0  0  0  0
    5.4540    1.0150   27.0100 C   0  0  0  0  0  0  0  0  0  0  0  0
    5.4680    0.2610   25.6720 C   0  0  0  0  0  0  0  0  0  0  0  0
    7.7770    0.6010   21.8540 C   0  0  0  0  0  0  0  0  0  0  0  0
    8.4920    1.5170   21.3720 O   0  0  0  0  0  0  0  0  0  0  0  0
    6.7270    0.0180   21.2100 N   0  0  0  0  0  0  0  0  0  0  0  0
    6.2320    0.4840   20.0270 C   0  0  0  0  0  0  0  0  0  0  0  0
    4.9790    1.2940   20.0840 C   0  0  0  0  0  0  0  0  0  0  0  0
    4.4800    1.7880   18.8970 C   0  0  0  0  0  0  0  0  0  0  0  0
    5.1570    1.5160   17.7130 C   0  0  0  0  0  0  0  0  0  0  0  0
    6.2860    0.7790   17.6080 N   0  0  0  0  0  0  0  0  0  0  0  0
    6.8210    0.2690   18.7210 C   0  0  0  0  0  0  0  0  0  0  0  0
    8.5010   -1.7390   21.6620 C   0  0  0  0  0  0  0  0  0  0  0  0
  1  2  2  3
  1  3  1  0
  3  4  2  0
  4  5  1  0
  5  6  2  0
  6  7  1  0
  7  8  1  0
  8  9  1  0
  6 10  1  0
 10 11  1  0
 11 12  1  0
 12 13  1  0
 13 14  1  0
 14 15  1  0
 15 16  1  0
 16 17  1  0
 13 18  1  0
 17 18  1  0
 11 19  1  0
 19 20  2  0
 19 21  1  0
 21 22  1  0
 22 23  2  0
 23 24  1  0
 24 25  2  0
 25 26  1  0
 22 27  1  0
 26 27  2  0
  3 28  1  0
 10 28  2  0
M  END
