JOR-UNI-61e7b1d5-27-vinylsulfonamide
     RDKit          3D

 32 34  0  0  0  0  0  0  0  0999 V2000
    8.5380   -4.1610   20.7760 C   0  0  0  0  0  0  0  0  0  0  0  0
    7.5540   -5.0410   21.5970 C   0  0  0  0  0  0  0  0  0  0  0  0
    6.0760   -4.1530   22.1470 S   0  0  0  0  0  0  0  0  0  0  0  0
    5.2270   -3.7210   21.0300 O   0  0  0  0  0  0  0  0  0  0  0  0
    5.4390   -5.0070   23.1330 O   0  0  0  0  0  0  0  0  0  0  0  0
    6.8250   -2.8120   23.0940 C   0  0  0  0  0  0  0  0  0  0  0  0
    7.3160   -1.9650   22.0160 C   0  0  0  0  0  0  0  0  0  0  0  0
    8.0950   -0.6360   22.2290 N   0  0  0  0  0  0  0  0  0  0  0  0
    8.5970    0.1830   23.4240 C   0  0  0  0  0  0  0  0  0  0  0  0
    8.7910    0.4590   24.8000 N   0  0  0  0  0  0  0  0  0  0  0  0
    7.9270    0.0520   25.9040 C   0  0  0  0  0  0  0  0  0  0  0  0
    8.7650   -0.3800   26.9520 C   0  0  0  0  0  0  0  0  0  0  0  0
    7.9740   -0.8510   23.7600 C   0  0  0  0  0  0  0  0  0  0  0  0
    8.1890   -0.5770   22.3420 N   0  0  0  0  0  0  0  0  0  0  0  0
    9.3110   -1.3890   21.8020 C   0  0  0  0  0  0  0  0  0  0  0  0
    9.9460   -2.2910   22.8740 C   0  0  0  0  0  0  0  0  0  0  0  0
    9.0980   -3.3270   23.5130 N   0  0  0  0  0  0  0  0  0  0  0  0
    9.7540   -4.6250   23.4380 C   0  0  0  0  0  0  0  0  0  0  0  0
    9.5170   -5.5660   24.6150 C   0  0  0  0  0  0  0  0  0  0  0  0
    8.2010   -5.4230   25.2680 N   0  0  0  0  0  0  0  0  0  0  0  0
    7.9840   -4.0040   25.6160 C   0  0  0  0  0  0  0  0  0  0  0  0
    8.9340   -3.0680   24.8750 C   0  0  0  0  0  0  0  0  0  0  0  0
    8.0270    0.6850   21.6820 C   0  0  0  0  0  0  0  0  0  0  0  0
    8.9920    1.3720   21.3020 O   0  0  0  0  0  0  0  0  0  0  0  0
    6.7310    1.0780   21.4910 N   0  0  0  0  0  0  0  0  0  0  0  0
    6.1820    1.2610   20.2260 C   0  0  0  0  0  0  0  0  0  0  0  0
    5.1580    2.1850   20.0850 C   0  0  0  0  0  0  0  0  0  0  0  0
    4.6070    2.3880   18.8340 C   0  0  0  0  0  0  0  0  0  0  0  0
    5.1010    1.6600   17.7740 C   0  0  0  0  0  0  0  0  0  0  0  0
    6.0830    0.7520   17.8640 N   0  0  0  0  0  0  0  0  0  0  0  0
    6.6030    0.5710   19.0920 C   0  0  0  0  0  0  0  0  0  0  0  0
    7.4580   -1.7310   23.0270 C   0  0  0  0  0  0  0  0  0  0  0  0
  1  2  1  0
  3  2  1  0
  3  4  2  0
  3  5  2  0
  3  6  1  0
  6  7  2  0
  7  8  1  0
  8  9  2  0
  9 10  1  0
 10 11  1  0
 11 12  1  0
  9 13  1  0
 13 14  1  0
 14 15  1  0
 15 16  1  0
 16 17  1  0
 17 18  1  0
 18 19  1  0
 19 20  1  0
 20 21  1  0
 17 22  1  0
 21 22  1  0
 14 23  1  0
 23 24  2  0
 23 25  1  0
 25 26  1  0
 26 27  2  0
 27 28  1  0
 28 29  2  0
 29 30  1  0
 26 31  1  0
 30 31  2  0
  6 32  1  0
 13 32  2  0
M  END
