JOR-UNI-61e7b1d5-15-chloroacetamide
     RDKit          3D

 30 32  0  0  0  0  0  0  0  0999 V2000
    9.7020   -4.2670   20.2800 C   0  0  0  0  0  0  0  0  0  0  0  0
    8.5330   -3.2640   20.4770 C   0  0  0  0  0  0  0  0  0  0  0  0
    7.5690   -3.9990   19.6930 O   0  0  0  0  0  0  0  0  0  0  0  0
    9.7160   -2.5270   21.3440 C   0  0  0  0  0  0  0  0  0  0  0  0
   11.1290   -2.2570   21.7160 C   0  0  0  0  0  0  0  0  0  0  0  0
   11.4570   -1.2910   22.8120 N   0  0  0  0  0  0  0  0  0  0  0  0
   10.4070   -0.6030   23.5340 C   0  0  0  0  0  0  0  0  0  0  0  0
   10.4970    0.2520   24.6130 N   0  0  0  0  0  0  0  0  0  0  0  0
    9.3460    0.3110   25.4580 C   0  0  0  0  0  0  0  0  0  0  0  0
    9.2980   -0.2830   26.8090 C   0  0  0  0  0  0  0  0  0  0  0  0
    9.0850   -0.8930   23.0310 C   0  0  0  0  0  0  0  0  0  0  0  0
    7.8200   -0.5160   23.2640 N   0  0  0  0  0  0  0  0  0  0  0  0
    6.8500   -1.3180   23.8690 C   0  0  0  0  0  0  0  0  0  0  0  0
    7.3080   -2.6330   24.0820 N   0  0  0  0  0  0  0  0  0  0  0  0
    8.3060   -3.1050   24.9730 C   0  0  0  0  0  0  0  0  0  0  0  0
    8.9600   -4.4750   24.7280 C   0  0  0  0  0  0  0  0  0  0  0  0
    8.1790   -5.4060   24.1040 N   0  0  0  0  0  0  0  0  0  0  0  0
    8.9480   -6.1620   23.0810 C   0  0  0  0  0  0  0  0  0  0  0  0
    6.7560   -4.9690   24.0540 C   0  0  0  0  0  0  0  0  0  0  0  0
    6.3740   -3.6850   23.6330 C   0  0  0  0  0  0  0  0  0  0  0  0
    7.5420    0.1140   22.0340 C   0  0  0  0  0  0  0  0  0  0  0  0
    8.1510    1.1370   21.6870 O   0  0  0  0  0  0  0  0  0  0  0  0
    6.6240   -0.4780   21.2060 N   0  0  0  0  0  0  0  0  0  0  0  0
    6.0950    0.1690   20.0860 C   0  0  0  0  0  0  0  0  0  0  0  0
    4.9170    0.9040   20.1250 C   0  0  0  0  0  0  0  0  0  0  0  0
    4.4820    1.5220   18.9680 C   0  0  0  0  0  0  0  0  0  0  0  0
    5.2210    1.3960   17.8080 C   0  0  0  0  0  0  0  0  0  0  0  0
    6.3580    0.6870   17.7350 N   0  0  0  0  0  0  0  0  0  0  0  0
    6.7690    0.0900   18.8720 C   0  0  0  0  0  0  0  0  0  0  0  0
    9.4330   -1.7100   22.1910 C   0  0  0  0  0  0  0  0  0  0  0  0
  1  2  1  0
  2  3  2  0
  2  4  1  0
  4  5  2  0
  5  6  1  0
  6  7  2  0
  7  8  1  0
  8  9  1  0
  9 10  1  0
  7 11  1  0
 11 12  1  0
 12 13  1  0
 13 14  1  0
 14 15  1  0
 15 16  1  0
 16 17  1  0
 17 18  1  0
 17 19  1  0
 14 20  1  0
 19 20  1  0
 12 21  1  0
 21 22  2  0
 21 23  1  0
 23 24  1  0
 24 25  2  0
 25 26  1  0
 26 27  2  0
 27 28  1  0
 24 29  1  0
 28 29  2  0
  4 30  1  0
 11 30  2  0
M  END
