JOR-UNI-61e7b1d5-4-vinylsulfonamide
     RDKit          3D

 31 33  0  0  0  0  0  0  0  0999 V2000
    8.2010   -4.9740   20.7020 C   0  0  0  0  0  0  0  0  0  0  0  0
    6.9240   -4.5850   21.3000 C   0  0  0  0  0  0  0  0  0  0  0  0
    6.6050   -2.9810   20.7550 S   0  0  0  0  0  0  0  0  0  0  0  0
    5.0310   -3.1950   21.0120 O   0  0  0  0  0  0  0  0  0  0  0  0
    7.0120   -2.8040   19.3860 O   0  0  0  0  0  0  0  0  0  0  0  0
    7.8870   -1.9830   21.8340 C   0  0  0  0  0  0  0  0  0  0  0  0
    9.5690   -1.7850   22.1500 C   0  0  0  0  0  0  0  0  0  0  0  0
   10.8010   -1.2000   22.8780 N   0  0  0  0  0  0  0  0  0  0  0  0
   10.1850   -0.5640   23.6170 C   0  0  0  0  0  0  0  0  0  0  0  0
   10.3010    0.2830   24.7040 N   0  0  0  0  0  0  0  0  0  0  0  0
    9.7600   -0.2080   25.9340 C   0  0  0  0  0  0  0  0  0  0  0  0
    8.7410    0.5020   26.7180 C   0  0  0  0  0  0  0  0  0  0  0  0
    9.1580   -1.0530   22.9200 C   0  0  0  0  0  0  0  0  0  0  0  0
    7.9030   -0.5620   23.2130 N   0  0  0  0  0  0  0  0  0  0  0  0
    6.8890   -1.1860   23.9500 C   0  0  0  0  0  0  0  0  0  0  0  0
    7.0450   -1.0690   25.3300 N   0  0  0  0  0  0  0  0  0  0  0  0
    7.2620   -2.1340   26.2410 C   0  0  0  0  0  0  0  0  0  0  0  0
    6.1520   -2.6510   27.1590 C   0  0  0  0  0  0  0  0  0  0  0  0
    4.9120   -2.0530   27.1030 O   0  0  0  0  0  0  0  0  0  0  0  0
    4.7590   -1.0410   26.1830 C   0  0  0  0  0  0  0  0  0  0  0  0
    6.0260   -0.2410   25.8630 C   0  0  0  0  0  0  0  0  0  0  0  0
    7.6000    0.1400   22.0500 C   0  0  0  0  0  0  0  0  0  0  0  0
    8.3350    1.0180   21.5770 O   0  0  0  0  0  0  0  0  0  0  0  0
    6.4600   -0.2600   21.4540 N   0  0  0  0  0  0  0  0  0  0  0  0
    6.1230    0.2560   20.2430 C   0  0  0  0  0  0  0  0  0  0  0  0
    4.9770    1.0460   20.2100 C   0  0  0  0  0  0  0  0  0  0  0  0
    4.5530    1.6190   19.0140 C   0  0  0  0  0  0  0  0  0  0  0  0
    5.2800    1.3980   17.8550 C   0  0  0  0  0  0  0  0  0  0  0  0
    6.3940    0.6450   17.7970 N   0  0  0  0  0  0  0  0  0  0  0  0
    6.8220    0.0770   18.9540 C   0  0  0  0  0  0  0  0  0  0  0  0
    9.0890   -2.0370   21.8560 C   0  0  0  0  0  0  0  0  0  0  0  0
  1  2  1  0
  3  2  1  0
  3  4  2  0
  3  5  2  0
  3  6  1  0
  6  7  2  0
  7  8  1  0
  8  9  2  0
  9 10  1  0
 10 11  1  0
 11 12  1  0
  9 13  1  0
 13 14  1  0
 14 15  1  0
 15 16  1  0
 16 17  1  0
 17 18  1  0
 18 19  1  0
 19 20  1  0
 16 21  1  0
 20 21  1  0
 14 22  1  0
 22 23  2  0
 22 24  1  0
 24 25  1  0
 25 26  2  0
 26 27  1  0
 27 28  2  0
 28 29  1  0
 25 30  1  0
 29 30  2  0
  6 31  1  0
 13 31  2  0
M  END
