JOR-UNI-61e7b1d5-2-chloroacetamide
     RDKit          3D

 19 20  0  0  0  0  0  0  0  0999 V2000
    7.3350   -4.3310   20.9570 C   0  0  0  0  0  0  0  0  0  0  0  0
    8.0670   -3.2010   20.2900 C   0  0  0  0  0  0  0  0  0  0  0  0
    7.5010   -3.1350   19.0390 O   0  0  0  0  0  0  0  0  0  0  0  0
    9.2360   -2.3110   21.2150 C   0  0  0  0  0  0  0  0  0  0  0  0
   10.7040   -2.4250   21.5520 C   0  0  0  0  0  0  0  0  0  0  0  0
   11.4350   -1.5110   22.3870 C   0  0  0  0  0  0  0  0  0  0  0  0
   10.7690   -0.4020   22.9410 C   0  0  0  0  0  0  0  0  0  0  0  0
    9.3960   -0.2830   22.6110 C   0  0  0  0  0  0  0  0  0  0  0  0
    8.5300    0.6650   22.9390 N   0  0  0  0  0  0  0  0  0  0  0  0
    7.9940    1.0890   21.7570 C   0  0  0  0  0  0  0  0  0  0  0  0
    8.4450    2.0230   21.1170 O   0  0  0  0  0  0  0  0  0  0  0  0
    6.9680    0.2900   21.3820 N   0  0  0  0  0  0  0  0  0  0  0  0
    6.4360    0.6040   20.2090 C   0  0  0  0  0  0  0  0  0  0  0  0
    5.2090    1.4430   20.2840 C   0  0  0  0  0  0  0  0  0  0  0  0
    4.5050    1.9020   19.0280 C   0  0  0  0  0  0  0  0  0  0  0  0
    5.1770    1.4240   17.7520 C   0  0  0  0  0  0  0  0  0  0  0  0
    6.2750    0.6560   17.6810 N   0  0  0  0  0  0  0  0  0  0  0  0
    6.9050    0.2410   18.9560 C   0  0  0  0  0  0  0  0  0  0  0  0
    8.7230   -1.1960   21.8100 C   0  0  0  0  0  0  0  0  0  0  0  0
  1  2  1  0
  2  3  2  0
  2  4  1  0
  4  5  2  0
  5  6  1  0
  6  7  2  0
  7  8  1  0
  8  9  1  0
  9 10  1  0
 10 11  2  0
 10 12  1  0
 12 13  1  0
 13 14  2  0
 14 15  1  0
 15 16  2  0
 16 17  1  0
 13 18  1  0
 17 18  2  0
  4 19  1  0
  8 19  2  0
M  END
