JOR-UNI-61e7b1d5-30-nitrile
     RDKit          3D

 26 28  0  0  0  0  0  0  0  0999 V2000
    7.9970   -3.4080   19.9370 C   0  0  0  0  0  0  0  0  0  0  0  0
    6.6340   -3.6560   19.7970 N   0  0  0  0  0  0  0  0  0  0  0  0
    8.9860   -2.7100   21.2660 C   0  0  0  0  0  0  0  0  0  0  0  0
   10.2850   -1.6760   21.3810 C   0  0  0  0  0  0  0  0  0  0  0  0
   10.9150   -1.0720   22.6960 C   0  0  0  0  0  0  0  0  0  0  0  0
   10.0420   -0.9380   23.5440 C   0  0  0  0  0  0  0  0  0  0  0  0
    9.2560   -1.5730   22.8740 C   0  0  0  0  0  0  0  0  0  0  0  0
    7.9950   -1.1240   22.7190 N   0  0  0  0  0  0  0  0  0  0  0  0
    6.9340   -2.0590   23.1320 C   0  0  0  0  0  0  0  0  0  0  0  0
    7.4050   -2.9980   24.2510 C   0  0  0  0  0  0  0  0  0  0  0  0
    7.3150   -4.4220   23.9270 N   0  0  0  0  0  0  0  0  0  0  0  0
    6.6930   -4.7900   22.6480 C   0  0  0  0  0  0  0  0  0  0  0  0
    6.6860   -6.2880   22.3630 C   0  0  0  0  0  0  0  0  0  0  0  0
    7.1180   -7.0950   23.5870 C   0  0  0  0  0  0  0  0  0  0  0  0
    8.4750   -6.6380   24.1280 C   0  0  0  0  0  0  0  0  0  0  0  0
    8.6030   -5.1030   24.1630 C   0  0  0  0  0  0  0  0  0  0  0  0
    7.7220   -0.2360   21.6230 C   0  0  0  0  0  0  0  0  0  0  0  0
    8.4650    0.7170   21.3300 O   0  0  0  0  0  0  0  0  0  0  0  0
    6.5990   -0.5730   20.9630 N   0  0  0  0  0  0  0  0  0  0  0  0
    6.1490    0.1090   19.8750 C   0  0  0  0  0  0  0  0  0  0  0  0
    4.8780    0.9130   20.0190 C   0  0  0  0  0  0  0  0  0  0  0  0
    4.4350    1.6110   18.9190 C   0  0  0  0  0  0  0  0  0  0  0  0
    5.1780    1.5350   17.7440 C   0  0  0  0  0  0  0  0  0  0  0  0
    6.3120    0.8150   17.6060 N   0  0  0  0  0  0  0  0  0  0  0  0
    6.7720    0.1220   18.6600 C   0  0  0  0  0  0  0  0  0  0  0  0
    9.5800   -2.9510   22.3360 C   0  0  0  0  0  0  0  0  0  0  0  0
  1  2  2  3
  1  3  1  0
  3  4  2  0
  4  5  1  0
  5  6  2  0
  6  7  1  0
  7  8  1  0
  8  9  1  0
  9 10  1  0
 10 11  1  0
 11 12  1  0
 12 13  1  0
 13 14  1  0
 14 15  1  0
 11 16  1  0
 15 16  1  0
  8 17  1  0
 17 18  2  0
 17 19  1  0
 19 20  1  0
 20 21  2  0
 21 22  1  0
 22 23  2  0
 23 24  1  0
 20 25  1  0
 24 25  2  0
  3 26  1  0
  7 26  2  0
M  END
