JOR-UNI-61e7b1d5-27-nitrile
     RDKit          3D

 29 31  0  0  0  0  0  0  0  0999 V2000
    7.9300   -3.3060   19.7410 C   0  0  0  0  0  0  0  0  0  0  0  0
    7.8180   -2.8220   18.4950 N   0  0  0  0  0  0  0  0  0  0  0  0
    9.0780   -2.9200   20.8140 C   0  0  0  0  0  0  0  0  0  0  0  0
    9.8200   -2.3340   21.8350 C   0  0  0  0  0  0  0  0  0  0  0  0
   10.7040   -1.9440   22.7450 N   0  0  0  0  0  0  0  0  0  0  0  0
    9.9390   -1.0260   23.2290 C   0  0  0  0  0  0  0  0  0  0  0  0
   10.2670   -0.1670   24.3200 N   0  0  0  0  0  0  0  0  0  0  0  0
    9.7330   -0.6000   25.6220 C   0  0  0  0  0  0  0  0  0  0  0  0
    8.6510    0.1850   26.0130 C   0  0  0  0  0  0  0  0  0  0  0  0
    8.7080   -0.9840   22.5180 C   0  0  0  0  0  0  0  0  0  0  0  0
    7.7700   -0.0200   22.8800 N   0  0  0  0  0  0  0  0  0  0  0  0
    6.6100   -0.4880   23.6700 C   0  0  0  0  0  0  0  0  0  0  0  0
    6.7550   -1.9330   24.2370 C   0  0  0  0  0  0  0  0  0  0  0  0
    5.7130   -2.8780   23.7700 N   0  0  0  0  0  0  0  0  0  0  0  0
    4.4560   -2.7080   24.5290 C   0  0  0  0  0  0  0  0  0  0  0  0
    4.1800   -3.8390   25.5250 C   0  0  0  0  0  0  0  0  0  0  0  0
    4.1390   -5.2010   24.9700 N   0  0  0  0  0  0  0  0  0  0  0  0
    5.0430   -5.3180   23.8250 C   0  0  0  0  0  0  0  0  0  0  0  0
    6.1790   -4.2860   23.8530 C   0  0  0  0  0  0  0  0  0  0  0  0
    7.5930    0.6900   21.7200 C   0  0  0  0  0  0  0  0  0  0  0  0
    8.3360    1.6260   21.3310 O   0  0  0  0  0  0  0  0  0  0  0  0
    6.5310    0.1820   21.0580 N   0  0  0  0  0  0  0  0  0  0  0  0
    5.9970    0.7130   19.9280 C   0  0  0  0  0  0  0  0  0  0  0  0
    4.7550    1.5630   19.9170 C   0  0  0  0  0  0  0  0  0  0  0  0
    4.3560    2.0460   18.7040 C   0  0  0  0  0  0  0  0  0  0  0  0
    5.1040    1.7270   17.5840 C   0  0  0  0  0  0  0  0  0  0  0  0
    6.2150    0.9550   17.5690 N   0  0  0  0  0  0  0  0  0  0  0  0
    6.6300    0.4690   18.7390 C   0  0  0  0  0  0  0  0  0  0  0  0
    8.2980   -1.8620   21.3890 C   0  0  0  0  0  0  0  0  0  0  0  0
  1  2  2  3
  1  3  1  0
  3  4  2  0
  4  5  1  0
  5  6  2  0
  6  7  1  0
  7  8  1  0
  8  9  1  0
  6 10  1  0
 10 11  1  0
 11 12  1  0
 12 13  1  0
 13 14  1  0
 14 15  1  0
 15 16  1  0
 16 17  1  0
 17 18  1  0
 14 19  1  0
 18 19  1  0
 11 20  1  0
 20 21  2  0
 20 22  1  0
 22 23  1  0
 23 24  2  0
 24 25  1  0
 25 26  2  0
 26 27  1  0
 23 28  1  0
 27 28  2  0
  3 29  1  0
 10 29  2  0
M  END
