JOR-UNI-2fc98d0b-7
     RDKit          3D

 17 18  0  0  0  0  0  0  0  0999 V2000
    8.6210    0.7440   21.2820 O   0  0  0  0  0  0  0  0  0  0  0  0
    8.2640   -0.4000   21.5410 C   0  0  0  0  0  0  0  0  0  0  0  0
    7.0610   -0.8380   21.0570 N   0  0  0  0  0  0  0  0  0  0  0  0
    6.4520   -0.1430   20.0060 C   0  0  0  0  0  0  0  0  0  0  0  0
    5.1820    0.6610   20.2680 C   0  0  0  0  0  0  0  0  0  0  0  0
    4.5770    1.3720   19.2360 C   0  0  0  0  0  0  0  0  0  0  0  0
    5.1500    1.3370   17.9740 C   0  0  0  0  0  0  0  0  0  0  0  0
    6.2920    0.6260   17.6660 N   0  0  0  0  0  0  0  0  0  0  0  0
    6.9540   -0.1350   18.7180 C   0  0  0  0  0  0  0  0  0  0  0  0
    9.0240   -1.2750   22.2910 N   0  0  0  0  0  0  0  0  0  0  0  0
   10.2790   -0.7540   22.5230 C   0  0  0  0  0  0  0  0  0  0  0  0
   11.6250   -1.4580   22.3500 C   0  0  0  0  0  0  0  0  0  0  0  0
   12.9070   -0.6660   22.6380 C   0  0  0  0  0  0  0  0  0  0  0  0
   12.7990    0.7970   23.0760 C   0  0  0  0  0  0  0  0  0  0  0  0
   11.3990    1.4330   23.2310 C   0  0  0  0  0  0  0  0  0  0  0  0
   11.1080    3.0630   23.6910 Cl  0  0  0  0  0  0  0  0  0  0  0  0
   10.1970    0.5630   22.9340 C   0  0  0  0  0  0  0  0  0  0  0  0
  1  2  2  0
  2  3  1  0
  3  4  1  0
  4  5  2  0
  5  6  1  0
  6  7  2  0
  7  8  1  0
  4  9  1  0
  8  9  2  0
  2 10  1  0
 10 11  1  0
 11 12  2  0
 12 13  1  0
 13 14  2  0
 14 15  1  0
 15 16  1  0
 11 17  1  0
 15 17  2  0
M  END
