JOR-UNI-61e7b1d5-23-acrylamide
     RDKit          3D

 31 33  0  0  0  0  0  0  0  0999 V2000
    7.1680   -3.4300   19.5450 C   0  0  0  0  0  0  0  0  0  0  0  0
    6.4530   -4.2540   20.6090 C   0  0  0  0  0  0  0  0  0  0  0  0
    5.8500   -3.3710   21.6820 C   0  0  0  0  0  0  0  0  0  0  0  0
    4.6750   -3.5660   22.0320 O   0  0  0  0  0  0  0  0  0  0  0  0
    6.6960   -2.2460   22.2810 C   0  0  0  0  0  0  0  0  0  0  0  0
    7.6230   -2.6050   21.7170 C   0  0  0  0  0  0  0  0  0  0  0  0
    7.6080   -1.4410   22.6090 N   0  0  0  0  0  0  0  0  0  0  0  0
    6.7620   -0.5360   23.5790 C   0  0  0  0  0  0  0  0  0  0  0  0
    5.4390   -1.0260   23.6710 N   0  0  0  0  0  0  0  0  0  0  0  0
    4.6670   -0.3980   24.7530 C   0  0  0  0  0  0  0  0  0  0  0  0
    5.5720   -0.0340   25.9280 C   0  0  0  0  0  0  0  0  0  0  0  0
    7.8100   -0.7160   23.0840 C   0  0  0  0  0  0  0  0  0  0  0  0
    6.6950   -1.6270   22.7940 N   0  0  0  0  0  0  0  0  0  0  0  0
    6.5470   -2.6860   23.8940 C   0  0  0  0  0  0  0  0  0  0  0  0
    7.7590   -3.5360   24.0800 N   0  0  0  0  0  0  0  0  0  0  0  0
    7.3910   -4.9030   24.4850 C   0  0  0  0  0  0  0  0  0  0  0  0
    7.5750   -5.1570   25.9780 C   0  0  0  0  0  0  0  0  0  0  0  0
    9.0700   -5.1250   26.3030 C   0  0  0  0  0  0  0  0  0  0  0  0
    9.2670   -5.0920   27.8230 C   0  0  0  0  0  0  0  0  0  0  0  0
    9.7380   -3.9390   25.5730 C   0  0  0  0  0  0  0  0  0  0  0  0
    8.7100   -2.9260   25.0350 C   0  0  0  0  0  0  0  0  0  0  0  0
    5.4410   -1.2380   22.0760 C   0  0  0  0  0  0  0  0  0  0  0  0
    4.9170   -1.9160   22.9730 O   0  0  0  0  0  0  0  0  0  0  0  0
    6.2930   -0.5420   21.1980 N   0  0  0  0  0  0  0  0  0  0  0  0
    5.9550   -0.0310   19.8940 C   0  0  0  0  0  0  0  0  0  0  0  0
    4.9500    0.4800   20.5070 C   0  0  0  0  0  0  0  0  0  0  0  0
    4.1770    1.1800   19.6190 C   0  0  0  0  0  0  0  0  0  0  0  0
    5.1260    0.8110   18.5370 C   0  0  0  0  0  0  0  0  0  0  0  0
    6.3460    0.0580   18.3850 N   0  0  0  0  0  0  0  0  0  0  0  0
    7.0030   -0.6010   19.4120 C   0  0  0  0  0  0  0  0  0  0  0  0
    8.1740   -1.6620   22.2520 C   0  0  0  0  0  0  0  0  0  0  0  0
  1  2  1  0
  2  3  1  0
  3  4  2  0
  3  5  1  0
  5  6  2  0
  6  7  1  0
  7  8  2  0
  8  9  1  0
  9 10  1  0
 10 11  1  0
  8 12  1  0
 12 13  1  0
 13 14  1  0
 14 15  1  0
 15 16  1  0
 16 17  1  0
 17 18  1  0
 18 19  1  0
 18 20  1  0
 15 21  1  0
 20 21  1  0
 13 22  1  0
 22 23  2  0
 22 24  1  0
 24 25  1  0
 25 26  2  0
 26 27  1  0
 27 28  2  0
 28 29  1  0
 25 30  1  0
 29 30  2  0
  5 31  1  0
 12 31  2  0
M  END
