JOR-UNI-61e7b1d5-6-nitrile
     RDKit          3D

 29 31  0  0  0  0  0  0  0  0999 V2000
    7.9780   -3.4570   19.8510 C   0  0  0  0  0  0  0  0  0  0  0  0
    7.7550   -2.9170   18.6450 N   0  0  0  0  0  0  0  0  0  0  0  0
    9.1840   -2.9640   20.8060 C   0  0  0  0  0  0  0  0  0  0  0  0
    9.9060   -2.3230   21.7570 C   0  0  0  0  0  0  0  0  0  0  0  0
   10.8180   -1.8830   22.5350 N   0  0  0  0  0  0  0  0  0  0  0  0
   10.2580   -0.9590   23.4580 C   0  0  0  0  0  0  0  0  0  0  0  0
    9.4140   -0.0980   24.2270 N   0  0  0  0  0  0  0  0  0  0  0  0
    9.4760   -0.4140   25.6730 C   0  0  0  0  0  0  0  0  0  0  0  0
    8.5540    0.4080   26.4630 C   0  0  0  0  0  0  0  0  0  0  0  0
    8.9460   -1.2120   22.7470 C   0  0  0  0  0  0  0  0  0  0  0  0
    7.9360   -0.5140   23.2120 N   0  0  0  0  0  0  0  0  0  0  0  0
    6.9720   -1.0080   24.0870 C   0  0  0  0  0  0  0  0  0  0  0  0
    6.6540   -2.3360   23.7900 N   0  0  0  0  0  0  0  0  0  0  0  0
    5.3830   -2.9230   23.5740 C   0  0  0  0  0  0  0  0  0  0  0  0
    4.9450   -3.9070   24.6270 C   0  0  0  0  0  0  0  0  0  0  0  0
    6.0100   -4.9770   24.8890 C   0  0  0  0  0  0  0  0  0  0  0  0
    6.0840   -5.8190   23.7410 O   0  0  0  0  0  0  0  0  0  0  0  0
    7.3610   -4.3150   25.1880 C   0  0  0  0  0  0  0  0  0  0  0  0
    7.7460   -3.3010   24.1040 C   0  0  0  0  0  0  0  0  0  0  0  0
    7.5330    0.3880   22.1300 C   0  0  0  0  0  0  0  0  0  0  0  0
    8.1430    1.4240   21.8460 O   0  0  0  0  0  0  0  0  0  0  0  0
    6.4420   -0.0590   21.4340 N   0  0  0  0  0  0  0  0  0  0  0  0
    6.0410    0.4300   20.1950 C   0  0  0  0  0  0  0  0  0  0  0  0
    4.8860    1.2120   20.1550 C   0  0  0  0  0  0  0  0  0  0  0  0
    4.4570    1.7350   18.9430 C   0  0  0  0  0  0  0  0  0  0  0  0
    5.1800    1.4760   17.7900 C   0  0  0  0  0  0  0  0  0  0  0  0
    6.2990    0.7250   17.7520 N   0  0  0  0  0  0  0  0  0  0  0  0
    6.7290    0.2050   18.9180 C   0  0  0  0  0  0  0  0  0  0  0  0
    8.4550   -2.0610   21.6070 C   0  0  0  0  0  0  0  0  0  0  0  0
  1  2  2  3
  1  3  1  0
  3  4  2  0
  4  5  1  0
  5  6  2  0
  6  7  1  0
  7  8  1  0
  8  9  1  0
  6 10  1  0
 10 11  1  0
 11 12  1  0
 12 13  1  0
 13 14  1  0
 14 15  1  0
 15 16  1  0
 16 17  1  0
 16 18  1  0
 13 19  1  0
 18 19  1  0
 11 20  1  0
 20 21  2  0
 20 22  1  0
 22 23  1  0
 23 24  2  0
 24 25  1  0
 25 26  2  0
 26 27  1  0
 23 28  1  0
 27 28  2  0
  3 29  1  0
 10 29  2  0
M  END
