JOR-UNI-61e7b1d5-30-acrylamide
     RDKit          3D

 28 30  0  0  0  0  0  0  0  0999 V2000
    6.9480   -5.5440   20.9270 C   0  0  0  0  0  0  0  0  0  0  0  0
    7.0040   -4.7480   22.2040 C   0  0  0  0  0  0  0  0  0  0  0  0
    6.3030   -3.4460   21.9400 C   0  0  0  0  0  0  0  0  0  0  0  0
    5.0300   -3.5290   21.5310 O   0  0  0  0  0  0  0  0  0  0  0  0
    7.0660   -2.0790   22.1000 C   0  0  0  0  0  0  0  0  0  0  0  0
    7.9540   -1.1070   22.2850 C   0  0  0  0  0  0  0  0  0  0  0  0
    8.8530   -2.2300   22.4700 C   0  0  0  0  0  0  0  0  0  0  0  0
   10.0750   -1.7670   22.7080 C   0  0  0  0  0  0  0  0  0  0  0  0
    8.7530   -1.0810   22.4320 C   0  0  0  0  0  0  0  0  0  0  0  0
    9.3880    0.1790   22.5400 N   0  0  0  0  0  0  0  0  0  0  0  0
    9.7620    0.6710   23.8890 C   0  0  0  0  0  0  0  0  0  0  0  0
    9.4600   -0.3220   25.0230 C   0  0  0  0  0  0  0  0  0  0  0  0
    8.3800    0.0210   25.9630 N   0  0  0  0  0  0  0  0  0  0  0  0
    8.5160   -0.6430   27.2560 C   0  0  0  0  0  0  0  0  0  0  0  0
    7.8200   -2.0000   27.2400 C   0  0  0  0  0  0  0  0  0  0  0  0
    6.3070   -1.8430   27.0180 C   0  0  0  0  0  0  0  0  0  0  0  0
    5.9750   -0.4640   26.4350 C   0  0  0  0  0  0  0  0  0  0  0  0
    7.0280   -0.0160   25.4140 C   0  0  0  0  0  0  0  0  0  0  0  0
    8.7530    1.1280   21.7140 C   0  0  0  0  0  0  0  0  0  0  0  0
    9.2500    2.1710   21.3210 O   0  0  0  0  0  0  0  0  0  0  0  0
    7.4550    0.7260   21.4180 N   0  0  0  0  0  0  0  0  0  0  0  0
    6.7310    0.8310   20.2200 C   0  0  0  0  0  0  0  0  0  0  0  0
    5.6630    1.7260   20.2210 C   0  0  0  0  0  0  0  0  0  0  0  0
    4.9040    1.8860   19.0810 C   0  0  0  0  0  0  0  0  0  0  0  0
    5.2300    1.1470   17.9580 C   0  0  0  0  0  0  0  0  0  0  0  0
    6.2460    0.2780   17.9200 N   0  0  0  0  0  0  0  0  0  0  0  0
    6.9750    0.1290   19.0460 C   0  0  0  0  0  0  0  0  0  0  0  0
    8.3970   -2.5490   22.3820 C   0  0  0  0  0  0  0  0  0  0  0  0
  1  2  1  0
  2  3  1  0
  3  4  2  0
  3  5  1  0
  5  6  2  0
  6  7  1  0
  7  8  2  0
  8  9  1  0
  9 10  1  0
 10 11  1  0
 11 12  1  0
 12 13  1  0
 13 14  1  0
 14 15  1  0
 15 16  1  0
 16 17  1  0
 13 18  1  0
 17 18  1  0
 10 19  1  0
 19 20  2  0
 19 21  1  0
 21 22  1  0
 22 23  2  0
 23 24  1  0
 24 25  2  0
 25 26  1  0
 22 27  1  0
 26 27  2  0
  5 28  1  0
  9 28  2  0
M  END
