JOR-UNI-2fc98d0b-4
     RDKit          3D

 24 26  0  0  0  0  0  0  0  0999 V2000
    8.5790    0.8440   21.3030 O   0  0  0  0  0  0  0  0  0  0  0  0
    8.1460   -0.2410   21.6820 C   0  0  0  0  0  0  0  0  0  0  0  0
    7.0030   -0.7400   21.1220 N   0  0  0  0  0  0  0  0  0  0  0  0
    6.4250   -0.0850   20.0300 C   0  0  0  0  0  0  0  0  0  0  0  0
    5.1660    0.7410   20.2560 C   0  0  0  0  0  0  0  0  0  0  0  0
    4.5750    1.4230   19.1980 C   0  0  0  0  0  0  0  0  0  0  0  0
    5.1540    1.3340   17.9410 C   0  0  0  0  0  0  0  0  0  0  0  0
    6.2900    0.6000   17.6620 N   0  0  0  0  0  0  0  0  0  0  0  0
    6.9400   -0.1320   18.7440 C   0  0  0  0  0  0  0  0  0  0  0  0
    8.7850   -0.9890   22.6470 N   0  0  0  0  0  0  0  0  0  0  0  0
    8.0940   -1.5730   23.7240 C   0  0  0  0  0  0  0  0  0  0  0  0
    8.0670   -2.9680   23.6390 N   0  0  0  0  0  0  0  0  0  0  0  0
    8.8480   -3.6130   22.5510 C   0  0  0  0  0  0  0  0  0  0  0  0
    8.5920   -5.1270   22.5130 C   0  0  0  0  0  0  0  0  0  0  0  0
    8.4440   -5.7110   23.7200 N   0  0  0  0  0  0  0  0  0  0  0  0
    8.9270   -4.9560   24.8850 C   0  0  0  0  0  0  0  0  0  0  0  0
    8.2280   -3.5620   24.8860 C   0  0  0  0  0  0  0  0  0  0  0  0
   10.0200   -0.5720   22.8740 C   0  0  0  0  0  0  0  0  0  0  0  0
   10.3030    0.5080   23.8790 C   0  0  0  0  0  0  0  0  0  0  0  0
   11.7470    0.9160   24.0250 C   0  0  0  0  0  0  0  0  0  0  0  0
   12.6900    0.2840   23.2430 C   0  0  0  0  0  0  0  0  0  0  0  0
   12.3190   -0.7040   22.3450 C   0  0  0  0  0  0  0  0  0  0  0  0
   13.4510   -1.4590   21.3890 Cl  0  0  0  0  0  0  0  0  0  0  0  0
   11.0360   -1.1350   22.1530 C   0  0  0  0  0  0  0  0  0  0  0  0
  1  2  2  0
  2  3  1  0
  3  4  1  0
  4  5  2  0
  5  6  1  0
  6  7  2  0
  7  8  1  0
  4  9  1  0
  8  9  2  0
  2 10  1  0
 10 11  1  0
 11 12  1  0
 12 13  1  0
 13 14  1  0
 14 15  1  0
 15 16  1  0
 12 17  1  0
 16 17  1  0
 10 18  1  0
 18 19  2  0
 19 20  1  0
 20 21  2  0
 21 22  1  0
 22 23  1  0
 18 24  1  0
 22 24  2  0
M  END
