JOR-UNI-61e7b1d5-2-acrylamide
     RDKit          3D

 20 21  0  0  0  0  0  0  0  0999 V2000
    6.7540   -4.8560   20.9560 C   0  0  0  0  0  0  0  0  0  0  0  0
    6.7340   -3.6680   21.8910 C   0  0  0  0  0  0  0  0  0  0  0  0
    5.5360   -3.7180   22.8220 C   0  0  0  0  0  0  0  0  0  0  0  0
    4.3970   -4.0330   22.4360 O   0  0  0  0  0  0  0  0  0  0  0  0
    5.7680   -3.3900   24.2730 C   0  0  0  0  0  0  0  0  0  0  0  0
    6.1230   -3.4120   25.4980 C   0  0  0  0  0  0  0  0  0  0  0  0
    5.7080   -2.3730   25.9960 C   0  0  0  0  0  0  0  0  0  0  0  0
    5.2230   -2.2510   24.4920 C   0  0  0  0  0  0  0  0  0  0  0  0
    5.4480   -3.3100   23.2710 C   0  0  0  0  0  0  0  0  0  0  0  0
    4.7260   -2.0770   23.0470 N   0  0  0  0  0  0  0  0  0  0  0  0
    5.4110   -1.1250   22.2970 C   0  0  0  0  0  0  0  0  0  0  0  0
    6.0250   -0.1790   22.7670 O   0  0  0  0  0  0  0  0  0  0  0  0
    5.2980   -1.3840   20.9390 N   0  0  0  0  0  0  0  0  0  0  0  0
    5.2590   -0.4300   19.9040 C   0  0  0  0  0  0  0  0  0  0  0  0
    4.3060    0.7500   20.0350 C   0  0  0  0  0  0  0  0  0  0  0  0
    4.2410    1.7940   18.9340 C   0  0  0  0  0  0  0  0  0  0  0  0
    5.1930    1.5050   17.7840 C   0  0  0  0  0  0  0  0  0  0  0  0
    6.0220    0.4260   17.7360 N   0  0  0  0  0  0  0  0  0  0  0  0
    6.0390   -0.4870   18.7530 C   0  0  0  0  0  0  0  0  0  0  0  0
    6.2230   -4.4000   23.9650 C   0  0  0  0  0  0  0  0  0  0  0  0
  1  2  1  0
  2  3  1  0
  3  4  2  0
  3  5  1  0
  5  6  2  0
  6  7  1  0
  7  8  2  0
  8  9  1  0
  9 10  1  0
 10 11  1  0
 11 12  2  0
 11 13  1  0
 13 14  1  0
 14 15  2  0
 15 16  1  0
 16 17  2  0
 17 18  1  0
 14 19  1  0
 18 19  2  0
  5 20  1  0
  9 20  2  0
M  END
