JOR-UNI-61e7b1d5-9-nitrile
     RDKit          3D

 23 25  0  0  0  0  0  0  0  0999 V2000
    7.7510   -3.7780   20.0940 C   0  0  0  0  0  0  0  0  0  0  0  0
    6.4440   -4.1050   19.8730 N   0  0  0  0  0  0  0  0  0  0  0  0
    7.9720   -2.6170   21.6190 C   0  0  0  0  0  0  0  0  0  0  0  0
    9.1210   -2.1750   21.9720 C   0  0  0  0  0  0  0  0  0  0  0  0
    9.1100   -2.9760   21.1640 C   0  0  0  0  0  0  0  0  0  0  0  0
    7.4980   -3.3740   21.0810 C   0  0  0  0  0  0  0  0  0  0  0  0
    6.3160   -2.8160   21.8450 C   0  0  0  0  0  0  0  0  0  0  0  0
    5.0210   -3.0890   21.8690 N   0  0  0  0  0  0  0  0  0  0  0  0
    4.9610   -4.3520   22.4190 C   0  0  0  0  0  0  0  0  0  0  0  0
    6.1960   -4.7230   22.9490 C   0  0  0  0  0  0  0  0  0  0  0  0
    6.1500   -5.1620   24.2770 C   0  0  0  0  0  0  0  0  0  0  0  0
    7.3460   -5.0480   25.0530 C   0  0  0  0  0  0  0  0  0  0  0  0
    6.3590   -4.1250   25.5510 C   0  0  0  0  0  0  0  0  0  0  0  0
    4.3940   -2.0570   22.5970 C   0  0  0  0  0  0  0  0  0  0  0  0
    3.6030   -2.2940   23.5050 O   0  0  0  0  0  0  0  0  0  0  0  0
    4.7610   -0.7840   22.2420 N   0  0  0  0  0  0  0  0  0  0  0  0
    4.9780   -0.3060   20.8120 C   0  0  0  0  0  0  0  0  0  0  0  0
    4.3170    0.8850   20.4860 C   0  0  0  0  0  0  0  0  0  0  0  0
    4.4690    1.4630   19.0890 C   0  0  0  0  0  0  0  0  0  0  0  0
    5.2690    0.7900   18.1610 C   0  0  0  0  0  0  0  0  0  0  0  0
    5.9100   -0.3530   18.4620 N   0  0  0  0  0  0  0  0  0  0  0  0
    5.7600   -0.9160   19.8160 C   0  0  0  0  0  0  0  0  0  0  0  0
    7.0120   -2.1090   22.4360 C   0  0  0  0  0  0  0  0  0  0  0  0
  1  2  2  3
  1  3  1  0
  3  4  2  0
  4  5  1  0
  5  6  2  0
  6  7  1  0
  7  8  1  0
  8  9  1  0
  9 10  1  0
 10 11  1  0
 11 12  1  0
 11 13  1  0
 12 13  1  0
  8 14  1  0
 14 15  2  0
 14 16  1  0
 16 17  1  0
 17 18  2  0
 18 19  1  0
 19 20  2  0
 20 21  1  0
 17 22  1  0
 21 22  2  0
  3 23  1  0
  7 23  2  0
M  END
