JUA-UNI-a9dfaed1-4-acrylamide
     RDKit          3D

 26 28  0  0  0  0  0  0  0  0999 V2000
    6.6810   -4.9800   21.0030 C   0  0  0  0  0  0  0  0  0  0  0  0
    6.5950   -4.1820   22.2920 C   0  0  0  0  0  0  0  0  0  0  0  0
    5.4820   -3.1750   22.2310 C   0  0  0  0  0  0  0  0  0  0  0  0
    4.3130   -3.5290   22.3220 O   0  0  0  0  0  0  0  0  0  0  0  0
    5.8680   -1.8430   22.0550 N   0  0  0  0  0  0  0  0  0  0  0  0
    7.1620   -1.6320   21.3950 C   0  0  0  0  0  0  0  0  0  0  0  0
    7.8010   -0.4520   21.7720 C   0  0  0  0  0  0  0  0  0  0  0  0
    7.6850    0.5960   21.1380 O   0  0  0  0  0  0  0  0  0  0  0  0
    8.5540   -0.6780   22.9300 N   0  0  0  0  0  0  0  0  0  0  0  0
    8.7440    0.3430   23.8800 C   0  0  0  0  0  0  0  0  0  0  0  0
    9.7290    1.3670   23.4910 C   0  0  0  0  0  0  0  0  0  0  0  0
    9.1650    2.6000   23.0330 C   0  0  0  0  0  0  0  0  0  0  0  0
   10.3470    3.3760   22.7150 C   0  0  0  0  0  0  0  0  0  0  0  0
   11.8280    3.1120   22.7810 C   0  0  0  0  0  0  0  0  0  0  0  0
   12.2230    1.7970   23.2730 C   0  0  0  0  0  0  0  0  0  0  0  0
   11.0730    0.9400   23.6310 C   0  0  0  0  0  0  0  0  0  0  0  0
    9.5250   -1.7840   22.9510 C   0  0  0  0  0  0  0  0  0  0  0  0
   10.7400   -1.4530   22.3560 C   0  0  2  0  0  0  0  0  0  0  0  0
   10.3460   -0.6700   21.5070 O   0  0  0  0  0  0  0  0  0  0  0  0
   11.5550   -2.5470   21.7120 C   0  0  0  0  0  0  0  0  0  0  0  0
   12.7760   -2.4900   22.3470 N   0  0  0  0  0  0  0  0  0  0  0  0
   13.0740   -2.2290   23.7140 C   0  0  0  0  0  0  0  0  0  0  0  0
   12.0990   -1.4170   24.2850 C   0  0  0  0  0  0  0  0  0  0  0  0
   11.6310   -0.6570   23.2370 C   0  0  0  0  0  0  0  0  0  0  0  0
   12.7880   -0.3190   22.5460 C   0  0  0  0  0  0  0  0  0  0  0  0
   13.1600   -1.3910   21.7330 C   0  0  0  0  0  0  0  0  0  0  0  0
  1  2  1  0
  2  3  1  0
  3  4  2  0
  3  5  1  0
  5  6  1  0
  6  7  1  0
  7  8  2  0
  7  9  1  0
  9 10  1  0
 10 11  1  0
 11 12  2  0
 12 13  1  0
 13 14  2  0
 14 15  1  0
 11 16  1  0
 15 16  2  0
  9 17  1  0
 17 18  1  0
 18 19  1  6
 18 20  1  0
 20 21  1  0
 21 22  1  0
 22 23  1  0
 18 24  1  0
 23 24  1  0
 24 25  1  0
 21 26  1  0
 25 26  1  0
M  END
