JUA-UNI-a9dfaed1-6-acrylamide
     RDKit          3D

 21 21  0  0  0  0  0  0  0  0999 V2000
    6.5060   -4.7780   20.6180 C   0  0  0  0  0  0  0  0  0  0  0  0
    6.5260   -3.2490   20.5390 C   0  0  0  0  0  0  0  0  0  0  0  0
    5.8270   -2.5930   21.7260 C   0  0  0  0  0  0  0  0  0  0  0  0
    4.9930   -3.5090   21.5190 O   0  0  0  0  0  0  0  0  0  0  0  0
    6.9620   -1.7510   21.6190 N   0  0  0  0  0  0  0  0  0  0  0  0
    7.9990   -1.8010   22.6830 C   0  0  2  0  0  0  0  0  0  0  0  0
    8.2250   -0.5870   23.3670 C   0  0  0  0  0  0  0  0  0  0  0  0
    9.6140   -0.1050   23.4530 C   0  0  0  0  0  0  0  0  0  0  0  0
   10.0120    1.1270   22.8720 C   0  0  0  0  0  0  0  0  0  0  0  0
   11.3050    1.4340   23.0110 C   0  0  0  0  0  0  0  0  0  0  0  0
   12.2350    0.6260   23.6710 C   0  0  0  0  0  0  0  0  0  0  0  0
   12.0910   -0.7420   24.3940 C   0  0  0  0  0  0  0  0  0  0  0  0
   10.5520   -0.8950   24.1190 C   0  0  0  0  0  0  0  0  0  0  0  0
    9.3420   -2.2520   22.0510 C   0  0  0  0  0  0  0  0  0  0  0  0
    9.3410   -2.9740   21.0960 O   0  0  0  0  0  0  0  0  0  0  0  0
   10.5150   -1.8370   22.5940 N   0  0  0  0  0  0  0  0  0  0  0  0
   11.7600   -1.6390   21.8330 C   0  0  0  0  0  0  0  0  0  0  0  0
   12.7970   -2.5800   21.8090 C   0  0  0  0  0  0  0  0  0  0  0  0
   12.6200   -3.6910   20.9730 N   0  0  0  0  0  0  0  0  0  0  0  0
   11.4130   -4.2100   20.4820 C   0  0  0  0  0  0  0  0  0  0  0  0
   13.8340   -4.2000   20.5220 C   0  0  0  0  0  0  0  0  0  0  0  0
  1  2  1  0
  2  3  1  0
  3  4  2  0
  3  5  1  0
  5  6  1  0
  6  7  1  6
  7  8  1  0
  8  9  2  0
  9 10  1  0
 10 11  2  0
 11 12  1  0
  8 13  1  0
 12 13  2  0
  6 14  1  0
 14 15  2  0
 14 16  1  0
 16 17  1  0
 17 18  1  0
 18 19  1  0
 19 20  1  0
 19 21  1  0
M  END
