JUA-UNI-a9dfaed1-2-nitrile
     RDKit          3D

 18 18  0  0  0  0  0  0  0  0999 V2000
    7.2190   -3.7030   20.0840 C   0  0  0  0  0  0  0  0  0  0  0  0
    6.0420   -3.7910   19.5390 N   0  0  0  0  0  0  0  0  0  0  0  0
    7.4010   -3.7530   21.4690 N   0  0  0  0  0  0  0  0  0  0  0  0
    8.0650   -2.7430   22.3810 C   0  0  0  0  0  0  0  0  0  0  0  0
    7.8490   -1.3980   22.0370 C   0  0  0  0  0  0  0  0  0  0  0  0
    9.1970   -1.5320   21.7740 C   0  0  0  0  0  0  0  0  0  0  0  0
    9.5940   -2.7750   22.0890 C   0  0  0  0  0  0  0  0  0  0  0  0
    8.5060   -3.6020   22.5990 C   0  0  0  0  0  0  0  0  0  0  0  0
    7.1120   -3.0130   22.7180 C   0  0  0  0  0  0  0  0  0  0  0  0
    6.5430   -1.7210   22.4360 C   0  0  0  0  0  0  0  0  0  0  0  0
    6.4170    0.0060   21.9270 S   0  0  0  0  0  0  0  0  0  0  0  0
    5.7650    0.7070   23.0180 O   0  0  0  0  0  0  0  0  0  0  0  0
    7.7130    0.4390   21.4450 O   0  0  0  0  0  0  0  0  0  0  0  0
    5.3240    0.0450   20.6690 N   0  0  0  0  0  0  0  0  0  0  0  0
    5.5970    0.1630   19.3200 C   0  0  0  0  0  0  0  0  0  0  0  0
    7.0020    0.4610   18.8910 C   0  0  0  0  0  0  0  0  0  0  0  0
    6.3350   -1.0010   18.7110 C   0  0  0  0  0  0  0  0  0  0  0  0
    4.5260    0.7970   18.4220 C   0  0  0  0  0  0  0  0  0  0  0  0
  1  2  2  3
  1  3  1  0
  3  4  1  0
  4  5  1  0
  5  6  2  0
  6  7  1  0
  7  8  2  0
  8  9  1  0
  5 10  1  0
  9 10  2  0
 10 11  1  0
 11 12  2  0
 11 13  2  0
 11 14  1  0
 15 14  1  0
 15 16  1  0
 15 17  1  0
 15 18  1  0
M  END
