JUA-UNI-a9dfaed1-2-vinylsulfonamide
     RDKit          3D

 21 21  0  0  0  0  0  0  0  0999 V2000
    6.2590   -5.2580   20.1040 C   0  0  0  0  0  0  0  0  0  0  0  0
    6.3560   -5.2950   21.6050 C   0  0  0  0  0  0  0  0  0  0  0  0
    5.7660   -3.7270   22.1480 S   0  0  0  0  0  0  0  0  0  0  0  0
    4.3580   -3.9280   22.4530 O   0  0  0  0  0  0  0  0  0  0  0  0
    6.0630   -2.7220   21.1700 O   0  0  0  0  0  0  0  0  0  0  0  0
    6.8640   -3.4400   23.4500 N   0  0  0  0  0  0  0  0  0  0  0  0
    7.8970   -2.3860   23.1620 C   0  0  0  0  0  0  0  0  0  0  0  0
    9.4070   -2.7890   23.3680 C   0  0  0  0  0  0  0  0  0  0  0  0
   10.6480   -2.6240   23.3880 C   0  0  0  0  0  0  0  0  0  0  0  0
   10.3260   -1.5440   23.0410 C   0  0  0  0  0  0  0  0  0  0  0  0
   11.4940   -1.4220   23.0810 C   0  0  0  0  0  0  0  0  0  0  0  0
   11.4780   -0.3580   22.7550 C   0  0  0  0  0  0  0  0  0  0  0  0
    9.9630   -1.2030   22.9140 C   0  0  0  0  0  0  0  0  0  0  0  0
    8.7590   -0.0480   22.4730 S   0  0  0  0  0  0  0  0  0  0  0  0
    9.4190    0.9390   21.6540 O   0  0  0  0  0  0  0  0  0  0  0  0
    8.0690    0.3560   23.6740 O   0  0  0  0  0  0  0  0  0  0  0  0
    7.7510   -0.9460   21.4450 N   0  0  0  0  0  0  0  0  0  0  0  0
    6.9890   -0.2920   20.3570 C   0  0  0  0  0  0  0  0  0  0  0  0
    7.1640   -0.8690   19.0140 C   0  0  0  0  0  0  0  0  0  0  0  0
    7.1800    1.0890   20.4640 C   0  0  0  0  0  0  0  0  0  0  0  0
    5.4970   -0.5430   20.6920 C   0  0  0  0  0  0  0  0  0  0  0  0
  1  2  1  0
  2  3  1  0
  3  4  2  0
  3  5  2  0
  3  6  1  0
  6  7  1  0
  7  8  1  0
  8  9  2  0
  9 10  1  0
 10 11  2  0
 11 12  1  0
  8 13  1  0
 12 13  2  0
 13 14  1  0
 14 15  2  0
 14 16  2  0
 14 17  1  0
 18 17  1  0
 18 19  1  0
 18 20  1  0
 18 21  1  0
M  END
