JUA-UNI-a9dfaed1-7-chloroacetamide
     RDKit          3D

 27 29  0  0  0  0  0  0  0  0999 V2000
    7.4370   -4.5520   20.8300 C   0  0  0  0  0  0  0  0  0  0  0  0
    7.4450   -3.2930   20.0730 C   0  0  0  0  0  0  0  0  0  0  0  0
    6.5630   -3.1280   19.1630 O   0  0  0  0  0  0  0  0  0  0  0  0
    8.5550   -2.3890   20.3160 N   0  0  0  0  0  0  0  0  0  0  0  0
    9.2850   -2.1080   21.5920 C   0  0  0  0  0  0  0  0  0  0  0  0
   10.7130   -2.0970   21.7120 C   0  0  0  0  0  0  0  0  0  0  0  0
   11.4110   -1.7990   22.8740 C   0  0  0  0  0  0  0  0  0  0  0  0
   10.6300   -1.4840   24.0410 C   0  0  0  0  0  0  0  0  0  0  0  0
   11.2010   -1.2020   25.0970 O   0  0  0  0  0  0  0  0  0  0  0  0
    9.1680   -1.5220   23.8860 C   0  0  0  0  0  0  0  0  0  0  0  0
    8.1630   -1.2870   24.7770 C   0  0  0  0  0  0  0  0  0  0  0  0
    8.4030   -0.6870   25.8090 O   0  0  0  0  0  0  0  0  0  0  0  0
    6.9370   -1.7230   24.4370 N   0  0  0  0  0  0  0  0  0  0  0  0
    6.4110   -1.1020   23.3660 C   0  0  0  0  0  0  0  0  0  0  0  0
    6.9440    0.3010   23.2760 C   0  0  2  0  0  0  0  0  0  0  0  0
    6.8110    0.8460   24.6020 O   0  0  0  0  0  0  0  0  0  0  0  0
    5.9150    1.0730   22.4910 C   0  0  0  0  0  0  0  0  0  0  0  0
    4.8210    1.7750   23.2710 C   0  0  0  0  0  0  0  0  0  0  0  0
    3.9120    2.4790   22.2680 C   0  0  0  0  0  0  0  0  0  0  0  0
    4.1720    2.4020   20.8910 C   0  0  0  0  0  0  0  0  0  0  0  0
    3.2520    3.1150   19.9400 C   0  0  0  0  0  0  0  0  0  0  0  0
    3.5170    3.0400   18.5790 C   0  0  0  0  0  0  0  0  0  0  0  0
    4.6140    2.3110   18.0970 C   0  0  0  0  0  0  0  0  0  0  0  0
    5.4650    1.6470   18.9610 C   0  0  0  0  0  0  0  0  0  0  0  0
    5.2570    1.6890   20.3260 C   0  0  0  0  0  0  0  0  0  0  0  0
    6.1320    1.0210   21.1570 C   0  0  0  0  0  0  0  0  0  0  0  0
    8.5270   -1.8280   22.6850 C   0  0  0  0  0  0  0  0  0  0  0  0
  1  2  1  0
  2  3  2  0
  2  4  1  0
  4  5  1  0
  5  6  2  0
  6  7  1  0
  7  8  2  0
  8  9  1  0
  8 10  1  0
 10 11  1  0
 11 12  2  0
 11 13  1  0
 13 14  1  0
 14 15  1  0
 15 16  1  1
 15 17  1  0
 17 18  2  0
 18 19  1  0
 19 20  2  0
 20 21  1  0
 21 22  2  0
 22 23  1  0
 23 24  2  0
 20 25  1  0
 24 25  1  0
 17 26  1  0
 25 26  2  0
  5 27  1  0
 10 27  2  0
M  END
