JUA-UNI-b93289a4-6
     RDKit          3D

 21 21  0  0  0  0  0  0  0  0999 V2000
    5.9960    0.4720   18.3560 C   0  0  0  0  0  0  0  0  0  0  0  0
    6.4160   -0.6170   19.0180 C   0  0  0  0  0  0  0  0  0  0  0  0
    7.3990   -0.3640   20.1390 C   0  0  0  0  0  0  0  0  0  0  0  0
    7.5820    0.7470   20.6380 O   0  0  0  0  0  0  0  0  0  0  0  0
    8.0490   -1.6220   20.4880 N   0  0  0  0  0  0  0  0  0  0  0  0
    8.1130   -2.0400   21.8180 C   0  0  2  0  0  0  0  0  0  0  0  0
    8.7130   -1.2780   22.8300 C   0  0  0  0  0  0  0  0  0  0  0  0
   10.0720   -0.8920   22.8560 C   0  0  0  0  0  0  0  0  0  0  0  0
   10.4800    0.1210   23.6740 C   0  0  0  0  0  0  0  0  0  0  0  0
   11.7790    0.5780   23.7660 C   0  0  0  0  0  0  0  0  0  0  0  0
   12.8210    0.0260   23.0170 C   0  0  0  0  0  0  0  0  0  0  0  0
   12.5560   -1.0220   22.1380 C   0  0  0  0  0  0  0  0  0  0  0  0
   11.0790   -1.4600   22.0930 C   0  0  0  0  0  0  0  0  0  0  0  0
    8.5200   -3.5160   21.8920 C   0  0  0  0  0  0  0  0  0  0  0  0
    9.6800   -3.9140   22.0160 O   0  0  0  0  0  0  0  0  0  0  0  0
    7.5380   -4.3970   21.8350 N   0  0  0  0  0  0  0  0  0  0  0  0
    6.4410   -5.3820   21.8210 C   0  0  0  0  0  0  0  0  0  0  0  0
    6.5880   -6.2870   22.8560 C   0  0  0  0  0  0  0  0  0  0  0  0
    7.5580   -5.8380   23.7320 N   0  0  0  0  0  0  0  0  0  0  0  0
    8.9060   -5.8850   23.4060 C   0  0  0  0  0  0  0  0  0  0  0  0
    7.1860   -4.5210   24.2700 C   0  0  0  0  0  0  0  0  0  0  0  0
  1  2  1  0
  2  3  1  0
  3  4  2  0
  3  5  1  0
  5  6  1  0
  6  7  1  1
  7  8  1  0
  8  9  2  0
  9 10  1  0
 10 11  2  0
 11 12  1  0
  8 13  1  0
 12 13  2  0
  6 14  1  0
 14 15  2  0
 14 16  1  0
 16 17  1  0
 17 18  1  0
 18 19  1  0
 19 20  1  0
 19 21  1  0
M  END
