JUA-UNI-a9dfaed1-1-chloroacetamide
     RDKit          3D

 22 23  0  0  0  0  0  0  0  0999 V2000
    7.7620   -3.0150   18.7390 C   0  0  0  0  0  0  0  0  0  0  0  0
    6.4020   -2.9560   19.4270 C   0  0  0  0  0  0  0  0  0  0  0  0
    5.5870   -3.8730   19.5970 O   0  0  0  0  0  0  0  0  0  0  0  0
    6.1280   -1.6410   19.8690 N   0  0  0  0  0  0  0  0  0  0  0  0
    7.1100   -0.9880   20.7400 C   0  0  0  0  0  0  0  0  0  0  0  0
    7.5450   -2.2060   21.5240 C   0  0  0  0  0  0  0  0  0  0  0  0
    7.0310   -3.2650   21.1970 O   0  0  0  0  0  0  0  0  0  0  0  0
    8.4820   -2.1230   22.6270 N   0  0  0  0  0  0  0  0  0  0  0  0
    8.9260   -0.9390   23.1410 C   0  0  0  0  0  0  0  0  0  0  0  0
   10.2760   -0.7750   22.9260 C   0  0  0  0  0  0  0  0  0  0  0  0
   10.7120    0.3490   23.6190 C   0  0  0  0  0  0  0  0  0  0  0  0
   12.0240    0.8090   23.6220 C   0  0  0  0  0  0  0  0  0  0  0  0
   12.9830    0.0660   22.8630 C   0  0  0  0  0  0  0  0  0  0  0  0
   12.4820   -1.1670   22.1150 C   0  0  0  0  0  0  0  0  0  0  0  0
   11.0880   -1.5660   22.1670 C   0  0  0  0  0  0  0  0  0  0  0  0
   10.6770   -2.5380   21.5750 O   0  0  0  0  0  0  0  0  0  0  0  0
    8.3570   -3.2280   23.5350 C   0  0  0  0  0  0  0  0  0  0  0  0
    9.4490   -4.1600   23.3450 C   0  0  2  0  0  0  0  0  0  0  0  0
    9.0430   -5.3080   22.5620 C   0  0  0  0  0  0  0  0  0  0  0  0
    8.9380   -6.4460   23.4780 C   0  0  0  0  0  0  0  0  0  0  0  0
    9.1620   -5.9170   24.8880 C   0  0  0  0  0  0  0  0  0  0  0  0
    9.7980   -4.6520   24.6670 O   0  0  0  0  0  0  0  0  0  0  0  0
  1  2  1  0
  2  3  2  0
  2  4  1  0
  4  5  1  0
  5  6  1  0
  6  7  2  0
  6  8  1  0
  8  9  1  0
  9 10  1  0
 10 11  2  0
 11 12  1  0
 12 13  2  0
 13 14  1  0
 10 15  1  0
 14 15  2  0
 15 16  1  0
  8 17  1  0
 18 17  1  1
 18 19  1  0
 19 20  1  0
 20 21  1  0
 18 22  1  0
 21 22  1  0
M  END
