JUA-UNI-b93289a4-4
     RDKit          3D

 26 28  0  0  0  0  0  0  0  0999 V2000
    6.0480   -0.8300   18.4160 C   0  0  0  0  0  0  0  0  0  0  0  0
    5.4140   -1.2640   19.5070 C   0  0  0  0  0  0  0  0  0  0  0  0
    5.5970   -2.7390   19.7790 C   0  0  0  0  0  0  0  0  0  0  0  0
    4.9700   -3.6400   19.2430 O   0  0  0  0  0  0  0  0  0  0  0  0
    6.6520   -2.8710   20.7450 N   0  0  0  0  0  0  0  0  0  0  0  0
    7.8310   -2.2050   20.4720 C   0  0  0  0  0  0  0  0  0  0  0  0
    8.1310   -0.9840   21.0530 C   0  0  0  0  0  0  0  0  0  0  0  0
    7.6810    0.0540   20.5840 O   0  0  0  0  0  0  0  0  0  0  0  0
    8.9200   -1.0030   22.1460 N   0  0  0  0  0  0  0  0  0  0  0  0
    8.6710    0.0600   22.9720 C   0  0  0  0  0  0  0  0  0  0  0  0
    9.8240    0.8390   22.9930 C   0  0  0  0  0  0  0  0  0  0  0  0
    9.8060    2.1640   23.3730 C   0  0  0  0  0  0  0  0  0  0  0  0
   10.9570    2.9880   23.4030 C   0  0  0  0  0  0  0  0  0  0  0  0
   12.2360    2.5200   23.0480 C   0  0  0  0  0  0  0  0  0  0  0  0
   12.3140    1.0720   22.6290 C   0  0  0  0  0  0  0  0  0  0  0  0
   11.0210    0.2830   22.6250 C   0  0  0  0  0  0  0  0  0  0  0  0
    9.5840   -2.2000   22.6790 C   0  0  0  0  0  0  0  0  0  0  0  0
   10.6350   -1.8670   23.5150 C   0  0  1  0  0  0  0  0  0  0  0  0
   10.0720   -1.2590   24.4240 O   0  0  0  0  0  0  0  0  0  0  0  0
   11.3690   -2.8630   24.1070 C   0  0  0  0  0  0  0  0  0  0  0  0
   12.4430   -2.4790   24.6970 N   0  0  0  0  0  0  0  0  0  0  0  0
   12.2880   -1.0830   25.0950 C   0  0  0  0  0  0  0  0  0  0  0  0
   12.1740   -0.2210   24.0290 C   0  0  0  0  0  0  0  0  0  0  0  0
   11.7440   -0.9400   22.9230 C   0  0  0  0  0  0  0  0  0  0  0  0
   12.7250   -1.8300   22.4980 C   0  0  0  0  0  0  0  0  0  0  0  0
   13.3930   -2.3540   23.6010 C   0  0  0  0  0  0  0  0  0  0  0  0
  1  2  1  0
  2  3  1  0
  3  4  2  0
  3  5  1  0
  5  6  1  0
  6  7  1  0
  7  8  2  0
  7  9  1  0
  9 10  1  0
 10 11  1  0
 11 12  2  0
 12 13  1  0
 13 14  2  0
 14 15  1  0
 11 16  1  0
 15 16  2  0
  9 17  1  0
 17 18  1  0
 18 19  1  1
 18 20  1  0
 20 21  1  0
 21 22  1  0
 22 23  1  0
 18 24  1  0
 23 24  1  0
 24 25  1  0
 21 26  1  0
 25 26  1  0
M  END
