JUA-UNI-a9dfaed1-1-chloroacetamide
     RDKit          3D

 22 23  0  0  0  0  0  0  0  0999 V2000
    6.8890   -3.9530   20.1800 C   0  0  0  0  0  0  0  0  0  0  0  0
    5.7730   -3.0240   19.7460 C   0  0  0  0  0  0  0  0  0  0  0  0
    4.9460   -3.3590   18.9200 O   0  0  0  0  0  0  0  0  0  0  0  0
    5.6910   -1.7130   20.3190 N   0  0  0  0  0  0  0  0  0  0  0  0
    6.4720   -1.4070   21.5130 C   0  0  0  0  0  0  0  0  0  0  0  0
    7.7910   -1.6790   21.2600 C   0  0  0  0  0  0  0  0  0  0  0  0
    8.2290   -1.2940   20.1860 O   0  0  0  0  0  0  0  0  0  0  0  0
    8.5080   -2.3550   22.2240 N   0  0  0  0  0  0  0  0  0  0  0  0
    8.9090   -1.4770   23.3170 C   0  0  0  0  0  0  0  0  0  0  0  0
   10.2800   -1.0060   23.1430 C   0  0  0  0  0  0  0  0  0  0  0  0
   10.7540    0.1230   23.9030 C   0  0  0  0  0  0  0  0  0  0  0  0
   12.0300    0.6030   23.7820 C   0  0  0  0  0  0  0  0  0  0  0  0
   12.9360    0.0080   22.9210 C   0  0  0  0  0  0  0  0  0  0  0  0
   12.5770   -1.1770   22.0790 C   0  0  0  0  0  0  0  0  0  0  0  0
   11.1290   -1.6520   22.2500 C   0  0  0  0  0  0  0  0  0  0  0  0
   10.6180   -2.6840   21.5680 O   0  0  0  0  0  0  0  0  0  0  0  0
    8.1790   -3.6790   22.6540 C   0  0  0  0  0  0  0  0  0  0  0  0
    7.0900   -3.8320   23.7280 C   0  0  2  0  0  0  0  0  0  0  0  0
    7.0180   -5.0290   24.4180 C   0  0  0  0  0  0  0  0  0  0  0  0
    5.8920   -5.7570   23.7960 C   0  0  0  0  0  0  0  0  0  0  0  0
    5.3910   -4.8260   22.8900 C   0  0  0  0  0  0  0  0  0  0  0  0
    5.9560   -3.7260   23.1900 O   0  0  0  0  0  0  0  0  0  0  0  0
  1  2  1  0
  2  3  2  0
  2  4  1  0
  4  5  1  0
  5  6  1  0
  6  7  2  0
  6  8  1  0
  8  9  1  0
  9 10  1  0
 10 11  2  0
 11 12  1  0
 12 13  2  0
 13 14  1  0
 10 15  1  0
 14 15  2  0
 15 16  1  0
  8 17  1  0
 18 17  1  6
 18 19  1  0
 19 20  1  0
 20 21  1  0
 18 22  1  0
 21 22  1  0
M  END
