JUA-UNI-a9dfaed1-3-vinylsulfonamide
     RDKit          3D

 18 18  0  0  0  0  0  0  0  0999 V2000
    6.3320   -5.2010   20.1680 C   0  0  0  0  0  0  0  0  0  0  0  0
    6.3410   -4.9440   21.6410 C   0  0  0  0  0  0  0  0  0  0  0  0
    5.5560   -3.3820   21.7930 S   0  0  0  0  0  0  0  0  0  0  0  0
    4.2810   -3.6760   22.4160 O   0  0  0  0  0  0  0  0  0  0  0  0
    5.4740   -2.7500   20.4920 O   0  0  0  0  0  0  0  0  0  0  0  0
    6.6730   -2.4630   22.7350 N   0  0  0  0  0  0  0  0  0  0  0  0
    7.8100   -3.0940   23.4410 C   0  0  0  0  0  0  0  0  0  0  0  0
    9.1640   -2.6880   23.1470 C   0  0  0  0  0  0  0  0  0  0  0  0
   10.4590   -1.6720   22.8430 C   0  0  0  0  0  0  0  0  0  0  0  0
   11.9950   -1.8630   22.5420 C   0  0  0  0  0  0  0  0  0  0  0  0
   11.0100   -2.5260   22.7710 C   0  0  0  0  0  0  0  0  0  0  0  0
   10.0460   -1.4240   22.9170 C   0  0  0  0  0  0  0  0  0  0  0  0
    8.8330   -1.5160   23.1650 C   0  0  0  0  0  0  0  0  0  0  0  0
    7.6330   -0.3480   23.3550 S   0  0  0  0  0  0  0  0  0  0  0  0
    8.2590    0.8850   23.7850 O   0  0  0  0  0  0  0  0  0  0  0  0
    6.5680   -0.9440   24.1360 O   0  0  0  0  0  0  0  0  0  0  0  0
    7.0580   -0.1430   21.7940 N   0  0  0  0  0  0  0  0  0  0  0  0
    7.6350   -0.7120   20.6320 C   0  0  0  0  0  0  0  0  0  0  0  0
  1  2  1  0
  2  3  1  0
  3  4  2  0
  3  5  2  0
  3  6  1  0
  6  7  1  0
  7  8  1  0
  8  9  2  0
  9 10  1  0
 10 11  2  0
 11 12  1  0
  8 13  1  0
 12 13  2  0
 13 14  1  0
 14 15  2  0
 14 16  2  0
 14 17  1  0
 17 18  1  0
M  END
