JUA-UNI-a9dfaed1-6-nitrile
     RDKit          3D

 19 19  0  0  0  0  0  0  0  0999 V2000
    7.1700   -3.5840   20.3580 C   0  0  0  0  0  0  0  0  0  0  0  0
    6.0960   -3.7810   19.6280 N   0  0  0  0  0  0  0  0  0  0  0  0
    7.4760   -2.3300   20.9090 N   0  0  0  0  0  0  0  0  0  0  0  0
    8.2700   -2.1340   22.1470 C   0  0  2  0  0  0  0  0  0  0  0  0
    7.8860   -1.0970   22.9950 C   0  0  0  0  0  0  0  0  0  0  0  0
    9.0740   -0.4220   23.3430 C   0  0  0  0  0  0  0  0  0  0  0  0
   10.1500   -1.1490   23.9070 C   0  0  0  0  0  0  0  0  0  0  0  0
   11.4230   -0.5160   24.2490 C   0  0  0  0  0  0  0  0  0  0  0  0
   11.5130    0.9110   23.9780 C   0  0  0  0  0  0  0  0  0  0  0  0
   10.4590    1.6040   23.4440 C   0  0  0  0  0  0  0  0  0  0  0  0
    9.2470    0.9670   23.1250 C   0  0  0  0  0  0  0  0  0  0  0  0
    9.6950   -1.6730   21.7930 C   0  0  0  0  0  0  0  0  0  0  0  0
    9.9680   -0.3340   21.3870 O   0  0  0  0  0  0  0  0  0  0  0  0
   10.6470   -2.6020   21.9280 N   0  0  0  0  0  0  0  0  0  0  0  0
   11.9850   -2.0450   22.1680 C   0  0  0  0  0  0  0  0  0  0  0  0
   12.8800   -2.5280   21.0510 C   0  0  0  0  0  0  0  0  0  0  0  0
   13.0870   -3.8960   20.9240 N   0  0  0  0  0  0  0  0  0  0  0  0
   14.2820   -4.5180   20.5200 C   0  0  0  0  0  0  0  0  0  0  0  0
   11.9860   -4.5110   20.1800 C   0  0  0  0  0  0  0  0  0  0  0  0
  1  2  2  3
  1  3  1  0
  3  4  1  0
  4  5  1  1
  5  6  1  0
  6  7  2  0
  7  8  1  0
  8  9  2  0
  9 10  1  0
  6 11  1  0
 10 11  2  0
  4 12  1  0
 12 13  2  0
 12 14  1  0
 14 15  1  0
 15 16  1  0
 16 17  1  0
 17 18  1  0
 17 19  1  0
M  END
