JUA-UNI-a9dfaed1-1-vinylsulfonamide
     RDKit          3D

 24 25  0  0  0  0  0  0  0  0999 V2000
    6.9620   -4.9960   20.5790 C   0  0  0  0  0  0  0  0  0  0  0  0
    7.0450   -3.5230   20.9350 C   0  0  0  0  0  0  0  0  0  0  0  0
    5.3780   -3.0400   20.8360 S   0  0  0  0  0  0  0  0  0  0  0  0
    4.7380   -3.6330   21.9880 O   0  0  0  0  0  0  0  0  0  0  0  0
    4.9450   -3.4400   19.4990 O   0  0  0  0  0  0  0  0  0  0  0  0
    5.2930   -1.3430   21.0320 N   0  0  0  0  0  0  0  0  0  0  0  0
    6.3890   -0.7020   21.7390 C   0  0  0  0  0  0  0  0  0  0  0  0
    7.5530   -0.6330   20.9660 C   0  0  0  0  0  0  0  0  0  0  0  0
    7.4720   -0.7430   19.7390 O   0  0  0  0  0  0  0  0  0  0  0  0
    8.7180   -0.4360   21.6390 N   0  0  0  0  0  0  0  0  0  0  0  0
    8.6140    0.7350   22.5550 C   0  0  0  0  0  0  0  0  0  0  0  0
    9.8530    1.5250   22.6120 C   0  0  0  0  0  0  0  0  0  0  0  0
    9.9270    2.9530   22.2660 C   0  0  0  0  0  0  0  0  0  0  0  0
   11.1000    3.6840   22.3140 C   0  0  0  0  0  0  0  0  0  0  0  0
   12.2920    3.0840   22.6970 C   0  0  0  0  0  0  0  0  0  0  0  0
   12.3310    1.6360   23.0720 C   0  0  0  0  0  0  0  0  0  0  0  0
   11.0110    0.8680   23.0160 C   0  0  0  0  0  0  0  0  0  0  0  0
   10.9220   -0.4470   23.3560 O   0  0  0  0  0  0  0  0  0  0  0  0
    9.4290   -1.5920   22.0830 C   0  0  0  0  0  0  0  0  0  0  0  0
   10.9450   -1.3470   22.1620 C   0  0  2  0  0  0  0  0  0  0  0  0
   11.8650   -2.1700   21.5370 C   0  0  0  0  0  0  0  0  0  0  0  0
   13.1500   -2.1170   22.2820 C   0  0  0  0  0  0  0  0  0  0  0  0
   12.9060   -1.4990   23.5140 C   0  0  0  0  0  0  0  0  0  0  0  0
   11.4550   -1.3750   23.5380 O   0  0  0  0  0  0  0  0  0  0  0  0
  1  2  1  0
  2  3  1  0
  3  4  2  0
  3  5  2  0
  3  6  1  0
  6  7  1  0
  7  8  1  0
  8  9  2  0
  8 10  1  0
 10 11  1  0
 11 12  1  0
 12 13  2  0
 13 14  1  0
 14 15  2  0
 15 16  1  0
 12 17  1  0
 16 17  2  0
 17 18  1  0
 10 19  1  0
 20 19  1  1
 20 21  1  0
 21 22  1  0
 22 23  1  0
 20 24  1  0
 23 24  1  0
M  END
