JUA-UNI-a9dfaed1-5-nitrile
     RDKit          3D

 27 29  0  0  0  0  0  0  0  0999 V2000
    6.3670   -4.3500   19.8670 C   0  0  0  0  0  0  0  0  0  0  0  0
    5.7610   -5.4720   20.0420 N   0  0  0  0  0  0  0  0  0  0  0  0
    6.1360   -3.2720   20.6790 N   0  0  0  0  0  0  0  0  0  0  0  0
    6.0040   -1.9310   20.1360 C   0  0  0  0  0  0  0  0  0  0  0  0
    7.2470   -1.3040   20.0180 C   0  0  0  0  0  0  0  0  0  0  0  0
    8.0900   -1.1170   21.1300 C   0  0  0  0  0  0  0  0  0  0  0  0
    8.8460   -0.0100   21.1050 O   0  0  0  0  0  0  0  0  0  0  0  0
    8.0880   -1.9400   22.3180 N   0  0  0  0  0  0  0  0  0  0  0  0
    8.6760   -1.1630   23.3710 C   0  0  0  0  0  0  0  0  0  0  0  0
   10.1110   -0.9030   23.1430 C   0  0  0  0  0  0  0  0  0  0  0  0
   10.7080    0.2080   23.8490 C   0  0  0  0  0  0  0  0  0  0  0  0
   12.0330    0.5360   23.6970 C   0  0  0  0  0  0  0  0  0  0  0  0
   12.9110   -0.1630   22.8680 C   0  0  0  0  0  0  0  0  0  0  0  0
   12.4010   -1.3460   22.0880 C   0  0  0  0  0  0  0  0  0  0  0  0
   10.9080   -1.6720   22.2830 C   0  0  0  0  0  0  0  0  0  0  0  0
    8.5060   -3.2620   22.4870 C   0  0  0  0  0  0  0  0  0  0  0  0
    7.3970   -4.1150   23.1390 C   0  0  0  0  0  0  0  0  0  0  0  0
    7.5210   -4.2750   24.6010 N   0  0  0  0  0  0  0  0  0  0  0  0
    6.4170   -5.0890   25.1460 C   0  0  0  0  0  0  0  0  0  0  0  0
    6.5420   -5.5600   26.5710 C   0  0  0  0  0  0  0  0  0  0  0  0
    5.5030   -6.3370   27.1030 C   0  0  0  0  0  0  0  0  0  0  0  0
    4.3840   -6.6600   26.3170 C   0  0  0  0  0  0  0  0  0  0  0  0
    4.2640   -6.2190   24.9850 C   0  0  0  0  0  0  0  0  0  0  0  0
    5.2780   -5.4390   24.4160 C   0  0  0  0  0  0  0  0  0  0  0  0
    5.2100   -4.9740   23.1000 C   0  0  0  0  0  0  0  0  0  0  0  0
    4.1200   -4.8230   22.5450 O   0  0  0  0  0  0  0  0  0  0  0  0
    6.3670   -4.6800   22.4720 N   0  0  0  0  0  0  0  0  0  0  0  0
  1  2  2  3
  1  3  1  0
  3  4  1  0
  4  5  1  0
  5  6  1  0
  6  7  2  0
  6  8  1  0
  8  9  1  0
  9 10  1  0
 10 11  2  0
 11 12  1  0
 12 13  2  0
 13 14  1  0
 10 15  1  0
 14 15  2  0
  8 16  1  0
 16 17  1  0
 17 18  2  0
 18 19  1  0
 19 20  2  0
 20 21  1  0
 21 22  2  0
 22 23  1  0
 19 24  1  0
 23 24  2  0
 24 25  1  0
 25 26  2  0
 17 27  1  0
 25 27  1  0
M  END
