JUA-UNI-a9dfaed1-2-vinylsulfonamide
     RDKit          3D

 21 21  0  0  0  0  0  0  0  0999 V2000
    7.1380   -5.5370   21.4980 C   0  0  0  0  0  0  0  0  0  0  0  0
    6.0830   -4.8340   22.4140 C   0  0  0  0  0  0  0  0  0  0  0  0
    5.8930   -3.0810   22.3190 S   0  0  0  0  0  0  0  0  0  0  0  0
    4.9430   -3.0820   21.0780 O   0  0  0  0  0  0  0  0  0  0  0  0
    5.1860   -2.6330   23.5150 O   0  0  0  0  0  0  0  0  0  0  0  0
    7.5780   -2.2680   22.6480 N   0  0  0  0  0  0  0  0  0  0  0  0
    8.3910   -0.9760   22.1690 C   0  0  0  0  0  0  0  0  0  0  0  0
    9.9020   -0.6210   22.4390 C   0  0  0  0  0  0  0  0  0  0  0  0
   11.3380   -0.5300   22.6120 C   0  0  0  0  0  0  0  0  0  0  0  0
   11.2900    0.8260   23.0420 C   0  0  0  0  0  0  0  0  0  0  0  0
   10.1780    0.2060   22.7300 C   0  0  0  0  0  0  0  0  0  0  0  0
    8.7720   -0.5760   22.3360 C   0  0  0  0  0  0  0  0  0  0  0  0
    9.7690   -1.6790   22.0670 C   0  0  0  0  0  0  0  0  0  0  0  0
    8.7230   -2.8450   21.5560 S   0  0  0  0  0  0  0  0  0  0  0  0
    9.3320   -3.5470   20.4050 O   0  0  0  0  0  0  0  0  0  0  0  0
    8.2860   -3.4730   22.7970 O   0  0  0  0  0  0  0  0  0  0  0  0
    7.4990   -1.8230   21.0710 N   0  0  0  0  0  0  0  0  0  0  0  0
    7.0950   -1.3060   19.8320 C   0  0  0  0  0  0  0  0  0  0  0  0
    7.3390   -2.2430   18.6560 C   0  0  0  0  0  0  0  0  0  0  0  0
    7.7110   -0.0360   19.8100 C   0  0  0  0  0  0  0  0  0  0  0  0
    5.8100   -0.8260   20.0850 C   0  0  0  0  0  0  0  0  0  0  0  0
  1  2  1  0
  2  3  1  0
  3  4  2  0
  3  5  2  0
  3  6  1  0
  6  7  1  0
  7  8  1  0
  8  9  2  0
  9 10  1  0
 10 11  2  0
 11 12  1  0
  8 13  1  0
 12 13  2  0
 13 14  1  0
 14 15  2  0
 14 16  2  0
 14 17  1  0
 18 17  1  0
 18 19  1  0
 18 20  1  0
 18 21  1  0
M  END
