JUA-UNI-b93289a4-5
     RDKit          3D

 29 31  0  0  0  0  0  0  0  0999 V2000
    6.7300    0.4580   18.5920 C   0  0  0  0  0  0  0  0  0  0  0  0
    5.4790   -0.0170   18.5400 C   0  0  0  0  0  0  0  0  0  0  0  0
    4.5990    0.3800   19.6970 C   0  0  0  0  0  0  0  0  0  0  0  0
    3.8600    1.3540   19.6660 O   0  0  0  0  0  0  0  0  0  0  0  0
    4.7640   -0.5480   20.8140 N   0  0  0  0  0  0  0  0  0  0  0  0
    5.7560   -1.5370   20.8740 C   0  0  0  0  0  0  0  0  0  0  0  0
    6.5950   -1.6850   21.9890 C   0  0  0  0  0  0  0  0  0  0  0  0
    7.6650   -0.7970   22.1370 C   0  0  0  0  0  0  0  0  0  0  0  0
    8.3710   -0.5610   21.1590 O   0  0  0  0  0  0  0  0  0  0  0  0
    7.8950   -0.1410   23.3600 N   0  0  0  0  0  0  0  0  0  0  0  0
    8.5550    1.1120   23.1490 C   0  0  0  0  0  0  0  0  0  0  0  0
    9.9440    1.0190   23.0120 C   0  0  0  0  0  0  0  0  0  0  0  0
   10.6990    2.1620   23.3420 C   0  0  0  0  0  0  0  0  0  0  0  0
   12.1180    2.1360   23.2350 C   0  0  0  0  0  0  0  0  0  0  0  0
   12.8880    0.8950   22.7800 C   0  0  0  0  0  0  0  0  0  0  0  0
   11.9790   -0.2390   22.4520 C   0  0  0  0  0  0  0  0  0  0  0  0
   10.5270   -0.1510   22.5700 C   0  0  0  0  0  0  0  0  0  0  0  0
    8.3340   -0.7300   24.5550 C   0  0  0  0  0  0  0  0  0  0  0  0
    9.5940   -1.1560   24.2400 C   0  0  0  0  0  0  0  0  0  0  0  0
    9.5780   -1.7170   23.1210 N   0  0  0  0  0  0  0  0  0  0  0  0
   10.8670   -2.1060   22.6890 C   0  0  0  0  0  0  0  0  0  0  0  0
   10.8980   -2.6090   21.4470 C   0  0  0  0  0  0  0  0  0  0  0  0
   12.0350   -3.0440   20.8700 C   0  0  0  0  0  0  0  0  0  0  0  0
   13.2010   -2.9940   21.5220 C   0  0  0  0  0  0  0  0  0  0  0  0
   13.2530   -2.4680   22.8350 C   0  0  0  0  0  0  0  0  0  0  0  0
   12.0470   -2.0200   23.4060 C   0  0  0  0  0  0  0  0  0  0  0  0
   11.9710   -1.4800   24.6840 C   0  0  0  0  0  0  0  0  0  0  0  0
   12.9450   -1.4980   25.4230 O   0  0  0  0  0  0  0  0  0  0  0  0
   10.7260   -0.9430   25.0180 N   0  0  0  0  0  0  0  0  0  0  0  0
  1  2  1  0
  2  3  1  0
  3  4  2  0
  3  5  1  0
  5  6  1  0
  6  7  1  0
  7  8  1  0
  8  9  2  0
  8 10  1  0
 10 11  1  0
 11 12  1  0
 12 13  2  0
 13 14  1  0
 14 15  2  0
 15 16  1  0
 12 17  1  0
 16 17  2  0
 10 18  1  0
 18 19  1  0
 19 20  2  0
 20 21  1  0
 21 22  2  0
 22 23  1  0
 23 24  2  0
 24 25  1  0
 21 26  1  0
 25 26  2  0
 26 27  1  0
 27 28  2  0
 19 29  1  0
 27 29  1  0
M  END
