JUA-UNI-a9dfaed1-2-chloroacetamide
     RDKit          3D

 19 19  0  0  0  0  0  0  0  0999 V2000
    8.9550   -4.0410   19.3340 C   0  0  0  0  0  0  0  0  0  0  0  0
    7.6440   -4.4770   19.7230 C   0  0  0  0  0  0  0  0  0  0  0  0
    6.5060   -4.8540   20.0600 O   0  0  0  0  0  0  0  0  0  0  0  0
    8.2530   -4.3430   21.0480 N   0  0  0  0  0  0  0  0  0  0  0  0
    8.7150   -3.0090   21.6080 C   0  0  0  0  0  0  0  0  0  0  0  0
   10.1210   -2.6590   21.5390 C   0  0  0  0  0  0  0  0  0  0  0  0
   11.5220   -2.1690   21.6030 C   0  0  0  0  0  0  0  0  0  0  0  0
   12.2280   -1.1330   22.3810 C   0  0  0  0  0  0  0  0  0  0  0  0
   11.4600   -0.3940   23.3020 C   0  0  0  0  0  0  0  0  0  0  0  0
   10.1760   -0.7210   23.3620 C   0  0  0  0  0  0  0  0  0  0  0  0
    9.5770   -1.7350   22.5740 C   0  0  0  0  0  0  0  0  0  0  0  0
    7.9350   -1.7750   23.0160 S   0  0  0  0  0  0  0  0  0  0  0  0
    7.6910   -2.9480   23.8310 O   0  0  0  0  0  0  0  0  0  0  0  0
    7.6220   -0.4680   23.5420 O   0  0  0  0  0  0  0  0  0  0  0  0
    7.0590   -1.8980   21.5700 N   0  0  0  0  0  0  0  0  0  0  0  0
    7.2550   -1.0510   20.4370 C   0  0  0  0  0  0  0  0  0  0  0  0
    7.6020   -1.8430   19.1750 C   0  0  0  0  0  0  0  0  0  0  0  0
    5.9870   -0.4470   20.3640 C   0  0  0  0  0  0  0  0  0  0  0  0
    8.0670   -0.0110   20.8480 C   0  0  0  0  0  0  0  0  0  0  0  0
  1  2  1  0
  2  3  2  0
  2  4  1  0
  4  5  1  0
  5  6  1  0
  6  7  2  0
  7  8  1  0
  8  9  2  0
  9 10  1  0
  6 11  1  0
 10 11  2  0
 11 12  1  0
 12 13  2  0
 12 14  2  0
 12 15  1  0
 16 15  1  0
 16 17  1  0
 16 18  1  0
 16 19  1  0
M  END
