JUA-UNI-a9dfaed1-5-chloroacetamide
     RDKit          3D

 28 30  0  0  0  0  0  0  0  0999 V2000
    7.2690   -3.1670   18.7970 C   0  0  0  0  0  0  0  0  0  0  0  0
    5.9000   -3.3910   19.4530 C   0  0  0  0  0  0  0  0  0  0  0  0
    5.4350   -4.4590   19.8480 O   0  0  0  0  0  0  0  0  0  0  0  0
    5.1160   -2.2170   19.5720 N   0  0  0  0  0  0  0  0  0  0  0  0
    5.8790   -1.0660   19.9740 C   0  0  0  0  0  0  0  0  0  0  0  0
    7.1410   -1.5680   20.2410 C   0  0  0  0  0  0  0  0  0  0  0  0
    7.9230   -0.9980   21.2070 C   0  0  0  0  0  0  0  0  0  0  0  0
    8.2800    0.1650   21.1280 O   0  0  0  0  0  0  0  0  0  0  0  0
    8.1920   -1.9160   22.2260 N   0  0  0  0  0  0  0  0  0  0  0  0
    8.9070   -1.5000   23.3390 C   0  0  0  0  0  0  0  0  0  0  0  0
   10.2990   -1.1000   23.1220 C   0  0  0  0  0  0  0  0  0  0  0  0
   10.7220    0.0820   23.7090 C   0  0  0  0  0  0  0  0  0  0  0  0
   11.9990    0.6330   23.6060 C   0  0  0  0  0  0  0  0  0  0  0  0
   13.0550   -0.0590   22.8120 C   0  0  0  0  0  0  0  0  0  0  0  0
   12.6510   -1.3660   22.1480 C   0  0  0  0  0  0  0  0  0  0  0  0
   11.2150   -1.8650   22.3360 C   0  0  0  0  0  0  0  0  0  0  0  0
    7.6570   -3.2960   22.2090 C   0  0  0  0  0  0  0  0  0  0  0  0
    7.1220   -3.8420   23.3930 C   0  0  0  0  0  0  0  0  0  0  0  0
    6.8200   -2.9060   24.3740 N   0  0  0  0  0  0  0  0  0  0  0  0
    6.2800   -3.2970   25.6040 C   0  0  0  0  0  0  0  0  0  0  0  0
    6.2270   -2.4310   26.6960 C   0  0  0  0  0  0  0  0  0  0  0  0
    5.6870   -2.8930   27.8980 C   0  0  0  0  0  0  0  0  0  0  0  0
    5.2010   -4.2030   28.0090 C   0  0  0  0  0  0  0  0  0  0  0  0
    5.2480   -5.0810   26.9160 C   0  0  0  0  0  0  0  0  0  0  0  0
    5.7960   -4.5850   25.7300 C   0  0  0  0  0  0  0  0  0  0  0  0
    5.9170   -5.4360   24.4640 C   0  0  0  0  0  0  0  0  0  0  0  0
    5.1120   -6.3540   24.2630 O   0  0  0  0  0  0  0  0  0  0  0  0
    6.9120   -5.1690   23.5690 N   0  0  0  0  0  0  0  0  0  0  0  0
  1  2  1  0
  2  3  2  0
  2  4  1  0
  4  5  1  0
  5  6  1  0
  6  7  1  0
  7  8  2  0
  7  9  1  0
  9 10  1  0
 10 11  1  0
 11 12  2  0
 12 13  1  0
 13 14  2  0
 14 15  1  0
 11 16  1  0
 15 16  2  0
  9 17  1  0
 17 18  1  0
 18 19  2  0
 19 20  1  0
 20 21  2  0
 21 22  1  0
 22 23  2  0
 23 24  1  0
 20 25  1  0
 24 25  2  0
 25 26  1  0
 26 27  2  0
 18 28  1  0
 26 28  1  0
M  END
