JUA-UNI-a9dfaed1-4-chloroacetamide
     RDKit          3D

 25 27  0  0  0  0  0  0  0  0999 V2000
    8.6010   -3.8320   20.0570 C   0  0  0  0  0  0  0  0  0  0  0  0
    7.3790   -3.1610   19.3640 C   0  0  0  0  0  0  0  0  0  0  0  0
    6.9520   -3.3730   18.2520 O   0  0  0  0  0  0  0  0  0  0  0  0
    6.6780   -2.2030   20.0170 N   0  0  0  0  0  0  0  0  0  0  0  0
    7.2100   -0.8970   20.0430 C   0  0  0  0  0  0  0  0  0  0  0  0
    8.2060   -0.8340   21.1820 C   0  0  0  0  0  0  0  0  0  0  0  0
    8.8640    0.1860   21.3370 O   0  0  0  0  0  0  0  0  0  0  0  0
    8.2990   -2.0150   22.0670 N   0  0  0  0  0  0  0  0  0  0  0  0
    9.1130   -1.8900   23.1900 C   0  0  0  0  0  0  0  0  0  0  0  0
   10.3840   -1.3850   22.9530 C   0  0  0  0  0  0  0  0  0  0  0  0
   10.5870   -0.1650   23.6550 C   0  0  0  0  0  0  0  0  0  0  0  0
   11.7840    0.5700   23.6250 C   0  0  0  0  0  0  0  0  0  0  0  0
   12.8690    0.0470   22.8350 C   0  0  0  0  0  0  0  0  0  0  0  0
   12.6220   -1.2710   22.0850 C   0  0  0  0  0  0  0  0  0  0  0  0
   11.3530   -1.9540   22.1700 C   0  0  0  0  0  0  0  0  0  0  0  0
    7.0600   -2.8170   22.1690 C   0  0  0  0  0  0  0  0  0  0  0  0
    6.7670   -3.3790   23.5230 C   0  0  1  0  0  0  0  0  0  0  0  0
    7.0060   -2.4250   24.5700 O   0  0  0  0  0  0  0  0  0  0  0  0
    5.5100   -4.0360   23.6630 C   0  0  0  0  0  0  0  0  0  0  0  0
    4.9600   -4.9900   23.9130 N   0  0  0  0  0  0  0  0  0  0  0  0
    5.5500   -5.9840   23.0150 C   0  0  0  0  0  0  0  0  0  0  0  0
    7.0520   -5.6720   22.9280 C   0  0  0  0  0  0  0  0  0  0  0  0
    7.4780   -4.7290   23.8780 C   0  0  0  0  0  0  0  0  0  0  0  0
    6.9810   -5.0180   25.1700 C   0  0  0  0  0  0  0  0  0  0  0  0
    5.5770   -5.2930   25.2350 C   0  0  0  0  0  0  0  0  0  0  0  0
  1  2  1  0
  2  3  2  0
  2  4  1  0
  4  5  1  0
  5  6  1  0
  6  7  2  0
  6  8  1  0
  8  9  1  0
  9 10  1  0
 10 11  2  0
 11 12  1  0
 12 13  2  0
 13 14  1  0
 10 15  1  0
 14 15  2  0
  8 16  1  0
 16 17  1  0
 17 18  1  1
 17 19  1  0
 19 20  1  0
 20 21  1  0
 21 22  1  0
 17 23  1  0
 22 23  1  0
 23 24  1  0
 20 25  1  0
 24 25  1  0
M  END
