JUA-UNI-b93289a4-1
     RDKit          3D

 23 24  0  0  0  0  0  0  0  0999 V2000
    3.4000    1.0540   20.4260 C   0  0  0  0  0  0  0  0  0  0  0  0
    4.2340    0.6060   21.5420 C   0  0  0  0  0  0  0  0  0  0  0  0
    5.7040    0.7880   21.1720 C   0  0  0  0  0  0  0  0  0  0  0  0
    6.1330    1.7380   20.5250 O   0  0  0  0  0  0  0  0  0  0  0  0
    6.5100   -0.2250   21.6330 N   0  0  0  0  0  0  0  0  0  0  0  0
    7.7740   -0.5260   20.9820 C   0  0  0  0  0  0  0  0  0  0  0  0
    8.0150   -1.9260   20.7880 C   0  0  0  0  0  0  0  0  0  0  0  0
    7.6540   -2.4470   19.7190 O   0  0  0  0  0  0  0  0  0  0  0  0
    8.6370   -2.6780   21.7990 N   0  0  0  0  0  0  0  0  0  0  0  0
    8.9110   -2.0160   23.0670 C   0  0  0  0  0  0  0  0  0  0  0  0
   10.2640   -1.2890   23.0780 C   0  0  0  0  0  0  0  0  0  0  0  0
   11.3990   -1.8820   22.1670 C   0  0  0  0  0  0  0  0  0  0  0  0
   12.6680   -1.3110   22.0840 C   0  0  0  0  0  0  0  0  0  0  0  0
   12.9200   -0.0530   22.9280 C   0  0  0  0  0  0  0  0  0  0  0  0
   11.8700    0.5110   23.7870 C   0  0  0  0  0  0  0  0  0  0  0  0
   10.5120   -0.1540   23.8450 C   0  0  0  0  0  0  0  0  0  0  0  0
    9.5640    0.3920   24.6620 O   0  0  0  0  0  0  0  0  0  0  0  0
    8.6850   -4.1300   21.7590 C   0  0  0  0  0  0  0  0  0  0  0  0
    7.5590   -4.7160   22.3190 C   0  0  2  0  0  0  0  0  0  0  0  0
    7.6300   -6.0180   22.7720 C   0  0  0  0  0  0  0  0  0  0  0  0
    6.4030   -6.6460   22.7750 C   0  0  0  0  0  0  0  0  0  0  0  0
    5.6620   -5.8810   21.6760 C   0  0  0  0  0  0  0  0  0  0  0  0
    6.4870   -4.7510   21.3490 O   0  0  0  0  0  0  0  0  0  0  0  0
  1  2  1  0
  2  3  1  0
  3  4  2  0
  3  5  1  0
  5  6  1  0
  6  7  1  0
  7  8  2  0
  7  9  1  0
  9 10  1  0
 10 11  1  0
 11 12  2  0
 12 13  1  0
 13 14  2  0
 14 15  1  0
 11 16  1  0
 15 16  2  0
 16 17  1  0
  9 18  1  0
 19 18  1  6
 19 20  1  0
 20 21  1  0
 21 22  1  0
 19 23  1  0
 22 23  1  0
M  END
