JUA-UNI-a9dfaed1-3-vinylsulfonamide
     RDKit          3D

 18 18  0  0  0  0  0  0  0  0999 V2000
    7.3530   -3.0760   18.9780 C   0  0  0  0  0  0  0  0  0  0  0  0
    6.0850   -3.5760   19.6930 C   0  0  0  0  0  0  0  0  0  0  0  0
    6.0260   -3.1080   21.3930 S   0  0  0  0  0  0  0  0  0  0  0  0
    4.8900   -3.8650   21.9280 O   0  0  0  0  0  0  0  0  0  0  0  0
    5.9910   -1.6680   21.4290 O   0  0  0  0  0  0  0  0  0  0  0  0
    7.5420   -3.6300   22.0470 N   0  0  0  0  0  0  0  0  0  0  0  0
    8.3070   -2.6650   22.8980 C   0  0  0  0  0  0  0  0  0  0  0  0
    9.8430   -2.4800   22.5550 C   0  0  0  0  0  0  0  0  0  0  0  0
   11.1200   -1.7970   22.5120 C   0  0  0  0  0  0  0  0  0  0  0  0
   12.3700   -2.0140   22.0650 C   0  0  0  0  0  0  0  0  0  0  0  0
   12.2310   -0.7430   22.6940 C   0  0  0  0  0  0  0  0  0  0  0  0
   10.9930   -0.3290   23.2240 C   0  0  0  0  0  0  0  0  0  0  0  0
    9.8220   -1.1870   23.1480 C   0  0  0  0  0  0  0  0  0  0  0  0
    8.4780   -0.4110   23.8530 S   0  0  0  0  0  0  0  0  0  0  0  0
    7.7870   -1.3280   24.7320 O   0  0  0  0  0  0  0  0  0  0  0  0
    8.8670    0.9110   24.2940 O   0  0  0  0  0  0  0  0  0  0  0  0
    7.5280   -0.2260   22.4680 N   0  0  0  0  0  0  0  0  0  0  0  0
    8.1670   -0.5100   21.1540 C   0  0  0  0  0  0  0  0  0  0  0  0
  1  2  1  0
  2  3  1  0
  3  4  2  0
  3  5  2  0
  3  6  1  0
  6  7  1  0
  7  8  1  0
  8  9  2  0
  9 10  1  0
 10 11  2  0
 11 12  1  0
  8 13  1  0
 12 13  2  0
 13 14  1  0
 14 15  2  0
 14 16  2  0
 14 17  1  0
 17 18  1  0
M  END
