JUA-UNI-a9dfaed1-4-vinylsulfonamide
     RDKit          3D

 27 29  0  0  0  0  0  0  0  0999 V2000
    8.0150   -3.1240   19.2870 C   0  0  0  0  0  0  0  0  0  0  0  0
    6.7300   -3.5610   19.9120 C   0  0  0  0  0  0  0  0  0  0  0  0
    5.6170   -2.4030   19.2840 S   0  0  0  0  0  0  0  0  0  0  0  0
    4.3910   -3.0950   19.4740 O   0  0  0  0  0  0  0  0  0  0  0  0
    6.0510   -1.9650   17.9790 O   0  0  0  0  0  0  0  0  0  0  0  0
    5.8760   -1.1330   20.3750 N   0  0  0  0  0  0  0  0  0  0  0  0
    7.2900   -0.8020   20.5300 C   0  0  0  0  0  0  0  0  0  0  0  0
    7.7520   -0.9080   21.8490 C   0  0  0  0  0  0  0  0  0  0  0  0
    7.6170    0.0690   22.5870 O   0  0  0  0  0  0  0  0  0  0  0  0
    8.3490   -2.0750   22.2580 N   0  0  0  0  0  0  0  0  0  0  0  0
    9.1510   -1.9060   23.4820 C   0  0  0  0  0  0  0  0  0  0  0  0
   10.4460   -1.2740   23.2460 C   0  0  0  0  0  0  0  0  0  0  0  0
   11.4690   -1.9010   22.3940 C   0  0  0  0  0  0  0  0  0  0  0  0
   12.7000   -1.3390   22.1500 C   0  0  0  0  0  0  0  0  0  0  0  0
   13.0260   -0.1160   22.7180 C   0  0  0  0  0  0  0  0  0  0  0  0
   12.0580    0.6150   23.6020 C   0  0  0  0  0  0  0  0  0  0  0  0
   10.6940   -0.0350   23.8610 C   0  0  0  0  0  0  0  0  0  0  0  0
    7.6980   -3.3220   22.0950 C   0  0  0  0  0  0  0  0  0  0  0  0
    6.7230   -3.7340   23.2080 C   0  0  1  0  0  0  0  0  0  0  0  0
    6.8290   -2.9100   24.1180 O   0  0  0  0  0  0  0  0  0  0  0  0
    5.3690   -3.8380   22.8870 C   0  0  0  0  0  0  0  0  0  0  0  0
    5.0080   -5.1650   22.9050 N   0  0  0  0  0  0  0  0  0  0  0  0
    5.8400   -6.1550   22.3780 C   0  0  0  0  0  0  0  0  0  0  0  0
    7.1600   -5.8820   22.7490 C   0  0  0  0  0  0  0  0  0  0  0  0
    7.1690   -4.9250   23.7860 C   0  0  0  0  0  0  0  0  0  0  0  0
    6.1800   -5.1440   24.7710 C   0  0  0  0  0  0  0  0  0  0  0  0
    4.9380   -5.4700   24.2160 C   0  0  0  0  0  0  0  0  0  0  0  0
  1  2  1  0
  2  3  1  0
  3  4  2  0
  3  5  2  0
  3  6  1  0
  6  7  1  0
  7  8  1  0
  8  9  2  0
  8 10  1  0
 10 11  1  0
 11 12  1  0
 12 13  2  0
 13 14  1  0
 14 15  2  0
 15 16  1  0
 12 17  1  0
 16 17  2  0
 10 18  1  0
 18 19  1  0
 19 20  1  1
 19 21  1  0
 21 22  1  0
 22 23  1  0
 23 24  1  0
 19 25  1  0
 24 25  1  0
 25 26  1  0
 22 27  1  0
 26 27  1  0
M  END
