JUA-UNI-a9dfaed1-6-chloroacetamide
     RDKit          3D

 20 20  0  0  0  0  0  0  0  0999 V2000
    7.5810   -3.3150   19.8350 C   0  0  0  0  0  0  0  0  0  0  0  0
    6.2490   -3.1600   20.6070 C   0  0  0  0  0  0  0  0  0  0  0  0
    5.8330   -4.1670   19.9440 O   0  0  0  0  0  0  0  0  0  0  0  0
    6.9950   -2.0360   21.1900 N   0  0  0  0  0  0  0  0  0  0  0  0
    8.2040   -2.0640   22.0720 C   0  0  2  0  0  0  0  0  0  0  0  0
    8.0880   -1.5570   23.3710 C   0  0  0  0  0  0  0  0  0  0  0  0
    9.2140   -0.7240   23.5770 C   0  0  0  0  0  0  0  0  0  0  0  0
   10.5600   -1.3010   23.4490 C   0  0  0  0  0  0  0  0  0  0  0  0
   11.7450   -0.4480   23.6290 C   0  0  0  0  0  0  0  0  0  0  0  0
   11.6200    0.8840   23.9170 C   0  0  0  0  0  0  0  0  0  0  0  0
   10.3530    1.4490   24.0500 C   0  0  0  0  0  0  0  0  0  0  0  0
    9.0900    0.6390   23.8800 C   0  0  0  0  0  0  0  0  0  0  0  0
    9.1190   -0.9620   21.4990 C   0  0  0  0  0  0  0  0  0  0  0  0
    8.5940    0.3400   21.2240 O   0  0  0  0  0  0  0  0  0  0  0  0
   10.4290   -1.2650   21.2910 N   0  0  0  0  0  0  0  0  0  0  0  0
   11.0330   -2.4260   21.8020 C   0  0  0  0  0  0  0  0  0  0  0  0
   12.4440   -2.7850   21.3020 C   0  0  0  0  0  0  0  0  0  0  0  0
   12.6660   -4.0310   20.7600 N   0  0  0  0  0  0  0  0  0  0  0  0
   11.6590   -4.5720   20.0580 C   0  0  0  0  0  0  0  0  0  0  0  0
   13.9910   -4.3170   20.4930 C   0  0  0  0  0  0  0  0  0  0  0  0
  1  2  1  0
  2  3  2  0
  2  4  1  0
  4  5  1  0
  5  6  1  1
  6  7  1  0
  7  8  2  0
  8  9  1  0
  9 10  2  0
 10 11  1  0
  7 12  1  0
 11 12  2  0
  5 13  1  0
 13 14  2  0
 13 15  1  0
 15 16  1  0
 16 17  1  0
 17 18  1  0
 18 19  1  0
 18 20  1  0
M  END
