KAL-WAB-eb347ebe-1
     RDKit          3D

 19 21  0  0  0  0  0  0  0  0999 V2000
    8.9450    1.2620   21.3270 O   0  0  0  0  0  0  0  0  0  0  0  0
    8.7280    0.1210   21.8010 C   0  0  0  0  0  0  0  0  0  0  0  0
    8.0300   -0.9680   21.0540 C   0  0  0  0  0  0  0  0  0  0  0  0
    7.0480   -0.3060   20.0920 C   0  0  0  0  0  0  0  0  0  0  0  0
    7.3480   -0.6030   18.6590 C   0  0  0  0  0  0  0  0  0  0  0  0
    6.4140    0.0630   17.9090 N   0  0  0  0  0  0  0  0  0  0  0  0
    5.4740    0.8020   18.8090 C   0  0  0  0  0  0  0  0  0  0  0  0
    4.3430    1.6310   18.3830 N   0  0  0  0  0  0  0  0  0  0  0  0
    3.5470    2.2560   19.4440 C   0  0  0  0  0  0  0  0  0  0  0  0
    3.8540    2.0820   20.9390 C   0  0  0  0  0  0  0  0  0  0  0  0
    5.0840    1.1870   21.2820 C   0  0  0  0  0  0  0  0  0  0  0  0
    5.9390    0.5140   20.2210 C   0  0  0  0  0  0  0  0  0  0  0  0
    9.0750   -0.3340   23.0490 N   0  0  0  0  0  0  0  0  0  0  0  0
   10.2540   -1.1580   23.2720 C   0  0  0  0  0  0  0  0  0  0  0  0
   11.5930   -1.6360   23.4390 C   0  0  0  0  0  0  0  0  0  0  0  0
   12.7900   -0.9720   23.3890 C   0  0  0  0  0  0  0  0  0  0  0  0
   12.8280    0.3380   23.1490 C   0  0  0  0  0  0  0  0  0  0  0  0
   11.7030    0.9560   22.9740 N   0  0  0  0  0  0  0  0  0  0  0  0
   10.5730    0.2190   23.0420 C   0  0  0  0  0  0  0  0  0  0  0  0
  1  2  2  0
  2  3  1  0
  3  4  1  0
  4  5  2  0
  5  6  1  0
  6  7  1  0
  7  8  1  0
  8  9  2  0
  9 10  1  0
 10 11  2  0
  4 12  1  0
  7 12  2  0
 11 12  1  0
  2 13  1  0
 13 14  1  0
 14 15  2  0
 15 16  1  0
 16 17  2  0
 17 18  1  0
 14 19  1  0
 18 19  2  0
M  END
