KAY-MCD-59dc2eb3-1
     RDKit          3D

 35 38  0  0  0  0  0  0  0  0999 V2000
    5.5160   -4.8600   19.9210 O   0  0  0  0  0  0  0  0  0  0  0  0
    6.0940   -4.3140   20.8600 C   0  0  0  0  0  0  0  0  0  0  0  0
    6.4290   -2.8370   20.8030 C   0  0  0  0  0  0  0  0  0  0  0  0
    7.8300   -2.4150   20.8380 N   0  0  0  0  0  0  0  0  0  0  0  0
    7.9010   -0.9860   20.5080 C   0  0  0  0  0  0  0  0  0  0  0  0
    8.6940   -0.1440   21.3280 O   0  0  0  0  0  0  0  0  0  0  0  0
    7.1780   -0.3780   19.3610 N   0  0  0  0  0  0  0  0  0  0  0  0
    6.1110    0.3150   19.8830 C   0  0  0  0  0  0  0  0  0  0  0  0
    4.7490    0.1110   19.6790 C   0  0  0  0  0  0  0  0  0  0  0  0
    3.8440    0.9490   20.3200 C   0  0  0  0  0  0  0  0  0  0  0  0
    4.1950    1.9920   21.1610 C   0  0  0  0  0  0  0  0  0  0  0  0
    5.5960    2.3070   21.4530 N   0  0  0  0  0  0  0  0  0  0  0  0
    6.5020    1.3720   20.7340 C   0  0  0  0  0  0  0  0  0  0  0  0
    8.6770   -2.9230   21.8110 C   0  0  0  0  0  0  0  0  0  0  0  0
    9.3370   -1.8810   22.7190 C   0  0  0  0  0  0  0  0  0  0  0  0
   10.2970   -2.2340   23.8540 C   0  0  0  0  0  0  0  0  0  0  0  0
   10.5450   -3.7280   24.0060 C   0  0  0  0  0  0  0  0  0  0  0  0
    9.8930   -4.7880   23.1070 C   0  0  0  0  0  0  0  0  0  0  0  0
    8.9490   -4.2930   22.0030 C   0  0  0  0  0  0  0  0  0  0  0  0
    6.3920   -5.0760   21.9280 N   0  0  0  0  0  0  0  0  0  0  0  0
    7.1010   -4.6550   23.0730 C   0  0  0  0  0  0  0  0  0  0  0  0
    6.2700   -4.4750   24.1700 C   0  0  0  0  0  0  0  0  0  0  0  0
    5.3300   -5.4870   24.3860 N   0  0  0  0  0  0  0  0  0  0  0  0
    4.5990   -5.5960   25.8860 S   0  0  0  0  0  0  0  0  0  0  0  0
    3.8690   -6.8410   25.9600 O   0  0  0  0  0  0  0  0  0  0  0  0
    5.5870   -5.2350   26.8710 O   0  0  0  0  0  0  0  0  0  0  0  0
    3.3950   -4.2790   25.8660 C   0  0  0  0  0  0  0  0  0  0  0  0
    2.0470   -4.5690   25.6790 C   0  0  0  0  0  0  0  0  0  0  0  0
    1.0960   -3.5400   25.6700 C   0  0  0  0  0  0  0  0  0  0  0  0
    1.5050   -2.2240   25.8490 C   0  0  0  0  0  0  0  0  0  0  0  0
    2.8600   -1.9290   26.0340 C   0  0  0  0  0  0  0  0  0  0  0  0
    3.2540   -0.6590   26.2040 F   0  0  0  0  0  0  0  0  0  0  0  0
    3.8150   -2.9580   26.0420 C   0  0  0  0  0  0  0  0  0  0  0  0
    4.6430   -5.9880   23.1690 C   0  0  0  0  0  0  0  0  0  0  0  0
    5.5770   -6.2680   22.1580 C   0  0  0  0  0  0  0  0  0  0  0  0
  1  2  2  0
  2  3  1  0
  3  4  1  0
  4  5  1  0
  5  6  2  0
  5  7  1  0
  7  8  1  0
  8  9  2  0
  9 10  1  0
 10 11  2  0
 11 12  1  0
  8 13  1  0
 12 13  2  0
  4 14  1  0
 14 15  2  0
 15 16  1  0
 16 17  2  0
 17 18  1  0
 14 19  1  0
 18 19  2  0
  2 20  1  0
 20 21  1  0
 21 22  1  0
 22 23  1  0
 23 24  1  0
 24 25  2  0
 24 26  2  0
 24 27  1  0
 27 28  2  0
 28 29  1  0
 29 30  2  0
 30 31  1  0
 31 32  1  0
 27 33  1  0
 31 33  2  0
 23 34  1  0
 20 35  1  0
 34 35  1  0
M  END
