KEI-TRE-d5e2018a-9
     RDKit          3D

 25 27  0  0  0  0  0  0  0  0999 V2000
    8.9760    1.1880   21.2380 O   0  0  0  0  0  0  0  0  0  0  0  0
    8.3070    0.1870   21.5520 C   0  0  0  0  0  0  0  0  0  0  0  0
    7.0050   -0.0780   21.2410 N   0  0  0  0  0  0  0  0  0  0  0  0
    6.3510    0.4470   20.1430 C   0  0  0  0  0  0  0  0  0  0  0  0
    5.2320    1.2590   20.2130 C   0  0  0  0  0  0  0  0  0  0  0  0
    4.6690    1.7360   19.0390 C   0  0  0  0  0  0  0  0  0  0  0  0
    5.2520    1.3790   17.8440 C   0  0  0  0  0  0  0  0  0  0  0  0
    6.3340    0.5890   17.7500 N   0  0  0  0  0  0  0  0  0  0  0  0
    6.8570    0.1400   18.8960 C   0  0  0  0  0  0  0  0  0  0  0  0
    8.9040   -0.9130   22.3410 C   0  0  0  0  0  0  0  0  0  0  0  0
   10.0950   -1.4810   22.4700 C   0  0  0  0  0  0  0  0  0  0  0  0
   11.2740   -1.3450   21.9760 C   0  0  0  0  0  0  0  0  0  0  0  0
   12.9760   -1.8130   21.8890 S   0  0  0  0  0  0  0  0  0  0  0  0
   13.1320   -3.2130   22.0550 O   0  0  0  0  0  0  0  0  0  0  0  0
   13.6560   -1.1320   20.8240 O   0  0  0  0  0  0  0  0  0  0  0  0
   13.3510   -1.1090   23.3550 N   0  0  0  0  0  0  0  0  0  0  0  0
   12.8930    0.2850   23.5570 C   0  0  0  0  0  0  0  0  0  0  0  0
   11.5830    0.4180   23.1850 C   0  0  0  0  0  0  0  0  0  0  0  0
   10.8280   -0.4810   24.0050 O   0  0  0  0  0  0  0  0  0  0  0  0
   11.6130   -1.1080   25.0390 C   0  0  0  0  0  0  0  0  0  0  0  0
   12.8630   -1.8450   24.5320 C   0  0  0  0  0  0  0  0  0  0  0  0
   11.0870   -2.3870   22.9590 C   0  0  0  0  0  0  0  0  0  0  0  0
    9.6240   -2.6180   23.6210 C   0  0  0  0  0  0  0  0  0  0  0  0
    8.3960   -1.7540   23.2450 C   0  0  0  0  0  0  0  0  0  0  0  0
    7.1500   -1.8640   23.7360 F   0  0  0  0  0  0  0  0  0  0  0  0
  1  2  2  0
  2  3  1  0
  3  4  1  0
  4  5  2  0
  5  6  1  0
  6  7  2  0
  7  8  1  0
  4  9  1  0
  8  9  2  0
  2 10  1  0
 10 11  2  0
 11 12  1  0
 13 12  1  0
 13 14  2  0
 13 15  2  0
 13 16  1  0
 16 17  1  0
 17 18  1  0
 18 19  1  0
 19 20  1  0
 16 21  1  0
 20 21  1  0
 12 22  2  0
 22 23  1  0
 10 24  1  0
 23 24  2  0
 24 25  1  0
M  END
