KEI-UNI-85a52787-8
     RDKit          3D

 31 34  0  0  0  0  0  0  0  0999 V2000
    5.3740   -2.3060   19.5180 C   0  0  0  0  0  0  0  0  0  0  0  0
    5.3420   -3.4250   20.3470 C   0  0  0  0  0  0  0  0  0  0  0  0
    5.2460   -4.5500   19.8450 O   0  0  0  0  0  0  0  0  0  0  0  0
    5.4300   -3.2640   21.7280 N   0  0  0  0  0  0  0  0  0  0  0  0
    6.1370   -4.2400   22.5350 C   0  0  0  0  0  0  0  0  0  0  0  0
    7.2120   -3.5360   23.3870 C   0  0  0  0  0  0  0  0  0  0  0  0
    8.2020   -2.7550   22.6080 N   0  0  0  0  0  0  0  0  0  0  0  0
    9.4890   -2.4990   23.3470 C   0  0  0  0  0  0  0  0  0  0  0  0
    9.7540   -0.9700   23.5940 C   0  0  0  0  0  0  0  0  0  0  0  0
    8.6330   -1.4070   23.8600 C   0  0  0  0  0  0  0  0  0  0  0  0
   10.0050   -2.0810   23.3110 C   0  0  0  0  0  0  0  0  0  0  0  0
   11.2890   -1.0440   23.1270 C   0  0  0  0  0  0  0  0  0  0  0  0
   12.6630   -1.2260   22.6780 N   0  0  0  0  0  0  0  0  0  0  0  0
   12.1820   -0.1850   23.0260 C   0  0  0  0  0  0  0  0  0  0  0  0
   11.5940   -1.5770   22.9590 C   0  0  0  0  0  0  0  0  0  0  0  0
   11.2030   -1.9950   21.6950 N   0  0  0  0  0  0  0  0  0  0  0  0
   11.5520   -2.3320   23.9490 O   0  0  0  0  0  0  0  0  0  0  0  0
   13.1700    0.8720   22.9100 C   0  0  0  0  0  0  0  0  0  0  0  0
   12.0480    1.6300   23.4020 C   0  0  0  0  0  0  0  0  0  0  0  0
   10.9970    0.4590   23.5060 C   0  0  0  0  0  0  0  0  0  0  0  0
    9.6250    0.3340   23.9110 C   0  0  0  0  0  0  0  0  0  0  0  0
    8.2530    1.4970   24.5810 Br  0  0  0  0  0  0  0  0  0  0  0  0
    7.7410   -1.6160   21.7590 C   0  0  0  0  0  0  0  0  0  0  0  0
    6.4000   -0.9380   22.0560 C   0  0  1  0  0  0  0  0  0  0  0  0
    5.9570    0.0170   20.9400 C   0  0  0  0  0  0  0  0  0  0  0  0
    6.7440    0.0260   19.6450 C   0  0  0  0  0  0  0  0  0  0  0  0
    6.3130    0.8880   18.6530 C   0  0  0  0  0  0  0  0  0  0  0  0
    5.1900    1.7000   18.8870 C   0  0  0  0  0  0  0  0  0  0  0  0
    4.4790    1.7080   20.0420 N   0  0  0  0  0  0  0  0  0  0  0  0
    4.8690    0.8760   21.0370 C   0  0  0  0  0  0  0  0  0  0  0  0
    5.2550   -1.9380   22.3320 C   0  0  0  0  0  0  0  0  0  0  0  0
  1  2  1  0
  2  3  2  0
  2  4  1  0
  4  5  1  0
  5  6  1  0
  6  7  1  0
  7  8  1  0
  8  9  1  0
  9 10  2  0
 10 11  1  0
 11 12  2  0
 12 13  1  0
 13 14  2  0
 14 15  1  0
 15 16  1  0
 15 17  2  0
 14 18  1  0
 18 19  2  0
 12 20  1  0
 19 20  1  0
  9 21  1  0
 20 21  2  0
 21 22  1  0
  7 23  1  0
 23 24  1  0
 24 25  1  6
 25 26  2  0
 26 27  1  0
 27 28  2  0
 28 29  1  0
 25 30  1  0
 29 30  2  0
  4 31  1  0
 24 31  1  0
M  END
