KEI-TRE-d5e2018a-22
     RDKit          3D

 24 26  0  0  0  0  0  0  0  0999 V2000
    9.1710    1.7470   21.4810 O   0  0  0  0  0  0  0  0  0  0  0  0
    8.7370    0.6800   21.9330 C   0  0  0  0  0  0  0  0  0  0  0  0
    7.7030   -0.0570   21.3880 N   0  0  0  0  0  0  0  0  0  0  0  0
    6.8340    0.4020   20.3710 C   0  0  0  0  0  0  0  0  0  0  0  0
    5.8580    1.3870   20.5470 C   0  0  0  0  0  0  0  0  0  0  0  0
    5.0490    1.7760   19.4750 C   0  0  0  0  0  0  0  0  0  0  0  0
    5.2420    1.1660   18.2510 C   0  0  0  0  0  0  0  0  0  0  0  0
    6.1680    0.2150   18.0350 N   0  0  0  0  0  0  0  0  0  0  0  0
    6.9340   -0.1440   19.0930 C   0  0  0  0  0  0  0  0  0  0  0  0
    9.3860    0.1440   23.1870 C   0  0  0  0  0  0  0  0  0  0  0  0
   10.3240   -0.5310   23.7670 C   0  0  0  0  0  0  0  0  0  0  0  0
   10.7110   -0.8750   24.9690 C   0  0  0  0  0  0  0  0  0  0  0  0
   11.7390   -1.5240   24.4190 C   0  0  0  0  0  0  0  0  0  0  0  0
   11.5600   -1.2990   22.9770 C   0  0  0  0  0  0  0  0  0  0  0  0
   12.7020   -1.9350   21.7620 S   0  0  0  0  0  0  0  0  0  0  0  0
   11.9110   -2.2150   20.6570 O   0  0  0  0  0  0  0  0  0  0  0  0
   13.7140   -0.9260   21.6870 O   0  0  0  0  0  0  0  0  0  0  0  0
   13.3970   -3.4500   21.9510 N   0  0  0  0  0  0  0  0  0  0  0  0
   14.5470   -3.5420   22.9140 C   0  0  0  0  0  0  0  0  0  0  0  0
   15.8640   -4.7860   22.3000 C   0  0  0  0  0  0  0  0  0  0  0  0
   15.8930   -5.0560   20.9350 O   0  0  0  0  0  0  0  0  0  0  0  0
   14.6050   -5.2810   20.4860 C   0  0  0  0  0  0  0  0  0  0  0  0
   13.6450   -4.0760   20.5740 C   0  0  0  0  0  0  0  0  0  0  0  0
   10.4110   -0.4920   22.3800 C   0  0  0  0  0  0  0  0  0  0  0  0
  1  2  2  0
  2  3  1  0
  3  4  1  0
  4  5  2  0
  5  6  1  0
  6  7  2  0
  7  8  1  0
  4  9  1  0
  8  9  2  0
  2 10  1  0
 10 11  2  0
 11 12  1  0
 12 13  2  0
 13 14  1  0
 15 14  1  0
 15 16  2  0
 15 17  2  0
 15 18  1  0
 18 19  1  0
 19 20  1  0
 20 21  1  0
 21 22  1  0
 18 23  1  0
 22 23  1  0
 10 24  1  0
 14 24  2  0
M  END
