KEI-TRE-d5e2018a-8
     RDKit          3D

 29 32  0  0  0  0  0  0  0  0999 V2000
   10.7930   -0.8890   24.0580 C   0  0  0  0  0  0  0  0  0  0  0  0
   10.6530    0.0390   22.8610 C   0  0  0  0  0  0  0  0  0  0  0  0
    9.4140    0.1270   22.5180 C   0  0  0  0  0  0  0  0  0  0  0  0
    8.6930    0.7850   21.5750 C   0  0  0  0  0  0  0  0  0  0  0  0
    9.0450    1.8890   21.1920 O   0  0  0  0  0  0  0  0  0  0  0  0
    7.5570   -0.0070   21.1620 N   0  0  0  0  0  0  0  0  0  0  0  0
    6.7380    0.3990   20.1570 C   0  0  0  0  0  0  0  0  0  0  0  0
    5.6290    1.2250   20.3370 C   0  0  0  0  0  0  0  0  0  0  0  0
    4.8120    1.6190   19.1280 C   0  0  0  0  0  0  0  0  0  0  0  0
    5.2620    1.1040   17.9200 C   0  0  0  0  0  0  0  0  0  0  0  0
    6.3330    0.3050   17.7860 N   0  0  0  0  0  0  0  0  0  0  0  0
    7.0300   -0.0260   18.8790 C   0  0  0  0  0  0  0  0  0  0  0  0
    9.0150   -0.9220   23.4150 C   0  0  2  0  0  0  0  0  0  0  0  0
    8.4250   -0.5980   24.6550 C   0  0  0  0  0  0  0  0  0  0  0  0
    9.0080    0.3260   25.5130 C   0  0  0  0  0  0  0  0  0  0  0  0
    8.3450    0.6370   26.8480 C   0  0  0  0  0  0  0  0  0  0  0  0
    7.1660    0.0050   27.2090 C   0  0  0  0  0  0  0  0  0  0  0  0
    6.5600   -0.8980   26.4080 N   0  0  0  0  0  0  0  0  0  0  0  0
    7.2310   -1.1890   25.0990 C   0  0  0  0  0  0  0  0  0  0  0  0
   10.5130   -1.4820   23.5330 C   0  0  0  0  0  0  0  0  0  0  0  0
   11.9140   -0.8160   23.1230 C   0  0  0  0  0  0  0  0  0  0  0  0
   13.0750   -1.4330   23.3690 C   0  0  0  0  0  0  0  0  0  0  0  0
   12.8170   -2.0010   24.6920 C   0  0  0  0  0  0  0  0  0  0  0  0
   12.1440   -0.7700   25.3070 C   0  0  0  0  0  0  0  0  0  0  0  0
   13.9050   -2.5080   25.6170 C   0  0  0  0  0  0  0  0  0  0  0  0
   11.9440   -3.1810   24.3750 C   0  0  0  0  0  0  0  0  0  0  0  0
   10.5660   -2.8020   24.1340 C   0  0  0  0  0  0  0  0  0  0  0  0
    9.5840   -3.5000   24.3940 O   0  0  0  0  0  0  0  0  0  0  0  0
   11.8290    0.3890   22.6100 N   0  0  0  0  0  0  0  0  0  0  0  0
  1  2  1  0
  2  3  2  0
  3  4  1  0
  4  5  2  0
  4  6  1  0
  6  7  1  0
  7  8  2  0
  8  9  1  0
  9 10  2  0
 10 11  1  0
  7 12  1  0
 11 12  2  0
  3 13  1  0
 13 14  1  1
 14 15  2  0
 15 16  1  0
 16 17  2  0
 17 18  1  0
 14 19  1  0
 18 19  2  0
 13 20  1  0
 20 21  2  0
 21 22  1  0
 22 23  1  0
 23 24  1  0
 23 25  1  0
 23 26  1  0
 20 27  1  0
 26 27  1  0
 27 28  2  0
  2 29  1  0
 21 29  1  0
M  END
