KEI-TRE-d5e2018a-10
     RDKit          3D

 25 27  0  0  0  0  0  0  0  0999 V2000
    8.9630    1.7350   21.2860 O   0  0  0  0  0  0  0  0  0  0  0  0
    8.4840    0.6600   21.6530 C   0  0  0  0  0  0  0  0  0  0  0  0
    7.3590    0.0320   21.2020 N   0  0  0  0  0  0  0  0  0  0  0  0
    6.5880    0.4830   20.1420 C   0  0  0  0  0  0  0  0  0  0  0  0
    5.5200    1.3550   20.2700 C   0  0  0  0  0  0  0  0  0  0  0  0
    4.8220    1.7540   19.1390 C   0  0  0  0  0  0  0  0  0  0  0  0
    5.2290    1.2590   17.9240 C   0  0  0  0  0  0  0  0  0  0  0  0
    6.2530    0.4130   17.7660 N   0  0  0  0  0  0  0  0  0  0  0  0
    6.9100    0.0390   18.8740 C   0  0  0  0  0  0  0  0  0  0  0  0
    9.1810   -0.1090   22.6900 C   0  0  0  0  0  0  0  0  0  0  0  0
   10.3210   -0.7760   22.7460 C   0  0  0  0  0  0  0  0  0  0  0  0
   11.3000   -1.0360   21.9420 C   0  0  0  0  0  0  0  0  0  0  0  0
   12.8750   -1.7890   21.6040 S   0  0  0  0  0  0  0  0  0  0  0  0
   13.7110   -1.0400   20.7040 O   0  0  0  0  0  0  0  0  0  0  0  0
   12.6580   -3.1620   21.3770 O   0  0  0  0  0  0  0  0  0  0  0  0
   13.4890   -1.5530   23.1120 N   0  0  0  0  0  0  0  0  0  0  0  0
   12.7650   -0.4650   23.8540 C   0  0  0  0  0  0  0  0  0  0  0  0
   12.4950   -0.7850   25.1850 C   0  0  0  0  0  0  0  0  0  0  0  0
   12.2690   -2.1740   25.3950 O   0  0  0  0  0  0  0  0  0  0  0  0
   13.5060   -2.8170   25.2230 C   0  0  0  0  0  0  0  0  0  0  0  0
   13.5930   -2.8640   23.7420 C   0  0  0  0  0  0  0  0  0  0  0  0
   11.3640   -1.5760   23.2670 C   0  0  0  0  0  0  0  0  0  0  0  0
   10.1610   -1.2670   24.3070 C   0  0  0  0  0  0  0  0  0  0  0  0
    8.9170   -0.4180   23.9550 C   0  0  0  0  0  0  0  0  0  0  0  0
    7.4790   -0.0250   25.1350 Br  0  0  0  0  0  0  0  0  0  0  0  0
  1  2  2  0
  2  3  1  0
  3  4  1  0
  4  5  2  0
  5  6  1  0
  6  7  2  0
  7  8  1  0
  4  9  1  0
  8  9  2  0
  2 10  1  0
 10 11  2  0
 11 12  1  0
 13 12  1  0
 13 14  2  0
 13 15  2  0
 13 16  1  0
 16 17  1  0
 17 18  1  0
 18 19  1  0
 19 20  1  0
 16 21  1  0
 20 21  1  0
 12 22  2  0
 22 23  1  0
 10 24  1  0
 23 24  2  0
 24 25  1  0
M  END
