KEI-UNI-85a52787-4
     RDKit          3D

 31 34  0  0  0  0  0  0  0  0999 V2000
    6.1040   -2.3030   18.8520 C   0  0  0  0  0  0  0  0  0  0  0  0
    5.7430   -3.2840   19.7850 C   0  0  0  0  0  0  0  0  0  0  0  0
    5.2510   -4.3510   19.4510 O   0  0  0  0  0  0  0  0  0  0  0  0
    6.0000   -3.0610   21.1010 N   0  0  0  0  0  0  0  0  0  0  0  0
    7.0060   -3.8980   21.7120 C   0  0  0  0  0  0  0  0  0  0  0  0
    7.2870   -3.4580   23.1310 C   0  0  0  0  0  0  0  0  0  0  0  0
    7.8120   -2.1060   23.2510 N   0  0  0  0  0  0  0  0  0  0  0  0
    8.7150   -2.0920   24.3630 C   0  0  0  0  0  0  0  0  0  0  0  0
    9.7060   -1.0030   24.2360 C   0  0  0  0  0  0  0  0  0  0  0  0
   10.7990   -1.2000   23.4470 C   0  0  0  0  0  0  0  0  0  0  0  0
   11.8680   -0.1240   23.2540 C   0  0  0  0  0  0  0  0  0  0  0  0
   11.9360    1.2570   23.8450 C   0  0  0  0  0  0  0  0  0  0  0  0
   13.0020    0.8040   22.9480 C   0  0  0  0  0  0  0  0  0  0  0  0
   12.6170   -0.6050   22.5100 C   0  0  0  0  0  0  0  0  0  0  0  0
   13.2740   -1.4410   21.6370 C   0  0  0  0  0  0  0  0  0  0  0  0
   13.7210   -1.7520   20.6620 N   0  0  0  0  0  0  0  0  0  0  0  0
   13.4080   -2.5780   22.3570 O   0  0  0  0  0  0  0  0  0  0  0  0
   11.4870   -1.1030   23.0130 C   0  0  0  0  0  0  0  0  0  0  0  0
   10.6280   -0.3180   23.9470 C   0  0  0  0  0  0  0  0  0  0  0  0
   10.7260    1.0690   24.5320 C   0  0  0  0  0  0  0  0  0  0  0  0
    9.5810    0.1970   24.8640 C   0  0  0  0  0  0  0  0  0  0  0  0
    8.5390    0.4790   25.6530 F   0  0  0  0  0  0  0  0  0  0  0  0
    7.9840   -1.3280   22.1070 C   0  0  0  0  0  0  0  0  0  0  0  0
    6.5960   -0.7490   21.8630 C   0  0  1  0  0  0  0  0  0  0  0  0
    6.2620    0.0560   20.6150 C   0  0  0  0  0  0  0  0  0  0  0  0
    7.0120    0.0250   19.4680 C   0  0  0  0  0  0  0  0  0  0  0  0
    6.5920    0.7960   18.3840 C   0  0  0  0  0  0  0  0  0  0  0  0
    5.4180    1.5830   18.4780 C   0  0  0  0  0  0  0  0  0  0  0  0
    4.6760    1.6250   19.5980 N   0  0  0  0  0  0  0  0  0  0  0  0
    5.1150    0.8650   20.6290 C   0  0  0  0  0  0  0  0  0  0  0  0
    5.5770   -1.8800   21.8400 C   0  0  0  0  0  0  0  0  0  0  0  0
  1  2  1  0
  2  3  2  0
  2  4  1  0
  4  5  1  0
  5  6  1  0
  6  7  1  0
  7  8  1  0
  8  9  1  0
  9 10  2  0
 10 11  1  0
 11 12  2  0
 12 13  1  0
 13 14  2  0
 14 15  1  0
 15 16  1  0
 15 17  2  0
 14 18  1  0
 18 19  2  0
 12 20  1  0
 19 20  1  0
  9 21  1  0
 20 21  2  0
 21 22  1  0
  7 23  1  0
 23 24  1  0
 24 25  1  6
 25 26  2  0
 26 27  1  0
 27 28  2  0
 28 29  1  0
 25 30  1  0
 29 30  2  0
  4 31  1  0
 24 31  1  0
M  END
