KEI-UNI-85a52787-2
     RDKit          3D

 32 35  0  0  0  0  0  0  0  0999 V2000
    6.1470   -2.3580   19.0510 C   0  0  0  0  0  0  0  0  0  0  0  0
    5.8710   -3.2920   20.0540 C   0  0  0  0  0  0  0  0  0  0  0  0
    5.3680   -4.3790   19.7580 O   0  0  0  0  0  0  0  0  0  0  0  0
    6.2080   -2.9740   21.3650 N   0  0  0  0  0  0  0  0  0  0  0  0
    6.8770   -3.9140   22.2430 C   0  0  0  0  0  0  0  0  0  0  0  0
    7.6700   -3.1520   23.3210 C   0  0  0  0  0  0  0  0  0  0  0  0
    8.7950   -2.3700   22.7850 N   0  0  0  0  0  0  0  0  0  0  0  0
    9.8970   -2.1720   23.7820 C   0  0  0  0  0  0  0  0  0  0  0  0
   10.6350   -0.8540   23.5920 C   0  0  0  0  0  0  0  0  0  0  0  0
   11.9110   -0.7630   23.0100 C   0  0  0  0  0  0  0  0  0  0  0  0
   12.5580    0.6160   22.8160 C   0  0  0  0  0  0  0  0  0  0  0  0
   11.7850    1.8220   23.2430 C   0  0  0  0  0  0  0  0  0  0  0  0
   12.4070    3.1810   22.9900 C   0  0  0  0  0  0  0  0  0  0  0  0
   11.5560    4.4020   23.4330 C   0  0  0  0  0  0  0  0  0  0  0  0
   12.1010    6.0560   23.1740 S   0  0  0  0  0  0  0  0  0  0  0  0
   10.6810    6.6320   22.4850 N   0  0  0  0  0  0  0  0  0  0  0  0
   13.1090    6.1210   22.1340 O   0  0  0  0  0  0  0  0  0  0  0  0
   12.2010    6.7410   24.4410 O   0  0  0  0  0  0  0  0  0  0  0  0
   10.2880    4.2650   24.0580 C   0  0  0  0  0  0  0  0  0  0  0  0
    9.7520    2.8810   24.2750 C   0  0  0  0  0  0  0  0  0  0  0  0
   10.5240    1.6650   23.8400 C   0  0  0  0  0  0  0  0  0  0  0  0
    9.9630    0.2830   24.0170 C   0  0  0  0  0  0  0  0  0  0  0  0
    8.2370    0.0960   24.8380 Br  0  0  0  0  0  0  0  0  0  0  0  0
    8.5160   -1.3340   21.7240 C   0  0  0  0  0  0  0  0  0  0  0  0
    7.1270   -0.6310   21.6990 C   0  0  1  0  0  0  0  0  0  0  0  0
    6.7010    0.0220   20.3720 C   0  0  0  0  0  0  0  0  0  0  0  0
    5.6270    1.0880   20.5130 C   0  0  0  0  0  0  0  0  0  0  0  0
    5.1750    1.7060   19.3660 C   0  0  0  0  0  0  0  0  0  0  0  0
    5.7200    1.3310   18.1360 C   0  0  0  0  0  0  0  0  0  0  0  0
    6.6800    0.3890   17.9790 N   0  0  0  0  0  0  0  0  0  0  0  0
    7.1520   -0.2470   19.0870 C   0  0  0  0  0  0  0  0  0  0  0  0
    5.9690   -1.6340   21.8990 C   0  0  0  0  0  0  0  0  0  0  0  0
  1  2  1  0
  2  3  2  0
  2  4  1  0
  4  5  1  0
  5  6  1  0
  6  7  1  0
  7  8  1  0
  8  9  1  0
  9 10  2  0
 10 11  1  0
 11 12  2  0
 12 13  1  0
 13 14  2  0
 14 15  1  0
 15 16  1  0
 15 17  2  0
 15 18  2  0
 14 19  1  0
 19 20  2  0
 12 21  1  0
 20 21  1  0
  9 22  1  0
 21 22  2  0
 22 23  1  0
  7 24  1  0
 24 25  1  0
 25 26  1  6
 26 27  2  0
 27 28  1  0
 28 29  2  0
 29 30  1  0
 26 31  1  0
 30 31  2  0
  4 32  1  0
 25 32  1  0
M  END
