KEI-TRE-d5e2018a-11
     RDKit          3D

 28 31  0  0  0  0  0  0  0  0999 V2000
    7.3790   -5.0970   23.4770 C   0  0  0  0  0  0  0  0  0  0  0  0
    6.4930   -4.2000   24.1270 O   0  0  0  0  0  0  0  0  0  0  0  0
    6.7760   -2.8700   23.9510 C   0  0  0  0  0  0  0  0  0  0  0  0
    6.8050   -2.2910   22.6800 C   0  0  0  0  0  0  0  0  0  0  0  0
    7.7570   -1.2810   22.3690 C   0  0  0  0  0  0  0  0  0  0  0  0
    7.7800   -0.1460   23.3110 N   0  0  0  0  0  0  0  0  0  0  0  0
    6.7260    0.6240   23.3110 C   0  0  0  0  0  0  0  0  0  0  0  0
    5.4510    0.9610   22.8190 C   0  0  0  0  0  0  0  0  0  0  0  0
    4.7740    1.8470   23.3380 O   0  0  0  0  0  0  0  0  0  0  0  0
    5.0990    0.1930   21.7230 N   0  0  0  0  0  0  0  0  0  0  0  0
    5.1970    0.5790   20.3740 C   0  0  0  0  0  0  0  0  0  0  0  0
    4.4430    1.6900   19.9820 C   0  0  0  0  0  0  0  0  0  0  0  0
    4.5040    2.1260   18.6700 C   0  0  0  0  0  0  0  0  0  0  0  0
    5.3140    1.4430   17.7770 C   0  0  0  0  0  0  0  0  0  0  0  0
    6.0550    0.3660   18.1050 N   0  0  0  0  0  0  0  0  0  0  0  0
    5.9790   -0.0440   19.3990 C   0  0  0  0  0  0  0  0  0  0  0  0
    7.0700   -0.5260   22.5590 C   0  0  0  0  0  0  0  0  0  0  0  0
    8.5490   -0.9040   23.1370 C   0  0  0  0  0  0  0  0  0  0  0  0
    9.3970   -1.9580   22.7550 C   0  0  0  0  0  0  0  0  0  0  0  0
    9.0280   -3.0940   22.4210 O   0  0  0  0  0  0  0  0  0  0  0  0
   10.6990   -1.5090   22.8370 N   0  0  0  0  0  0  0  0  0  0  0  0
   11.6750   -2.2770   22.2420 C   0  0  0  0  0  0  0  0  0  0  0  0
   12.9750   -2.4990   22.9370 C   0  0  0  0  0  0  0  0  0  0  0  0
   13.1870   -1.8830   24.2070 C   0  0  0  0  0  0  0  0  0  0  0  0
   12.2430   -1.1060   24.7470 C   0  0  0  0  0  0  0  0  0  0  0  0
   10.9300   -0.8880   24.0630 C   0  0  0  0  0  0  0  0  0  0  0  0
   10.0420   -0.1460   24.6690 N   0  0  0  0  0  0  0  0  0  0  0  0
    8.7980    0.0840   24.1110 C   0  0  0  0  0  0  0  0  0  0  0  0
  1  2  1  0
  2  3  1  0
  3  4  1  0
  4  5  1  0
  5  6  1  0
  6  7  1  0
  7  8  1  0
  8  9  2  0
  8 10  1  0
 10 11  1  0
 11 12  2  0
 12 13  1  0
 13 14  2  0
 14 15  1  0
 11 16  1  0
 15 16  2  0
  7 17  2  0
 17 18  1  0
 18 19  1  0
 19 20  2  0
 19 21  1  0
 21 22  1  0
 22 23  2  0
 23 24  1  0
 24 25  2  0
 21 26  1  0
 25 26  1  0
 26 27  2  0
  6 28  1  0
 18 28  2  0
 27 28  1  0
M  END
