KEI-TRE-d5e2018a-6
     RDKit          3D

 22 24  0  0  0  0  0  0  0  0999 V2000
    9.1520    1.2970   21.3350 O   0  0  0  0  0  0  0  0  0  0  0  0
    8.6590    0.1680   21.4700 C   0  0  0  0  0  0  0  0  0  0  0  0
    9.4600   -1.0670   21.8390 C   0  0  0  0  0  0  0  0  0  0  0  0
   10.7550   -0.7420   22.3630 N   0  0  0  0  0  0  0  0  0  0  0  0
   11.8180   -1.5530   21.9690 C   0  0  0  0  0  0  0  0  0  0  0  0
   11.7400   -2.3440   21.0450 O   0  0  0  0  0  0  0  0  0  0  0  0
   13.0280   -1.4640   22.6600 C   0  0  0  0  0  0  0  0  0  0  0  0
   13.0250   -0.6790   23.8320 O   0  0  0  0  0  0  0  0  0  0  0  0
   11.7870   -0.5610   24.3820 C   0  0  0  0  0  0  0  0  0  0  0  0
   11.6940   -0.4230   25.7040 C   0  0  0  0  0  0  0  0  0  0  0  0
   10.3030   -0.2830   26.3830 C   0  0  0  0  0  0  0  0  0  0  0  0
    9.1900   -0.3050   25.5800 C   0  0  0  0  0  0  0  0  0  0  0  0
    7.6190   -0.1450   26.2680 Cl  0  0  0  0  0  0  0  0  0  0  0  0
    9.3610   -0.4540   24.2360 C   0  0  0  0  0  0  0  0  0  0  0  0
   10.6350   -0.5800   23.6770 C   0  0  0  0  0  0  0  0  0  0  0  0
    7.3450   -0.1590   21.2950 N   0  0  0  0  0  0  0  0  0  0  0  0
    6.6070    0.3280   20.2380 C   0  0  0  0  0  0  0  0  0  0  0  0
    5.5000    1.1470   20.3570 C   0  0  0  0  0  0  0  0  0  0  0  0
    4.7800    1.6380   19.1120 C   0  0  0  0  0  0  0  0  0  0  0  0
    5.2690    1.2410   17.8820 C   0  0  0  0  0  0  0  0  0  0  0  0
    6.3370    0.4430   17.7360 N   0  0  0  0  0  0  0  0  0  0  0  0
    7.0090   -0.0200   18.9600 C   0  0  0  0  0  0  0  0  0  0  0  0
  1  2  2  0
  2  3  1  0
  3  4  1  0
  4  5  1  0
  5  6  2  0
  5  7  1  0
  7  8  1  0
  8  9  1  0
  9 10  2  0
 10 11  1  0
 11 12  2  0
 12 13  1  0
 12 14  1  0
  4 15  1  0
  9 15  1  0
 14 15  2  0
  2 16  1  0
 16 17  1  0
 17 18  2  0
 18 19  1  0
 19 20  2  0
 20 21  1  0
 17 22  1  0
 21 22  2  0
M  END
