KEI-TRE-d5e2018a-4
     RDKit          3D

 24 25  0  0  0  0  0  0  0  0999 V2000
   12.5170   -0.2180   24.8550 C   0  0  0  0  0  0  0  0  0  0  0  0
   10.8110   -0.6720   24.8850 S   0  0  0  0  0  0  0  0  0  0  0  0
   10.7440   -2.1050   24.6920 O   0  0  0  0  0  0  0  0  0  0  0  0
   10.0590   -0.0120   25.9280 O   0  0  0  0  0  0  0  0  0  0  0  0
   10.4320   -0.0470   23.3970 N   0  0  0  0  0  0  0  0  0  0  0  0
    9.0040    0.3080   23.2280 C   0  0  0  0  0  0  0  0  0  0  0  0
    8.5980    0.7180   21.8210 C   0  0  0  0  0  0  0  0  0  0  0  0
    9.0830    1.7240   21.2970 O   0  0  0  0  0  0  0  0  0  0  0  0
    7.6560   -0.1070   21.2420 N   0  0  0  0  0  0  0  0  0  0  0  0
    6.8770    0.2600   20.1400 C   0  0  0  0  0  0  0  0  0  0  0  0
    5.8040    1.1230   20.3640 C   0  0  0  0  0  0  0  0  0  0  0  0
    5.0030    1.5310   19.3030 C   0  0  0  0  0  0  0  0  0  0  0  0
    5.3080    1.0590   18.0470 C   0  0  0  0  0  0  0  0  0  0  0  0
    6.3260    0.2290   17.8030 N   0  0  0  0  0  0  0  0  0  0  0  0
    7.0910   -0.1600   18.8440 C   0  0  0  0  0  0  0  0  0  0  0  0
   10.9010   -0.9580   22.4410 C   0  0  0  0  0  0  0  0  0  0  0  0
   12.1860   -0.4650   22.3290 C   0  0  0  0  0  0  0  0  0  0  0  0
   13.1410   -1.2660   21.4820 C   0  0  0  0  0  0  0  0  0  0  0  0
   13.3030   -2.6930   21.4170 C   0  0  0  0  0  0  0  0  0  0  0  0
   12.8080   -2.2700   22.4430 C   0  0  0  0  0  0  0  0  0  0  0  0
   12.9610   -2.4070   23.8940 N   0  0  0  0  0  0  0  0  0  0  0  0
   12.9190   -1.3660   24.5400 O   0  0  0  0  0  0  0  0  0  0  0  0
   13.6900   -3.3300   24.2450 O   0  0  0  0  0  0  0  0  0  0  0  0
   11.6530   -1.7080   21.7910 C   0  0  0  0  0  0  0  0  0  0  0  0
  1  2  1  0
  2  3  2  0
  2  4  2  0
  2  5  1  0
  5  6  1  0
  6  7  1  0
  7  8  2  0
  7  9  1  0
  9 10  1  0
 10 11  2  0
 11 12  1  0
 12 13  2  0
 13 14  1  0
 10 15  1  0
 14 15  2  0
  5 16  1  0
 16 17  2  0
 17 18  1  0
 18 19  2  0
 19 20  1  0
 20 21  1  0
 21 22  2  0
 21 23  1  0
 16 24  1  0
 20 24  2  0
M  CHG  2  21   1  23  -1
M  END
