KEI-UNI-85a52787-1
     RDKit          3D

 32 35  0  0  0  0  0  0  0  0999 V2000
    6.0210   -2.3930   19.1360 C   0  0  0  0  0  0  0  0  0  0  0  0
    5.8590   -3.3540   20.1280 C   0  0  0  0  0  0  0  0  0  0  0  0
    5.4150   -4.4620   19.8170 O   0  0  0  0  0  0  0  0  0  0  0  0
    6.2350   -3.0330   21.4330 N   0  0  0  0  0  0  0  0  0  0  0  0
    6.9290   -3.9740   22.2890 C   0  0  0  0  0  0  0  0  0  0  0  0
    7.7290   -3.2320   23.3800 C   0  0  0  0  0  0  0  0  0  0  0  0
    8.8580   -2.4460   22.8590 N   0  0  0  0  0  0  0  0  0  0  0  0
    9.9280   -2.1890   23.8640 C   0  0  0  0  0  0  0  0  0  0  0  0
   10.6480   -0.8620   23.6380 C   0  0  0  0  0  0  0  0  0  0  0  0
   11.9330   -0.7590   23.0690 C   0  0  0  0  0  0  0  0  0  0  0  0
   12.5560    0.6260   22.8450 C   0  0  0  0  0  0  0  0  0  0  0  0
   11.7540    1.8310   23.2270 C   0  0  0  0  0  0  0  0  0  0  0  0
   12.3520    3.1980   22.9470 C   0  0  0  0  0  0  0  0  0  0  0  0
   11.4710    4.4160   23.3440 C   0  0  0  0  0  0  0  0  0  0  0  0
   12.0000    6.0760   23.0440 S   0  0  0  0  0  0  0  0  0  0  0  0
   12.2680    6.6530   24.5880 N   0  0  0  0  0  0  0  0  0  0  0  0
   10.8460    6.8270   22.5960 O   0  0  0  0  0  0  0  0  0  0  0  0
   13.2520    6.0870   22.3270 O   0  0  0  0  0  0  0  0  0  0  0  0
   10.1990    4.2670   23.9540 C   0  0  0  0  0  0  0  0  0  0  0  0
    9.6890    2.8770   24.1980 C   0  0  0  0  0  0  0  0  0  0  0  0
   10.4880    1.6640   23.8090 C   0  0  0  0  0  0  0  0  0  0  0  0
    9.9500    0.2760   24.0160 C   0  0  0  0  0  0  0  0  0  0  0  0
    8.7360    0.1340   24.5700 F   0  0  0  0  0  0  0  0  0  0  0  0
    8.5770   -1.4010   21.8300 C   0  0  0  0  0  0  0  0  0  0  0  0
    7.1990   -0.7060   21.8060 C   0  0  1  0  0  0  0  0  0  0  0  0
    6.8710   -0.1190   20.4470 C   0  0  0  0  0  0  0  0  0  0  0  0
    7.3970   -0.8510   19.2470 C   0  0  0  0  0  0  0  0  0  0  0  0
    7.0910   -0.3380   18.0140 C   0  0  0  0  0  0  0  0  0  0  0  0
    6.3120    0.8260   17.9350 C   0  0  0  0  0  0  0  0  0  0  0  0
    5.8240    1.5000   19.0110 N   0  0  0  0  0  0  0  0  0  0  0  0
    6.1130    1.0220   20.2410 C   0  0  0  0  0  0  0  0  0  0  0  0
    6.0150   -1.6890   21.9770 C   0  0  0  0  0  0  0  0  0  0  0  0
  1  2  1  0
  2  3  2  0
  2  4  1  0
  4  5  1  0
  5  6  1  0
  6  7  1  0
  7  8  1  0
  8  9  1  0
  9 10  2  0
 10 11  1  0
 11 12  2  0
 12 13  1  0
 13 14  2  0
 14 15  1  0
 15 16  1  0
 15 17  2  0
 15 18  2  0
 14 19  1  0
 19 20  2  0
 12 21  1  0
 20 21  1  0
  9 22  1  0
 21 22  2  0
 22 23  1  0
  7 24  1  0
 24 25  1  0
 25 26  1  6
 26 27  2  0
 27 28  1  0
 28 29  2  0
 29 30  1  0
 26 31  1  0
 30 31  2  0
  4 32  1  0
 25 32  1  0
M  END
