KEI-UNI-85a52787-6
     RDKit          3D

 31 34  0  0  0  0  0  0  0  0999 V2000
    5.3760   -2.2940   19.5650 C   0  0  0  0  0  0  0  0  0  0  0  0
    5.3410   -3.4000   20.4110 C   0  0  0  0  0  0  0  0  0  0  0  0
    5.2090   -4.5270   19.9200 O   0  0  0  0  0  0  0  0  0  0  0  0
    5.4840   -3.2260   21.7890 N   0  0  0  0  0  0  0  0  0  0  0  0
    6.2210   -4.2260   22.5680 C   0  0  0  0  0  0  0  0  0  0  0  0
    7.3020   -3.6670   23.5400 C   0  0  0  0  0  0  0  0  0  0  0  0
    7.9210   -2.3470   23.2500 N   0  0  0  0  0  0  0  0  0  0  0  0
    9.3800   -2.2320   23.5410 C   0  0  0  0  0  0  0  0  0  0  0  0
    9.7530   -0.7240   23.6860 C   0  0  0  0  0  0  0  0  0  0  0  0
    8.5940   -1.0500   23.9820 C   0  0  0  0  0  0  0  0  0  0  0  0
    9.8950   -1.8780   23.4960 C   0  0  0  0  0  0  0  0  0  0  0  0
   11.2510   -0.9640   23.2440 C   0  0  0  0  0  0  0  0  0  0  0  0
   12.6040   -1.2930   22.8200 N   0  0  0  0  0  0  0  0  0  0  0  0
   12.1960   -0.2020   23.0850 C   0  0  0  0  0  0  0  0  0  0  0  0
   11.5090   -1.5610   23.1600 C   0  0  0  0  0  0  0  0  0  0  0  0
   12.8470   -1.8930   23.3480 N   0  0  0  0  0  0  0  0  0  0  0  0
   11.4410   -2.7880   23.2910 O   0  0  0  0  0  0  0  0  0  0  0  0
   13.2550    0.7640   22.8580 C   0  0  0  0  0  0  0  0  0  0  0  0
   12.2170    1.6580   23.2940 C   0  0  0  0  0  0  0  0  0  0  0  0
   11.0810    0.5860   23.4990 C   0  0  0  0  0  0  0  0  0  0  0  0
    9.7140    0.6030   23.9140 C   0  0  0  0  0  0  0  0  0  0  0  0
    8.8140    1.5150   24.3210 F   0  0  0  0  0  0  0  0  0  0  0  0
    7.5410   -1.6110   22.0310 C   0  0  0  0  0  0  0  0  0  0  0  0
    6.2300   -0.8730   22.1530 C   0  0  1  0  0  0  0  0  0  0  0  0
    5.8740    0.0140   20.9590 C   0  0  0  0  0  0  0  0  0  0  0  0
    6.7710   -0.0220   19.7340 C   0  0  0  0  0  0  0  0  0  0  0  0
    6.4160    0.7910   18.6770 C   0  0  0  0  0  0  0  0  0  0  0  0
    5.2680    1.5940   18.7720 C   0  0  0  0  0  0  0  0  0  0  0  0
    4.4590    1.6410   19.8590 N   0  0  0  0  0  0  0  0  0  0  0  0
    4.7740    0.8620   20.9180 C   0  0  0  0  0  0  0  0  0  0  0  0
    5.1520   -1.9330   22.4140 C   0  0  0  0  0  0  0  0  0  0  0  0
  1  2  1  0
  2  3  2  0
  2  4  1  0
  4  5  1  0
  5  6  1  0
  6  7  1  0
  7  8  1  0
  8  9  1  0
  9 10  2  0
 10 11  1  0
 11 12  2  0
 12 13  1  0
 13 14  2  0
 14 15  1  0
 15 16  1  0
 15 17  2  0
 14 18  1  0
 18 19  2  0
 12 20  1  0
 19 20  1  0
  9 21  1  0
 20 21  2  0
 21 22  1  0
  7 23  1  0
 23 24  1  0
 24 25  1  6
 25 26  2  0
 26 27  1  0
 27 28  2  0
 28 29  1  0
 25 30  1  0
 29 30  2  0
  4 31  1  0
 24 31  1  0
M  END
