KEI-TRE-d5e2018a-3
     RDKit          3D

 34 38  0  0  0  0  0  0  0  0999 V2000
   11.7240   -1.4320   24.8720 C   0  0  0  0  0  0  0  0  0  0  0  0
   11.0090   -1.9500   23.6750 C   0  0  0  0  0  0  0  0  0  0  0  0
   10.2310   -0.9230   23.1630 C   0  0  0  0  0  0  0  0  0  0  0  0
    9.2570   -0.4390   22.1150 C   0  0  0  0  0  0  0  0  0  0  0  0
    9.4320    0.6980   21.7090 O   0  0  0  0  0  0  0  0  0  0  0  0
    8.2250   -1.2650   21.6910 N   0  0  0  0  0  0  0  0  0  0  0  0
    7.1280   -0.8200   20.8760 C   0  0  0  0  0  0  0  0  0  0  0  0
    5.9050   -0.3560   21.3690 C   0  0  0  0  0  0  0  0  0  0  0  0
    4.9150    0.0590   20.4800 C   0  0  0  0  0  0  0  0  0  0  0  0
    5.1490    0.0080   19.1190 C   0  0  0  0  0  0  0  0  0  0  0  0
    6.2990   -0.4260   18.5870 N   0  0  0  0  0  0  0  0  0  0  0  0
    7.2460   -0.8250   19.4770 C   0  0  0  0  0  0  0  0  0  0  0  0
   10.8870   -0.1710   24.2810 C   0  0  2  0  0  0  0  0  0  0  0  0
   11.1530    1.1230   23.8250 C   0  0  0  0  0  0  0  0  0  0  0  0
   10.0850    2.0220   23.8860 C   0  0  0  0  0  0  0  0  0  0  0  0
   10.2290    3.3420   23.4500 C   0  0  0  0  0  0  0  0  0  0  0  0
   11.4510    3.7850   22.9500 C   0  0  0  0  0  0  0  0  0  0  0  0
   12.5110    2.9000   22.8920 C   0  0  0  0  0  0  0  0  0  0  0  0
   13.7080    3.3120   22.4220 O   0  0  0  0  0  0  0  0  0  0  0  0
   12.3830    1.5740   23.3170 C   0  0  0  0  0  0  0  0  0  0  0  0
   12.0950   -1.1670   24.7850 N   0  0  0  0  0  0  0  0  0  0  0  0
   13.1130   -0.8260   25.6350 N   0  0  0  0  0  0  0  0  0  0  0  0
   13.9100   -1.9590   25.8230 C   0  0  0  0  0  0  0  0  0  0  0  0
   15.4710   -1.9230   26.9040 S   0  0  0  0  0  0  0  0  0  0  0  0
   16.5180    0.1760   27.8530 C   0  0  0  0  0  0  0  0  0  0  0  0
   18.3850    1.9330   28.0640 C   0  0  0  0  0  0  0  0  0  0  0  0
   19.4290    2.5630   27.0450 C   0  0  0  0  0  0  0  0  0  0  0  0
   20.4750    3.4730   27.0930 C   0  0  0  0  0  0  0  0  0  0  0  0
   20.7900    4.0750   28.2040 C   0  0  0  0  0  0  0  0  0  0  0  0
   19.9720    3.7610   29.1910 C   0  0  0  0  0  0  0  0  0  0  0  0
   18.8830    2.8380   29.0910 C   0  0  0  0  0  0  0  0  0  0  0  0
   13.4380   -3.0520   25.1000 N   0  0  0  0  0  0  0  0  0  0  0  0
   12.3450   -2.5960   24.4680 C   0  0  0  0  0  0  0  0  0  0  0  0
   11.4220   -3.1260   23.6150 N   0  0  0  0  0  0  0  0  0  0  0  0
  1  2  1  0
  2  3  2  0
  3  4  1  0
  4  5  2  0
  4  6  1  0
  6  7  1  0
  7  8  2  0
  8  9  1  0
  9 10  2  0
 10 11  1  0
  7 12  1  0
 11 12  2  0
  3 13  1  0
 13 14  1  6
 14 15  2  0
 15 16  1  0
 16 17  2  0
 17 18  1  0
 18 19  1  0
 14 20  1  0
 18 20  2  0
 13 21  1  0
 21 22  1  0
 22 23  2  0
 23 24  1  0
 24 25  1  0
 25 26  1  0
 26 27  2  0
 27 28  1  0
 28 29  2  0
 29 30  1  0
 26 31  1  0
 30 31  2  0
 23 32  1  0
 21 33  1  0
 32 33  2  0
  2 34  1  0
 33 34  1  0
M  END
