KEN-MCD-4729dc98-1
     RDKit          3D

 37 41  0  0  0  0  0  0  0  0999 V2000
    5.7790   -4.3940   20.0580 O   0  0  0  0  0  0  0  0  0  0  0  0
    6.5660   -4.1880   21.0080 C   0  0  0  0  0  0  0  0  0  0  0  0
    7.3040   -2.8440   21.1260 C   0  0  2  0  0  0  0  0  0  0  0  0
    8.2490   -2.5210   22.3690 C   0  0  0  0  0  0  0  0  0  0  0  0
    8.7110   -1.0820   22.4170 N   0  0  0  0  0  0  0  0  0  0  0  0
   10.1410   -0.7890   22.5970 C   0  0  0  0  0  0  0  0  0  0  0  0
   10.2150    0.3660   23.5750 C   0  0  0  0  0  0  0  0  0  0  0  0
   11.6450    0.9030   23.9230 C   0  0  0  0  0  0  0  0  0  0  0  0
   12.8650    0.2200   23.2580 C   0  0  0  0  0  0  0  0  0  0  0  0
   12.6250   -0.9480   22.2940 C   0  0  0  0  0  0  0  0  0  0  0  0
   11.2260   -1.3860   22.0190 C   0  0  0  0  0  0  0  0  0  0  0  0
    8.0840   -0.1220   21.5290 C   0  0  0  0  0  0  0  0  0  0  0  0
    8.6560    0.9030   21.1600 O   0  0  0  0  0  0  0  0  0  0  0  0
    6.7260   -0.4520   21.1150 N   0  0  0  0  0  0  0  0  0  0  0  0
    6.2530    0.2070   19.9100 C   0  0  0  0  0  0  0  0  0  0  0  0
    5.1100    0.9430   20.0660 C   0  0  0  0  0  0  0  0  0  0  0  0
    4.5560    1.6210   19.0030 C   0  0  0  0  0  0  0  0  0  0  0  0
    5.2090    1.5230   17.7670 C   0  0  0  0  0  0  0  0  0  0  0  0
    6.3500    0.7750   17.6440 N   0  0  0  0  0  0  0  0  0  0  0  0
    6.8470    0.1320   18.7050 C   0  0  0  0  0  0  0  0  0  0  0  0
    6.2250   -1.8090   21.2720 C   0  0  0  0  0  0  0  0  0  0  0  0
    6.7120   -5.2060   21.9520 N   0  0  0  0  0  0  0  0  0  0  0  0
    7.3270   -4.9380   23.2510 C   0  0  0  0  0  0  0  0  0  0  0  0
    6.3480   -4.4270   24.1040 C   0  0  0  0  0  0  0  0  0  0  0  0
    5.4550   -5.4520   24.3030 N   0  0  0  0  0  0  0  0  0  0  0  0
    4.7330   -5.5750   25.8420 S   0  0  0  0  0  0  0  0  0  0  0  0
    4.0270   -6.8360   25.9170 O   0  0  0  0  0  0  0  0  0  0  0  0
    5.7430   -5.2180   26.8150 O   0  0  0  0  0  0  0  0  0  0  0  0
    3.5060   -4.2790   25.8290 C   0  0  0  0  0  0  0  0  0  0  0  0
    2.1250   -4.5550   25.7470 C   0  0  0  0  0  0  0  0  0  0  0  0
    1.0710   -3.5960   25.7360 C   0  0  0  0  0  0  0  0  0  0  0  0
    1.3640   -2.1410   25.8170 C   0  0  0  0  0  0  0  0  0  0  0  0
    2.8590   -1.8540   25.9000 C   0  0  0  0  0  0  0  0  0  0  0  0
    3.2470   -0.5710   25.9760 F   0  0  0  0  0  0  0  0  0  0  0  0
    3.9010   -2.9270   25.9040 C   0  0  0  0  0  0  0  0  0  0  0  0
    4.8040   -5.8360   23.1490 C   0  0  0  0  0  0  0  0  0  0  0  0
    5.7890   -6.2140   22.0790 C   0  0  0  0  0  0  0  0  0  0  0  0
  1  2  2  0
  3  2  1  1
  3  4  1  0
  4  5  1  0
  5  6  1  0
  6  7  2  0
  7  8  1  0
  8  9  2  0
  9 10  1  0
  6 11  1  0
 10 11  2  0
  5 12  1  0
 12 13  2  0
 12 14  1  0
 14 15  1  0
 15 16  2  0
 16 17  1  0
 17 18  2  0
 18 19  1  0
 15 20  1  0
 19 20  2  0
  3 21  1  0
 14 21  1  0
  2 22  1  0
 22 23  1  0
 23 24  1  0
 24 25  1  0
 25 26  1  0
 26 27  2  0
 26 28  2  0
 26 29  1  0
 29 30  2  0
 30 31  1  0
 31 32  2  0
 32 33  1  0
 33 34  1  0
 29 35  1  0
 33 35  2  0
 25 36  1  0
 22 37  1  0
 36 37  1  0
M  END
