KEN-UNI-c79d77dd-1
     RDKit          3D

 23 25  0  0  0  0  0  0  0  0999 V2000
    7.0060   -0.5650   18.8120 C   0  0  0  0  0  0  0  0  0  0  0  0
    6.8380   -0.9200   20.2900 C   0  0  0  0  0  0  0  0  0  0  0  0
    5.7970   -1.4070   20.7200 O   0  0  0  0  0  0  0  0  0  0  0  0
    7.9380   -0.6540   21.0860 N   0  0  0  0  0  0  0  0  0  0  0  0
    8.2540    0.7370   21.3580 C   0  0  0  0  0  0  0  0  0  0  0  0
    8.3390   -1.5660   22.1820 C   0  0  0  0  0  0  0  0  0  0  0  0
    9.7580   -2.1240   22.1560 C   0  0  0  0  0  0  0  0  0  0  0  0
   10.8800   -1.2720   22.3420 C   0  0  0  0  0  0  0  0  0  0  0  0
   11.2420   -0.8030   23.6140 N   0  0  0  0  0  0  0  0  0  0  0  0
   10.1860    0.1640   24.2200 C   0  0  0  0  0  0  0  0  0  0  0  0
    9.2550   -0.7320   24.9970 C   0  0  0  0  0  0  0  0  0  0  0  0
    8.1010   -0.2920   25.7510 C   0  0  0  0  0  0  0  0  0  0  0  0
    8.0890    1.0050   25.5770 C   0  0  0  0  0  0  0  0  0  0  0  0
    9.1720    0.9160   24.8290 C   0  0  0  0  0  0  0  0  0  0  0  0
    9.9310    1.7200   24.1760 C   0  0  0  0  0  0  0  0  0  0  0  0
   10.9620    2.2830   23.3650 C   0  0  0  0  0  0  0  0  0  0  0  0
   12.0900    1.6070   23.1360 C   0  0  0  0  0  0  0  0  0  0  0  0
   11.8570    0.3530   23.4210 C   0  0  0  0  0  0  0  0  0  0  0  0
   10.5980   -0.1450   23.2350 C   0  0  0  0  0  0  0  0  0  0  0  0
   10.3120   -1.5120   23.5530 C   0  0  0  0  0  0  0  0  0  0  0  0
   11.2840   -2.6040   24.1150 C   0  0  0  0  0  0  0  0  0  0  0  0
   12.7030   -2.0600   24.3180 C   0  0  0  0  0  0  0  0  0  0  0  0
   12.5900   -0.6120   23.8790 C   0  0  0  0  0  0  0  0  0  0  0  0
  1  2  1  0
  2  3  2  0
  2  4  1  0
  4  5  1  0
  4  6  1  0
  6  7  1  0
  7  8  1  0
  8  9  1  0
  9 10  1  0
 10 11  2  0
 11 12  1  0
 12 13  2  0
 13 14  1  0
 10 15  1  0
 14 15  2  0
 15 16  1  0
 16 17  1  0
 17 18  1  0
 18 19  2  0
 19 20  1  0
 20 21  2  0
 21 22  1  0
  9 23  1  0
 18 23  1  0
 22 23  2  0
M  END
