KEN-MCD-6084b33e-1
     RDKit          3D

 22 23  0  0  0  0  0  0  0  0999 V2000
    3.3250   -0.9870   27.3790 C   0  0  0  0  0  0  0  0  0  0  0  0
    3.2770   -0.5660   25.9370 C   0  0  0  0  0  0  0  0  0  0  0  0
    3.6270    0.5050   26.4370 O   0  0  0  0  0  0  0  0  0  0  0  0
    2.8980   -1.9140   25.8420 C   0  0  0  0  0  0  0  0  0  0  0  0
    1.5680   -2.2650   25.7100 C   0  0  0  0  0  0  0  0  0  0  0  0
    1.1540   -3.5740   25.6130 C   0  0  0  0  0  0  0  0  0  0  0  0
    2.1090   -4.5930   25.6520 C   0  0  0  0  0  0  0  0  0  0  0  0
    3.4650   -4.2590   25.7900 C   0  0  0  0  0  0  0  0  0  0  0  0
    4.6660   -5.5690   25.8520 S   0  0  0  0  0  0  0  0  0  0  0  0
    3.9650   -6.8290   25.8910 O   0  0  0  0  0  0  0  0  0  0  0  0
    5.6170   -5.2090   26.8790 O   0  0  0  0  0  0  0  0  0  0  0  0
    5.4970   -5.4970   24.3550 N   0  0  0  0  0  0  0  0  0  0  0  0
    6.3300   -4.2860   24.0970 C   0  0  0  0  0  0  0  0  0  0  0  0
    7.2840   -4.6500   23.1490 C   0  0  0  0  0  0  0  0  0  0  0  0
    6.5770   -5.0290   21.9160 N   0  0  0  0  0  0  0  0  0  0  0  0
    6.4090   -4.1480   20.8410 C   0  0  0  0  0  0  0  0  0  0  0  0
    5.5670   -4.3410   19.9410 O   0  0  0  0  0  0  0  0  0  0  0  0
    7.2440   -3.0210   20.8050 C   0  0  0  0  0  0  0  0  0  0  0  0
    6.6520   -1.9960   21.4810 F   0  0  0  0  0  0  0  0  0  0  0  0
    5.6020   -6.1080   22.1110 C   0  0  0  0  0  0  0  0  0  0  0  0
    4.7180   -5.8530   23.1680 C   0  0  0  0  0  0  0  0  0  0  0  0
    3.8680   -2.9210   25.8820 C   0  0  0  0  0  0  0  0  0  0  0  0
  1  2  1  0
  2  3  2  0
  2  4  1  0
  4  5  2  0
  5  6  1  0
  6  7  2  0
  7  8  1  0
  9  8  1  0
  9 10  2  0
  9 11  2  0
  9 12  1  0
 12 13  1  0
 13 14  1  0
 14 15  1  0
 15 16  1  0
 16 17  2  0
 16 18  1  0
 18 19  1  0
 15 20  1  0
 12 21  1  0
 20 21  1  0
  4 22  1  0
  8 22  2  0
M  END
