KIM-UNI-7d12df64-2-vinylsulfonamide
     RDKit          3D

 24 25  0  0  0  0  0  0  0  0999 V2000
    6.4690   -5.5760   20.2100 C   0  0  0  0  0  0  0  0  0  0  0  0
    6.7390   -4.4590   21.1540 C   0  0  0  0  0  0  0  0  0  0  0  0
    5.7020   -3.1700   20.6250 S   0  0  0  0  0  0  0  0  0  0  0  0
    4.6610   -3.0960   21.6300 O   0  0  0  0  0  0  0  0  0  0  0  0
    5.3150   -3.4800   19.2550 O   0  0  0  0  0  0  0  0  0  0  0  0
    6.8230   -1.7800   20.5740 C   0  0  0  0  0  0  0  0  0  0  0  0
    8.1520   -1.2330   20.9430 C   0  0  0  0  0  0  0  0  0  0  0  0
    9.4590   -1.0710   21.6940 C   0  0  0  0  0  0  0  0  0  0  0  0
    9.0230   -1.2540   22.8690 C   0  0  0  0  0  0  0  0  0  0  0  0
    9.7750   -0.9170   23.9600 N   0  0  0  0  0  0  0  0  0  0  0  0
    8.9460   -0.7960   25.0490 C   0  0  0  0  0  0  0  0  0  0  0  0
    9.2880   -0.4410   26.4490 C   0  0  0  0  0  0  0  0  0  0  0  0
    7.8610   -1.3620   22.2540 C   0  0  0  0  0  0  0  0  0  0  0  0
    6.5640   -0.7190   22.6500 C   0  0  0  0  0  0  0  0  0  0  0  0
    6.4170    0.5940   22.8140 N   0  0  0  0  0  0  0  0  0  0  0  0
    7.2450    1.2400   21.9090 C   0  0  0  0  0  0  0  0  0  0  0  0
    6.6810    1.5260   20.6690 C   0  0  0  0  0  0  0  0  0  0  0  0
    5.6800    0.6310   20.3990 N   0  0  0  0  0  0  0  0  0  0  0  0
    5.5620    0.0940   19.1300 C   0  0  0  0  0  0  0  0  0  0  0  0
    5.7080    1.0520   17.9460 C   0  0  0  0  0  0  0  0  0  0  0  0
    5.3310   -1.1000   18.9330 O   0  0  0  0  0  0  0  0  0  0  0  0
    4.5620    0.6870   21.3400 C   0  0  0  0  0  0  0  0  0  0  0  0
    5.1140    0.9900   22.7200 C   0  0  0  0  0  0  0  0  0  0  0  0
    7.7910   -2.3990   21.1550 C   0  0  0  0  0  0  0  0  0  0  0  0
  1  2  1  0
  3  2  1  0
  3  4  2  0
  3  5  2  0
  3  6  1  0
  6  7  2  0
  7  8  1  0
  8  9  2  0
  9 10  1  0
 10 11  1  0
 11 12  1  0
  9 13  1  0
 13 14  1  0
 14 15  1  0
 15 16  1  0
 16 17  1  0
 17 18  1  0
 18 19  1  0
 19 20  1  0
 19 21  2  0
 18 22  1  0
 15 23  1  0
 22 23  1  0
  6 24  1  0
 13 24  2  0
M  END
