KIM-UNI-7d12df64-3
     RDKit          3D

 21 22  0  0  0  0  0  0  0  0999 V2000
    8.5790    0.0270   27.5790 C   0  0  0  0  0  0  0  0  0  0  0  0
    8.7020   -0.4090   26.1310 C   0  0  0  0  0  0  0  0  0  0  0  0
    7.9030   -1.1960   25.6420 O   0  0  0  0  0  0  0  0  0  0  0  0
    9.8350    0.2530   25.5150 N   0  0  0  0  0  0  0  0  0  0  0  0
   10.6690   -0.2240   24.5030 C   0  0  0  0  0  0  0  0  0  0  0  0
   11.7750    0.5650   24.1130 C   0  0  0  0  0  0  0  0  0  0  0  0
   12.6770    0.1670   23.0890 C   0  0  0  0  0  0  0  0  0  0  0  0
   12.3880   -1.0230   22.5100 C   0  0  0  0  0  0  0  0  0  0  0  0
   13.3520   -1.6540   21.2660 Cl  0  0  0  0  0  0  0  0  0  0  0  0
   11.3350   -1.7590   22.8820 C   0  0  0  0  0  0  0  0  0  0  0  0
   10.3930   -1.4240   23.9120 C   0  0  0  0  0  0  0  0  0  0  0  0
    9.3080   -2.4740   24.1010 C   0  0  0  0  0  0  0  0  0  0  0  0
    8.1130   -2.2550   23.2800 N   0  0  0  0  0  0  0  0  0  0  0  0
    7.3780   -3.5150   23.0850 C   0  0  0  0  0  0  0  0  0  0  0  0
    6.1440   -3.3130   22.2840 C   0  0  0  0  0  0  0  0  0  0  0  0
    6.3760   -2.4770   21.1040 N   0  0  0  0  0  0  0  0  0  0  0  0
    6.0100   -2.9840   19.8740 C   0  0  0  0  0  0  0  0  0  0  0  0
    6.3540   -2.1400   18.6920 C   0  0  0  0  0  0  0  0  0  0  0  0
    5.4460   -4.0850   19.7320 O   0  0  0  0  0  0  0  0  0  0  0  0
    7.3290   -1.3640   21.2580 C   0  0  0  0  0  0  0  0  0  0  0  0
    8.4570   -1.7060   21.9570 C   0  0  0  0  0  0  0  0  0  0  0  0
  1  2  1  0
  2  3  2  0
  2  4  1  0
  4  5  1  0
  5  6  2  0
  6  7  1  0
  7  8  2  0
  8  9  1  0
  8 10  1  0
  5 11  1  0
 10 11  2  0
 11 12  1  0
 12 13  1  0
 13 14  1  0
 14 15  1  0
 15 16  1  0
 16 17  1  0
 17 18  1  0
 17 19  2  0
 16 20  1  0
 13 21  1  0
 20 21  1  0
M  END
