KIM-UNI-60f168f5-2
     RDKit          3D

 15 16  0  0  0  0  0  0  0  0999 V2000
    5.3210    0.8750   22.0980 C   0  0  0  0  0  0  0  0  0  0  0  0
    5.7590    0.6380   20.6590 C   0  0  0  0  0  0  0  0  0  0  0  0
    4.8760    1.2800   19.5770 C   0  0  0  0  0  0  0  0  0  0  0  0
    5.2970    1.0520   18.1510 C   0  0  0  0  0  0  0  0  0  0  0  0
    6.3720    0.3290   17.8260 N   0  0  0  0  0  0  0  0  0  0  0  0
    7.0830   -0.1960   18.8520 C   0  0  0  0  0  0  0  0  0  0  0  0
    6.8760   -0.1020   20.2430 C   0  0  0  0  0  0  0  0  0  0  0  0
    7.7430   -0.7180   21.1140 N   0  0  0  0  0  0  0  0  0  0  0  0
    8.9060    0.0810   21.5460 C   0  0  0  0  0  0  0  0  0  0  0  0
    9.1150    1.2920   21.3060 O   0  0  0  0  0  0  0  0  0  0  0  0
    9.8550   -0.6640   22.2740 C   0  0  0  0  0  0  0  0  0  0  0  0
    9.3250   -1.5200   23.2460 C   0  0  0  0  0  0  0  0  0  0  0  0
    8.3270   -2.2880   22.6650 N   0  0  0  0  0  0  0  0  0  0  0  0
    7.3060   -1.8310   21.8110 C   0  0  0  0  0  0  0  0  0  0  0  0
    6.1970   -2.3610   21.7150 O   0  0  0  0  0  0  0  0  0  0  0  0
  1  2  1  0
  2  3  2  0
  3  4  1  0
  4  5  2  0
  5  6  1  0
  2  7  1  0
  6  7  2  0
  7  8  1  0
  8  9  1  0
  9 10  2  0
  9 11  1  0
 11 12  1  0
 12 13  1  0
  8 14  1  0
 13 14  1  0
 14 15  2  0
M  END
