KIM-UNI-7d12df64-2-chloroacetamide
     RDKit          3D

 22 23  0  0  0  0  0  0  0  0999 V2000
    6.2130   -4.5840   20.1640 C   0  0  0  0  0  0  0  0  0  0  0  0
    6.6510   -3.2670   19.6120 C   0  0  0  0  0  0  0  0  0  0  0  0
    6.2510   -2.8650   18.5230 O   0  0  0  0  0  0  0  0  0  0  0  0
    7.6170   -2.4970   20.4790 C   0  0  0  0  0  0  0  0  0  0  0  0
    8.5870   -2.8630   21.5530 C   0  0  0  0  0  0  0  0  0  0  0  0
    9.5340   -1.7620   22.3300 C   0  0  0  0  0  0  0  0  0  0  0  0
    9.4900   -0.3120   22.0180 C   0  0  0  0  0  0  0  0  0  0  0  0
   10.4580   -0.1280   22.9780 N   0  0  0  0  0  0  0  0  0  0  0  0
    9.9250    0.5680   24.0390 C   0  0  0  0  0  0  0  0  0  0  0  0
    9.5910    0.0480   25.3950 C   0  0  0  0  0  0  0  0  0  0  0  0
    8.8160   -1.1630   21.4880 C   0  0  0  0  0  0  0  0  0  0  0  0
    9.1020   -2.5350   22.1010 C   0  0  0  0  0  0  0  0  0  0  0  0
    8.6740   -2.9740   23.3220 N   0  0  0  0  0  0  0  0  0  0  0  0
    7.9870   -1.9880   24.0040 C   0  0  0  0  0  0  0  0  0  0  0  0
    6.7510   -1.6580   23.4830 C   0  0  0  0  0  0  0  0  0  0  0  0
    6.0120   -2.8030   23.3360 N   0  0  0  0  0  0  0  0  0  0  0  0
    5.1880   -2.8810   22.2390 C   0  0  0  0  0  0  0  0  0  0  0  0
    5.2530   -1.7230   21.2180 C   0  0  0  0  0  0  0  0  0  0  0  0
    4.3200   -3.9940   22.0540 O   0  0  0  0  0  0  0  0  0  0  0  0
    6.6170   -4.0120   23.9180 C   0  0  0  0  0  0  0  0  0  0  0  0
    8.0100   -4.1760   23.3360 C   0  0  0  0  0  0  0  0  0  0  0  0
    7.9400   -1.3400   20.6020 C   0  0  0  0  0  0  0  0  0  0  0  0
  1  2  1  0
  2  3  2  0
  2  4  1  0
  4  5  2  0
  5  6  1  0
  6  7  2  0
  7  8  1  0
  8  9  1  0
  9 10  1  0
  7 11  1  0
 11 12  1  0
 12 13  1  0
 13 14  1  0
 14 15  1  0
 15 16  1  0
 16 17  1  0
 17 18  1  0
 17 19  2  0
 16 20  1  0
 13 21  1  0
 20 21  1  0
  4 22  1  0
 11 22  2  0
M  END
