KIM-UNI-60f168f5-6
     RDKit          3D

 20 21  0  0  0  0  0  0  0  0999 V2000
    5.3550    0.7110   22.1720 C   0  0  0  0  0  0  0  0  0  0  0  0
    5.7950    0.4810   20.7300 C   0  0  0  0  0  0  0  0  0  0  0  0
    4.8500    1.0490   19.6520 C   0  0  0  0  0  0  0  0  0  0  0  0
    5.2620    0.8400   18.2200 C   0  0  0  0  0  0  0  0  0  0  0  0
    6.3810    0.1970   17.8830 N   0  0  0  0  0  0  0  0  0  0  0  0
    7.1450   -0.2660   18.9050 C   0  0  0  0  0  0  0  0  0  0  0  0
    6.9630   -0.1740   20.3050 C   0  0  0  0  0  0  0  0  0  0  0  0
    7.9030   -0.7110   21.1720 N   0  0  0  0  0  0  0  0  0  0  0  0
    8.9430    0.2310   21.5940 C   0  0  0  0  0  0  0  0  0  0  0  0
    9.1150    1.4070   21.2110 O   0  0  0  0  0  0  0  0  0  0  0  0
    9.8170   -0.3320   22.5300 C   0  0  0  0  0  0  0  0  0  0  0  0
   10.0240   -1.6970   22.3460 C   0  0  0  0  0  0  0  0  0  0  0  0
    8.8330   -2.3760   22.5900 N   0  0  0  0  0  0  0  0  0  0  0  0
    8.8630   -3.7050   23.0870 C   0  0  0  0  0  0  0  0  0  0  0  0
    8.1180   -4.0330   24.2290 C   0  0  0  0  0  0  0  0  0  0  0  0
    8.8120   -4.7930   25.1970 C   0  0  0  0  0  0  0  0  0  0  0  0
    8.2750   -4.9080   26.3660 N   0  0  0  0  0  0  0  0  0  0  0  0
    9.8820   -5.3450   25.0000 O   0  0  0  0  0  0  0  0  0  0  0  0
    7.6970   -1.9200   21.8950 C   0  0  0  0  0  0  0  0  0  0  0  0
    6.6340   -2.5480   21.9430 O   0  0  0  0  0  0  0  0  0  0  0  0
  1  2  1  0
  2  3  2  0
  3  4  1  0
  4  5  2  0
  5  6  1  0
  2  7  1  0
  6  7  2  0
  7  8  1  0
  8  9  1  0
  9 10  2  0
  9 11  1  0
 11 12  1  0
 12 13  1  0
 13 14  1  0
 14 15  1  0
 15 16  1  0
 16 17  1  0
 16 18  2  0
  8 19  1  0
 13 19  1  0
 19 20  2  0
M  END
