KIM-UNI-7d12df64-1
     RDKit          3D

 20 21  0  0  0  0  0  0  0  0999 V2000
    8.7630   -0.3950   27.7130 C   0  0  0  0  0  0  0  0  0  0  0  0
    8.7650   -0.5600   26.2070 C   0  0  0  0  0  0  0  0  0  0  0  0
    9.7330    0.3140   25.5520 N   0  0  0  0  0  0  0  0  0  0  0  0
   10.6010   -0.1240   24.5510 C   0  0  0  0  0  0  0  0  0  0  0  0
   11.6770    0.6920   24.1400 C   0  0  0  0  0  0  0  0  0  0  0  0
   12.6100    0.2980   23.1230 C   0  0  0  0  0  0  0  0  0  0  0  0
   12.3720   -0.9280   22.5770 C   0  0  0  0  0  0  0  0  0  0  0  0
   13.3520   -1.5870   21.3600 Cl  0  0  0  0  0  0  0  0  0  0  0  0
   11.3440   -1.6760   22.9750 C   0  0  0  0  0  0  0  0  0  0  0  0
   10.3720   -1.3620   23.9850 C   0  0  0  0  0  0  0  0  0  0  0  0
    9.3290   -2.4540   24.1900 C   0  0  0  0  0  0  0  0  0  0  0  0
    8.1280   -2.2210   23.3690 N   0  0  0  0  0  0  0  0  0  0  0  0
    8.4840   -1.5860   22.0800 C   0  0  0  0  0  0  0  0  0  0  0  0
    7.2930   -1.3730   21.2200 C   0  0  0  0  0  0  0  0  0  0  0  0
    6.4000   -2.5370   21.1620 N   0  0  0  0  0  0  0  0  0  0  0  0
    6.0360   -3.0100   19.9140 C   0  0  0  0  0  0  0  0  0  0  0  0
    6.3860   -2.1500   18.7400 C   0  0  0  0  0  0  0  0  0  0  0  0
    5.4600   -4.1010   19.7480 O   0  0  0  0  0  0  0  0  0  0  0  0
    6.2490   -3.3000   22.4110 C   0  0  0  0  0  0  0  0  0  0  0  0
    7.4380   -3.4870   23.0750 C   0  0  0  0  0  0  0  0  0  0  0  0
  1  2  1  0
  2  3  1  0
  3  4  1  0
  4  5  2  0
  5  6  1  0
  6  7  2  0
  7  8  1  0
  7  9  1  0
  4 10  1  0
  9 10  2  0
 10 11  1  0
 11 12  1  0
 12 13  1  0
 13 14  1  0
 14 15  1  0
 15 16  1  0
 16 17  1  0
 16 18  2  0
 15 19  1  0
 12 20  1  0
 19 20  1  0
M  END
