KIM-UNI-7d12df64-2-chloroacetamide
     RDKit          3D

 22 23  0  0  0  0  0  0  0  0999 V2000
    8.4680   -3.7310   20.0300 C   0  0  0  0  0  0  0  0  0  0  0  0
    7.4650   -2.7150   19.8070 C   0  0  0  0  0  0  0  0  0  0  0  0
    6.5090   -2.8970   18.9340 O   0  0  0  0  0  0  0  0  0  0  0  0
    7.8380   -1.6160   20.8000 C   0  0  0  0  0  0  0  0  0  0  0  0
    7.8570   -0.1280   20.4800 C   0  0  0  0  0  0  0  0  0  0  0  0
    8.3290    0.3220   21.8470 C   0  0  0  0  0  0  0  0  0  0  0  0
    8.7210    0.0210   23.1900 C   0  0  0  0  0  0  0  0  0  0  0  0
    9.0800   -0.4100   24.4660 N   0  0  0  0  0  0  0  0  0  0  0  0
    8.5710    0.0940   25.6520 C   0  0  0  0  0  0  0  0  0  0  0  0
    9.3180   -0.4440   26.6610 C   0  0  0  0  0  0  0  0  0  0  0  0
    8.5640   -1.3570   23.1110 C   0  0  0  0  0  0  0  0  0  0  0  0
    8.7820   -2.3330   24.2620 C   0  0  0  0  0  0  0  0  0  0  0  0
    7.4370   -2.9330   24.4440 N   0  0  0  0  0  0  0  0  0  0  0  0
    6.4250   -1.9340   24.0510 C   0  0  0  0  0  0  0  0  0  0  0  0
    5.7190   -2.4790   22.8280 C   0  0  0  0  0  0  0  0  0  0  0  0
    5.4650   -3.3360   22.1350 N   0  0  0  0  0  0  0  0  0  0  0  0
    5.4180   -3.1530   20.6650 C   0  0  0  0  0  0  0  0  0  0  0  0
    5.3360   -1.7960   20.0910 C   0  0  0  0  0  0  0  0  0  0  0  0
    5.4230   -4.2820   19.7950 O   0  0  0  0  0  0  0  0  0  0  0  0
    6.1300   -4.5110   22.6990 C   0  0  0  0  0  0  0  0  0  0  0  0
    7.3610   -4.1850   23.6150 C   0  0  0  0  0  0  0  0  0  0  0  0
    8.1710   -2.0790   22.0150 C   0  0  0  0  0  0  0  0  0  0  0  0
  1  2  1  0
  2  3  2  0
  2  4  1  0
  4  5  2  0
  5  6  1  0
  6  7  2  0
  7  8  1  0
  8  9  1  0
  9 10  1  0
  7 11  1  0
 11 12  1  0
 12 13  1  0
 13 14  1  0
 14 15  1  0
 15 16  1  0
 16 17  1  0
 17 18  1  0
 17 19  2  0
 16 20  1  0
 13 21  1  0
 20 21  1  0
  4 22  1  0
 11 22  2  0
M  END
