KIM-UNI-60f168f5-1
     RDKit          3D

 14 15  0  0  0  0  0  0  0  0999 V2000
    9.8740   -0.6110   22.5420 C   0  0  0  0  0  0  0  0  0  0  0  0
    8.9360    0.1320   21.5900 C   0  0  0  0  0  0  0  0  0  0  0  0
    9.1320    1.3210   21.2700 O   0  0  0  0  0  0  0  0  0  0  0  0
    7.8670   -0.6300   21.1430 N   0  0  0  0  0  0  0  0  0  0  0  0
    6.8760   -0.0410   20.2650 C   0  0  0  0  0  0  0  0  0  0  0  0
    7.0790   -0.1830   18.7660 C   0  0  0  0  0  0  0  0  0  0  0  0
    6.2650    0.3130   17.8080 N   0  0  0  0  0  0  0  0  0  0  0  0
    5.2040    0.9720   18.2920 C   0  0  0  0  0  0  0  0  0  0  0  0
    4.9280    1.1480   19.6430 C   0  0  0  0  0  0  0  0  0  0  0  0
    5.7260    0.6630   20.6780 C   0  0  0  0  0  0  0  0  0  0  0  0
    5.3740    0.8850   22.0140 C   0  0  0  0  0  0  0  0  0  0  0  0
    3.9920    0.8450   22.2640 C   0  0  0  0  0  0  0  0  0  0  0  0
    3.3750    1.7610   21.4180 N   0  0  0  0  0  0  0  0  0  0  0  0
    3.6700    1.9250   20.0500 C   0  0  0  0  0  0  0  0  0  0  0  0
  1  2  1  0
  2  3  2  0
  2  4  1  0
  4  5  1  0
  5  6  2  0
  6  7  1  0
  7  8  2  0
  8  9  1  0
  5 10  1  0
  9 10  2  0
 10 11  1  0
 11 12  1  0
 12 13  1  0
  9 14  1  0
 13 14  1  0
M  END
