KIM-UNI-60f168f5-4
     RDKit          3D

 19 20  0  0  0  0  0  0  0  0999 V2000
    5.2900    0.7640   22.1430 C   0  0  0  0  0  0  0  0  0  0  0  0
    5.7370    0.5390   20.7000 C   0  0  0  0  0  0  0  0  0  0  0  0
    4.8390    1.1530   19.6180 C   0  0  0  0  0  0  0  0  0  0  0  0
    5.2670    0.9420   18.1880 C   0  0  0  0  0  0  0  0  0  0  0  0
    6.3640    0.2510   17.8600 N   0  0  0  0  0  0  0  0  0  0  0  0
    7.0860   -0.2550   18.8850 C   0  0  0  0  0  0  0  0  0  0  0  0
    6.8740   -0.1640   20.2790 C   0  0  0  0  0  0  0  0  0  0  0  0
    7.7640   -0.7470   21.1490 N   0  0  0  0  0  0  0  0  0  0  0  0
    8.7920    0.1670   21.6460 C   0  0  0  0  0  0  0  0  0  0  0  0
    9.0720    1.3110   21.2310 O   0  0  0  0  0  0  0  0  0  0  0  0
    9.4950   -0.3720   22.7220 C   0  0  0  0  0  0  0  0  0  0  0  0
    9.6840   -1.7580   22.6690 C   0  0  0  0  0  0  0  0  0  0  0  0
    8.4650   -2.4450   22.7020 N   0  0  0  0  0  0  0  0  0  0  0  0
    8.5360   -3.8540   22.8250 C   0  0  0  0  0  0  0  0  0  0  0  0
    7.9110   -4.5750   23.8250 C   0  0  0  0  0  0  0  0  0  0  0  0
    6.9740   -4.0330   24.5400 N   0  0  0  0  0  0  0  0  0  0  0  0
    8.2660   -5.7320   24.0350 O   0  0  0  0  0  0  0  0  0  0  0  0
    7.4340   -1.9350   21.8650 C   0  0  0  0  0  0  0  0  0  0  0  0
    6.3590   -2.5190   21.8010 O   0  0  0  0  0  0  0  0  0  0  0  0
  1  2  1  0
  2  3  2  0
  3  4  1  0
  4  5  2  0
  5  6  1  0
  2  7  1  0
  6  7  2  0
  7  8  1  0
  8  9  1  0
  9 10  2  0
  9 11  1  0
 11 12  1  0
 12 13  1  0
 13 14  1  0
 14 15  1  0
 15 16  1  0
 15 17  2  0
  8 18  1  0
 13 18  1  0
 18 19  2  0
M  END
