KIM-UNI-7d12df64-2-vinylsulfonamide
     RDKit          3D

 24 25  0  0  0  0  0  0  0  0999 V2000
    6.1480   -5.2420   20.1320 C   0  0  0  0  0  0  0  0  0  0  0  0
    6.1100   -4.9640   21.6150 C   0  0  0  0  0  0  0  0  0  0  0  0
    5.5240   -3.3010   21.7780 S   0  0  0  0  0  0  0  0  0  0  0  0
    4.2090   -3.4440   22.3540 O   0  0  0  0  0  0  0  0  0  0  0  0
    5.5980   -2.6800   20.4840 O   0  0  0  0  0  0  0  0  0  0  0  0
    6.7430   -2.4210   22.7770 C   0  0  0  0  0  0  0  0  0  0  0  0
    5.7490   -1.4690   23.5250 C   0  0  0  0  0  0  0  0  0  0  0  0
    6.7760   -0.8400   24.2640 C   0  0  0  0  0  0  0  0  0  0  0  0
    7.5310   -0.0890   25.0800 C   0  0  0  0  0  0  0  0  0  0  0  0
    7.6380    0.9090   26.0430 N   0  0  0  0  0  0  0  0  0  0  0  0
    7.6990    0.6630   27.3960 C   0  0  0  0  0  0  0  0  0  0  0  0
    8.8220   -0.1080   27.6170 C   0  0  0  0  0  0  0  0  0  0  0  0
    8.3530   -0.8950   24.4270 C   0  0  0  0  0  0  0  0  0  0  0  0
    9.8080   -1.2000   24.3340 C   0  0  0  0  0  0  0  0  0  0  0  0
   10.4410   -0.5950   23.1740 N   0  0  0  0  0  0  0  0  0  0  0  0
    9.6550    0.5580   22.7200 C   0  0  0  0  0  0  0  0  0  0  0  0
    8.7150   -0.0170   21.6900 C   0  0  0  0  0  0  0  0  0  0  0  0
    8.4060   -0.8740   21.0350 N   0  0  0  0  0  0  0  0  0  0  0  0
    7.0860   -0.9040   20.3710 C   0  0  0  0  0  0  0  0  0  0  0  0
    7.0420   -1.1030   18.9140 C   0  0  0  0  0  0  0  0  0  0  0  0
    5.8560   -0.7280   21.0850 O   0  0  0  0  0  0  0  0  0  0  0  0
    9.1010   -2.0430   21.5790 C   0  0  0  0  0  0  0  0  0  0  0  0
   10.4950   -1.6800   22.1490 C   0  0  0  0  0  0  0  0  0  0  0  0
    7.1950   -1.4670   23.7340 C   0  0  0  0  0  0  0  0  0  0  0  0
  1  2  1  0
  3  2  1  0
  3  4  2  0
  3  5  2  0
  3  6  1  0
  6  7  2  0
  7  8  1  0
  8  9  2  0
  9 10  1  0
 10 11  1  0
 11 12  1  0
  9 13  1  0
 13 14  1  0
 14 15  1  0
 15 16  1  0
 16 17  1  0
 17 18  1  0
 18 19  1  0
 19 20  1  0
 19 21  2  0
 18 22  1  0
 15 23  1  0
 22 23  1  0
  6 24  1  0
 13 24  2  0
M  END
