KIM-UNI-60f168f5-10
     RDKit          3D

 23 25  0  0  0  0  0  0  0  0999 V2000
    4.3430    1.8220   21.8020 C   0  0  0  0  0  0  0  0  0  0  0  0
    5.0590    1.1000   20.6620 C   0  0  0  0  0  0  0  0  0  0  0  0
    4.2630    0.9790   19.3600 C   0  0  0  0  0  0  0  0  0  0  0  0
    4.9530    0.2720   18.2220 C   0  0  0  0  0  0  0  0  0  0  0  0
    6.1890   -0.2380   18.3050 N   0  0  0  0  0  0  0  0  0  0  0  0
    6.8070   -0.0840   19.5040 C   0  0  0  0  0  0  0  0  0  0  0  0
    6.3520    0.5430   20.6890 C   0  0  0  0  0  0  0  0  0  0  0  0
    7.1500    0.6000   21.8060 N   0  0  0  0  0  0  0  0  0  0  0  0
    7.8150   -0.5700   22.2530 C   0  0  0  0  0  0  0  0  0  0  0  0
    7.4140   -1.6910   22.7160 C   0  0  0  0  0  0  0  0  0  0  0  0
    8.7940   -1.3450   22.5690 C   0  0  0  0  0  0  0  0  0  0  0  0
    9.2230   -0.0120   22.0540 C   0  0  0  0  0  0  0  0  0  0  0  0
    8.3730    1.0890   21.6290 C   0  0  0  0  0  0  0  0  0  0  0  0
    8.7800    2.1790   21.2230 O   0  0  0  0  0  0  0  0  0  0  0  0
    7.8810   -2.9010   23.2020 N   0  0  0  0  0  0  0  0  0  0  0  0
    7.2570   -3.6700   24.2050 C   0  0  0  0  0  0  0  0  0  0  0  0
    7.6410   -5.0030   24.3570 C   0  0  0  0  0  0  0  0  0  0  0  0
    8.2450   -5.2620   25.5820 C   0  0  0  0  0  0  0  0  0  0  0  0
    7.5110   -5.3050   26.7110 N   0  0  0  0  0  0  0  0  0  0  0  0
    9.4480   -5.4600   25.6880 O   0  0  0  0  0  0  0  0  0  0  0  0
    9.3300   -2.7840   23.3850 C   0  0  0  0  0  0  0  0  0  0  0  0
    9.8020   -2.0170   22.2930 C   0  0  0  0  0  0  0  0  0  0  0  0
    9.3540   -0.6470   22.2540 C   0  0  0  0  0  0  0  0  0  0  0  0
  1  2  1  0
  2  3  2  0
  3  4  1  0
  4  5  2  0
  5  6  1  0
  2  7  1  0
  6  7  2  0
  7  8  1  0
  8  9  1  0
  9 10  2  0
 10 11  1  0
 11 12  2  0
  8 13  1  0
 12 13  1  0
 13 14  2  0
 10 15  1  0
 15 16  1  0
 16 17  1  0
 17 18  1  0
 18 19  1  0
 18 20  2  0
 15 21  1  0
 21 22  1  0
  9 23  1  0
 22 23  1  0
M  END
