KIM-UNI-60f168f5-11
     RDKit          3D

 23 25  0  0  0  0  0  0  0  0999 V2000
    8.3510   -4.9880   26.4570 N   0  0  0  0  0  0  0  0  0  0  0  0
    8.9030   -5.0200   25.2040 C   0  0  0  0  0  0  0  0  0  0  0  0
    9.9780   -5.5630   25.0260 O   0  0  0  0  0  0  0  0  0  0  0  0
    8.0540   -4.3400   24.1250 C   0  0  0  0  0  0  0  0  0  0  0  0
    8.8880   -3.7800   22.9510 C   0  0  0  0  0  0  0  0  0  0  0  0
    8.8640   -2.4780   22.5490 N   0  0  0  0  0  0  0  0  0  0  0  0
   10.0710   -1.9020   22.3790 C   0  0  0  0  0  0  0  0  0  0  0  0
    9.9240   -0.4050   22.4380 C   0  0  0  0  0  0  0  0  0  0  0  0
    8.9910    0.1850   21.5820 C   0  0  0  0  0  0  0  0  0  0  0  0
    9.1560    1.3750   21.2500 O   0  0  0  0  0  0  0  0  0  0  0  0
    7.9330   -0.6510   21.1930 N   0  0  0  0  0  0  0  0  0  0  0  0
    6.9860   -0.1150   20.2570 C   0  0  0  0  0  0  0  0  0  0  0  0
    7.1460   -0.2560   18.8780 C   0  0  0  0  0  0  0  0  0  0  0  0
    6.3550    0.2100   17.8870 N   0  0  0  0  0  0  0  0  0  0  0  0
    5.2770    0.8850   18.2840 C   0  0  0  0  0  0  0  0  0  0  0  0
    4.9880    1.0950   19.6270 C   0  0  0  0  0  0  0  0  0  0  0  0
    5.8290    0.6030   20.6400 C   0  0  0  0  0  0  0  0  0  0  0  0
    5.4860    0.8400   21.9800 C   0  0  0  0  0  0  0  0  0  0  0  0
    4.8520    2.0770   22.2060 C   0  0  0  0  0  0  0  0  0  0  0  0
    4.2120    2.6700   21.1490 N   0  0  0  0  0  0  0  0  0  0  0  0
    3.8680    1.7880   20.0440 C   0  0  0  0  0  0  0  0  0  0  0  0
    7.7490   -1.9890   21.8050 C   0  0  0  0  0  0  0  0  0  0  0  0
    6.7270   -2.6720   21.7120 O   0  0  0  0  0  0  0  0  0  0  0  0
  1  2  1  0
  2  3  2  0
  2  4  1  0
  4  5  1  0
  5  6  1  0
  6  7  1  0
  7  8  1  0
  8  9  1  0
  9 10  2  0
  9 11  1  0
 11 12  1  0
 12 13  2  0
 13 14  1  0
 14 15  2  0
 15 16  1  0
 12 17  1  0
 16 17  2  0
 17 18  1  0
 18 19  1  0
 19 20  1  0
 16 21  1  0
 20 21  1  0
  6 22  1  0
 11 22  1  0
 22 23  2  0
M  END
