KIM-UNI-60f168f5-7
     RDKit          3D

 22 24  0  0  0  0  0  0  0  0999 V2000
    5.0520    0.8350   21.9640 C   0  0  0  0  0  0  0  0  0  0  0  0
    5.6050    0.6710   20.5550 C   0  0  0  0  0  0  0  0  0  0  0  0
    5.0840    1.6440   19.4940 C   0  0  0  0  0  0  0  0  0  0  0  0
    5.6350    1.4580   18.1070 C   0  0  0  0  0  0  0  0  0  0  0  0
    6.5410    0.5180   17.8040 N   0  0  0  0  0  0  0  0  0  0  0  0
    6.9270   -0.2960   18.8090 C   0  0  0  0  0  0  0  0  0  0  0  0
    6.5200   -0.2930   20.1490 C   0  0  0  0  0  0  0  0  0  0  0  0
    6.9610   -1.2320   21.0080 N   0  0  0  0  0  0  0  0  0  0  0  0
    8.1670   -1.3180   21.9020 C   0  0  0  0  0  0  0  0  0  0  0  0
    7.8670   -2.0740   23.0240 C   0  0  0  0  0  0  0  0  0  0  0  0
    6.5920   -2.5690   23.2790 C   0  0  0  0  0  0  0  0  0  0  0  0
    5.6690   -2.6340   22.2920 C   0  0  0  0  0  0  0  0  0  0  0  0
    5.9670   -2.2110   21.0340 C   0  0  0  0  0  0  0  0  0  0  0  0
    5.3480   -2.7130   20.0950 O   0  0  0  0  0  0  0  0  0  0  0  0
    8.8060   -2.4620   23.9720 N   0  0  0  0  0  0  0  0  0  0  0  0
    8.7050   -3.8660   24.2280 C   0  0  0  0  0  0  0  0  0  0  0  0
    9.1390   -4.4730   25.4070 C   0  0  0  0  0  0  0  0  0  0  0  0
   10.3090   -5.1070   25.5140 N   0  0  0  0  0  0  0  0  0  0  0  0
    8.3380   -4.4360   26.5110 N   0  0  0  0  0  0  0  0  0  0  0  0
   10.1220   -2.0810   23.6350 C   0  0  0  0  0  0  0  0  0  0  0  0
   10.1450   -0.8180   23.0280 C   0  0  0  0  0  0  0  0  0  0  0  0
    9.5880   -0.8310   21.7630 C   0  0  0  0  0  0  0  0  0  0  0  0
  1  2  1  0
  2  3  2  0
  3  4  1  0
  4  5  2  0
  5  6  1  0
  2  7  1  0
  6  7  2  0
  7  8  1  0
  8  9  1  0
  9 10  2  0
 10 11  1  0
 11 12  2  0
  8 13  1  0
 12 13  1  0
 13 14  2  0
 10 15  1  0
 15 16  1  0
 16 17  1  0
 17 18  2  3
 17 19  1  0
 15 20  1  0
 20 21  1  0
  9 22  1  0
 21 22  1  0
M  END
