KRI-LIF-2e3dfaa5-1
     RDKit          3D

 21 23  0  0  0  0  0  0  0  0999 V2000
    5.2840   -3.8210   20.9400 O   0  0  0  0  0  0  0  0  0  0  0  0
    5.5940   -2.7360   21.8140 C   0  0  0  0  0  0  0  0  0  0  0  0
    7.0920   -2.4600   21.8930 C   0  0  0  0  0  0  0  0  0  0  0  0
    7.8480   -3.1860   22.8170 C   0  0  0  0  0  0  0  0  0  0  0  0
    9.2190   -2.9620   22.9590 C   0  0  0  0  0  0  0  0  0  0  0  0
    9.9080   -2.0580   22.2420 N   0  0  0  0  0  0  0  0  0  0  0  0
    9.1910   -1.3390   21.3380 C   0  0  0  0  0  0  0  0  0  0  0  0
    7.7560   -1.4810   21.0850 C   0  0  0  0  0  0  0  0  0  0  0  0
    7.0270   -0.6380   20.1030 C   0  0  0  0  0  0  0  0  0  0  0  0
    6.3840    0.2630   20.8010 C   0  0  0  0  0  0  0  0  0  0  0  0
    5.5840    1.2030   20.2630 C   0  0  0  0  0  0  0  0  0  0  0  0
    4.9470    2.1170   21.2510 C   0  0  0  0  0  0  0  0  0  0  0  0
    5.8460    2.2340   22.4960 C   0  0  0  0  0  0  0  0  0  0  0  0
    5.6770    1.0580   23.4880 C   0  0  0  0  0  0  0  0  0  0  0  0
    6.5100   -0.2150   23.3430 C   0  0  0  0  0  0  0  0  0  0  0  0
    6.1770   -1.0620   24.3250 N   0  0  0  0  0  0  0  0  0  0  0  0
    5.2180   -0.4220   25.0410 N   0  0  0  0  0  0  0  0  0  0  0  0
    4.8890    0.8350   24.5860 C   0  0  0  0  0  0  0  0  0  0  0  0
    5.4300    1.2310   18.8840 C   0  0  0  0  0  0  0  0  0  0  0  0
    6.1400    0.2570   18.1520 C   0  0  0  0  0  0  0  0  0  0  0  0
    6.9490   -0.6960   18.7300 N   0  0  0  0  0  0  0  0  0  0  0  0
  1  2  1  0
  2  3  1  0
  3  4  2  0
  4  5  1  0
  5  6  2  0
  6  7  1  0
  3  8  1  0
  7  8  2  0
  8  9  1  0
  9 10  2  0
 10 11  1  0
 11 12  1  0
 12 13  1  0
 13 14  1  0
 14 15  1  0
 15 16  2  0
 16 17  1  0
 14 18  2  0
 17 18  1  0
 11 19  2  0
 19 20  1  0
  9 21  1  0
 20 21  2  0
M  END
