KUS-THE-322b9b63-16
     RDKit          3D

 30 33  0  0  0  0  0  0  0  0999 V2000
    7.0640   -4.0170   26.8670 N   0  0  0  0  0  0  0  0  0  0  0  0
    5.9550   -4.0210   26.0680 C   0  0  0  0  0  0  0  0  0  0  0  0
    4.9020   -4.5260   26.4400 O   0  0  0  0  0  0  0  0  0  0  0  0
    6.0900   -3.4160   24.8290 C   0  0  0  0  0  0  0  0  0  0  0  0
    5.2320   -2.1800   24.5580 C   0  0  0  0  0  0  0  0  0  0  0  0
    5.1450   -1.8790   23.0750 C   0  0  0  0  0  0  0  0  0  0  0  0
    6.3370   -2.4500   22.4450 N   0  0  0  0  0  0  0  0  0  0  0  0
    7.5040   -1.9360   22.9410 C   0  0  0  0  0  0  0  0  0  0  0  0
    7.9430   -2.6850   21.9300 N   0  0  0  0  0  0  0  0  0  0  0  0
    9.2300   -2.7960   21.6320 N   0  0  0  0  0  0  0  0  0  0  0  0
    9.8140   -2.1030   22.4480 C   0  0  0  0  0  0  0  0  0  0  0  0
   11.3170   -1.9480   22.4930 C   0  0  2  0  0  0  0  0  0  0  0  0
   11.8310   -0.5870   22.9560 C   0  0  0  0  0  0  0  0  0  0  0  0
   13.2500   -0.6530   22.5300 C   0  0  0  0  0  0  0  0  0  0  0  0
   13.1960   -1.4800   21.2630 C   0  0  0  0  0  0  0  0  0  0  0  0
   14.0420   -1.5720   20.4380 O   0  0  0  0  0  0  0  0  0  0  0  0
   11.9420   -2.0620   21.2210 N   0  0  0  0  0  0  0  0  0  0  0  0
    8.8630   -1.5500   23.2540 N   0  0  0  0  0  0  0  0  0  0  0  0
    9.1430   -0.6360   24.3690 C   0  0  0  0  0  0  0  0  0  0  0  0
   10.4090    0.0060   24.3560 C   0  0  0  0  0  0  0  0  0  0  0  0
   10.4190    1.3710   24.0080 C   0  0  0  0  0  0  0  0  0  0  0  0
   11.5280    1.9710   23.3770 C   0  0  0  0  0  0  0  0  0  0  0  0
   11.5140    3.3250   23.0380 C   0  0  0  0  0  0  0  0  0  0  0  0
   12.5740    3.8750   22.4370 F   0  0  0  0  0  0  0  0  0  0  0  0
   10.4120    4.1300   23.3130 C   0  0  0  0  0  0  0  0  0  0  0  0
    9.2890    3.6160   23.9320 C   0  0  0  0  0  0  0  0  0  0  0  0
    8.2280    4.3940   24.1990 F   0  0  0  0  0  0  0  0  0  0  0  0
    9.2880    2.1510   24.3030 C   0  0  0  0  0  0  0  0  0  0  0  0
    6.2820   -3.9490   22.4250 C   0  0  0  0  0  0  0  0  0  0  0  0
    5.8670   -4.4210   23.6840 C   0  0  0  0  0  0  0  0  0  0  0  0
  1  2  1  0
  2  3  2  0
  2  4  1  0
  4  5  1  0
  5  6  1  0
  6  7  1  0
  7  8  1  0
  8  9  2  0
  9 10  1  0
 10 11  2  0
 12 11  1  6
 12 13  1  0
 13 14  1  0
 14 15  1  0
 15 16  2  0
 12 17  1  0
 15 17  1  0
  8 18  1  0
 11 18  1  0
 18 19  1  0
 19 20  1  0
 20 21  1  0
 21 22  2  0
 22 23  1  0
 23 24  1  0
 23 25  2  0
 25 26  1  0
 26 27  1  0
 21 28  1  0
 26 28  2  0
  7 29  1  0
  4 30  1  0
 29 30  1  0
M  END
