KUS-THE-322b9b63-12
     RDKit          3D

 30 33  0  0  0  0  0  0  0  0999 V2000
   13.3770   -1.7050   20.7950 C   0  0  0  0  0  0  0  0  0  0  0  0
   13.1760   -1.1910   22.0280 C   0  0  0  0  0  0  0  0  0  0  0  0
   12.4410   -2.5310   22.9030 S   0  0  0  0  0  0  0  0  0  0  0  0
   11.1680   -1.5650   23.5860 C   0  0  0  0  0  0  0  0  0  0  0  0
    9.9300   -2.2860   23.9620 C   0  0  0  0  0  0  0  0  0  0  0  0
    8.8550   -1.4350   24.5660 C   0  0  0  0  0  0  0  0  0  0  0  0
    7.6050   -2.2450   24.9330 C   0  0  0  0  0  0  0  0  0  0  0  0
    7.7860   -3.6850   24.7410 N   0  0  0  0  0  0  0  0  0  0  0  0
    8.0630   -4.6120   25.7180 C   0  0  0  0  0  0  0  0  0  0  0  0
    8.2090   -4.3970   27.2310 C   0  0  2  0  0  0  0  0  0  0  0  0
    7.0360   -5.0720   27.9280 C   0  0  0  0  0  0  0  0  0  0  0  0
    6.2460   -3.9680   28.5720 C   0  0  0  0  0  0  0  0  0  0  0  0
    6.9540   -2.7850   28.4900 C   0  0  0  0  0  0  0  0  0  0  0  0
    6.6680   -1.7290   29.0240 O   0  0  0  0  0  0  0  0  0  0  0  0
    8.0760   -3.0170   27.6830 N   0  0  0  0  0  0  0  0  0  0  0  0
    8.1770   -5.7820   25.1680 N   0  0  0  0  0  0  0  0  0  0  0  0
    7.9520   -5.6800   23.8390 N   0  0  0  0  0  0  0  0  0  0  0  0
    7.6990   -4.4340   23.5590 C   0  0  0  0  0  0  0  0  0  0  0  0
    7.3890   -3.9880   22.3110 N   0  0  0  0  0  0  0  0  0  0  0  0
    7.0240   -2.7310   22.2680 C   0  0  0  0  0  0  0  0  0  0  0  0
    5.7560   -2.5610   22.8140 C   0  0  0  0  0  0  0  0  0  0  0  0
    5.3230   -3.6230   23.6240 C   0  0  0  0  0  0  0  0  0  0  0  0
    4.2080   -3.5220   24.4680 C   0  0  0  0  0  0  0  0  0  0  0  0
    3.9970   -2.4130   23.5660 N   0  0  0  0  0  0  0  0  0  0  0  0
    3.1590   -3.1100   24.9520 O   0  0  0  0  0  0  0  0  0  0  0  0
    5.2010   -4.8950   22.7760 C   0  0  0  0  0  0  0  0  0  0  0  0
    6.3360   -4.8790   21.7720 C   0  0  0  0  0  0  0  0  0  0  0  0
    9.1070   -0.0620   24.7220 C   0  0  0  0  0  0  0  0  0  0  0  0
   10.3420    0.4710   24.3090 C   0  0  0  0  0  0  0  0  0  0  0  0
   11.3480   -0.2400   23.7550 N   0  0  0  0  0  0  0  0  0  0  0  0
  1  2  1  0
  2  3  1  0
  3  4  1  0
  4  5  2  0
  5  6  1  0
  6  7  1  0
  7  8  1  0
  8  9  1  0
 10  9  1  6
 10 11  1  0
 11 12  1  0
 12 13  1  0
 13 14  2  0
 10 15  1  0
 13 15  1  0
  9 16  2  0
 16 17  1  0
  8 18  1  0
 17 18  2  0
 18 19  1  0
 19 20  1  0
 20 21  1  0
 21 22  1  0
 22 23  1  0
 23 24  1  0
 23 25  2  0
 22 26  1  0
 19 27  1  0
 26 27  1  0
  6 28  2  0
 28 29  1  0
  4 30  1  0
 29 30  2  0
M  END
