KUS-THE-322b9b63-17
     RDKit          3D

 25 28  0  0  0  0  0  0  0  0999 V2000
    7.7090   -2.6390   25.1070 O   0  0  0  0  0  0  0  0  0  0  0  0
    7.3360   -3.4260   24.2560 C   0  0  0  0  0  0  0  0  0  0  0  0
    8.1710   -3.8840   23.2550 C   0  0  0  0  0  0  0  0  0  0  0  0
    7.3550   -4.4240   22.2180 N   0  0  0  0  0  0  0  0  0  0  0  0
    6.7010   -3.4820   21.3210 C   0  0  0  0  0  0  0  0  0  0  0  0
    5.6210   -3.8490   20.7270 N   0  0  0  0  0  0  0  0  0  0  0  0
    5.2530   -2.9250   19.9820 N   0  0  0  0  0  0  0  0  0  0  0  0
    6.0970   -1.9550   20.0940 C   0  0  0  0  0  0  0  0  0  0  0  0
    5.7360   -0.7360   19.1360 C   0  0  1  0  0  0  0  0  0  0  0  0
    4.7610    0.3010   19.7490 C   0  0  0  0  0  0  0  0  0  0  0  0
    5.6330    1.4810   20.1260 C   0  0  0  0  0  0  0  0  0  0  0  0
    7.0320    0.9580   19.8250 C   0  0  0  0  0  0  0  0  0  0  0  0
    8.0520    1.2630   20.3880 O   0  0  0  0  0  0  0  0  0  0  0  0
    6.8680    0.0620   18.8080 N   0  0  0  0  0  0  0  0  0  0  0  0
    7.2380   -2.1670   21.0620 N   0  0  0  0  0  0  0  0  0  0  0  0
    8.2990   -2.5420   22.0560 C   0  0  0  0  0  0  0  0  0  0  0  0
    8.9570   -1.3740   22.8290 C   0  0  0  0  0  0  0  0  0  0  0  0
   10.3510   -1.2110   22.9680 C   0  0  0  0  0  0  0  0  0  0  0  0
   11.2030   -1.8660   22.0840 C   0  0  0  0  0  0  0  0  0  0  0  0
   12.5080   -1.6380   22.2940 C   0  0  0  0  0  0  0  0  0  0  0  0
   12.5870   -0.5980   23.6110 S   0  0  0  0  0  0  0  0  0  0  0  0
   10.8880   -0.3730   24.0100 C   0  0  0  0  0  0  0  0  0  0  0  0
    6.5360   -5.5630   22.6570 C   0  0  0  0  0  0  0  0  0  0  0  0
    5.6580   -5.1730   23.6740 C   0  0  0  0  0  0  0  0  0  0  0  0
    6.0480   -3.9000   24.2720 N   0  0  0  0  0  0  0  0  0  0  0  0
  1  2  2  0
  2  3  1  0
  3  4  1  0
  4  5  1  0
  5  6  2  0
  6  7  1  0
  7  8  2  0
  9  8  1  1
  9 10  1  0
 10 11  1  0
 11 12  1  0
 12 13  2  0
  9 14  1  0
 12 14  1  0
  5 15  1  0
  8 15  1  0
 15 16  1  0
 16 17  1  0
 17 18  1  0
 18 19  1  0
 19 20  2  0
 20 21  1  0
 18 22  2  0
 21 22  1  0
  4 23  1  0
 23 24  1  0
  2 25  1  0
 24 25  1  0
M  END
