LIZ-THE-6efed59f-1
     RDKit          3D

 15 15  0  0  0  0  0  0  0  0999 V2000
   13.5760   -2.3310   25.3360 C   0  0  0  0  0  0  0  0  0  0  0  0
   12.5530   -1.6030   23.9510 Si  0  0  0  0  0  4  0  0  0  0  0  0
   10.7430   -1.9960   24.2480 C   0  0  0  0  0  0  0  0  0  0  0  0
   13.0950   -2.5080   22.4330 C   0  0  0  0  0  0  0  0  0  0  0  0
   12.8370   -0.0310   23.5400 O   0  0  0  0  0  0  0  0  0  0  0  0
   12.1490    1.1370   23.5740 C   0  0  0  0  0  0  0  0  0  0  0  0
   12.8730    2.3170   22.9650 C   0  0  0  0  0  0  0  0  0  0  0  0
   12.2670    3.6810   22.9570 C   0  0  0  0  0  0  0  0  0  0  0  0
   10.9000    3.7750   23.5970 C   0  0  0  0  0  0  0  0  0  0  0  0
   10.1010    5.3440   23.6890 S   0  0  0  0  0  0  0  0  0  0  0  0
    8.7830    5.1510   22.6740 N   0  0  0  0  0  0  0  0  0  0  0  0
    9.5600    5.5180   25.0200 O   0  0  0  0  0  0  0  0  0  0  0  0
   10.9600    6.3450   23.0940 O   0  0  0  0  0  0  0  0  0  0  0  0
   10.2870    2.6010   24.1240 C   0  0  0  0  0  0  0  0  0  0  0  0
   10.8850    1.3320   24.1130 C   0  0  0  0  0  0  0  0  0  0  0  0
  1  2  1  0
  2  3  1  0
  2  4  1  0
  2  5  1  0
  5  6  1  0
  6  7  2  0
  7  8  1  0
  8  9  2  0
  9 10  1  0
 10 11  1  0
 10 12  2  0
 10 13  2  0
  9 14  1  0
  6 15  1  0
 14 15  2  0
M  END
