LIZ-THE-60d741c6-1
     RDKit          3D

 16 17  0  0  0  0  0  0  0  0999 V2000
    9.0320   -5.5800   26.7000 C   0  0  0  0  0  0  0  0  0  0  0  0
    9.6870   -4.5360   26.0510 C   0  0  0  0  0  0  0  0  0  0  0  0
   10.8350   -4.2680   26.3860 O   0  0  0  0  0  0  0  0  0  0  0  0
    9.0070   -3.7470   24.9040 C   0  0  2  0  0  0  0  0  0  0  0  0
    8.5910   -2.3170   25.1430 C   0  0  0  0  0  0  0  0  0  0  0  0
    8.0380   -1.7510   24.0730 N   0  0  0  0  0  0  0  0  0  0  0  0
    8.1640   -2.5020   22.8900 C   0  0  2  0  0  0  0  0  0  0  0  0
    7.6000   -1.9720   21.7400 C   0  0  0  0  0  0  0  0  0  0  0  0
    6.4370   -2.6810   21.3560 N   0  0  0  0  0  0  0  0  0  0  0  0
    6.0100   -2.9640   20.0780 C   0  0  0  0  0  0  0  0  0  0  0  0
    6.4840   -2.0050   19.1870 C   0  0  0  0  0  0  0  0  0  0  0  0
    5.7100   -1.7330   18.1160 N   0  0  0  0  0  0  0  0  0  0  0  0
    7.6460   -1.3290   19.3640 O   0  0  0  0  0  0  0  0  0  0  0  0
    6.3670   -3.8000   22.3220 C   0  0  0  0  0  0  0  0  0  0  0  0
    7.6270   -3.8050   22.9280 C   0  0  2  0  0  0  0  0  0  0  0  0
    7.8500   -4.4500   24.1850 C   0  0  0  0  0  0  0  0  0  0  0  0
  1  2  1  0
  2  3  2  0
  4  2  1  1
  4  5  1  0
  5  6  1  0
  6  7  1  0
  7  8  1  6
  8  9  1  0
  9 10  1  0
 10 11  1  0
 11 12  1  0
 11 13  2  0
  9 14  1  0
  7 15  1  0
 15 14  1  1
  4 16  1  0
 15 16  1  0
M  END
