LIZ-THE-7023c732-1-chloroacetamide
     RDKit          3D

 18 19  0  0  0  0  0  0  0  0999 V2000
    7.4220   -4.2910   20.8930 C   0  0  0  0  0  0  0  0  0  0  0  0
    8.3010   -3.1490   20.3530 C   0  0  0  0  0  0  0  0  0  0  0  0
    7.9000   -3.1130   19.0300 O   0  0  0  0  0  0  0  0  0  0  0  0
    9.2540   -2.3090   21.4770 C   0  0  0  0  0  0  0  0  0  0  0  0
   10.6860   -1.6050   21.7100 C   0  0  0  0  0  0  0  0  0  0  0  0
   11.1700   -0.9580   22.8340 N   0  0  0  0  0  0  0  0  0  0  0  0
   10.3040   -0.9110   23.9540 C   0  0  0  0  0  0  0  0  0  0  0  0
   10.6790   -0.3050   25.0920 N   0  0  0  0  0  0  0  0  0  0  0  0
    9.6300   -0.3320   25.9960 C   0  0  0  0  0  0  0  0  0  0  0  0
    9.0420   -1.5170   23.8490 C   0  0  0  0  0  0  0  0  0  0  0  0
    8.1870   -1.4980   24.9230 O   0  0  0  0  0  0  0  0  0  0  0  0
    8.1590   -2.6430   25.7020 C   0  0  0  0  0  0  0  0  0  0  0  0
    8.4240   -3.8450   25.0640 C   0  0  0  0  0  0  0  0  0  0  0  0
    8.4250   -5.0490   25.7730 C   0  0  0  0  0  0  0  0  0  0  0  0
    8.1540   -5.0490   27.1500 C   0  0  0  0  0  0  0  0  0  0  0  0
    7.8800   -3.8310   27.7940 C   0  0  0  0  0  0  0  0  0  0  0  0
    7.8800   -2.6260   27.0790 C   0  0  0  0  0  0  0  0  0  0  0  0
    8.5660   -2.1650   22.6840 C   0  0  0  0  0  0  0  0  0  0  0  0
  1  2  1  0
  2  3  2  0
  2  4  1  0
  4  5  2  0
  5  6  1  0
  6  7  2  0
  7  8  1  0
  8  9  1  0
  7 10  1  0
 10 11  1  0
 11 12  1  0
 12 13  2  0
 13 14  1  0
 14 15  2  0
 15 16  1  0
 12 17  1  0
 16 17  2  0
  4 18  1  0
 10 18  2  0
M  END
