LIZ-THE-60ec5b32-1
     RDKit          3D

 18 19  0  0  0  0  0  0  0  0999 V2000
    9.5960   -5.2950   24.6900 N   0  0  0  0  0  0  0  0  0  0  0  0
    8.5900   -4.4280   25.2500 C   0  0  0  0  0  0  0  0  0  0  0  0
    8.2120   -4.5260   26.5530 N   0  0  0  0  0  0  0  0  0  0  0  0
    8.0100   -3.4740   24.3750 C   0  0  0  0  0  0  0  0  0  0  0  0
    8.9570   -2.8550   23.2880 C   0  0  0  0  0  0  0  0  0  0  0  0
    8.8070   -1.3080   22.9720 C   0  0  1  0  0  0  0  0  0  0  0  0
    7.4650   -0.7300   23.3300 C   0  0  0  0  0  0  0  0  0  0  0  0
    7.6230    0.6310   23.6140 C   0  0  0  0  0  0  0  0  0  0  0  0
    8.9690    1.0220   23.4060 C   0  0  2  0  0  0  0  0  0  0  0  0
    9.2500    1.7940   22.2470 C   0  0  0  0  0  0  0  0  0  0  0  0
   10.0560    2.9020   22.3750 N   0  0  0  0  0  0  0  0  0  0  0  0
    8.7990    1.5420   21.1290 O   0  0  0  0  0  0  0  0  0  0  0  0
    9.7120   -0.3770   23.5470 C   0  0  2  0  0  0  0  0  0  0  0  0
   11.0030   -0.4810   23.0400 C   0  0  0  0  0  0  0  0  0  0  0  0
   11.9760    0.4900   23.3200 C   0  0  0  0  0  0  0  0  0  0  0  0
   13.2020    0.2180   22.7440 C   0  0  0  0  0  0  0  0  0  0  0  0
   13.1870   -1.2980   21.8370 S   0  0  0  0  0  0  0  0  0  0  0  0
   11.5320   -1.5030   22.2390 C   0  0  0  0  0  0  0  0  0  0  0  0
  1  2  2  3
  2  3  1  0
  2  4  1  0
  4  5  1  0
  6  5  1  1
  6  7  1  0
  7  8  1  0
  8  9  1  0
  9 10  1  6
 10 11  1  0
 10 12  2  0
  6 13  1  0
  9 13  1  0
 13 14  1  6
 14 15  1  0
 15 16  2  0
 16 17  1  0
 14 18  2  0
 17 18  1  0
M  END
