LIZ-THE-6efed59f-3
     RDKit          3D

 12 12  0  0  0  0  0  0  0  0999 V2000
   12.8360   -1.2420   24.5110 C   0  0  0  0  0  0  0  0  0  0  0  0
   12.8330   -0.3410   23.3980 O   0  0  0  0  0  0  0  0  0  0  0  0
   12.1410    0.8380   23.5190 C   0  0  0  0  0  0  0  0  0  0  0  0
   12.8640    2.0550   22.9600 C   0  0  0  0  0  0  0  0  0  0  0  0
   12.3050    3.4710   22.9810 C   0  0  0  0  0  0  0  0  0  0  0  0
   10.9340    3.6590   23.6140 C   0  0  0  0  0  0  0  0  0  0  0  0
   10.2090    5.2790   23.7100 S   0  0  0  0  0  0  0  0  0  0  0  0
    8.8810    5.1410   22.6950 N   0  0  0  0  0  0  0  0  0  0  0  0
   11.1020    6.2430   23.0970 O   0  0  0  0  0  0  0  0  0  0  0  0
    9.6660    5.5000   25.0310 O   0  0  0  0  0  0  0  0  0  0  0  0
   10.2130    2.4270   24.1670 C   0  0  0  0  0  0  0  0  0  0  0  0
   10.8710    1.0320   24.0890 C   0  0  0  0  0  0  0  0  0  0  0  0
  1  2  1  0
  2  3  1  0
  3  4  2  0
  4  5  1  0
  5  6  2  0
  6  7  1  0
  7  8  1  0
  7  9  2  0
  7 10  2  0
  6 11  1  0
  3 12  1  0
 11 12  2  0
M  END
