LYN-UNI-7bb260d6-5
     RDKit          3D

 18 20  0  0  0  0  0  0  0  0999 V2000
    8.4550    0.5040   24.6300 O   0  0  0  0  0  0  0  0  0  0  0  0
    8.9150    0.2210   23.5330 C   0  0  0  0  0  0  0  0  0  0  0  0
    8.1330    0.4690   22.3310 C   0  0  0  0  0  0  0  0  0  0  0  0
    8.2960   -0.2300   21.2450 C   0  0  0  0  0  0  0  0  0  0  0  0
    7.3500    0.1080   20.1560 C   0  0  0  0  0  0  0  0  0  0  0  0
    6.3780    1.1460   20.2960 C   0  0  0  0  0  0  0  0  0  0  0  0
    5.4360    1.4990   19.2350 C   0  0  0  0  0  0  0  0  0  0  0  0
    5.4930    0.7980   18.0560 C   0  0  0  0  0  0  0  0  0  0  0  0
    6.4110   -0.2020   17.8940 C   0  0  0  0  0  0  0  0  0  0  0  0
    7.3630   -0.5720   18.9450 C   0  0  0  0  0  0  0  0  0  0  0  0
    9.3240   -1.2120   21.2040 O   0  0  0  0  0  0  0  0  0  0  0  0
   10.3720   -1.1230   22.1720 C   0  0  0  0  0  0  0  0  0  0  0  0
   11.6260   -1.7460   22.0040 C   0  0  0  0  0  0  0  0  0  0  0  0
   12.6090   -1.6230   23.0020 C   0  0  0  0  0  0  0  0  0  0  0  0
   13.7590   -2.2260   22.8180 F   0  0  0  0  0  0  0  0  0  0  0  0
   12.4290   -0.9060   24.1710 C   0  0  0  0  0  0  0  0  0  0  0  0
   11.2140   -0.2830   24.3740 C   0  0  0  0  0  0  0  0  0  0  0  0
   10.1940   -0.4120   23.3420 C   0  0  0  0  0  0  0  0  0  0  0  0
  1  2  2  0
  2  3  1  0
  3  4  2  0
  4  5  1  0
  5  6  2  0
  6  7  1  0
  7  8  2  0
  8  9  1  0
  5 10  1  0
  9 10  2  0
  4 11  1  0
 11 12  1  0
 12 13  1  0
 13 14  2  0
 14 15  1  0
 14 16  1  0
 16 17  2  0
  2 18  1  0
 12 18  2  0
 17 18  1  0
M  END
