LYN-UNI-7bb260d6-14
     RDKit          3D

 23 26  0  0  0  0  0  0  0  0999 V2000
    8.9280    2.4470   23.8160 O   0  0  0  0  0  0  0  0  0  0  0  0
    9.2350    1.7770   22.8320 C   0  0  0  0  0  0  0  0  0  0  0  0
    8.6780    2.1140   21.5510 C   0  0  0  0  0  0  0  0  0  0  0  0
    7.9110    0.7790   21.7360 C   0  0  0  0  0  0  0  0  0  0  0  0
    6.9920    0.5270   20.5510 C   0  0  0  0  0  0  0  0  0  0  0  0
    5.8530    1.5210   20.3690 C   0  0  0  0  0  0  0  0  0  0  0  0
    4.8920    1.3600   19.1990 C   0  0  0  0  0  0  0  0  0  0  0  0
    5.0790    0.2050   18.2230 C   0  0  0  0  0  0  0  0  0  0  0  0
    6.2170   -0.7850   18.4130 C   0  0  0  0  0  0  0  0  0  0  0  0
    7.1770   -0.6220   19.5780 C   0  0  0  0  0  0  0  0  0  0  0  0
    8.0180   -0.1720   22.8450 O   0  0  0  0  0  0  0  0  0  0  0  0
    9.4010   -0.4560   22.9830 C   0  0  0  0  0  0  0  0  0  0  0  0
   10.0130   -1.8050   23.1380 C   0  0  0  0  0  0  0  0  0  0  0  0
   11.3610   -1.7470   23.2070 C   0  0  0  0  0  0  0  0  0  0  0  0
   12.1390   -2.8220   23.3530 N   0  0  0  0  0  0  0  0  0  0  0  0
   12.6000   -2.8650   24.7070 C   0  0  0  0  0  0  0  0  0  0  0  0
   13.3460   -1.7430   24.7870 C   0  0  0  0  0  0  0  0  0  0  0  0
   13.1220   -0.7920   23.7790 C   0  0  0  0  0  0  0  0  0  0  0  0
   13.2120   -1.3310   22.3570 C   0  0  0  0  0  0  0  0  0  0  0  0
   13.2440   -2.6520   22.4400 C   0  0  0  0  0  0  0  0  0  0  0  0
   12.0030   -0.4980   23.1210 C   0  0  0  0  0  0  0  0  0  0  0  0
   11.4390    0.6880   22.9900 C   0  0  0  0  0  0  0  0  0  0  0  0
   10.1230    0.6500   22.9370 C   0  0  0  0  0  0  0  0  0  0  0  0
  1  2  2  0
  2  3  1  0
  3  4  2  0
  4  5  1  0
  5  6  2  0
  6  7  1  0
  7  8  2  0
  8  9  1  0
  5 10  1  0
  9 10  2  0
  4 11  1  0
 11 12  1  0
 12 13  1  0
 13 14  2  0
 14 15  1  0
 15 16  1  0
 16 17  1  0
 17 18  1  0
 18 19  1  0
 15 20  1  0
 19 20  1  0
 14 21  1  0
 21 22  2  0
  2 23  1  0
 12 23  2  0
 22 23  1  0
M  END
