LYN-UNI-0d9431a4-2
     RDKit          3D

 18 20  0  0  0  0  0  0  0  0999 V2000
   21.0500   12.0680   10.6310 C   0  0  0  0  0  0  0  0  0  0  0  0
   21.5540   11.6160    9.6050 O   0  0  0  0  0  0  0  0  0  0  0  0
   21.6280   12.4940    8.5610 C   0  0  0  0  0  0  0  0  0  0  0  0
   20.3840   13.2570    8.0380 C   0  0  0  0  0  0  0  0  0  0  0  0
   20.4840   14.2710    6.8660 C   0  0  0  0  0  0  0  0  0  0  0  0
   21.8400   14.5050    6.2250 C   0  0  0  0  0  0  0  0  0  0  0  0
   21.9560   15.3490    5.2860 O   0  0  0  0  0  0  0  0  0  0  0  0
   21.4130   16.2080    6.0980 C   0  0  0  0  0  0  0  0  0  0  0  0
   21.1710   17.5850    6.1200 C   0  0  0  0  0  0  0  0  0  0  0  0
   20.9260   18.1850    4.8800 C   0  0  0  0  0  0  0  0  0  0  0  0
   19.8600   19.0770    4.9980 C   0  0  0  0  0  0  0  0  0  0  0  0
   19.3290   18.9090    6.2760 C   0  0  0  0  0  0  0  0  0  0  0  0
   20.1000   17.9620    6.9560 C   0  0  0  0  0  0  0  0  0  0  0  0
   21.0630   15.4050    7.1780 C   0  0  0  0  0  0  0  0  0  0  0  0
   21.4320   14.0290    6.9270 C   0  0  0  0  0  0  0  0  0  0  0  0
   20.4670   13.2790    6.7970 O   0  0  0  0  0  0  0  0  0  0  0  0
   22.8000   13.7150    6.8330 C   0  0  0  0  0  0  0  0  0  0  0  0
   22.8180   12.7890    7.8760 C   0  0  0  0  0  0  0  0  0  0  0  0
  1  2  1  0
  2  3  1  0
  3  4  2  0
  4  5  1  0
  5  6  2  0
  6  7  1  0
  7  8  1  0
  8  9  1  0
  9 10  1  0
 10 11  1  0
 11 12  1  0
  9 13  1  0
 12 13  1  0
  8 14  2  0
 14 15  1  0
 15 16  2  0
  6 17  1  0
 15 17  1  0
  3 18  1  0
 17 18  2  0
M  END
