LYN-UNI-b265e4fd-3
     RDKit          3D

 26 28  0  0  0  0  0  0  0  0999 V2000
   11.5770   -5.2450   18.4190 O   0  0  0  0  0  0  0  0  0  0  0  0
   12.0690   -4.5950   19.3080 C   0  0  0  0  0  0  0  0  0  0  0  0
   11.1970   -3.7710   20.0810 C   0  0  0  0  0  0  0  0  0  0  0  0
   11.4230   -2.8750   21.2400 C   0  0  0  0  0  0  0  0  0  0  0  0
   10.3640   -2.0340   22.0070 C   0  0  0  0  0  0  0  0  0  0  0  0
    9.0010   -1.9570   21.3780 C   0  0  0  0  0  0  0  0  0  0  0  0
    7.9100   -1.2750   21.8860 C   0  0  0  0  0  0  0  0  0  0  0  0
    6.6410   -1.1920   21.3150 C   0  0  0  0  0  0  0  0  0  0  0  0
    5.7400   -2.1310   21.6270 F   0  0  0  0  0  0  0  0  0  0  0  0
    6.7010   -1.1920   19.9610 F   0  0  0  0  0  0  0  0  0  0  0  0
    6.0320   -0.0120   21.6290 F   0  0  0  0  0  0  0  0  0  0  0  0
    8.1470   -0.5430   23.2140 C   0  0  0  0  0  0  0  0  0  0  0  0
    9.5200   -0.6510   23.7960 C   0  0  0  0  0  0  0  0  0  0  0  0
    9.6850    0.0880   25.0870 C   0  0  0  0  0  0  0  0  0  0  0  0
   10.7100   -0.4390   25.7870 F   0  0  0  0  0  0  0  0  0  0  0  0
    9.9610    1.3980   24.8520 F   0  0  0  0  0  0  0  0  0  0  0  0
    8.5930    0.0540   25.8960 F   0  0  0  0  0  0  0  0  0  0  0  0
   10.5600   -1.3620   23.2110 C   0  0  0  0  0  0  0  0  0  0  0  0
   12.6390   -2.9450   21.5790 O   0  0  0  0  0  0  0  0  0  0  0  0
   13.3340   -3.9030   20.8580 C   0  0  0  0  0  0  0  0  0  0  0  0
   14.2530   -4.1020   21.4460 C   0  0  0  0  0  0  0  0  0  0  0  0
   15.3530   -5.0010   21.1700 C   0  0  0  0  0  0  0  0  0  0  0  0
   16.3260   -5.1900   22.0620 F   0  0  0  0  0  0  0  0  0  0  0  0
   15.3980   -5.6140   20.0920 C   0  0  0  0  0  0  0  0  0  0  0  0
   14.3740   -5.4530   19.4290 C   0  0  0  0  0  0  0  0  0  0  0  0
   13.3010   -4.6700   19.8280 C   0  0  0  0  0  0  0  0  0  0  0  0
  1  2  2  0
  2  3  1  0
  3  4  2  0
  4  5  1  0
  5  6  2  0
  6  7  1  0
  7  8  1  0
  8  9  1  0
  8 10  1  0
  8 11  1  0
  7 12  2  0
 12 13  1  0
 13 14  1  0
 14 15  1  0
 14 16  1  0
 14 17  1  0
  5 18  1  0
 13 18  2  0
  4 19  1  0
 19 20  1  0
 20 21  1  0
 21 22  2  0
 22 23  1  0
 22 24  1  0
 24 25  2  0
  2 26  1  0
 20 26  2  0
 25 26  1  0
M  END
