LYN-UNI-c2dd631d-14
     RDKit          3D

 18 20  0  0  0  0  0  0  0  0999 V2000
   21.8450   14.4830    7.4500 O   0  0  0  0  0  0  0  0  0  0  0  0
   21.7190   14.5370    6.2160 C   0  0  0  0  0  0  0  0  0  0  0  0
   21.2990   15.8560    5.4640 C   0  0  0  0  0  0  0  0  0  0  0  0
   21.7270   16.1770    3.9990 C   0  0  0  0  0  0  0  0  0  0  0  0
   21.4210   17.3830    3.1050 C   0  0  0  0  0  0  0  0  0  0  0  0
   21.0540   18.5930    3.9080 C   0  0  0  0  0  0  0  0  0  0  0  0
   21.7220   18.8050    5.1800 C   0  0  0  0  0  0  0  0  0  0  0  0
   22.2350   20.0300    4.9350 C   0  0  0  0  0  0  0  0  0  0  0  0
   22.1090   20.7010    3.8080 C   0  0  0  0  0  0  0  0  0  0  0  0
   21.3020   19.7380    3.0120 C   0  0  0  0  0  0  0  0  0  0  0  0
   22.4420   15.1500    3.5990 O   0  0  0  0  0  0  0  0  0  0  0  0
   22.1200   14.5650    4.8320 C   0  0  0  0  0  0  0  0  0  0  0  0
   21.7510   15.4760    6.0300 C   0  0  0  0  0  0  0  0  0  0  0  0
   21.3980   14.9200    7.3130 C   0  0  0  0  0  0  0  0  0  0  0  0
   21.3770   13.5120    7.5470 C   0  0  0  0  0  0  0  0  0  0  0  0
   20.9280   12.8120    9.2450 Br  0  0  0  0  0  0  0  0  0  0  0  0
   21.6990   12.6740    6.4910 C   0  0  0  0  0  0  0  0  0  0  0  0
   22.0100   13.3580    5.3390 C   0  0  0  0  0  0  0  0  0  0  0  0
  1  2  2  0
  2  3  1  0
  3  4  2  0
  4  5  1  0
  5  6  1  0
  6  7  1  0
  7  8  1  0
  8  9  2  0
  6 10  1  0
  9 10  1  0
  4 11  1  0
 11 12  1  0
 12 13  1  0
 13 14  2  0
 14 15  1  0
 15 16  1  0
 15 17  2  0
  2 18  1  0
 12 18  2  0
 17 18  1  0
M  END
