LYN-UNI-c2dd631d-13
     RDKit          3D

 23 25  0  0  0  0  0  0  0  0999 V2000
   13.7060    4.5230   19.8180 C   0  0  0  0  0  0  0  0  0  0  0  0
   14.1890    3.5190   18.8090 C   0  0  0  0  0  0  0  0  0  0  0  0
   15.2960    4.5630   18.6300 C   0  0  0  0  0  0  0  0  0  0  0  0
   16.2150    4.7560   19.7570 C   0  0  0  0  0  0  0  0  0  0  0  0
   17.0800    5.8000   19.2190 C   0  0  0  0  0  0  0  0  0  0  0  0
   17.4740    6.6810   18.2270 C   0  0  0  0  0  0  0  0  0  0  0  0
   18.4880    7.6240   18.1340 C   0  0  0  0  0  0  0  0  0  0  0  0
   19.0300    8.1200   19.1190 O   0  0  0  0  0  0  0  0  0  0  0  0
   18.8540    8.0000   16.8340 C   0  0  0  0  0  0  0  0  0  0  0  0
   18.0010    7.7510   15.6010 C   0  0  0  0  0  0  0  0  0  0  0  0
   18.4100    8.1570   14.1290 C   0  0  0  0  0  0  0  0  0  0  0  0
   19.4080    9.0420   13.4200 C   0  0  0  0  0  0  0  0  0  0  0  0
   20.4710    9.9620   13.1520 C   0  0  0  0  0  0  0  0  0  0  0  0
   20.6140   10.1280   11.9500 C   0  0  0  0  0  0  0  0  0  0  0  0
   21.6490   11.0190   11.6350 C   0  0  0  0  0  0  0  0  0  0  0  0
   22.7150   10.5040   11.0070 F   0  0  0  0  0  0  0  0  0  0  0  0
   22.1350   11.5890   12.7500 F   0  0  0  0  0  0  0  0  0  0  0  0
   21.2040   12.0130   10.8470 F   0  0  0  0  0  0  0  0  0  0  0  0
   20.1730    9.6970   13.3730 C   0  0  0  0  0  0  0  0  0  0  0  0
   19.3860    8.9810   14.4250 C   0  0  0  0  0  0  0  0  0  0  0  0
   16.7680    7.1280   15.9640 O   0  0  0  0  0  0  0  0  0  0  0  0
   16.6450    6.4690   17.1810 C   0  0  0  0  0  0  0  0  0  0  0  0
   15.5260    5.3530   17.4510 C   0  0  0  0  0  0  0  0  0  0  0  0
  1  2  2  3
  2  3  1  0
  3  4  2  0
  4  5  1  0
  5  6  2  0
  6  7  1  0
  7  8  2  0
  7  9  1  0
  9 10  2  0
 10 11  1  0
 11 12  2  0
 12 13  1  0
 13 14  2  0
 14 15  1  0
 15 16  1  0
 15 17  1  0
 15 18  1  0
 14 19  1  0
 11 20  1  0
 19 20  2  0
 10 21  1  0
  6 22  1  0
 21 22  1  0
  3 23  1  0
 22 23  2  0
M  END
