LYN-UNI-7bb260d6-3
     RDKit          3D

 19 21  0  0  0  0  0  0  0  0999 V2000
   13.5930   -1.9550   25.4740 C   0  0  0  0  0  0  0  0  0  0  0  0
   13.2740   -0.6110   25.0530 O   0  0  0  0  0  0  0  0  0  0  0  0
   12.3020   -0.7660   24.1980 C   0  0  0  0  0  0  0  0  0  0  0  0
   12.3070   -1.9200   23.5470 C   0  0  0  0  0  0  0  0  0  0  0  0
   11.2580   -2.1160   22.7070 C   0  0  0  0  0  0  0  0  0  0  0  0
   10.2860   -1.2250   22.5290 C   0  0  0  0  0  0  0  0  0  0  0  0
    9.4110   -1.7980   21.6840 C   0  0  0  0  0  0  0  0  0  0  0  0
    9.3700   -2.9900   21.4850 O   0  0  0  0  0  0  0  0  0  0  0  0
    8.5830   -0.9340   21.1590 C   0  0  0  0  0  0  0  0  0  0  0  0
    8.3630    0.2960   21.6120 C   0  0  0  0  0  0  0  0  0  0  0  0
    7.2730    0.8380   20.6710 C   0  0  0  0  0  0  0  0  0  0  0  0
    7.1600    0.1050   19.4450 C   0  0  0  0  0  0  0  0  0  0  0  0
    6.2250    0.4180   18.4650 C   0  0  0  0  0  0  0  0  0  0  0  0
    5.3700    1.4660   18.6620 C   0  0  0  0  0  0  0  0  0  0  0  0
    5.4410    2.2020   19.8350 C   0  0  0  0  0  0  0  0  0  0  0  0
    6.3860    1.8990   20.8450 C   0  0  0  0  0  0  0  0  0  0  0  0
    9.0790    0.8290   22.7530 O   0  0  0  0  0  0  0  0  0  0  0  0
   10.2050   -0.0030   23.1080 C   0  0  0  0  0  0  0  0  0  0  0  0
   11.2880    0.2570   24.0170 C   0  0  0  0  0  0  0  0  0  0  0  0
  1  2  1  0
  2  3  1  0
  3  4  2  0
  4  5  1  0
  5  6  2  0
  6  7  1  0
  7  8  2  0
  7  9  1  0
  9 10  2  0
 10 11  1  0
 11 12  2  0
 12 13  1  0
 13 14  2  0
 14 15  1  0
 11 16  1  0
 15 16  2  0
 10 17  1  0
  6 18  1  0
 17 18  1  0
  3 19  1  0
 18 19  2  0
M  END
