LYN-UNI-c2dd631d-15
     RDKit          3D

 19 21  0  0  0  0  0  0  0  0999 V2000
    3.6710    2.4370   18.7330 C   0  0  0  0  0  0  0  0  0  0  0  0
    3.8840    1.2350   18.5890 O   0  0  0  0  0  0  0  0  0  0  0  0
    5.0880    0.8450   19.2100 C   0  0  0  0  0  0  0  0  0  0  0  0
    6.0460    0.0490   18.3160 C   0  0  0  0  0  0  0  0  0  0  0  0
    7.3770   -0.4150   18.9140 C   0  0  0  0  0  0  0  0  0  0  0  0
    7.6600   -0.0410   20.3600 C   0  0  0  0  0  0  0  0  0  0  0  0
    9.0350   -0.4420   21.1120 O   0  0  0  0  0  0  0  0  0  0  0  0
    9.2510   -0.0350   22.5880 C   0  0  0  0  0  0  0  0  0  0  0  0
   10.5320   -0.5610   22.9010 C   0  0  0  0  0  0  0  0  0  0  0  0
   11.0910   -0.2180   24.1560 C   0  0  0  0  0  0  0  0  0  0  0  0
   12.4300   -0.6900   24.6260 C   0  0  0  0  0  0  0  0  0  0  0  0
   13.1540   -1.5770   23.6480 C   0  0  0  0  0  0  0  0  0  0  0  0
   12.5180   -1.9250   22.3060 C   0  0  0  0  0  0  0  0  0  0  0  0
   11.2410   -1.3990   22.0090 C   0  0  0  0  0  0  0  0  0  0  0  0
    8.1950    0.2870   21.9730 C   0  0  0  0  0  0  0  0  0  0  0  0
    7.0830    0.9150   22.2530 C   0  0  0  0  0  0  0  0  0  0  0  0
    6.5810    1.5620   23.4400 O   0  0  0  0  0  0  0  0  0  0  0  0
    6.6410    0.7110   21.0510 C   0  0  0  0  0  0  0  0  0  0  0  0
    5.4320    1.1330   20.5290 C   0  0  0  0  0  0  0  0  0  0  0  0
  1  2  1  0
  2  3  1  0
  3  4  2  0
  4  5  1  0
  5  6  2  0
  6  7  1  0
  7  8  1  0
  8  9  1  0
  9 10  2  0
 10 11  1  0
 11 12  2  0
 12 13  1  0
  9 14  1  0
 13 14  2  0
  8 15  2  0
 15 16  1  0
 16 17  2  0
  6 18  1  0
 16 18  1  0
  3 19  1  0
 18 19  2  0
M  END
