LYN-UNI-b265e4fd-9
     RDKit          3D

 22 24  0  0  0  0  0  0  0  0999 V2000
   12.9710    2.0240   22.7010 O   0  0  0  0  0  0  0  0  0  0  0  0
   11.8760    1.6180   22.9960 C   0  0  0  0  0  0  0  0  0  0  0  0
   10.6250    2.5160   23.0390 C   0  0  0  0  0  0  0  0  0  0  0  0
    9.3890    1.7150   22.7440 C   0  0  0  0  0  0  0  0  0  0  0  0
    8.0700    2.4130   22.7910 C   0  0  0  0  0  0  0  0  0  0  0  0
    7.2920    2.2510   21.4900 C   0  0  0  0  0  0  0  0  0  0  0  0
    5.9090    2.9160   21.4360 C   0  0  0  0  0  0  0  0  0  0  0  0
    5.5060    3.6490   22.6940 C   0  0  0  0  0  0  0  0  0  0  0  0
    4.1410    4.2180   22.4530 C   0  0  0  0  0  0  0  0  0  0  0  0
    4.1620    5.5210   22.0580 F   0  0  0  0  0  0  0  0  0  0  0  0
    3.4540    3.5360   21.4970 F   0  0  0  0  0  0  0  0  0  0  0  0
    3.3630    4.1880   23.5720 F   0  0  0  0  0  0  0  0  0  0  0  0
    6.2690    3.7660   23.8590 C   0  0  0  0  0  0  0  0  0  0  0  0
    7.6240    3.1120   23.9090 C   0  0  0  0  0  0  0  0  0  0  0  0
    9.3540    0.3820   22.4530 O   0  0  0  0  0  0  0  0  0  0  0  0
   10.3130   -0.3220   23.0920 C   0  0  0  0  0  0  0  0  0  0  0  0
   10.0010   -1.7290   23.5100 C   0  0  0  0  0  0  0  0  0  0  0  0
   10.9600   -2.4700   24.1780 C   0  0  0  0  0  0  0  0  0  0  0  0
   12.3350   -1.9240   24.5040 C   0  0  0  0  0  0  0  0  0  0  0  0
   13.6280   -2.9060   25.3960 Br  0  0  0  0  0  0  0  0  0  0  0  0
   12.6610   -0.5170   24.0860 C   0  0  0  0  0  0  0  0  0  0  0  0
   11.5890    0.2340   23.3840 C   0  0  0  0  0  0  0  0  0  0  0  0
  1  2  2  0
  2  3  1  0
  3  4  2  0
  4  5  1  0
  5  6  2  0
  6  7  1  0
  7  8  2  0
  8  9  1  0
  9 10  1  0
  9 11  1  0
  9 12  1  0
  8 13  1  0
  5 14  1  0
 13 14  2  0
  4 15  1  0
 15 16  1  0
 16 17  1  0
 17 18  2  0
 18 19  1  0
 19 20  1  0
 19 21  2  0
  2 22  1  0
 16 22  2  0
 21 22  1  0
M  END
