LYN-UNI-7bb260d6-6
     RDKit          3D

 20 22  0  0  0  0  0  0  0  0999 V2000
    4.0600    3.7610   20.2050 C   0  0  0  0  0  0  0  0  0  0  0  0
    4.1240    2.8990   19.0790 O   0  0  0  0  0  0  0  0  0  0  0  0
    5.0200    1.8790   19.1130 C   0  0  0  0  0  0  0  0  0  0  0  0
    5.2410    1.0060   18.1090 C   0  0  0  0  0  0  0  0  0  0  0  0
    6.2080    0.0000   18.3500 C   0  0  0  0  0  0  0  0  0  0  0  0
    6.8890   -0.0840   19.5370 C   0  0  0  0  0  0  0  0  0  0  0  0
    7.7590   -1.1420   19.5930 C   0  0  0  0  0  0  0  0  0  0  0  0
    7.8580   -1.9110   18.6560 O   0  0  0  0  0  0  0  0  0  0  0  0
    8.4580   -1.1940   20.8090 C   0  0  0  0  0  0  0  0  0  0  0  0
    8.2820   -0.2810   21.8400 C   0  0  0  0  0  0  0  0  0  0  0  0
    9.0500   -0.3810   23.1540 C   0  0  0  0  0  0  0  0  0  0  0  0
   10.4720   -0.4140   23.1190 C   0  0  0  0  0  0  0  0  0  0  0  0
   11.1000   -0.3490   24.3540 C   0  0  0  0  0  0  0  0  0  0  0  0
   12.4780   -0.3040   24.3340 C   0  0  0  0  0  0  0  0  0  0  0  0
   13.1500   -1.0270   23.3600 C   0  0  0  0  0  0  0  0  0  0  0  0
   12.4070   -1.7680   22.4290 C   0  0  0  0  0  0  0  0  0  0  0  0
   10.9610   -1.4710   22.3590 C   0  0  0  0  0  0  0  0  0  0  0  0
    7.3770    0.7460   21.7250 O   0  0  0  0  0  0  0  0  0  0  0  0
    6.6890    0.8030   20.5410 C   0  0  0  0  0  0  0  0  0  0  0  0
    5.7410    1.7920   20.3310 C   0  0  0  0  0  0  0  0  0  0  0  0
  1  2  1  0
  2  3  1  0
  3  4  2  0
  4  5  1  0
  5  6  2  0
  6  7  1  0
  7  8  2  0
  7  9  1  0
  9 10  2  0
 10 11  1  0
 11 12  1  0
 12 13  1  0
 13 14  1  0
 14 15  1  0
 15 16  1  0
 12 17  1  0
 16 17  1  0
 10 18  1  0
  6 19  1  0
 18 19  1  0
  3 20  1  0
 19 20  2  0
M  END
