LYN-UNI-c2dd631d-9
     RDKit          3D

 23 26  0  0  0  0  0  0  0  0999 V2000
   22.2410   15.1950   19.5210 O   0  0  0  0  0  0  0  0  0  0  0  0
   22.6110   14.0190   19.3810 C   0  0  0  0  0  0  0  0  0  0  0  0
   22.8890   13.1660   20.5740 C   0  0  0  0  0  0  0  0  0  0  0  0
   22.0650   12.2180   19.7100 C   0  0  0  0  0  0  0  0  0  0  0  0
   21.7440   10.7930   20.2370 C   0  0  0  0  0  0  0  0  0  0  0  0
   20.4750   10.2230   19.6840 C   0  0  0  0  0  0  0  0  0  0  0  0
   20.1590    8.8850   19.9140 C   0  0  0  0  0  0  0  0  0  0  0  0
   21.0540    8.2220   20.7710 C   0  0  0  0  0  0  0  0  0  0  0  0
   22.4170    8.4520   20.4720 C   0  0  0  0  0  0  0  0  0  0  0  0
   22.8050    9.8850   20.2030 C   0  0  0  0  0  0  0  0  0  0  0  0
   21.5970   12.6360   18.4680 O   0  0  0  0  0  0  0  0  0  0  0  0
   22.4520   12.6510   17.2770 C   0  0  0  0  0  0  0  0  0  0  0  0
   21.4240   11.8250   17.2480 C   0  0  0  0  0  0  0  0  0  0  0  0
   21.9440   11.5810   16.0950 C   0  0  0  0  0  0  0  0  0  0  0  0
   23.0450   12.4060   16.0080 N   0  0  0  0  0  0  0  0  0  0  0  0
   22.7390   13.5870   15.2120 C   0  0  0  0  0  0  0  0  0  0  0  0
   23.2860   13.5180   13.9300 C   0  0  0  0  0  0  0  0  0  0  0  0
   24.6680   13.2230   13.8980 C   0  0  0  0  0  0  0  0  0  0  0  0
   25.2070   12.7060   15.0840 C   0  0  0  0  0  0  0  0  0  0  0  0
   24.3700   11.8200   15.7470 C   0  0  0  0  0  0  0  0  0  0  0  0
   20.9170   11.2630   16.9600 C   0  0  0  0  0  0  0  0  0  0  0  0
   21.5680   12.4560   18.1230 C   0  0  0  0  0  0  0  0  0  0  0  0
   22.8000   13.3880   18.0630 C   0  0  0  0  0  0  0  0  0  0  0  0
  1  2  2  0
  2  3  1  0
  3  4  2  0
  4  5  1  0
  5  6  1  0
  6  7  1  0
  7  8  1  0
  8  9  1  0
  5 10  1  0
  9 10  1  0
  4 11  1  0
 11 12  1  0
 12 13  1  0
 13 14  2  0
 14 15  1  0
 15 16  1  0
 16 17  1  0
 17 18  1  0
 18 19  1  0
 15 20  1  0
 19 20  1  0
 14 21  1  0
 21 22  2  0
  2 23  1  0
 12 23  2  0
 22 23  1  0
M  END
