LYN-UNI-b265e4fd-2
     RDKit          3D

 20 22  0  0  0  0  0  0  0  0999 V2000
   13.8220   -2.7780   23.7710 C   0  0  0  0  0  0  0  0  0  0  0  0
   13.7830   -1.9140   22.9310 O   0  0  0  0  0  0  0  0  0  0  0  0
   12.5150   -1.4380   23.0060 C   0  0  0  0  0  0  0  0  0  0  0  0
   12.3250   -0.7390   24.3390 C   0  0  0  0  0  0  0  0  0  0  0  0
   10.9750   -0.1920   24.5780 C   0  0  0  0  0  0  0  0  0  0  0  0
   10.0070   -0.3800   23.5140 C   0  0  0  0  0  0  0  0  0  0  0  0
    8.7460    0.0590   23.5790 C   0  0  0  0  0  0  0  0  0  0  0  0
    8.2940    0.0740   24.8520 O   0  0  0  0  0  0  0  0  0  0  0  0
    8.0410    0.4100   22.4690 C   0  0  0  0  0  0  0  0  0  0  0  0
    8.2350   -0.2810   21.3080 C   0  0  0  0  0  0  0  0  0  0  0  0
    7.3600    0.1280   20.1510 C   0  0  0  0  0  0  0  0  0  0  0  0
    7.4140   -0.5970   18.8070 C   0  0  0  0  0  0  0  0  0  0  0  0
    6.4700   -0.0020   17.7870 C   0  0  0  0  0  0  0  0  0  0  0  0
    5.6630    1.0730   18.0830 C   0  0  0  0  0  0  0  0  0  0  0  0
    4.8670    1.5810   17.1770 F   0  0  0  0  0  0  0  0  0  0  0  0
    5.6660    1.6490   19.3220 C   0  0  0  0  0  0  0  0  0  0  0  0
    6.4800    1.2070   20.3340 C   0  0  0  0  0  0  0  0  0  0  0  0
    9.1110   -1.1680   21.2820 O   0  0  0  0  0  0  0  0  0  0  0  0
   10.2090   -1.0420   22.2660 C   0  0  0  0  0  0  0  0  0  0  0  0
   11.4940   -1.5670   22.0400 C   0  0  0  0  0  0  0  0  0  0  0  0
  1  2  1  0
  2  3  1  0
  3  4  2  0
  4  5  1  0
  5  6  2  0
  6  7  1  0
  7  8  2  0
  7  9  1  0
  9 10  2  0
 10 11  1  0
 11 12  2  0
 12 13  1  0
 13 14  2  0
 14 15  1  0
 14 16  1  0
 11 17  1  0
 16 17  2  0
 10 18  1  0
  6 19  1  0
 18 19  1  0
  3 20  1  0
 19 20  2  0
M  END
