LYN-UNI-7bb260d6-2
     RDKit          3D

 19 21  0  0  0  0  0  0  0  0999 V2000
    8.5120    0.1900   24.9040 O   0  0  0  0  0  0  0  0  0  0  0  0
    8.9840   -0.0270   23.7970 C   0  0  0  0  0  0  0  0  0  0  0  0
    8.2440    0.2740   22.5970 C   0  0  0  0  0  0  0  0  0  0  0  0
    8.4320   -0.3930   21.5020 C   0  0  0  0  0  0  0  0  0  0  0  0
    7.5700    0.0510   20.4420 C   0  0  0  0  0  0  0  0  0  0  0  0
    6.7890    1.2020   20.6650 C   0  0  0  0  0  0  0  0  0  0  0  0
    5.9500    1.7190   19.6520 C   0  0  0  0  0  0  0  0  0  0  0  0
    5.9610    1.0430   18.4910 C   0  0  0  0  0  0  0  0  0  0  0  0
    5.0040    1.7420   17.3680 Cl  0  0  0  0  0  0  0  0  0  0  0  0
    6.6510   -0.0860   18.1700 C   0  0  0  0  0  0  0  0  0  0  0  0
    7.5000   -0.6090   19.2190 C   0  0  0  0  0  0  0  0  0  0  0  0
    9.4210   -1.3940   21.4210 O   0  0  0  0  0  0  0  0  0  0  0  0
   10.4610   -1.2990   22.3750 C   0  0  0  0  0  0  0  0  0  0  0  0
   11.7190   -1.8780   22.1730 C   0  0  0  0  0  0  0  0  0  0  0  0
   12.6990   -1.7530   23.1700 C   0  0  0  0  0  0  0  0  0  0  0  0
   13.8580   -2.3170   22.9630 F   0  0  0  0  0  0  0  0  0  0  0  0
   12.5070   -1.0790   24.3640 C   0  0  0  0  0  0  0  0  0  0  0  0
   11.2820   -0.4980   24.5930 C   0  0  0  0  0  0  0  0  0  0  0  0
   10.2690   -0.6240   23.5700 C   0  0  0  0  0  0  0  0  0  0  0  0
  1  2  2  0
  2  3  1  0
  3  4  2  0
  4  5  1  0
  5  6  2  0
  6  7  1  0
  7  8  2  0
  8  9  1  0
  8 10  1  0
  5 11  1  0
 10 11  2  0
  4 12  1  0
 12 13  1  0
 13 14  1  0
 14 15  2  0
 15 16  1  0
 15 17  1  0
 17 18  2  0
  2 19  1  0
 13 19  2  0
 18 19  1  0
M  END
