LYN-UNI-b265e4fd-6
     RDKit          3D

 23 25  0  0  0  0  0  0  0  0999 V2000
   21.0140   10.8970   15.2610 C   0  0  0  0  0  0  0  0  0  0  0  0
   21.5370   11.7090   14.2130 O   0  0  0  0  0  0  0  0  0  0  0  0
   22.1620   11.2370   13.0740 C   0  0  0  0  0  0  0  0  0  0  0  0
   23.5600   10.6090   13.1340 C   0  0  0  0  0  0  0  0  0  0  0  0
   24.2050   10.1420   11.8220 C   0  0  0  0  0  0  0  0  0  0  0  0
   23.4000   10.3520   10.5420 C   0  0  0  0  0  0  0  0  0  0  0  0
   23.9870    9.9540    9.1780 C   0  0  0  0  0  0  0  0  0  0  0  0
   24.6390    8.9380    8.9350 O   0  0  0  0  0  0  0  0  0  0  0  0
   23.6880   11.0560    8.1860 C   0  0  0  0  0  0  0  0  0  0  0  0
   22.2960   11.6520    8.3860 C   0  0  0  0  0  0  0  0  0  0  0  0
   22.1070   12.8530    7.5060 C   0  0  0  0  0  0  0  0  0  0  0  0
   21.2570   13.8950    8.1950 C   0  0  0  0  0  0  0  0  0  0  0  0
   21.0830   15.2150    7.4600 C   0  0  0  0  0  0  0  0  0  0  0  0
   21.7610   15.3960    6.1080 C   0  0  0  0  0  0  0  0  0  0  0  0
   21.6710   16.6290    5.4500 C   0  0  0  0  0  0  0  0  0  0  0  0
   22.8840   17.2490    5.4840 F   0  0  0  0  0  0  0  0  0  0  0  0
   20.8590   17.5210    6.0620 F   0  0  0  0  0  0  0  0  0  0  0  0
   21.3030   16.5930    4.1520 F   0  0  0  0  0  0  0  0  0  0  0  0
   22.4980   14.3390    5.5340 C   0  0  0  0  0  0  0  0  0  0  0  0
   22.6790   13.0180    6.2510 C   0  0  0  0  0  0  0  0  0  0  0  0
   21.4660   11.1100    9.4110 O   0  0  0  0  0  0  0  0  0  0  0  0
   22.1390   10.9230   10.5660 C   0  0  0  0  0  0  0  0  0  0  0  0
   21.4960   11.3660   11.8440 C   0  0  0  0  0  0  0  0  0  0  0  0
  1  2  1  0
  2  3  1  0
  3  4  2  0
  4  5  1  0
  5  6  2  0
  6  7  1  0
  7  8  2  0
  7  9  1  0
  9 10  2  0
 10 11  1  0
 11 12  2  0
 12 13  1  0
 13 14  2  0
 14 15  1  0
 15 16  1  0
 15 17  1  0
 15 18  1  0
 14 19  1  0
 11 20  1  0
 19 20  2  0
 10 21  1  0
  6 22  1  0
 21 22  1  0
  3 23  1  0
 22 23  2  0
M  END
