LYN-UNI-7bb260d6-7
     RDKit          3D

 18 20  0  0  0  0  0  0  0  0999 V2000
   10.5660    2.4140   23.0150 O   0  0  0  0  0  0  0  0  0  0  0  0
   10.1310    1.3310   22.6480 C   0  0  0  0  0  0  0  0  0  0  0  0
    9.0690    1.2350   21.6410 C   0  0  0  0  0  0  0  0  0  0  0  0
    8.2320    0.2160   21.5650 C   0  0  0  0  0  0  0  0  0  0  0  0
    7.2620    0.2780   20.4440 C   0  0  0  0  0  0  0  0  0  0  0  0
    7.3150   -0.4920   19.2390 C   0  0  0  0  0  0  0  0  0  0  0  0
    6.3480   -0.3370   18.1540 C   0  0  0  0  0  0  0  0  0  0  0  0
    5.3360    0.5860   18.3020 C   0  0  0  0  0  0  0  0  0  0  0  0
    5.2520    1.3320   19.4520 C   0  0  0  0  0  0  0  0  0  0  0  0
    6.2180    1.1920   20.5510 C   0  0  0  0  0  0  0  0  0  0  0  0
    8.3730   -0.8040   22.5180 O   0  0  0  0  0  0  0  0  0  0  0  0
    9.6690   -0.9390   23.0740 C   0  0  0  0  0  0  0  0  0  0  0  0
   10.0260   -2.1510   23.5610 C   0  0  0  0  0  0  0  0  0  0  0  0
   11.2570   -2.3630   24.0910 C   0  0  0  0  0  0  0  0  0  0  0  0
   12.1790   -1.4560   24.1720 C   0  0  0  0  0  0  0  0  0  0  0  0
   13.6340   -2.2770   24.9750 Br  0  0  0  0  0  0  0  0  0  0  0  0
   11.9550   -0.1570   23.7130 C   0  0  0  0  0  0  0  0  0  0  0  0
   10.6030    0.0730   23.1510 C   0  0  0  0  0  0  0  0  0  0  0  0
  1  2  2  0
  2  3  1  0
  3  4  2  0
  4  5  1  0
  5  6  2  0
  6  7  1  0
  7  8  2  0
  8  9  1  0
  5 10  1  0
  9 10  2  0
  4 11  1  0
 11 12  1  0
 12 13  1  0
 13 14  2  0
 14 15  1  0
 15 16  1  0
 15 17  2  0
  2 18  1  0
 12 18  2  0
 17 18  1  0
M  END
