LYN-UNI-c2dd631d-6
     RDKit          3D

 28 31  0  0  0  0  0  0  0  0999 V2000
   22.6340   12.2460   19.9490 C   0  0  0  0  0  0  0  0  0  0  0  0
   22.0420   10.9110   20.0120 N   0  0  0  0  0  0  0  0  0  0  0  0
   21.4440   10.3180   18.8040 C   0  0  0  0  0  0  0  0  0  0  0  0
   20.5960    9.1020   19.1810 C   0  0  0  0  0  0  0  0  0  0  0  0
   21.3710    8.2020   20.0190 N   0  0  0  0  0  0  0  0  0  0  0  0
   20.7380    7.2680   20.8750 C   0  0  0  0  0  0  0  0  0  0  0  0
   21.2130    7.0210   22.2460 C   0  0  0  0  0  0  0  0  0  0  0  0
   20.6630    6.1620   23.1340 C   0  0  0  0  0  0  0  0  0  0  0  0
   19.5470    5.4460   22.7260 C   0  0  0  0  0  0  0  0  0  0  0  0
   18.9520    4.6060   23.5630 C   0  0  0  0  0  0  0  0  0  0  0  0
   19.7900    3.9890   24.5000 O   0  0  0  0  0  0  0  0  0  0  0  0
   17.5200    4.3130   23.4520 C   0  0  0  0  0  0  0  0  0  0  0  0
   16.8940    4.3800   22.0740 C   0  0  0  0  0  0  0  0  0  0  0  0
   15.3110    4.0360   22.1960 C   0  0  0  0  0  0  0  0  0  0  0  0
   14.6850    2.7840   21.8570 C   0  0  0  0  0  0  0  0  0  0  0  0
   13.3330    2.5150   22.0640 C   0  0  0  0  0  0  0  0  0  0  0  0
   12.5010    3.4780   22.6010 C   0  0  0  0  0  0  0  0  0  0  0  0
   11.1400    3.1670   22.8320 C   0  0  0  0  0  0  0  0  0  0  0  0
   10.8330    1.8830   23.0550 F   0  0  0  0  0  0  0  0  0  0  0  0
   10.6410    3.8340   23.8860 F   0  0  0  0  0  0  0  0  0  0  0  0
   10.3230    3.4810   21.8240 F   0  0  0  0  0  0  0  0  0  0  0  0
   13.0470    4.7250   22.9050 C   0  0  0  0  0  0  0  0  0  0  0  0
   14.3970    4.9710   22.7020 C   0  0  0  0  0  0  0  0  0  0  0  0
   17.7610    4.7120   21.1430 O   0  0  0  0  0  0  0  0  0  0  0  0
   18.9410    5.5110   21.4870 C   0  0  0  0  0  0  0  0  0  0  0  0
   19.6070    6.4980   20.5160 C   0  0  0  0  0  0  0  0  0  0  0  0
   22.7850    8.5850   20.1830 C   0  0  0  0  0  0  0  0  0  0  0  0
   22.8670    9.9670   20.8000 C   0  0  0  0  0  0  0  0  0  0  0  0
  1  2  1  0
  2  3  1  0
  3  4  1  0
  4  5  1  0
  5  6  1  0
  6  7  2  0
  7  8  1  0
  8  9  2  0
  9 10  1  0
 10 11  2  0
 10 12  1  0
 12 13  2  0
 13 14  1  0
 14 15  2  0
 15 16  1  0
 16 17  2  0
 17 18  1  0
 18 19  1  0
 18 20  1  0
 18 21  1  0
 17 22  1  0
 14 23  1  0
 22 23  2  0
 13 24  1  0
  9 25  1  0
 24 25  1  0
  6 26  1  0
 25 26  2  0
  5 27  1  0
  2 28  1  0
 27 28  1  0
M  END
