LYN-UNI-7bb260d6-13
     RDKit          3D

 16 17  0  0  0  0  0  0  0  0999 V2000
    8.6370   -1.0100   21.0410 O   0  0  0  0  0  0  0  0  0  0  0  0
    9.3180   -0.3280   21.7920 C   0  0  0  0  0  0  0  0  0  0  0  0
    9.0240    1.0090   22.1140 C   0  0  0  0  0  0  0  0  0  0  0  0
    9.4470    1.8960   23.2320 C   0  0  0  0  0  0  0  0  0  0  0  0
    8.9730    3.3470   23.3630 C   0  0  0  0  0  0  0  0  0  0  0  0
    8.2040    3.7440   22.3180 F   0  0  0  0  0  0  0  0  0  0  0  0
   10.0110    4.2190   23.4600 F   0  0  0  0  0  0  0  0  0  0  0  0
    8.2120    3.5220   24.4720 F   0  0  0  0  0  0  0  0  0  0  0  0
   10.3300    1.2510   24.1730 O   0  0  0  0  0  0  0  0  0  0  0  0
   10.9620    0.0200   23.6610 C   0  0  0  0  0  0  0  0  0  0  0  0
   12.1790   -0.3650   24.4970 C   0  0  0  0  0  0  0  0  0  0  0  0
   12.9290   -1.6070   24.0700 C   0  0  0  0  0  0  0  0  0  0  0  0
   13.9710   -2.0470   24.7390 F   0  0  0  0  0  0  0  0  0  0  0  0
   12.4650   -2.3610   22.8580 C   0  0  0  0  0  0  0  0  0  0  0  0
   11.2280   -1.8630   22.1270 C   0  0  0  0  0  0  0  0  0  0  0  0
   10.5350   -0.7400   22.5400 C   0  0  0  0  0  0  0  0  0  0  0  0
  1  2  2  0
  2  3  1  0
  3  4  2  0
  4  5  1  0
  5  6  1  0
  5  7  1  0
  5  8  1  0
  4  9  1  0
  9 10  1  0
 10 11  1  0
 11 12  2  0
 12 13  1  0
 12 14  1  0
 14 15  2  0
  2 16  1  0
 10 16  2  0
 15 16  1  0
M  END
