LYN-UNI-0d9431a4-1
     RDKit          3D

 17 19  0  0  0  0  0  0  0  0999 V2000
   21.6340   16.0440    9.9240 O   0  0  0  0  0  0  0  0  0  0  0  0
   21.6670   16.2170    8.7090 C   0  0  0  0  0  0  0  0  0  0  0  0
   21.6640   17.5530    8.0480 C   0  0  0  0  0  0  0  0  0  0  0  0
   21.6930   17.6930    6.5290 C   0  0  0  0  0  0  0  0  0  0  0  0
   21.6660   19.1560    6.1160 C   0  0  0  0  0  0  0  0  0  0  0  0
   21.8250   19.3280    4.6360 C   0  0  0  0  0  0  0  0  0  0  0  0
   20.5370   19.2410    4.1860 C   0  0  0  0  0  0  0  0  0  0  0  0
   19.7360   19.6610    5.2680 C   0  0  0  0  0  0  0  0  0  0  0  0
   20.4360   19.6830    6.4720 C   0  0  0  0  0  0  0  0  0  0  0  0
   21.7120   16.4790    5.6910 O   0  0  0  0  0  0  0  0  0  0  0  0
   21.7900   15.2660    6.3680 C   0  0  0  0  0  0  0  0  0  0  0  0
   21.9100   14.0900    5.5960 C   0  0  0  0  0  0  0  0  0  0  0  0
   22.0270   12.8170    6.2100 C   0  0  0  0  0  0  0  0  0  0  0  0
   22.0190   12.7300    7.6050 C   0  0  0  0  0  0  0  0  0  0  0  0
   22.2330   11.1010    8.5930 Br  0  0  0  0  0  0  0  0  0  0  0  0
   21.8780   13.8740    8.3230 C   0  0  0  0  0  0  0  0  0  0  0  0
   21.7710   15.1060    7.7720 C   0  0  0  0  0  0  0  0  0  0  0  0
  1  2  2  0
  2  3  1  0
  3  4  2  0
  4  5  1  0
  5  6  1  0
  6  7  1  0
  7  8  1  0
  5  9  1  0
  8  9  1  0
  4 10  1  0
 10 11  1  0
 11 12  1  0
 12 13  2  0
 13 14  1  0
 14 15  1  0
 14 16  2  0
  2 17  1  0
 11 17  2  0
 16 17  1  0
M  END
