LYN-UNI-c2dd631d-12
     RDKit          3D

 22 25  0  0  0  0  0  0  0  0999 V2000
   13.4930   -0.8460   26.3950 O   0  0  0  0  0  0  0  0  0  0  0  0
   13.8850   -1.9660   26.2150 C   0  0  0  0  0  0  0  0  0  0  0  0
   15.2890   -2.2150   26.5750 C   0  0  0  0  0  0  0  0  0  0  0  0
   16.1020   -3.0840   25.7730 C   0  0  0  0  0  0  0  0  0  0  0  0
   18.0560   -2.6460   25.6140 C   0  0  0  0  0  0  0  0  0  0  0  0
   19.3590   -2.3230   26.4730 C   0  0  0  0  0  0  0  0  0  0  0  0
   20.4430   -2.0690   25.7330 C   0  0  0  0  0  0  0  0  0  0  0  0
   20.0780   -2.1660   24.4550 C   0  0  0  0  0  0  0  0  0  0  0  0
   18.7640   -2.4820   24.3110 O   0  0  0  0  0  0  0  0  0  0  0  0
   15.0550   -3.5980   24.7970 O   0  0  0  0  0  0  0  0  0  0  0  0
   13.7100   -2.9520   24.3340 C   0  0  0  0  0  0  0  0  0  0  0  0
   12.8350   -3.0270   23.0740 C   0  0  0  0  0  0  0  0  0  0  0  0
   11.4780   -2.2220   23.1440 C   0  0  0  0  0  0  0  0  0  0  0  0
   10.5300   -2.2550   22.1660 N   0  0  0  0  0  0  0  0  0  0  0  0
   10.1700   -0.9950   21.8140 C   0  0  0  0  0  0  0  0  0  0  0  0
    8.8750   -0.4890   21.6490 C   0  0  0  0  0  0  0  0  0  0  0  0
    7.9760   -0.9950   22.5730 C   0  0  0  0  0  0  0  0  0  0  0  0
    8.6220   -1.8340   23.4660 C   0  0  0  0  0  0  0  0  0  0  0  0
    9.4070   -2.7930   22.7980 C   0  0  0  0  0  0  0  0  0  0  0  0
   11.1510   -1.4670   24.1680 C   0  0  0  0  0  0  0  0  0  0  0  0
   11.8600   -1.3010   25.2180 C   0  0  0  0  0  0  0  0  0  0  0  0
   13.1470   -2.1420   25.1740 C   0  0  0  0  0  0  0  0  0  0  0  0
  1  2  2  0
  2  3  1  0
  3  4  2  0
  4  5  1  0
  5  6  2  0
  6  7  1  0
  7  8  2  0
  5  9  1  0
  8  9  1  0
  4 10  1  0
 10 11  1  0
 11 12  1  0
 12 13  2  0
 13 14  1  0
 14 15  1  0
 15 16  1  0
 16 17  1  0
 17 18  1  0
 14 19  1  0
 18 19  1  0
 13 20  1  0
 20 21  2  0
  2 22  1  0
 11 22  2  0
 21 22  1  0
M  END
