MAK-UNK-de8f6d00-1
     RDKit          3D

 34 38  0  0  0  0  0  0  0  0999 V2000
   13.6870   -3.1180   20.3840 O   0  0  0  0  0  0  0  0  0  0  0  0
   13.2840   -2.0090   20.7370 C   0  0  0  0  0  0  0  0  0  0  0  0
   13.9190   -0.7320   20.5090 N   0  0  0  0  0  0  0  0  0  0  0  0
   14.6920   -0.0120   19.4320 C   0  0  0  0  0  0  0  0  0  0  0  0
   15.2680   -0.4810   18.2880 C   0  0  0  0  0  0  0  0  0  0  0  0
   15.8670    0.3170   17.3600 C   0  0  0  0  0  0  0  0  0  0  0  0
   15.9650    1.6270   17.5430 C   0  0  0  0  0  0  0  0  0  0  0  0
   15.4840    2.1890   18.6910 C   0  0  0  0  0  0  0  0  0  0  0  0
   14.8690    1.3840   19.6130 C   0  0  0  0  0  0  0  0  0  0  0  0
   12.1160   -1.9030   21.4960 N   0  0  0  0  0  0  0  0  0  0  0  0
   12.3110   -2.0960   22.8430 C   0  0  0  0  0  0  0  0  0  0  0  0
   13.4130   -2.7890   23.1680 C   0  0  0  0  0  0  0  0  0  0  0  0
   13.7490   -3.0070   24.4390 C   0  0  0  0  0  0  0  0  0  0  0  0
   12.9910   -2.5330   25.3830 C   0  0  0  0  0  0  0  0  0  0  0  0
   11.8550   -1.8640   25.1710 N   0  0  0  0  0  0  0  0  0  0  0  0
   11.5160   -1.6630   23.9070 C   0  0  0  0  0  0  0  0  0  0  0  0
   10.3540   -1.0250   23.6850 N   0  0  0  0  0  0  0  0  0  0  0  0
    9.1770   -1.3670   24.4470 C   0  0  0  0  0  0  0  0  0  0  0  0
    7.9220   -0.7130   23.8820 C   0  0  0  0  0  0  0  0  0  0  0  0
    8.2460    0.5820   23.2710 N   0  0  0  0  0  0  0  0  0  0  0  0
    8.1970    0.7700   21.8980 C   0  0  0  0  0  0  0  0  0  0  0  0
    8.4110    1.8880   21.4090 O   0  0  0  0  0  0  0  0  0  0  0  0
    7.8700   -0.3360   21.1400 C   0  0  0  0  0  0  0  0  0  0  0  0
    7.0740   -0.0780   20.0670 C   0  0  0  0  0  0  0  0  0  0  0  0
    7.2530   -0.4820   18.7590 C   0  0  0  0  0  0  0  0  0  0  0  0
    6.2540    0.0020   17.9920 N   0  0  0  0  0  0  0  0  0  0  0  0
    5.3960    0.7150   18.7780 C   0  0  0  0  0  0  0  0  0  0  0  0
    4.3010    1.3270   18.3440 N   0  0  0  0  0  0  0  0  0  0  0  0
    3.6130    1.9670   19.3140 C   0  0  0  0  0  0  0  0  0  0  0  0
    3.9610    2.0220   20.6570 C   0  0  0  0  0  0  0  0  0  0  0  0
    5.1310    1.3640   21.0630 C   0  0  0  0  0  0  0  0  0  0  0  0
    5.8760    0.6840   20.0820 C   0  0  0  0  0  0  0  0  0  0  0  0
    9.3810    1.2070   23.9360 C   0  0  0  0  0  0  0  0  0  0  0  0
   10.6050    0.3950   23.5540 C   0  0  0  0  0  0  0  0  0  0  0  0
  1  2  2  0
  2  3  1  0
  3  4  1  0
  4  5  2  0
  5  6  1  0
  6  7  2  0
  7  8  1  0
  4  9  1  0
  8  9  2  0
  2 10  1  0
 10 11  1  0
 11 12  2  0
 12 13  1  0
 13 14  2  0
 14 15  1  0
 11 16  1  0
 15 16  2  0
 16 17  1  0
 17 18  1  0
 18 19  1  0
 19 20  1  0
 20 21  1  0
 21 22  2  0
 21 23  1  0
 23 24  1  0
 24 25  2  0
 25 26  1  0
 26 27  1  0
 27 28  1  0
 28 29  2  0
 29 30  1  0
 30 31  2  0
 24 32  1  0
 27 32  2  0
 31 32  1  0
 20 33  1  0
 17 34  1  0
 33 34  1  0
M  END
