MAK-UNK-10799360-9-acrylamide
     RDKit          3D

 29 32  0  0  0  0  0  0  0  0999 V2000
    7.0610   -3.5340   19.8290 C   0  0  0  0  0  0  0  0  0  0  0  0
    7.0700   -4.2110   21.1810 C   0  0  0  0  0  0  0  0  0  0  0  0
    6.2070   -3.4070   22.1180 C   0  0  0  0  0  0  0  0  0  0  0  0
    5.2130   -3.8960   21.3710 O   0  0  0  0  0  0  0  0  0  0  0  0
    7.5230   -3.0610   22.7290 N   0  0  0  0  0  0  0  0  0  0  0  0
    7.7820   -2.7720   24.1810 C   0  0  0  0  0  0  0  0  0  0  0  0
    9.2380   -2.2330   24.3330 C   0  0  1  0  0  0  0  0  0  0  0  0
    9.7840   -3.2900   23.4090 C   0  0  0  0  0  0  0  0  0  0  0  0
    8.9330   -2.9190   22.1780 C   0  0  2  0  0  0  0  0  0  0  0  0
    9.4240   -1.5090   22.1540 C   0  0  0  0  0  0  0  0  0  0  0  0
    9.4770   -0.9160   23.5240 C   0  0  1  0  0  0  0  0  0  0  0  0
    8.5050   -0.0020   23.8330 C   0  0  0  0  0  0  0  0  0  0  0  0
    7.2450   -0.4930   23.2650 N   0  0  0  0  0  0  0  0  0  0  0  0
    6.2080   -0.8430   24.2630 C   0  0  0  0  0  0  0  0  0  0  0  0
    4.9960   -1.1380   23.6170 C   0  0  0  0  0  0  0  0  0  0  0  0
    4.4890   -0.0690   22.8670 C   0  0  0  0  0  0  0  0  0  0  0  0
    3.1520    0.3260   22.9120 C   0  0  0  0  0  0  0  0  0  0  0  0
    2.6880    1.3990   22.1430 C   0  0  0  0  0  0  0  0  0  0  0  0
    1.3310    1.7170   22.2680 C   0  0  0  0  0  0  0  0  0  0  0  0
    1.0590    2.9790   22.6980 F   0  0  0  0  0  0  0  0  0  0  0  0
    0.6030    1.5030   21.1410 F   0  0  0  0  0  0  0  0  0  0  0  0
    3.5810    2.0970   21.3020 C   0  0  0  0  0  0  0  0  0  0  0  0
    3.0520    3.4550   20.3060 S   0  0  0  0  0  0  0  0  0  0  0  0
    4.0770    4.7020   20.8000 N   0  0  0  0  0  0  0  0  0  0  0  0
    1.7020    3.7990   20.7050 O   0  0  0  0  0  0  0  0  0  0  0  0
    3.3690    3.1220   18.9380 O   0  0  0  0  0  0  0  0  0  0  0  0
    4.9280    1.6910   21.2700 C   0  0  0  0  0  0  0  0  0  0  0  0
    5.4780    0.6350   22.0090 C   0  0  0  0  0  0  0  0  0  0  0  0
    6.9150    0.1370   22.0560 C   0  0  0  0  0  0  0  0  0  0  0  0
  1  2  1  0
  2  3  1  0
  3  4  2  0
  3  5  1  0
  5  6  1  0
  7  6  1  6
  7  8  1  0
  5  9  1  0
  8  9  1  0
  9 10  1  1
  7 11  1  0
 10 11  1  0
 11 12  1  6
 12 13  1  0
 13 14  1  0
 14 15  1  0
 15 16  1  0
 16 17  2  0
 17 18  1  0
 18 19  1  0
 19 20  1  0
 19 21  1  0
 18 22  2  0
 22 23  1  0
 23 24  1  0
 23 25  2  0
 23 26  2  0
 22 27  1  0
 16 28  1  0
 27 28  2  0
 13 29  1  0
 28 29  1  0
M  END
