MAK-UNK-01147c51-2
     RDKit          3D

 23 25  0  0  0  0  0  0  0  0999 V2000
    7.6020   -0.9340   19.9380 N   0  0  0  0  0  0  0  0  0  0  0  0
    7.3570   -1.4830   21.2760 C   0  0  0  0  0  0  0  0  0  0  0  0
    8.0110   -0.7520   22.3770 C   0  0  1  0  0  0  0  0  0  0  0  0
    7.4880   -1.1230   23.6160 O   0  0  0  0  0  0  0  0  0  0  0  0
    8.7180   -1.2930   24.4350 C   0  0  2  0  0  0  0  0  0  0  0  0
    8.9390    0.1120   25.0490 C   0  0  0  0  0  0  0  0  0  0  0  0
    7.6430    0.6120   25.7100 C   0  0  0  0  0  0  0  0  0  0  0  0
    7.7350    1.5950   26.7090 C   0  0  0  0  0  0  0  0  0  0  0  0
    6.6330    1.7340   27.5590 C   0  0  0  0  0  0  0  0  0  0  0  0
    7.0510    1.8750   28.8920 C   0  0  0  0  0  0  0  0  0  0  0  0
    7.1880    3.1820   29.3760 C   0  0  0  0  0  0  0  0  0  0  0  0
    7.0140    4.2830   28.5370 C   0  0  0  0  0  0  0  0  0  0  0  0
    6.1980    4.0900   27.4330 C   0  0  0  0  0  0  0  0  0  0  0  0
    5.7890    2.7800   27.1740 C   0  0  0  0  0  0  0  0  0  0  0  0
   10.0490   -1.8630   23.6690 C   0  0  0  0  0  0  0  0  0  0  0  0
   10.5080   -0.9000   22.7530 C   0  0  0  0  0  0  0  0  0  0  0  0
    9.2800   -1.2250   22.9240 C   0  0  0  0  0  0  0  0  0  0  0  0
    9.2630   -2.2750   23.8810 C   0  0  0  0  0  0  0  0  0  0  0  0
   10.4090   -2.8890   24.5670 C   0  0  0  0  0  0  0  0  0  0  0  0
   11.6750   -2.3680   24.2340 C   0  0  0  0  0  0  0  0  0  0  0  0
   12.8010   -2.8730   24.8230 O   0  0  0  0  0  0  0  0  0  0  0  0
   11.7510   -1.2310   23.1930 C   0  0  0  0  0  0  0  0  0  0  0  0
   12.9210   -0.6570   22.7780 O   0  0  0  0  0  0  0  0  0  0  0  0
  1  2  1  0
  3  2  1  6
  3  4  1  0
  4  5  1  0
  5  6  1  6
  6  7  1  0
  7  8  1  0
  8  9  1  0
  9 10  1  0
 10 11  1  0
 11 12  1  0
 12 13  1  0
  9 14  1  0
 13 14  1  0
  5 15  1  0
 15 16  1  0
  3 17  1  0
 16 17  2  0
 17 18  1  0
 18 19  2  0
 19 20  1  0
 20 21  1  0
 16 22  1  0
 20 22  2  0
 22 23  1  0
M  END
