MAK-UNK-10dfa458-15-vinylsulfonamide
     RDKit          3D

 35 38  0  0  0  0  0  0  0  0999 V2000
    6.4450   -4.0540   20.0870 C   0  0  0  0  0  0  0  0  0  0  0  0
    6.4810   -2.8270   21.0150 C   0  0  0  0  0  0  0  0  0  0  0  0
    5.5280   -2.9830   22.5340 S   0  0  0  0  0  0  0  0  0  0  0  0
    4.1560   -3.2690   22.2560 O   0  0  0  0  0  0  0  0  0  0  0  0
    5.8830   -1.8570   23.3720 O   0  0  0  0  0  0  0  0  0  0  0  0
    6.0330   -4.3390   23.3100 N   0  0  0  0  0  0  0  0  0  0  0  0
    6.5760   -5.4970   22.6200 C   0  0  0  0  0  0  0  0  0  0  0  0
    8.0390   -5.0090   22.4900 C   0  0  0  0  0  0  0  0  0  0  0  0
    8.7650   -5.0350   23.7640 N   0  0  0  0  0  0  0  0  0  0  0  0
    9.5540   -3.8770   24.1660 C   0  0  0  0  0  0  0  0  0  0  0  0
   10.3570   -3.0040   23.2400 C   0  0  0  0  0  0  0  0  0  0  0  0
   11.7670   -3.1490   23.7840 C   0  0  0  0  0  0  0  0  0  0  0  0
   12.7910   -2.3490   22.9530 C   0  0  0  0  0  0  0  0  0  0  0  0
   12.4370   -1.4960   21.7470 C   0  0  0  0  0  0  0  0  0  0  0  0
   13.6700   -0.8010   21.0700 C   0  0  0  0  0  0  0  0  0  0  0  0
   14.2770   -0.6430   19.6550 N   0  0  0  0  0  0  0  0  0  0  0  0
   14.3670    0.4920   18.6710 C   0  0  0  0  0  0  0  0  0  0  0  0
   15.0470    1.4250   19.0830 O   0  0  0  0  0  0  0  0  0  0  0  0
   13.8040    0.7790   17.2010 C   0  0  0  0  0  0  0  0  0  0  0  0
   12.2870    1.5550   16.4680 N   0  0  0  0  0  0  0  0  0  0  0  0
   10.4340    0.8320   14.7510 C   0  0  0  0  0  0  0  0  0  0  0  0
   10.7340    0.4610   13.1420 C   0  0  0  0  0  0  0  0  0  0  0  0
    9.8290   -0.2330   12.4780 C   0  0  0  0  0  0  0  0  0  0  0  0
   10.0930   -0.6800   11.2730 N   0  0  0  0  0  0  0  0  0  0  0  0
   11.2120   -0.2540   10.9010 C   0  0  0  0  0  0  0  0  0  0  0  0
   11.7820   -0.5290    9.6990 C   0  0  0  0  0  0  0  0  0  0  0  0
   12.9300    0.0560    9.3190 C   0  0  0  0  0  0  0  0  0  0  0  0
   13.5400    0.8850   10.1230 C   0  0  0  0  0  0  0  0  0  0  0  0
   14.6700    1.5330    9.8930 F   0  0  0  0  0  0  0  0  0  0  0  0
   12.9800    1.1030   11.2850 C   0  0  0  0  0  0  0  0  0  0  0  0
   11.6960    0.5440   11.9070 C   0  0  0  0  0  0  0  0  0  0  0  0
   11.0750   -1.4630   21.4440 C   0  0  0  0  0  0  0  0  0  0  0  0
    9.9960   -2.2360   22.1830 C   0  0  0  0  0  0  0  0  0  0  0  0
    7.7310   -5.2000   24.7800 C   0  0  0  0  0  0  0  0  0  0  0  0
    6.5980   -4.1820   24.6420 C   0  0  0  0  0  0  0  0  0  0  0  0
  1  2  1  0
  3  2  1  0
  3  4  2  0
  3  5  2  0
  3  6  1  0
  6  7  1  0
  7  8  1  0
  8  9  1  0
  9 10  1  0
 10 11  1  0
 11 12  2  0
 12 13  1  0
 13 14  2  0
 14 15  1  0
 15 16  1  0
 16 17  1  0
 17 18  2  0
 17 19  1  0
 19 20  1  0
 20 21  1  0
 21 22  1  0
 22 23  2  0
 23 24  1  0
 24 25  1  0
 25 26  1  0
 26 27  2  0
 27 28  1  0
 28 29  1  0
 28 30  2  0
 22 31  1  0
 25 31  2  0
 30 31  1  0
 14 32  1  0
 11 33  1  0
 32 33  2  0
  9 34  1  0
  6 35  1  0
 34 35  1  0
M  END
