MAK-UNK-1e8f9e3c-1
     RDKit          3D

 26 28  0  0  0  0  0  0  0  0999 V2000
   12.4360   -1.0280   24.2580 C   0  0  0  0  0  0  0  0  0  0  0  0
   12.2580    0.4270   23.2210 S   0  0  0  0  0  0  0  0  0  0  0  0
   12.7920    1.6140   23.7680 O   0  0  0  0  0  0  0  0  0  0  0  0
   12.8160   -0.0520   22.0050 O   0  0  0  0  0  0  0  0  0  0  0  0
   10.5760    0.6720   23.0730 N   0  0  0  0  0  0  0  0  0  0  0  0
    9.9140   -0.3800   22.4280 C   0  0  0  0  0  0  0  0  0  0  0  0
   10.9620   -1.3740   22.0440 C   0  0  0  0  0  0  0  0  0  0  0  0
   10.5630   -2.5690   21.3430 C   0  0  0  0  0  0  0  0  0  0  0  0
    9.0870   -2.7530   21.0380 C   0  0  0  0  0  0  0  0  0  0  0  0
    8.0860   -1.7440   21.4480 C   0  0  0  0  0  0  0  0  0  0  0  0
    6.6970   -2.2070   21.0140 C   0  0  0  0  0  0  0  0  0  0  0  0
    6.5680   -2.6060   19.6930 O   0  0  0  0  0  0  0  0  0  0  0  0
    5.7060   -2.2270   21.9380 N   0  0  0  0  0  0  0  0  0  0  0  0
    5.1520   -3.3150   22.7080 C   0  0  0  0  0  0  0  0  0  0  0  0
    5.2300   -4.6430   21.9860 C   0  0  0  0  0  0  0  0  0  0  0  0
    4.6240   -5.7560   22.8490 C   0  0  0  0  0  0  0  0  0  0  0  0
    4.0430   -5.4670   24.2280 C   0  0  0  0  0  0  0  0  0  0  0  0
    4.0690   -4.0460   24.7560 C   0  0  0  0  0  0  0  0  0  0  0  0
    3.5580   -3.6760   26.0130 N   0  0  0  0  0  0  0  0  0  0  0  0
    2.1410   -3.7930   26.2830 C   0  0  0  0  0  0  0  0  0  0  0  0
    1.7330   -2.4450   26.8420 C   0  0  0  0  0  0  0  0  0  0  0  0
    2.9810   -2.0080   27.5760 C   0  0  0  0  0  0  0  0  0  0  0  0
    4.0760   -2.5670   26.7010 C   0  0  0  0  0  0  0  0  0  0  0  0
    5.1960   -2.0780   26.6540 O   0  0  0  0  0  0  0  0  0  0  0  0
    4.6240   -3.0650   23.9600 C   0  0  0  0  0  0  0  0  0  0  0  0
    8.5100   -0.5610   22.1390 C   0  0  0  0  0  0  0  0  0  0  0  0
  1  2  1  0
  2  3  2  0
  2  4  2  0
  2  5  1  0
  5  6  1  0
  6  7  2  0
  7  8  1  0
  8  9  2  0
  9 10  1  0
 10 11  1  0
 11 12  2  0
 11 13  1  0
 13 14  1  0
 14 15  2  0
 15 16  1  0
 16 17  2  0
 17 18  1  0
 18 19  1  0
 19 20  1  0
 20 21  1  0
 21 22  1  0
 19 23  1  0
 22 23  1  0
 23 24  2  0
 14 25  1  0
 18 25  2  0
  6 26  1  0
 10 26  2  0
M  END
