MAK-UNK-0b1cbb06-5
     RDKit          3D

 17 18  0  0  0  0  0  0  0  0999 V2000
    9.6450   -0.1260   25.1160 C   0  0  0  0  0  0  0  0  0  0  0  0
   10.6700   -0.2060   24.0910 N   0  0  0  0  0  0  0  0  0  0  0  0
   11.4140   -1.4690   24.0880 C   0  0  0  0  0  0  0  0  0  0  0  0
   12.4740   -1.5420   22.9700 C   0  0  1  0  0  0  0  0  0  0  0  0
   11.8540   -1.9970   21.6640 C   0  0  0  0  0  0  0  0  0  0  0  0
   12.9050   -2.5130   20.8320 O   0  0  0  0  0  0  0  0  0  0  0  0
   13.1810   -0.2140   22.8560 C   0  0  0  0  0  0  0  0  0  0  0  0
   12.5010    0.9850   23.0400 C   0  0  0  0  0  0  0  0  0  0  0  0
   13.0490    2.2030   22.6270 C   0  0  0  0  0  0  0  0  0  0  0  0
   12.3650    3.4100   22.8080 C   0  0  0  0  0  0  0  0  0  0  0  0
   11.1140    3.3720   23.4170 C   0  0  0  0  0  0  0  0  0  0  0  0
   10.2500    4.8420   23.6480 S   0  0  0  0  0  0  0  0  0  0  0  0
   11.3870    6.0030   23.2480 N   0  0  0  0  0  0  0  0  0  0  0  0
    9.9060    5.0030   25.0370 O   0  0  0  0  0  0  0  0  0  0  0  0
    9.1850    4.9110   22.6800 O   0  0  0  0  0  0  0  0  0  0  0  0
   10.5370    2.1770   23.8490 C   0  0  0  0  0  0  0  0  0  0  0  0
   11.2460    0.9810   23.6540 C   0  0  0  0  0  0  0  0  0  0  0  0
  1  2  1  0
  2  3  1  0
  3  4  1  0
  4  5  1  6
  5  6  1  0
  4  7  1  0
  7  8  1  0
  8  9  1  0
  9 10  2  0
 10 11  1  0
 11 12  1  0
 12 13  1  0
 12 14  2  0
 12 15  2  0
 11 16  2  0
  2 17  1  0
  8 17  2  0
 16 17  1  0
M  END
