MAK-UNK-212f693e-20
     RDKit          3D

 15 16  0  0  0  0  0  0  0  0999 V2000
    5.4840   -4.6640   19.8910 O   0  0  0  0  0  0  0  0  0  0  0  0
    6.2420   -4.2770   20.7800 C   0  0  0  0  0  0  0  0  0  0  0  0
    7.0750   -2.7430   20.6960 Cl  0  0  0  0  0  0  0  0  0  0  0  0
    6.5240   -5.0610   21.9610 N   0  0  0  0  0  0  0  0  0  0  0  0
    5.7270   -6.2720   22.1300 C   0  0  0  0  0  0  0  0  0  0  0  0
    4.6240   -6.0650   23.1810 C   0  0  0  0  0  0  0  0  0  0  0  0
    4.9760   -4.8980   24.1040 C   0  0  0  0  0  0  0  0  0  0  0  0
    4.4130   -4.8380   25.3360 N   0  0  0  0  0  0  0  0  0  0  0  0
    3.5200   -3.8430   25.5100 C   0  0  0  0  0  0  0  0  0  0  0  0
    3.6250   -2.4830   25.8180 C   0  0  0  0  0  0  0  0  0  0  0  0
    2.5070   -1.7340   25.9240 C   0  0  0  0  0  0  0  0  0  0  0  0
    1.1020   -2.5730   25.6630 S   0  0  0  0  0  0  0  0  0  0  0  0
    2.0690   -3.9650   25.4000 C   0  0  0  0  0  0  0  0  0  0  0  0
    6.3490   -4.7410   24.2740 C   0  0  0  0  0  0  0  0  0  0  0  0
    7.0970   -4.3990   23.1470 C   0  0  0  0  0  0  0  0  0  0  0  0
  1  2  2  0
  2  3  1  0
  2  4  1  0
  4  5  1  0
  5  6  1  0
  6  7  1  0
  7  8  1  0
  8  9  1  0
  9 10  1  0
 10 11  2  0
 11 12  1  0
  9 13  2  0
 12 13  1  0
  7 14  1  0
  4 15  1  0
 14 15  1  0
M  END
