MAK-UNK-9a6be56d-24
     RDKit          3D

 38 42  0  0  0  0  0  0  0  0999 V2000
    5.6270    0.6840   17.9600 C   0  0  0  0  0  0  0  0  0  0  0  0
    6.5110    0.3110   18.9570 N   0  0  0  0  0  0  0  0  0  0  0  0
    6.5250    0.9300   20.1730 C   0  0  0  0  0  0  0  0  0  0  0  0
    7.1660    0.1210   21.1070 C   0  0  0  0  0  0  0  0  0  0  0  0
    7.2650    0.4810   22.4650 C   0  0  0  0  0  0  0  0  0  0  0  0
    7.9190   -0.4570   23.1490 C   0  0  0  0  0  0  0  0  0  0  0  0
    8.1480   -0.3460   24.4990 C   0  0  0  0  0  0  0  0  0  0  0  0
    7.0410   -0.3250   25.3590 C   0  0  0  0  0  0  0  0  0  0  0  0
    5.7900   -0.4070   24.8770 F   0  0  0  0  0  0  0  0  0  0  0  0
    7.2300   -0.2080   26.8680 C   0  0  0  0  0  0  0  0  0  0  0  0
    8.5140   -0.1240   27.3480 C   0  0  0  0  0  0  0  0  0  0  0  0
    9.6330   -0.1510   26.3900 C   0  0  0  0  0  0  0  0  0  0  0  0
    9.4590   -0.2590   25.0130 C   0  0  0  0  0  0  0  0  0  0  0  0
   10.6320   -0.2710   24.1940 N   0  0  0  0  0  0  0  0  0  0  0  0
   11.5160   -1.3650   24.0910 C   0  0  0  0  0  0  0  0  0  0  0  0
   12.2800   -1.3280   22.9020 C   0  0  0  0  0  0  0  0  0  0  0  0
   13.1210   -0.2330   22.9340 C   0  0  0  0  0  0  0  0  0  0  0  0
   12.4530    0.9790   23.1180 C   0  0  0  0  0  0  0  0  0  0  0  0
   13.0680    2.3110   22.6520 C   0  0  0  0  0  0  0  0  0  0  0  0
   12.3700    3.4870   22.8440 C   0  0  0  0  0  0  0  0  0  0  0  0
   11.1160    3.4650   23.4640 C   0  0  0  0  0  0  0  0  0  0  0  0
   10.2090    4.9630   23.7260 S   0  0  0  0  0  0  0  0  0  0  0  0
   11.3560    6.1700   23.4130 N   0  0  0  0  0  0  0  0  0  0  0  0
    9.7700    5.0830   25.1000 O   0  0  0  0  0  0  0  0  0  0  0  0
    9.2080    5.1060   22.7030 O   0  0  0  0  0  0  0  0  0  0  0  0
   10.5820    2.2290   23.8860 C   0  0  0  0  0  0  0  0  0  0  0  0
   11.2250    0.9930   23.7260 C   0  0  0  0  0  0  0  0  0  0  0  0
    8.3060   -1.5250   22.2910 N   0  0  0  0  0  0  0  0  0  0  0  0
    9.1590   -2.9410   22.7330 S   0  0  0  0  0  0  0  0  0  0  0  0
   10.2100   -3.1300   21.7620 O   0  0  0  0  0  0  0  0  0  0  0  0
    9.4500   -2.8120   24.1430 O   0  0  0  0  0  0  0  0  0  0  0  0
    7.9910   -4.2290   22.6260 C   0  0  0  0  0  0  0  0  0  0  0  0
    6.5760   -4.0130   22.1520 C   0  0  0  0  0  0  0  0  0  0  0  0
    5.7060   -5.0790   22.0910 C   0  0  0  0  0  0  0  0  0  0  0  0
    6.1740   -6.3260   22.4750 C   0  0  0  0  0  0  0  0  0  0  0  0
    7.4440   -6.5520   22.9080 N   0  0  0  0  0  0  0  0  0  0  0  0
    8.3260   -5.5210   22.9790 C   0  0  0  0  0  0  0  0  0  0  0  0
    7.8240   -1.1410   20.9940 C   0  0  0  0  0  0  0  0  0  0  0  0
  1  2  1  0
  2  3  1  0
  3  4  1  0
  4  5  1  0
  5  6  2  0
  6  7  1  0
  7  8  2  0
  8  9  1  0
  8 10  1  0
 10 11  2  0
 11 12  1  0
  7 13  1  0
 12 13  2  0
 13 14  1  0
 14 15  1  0
 15 16  1  0
 16 17  1  0
 17 18  1  0
 18 19  2  0
 19 20  1  0
 20 21  2  0
 21 22  1  0
 22 23  1  0
 22 24  2  0
 22 25  2  0
 21 26  1  0
 14 27  1  0
 18 27  1  0
 26 27  2  0
  6 28  1  0
 28 29  1  0
 29 30  2  0
 29 31  2  0
 29 32  1  0
 32 33  2  0
 33 34  1  0
 34 35  2  0
 35 36  1  0
 32 37  1  0
 36 37  2  0
  4 38  2  0
 28 38  1  0
M  END
