MAK-UNK-9a6be56d-21
     RDKit          3D

 38 42  0  0  0  0  0  0  0  0999 V2000
    9.3080   -5.9220   26.3630 C   0  0  0  0  0  0  0  0  0  0  0  0
    8.8590   -5.4060   27.5590 N   0  0  0  0  0  0  0  0  0  0  0  0
    7.5330   -5.2960   27.8580 C   0  0  0  0  0  0  0  0  0  0  0  0
    7.1230   -4.0250   27.4660 C   0  0  0  0  0  0  0  0  0  0  0  0
    7.6230   -3.3550   26.3210 C   0  0  0  0  0  0  0  0  0  0  0  0
    7.0500   -2.1480   26.1860 C   0  0  0  0  0  0  0  0  0  0  0  0
    7.3870   -1.3040   25.1240 C   0  0  0  0  0  0  0  0  0  0  0  0
    6.4220   -0.5190   24.4890 C   0  0  0  0  0  0  0  0  0  0  0  0
    6.7650    0.4180   23.3220 C   0  0  0  0  0  0  0  0  0  0  0  0
    8.0890    0.4540   22.9190 C   0  0  0  0  0  0  0  0  0  0  0  0
    9.0940   -0.3790   23.6000 C   0  0  0  0  0  0  0  0  0  0  0  0
   10.4480   -0.3680   23.2230 N   0  0  0  0  0  0  0  0  0  0  0  0
   11.2850   -1.4650   23.4410 C   0  0  0  0  0  0  0  0  0  0  0  0
   12.2880   -1.4680   22.4950 C   0  0  0  0  0  0  0  0  0  0  0  0
   13.1710   -0.3940   22.6590 C   0  0  0  0  0  0  0  0  0  0  0  0
   12.5420    0.8360   22.7730 C   0  0  0  0  0  0  0  0  0  0  0  0
   13.2280    2.0540   22.6250 C   0  0  0  0  0  0  0  0  0  0  0  0
   12.4420    3.3680   22.8020 C   0  0  0  0  0  0  0  0  0  0  0  0
   11.0920    3.3130   23.0910 C   0  0  0  0  0  0  0  0  0  0  0  0
   10.2670    4.7950   23.3560 S   0  0  0  0  0  0  0  0  0  0  0  0
   11.3960    5.9740   22.9090 N   0  0  0  0  0  0  0  0  0  0  0  0
    9.0870    4.8960   22.5380 O   0  0  0  0  0  0  0  0  0  0  0  0
   10.1160    4.9570   24.7920 O   0  0  0  0  0  0  0  0  0  0  0  0
   10.4590    2.0630   23.1880 C   0  0  0  0  0  0  0  0  0  0  0  0
   11.1960    0.8720   23.0430 C   0  0  0  0  0  0  0  0  0  0  0  0
    8.7100   -1.2160   24.6570 C   0  0  0  0  0  0  0  0  0  0  0  0
    9.6470   -1.9530   25.2340 F   0  0  0  0  0  0  0  0  0  0  0  0
    6.1120   -1.9410   27.2660 N   0  0  0  0  0  0  0  0  0  0  0  0
    5.0960   -0.6070   27.6170 S   0  0  0  0  0  0  0  0  0  0  0  0
    5.2600    0.3350   26.5270 O   0  0  0  0  0  0  0  0  0  0  0  0
    3.7910   -1.1600   27.9410 O   0  0  0  0  0  0  0  0  0  0  0  0
    5.7410    0.1230   29.0840 C   0  0  0  0  0  0  0  0  0  0  0  0
    6.1510    1.5730   29.1500 C   0  0  0  0  0  0  0  0  0  0  0  0
    6.6510    2.0980   30.3270 C   0  0  0  0  0  0  0  0  0  0  0  0
    6.7620    1.2610   31.4320 C   0  0  0  0  0  0  0  0  0  0  0  0
    6.4000   -0.0600   31.4130 N   0  0  0  0  0  0  0  0  0  0  0  0
    5.9040   -0.6030   30.2550 C   0  0  0  0  0  0  0  0  0  0  0  0
    6.1800   -3.1380   28.0540 C   0  0  0  0  0  0  0  0  0  0  0  0
  1  2  1  0
  2  3  1  0
  3  4  1  0
  4  5  1  0
  5  6  2  0
  6  7  1  0
  7  8  2  0
  8  9  1  0
  9 10  2  0
 10 11  1  0
 11 12  1  0
 12 13  1  0
 13 14  1  0
 14 15  1  0
 15 16  1  0
 16 17  2  0
 17 18  1  0
 18 19  2  0
 19 20  1  0
 20 21  1  0
 20 22  2  0
 20 23  2  0
 19 24  1  0
 12 25  1  0
 16 25  1  0
 24 25  2  0
  7 26  1  0
 11 26  2  0
 26 27  1  0
  6 28  1  0
 28 29  1  0
 29 30  2  0
 29 31  2  0
 29 32  1  0
 32 33  2  0
 33 34  1  0
 34 35  2  0
 35 36  1  0
 32 37  1  0
 36 37  2  0
  4 38  2  0
 28 38  1  0
M  END
