MAK-UNK-af83ef51-28-chloroacetamide
     RDKit          3D

 30 33  0  0  0  0  0  0  0  0999 V2000
    7.1240   -2.9560   18.7440 C   0  0  0  0  0  0  0  0  0  0  0  0
    6.2410   -3.2800   19.8940 C   0  0  0  0  0  0  0  0  0  0  0  0
    5.3730   -4.1510   19.7530 O   0  0  0  0  0  0  0  0  0  0  0  0
    6.4540   -2.5980   21.0990 N   0  0  0  0  0  0  0  0  0  0  0  0
    7.3710   -1.4500   21.1750 C   0  0  0  0  0  0  0  0  0  0  0  0
    8.6050   -1.7730   21.7600 C   0  0  0  0  0  0  0  0  0  0  0  0
    8.4210   -2.2870   23.1320 N   0  0  0  0  0  0  0  0  0  0  0  0
    9.7180   -2.4060   23.8480 C   0  0  0  0  0  0  0  0  0  0  0  0
   10.5070   -1.2050   23.6500 C   0  0  0  0  0  0  0  0  0  0  0  0
   10.1060    0.0590   24.0580 C   0  0  0  0  0  0  0  0  0  0  0  0
    8.9580    0.3600   24.7080 C   0  0  0  0  0  0  0  0  0  0  0  0
    8.0720   -0.4100   25.0800 O   0  0  0  0  0  0  0  0  0  0  0  0
    7.7490   -0.3020   26.4120 C   0  0  0  0  0  0  0  0  0  0  0  0
    8.3330   -0.7870   27.5890 C   0  0  0  0  0  0  0  0  0  0  0  0
    8.1590   -0.7440   28.6910 C   0  0  0  0  0  0  0  0  0  0  0  0
    7.1980   -0.1300   29.4520 C   0  0  0  0  0  0  0  0  0  0  0  0
    7.1030   -0.1230   30.8020 N   0  0  0  0  0  0  0  0  0  0  0  0
    8.1310    0.7000   31.4390 C   0  0  0  0  0  0  0  0  0  0  0  0
    7.8210    0.7220   32.7970 C   0  0  0  0  0  0  0  0  0  0  0  0
    6.3460    0.5050   28.5050 N   0  0  0  0  0  0  0  0  0  0  0  0
    6.6370    0.4090   26.9800 C   0  0  0  0  0  0  0  0  0  0  0  0
    8.9710    1.6890   24.8760 N   0  0  0  0  0  0  0  0  0  0  0  0
    9.9500    2.5030   24.4710 N   0  0  0  0  0  0  0  0  0  0  0  0
   11.1940    2.4280   23.8210 C   0  0  0  0  0  0  0  0  0  0  0  0
   11.0770    1.0240   23.6910 C   0  0  0  0  0  0  0  0  0  0  0  0
   12.0990    0.3000   23.0660 C   0  0  0  0  0  0  0  0  0  0  0  0
   11.7600   -1.0420   23.0340 N   0  0  0  0  0  0  0  0  0  0  0  0
   12.5950   -2.0690   22.4420 C   0  0  0  0  0  0  0  0  0  0  0  0
    7.5680   -3.4770   23.1660 C   0  0  0  0  0  0  0  0  0  0  0  0
    6.2600   -3.2280   22.3990 C   0  0  0  0  0  0  0  0  0  0  0  0
  1  2  1  0
  2  3  2  0
  2  4  1  0
  4  5  1  0
  5  6  1  0
  6  7  1  0
  7  8  1  0
  8  9  1  0
  9 10  2  0
 10 11  1  0
 11 12  1  0
 12 13  1  0
 13 14  2  0
 14 15  1  0
 15 16  2  0
 16 17  1  0
 17 18  1  0
 18 19  1  0
 16 20  1  0
 13 21  1  0
 20 21  2  0
 11 22  2  0
 22 23  1  0
 23 24  2  0
 10 25  1  0
 24 25  1  0
 25 26  2  0
  9 27  1  0
 26 27  1  0
 27 28  1  0
  7 29  1  0
  4 30  1  0
 29 30  1  0
M  END
