MAK-UNK-9e4a73aa-29
     RDKit          3D

 27 30  0  0  0  0  0  0  0  0999 V2000
    6.3440   -2.7130   24.2490 C   0  0  0  0  0  0  0  0  0  0  0  0
    7.8490   -2.6150   24.0520 C   0  0  0  0  0  0  0  0  0  0  0  0
    9.3080   -2.4070   23.6450 C   0  0  0  0  0  0  0  0  0  0  0  0
    9.8110   -1.8550   22.5980 N   0  0  0  0  0  0  0  0  0  0  0  0
    8.9830   -1.3430   21.6070 C   0  0  0  0  0  0  0  0  0  0  0  0
    7.4770   -1.3170   21.5040 C   0  0  0  0  0  0  0  0  0  0  0  0
    6.0130   -1.4230   21.6510 N   0  0  0  0  0  0  0  0  0  0  0  0
    5.3200   -0.7970   22.8070 C   0  0  0  0  0  0  0  0  0  0  0  0
    5.4340    0.4000   23.0730 O   0  0  0  0  0  0  0  0  0  0  0  0
    4.5310   -1.6850   23.5470 C   0  0  0  0  0  0  0  0  0  0  0  0
    3.9480   -1.0780   24.8600 C   0  0  0  0  0  0  0  0  0  0  0  0
    3.1570   -1.8750   25.6690 C   0  0  0  0  0  0  0  0  0  0  0  0
    2.6590   -1.3470   26.7960 F   0  0  0  0  0  0  0  0  0  0  0  0
    2.8150   -3.3460   25.3350 C   0  0  0  0  0  0  0  0  0  0  0  0
    1.8330   -4.3150   26.3420 Cl  0  0  0  0  0  0  0  0  0  0  0  0
    3.4270   -3.9390   23.9890 C   0  0  0  0  0  0  0  0  0  0  0  0
    4.2750   -3.0040   23.1770 C   0  0  0  0  0  0  0  0  0  0  0  0
    4.8490   -3.5810   21.9400 N   0  0  0  0  0  0  0  0  0  0  0  0
    5.7740   -4.6480   22.2960 C   0  0  0  0  0  0  0  0  0  0  0  0
    6.9870   -4.1210   22.8190 C   0  0  0  0  0  0  0  0  0  0  0  0
    7.9780   -4.9460   23.2330 C   0  0  0  0  0  0  0  0  0  0  0  0
    7.7240   -6.4210   23.0970 C   0  0  0  0  0  0  0  0  0  0  0  0
    6.4290   -6.9150   22.5360 C   0  0  0  0  0  0  0  0  0  0  0  0
    5.4750   -6.0000   22.1470 C   0  0  0  0  0  0  0  0  0  0  0  0
    5.3630   -2.6110   21.0240 C   0  0  0  0  0  0  0  0  0  0  0  0
    5.2390   -2.7450   19.8170 O   0  0  0  0  0  0  0  0  0  0  0  0
    7.2340   -1.9940   22.8260 C   0  0  0  0  0  0  0  0  0  0  0  0
  1  2  1  0
  2  3  2  0
  3  4  1  0
  4  5  2  0
  5  6  1  0
  6  7  1  0
  7  8  1  0
  8  9  2  0
  8 10  1  0
 10 11  2  0
 11 12  1  0
 12 13  1  0
 12 14  2  0
 14 15  1  0
 14 16  1  0
 10 17  1  0
 16 17  2  0
 17 18  1  0
 18 19  1  0
 19 20  2  0
 20 21  1  0
 21 22  2  0
 22 23  1  0
 19 24  1  0
 23 24  2  0
  7 25  1  0
 18 25  1  0
 25 26  2  0
  2 27  1  0
  6 27  2  0
M  END
