MAK-UNK-a7992eb3-19
     RDKit          3D

 32 36  0  0  0  0  0  0  0  0999 V2000
    9.7420   -1.3960   21.6810 C   0  0  0  0  0  0  0  0  0  0  0  0
    9.9980   -2.8570   21.8160 C   0  0  0  0  0  0  0  0  0  0  0  0
    8.8000   -3.7340   21.5850 C   0  0  0  0  0  0  0  0  0  0  0  0
    7.5530   -3.2220   21.2730 C   0  0  0  0  0  0  0  0  0  0  0  0
    6.4850   -4.0960   21.0990 C   0  0  0  0  0  0  0  0  0  0  0  0
    6.7580   -5.2840   21.8880 N   0  0  0  0  0  0  0  0  0  0  0  0
    5.6080   -6.1880   21.8340 C   0  0  0  0  0  0  0  0  0  0  0  0
    4.6100   -5.7070   22.6750 C   0  0  0  0  0  0  0  0  0  0  0  0
    4.6930   -4.5590   23.0840 O   0  0  0  0  0  0  0  0  0  0  0  0
    5.7360   -4.5480   24.0390 C   0  0  1  0  0  0  0  0  0  0  0  0
    5.4270   -5.4310   25.2630 C   0  0  0  0  0  0  0  0  0  0  0  0
    4.5410   -4.9870   25.9920 O   0  0  0  0  0  0  0  0  0  0  0  0
    3.2270   -4.8040   25.4230 C   0  0  0  0  0  0  0  0  0  0  0  0
    2.6020   -5.6960   24.3330 C   0  0  0  0  0  0  0  0  0  0  0  0
    1.2020   -5.4000   23.8300 C   0  0  0  0  0  0  0  0  0  0  0  0
    0.4450   -4.2230   24.4180 C   0  0  0  0  0  0  0  0  0  0  0  0
    1.1420   -3.3790   25.4980 C   0  0  0  0  0  0  0  0  0  0  0  0
    2.4530   -3.7200   25.9200 C   0  0  0  0  0  0  0  0  0  0  0  0
    3.0860   -2.9650   26.9240 C   0  0  0  0  0  0  0  0  0  0  0  0
    2.9530   -1.5350   26.7300 N   0  0  0  0  0  0  0  0  0  0  0  0
    3.2370   -0.7150   27.7950 C   0  0  0  0  0  0  0  0  0  0  0  0
    2.5550    0.4570   28.0750 N   0  0  0  0  0  0  0  0  0  0  0  0
    3.0770    1.0120   29.1840 C   0  0  0  0  0  0  0  0  0  0  0  0
    2.6600    2.1980   29.7870 C   0  0  0  0  0  0  0  0  0  0  0  0
    3.3550    2.5770   30.9370 C   0  0  0  0  0  0  0  0  0  0  0  0
    4.4080    1.7960   31.4360 C   0  0  0  0  0  0  0  0  0  0  0  0
    4.8070    0.6050   30.8050 C   0  0  0  0  0  0  0  0  0  0  0  0
    4.1240    0.2060   29.6540 C   0  0  0  0  0  0  0  0  0  0  0  0
    4.1900   -0.8640   28.7540 N   0  0  0  0  0  0  0  0  0  0  0  0
    7.0320   -4.9640   23.3030 C   0  0  0  0  0  0  0  0  0  0  0  0
    7.3680   -1.8260   21.1510 C   0  0  0  0  0  0  0  0  0  0  0  0
    8.4620   -0.9410   21.3560 C   0  0  0  0  0  0  0  0  0  0  0  0
  1  2  2  0
  2  3  1  0
  3  4  2  0
  4  5  1  0
  5  6  1  0
  6  7  1  0
  7  8  1  0
  8  9  1  0
  9 10  1  0
 10 11  1  1
 11 12  1  0
 12 13  1  0
 13 14  2  0
 14 15  1  0
 15 16  2  0
 16 17  1  0
 13 18  1  0
 17 18  2  0
 18 19  1  0
 19 20  1  0
 20 21  1  0
 21 22  2  0
 22 23  1  0
 23 24  2  0
 24 25  1  0
 25 26  2  0
 26 27  1  0
 23 28  1  0
 27 28  2  0
 21 29  1  0
 28 29  1  0
  6 30  1  0
 10 30  1  0
  4 31  1  0
  1 32  1  0
 31 32  2  0
M  END
