MAK-UNK-5d2caa6f-14-acrylamide
     RDKit          3D

 27 31  0  0  0  0  0  0  0  0999 V2000
    7.2890   -2.7680   18.4440 C   0  0  0  0  0  0  0  0  0  0  0  0
    6.1850   -2.0610   19.2020 C   0  0  0  0  0  0  0  0  0  0  0  0
    5.3970   -3.0570   20.0030 C   0  0  0  0  0  0  0  0  0  0  0  0
    4.9230   -4.0600   19.4910 O   0  0  0  0  0  0  0  0  0  0  0  0
    5.3200   -2.7980   21.3280 N   0  0  0  0  0  0  0  0  0  0  0  0
    6.0930   -3.6740   22.1930 C   0  0  0  0  0  0  0  0  0  0  0  0
    7.1690   -2.8880   22.6030 C   0  0  1  0  0  0  0  0  0  0  0  0
    7.1430   -1.6680   21.7050 C   0  0  0  0  0  0  0  0  0  0  0  0
    5.6550   -1.4570   21.8360 C   0  0  2  0  0  0  0  0  0  0  0  0
    5.3660   -1.5650   23.3220 C   0  0  0  0  0  0  0  0  0  0  0  0
    6.6740   -2.1550   23.8570 C   0  0  1  0  0  0  0  0  0  0  0  0
    6.5840   -3.0680   25.0650 C   0  0  0  0  0  0  0  0  0  0  0  0
    5.6700   -3.8630   25.3100 O   0  0  0  0  0  0  0  0  0  0  0  0
    7.6280   -2.9170   25.8570 N   0  0  0  0  0  0  0  0  0  0  0  0
    8.3280   -1.7940   25.7270 C   0  0  0  0  0  0  0  0  0  0  0  0
    8.9010   -2.8010   24.7800 C   0  0  0  0  0  0  0  0  0  0  0  0
   10.0520   -2.6430   23.8170 C   0  0  0  0  0  0  0  0  0  0  0  0
   10.6950   -1.5040   23.7350 C   0  0  0  0  0  0  0  0  0  0  0  0
   10.2790   -0.4420   24.5740 C   0  0  0  0  0  0  0  0  0  0  0  0
    9.1650   -0.6620   25.4780 C   0  0  0  0  0  0  0  0  0  0  0  0
   11.1230    0.6440   24.2860 N   0  0  0  0  0  0  0  0  0  0  0  0
   11.9790    0.2170   23.3280 C   0  0  0  0  0  0  0  0  0  0  0  0
   12.9950    1.1100   22.8030 C   0  0  0  0  0  0  0  0  0  0  0  0
   13.7570    0.5460   21.8510 C   0  0  0  0  0  0  0  0  0  0  0  0
   13.6090   -0.9230   21.3230 C   0  0  0  0  0  0  0  0  0  0  0  0
   12.5590   -1.8170   21.8960 C   0  0  0  0  0  0  0  0  0  0  0  0
   11.7160   -1.1890   22.9450 C   0  0  0  0  0  0  0  0  0  0  0  0
  1  2  1  0
  2  3  1  0
  3  4  2  0
  3  5  1  0
  5  6  1  0
  7  6  1  6
  7  8  1  0
  5  9  1  0
  8  9  1  0
  9 10  1  1
  7 11  1  0
 10 11  1  0
 11 12  1  1
 12 13  2  0
 12 14  1  0
 14 15  1  0
 15 16  1  0
 16 17  2  0
 17 18  1  0
 18 19  2  0
 15 20  2  0
 19 20  1  0
 19 21  1  0
 21 22  1  0
 22 23  2  0
 23 24  1  0
 24 25  2  0
 25 26  1  0
 18 27  1  0
 22 27  1  0
 26 27  2  0
M  END
