MAK-UNK-2c1752f0-3
     RDKit          3D

  7  7  0  0  0  0  0  0  0  0999 V2000
    2.9530    1.6690   22.2420 Br  0  0  0  0  0  0  0  0  0  0  0  0
    4.1500    1.3110   20.8310 C   0  0  0  0  0  0  0  0  0  0  0  0
    5.3760    0.6120   21.0490 C   0  0  0  0  0  0  0  0  0  0  0  0
    6.2400    0.3570   19.9840 C   0  0  0  0  0  0  0  0  0  0  0  0
    5.8620    0.8050   18.7200 C   0  0  0  0  0  0  0  0  0  0  0  0
    4.7150    1.4690   18.4840 N   0  0  0  0  0  0  0  0  0  0  0  0
    3.8800    1.7120   19.5330 C   0  0  0  0  0  0  0  0  0  0  0  0
  1  2  1  0
  2  3  2  0
  3  4  1  0
  4  5  2  0
  5  6  1  0
  2  7  1  0
  6  7  2  0
M  END
