MAK-UNK-5d2caa6f-23-vinylsulfonamide
     RDKit          3D

 30 33  0  0  0  0  0  0  0  0999 V2000
    8.0410   -3.4700   19.7590 C   0  0  0  0  0  0  0  0  0  0  0  0
    6.8870   -2.7770   19.1420 C   0  0  0  0  0  0  0  0  0  0  0  0
    5.6230   -3.3690   20.1660 S   0  0  0  0  0  0  0  0  0  0  0  0
    4.4210   -3.0850   19.5100 O   0  0  0  0  0  0  0  0  0  0  0  0
    5.9040   -4.7130   20.6050 O   0  0  0  0  0  0  0  0  0  0  0  0
    5.9080   -2.3270   21.4480 N   0  0  0  0  0  0  0  0  0  0  0  0
    5.6990   -3.0180   22.7240 C   0  0  0  0  0  0  0  0  0  0  0  0
    6.9820   -3.2980   23.1420 C   0  0  1  0  0  0  0  0  0  0  0  0
    7.8110   -3.2290   22.0480 C   0  0  0  0  0  0  0  0  0  0  0  0
    7.3350   -1.8860   21.5670 C   0  0  2  0  0  0  0  0  0  0  0  0
    7.4630   -1.0710   22.8380 C   0  0  0  0  0  0  0  0  0  0  0  0
    7.6160   -2.1260   23.8530 N   0  0  0  0  0  0  0  0  0  0  0  0
    8.9720   -2.5710   24.3200 C   0  0  0  0  0  0  0  0  0  0  0  0
   10.1700   -1.7040   23.9530 C   0  0  0  0  0  0  0  0  0  0  0  0
   10.9880   -2.1620   22.7560 C   0  0  0  0  0  0  0  0  0  0  0  0
   12.2070   -1.3420   22.3900 C   0  0  0  0  0  0  0  0  0  0  0  0
   13.1850   -1.8480   21.0970 Cl  0  0  0  0  0  0  0  0  0  0  0  0
   12.5150   -0.1720   23.1360 C   0  0  0  0  0  0  0  0  0  0  0  0
   11.5910    0.1460   24.2850 C   0  0  0  0  0  0  0  0  0  0  0  0
   10.4690   -0.6020   24.6920 C   0  0  0  0  0  0  0  0  0  0  0  0
    9.5640   -0.3080   25.9090 C   0  0  0  0  0  0  0  0  0  0  0  0
    8.5320    0.6770   25.7450 N   0  0  0  0  0  0  0  0  0  0  0  0
    7.3990    0.8290   26.6820 C   0  0  0  0  0  0  0  0  0  0  0  0
    6.4470    1.5740   26.4690 O   0  0  0  0  0  0  0  0  0  0  0  0
    7.5520   -0.0390   27.9450 C   0  0  2  0  0  0  0  0  0  0  0  0
    6.2800   -0.5390   28.6410 C   0  0  0  0  0  0  0  0  0  0  0  0
    5.9150    0.3500   29.6560 C   0  0  0  0  0  0  0  0  0  0  0  0
    6.9590    0.3830   30.7770 C   0  0  0  0  0  0  0  0  0  0  0  0
    8.2750    0.1500   30.2830 O   0  0  0  0  0  0  0  0  0  0  0  0
    8.4450    0.6830   28.9670 C   0  0  0  0  0  0  0  0  0  0  0  0
  1  2  1  0
  3  2  1  0
  3  4  2  0
  3  5  2  0
  3  6  1  0
  6  7  1  0
  8  7  1  6
  8  9  1  0
  6 10  1  0
  9 10  1  0
 10 11  1  1
  8 12  1  0
 11 12  1  0
 12 13  1  0
 13 14  1  0
 14 15  2  0
 15 16  1  0
 16 17  1  0
 16 18  2  0
 18 19  1  0
 14 20  1  0
 19 20  2  0
 20 21  1  0
 21 22  1  0
 22 23  1  0
 23 24  2  0
 25 23  1  6
 25 26  1  0
 26 27  1  0
 27 28  1  0
 28 29  1  0
 25 30  1  0
 29 30  1  0
M  END
