MAK-UNK-2c1752f0-2
     RDKit          3D

 11 11  0  0  0  0  0  0  0  0999 V2000
   10.0900    0.0650   22.7460 C   0  0  0  0  0  0  0  0  0  0  0  0
    9.0140    0.3420   21.8390 C   0  0  0  0  0  0  0  0  0  0  0  0
    8.9310    1.4420   21.2640 O   0  0  0  0  0  0  0  0  0  0  0  0
    8.0670   -0.6670   21.6580 C   0  0  2  0  0  0  0  0  0  0  0  0
    8.5720   -1.9670   21.7400 C   0  0  0  0  0  0  0  0  0  0  0  0
    7.3720   -0.3720   20.3440 C   0  0  0  0  0  0  0  0  0  0  0  0
    6.2420    0.3760   19.8890 C   0  0  0  0  0  0  0  0  0  0  0  0
    5.2270    1.1940   20.4410 C   0  0  0  0  0  0  0  0  0  0  0  0
    5.3060    0.9110   18.8890 C   0  0  0  0  0  0  0  0  0  0  0  0
    6.2770    0.0960   18.1720 N   0  0  0  0  0  0  0  0  0  0  0  0
    7.3390   -0.5880   18.8320 C   0  0  0  0  0  0  0  0  0  0  0  0
  1  2  1  0
  2  3  2  0
  2  4  1  0
  4  5  1  6
  4  6  1  0
  6  7  2  0
  7  8  1  0
  8  9  2  0
  9 10  1  0
  6 11  1  0
 10 11  2  0
M  END
