MAK-UNK-516d8086-31-chloroacetamide
     RDKit          3D

 23 25  0  0  0  0  0  0  0  0999 V2000
    8.3760   -4.8390   20.4850 C   0  0  0  0  0  0  0  0  0  0  0  0
    6.9200   -4.6440   20.8880 C   0  0  0  0  0  0  0  0  0  0  0  0
    5.9900   -4.5400   20.0120 O   0  0  0  0  0  0  0  0  0  0  0  0
    6.6830   -4.5990   22.4030 C   0  0  0  0  0  0  0  0  0  0  0  0
    5.6760   -5.7160   22.9910 C   0  0  0  0  0  0  0  0  0  0  0  0
    6.0110   -5.5930   21.5790 C   0  0  0  0  0  0  0  0  0  0  0  0
    6.8870   -4.4400   21.9730 C   0  0  0  0  0  0  0  0  0  0  0  0
    6.7610   -4.3510   23.4500 N   0  0  0  0  0  0  0  0  0  0  0  0
    7.4990   -5.3950   24.2340 C   0  0  0  0  0  0  0  0  0  0  0  0
    9.0550   -5.3280   24.0770 C   0  0  0  0  0  0  0  0  0  0  0  0
    7.7150   -3.5000   21.5230 C   0  0  0  0  0  0  0  0  0  0  0  0
    8.6600   -2.3000   21.7380 C   0  0  0  0  0  0  0  0  0  0  0  0
    8.4440   -1.5820   23.1430 C   0  0  0  0  0  0  0  0  0  0  0  0
    9.6110   -0.8820   23.7690 C   0  0  0  0  0  0  0  0  0  0  0  0
    9.6630   -0.2000   24.9450 C   0  0  0  0  0  0  0  0  0  0  0  0
    8.4770   -0.1140   25.7120 C   0  0  0  0  0  0  0  0  0  0  0  0
    7.3470   -0.7020   25.2740 C   0  0  0  0  0  0  0  0  0  0  0  0
    7.2860   -1.4800   23.9350 C   0  0  0  0  0  0  0  0  0  0  0  0
    6.2500   -0.4710   26.2660 C   0  0  0  0  0  0  0  0  0  0  0  0
    5.0910   -0.8350   26.1940 O   0  0  0  0  0  0  0  0  0  0  0  0
    6.8660    0.2780   27.3280 C   0  0  0  0  0  0  0  0  0  0  0  0
    8.2250    0.5080   26.9280 C   0  0  0  0  0  0  0  0  0  0  0  0
    7.4420   -3.5340   23.0470 C   0  0  0  0  0  0  0  0  0  0  0  0
  1  2  1  0
  2  3  2  0
  2  4  1  0
  4  5  2  0
  5  6  1  0
  6  7  2  0
  7  8  1  0
  8  9  1  0
  9 10  1  0
  7 11  1  0
 11 12  1  0
 12 13  1  0
 13 14  2  0
 14 15  1  0
 15 16  2  0
 16 17  1  0
 13 18  1  0
 17 18  2  0
 17 19  1  0
 19 20  2  0
 19 21  1  0
 16 22  1  0
 21 22  1  0
  4 23  1  0
 11 23  2  0
M  END
