MAK-UNK-9a6be56d-5
     RDKit          3D

 38 42  0  0  0  0  0  0  0  0999 V2000
   15.0450    7.5860   30.2950 C   0  0  0  0  0  0  0  0  0  0  0  0
   13.7710    7.3890   29.7990 N   0  0  0  0  0  0  0  0  0  0  0  0
   12.9150    8.4240   29.5550 C   0  0  0  0  0  0  0  0  0  0  0  0
   12.4360    8.4870   28.2320 C   0  0  0  0  0  0  0  0  0  0  0  0
   12.2640    9.7170   27.5870 C   0  0  0  0  0  0  0  0  0  0  0  0
   11.7740    9.5760   26.3500 C   0  0  0  0  0  0  0  0  0  0  0  0
   11.5440   10.7740   25.6350 C   0  0  0  0  0  0  0  0  0  0  0  0
   12.4000   11.2770   24.6360 C   0  0  0  0  0  0  0  0  0  0  0  0
   12.1530   12.5980   23.9090 C   0  0  0  0  0  0  0  0  0  0  0  0
   11.0220   13.3020   24.2670 C   0  0  0  0  0  0  0  0  0  0  0  0
   10.1330   12.7600   25.3010 C   0  0  0  0  0  0  0  0  0  0  0  0
   10.3990   11.5490   25.9480 C   0  0  0  0  0  0  0  0  0  0  0  0
    9.5430   11.1310   26.8890 F   0  0  0  0  0  0  0  0  0  0  0  0
   11.5880    8.2000   26.0820 N   0  0  0  0  0  0  0  0  0  0  0  0
   10.9670    7.3190   24.7270 S   0  0  2  0  0  0  0  0  0  0  0  0
    9.7370    7.9940   24.3560 O   0  0  0  0  0  0  0  0  0  0  0  0
   11.1240    5.6750   24.9850 N   0  0  0  0  0  0  0  0  0  0  0  0
   10.0710    4.7220   24.0220 S   0  0  0  0  0  0  0  0  0  0  0  0
    9.5220    5.1990   22.7860 O   0  0  0  0  0  0  0  0  0  0  0  0
    9.1020    4.2210   24.9580 O   0  0  0  0  0  0  0  0  0  0  0  0
   10.9950    3.3060   23.6310 C   0  0  0  0  0  0  0  0  0  0  0  0
   12.2650    3.3450   23.0150 C   0  0  0  0  0  0  0  0  0  0  0  0
   12.9910    2.1810   22.7360 C   0  0  0  0  0  0  0  0  0  0  0  0
   12.4790    0.9070   23.0530 C   0  0  0  0  0  0  0  0  0  0  0  0
   11.1120    0.8780   23.7050 C   0  0  0  0  0  0  0  0  0  0  0  0
   10.4410    2.0700   23.9600 C   0  0  0  0  0  0  0  0  0  0  0  0
   10.5670   -0.3600   24.0380 N   0  0  0  0  0  0  0  0  0  0  0  0
    9.6630   -0.4020   25.1740 C   0  0  0  0  0  0  0  0  0  0  0  0
   11.3950   -1.5730   23.8410 C   0  0  0  0  0  0  0  0  0  0  0  0
   12.2660   -1.3930   22.7610 C   0  0  0  0  0  0  0  0  0  0  0  0
   13.1200   -0.3070   22.8250 C   0  0  0  0  0  0  0  0  0  0  0  0
   11.9100    7.1400   23.2790 C   0  0  0  0  0  0  0  0  0  0  0  0
   12.3680    8.1180   22.4650 C   0  0  0  0  0  0  0  0  0  0  0  0
   13.0470    7.7670   21.3310 C   0  0  0  0  0  0  0  0  0  0  0  0
   13.2620    6.4070   21.0680 C   0  0  0  0  0  0  0  0  0  0  0  0
   12.8490    5.4330   21.8560 N   0  0  0  0  0  0  0  0  0  0  0  0
   12.1780    5.8270   22.9410 C   0  0  0  0  0  0  0  0  0  0  0  0
   12.0160    7.5350   27.2670 C   0  0  0  0  0  0  0  0  0  0  0  0
  1  2  1  0
  2  3  1  0
  3  4  1  0
  4  5  1  0
  5  6  2  0
  6  7  1  0
  7  8  2  0
  8  9  1  0
  9 10  2  0
 10 11  1  0
  7 12  1  0
 11 12  2  0
 12 13  1  0
  6 14  1  0
 14 15  1  0
 15 16  2  0
 15 17  2  0
 18 17  1  0
 18 19  2  0
 18 20  2  0
 18 21  1  0
 21 22  2  0
 22 23  1  0
 23 24  2  0
 24 25  1  0
 21 26  1  0
 25 26  2  0
 25 27  1  0
 27 28  1  0
 27 29  1  0
 29 30  1  0
 24 31  1  0
 30 31  1  0
 15 32  1  6
 32 33  2  0
 33 34  1  0
 34 35  2  0
 35 36  1  0
 32 37  1  0
 36 37  2  0
  4 38  2  0
 14 38  1  0
M  END
