MAK-UNK-a7992eb3-1-chloroacetamide
     RDKit          3D

 31 34  0  0  0  0  0  0  0  0999 V2000
    7.5740   -3.6900   20.4010 C   0  0  0  0  0  0  0  0  0  0  0  0
    6.3960   -4.5810   20.7010 C   0  0  0  0  0  0  0  0  0  0  0  0
    5.4160   -4.7390   19.9720 O   0  0  0  0  0  0  0  0  0  0  0  0
    6.4890   -5.2600   21.9090 N   0  0  0  0  0  0  0  0  0  0  0  0
    7.2070   -4.6940   23.0400 C   0  0  0  0  0  0  0  0  0  0  0  0
    6.4360   -4.1490   24.0460 C   0  0  0  0  0  0  0  0  0  0  0  0
    5.4020   -5.0070   24.3930 C   0  0  0  0  0  0  0  0  0  0  0  0
    4.6630   -4.5270   25.4900 C   0  0  0  0  0  0  0  0  0  0  0  0
    4.9130   -4.9570   26.6180 O   0  0  0  0  0  0  0  0  0  0  0  0
    3.6570   -3.5420   25.3880 N   0  0  0  0  0  0  0  0  0  0  0  0
    3.9580   -2.3040   26.1730 C   0  0  0  0  0  0  0  0  0  0  0  0
    3.4630   -1.0670   26.9600 C   0  0  0  0  0  0  0  0  0  0  0  0
    1.9020   -0.8350   27.1000 C   0  0  0  0  0  0  0  0  0  0  0  0
    0.9210   -1.8320   26.4320 C   0  0  0  0  0  0  0  0  0  0  0  0
    1.4620   -3.0340   25.6540 C   0  0  0  0  0  0  0  0  0  0  0  0
    2.5800   -2.1730   26.2130 C   0  0  0  0  0  0  0  0  0  0  0  0
    2.2220   -1.1460   26.8170 O   0  0  0  0  0  0  0  0  0  0  0  0
    2.3550    0.1600   26.1480 C   0  0  0  0  0  0  0  0  0  0  0  0
    1.4500    1.1570   26.9060 C   0  0  0  0  0  0  0  0  0  0  0  0
    0.1170    0.9680   26.5020 C   0  0  0  0  0  0  0  0  0  0  0  0
   -0.1140    1.1560   25.1650 N   0  0  0  0  0  0  0  0  0  0  0  0
   -1.3150    0.9000   24.4670 C   0  0  0  0  0  0  0  0  0  0  0  0
   -1.2700    0.9530   23.0730 C   0  0  0  0  0  0  0  0  0  0  0  0
   -2.1250    0.2320   22.2640 C   0  0  0  0  0  0  0  0  0  0  0  0
   -1.9090    0.4300   20.9230 C   0  0  0  0  0  0  0  0  0  0  0  0
   -0.6390    1.5190   20.5910 S   0  0  0  0  0  0  0  0  0  0  0  0
   -0.3920    1.7120   22.2860 C   0  0  0  0  0  0  0  0  0  0  0  0
    1.0790    0.9410   24.3170 C   0  0  0  0  0  0  0  0  0  0  0  0
    2.0140    0.0360   24.8120 C   0  0  0  0  0  0  0  0  0  0  0  0
    4.6510   -5.4790   23.3070 C   0  0  0  0  0  0  0  0  0  0  0  0
    5.4400   -6.1570   22.3700 C   0  0  0  0  0  0  0  0  0  0  0  0
  1  2  1  0
  2  3  2  0
  2  4  1  0
  4  5  1  0
  5  6  1  0
  6  7  1  0
  7  8  1  0
  8  9  2  0
  8 10  1  0
 10 11  1  0
 11 12  2  0
 12 13  1  0
 13 14  2  0
 14 15  1  0
 11 16  1  0
 15 16  2  0
 16 17  1  0
 17 18  1  0
 18 19  1  0
 19 20  1  0
 20 21  1  0
 21 22  1  0
 22 23  1  0
 23 24  1  0
 24 25  2  0
 25 26  1  0
 23 27  2  0
 26 27  1  0
 21 28  1  0
 18 29  1  0
 28 29  1  0
  7 30  1  0
  4 31  1  0
 30 31  1  0
M  END
