MAK-UNK-3e0761f8-2-acrylamide
     RDKit          3D

 21 24  0  0  0  0  0  0  0  0999 V2000
    8.2570   -3.5460   18.9030 C   0  0  0  0  0  0  0  0  0  0  0  0
    7.8190   -3.0760   20.2410 C   0  0  0  0  0  0  0  0  0  0  0  0
    6.3190   -3.1960   20.6720 C   0  0  0  0  0  0  0  0  0  0  0  0
    5.2640   -3.8970   20.1910 O   0  0  0  0  0  0  0  0  0  0  0  0
    6.2280   -2.4010   21.8000 N   0  0  0  0  0  0  0  0  0  0  0  0
    7.5290   -1.8440   22.4340 C   0  0  1  0  0  0  0  0  0  0  0  0
    7.3250   -2.0710   23.9060 C   0  0  0  0  0  0  0  0  0  0  0  0
    6.6640   -3.3110   23.8200 C   0  0  2  0  0  0  0  0  0  0  0  0
    7.8120   -3.8800   23.3310 C   0  0  0  0  0  0  0  0  0  0  0  0
    8.5520   -5.0290   23.4340 C   0  0  0  0  0  0  0  0  0  0  0  0
    9.7590   -5.0110   22.6930 C   0  0  0  0  0  0  0  0  0  0  0  0
   10.1730   -3.8720   21.8920 C   0  0  0  0  0  0  0  0  0  0  0  0
    9.3710   -2.7370   21.7950 C   0  0  0  0  0  0  0  0  0  0  0  0
    8.3030   -2.9530   22.5490 C   0  0  0  0  0  0  0  0  0  0  0  0
    5.5260   -3.0460   22.8310 C   0  0  2  0  0  0  0  0  0  0  0  0
    5.4500   -4.4060   23.0780 C   0  0  0  0  0  0  0  0  0  0  0  0
    6.2160   -5.4050   22.5310 N   0  0  0  0  0  0  0  0  0  0  0  0
    5.8150   -6.6950   23.0130 N   0  0  0  0  0  0  0  0  0  0  0  0
    4.7630   -6.2380   23.8630 C   0  0  0  0  0  0  0  0  0  0  0  0
    4.0210   -7.1530   24.5850 C   0  0  0  0  0  0  0  0  0  0  0  0
    4.5920   -4.8370   23.8630 O   0  0  0  0  0  0  0  0  0  0  0  0
  1  2  1  0
  2  3  1  0
  3  4  2  0
  3  5  1  0
  6  5  1  6
  6  7  1  0
  7  8  1  0
  8  9  1  6
  9 10  1  0
 10 11  2  0
 11 12  1  0
 12 13  2  0
  6 14  1  0
  9 14  2  0
 13 14  1  0
  5 15  1  0
  8 15  1  0
 15 16  1  6
 16 17  2  0
 17 18  1  0
 18 19  2  0
 19 20  1  0
 16 21  1  0
 19 21  1  0
M  END
