MAK-UNK-ca11b4f7-4
     RDKit          3D

  8  8  0  0  0  0  0  0  0  0999 V2000
    8.3980   -0.2870   21.4540 N   0  0  0  0  0  0  0  0  0  0  0  0
    7.1490   -0.7800   21.1610 C   0  0  0  0  0  0  0  0  0  0  0  0
    6.4830   -0.0410   20.0300 C   0  0  0  0  0  0  0  0  0  0  0  0
    5.3090    0.6920   20.2360 C   0  0  0  0  0  0  0  0  0  0  0  0
    4.6900    1.3920   19.1790 C   0  0  0  0  0  0  0  0  0  0  0  0
    5.2140    1.3910   17.8760 C   0  0  0  0  0  0  0  0  0  0  0  0
    6.3670    0.6530   17.7280 N   0  0  0  0  0  0  0  0  0  0  0  0
    6.9980   -0.0510   18.7440 C   0  0  0  0  0  0  0  0  0  0  0  0
  1  2  3  0
  2  3  1  0
  3  4  2  0
  4  5  1  0
  5  6  2  0
  6  7  1  0
  3  8  1  0
  7  8  2  0
M  END
