MAK-UNK-9e4a73aa-4
     RDKit          3D

 26 29  0  0  0  0  0  0  0  0999 V2000
    5.4940   -2.9900   20.5370 O   0  0  0  0  0  0  0  0  0  0  0  0
    6.2160   -2.6150   21.4690 C   0  0  0  0  0  0  0  0  0  0  0  0
    6.7090   -1.1960   21.5920 C   0  0  0  0  0  0  0  0  0  0  0  0
    5.8180   -0.1210   20.9210 C   0  0  0  0  0  0  0  0  0  0  0  0
    6.2240    1.3480   21.0240 C   0  0  0  0  0  0  0  0  0  0  0  0
    5.5230    2.3540   20.4920 F   0  0  0  0  0  0  0  0  0  0  0  0
    7.5100    1.6500   21.8010 C   0  0  0  0  0  0  0  0  0  0  0  0
    8.2040    3.1650   22.1030 Cl  0  0  0  0  0  0  0  0  0  0  0  0
    8.2470    0.4160   22.3770 C   0  0  0  0  0  0  0  0  0  0  0  0
    7.8650   -0.9150   22.2770 C   0  0  0  0  0  0  0  0  0  0  0  0
    8.6050   -1.9370   22.8490 N   0  0  0  0  0  0  0  0  0  0  0  0
   10.0610   -1.9240   22.7210 C   0  0  0  0  0  0  0  0  0  0  0  0
   11.1570   -1.3520   22.9990 C   0  0  0  0  0  0  0  0  0  0  0  0
   12.5680   -1.5910   22.6700 C   0  0  0  0  0  0  0  0  0  0  0  0
   12.7930   -0.3380   23.4890 C   0  0  0  0  0  0  0  0  0  0  0  0
   11.3310    0.0180   23.9050 C   0  0  0  0  0  0  0  0  0  0  0  0
   10.0740   -0.7100   23.5550 C   0  0  0  0  0  0  0  0  0  0  0  0
    7.9960   -3.2750   22.9820 C   0  0  0  0  0  0  0  0  0  0  0  0
    8.7290   -4.3140   23.4730 O   0  0  0  0  0  0  0  0  0  0  0  0
    6.6780   -3.4800   22.6010 C   0  0  1  0  0  0  0  0  0  0  0  0
    5.7420   -3.3610   23.8010 C   0  0  0  0  0  0  0  0  0  0  0  0
    5.7780   -4.4080   24.9240 C   0  0  0  0  0  0  0  0  0  0  0  0
    4.9080   -4.2650   26.0140 C   0  0  0  0  0  0  0  0  0  0  0  0
    4.0240   -3.1730   26.0530 C   0  0  0  0  0  0  0  0  0  0  0  0
    3.9930   -2.2180   25.0190 C   0  0  0  0  0  0  0  0  0  0  0  0
    4.8320   -2.2960   23.9040 C   0  0  0  0  0  0  0  0  0  0  0  0
  1  2  2  0
  2  3  1  0
  3  4  1  0
  4  5  2  0
  5  6  1  0
  5  7  1  0
  7  8  1  0
  7  9  2  0
  3 10  2  0
  9 10  1  0
 10 11  1  0
 11 12  1  0
 12 13  2  0
 13 14  1  0
 14 15  2  0
 15 16  1  0
 12 17  1  0
 16 17  2  0
 11 18  1  0
 18 19  2  0
  2 20  1  0
 18 20  1  0
 20 21  1  1
 21 22  2  0
 22 23  1  0
 23 24  2  0
 24 25  1  0
 21 26  1  0
 25 26  2  0
M  END
