MAK-UNK-3e0761f8-7-chloroacetamide
     RDKit          3D

 26 29  0  0  0  0  0  0  0  0999 V2000
    7.9240   -4.5140   20.8080 C   0  0  0  0  0  0  0  0  0  0  0  0
    6.5610   -3.8420   21.0300 C   0  0  0  0  0  0  0  0  0  0  0  0
    6.1360   -4.2500   19.8970 O   0  0  0  0  0  0  0  0  0  0  0  0
    7.3540   -3.6040   22.1670 N   0  0  0  0  0  0  0  0  0  0  0  0
    7.9450   -4.6070   23.0900 C   0  0  0  0  0  0  0  0  0  0  0  0
    9.0830   -3.8030   23.8120 C   0  0  1  0  0  0  0  0  0  0  0  0
    9.3810   -2.6660   22.8090 C   0  0  0  0  0  0  0  0  0  0  0  0
    7.9120   -2.3040   22.5740 C   0  0  2  0  0  0  0  0  0  0  0  0
    7.5280   -2.0040   24.0570 C   0  0  0  0  0  0  0  0  0  0  0  0
    8.4930   -2.8940   24.9040 C   0  0  1  0  0  0  0  0  0  0  0  0
    7.6670   -3.6260   25.9170 C   0  0  0  0  0  0  0  0  0  0  0  0
    8.1120   -4.6250   26.4680 O   0  0  0  0  0  0  0  0  0  0  0  0
    6.4020   -3.0800   26.1610 N   0  0  0  0  0  0  0  0  0  0  0  0
    6.1250   -2.0350   27.0860 C   0  0  0  0  0  0  0  0  0  0  0  0
    4.8200   -1.7930   27.2670 C   0  0  0  0  0  0  0  0  0  0  0  0
    4.1620   -1.6050   26.0080 O   0  0  0  0  0  0  0  0  0  0  0  0
    4.1410   -2.7980   25.2130 C   0  0  1  0  0  0  0  0  0  0  0  0
    4.4530   -2.5100   23.9420 C   0  0  0  0  0  0  0  0  0  0  0  0
    4.7380   -1.3280   23.4140 N   0  0  0  0  0  0  0  0  0  0  0  0
    4.9820   -1.6220   22.0950 C   0  0  0  0  0  0  0  0  0  0  0  0
    5.3260   -0.6400   21.1420 C   0  0  0  0  0  0  0  0  0  0  0  0
    6.1060   -1.1670   20.0990 C   0  0  0  0  0  0  0  0  0  0  0  0
    5.4800   -1.8570   19.0540 C   0  0  0  0  0  0  0  0  0  0  0  0
    4.8580   -2.9230   21.7980 N   0  0  0  0  0  0  0  0  0  0  0  0
    4.5250   -3.4480   22.9850 N   0  0  0  0  0  0  0  0  0  0  0  0
    5.1600   -3.7840   25.7990 C   0  0  0  0  0  0  0  0  0  0  0  0
  1  2  1  0
  2  3  2  0
  2  4  1  0
  4  5  1  0
  6  5  1  6
  6  7  1  0
  4  8  1  0
  7  8  1  0
  8  9  1  1
  6 10  1  0
  9 10  1  0
 10 11  1  1
 11 12  2  0
 11 13  1  0
 13 14  1  0
 14 15  1  0
 15 16  1  0
 16 17  1  0
 17 18  1  6
 18 19  2  0
 19 20  1  0
 20 21  1  0
 21 22  1  0
 22 23  1  0
 20 24  2  0
 18 25  1  0
 24 25  1  0
 13 26  1  0
 17 26  1  0
M  END
