MAK-UNK-90d0606b-1-nitrile
     RDKit          3D

 23 25  0  0  0  0  0  0  0  0999 V2000
    7.3800   -3.8740   20.1830 C   0  0  0  0  0  0  0  0  0  0  0  0
    6.1700   -4.0640   19.8250 N   0  0  0  0  0  0  0  0  0  0  0  0
    7.8860   -4.0240   21.4450 N   0  0  0  0  0  0  0  0  0  0  0  0
    7.2310   -4.7880   22.5210 C   0  0  0  0  0  0  0  0  0  0  0  0
    7.1560   -3.6380   23.5410 C   0  0  1  0  0  0  0  0  0  0  0  0
    8.6840   -3.4110   23.5820 C   0  0  0  0  0  0  0  0  0  0  0  0
    8.7600   -3.0090   22.1000 C   0  0  2  0  0  0  0  0  0  0  0  0
    7.9280   -1.7590   22.2650 C   0  0  0  0  0  0  0  0  0  0  0  0
    6.6990   -2.3580   22.8930 N   0  0  0  0  0  0  0  0  0  0  0  0
    5.6510   -2.5390   21.8640 C   0  0  0  0  0  0  0  0  0  0  0  0
    5.4930   -1.2500   21.0320 C   0  0  0  0  0  0  0  0  0  0  0  0
    4.7680   -0.3320   21.9530 C   0  0  2  0  0  0  0  0  0  0  0  0
    3.6120    0.3160   21.2900 N   0  0  0  0  0  0  0  0  0  0  0  0
    3.9400    0.9980   20.1330 C   0  0  0  0  0  0  0  0  0  0  0  0
    4.7910    0.4700   19.2450 C   0  0  0  0  0  0  0  0  0  0  0  0
    5.1710    1.1390   18.0510 C   0  0  0  0  0  0  0  0  0  0  0  0
    4.6730    2.3290   17.7870 C   0  0  0  0  0  0  0  0  0  0  0  0
    3.7310    2.9460   18.7240 C   0  0  0  0  0  0  0  0  0  0  0  0
    3.3840    2.2620   19.8860 C   0  0  0  0  0  0  0  0  0  0  0  0
    5.6540    0.8090   22.5420 C   0  0  0  0  0  0  0  0  0  0  0  0
    5.2830    1.4930   23.4980 O   0  0  0  0  0  0  0  0  0  0  0  0
    6.8760    1.0140   21.9280 N   0  0  0  0  0  0  0  0  0  0  0  0
    7.0190    1.8800   20.7810 C   0  0  0  0  0  0  0  0  0  0  0  0
  1  2  2  3
  1  3  1  0
  3  4  1  0
  5  4  1  6
  5  6  1  0
  3  7  1  0
  6  7  1  0
  7  8  1  1
  5  9  1  0
  8  9  1  0
  9 10  1  0
 10 11  1  0
 12 11  1  6
 12 13  1  0
 13 14  1  0
 14 15  2  0
 15 16  1  0
 16 17  2  0
 17 18  1  0
 14 19  1  0
 18 19  2  0
 12 20  1  0
 20 21  2  0
 20 22  1  0
 22 23  1  0
M  END
