MAK-UNK-516d8086-3-vinylsulfonamide
     RDKit          3D

 25 27  0  0  0  0  0  0  0  0999 V2000
    7.7510   -4.2890   20.7990 C   0  0  0  0  0  0  0  0  0  0  0  0
    6.6090   -3.2970   21.0160 C   0  0  0  0  0  0  0  0  0  0  0  0
    5.7970   -3.5740   22.5740 S   0  0  0  0  0  0  0  0  0  0  0  0
    4.3720   -3.6130   22.3180 O   0  0  0  0  0  0  0  0  0  0  0  0
    6.4220   -4.7250   23.1920 O   0  0  0  0  0  0  0  0  0  0  0  0
    6.2160   -2.1000   23.6230 C   0  0  0  0  0  0  0  0  0  0  0  0
    5.0580   -1.3190   24.2130 C   0  0  0  0  0  0  0  0  0  0  0  0
    5.1670   -0.2230   24.9910 N   0  0  0  0  0  0  0  0  0  0  0  0
    6.4330    0.1950   25.2520 C   0  0  0  0  0  0  0  0  0  0  0  0
    6.8100    1.3740   26.0800 N   0  0  0  0  0  0  0  0  0  0  0  0
    6.8610    2.5600   25.4450 C   0  0  0  0  0  0  0  0  0  0  0  0
    8.2390    2.7310   24.8000 C   0  0  0  0  0  0  0  0  0  0  0  0
    7.6860   -0.5300   24.7020 C   0  0  0  0  0  0  0  0  0  0  0  0
    9.1220   -0.0800   24.9770 C   0  0  0  0  0  0  0  0  0  0  0  0
   10.2170   -0.7330   24.3890 C   0  0  0  0  0  0  0  0  0  0  0  0
   10.7940   -0.6500   25.6200 C   0  0  0  0  0  0  0  0  0  0  0  0
   11.6590   -1.2100   24.9640 C   0  0  0  0  0  0  0  0  0  0  0  0
   11.2240   -1.4090   23.5680 C   0  0  0  0  0  0  0  0  0  0  0  0
   12.1990   -1.9680   23.1360 C   0  0  0  0  0  0  0  0  0  0  0  0
   11.6870   -1.4000   24.3700 C   0  0  0  0  0  0  0  0  0  0  0  0
   11.8390   -2.1920   21.6820 C   0  0  0  0  0  0  0  0  0  0  0  0
   13.0010   -2.0160   21.5210 O   0  0  0  0  0  0  0  0  0  0  0  0
   10.6320   -2.3440   22.1300 N   0  0  0  0  0  0  0  0  0  0  0  0
   10.2060   -1.1980   22.7290 C   0  0  0  0  0  0  0  0  0  0  0  0
    7.5000   -1.6670   23.8990 C   0  0  0  0  0  0  0  0  0  0  0  0
  1  2  1  0
  3  2  1  0
  3  4  2  0
  3  5  2  0
  3  6  1  0
  6  7  2  0
  7  8  1  0
  8  9  2  0
  9 10  1  0
 10 11  1  0
 11 12  1  0
  9 13  1  0
 13 14  1  0
 14 15  1  0
 15 16  2  0
 16 17  1  0
 17 18  2  0
 18 19  1  0
 15 20  1  0
 19 20  2  0
 19 21  1  0
 21 22  2  0
 21 23  1  0
 18 24  1  0
 23 24  1  0
  6 25  1  0
 13 25  2  0
M  END
