MAK-UNK-0d6072ac-10
     RDKit          3D

 19 21  0  0  0  0  0  0  0  0999 V2000
    4.9630   -6.4100   22.9280 C   0  0  0  0  0  0  0  0  0  0  0  0
    5.4520   -5.2100   22.1710 C   0  0  2  0  0  0  0  0  0  0  0  0
    5.4320   -5.3360   20.6660 C   0  0  0  0  0  0  0  0  0  0  0  0
    5.4470   -6.6260   20.1480 O   0  0  0  0  0  0  0  0  0  0  0  0
    5.3420   -4.2400   19.8980 O   0  0  0  0  0  0  0  0  0  0  0  0
    6.8060   -4.8620   22.7150 C   0  0  0  0  0  0  0  0  0  0  0  0
    7.6580   -5.7280   23.4130 C   0  0  0  0  0  0  0  0  0  0  0  0
    8.6160   -4.8780   23.6560 C   0  0  0  0  0  0  0  0  0  0  0  0
    9.6940   -4.2150   24.0220 C   0  0  0  0  0  0  0  0  0  0  0  0
    8.7730   -3.3080   23.2320 C   0  0  0  0  0  0  0  0  0  0  0  0
    7.3780   -3.6260   22.6030 N   0  0  0  0  0  0  0  0  0  0  0  0
    9.2450   -1.9550   23.0340 N   0  0  0  0  0  0  0  0  0  0  0  0
   10.5030   -1.9500   23.7050 C   0  0  0  0  0  0  0  0  0  0  0  0
   11.3920   -0.7200   23.7670 C   0  0  0  0  0  0  0  0  0  0  0  0
   12.6770   -0.9500   24.5330 C   0  0  0  0  0  0  0  0  0  0  0  0
   12.8470   -2.2280   25.0650 C   0  0  0  0  0  0  0  0  0  0  0  0
   14.2190   -2.6420   25.9490 Cl  0  0  0  0  0  0  0  0  0  0  0  0
   11.9590   -3.2690   24.9490 C   0  0  0  0  0  0  0  0  0  0  0  0
   10.7560   -3.1920   24.2620 C   0  0  0  0  0  0  0  0  0  0  0  0
  2  1  1  1
  2  3  1  0
  3  4  2  0
  3  5  1  0
  2  6  1  0
  6  7  2  0
  7  8  1  0
  8  9  2  0
  9 10  1  0
  6 11  1  0
 10 11  2  0
 10 12  1  0
 12 13  1  0
 13 14  1  0
 14 15  2  0
 15 16  1  0
 16 17  1  0
 16 18  2  0
  9 19  1  0
 13 19  2  0
 18 19  1  0
M  END
