MAK-UNK-148caf23-15-vinylsulfonamide
     RDKit          3D

 37 40  0  0  0  0  0  0  0  0999 V2000
    7.0910   -5.4640   20.3170 C   0  0  0  0  0  0  0  0  0  0  0  0
    6.7480   -4.5910   21.4730 C   0  0  0  0  0  0  0  0  0  0  0  0
    6.6010   -2.8980   21.0430 S   0  0  0  0  0  0  0  0  0  0  0  0
    5.0290   -3.1980   21.2400 O   0  0  0  0  0  0  0  0  0  0  0  0
    6.6870   -2.4170   19.6730 O   0  0  0  0  0  0  0  0  0  0  0  0
    8.0920   -1.8480   21.7850 C   0  0  0  0  0  0  0  0  0  0  0  0
    8.1520   -2.1340   23.2180 C   0  0  0  0  0  0  0  0  0  0  0  0
    9.3660   -1.0640   22.8800 C   0  0  0  0  0  0  0  0  0  0  0  0
   10.2090   -0.5330   23.9010 C   0  0  0  0  0  0  0  0  0  0  0  0
   10.5520   -0.4590   25.2340 N   0  0  0  0  0  0  0  0  0  0  0  0
    9.5430   -0.2510   26.1900 C   0  0  0  0  0  0  0  0  0  0  0  0
    8.3910    0.5430   25.9610 C   0  0  0  0  0  0  0  0  0  0  0  0
    7.9040    1.0270   24.6310 C   0  0  0  0  0  0  0  0  0  0  0  0
    6.6520    1.8830   24.5080 C   0  0  0  0  0  0  0  0  0  0  0  0
    5.9570    2.2160   25.6490 N   0  0  0  0  0  0  0  0  0  0  0  0
    6.4810    1.7160   26.8570 C   0  0  0  0  0  0  0  0  0  0  0  0
    7.6210    0.9240   27.0610 C   0  0  0  0  0  0  0  0  0  0  0  0
    7.9910    0.4560   28.7140 S   0  0  0  0  0  0  0  0  0  0  0  0
    7.4440    1.5000   29.5560 O   0  0  0  0  0  0  0  0  0  0  0  0
    9.3880    0.0950   28.8250 O   0  0  0  0  0  0  0  0  0  0  0  0
    7.1620   -0.9770   28.8560 N   0  0  0  0  0  0  0  0  0  0  0  0
    7.6060   -2.2050   28.3610 C   0  0  0  0  0  0  0  0  0  0  0  0
    6.7610   -3.2480   28.5790 C   0  0  0  0  0  0  0  0  0  0  0  0
    6.9580   -4.5840   28.1850 C   0  0  0  0  0  0  0  0  0  0  0  0
    5.9490   -5.4660   28.3500 N   0  0  0  0  0  0  0  0  0  0  0  0
    6.2400   -6.5610   29.0840 C   0  0  0  0  0  0  0  0  0  0  0  0
    5.6580   -2.6440   29.2880 C   0  0  0  0  0  0  0  0  0  0  0  0
    5.9210   -1.2520   29.4490 C   0  0  0  0  0  0  0  0  0  0  0  0
    5.0470   -0.3740   30.0930 C   0  0  0  0  0  0  0  0  0  0  0  0
    5.5040    0.5470   31.0250 C   0  0  0  0  0  0  0  0  0  0  0  0
    4.6850    1.4390   31.6930 C   0  0  0  0  0  0  0  0  0  0  0  0
    3.3160    1.4180   31.4210 C   0  0  0  0  0  0  0  0  0  0  0  0
    2.8040    0.5050   30.4870 C   0  0  0  0  0  0  0  0  0  0  0  0
    3.6610   -0.3830   29.8290 C   0  0  0  0  0  0  0  0  0  0  0  0
    3.1360   -1.2460   28.9420 F   0  0  0  0  0  0  0  0  0  0  0  0
    9.3600   -1.3200   24.1750 N   0  0  0  0  0  0  0  0  0  0  0  0
    8.9230   -1.3970   22.8460 C   0  0  0  0  0  0  0  0  0  0  0  0
  1  2  1  0
  3  2  1  0
  3  4  2  0
  3  5  2  0
  3  6  1  0
  6  7  2  0
  7  8  1  0
  8  9  2  0
  9 10  1  0
 10 11  1  0
 11 12  1  0
 12 13  2  0
 13 14  1  0
 14 15  2  0
 15 16  1  0
 12 17  1  0
 16 17  2  0
 18 17  1  0
 18 19  2  0
 18 20  2  0
 18 21  1  0
 21 22  1  0
 22 23  2  0
 23 24  1  0
 24 25  1  0
 25 26  1  0
 23 27  1  0
 21 28  1  0
 27 28  2  0
 28 29  1  0
 29 30  2  0
 30 31  1  0
 31 32  2  0
 32 33  1  0
 29 34  1  0
 33 34  2  0
 34 35  1  0
  9 36  1  0
  6 37  1  0
 36 37  2  0
M  END
