MAK-UNK-212f693e-24-nitrile
     RDKit          3D

 14 15  0  0  0  0  0  0  0  0999 V2000
    6.3700   -4.6150   20.3660 C   0  0  0  0  0  0  0  0  0  0  0  0
    5.2430   -4.3530   19.8610 N   0  0  0  0  0  0  0  0  0  0  0  0
    6.5170   -5.2260   21.6040 N   0  0  0  0  0  0  0  0  0  0  0  0
    7.2990   -4.7880   22.6110 C   0  0  0  0  0  0  0  0  0  0  0  0
    6.6550   -4.5610   23.9820 C   0  0  0  0  0  0  0  0  0  0  0  0
    5.1540   -4.6270   23.8290 C   0  0  0  0  0  0  0  0  0  0  0  0
    4.5120   -4.7530   25.1150 O   0  0  0  0  0  0  0  0  0  0  0  0
    3.5110   -3.8550   25.3380 C   0  0  0  0  0  0  0  0  0  0  0  0
    3.6120   -2.5000   25.6880 C   0  0  0  0  0  0  0  0  0  0  0  0
    2.5080   -1.7520   25.8640 C   0  0  0  0  0  0  0  0  0  0  0  0
    1.0930   -2.5770   25.6380 S   0  0  0  0  0  0  0  0  0  0  0  0
    2.0510   -3.9580   25.2920 C   0  0  0  0  0  0  0  0  0  0  0  0
    4.6980   -5.6440   22.9860 C   0  0  0  0  0  0  0  0  0  0  0  0
    5.6230   -6.1970   22.0670 C   0  0  0  0  0  0  0  0  0  0  0  0
  1  2  2  3
  1  3  1  0
  3  4  1  0
  4  5  1  0
  5  6  1  0
  6  7  1  0
  7  8  1  0
  8  9  1  0
  9 10  2  0
 10 11  1  0
  8 12  2  0
 11 12  1  0
  6 13  1  0
  3 14  1  0
 13 14  1  0
M  END
