MAK-UNK-8fdbca50-7-vinylsulfonamide
     RDKit          3D

 41 44  0  0  0  0  0  0  0  0999 V2000
    6.8220   -5.3470   19.9550 C   0  0  0  0  0  0  0  0  0  0  0  0
    6.7570   -5.7660   21.4410 C   0  0  0  0  0  0  0  0  0  0  0  0
    5.4370   -4.9630   22.2800 S   0  0  0  0  0  0  0  0  0  0  0  0
    5.0760   -3.7760   21.5470 O   0  0  0  0  0  0  0  0  0  0  0  0
    4.4330   -5.9370   22.6350 O   0  0  0  0  0  0  0  0  0  0  0  0
    6.2510   -4.4880   23.6680 N   0  0  0  0  0  0  0  0  0  0  0  0
    7.2490   -5.4410   24.1740 C   0  0  0  0  0  0  0  0  0  0  0  0
    8.6130   -4.6650   24.3230 C   0  0  0  0  0  0  0  0  0  0  0  0
    8.7370   -3.9760   22.9490 C   0  0  0  0  0  0  0  0  0  0  0  0
   10.1900   -3.5570   23.1840 C   0  0  0  0  0  0  0  0  0  0  0  0
   10.8270   -3.9700   24.1440 O   0  0  0  0  0  0  0  0  0  0  0  0
   10.7190   -2.5980   22.1400 N   0  0  0  0  0  0  0  0  0  0  0  0
    9.6330   -1.7860   21.6060 C   0  0  0  0  0  0  0  0  0  0  0  0
   11.8950   -1.7660   22.4840 C   0  0  1  0  0  0  0  0  0  0  0  0
   13.0430   -1.4120   21.5800 C   0  0  0  0  0  0  0  0  0  0  0  0
   11.3920   -0.6980   23.1450 C   0  0  0  0  0  0  0  0  0  0  0  0
   11.8900    0.5910   23.0100 C   0  0  0  0  0  0  0  0  0  0  0  0
   11.2220    1.6110   23.7640 N   0  0  0  0  0  0  0  0  0  0  0  0
   10.1730    1.2770   24.5550 C   0  0  0  0  0  0  0  0  0  0  0  0
    9.7030   -0.0010   24.6940 C   0  0  0  0  0  0  0  0  0  0  0  0
    8.3650   -0.3990   25.7440 S   0  0  0  0  0  0  0  0  0  0  0  0
    8.8610   -0.5730   27.0840 O   0  0  0  0  0  0  0  0  0  0  0  0
    7.6270   -1.4440   25.0850 O   0  0  0  0  0  0  0  0  0  0  0  0
    7.3230    0.9230   25.6920 N   0  0  0  0  0  0  0  0  0  0  0  0
    7.4060    1.8760   24.6960 C   0  0  0  0  0  0  0  0  0  0  0  0
    6.4220    2.8350   24.9100 C   0  0  0  0  0  0  0  0  0  0  0  0
    6.2330    3.9610   24.0590 C   0  0  0  0  0  0  0  0  0  0  0  0
    5.9920    3.4280   22.7130 N   0  0  0  0  0  0  0  0  0  0  0  0
    7.2080    3.2610   21.9150 C   0  0  0  0  0  0  0  0  0  0  0  0
    5.7340    2.4280   26.0770 C   0  0  0  0  0  0  0  0  0  0  0  0
    6.2960    1.2390   26.5640 C   0  0  0  0  0  0  0  0  0  0  0  0
    6.0040    0.3970   27.6960 C   0  0  0  0  0  0  0  0  0  0  0  0
    6.9590   -0.2070   28.6700 C   0  0  0  0  0  0  0  0  0  0  0  0
    6.3040   -1.0470   29.7470 C   0  0  0  0  0  0  0  0  0  0  0  0
    4.9330   -1.2440   29.8250 C   0  0  0  0  0  0  0  0  0  0  0  0
    4.0580   -0.5830   28.7830 C   0  0  0  0  0  0  0  0  0  0  0  0
    4.6290    0.2070   27.7660 C   0  0  0  0  0  0  0  0  0  0  0  0
    3.8100    0.7730   26.8660 F   0  0  0  0  0  0  0  0  0  0  0  0
   10.3060   -0.9890   23.9870 C   0  0  0  0  0  0  0  0  0  0  0  0
    7.7820   -2.7820   22.9150 C   0  0  0  0  0  0  0  0  0  0  0  0
    6.5940   -3.0810   23.8120 C   0  0  0  0  0  0  0  0  0  0  0  0
  1  2  1  0
  3  2  1  0
  3  4  2  0
  3  5  2  0
  3  6  1  0
  6  7  1  0
  7  8  1  0
  8  9  1  0
  9 10  1  0
 10 11  2  0
 10 12  1  0
 12 13  1  0
 12 14  1  0
 14 15  1  6
 14 16  1  0
 16 17  2  0
 17 18  1  0
 18 19  2  0
 19 20  1  0
 21 20  1  0
 21 22  2  0
 21 23  2  0
 21 24  1  0
 24 25  1  0
 25 26  2  0
 26 27  1  0
 27 28  1  0
 28 29  1  0
 26 30  1  0
 24 31  1  0
 30 31  2  0
 31 32  1  0
 32 33  2  0
 33 34  1  0
 34 35  2  0
 35 36  1  0
 32 37  1  0
 36 37  2  0
 37 38  1  0
 16 39  1  0
 20 39  2  0
  9 40  1  0
  6 41  1  0
 40 41  1  0
M  END
