MAK-UNK-8fdbca50-17-acrylamide
     RDKit          3D

 40 43  0  0  0  0  0  0  0  0999 V2000
    6.4800   -3.7870   19.8820 C   0  0  0  0  0  0  0  0  0  0  0  0
    6.5530   -2.7310   20.9840 C   0  0  0  0  0  0  0  0  0  0  0  0
    6.1050   -3.3250   22.2940 C   0  0  0  0  0  0  0  0  0  0  0  0
    5.0300   -3.6230   21.5910 O   0  0  0  0  0  0  0  0  0  0  0  0
    7.4230   -2.8490   22.7680 N   0  0  0  0  0  0  0  0  0  0  0  0
    7.7200   -2.7860   24.2190 C   0  0  0  0  0  0  0  0  0  0  0  0
    9.1590   -3.4130   24.5020 C   0  0  0  0  0  0  0  0  0  0  0  0
   10.2070   -2.7590   23.5220 C   0  0  0  0  0  0  0  0  0  0  0  0
   11.4380   -2.8240   24.5550 C   0  0  0  0  0  0  0  0  0  0  0  0
   11.1700   -2.6570   25.7170 O   0  0  0  0  0  0  0  0  0  0  0  0
   12.9130   -3.1360   24.0370 N   0  0  0  0  0  0  0  0  0  0  0  0
   13.2490   -2.0930   23.0780 C   0  0  0  0  0  0  0  0  0  0  0  0
   12.8050   -0.7770   23.6580 C   0  0  0  0  0  0  0  0  0  0  0  0
   12.8090   -2.3390   21.7710 C   0  0  0  0  0  0  0  0  0  0  0  0
   14.1850   -3.4410   24.9770 C   0  0  1  0  0  0  0  0  0  0  0  0
   13.6460   -3.5760   26.1530 C   0  0  0  0  0  0  0  0  0  0  0  0
   15.5530   -4.1510   24.7930 C   0  0  0  0  0  0  0  0  0  0  0  0
   16.1050   -5.4730   24.9980 C   0  0  0  0  0  0  0  0  0  0  0  0
   17.2190   -6.1560   24.3920 C   0  0  0  0  0  0  0  0  0  0  0  0
   17.3110   -7.5100   24.8100 C   0  0  0  0  0  0  0  0  0  0  0  0
   17.8530   -8.8530   24.8610 C   0  0  0  0  0  0  0  0  0  0  0  0
   17.2260   -9.0710   25.9780 C   0  0  0  0  0  0  0  0  0  0  0  0
   17.3110  -10.2110   26.5820 C   0  0  0  0  0  0  0  0  0  0  0  0
   17.9900  -11.3080   26.2140 C   0  0  0  0  0  0  0  0  0  0  0  0
   18.7290  -11.1160   24.9750 C   0  0  0  0  0  0  0  0  0  0  0  0
   18.6900  -10.0130   24.3460 C   0  0  0  0  0  0  0  0  0  0  0  0
   19.4910  -10.2120   23.2840 F   0  0  0  0  0  0  0  0  0  0  0  0
   16.3820   -7.6370   25.6070 N   0  0  0  0  0  0  0  0  0  0  0  0
   16.1970   -9.2370   26.1610 S   0  0  0  0  0  0  0  0  0  0  0  0
   17.0960   -9.3550   27.1740 O   0  0  0  0  0  0  0  0  0  0  0  0
   14.7760   -9.2960   26.2460 O   0  0  0  0  0  0  0  0  0  0  0  0
   17.0420  -10.4860   25.1100 C   0  0  0  0  0  0  0  0  0  0  0  0
   18.4930  -10.2960   25.2320 C   0  0  0  0  0  0  0  0  0  0  0  0
   19.4340  -11.1450   24.4490 C   0  0  0  0  0  0  0  0  0  0  0  0
   18.8010  -12.1620   23.5790 C   0  0  0  0  0  0  0  0  0  0  0  0
   17.5150  -12.3710   23.4940 N   0  0  0  0  0  0  0  0  0  0  0  0
   16.6730  -11.5930   24.2180 C   0  0  0  0  0  0  0  0  0  0  0  0
   15.6760   -6.4270   25.8210 C   0  0  0  0  0  0  0  0  0  0  0  0
    9.5820   -1.4420   23.0120 C   0  0  0  0  0  0  0  0  0  0  0  0
    8.2730   -1.7840   22.1270 C   0  0  0  0  0  0  0  0  0  0  0  0
  1  2  1  0
  2  3  1  0
  3  4  2  0
  3  5  1  0
  5  6  1  0
  6  7  1  0
  7  8  1  0
  8  9  1  0
  9 10  2  0
  9 11  1  0
 11 12  1  0
 12 13  1  0
 12 14  1  0
 11 15  1  0
 15 16  1  1
 15 17  1  0
 17 18  1  0
 18 19  1  0
 19 20  2  0
 20 21  1  0
 21 22  2  0
 22 23  1  0
 23 24  2  0
 24 25  1  0
 21 26  1  0
 25 26  2  0
 26 27  1  0
 20 28  1  0
 28 29  1  0
 29 30  2  0
 29 31  2  0
 29 32  1  0
 32 33  2  0
 33 34  1  0
 34 35  2  0
 35 36  1  0
 32 37  1  0
 36 37  2  0
 18 38  2  0
 28 38  1  0
  8 39  1  0
  5 40  1  0
 39 40  1  0
M  END
