MAK-UNK-be5ffcbc-8
     RDKit          3D

 19 20  0  0  0  0  0  0  0  0999 V2000
    8.6680    8.6240   24.1500 O   0  0  0  0  0  0  0  0  0  0  0  0
    8.1800    7.8210   23.3670 C   0  0  0  0  0  0  0  0  0  0  0  0
    6.9900    7.8870   23.0670 O   0  0  0  0  0  0  0  0  0  0  0  0
    8.9290    6.6760   22.6800 C   0  0  0  0  0  0  0  0  0  0  0  0
   10.2130    6.2400   23.4240 C   0  0  0  0  0  0  0  0  0  0  0  0
   10.3410    6.2990   24.6440 O   0  0  0  0  0  0  0  0  0  0  0  0
   11.2630    5.7440   22.5240 N   0  0  0  0  0  0  0  0  0  0  0  0
   12.3740    5.0520   23.2150 C   0  0  0  0  0  0  0  0  0  0  0  0
   12.5650    3.6440   22.7150 C   0  0  0  0  0  0  0  0  0  0  0  0
   11.7720    2.5970   23.2210 C   0  0  0  0  0  0  0  0  0  0  0  0
   10.6100    2.8510   23.9450 C   0  0  0  0  0  0  0  0  0  0  0  0
   10.1050    1.6270   24.2520 N   0  0  0  0  0  0  0  0  0  0  0  0
   10.8420    0.5520   23.7850 C   0  0  0  0  0  0  0  0  0  0  0  0
   10.6250   -0.8190   23.8990 C   0  0  0  0  0  0  0  0  0  0  0  0
   11.5450   -1.6740   23.3100 C   0  0  0  0  0  0  0  0  0  0  0  0
   12.6600   -1.1920   22.6350 C   0  0  0  0  0  0  0  0  0  0  0  0
   13.5090   -2.0400   22.0810 F   0  0  0  0  0  0  0  0  0  0  0  0
   12.8800    0.1790   22.5380 C   0  0  0  0  0  0  0  0  0  0  0  0
   11.9670    1.0590   23.1020 C   0  0  0  0  0  0  0  0  0  0  0  0
  1  2  2  0
  2  3  1  0
  2  4  1  0
  4  5  1  0
  5  6  2  0
  5  7  1  0
  7  8  1  0
  8  9  1  0
  9 10  1  0
 10 11  2  0
 11 12  1  0
 12 13  1  0
 13 14  1  0
 14 15  2  0
 15 16  1  0
 16 17  1  0
 16 18  2  0
 10 19  1  0
 13 19  2  0
 18 19  1  0
M  END
