MAK-UNK-ec98eaf6-49-nitrile
     RDKit          3D

 25 28  0  0  0  0  0  0  0  0999 V2000
    6.9890   -3.7040   19.9540 C   0  0  0  0  0  0  0  0  0  0  0  0
    5.9100   -4.3760   19.8200 N   0  0  0  0  0  0  0  0  0  0  0  0
    7.2140   -3.0370   21.1140 N   0  0  0  0  0  0  0  0  0  0  0  0
    6.5340   -3.2160   22.3740 C   0  0  0  0  0  0  0  0  0  0  0  0
    7.8550   -3.2700   23.1690 C   0  0  1  0  0  0  0  0  0  0  0  0
    8.8490   -2.9440   22.0890 C   0  0  0  0  0  0  0  0  0  0  0  0
    8.0130   -1.8380   21.3290 C   0  0  2  0  0  0  0  0  0  0  0  0
    8.5270   -1.1630   22.6420 C   0  0  0  0  0  0  0  0  0  0  0  0
    8.1840   -2.0380   23.8460 N   0  0  0  0  0  0  0  0  0  0  0  0
    9.4110   -2.2120   24.6590 C   0  0  1  0  0  0  0  0  0  0  0  0
    9.8190   -3.6700   25.0190 C   0  0  0  0  0  0  0  0  0  0  0  0
    8.7670   -4.4600   25.8240 C   0  0  0  0  0  0  0  0  0  0  0  0
    8.1410   -5.5400   24.9660 C   0  0  0  0  0  0  0  0  0  0  0  0
    8.9690   -6.3840   24.2340 C   0  0  0  0  0  0  0  0  0  0  0  0
    8.4320   -7.3860   23.4290 C   0  0  0  0  0  0  0  0  0  0  0  0
    7.0620   -7.5570   23.3460 C   0  0  0  0  0  0  0  0  0  0  0  0
    6.2140   -6.7240   24.0700 C   0  0  0  0  0  0  0  0  0  0  0  0
    6.7520   -5.7130   24.8810 C   0  0  0  0  0  0  0  0  0  0  0  0
   10.5870   -1.4220   24.0760 C   0  0  0  0  0  0  0  0  0  0  0  0
   10.8770   -0.1670   24.6190 C   0  0  0  0  0  0  0  0  0  0  0  0
   11.9060    0.6510   24.1550 C   0  0  0  0  0  0  0  0  0  0  0  0
   12.7150    0.2670   23.1310 C   0  0  0  0  0  0  0  0  0  0  0  0
   12.4350   -0.9660   22.5990 C   0  0  0  0  0  0  0  0  0  0  0  0
   13.4430   -1.4110   21.3240 Cl  0  0  0  0  0  0  0  0  0  0  0  0
   11.4010   -1.8510   23.0170 C   0  0  0  0  0  0  0  0  0  0  0  0
  1  2  2  3
  1  3  1  0
  3  4  1  0
  5  4  1  6
  5  6  1  0
  3  7  1  0
  6  7  1  0
  7  8  1  1
  5  9  1  0
  8  9  1  0
  9 10  1  0
 10 11  1  6
 11 12  1  0
 12 13  1  0
 13 14  2  0
 14 15  1  0
 15 16  2  0
 16 17  1  0
 13 18  1  0
 17 18  2  0
 10 19  1  0
 19 20  2  0
 20 21  1  0
 21 22  2  0
 22 23  1  0
 23 24  1  0
 19 25  1  0
 23 25  2  0
M  END
