MAK-UNK-148caf23-4-vinylsulfonamide
     RDKit          3D

 37 40  0  0  0  0  0  0  0  0999 V2000
    6.7100   -3.8550   19.8420 C   0  0  0  0  0  0  0  0  0  0  0  0
    6.4570   -2.3940   19.6770 C   0  0  0  0  0  0  0  0  0  0  0  0
    6.1210   -2.1660   21.3500 S   0  0  0  0  0  0  0  0  0  0  0  0
    5.0130   -3.3540   21.4340 O   0  0  0  0  0  0  0  0  0  0  0  0
    5.6660   -0.7990   21.4360 O   0  0  0  0  0  0  0  0  0  0  0  0
    7.9820   -2.1170   21.9290 C   0  0  0  0  0  0  0  0  0  0  0  0
    9.2700   -1.7180   22.7520 C   0  0  0  0  0  0  0  0  0  0  0  0
   10.4670   -1.5180   23.3150 N   0  0  0  0  0  0  0  0  0  0  0  0
    9.7790   -0.6590   24.2130 C   0  0  0  0  0  0  0  0  0  0  0  0
   10.2440    0.0800   25.3760 N   0  0  0  0  0  0  0  0  0  0  0  0
    9.5960   -0.2620   26.6710 C   0  0  0  0  0  0  0  0  0  0  0  0
    8.4060    0.5970   27.0520 C   0  0  0  0  0  0  0  0  0  0  0  0
    8.3900   -0.5070   23.9520 C   0  0  0  0  0  0  0  0  0  0  0  0
    7.8080    0.4000   24.8360 N   0  0  0  0  0  0  0  0  0  0  0  0
    6.5540    1.1030   24.7150 C   0  0  0  0  0  0  0  0  0  0  0  0
    6.2710    2.0170   25.8750 C   0  0  0  0  0  0  0  0  0  0  0  0
    7.0680    2.1440   25.0660 C   0  0  0  0  0  0  0  0  0  0  0  0
    5.8970    1.2760   25.6090 C   0  0  0  0  0  0  0  0  0  0  0  0
    5.4080    0.1230   25.0850 C   0  0  0  0  0  0  0  0  0  0  0  0
    5.7700   -1.1690   25.7950 C   0  0  0  0  0  0  0  0  0  0  0  0
    5.0820   -2.1190   24.9540 C   0  0  0  0  0  0  0  0  0  0  0  0
    4.2930   -1.9720   23.8080 C   0  0  0  0  0  0  0  0  0  0  0  0
    4.0440   -0.7530   23.2750 C   0  0  0  0  0  0  0  0  0  0  0  0
    4.6210    0.3140   23.9380 C   0  0  0  0  0  0  0  0  0  0  0  0
    4.4140    1.5570   23.4590 F   0  0  0  0  0  0  0  0  0  0  0  0
    5.3560    1.9230   26.8410 N   0  0  0  0  0  0  0  0  0  0  0  0
    4.1140    1.5940   27.9740 S   0  0  0  0  0  0  0  0  0  0  0  0
    4.5760    0.4800   28.7740 O   0  0  0  0  0  0  0  0  0  0  0  0
    3.8060    2.8720   28.5770 O   0  0  0  0  0  0  0  0  0  0  0  0
    2.7180    1.0490   27.0450 C   0  0  0  0  0  0  0  0  0  0  0  0
    2.7590   -0.1650   26.3480 C   0  0  0  0  0  0  0  0  0  0  0  0
    1.5150   -0.5760   25.5630 C   0  0  0  0  0  0  0  0  0  0  0  0
    0.3460    0.4070   25.6340 C   0  0  0  0  0  0  0  0  0  0  0  0
    0.4140    1.5590   26.3420 N   0  0  0  0  0  0  0  0  0  0  0  0
    1.5680    1.8470   27.0140 C   0  0  0  0  0  0  0  0  0  0  0  0
    6.2230    2.9240   26.7620 C   0  0  0  0  0  0  0  0  0  0  0  0
    7.5840   -1.1680   22.9170 C   0  0  0  0  0  0  0  0  0  0  0  0
  1  2  1  0
  3  2  1  0
  3  4  2  0
  3  5  2  0
  3  6  1  0
  6  7  2  0
  7  8  1  0
  8  9  2  0
  9 10  1  0
 10 11  1  0
 11 12  1  0
  9 13  1  0
 13 14  1  0
 14 15  1  0
 15 16  1  0
 16 17  1  0
 17 18  2  0
 18 19  1  0
 19 20  2  0
 20 21  1  0
 21 22  2  0
 22 23  1  0
 19 24  1  0
 23 24  2  0
 24 25  1  0
 18 26  1  0
 26 27  1  0
 27 28  2  0
 27 29  2  0
 27 30  1  0
 30 31  2  0
 31 32  1  0
 32 33  2  0
 33 34  1  0
 30 35  1  0
 34 35  2  0
 16 36  2  0
 26 36  1  0
  6 37  1  0
 13 37  2  0
M  END
