MAK-UNK-27459e11-5
     RDKit          3D

 17 17  0  0  0  0  0  0  0  0999 V2000
    6.3290   -5.0770   26.2370 C   0  0  0  0  0  0  0  0  0  0  0  0
    7.9900   -4.4640   26.0690 S   0  0  0  0  0  0  0  0  0  0  0  0
    8.8490   -5.5880   25.8320 O   0  0  0  0  0  0  0  0  0  0  0  0
    8.2260   -3.5430   27.1370 O   0  0  0  0  0  0  0  0  0  0  0  0
    7.9530   -3.5980   24.6070 N   0  0  0  0  0  0  0  0  0  0  0  0
    9.1900   -3.0870   24.2230 C   0  0  2  0  0  0  0  0  0  0  0  0
   10.1510   -2.6160   25.2750 C   0  0  0  0  0  0  0  0  0  0  0  0
   11.3070   -3.5750   25.4630 C   0  0  0  0  0  0  0  0  0  0  0  0
   12.4980   -3.1030   25.1080 N   0  0  0  0  0  0  0  0  0  0  0  0
   11.0500   -4.7740   25.9810 N   0  0  0  0  0  0  0  0  0  0  0  0
    9.0810   -1.9220   23.2330 C   0  0  0  0  0  0  0  0  0  0  0  0
   10.3930   -1.1560   23.2280 C   0  0  0  0  0  0  0  0  0  0  0  0
   11.4380   -1.8140   22.3530 C   0  0  0  0  0  0  0  0  0  0  0  0
   12.7940   -1.1580   22.2640 C   0  0  0  0  0  0  0  0  0  0  0  0
   13.0560    0.0550   22.9920 C   0  0  0  0  0  0  0  0  0  0  0  0
   12.0450    0.5780   23.7630 C   0  0  0  0  0  0  0  0  0  0  0  0
   10.7200    0.0060   23.9040 C   0  0  0  0  0  0  0  0  0  0  0  0
  1  2  1  0
  2  3  2  0
  2  4  2  0
  2  5  1  0
  5  6  1  0
  6  7  1  1
  7  8  1  0
  8  9  2  3
  8 10  1  0
  6 11  1  0
 11 12  1  0
 12 13  2  0
 13 14  1  0
 14 15  2  0
 15 16  1  0
 12 17  1  0
 16 17  2  0
M  END
