MAK-UNK-8fdbca50-28-nitrile
     RDKit          3D

 38 41  0  0  0  0  0  0  0  0999 V2000
    7.1300   -4.2220   20.4040 C   0  0  0  0  0  0  0  0  0  0  0  0
    5.9550   -4.4550   19.9300 N   0  0  0  0  0  0  0  0  0  0  0  0
    7.1060   -4.1080   21.7880 N   0  0  0  0  0  0  0  0  0  0  0  0
    7.5140   -5.0840   22.7060 C   0  0  0  0  0  0  0  0  0  0  0  0
    8.2210   -4.5200   23.9610 C   0  0  0  0  0  0  0  0  0  0  0  0
    7.6470   -3.1200   24.2590 C   0  0  0  0  0  0  0  0  0  0  0  0
    7.7460   -2.8110   25.7760 C   0  0  0  0  0  0  0  0  0  0  0  0
    7.1800   -3.5310   26.5880 O   0  0  0  0  0  0  0  0  0  0  0  0
    8.4880   -1.7170   26.2030 N   0  0  0  0  0  0  0  0  0  0  0  0
    9.5010   -1.3160   25.3510 C   0  0  0  0  0  0  0  0  0  0  0  0
    9.8520    0.1510   25.0430 C   0  0  0  0  0  0  0  0  0  0  0  0
   10.9760    0.2580   24.0180 C   0  0  0  0  0  0  0  0  0  0  0  0
   11.6280   -0.8520   23.4220 C   0  0  0  0  0  0  0  0  0  0  0  0
   12.5450   -0.7330   22.4360 C   0  0  0  0  0  0  0  0  0  0  0  0
   13.7240    0.0200   22.0710 C   0  0  0  0  0  0  0  0  0  0  0  0
   13.6890   -0.7440   20.7010 C   0  0  0  0  0  0  0  0  0  0  0  0
   14.6090   -0.3590   19.4500 C   0  0  0  0  0  0  0  0  0  0  0  0
   15.5700   -0.9730   18.7870 N   0  0  0  0  0  0  0  0  0  0  0  0
   16.1280   -0.3010   17.6100 C   0  0  0  0  0  0  0  0  0  0  0  0
   12.6070   -1.7950   20.6470 C   0  0  0  0  0  0  0  0  0  0  0  0
   11.9440   -1.6400   21.7390 N   0  0  0  0  0  0  0  0  0  0  0  0
   10.5060   -2.3700   22.2260 S   0  0  0  0  0  0  0  0  0  0  0  0
   10.1990   -3.2750   21.2440 O   0  0  0  0  0  0  0  0  0  0  0  0
   10.6050   -2.7310   23.6110 O   0  0  0  0  0  0  0  0  0  0  0  0
    9.4090   -0.9580   21.9540 C   0  0  0  0  0  0  0  0  0  0  0  0
    9.6760    0.3010   22.4740 C   0  0  0  0  0  0  0  0  0  0  0  0
    8.8640    1.3960   22.2790 C   0  0  0  0  0  0  0  0  0  0  0  0
    7.7360    1.2130   21.5240 C   0  0  0  0  0  0  0  0  0  0  0  0
    7.3780    0.0340   20.9640 N   0  0  0  0  0  0  0  0  0  0  0  0
    8.2260   -1.0290   21.1950 C   0  0  0  0  0  0  0  0  0  0  0  0
   11.2460   -2.1140   23.8260 C   0  0  0  0  0  0  0  0  0  0  0  0
   11.8770   -3.1620   23.3080 F   0  0  0  0  0  0  0  0  0  0  0  0
   10.2210   -2.3470   24.7470 C   0  0  0  0  0  0  0  0  0  0  0  0
    7.9980   -0.6680   27.0080 C   0  0  0  0  0  0  0  0  0  0  0  0
    9.0520   -0.0190   27.9170 C   0  0  0  0  0  0  0  0  0  0  0  0
    7.3950    0.4750   26.1790 C   0  0  0  0  0  0  0  0  0  0  0  0
    6.2030   -3.0710   23.7560 C   0  0  0  0  0  0  0  0  0  0  0  0
    6.1750   -3.1060   22.3580 C   0  0  0  0  0  0  0  0  0  0  0  0
  1  2  2  3
  1  3  1  0
  3  4  1  0
  4  5  1  0
  5  6  1  0
  6  7  1  0
  7  8  2  0
  7  9  1  0
  9 10  1  0
 10 11  2  0
 11 12  1  0
 12 13  2  0
 13 14  1  0
 14 15  2  0
 15 16  1  0
 16 17  1  0
 17 18  1  0
 18 19  1  0
 16 20  2  0
 14 21  1  0
 20 21  1  0
 21 22  1  0
 22 23  2  0
 22 24  2  0
 22 25  1  0
 25 26  2  0
 26 27  1  0
 27 28  2  0
 28 29  1  0
 25 30  1  0
 29 30  2  0
 13 31  1  0
 31 32  1  0
 10 33  1  0
 31 33  2  0
  9 34  1  0
 34 35  1  0
 34 36  1  0
  6 37  1  0
  3 38  1  0
 37 38  1  0
M  END
