MAK-UNK-f2409524-22
     RDKit          3D

 23 25  0  0  0  0  0  0  0  0999 V2000
    3.9120    2.0040   22.2840 C   0  0  0  0  0  0  0  0  0  0  0  0
    2.8580    2.2580   23.3290 C   0  0  0  0  0  0  0  0  0  0  0  0
    2.7040    1.5180   24.2960 O   0  0  0  0  0  0  0  0  0  0  0  0
    2.1080    3.3900   23.0800 N   0  0  0  0  0  0  0  0  0  0  0  0
    0.7330    3.5980   23.5270 C   0  0  0  0  0  0  0  0  0  0  0  0
    0.5120    4.7570   24.5060 C   0  0  0  0  0  0  0  0  0  0  0  0
   -0.8640    4.9840   24.9520 N   0  0  0  0  0  0  0  0  0  0  0  0
   -1.9150    4.1870   24.5070 C   0  0  0  0  0  0  0  0  0  0  0  0
   -1.6360    3.1610   23.6280 C   0  0  0  0  0  0  0  0  0  0  0  0
   -0.3750    2.8360   23.1270 C   0  0  0  0  0  0  0  0  0  0  0  0
   -0.3220    1.7540   22.2470 N   0  0  0  0  0  0  0  0  0  0  0  0
   -1.3260    1.2250   21.3930 C   0  0  2  0  0  0  0  0  0  0  0  0
   -2.4700    2.0480   20.8760 C   0  0  0  0  0  0  0  0  0  0  0  0
   -3.7270    1.1810   20.7520 C   0  0  0  0  0  0  0  0  0  0  0  0
   -3.5200   -0.0880   20.3370 C   0  0  2  0  0  0  0  0  0  0  0  0
   -4.5960   -0.8970   19.9660 C   0  0  0  0  0  0  0  0  0  0  0  0
   -5.4420   -0.2960   19.0260 C   0  0  0  0  0  0  0  0  0  0  0  0
   -5.9790   -1.1760   18.0800 C   0  0  0  0  0  0  0  0  0  0  0  0
   -6.1410   -2.4690   18.5990 C   0  0  0  0  0  0  0  0  0  0  0  0
   -4.9280   -3.0530   18.8910 C   0  0  0  0  0  0  0  0  0  0  0  0
   -3.9730   -2.1640   19.3410 C   0  0  0  0  0  0  0  0  0  0  0  0
   -2.5550   -0.6880   21.1810 C   0  0  0  0  0  0  0  0  0  0  0  0
   -1.9280    0.1750   22.0870 C   0  0  0  0  0  0  0  0  0  0  0  0
  1  2  1  0
  2  3  2  0
  2  4  1  0
  4  5  1  0
  5  6  2  0
  6  7  1  0
  7  8  2  0
  8  9  1  0
  5 10  1  0
  9 10  2  0
 10 11  1  0
 12 11  1  1
 12 13  1  0
 13 14  1  0
 14 15  1  0
 15 16  1  1
 16 17  1  0
 17 18  1  0
 18 19  1  0
 19 20  1  0
 16 21  1  0
 20 21  1  0
 15 22  1  0
 12 23  1  0
 22 23  1  0
M  END
