MAK-UNK-ec98eaf6-44-chloroacetamide
     RDKit          3D

 21 23  0  0  0  0  0  0  0  0999 V2000
    7.2250   -3.0180   18.8140 C   0  0  0  0  0  0  0  0  0  0  0  0
    6.2960   -3.3370   19.9470 C   0  0  0  0  0  0  0  0  0  0  0  0
    5.3950   -4.1760   19.7800 O   0  0  0  0  0  0  0  0  0  0  0  0
    6.5250   -2.6710   21.1290 N   0  0  0  0  0  0  0  0  0  0  0  0
    7.4860   -1.5470   21.2020 C   0  0  0  0  0  0  0  0  0  0  0  0
    7.7370   -1.3850   22.7040 C   0  0  1  0  0  0  0  0  0  0  0  0
    6.2640   -1.5290   23.0670 C   0  0  0  0  0  0  0  0  0  0  0  0
    6.1520   -2.9670   22.5190 C   0  0  2  0  0  0  0  0  0  0  0  0
    7.3780   -3.4160   23.3140 C   0  0  1  0  0  0  0  0  0  0  0  0
    7.5000   -4.8800   22.8020 C   0  0  0  0  0  0  0  0  0  0  0  0
    6.4360   -5.6830   23.4710 N   0  0  0  0  0  0  0  0  0  0  0  0
    8.2940   -5.3460   22.0060 O   0  0  0  0  0  0  0  0  0  0  0  0
    8.4670   -2.6470   23.0230 N   0  0  0  0  0  0  0  0  0  0  0  0
    9.4020   -2.4370   24.1880 C   0  0  0  0  0  0  0  0  0  0  0  0
   10.5280   -1.4900   23.8560 C   0  0  0  0  0  0  0  0  0  0  0  0
   10.7300   -0.2910   24.5370 C   0  0  0  0  0  0  0  0  0  0  0  0
   11.7900    0.5480   24.1690 C   0  0  0  0  0  0  0  0  0  0  0  0
   12.6500    0.2190   23.1600 C   0  0  0  0  0  0  0  0  0  0  0  0
   12.4540   -0.9570   22.4960 C   0  0  0  0  0  0  0  0  0  0  0  0
   13.4920   -1.3800   21.2410 Cl  0  0  0  0  0  0  0  0  0  0  0  0
   11.4080   -1.7880   22.8410 C   0  0  0  0  0  0  0  0  0  0  0  0
  1  2  1  0
  2  3  2  0
  2  4  1  0
  4  5  1  0
  6  5  1  6
  6  7  1  0
  8  4  1  6
  7  8  1  0
  8  9  1  0
  9 10  1  6
 10 11  1  0
 10 12  2  0
  6 13  1  0
  9 13  1  0
 13 14  1  0
 14 15  1  0
 15 16  2  0
 16 17  1  0
 17 18  2  0
 18 19  1  0
 19 20  1  0
 15 21  1  0
 19 21  2  0
M  END
