MAK-UNK-148caf23-17-acrylamide
     RDKit          3D

 36 39  0  0  0  0  0  0  0  0999 V2000
    8.5040   -2.9840   19.2900 C   0  0  0  0  0  0  0  0  0  0  0  0
    7.1060   -3.1810   19.5800 C   0  0  0  0  0  0  0  0  0  0  0  0
    6.7240   -3.2670   21.0340 C   0  0  0  0  0  0  0  0  0  0  0  0
    5.2540   -3.6200   21.1860 O   0  0  0  0  0  0  0  0  0  0  0  0
    8.0080   -3.1570   22.0870 C   0  0  0  0  0  0  0  0  0  0  0  0
    9.0180   -2.5790   23.0360 C   0  0  0  0  0  0  0  0  0  0  0  0
    9.9320   -2.0560   23.8950 C   0  0  0  0  0  0  0  0  0  0  0  0
    9.5490   -0.7220   23.9210 C   0  0  0  0  0  0  0  0  0  0  0  0
   10.2380    0.1790   24.8300 N   0  0  0  0  0  0  0  0  0  0  0  0
   10.2490   -0.2280   26.1620 C   0  0  0  0  0  0  0  0  0  0  0  0
    9.1540    0.2560   27.0720 C   0  0  0  0  0  0  0  0  0  0  0  0
    9.5670    0.6620   28.5020 C   0  0  0  0  0  0  0  0  0  0  0  0
    8.6440    1.1020   29.3580 C   0  0  0  0  0  0  0  0  0  0  0  0
    7.3160    1.2090   28.9930 C   0  0  0  0  0  0  0  0  0  0  0  0
    6.2430    1.7790   30.1880 S   0  0  0  0  0  0  0  0  0  0  0  0
    5.0750    2.3110   29.5260 O   0  0  0  0  0  0  0  0  0  0  0  0
    6.1470    0.7550   31.2080 O   0  0  0  0  0  0  0  0  0  0  0  0
    7.1060    3.0850   30.8700 N   0  0  0  0  0  0  0  0  0  0  0  0
    7.6130    3.0510   32.1560 C   0  0  0  0  0  0  0  0  0  0  0  0
    8.2580    4.2400   32.4380 C   0  0  0  0  0  0  0  0  0  0  0  0
    8.8910    4.5680   33.6540 C   0  0  0  0  0  0  0  0  0  0  0  0
    8.8300    3.7070   34.6930 N   0  0  0  0  0  0  0  0  0  0  0  0
    9.9400    2.9640   34.9090 C   0  0  0  0  0  0  0  0  0  0  0  0
    8.1360    5.0290   31.2480 C   0  0  0  0  0  0  0  0  0  0  0  0
    7.4200    4.3200   30.2770 C   0  0  0  0  0  0  0  0  0  0  0  0
    7.1360    4.8410   29.0040 C   0  0  0  0  0  0  0  0  0  0  0  0
    6.3500    5.9890   28.8780 C   0  0  0  0  0  0  0  0  0  0  0  0
    6.0590    6.5190   27.6190 C   0  0  0  0  0  0  0  0  0  0  0  0
    6.5560    5.9100   26.4720 C   0  0  0  0  0  0  0  0  0  0  0  0
    7.3440    4.7610   26.5750 C   0  0  0  0  0  0  0  0  0  0  0  0
    7.6270    4.2380   27.8330 C   0  0  0  0  0  0  0  0  0  0  0  0
    8.3920    3.1380   27.9100 F   0  0  0  0  0  0  0  0  0  0  0  0
    6.9480    0.8440   27.7160 C   0  0  0  0  0  0  0  0  0  0  0  0
    7.8230    0.3860   26.7880 N   0  0  0  0  0  0  0  0  0  0  0  0
    8.4700   -0.5220   23.0190 N   0  0  0  0  0  0  0  0  0  0  0  0
    8.4520   -1.8810   22.7170 C   0  0  0  0  0  0  0  0  0  0  0  0
  1  2  1  0
  2  3  1  0
  3  4  2  0
  3  5  1  0
  5  6  2  0
  6  7  1  0
  7  8  2  0
  8  9  1  0
  9 10  1  0
 10 11  1  0
 11 12  2  0
 12 13  1  0
 13 14  2  0
 15 14  1  0
 15 16  2  0
 15 17  2  0
 15 18  1  0
 18 19  1  0
 19 20  2  0
 20 21  1  0
 21 22  1  0
 22 23  1  0
 20 24  1  0
 18 25  1  0
 24 25  2  0
 25 26  1  0
 26 27  2  0
 27 28  1  0
 28 29  2  0
 29 30  1  0
 26 31  1  0
 30 31  2  0
 31 32  1  0
 14 33  1  0
 11 34  1  0
 33 34  2  0
  8 35  1  0
  5 36  1  0
 35 36  2  0
M  END
