MAK-UNK-10799360-7-nitrile
     RDKit          3D

 25 28  0  0  0  0  0  0  0  0999 V2000
    7.1900   -3.9040   20.1680 C   0  0  0  0  0  0  0  0  0  0  0  0
    6.1330   -4.6490   20.0180 N   0  0  0  0  0  0  0  0  0  0  0  0
    7.5220   -3.0890   21.2680 N   0  0  0  0  0  0  0  0  0  0  0  0
    7.8620   -1.6300   21.1350 C   0  0  0  0  0  0  0  0  0  0  0  0
    8.5190   -1.2930   22.5120 C   0  0  2  0  0  0  0  0  0  0  0  0
    9.3280   -2.6010   22.6980 C   0  0  0  0  0  0  0  0  0  0  0  0
    8.1340   -3.5380   22.5590 C   0  0  1  0  0  0  0  0  0  0  0  0
    7.4720   -2.9700   23.8390 C   0  0  0  0  0  0  0  0  0  0  0  0
    7.3750   -1.4560   23.5350 C   0  0  1  0  0  0  0  0  0  0  0  0
    7.5110   -0.7650   24.9050 C   0  0  0  0  0  0  0  0  0  0  0  0
    6.3330    0.0930   25.2480 N   0  0  0  0  0  0  0  0  0  0  0  0
    6.2940    1.1270   24.2030 C   0  0  0  0  0  0  0  0  0  0  0  0
    5.5990    0.7220   23.0340 C   0  0  0  0  0  0  0  0  0  0  0  0
    5.3330   -0.6660   22.9180 C   0  0  0  0  0  0  0  0  0  0  0  0
    5.3300   -1.3040   21.6770 C   0  0  0  0  0  0  0  0  0  0  0  0
    5.0870   -2.6790   21.5300 C   0  0  0  0  0  0  0  0  0  0  0  0
    5.1560   -3.1440   20.2080 C   0  0  0  0  0  0  0  0  0  0  0  0
    4.7780   -3.5540   22.7790 C   0  0  0  0  0  0  0  0  0  0  0  0
    4.4170   -5.3200   22.8900 S   0  0  0  0  0  0  0  0  0  0  0  0
    5.2820   -6.0820   21.6690 N   0  0  0  0  0  0  0  0  0  0  0  0
    4.9790   -5.7750   24.1470 O   0  0  0  0  0  0  0  0  0  0  0  0
    3.0060   -5.5090   22.6430 O   0  0  0  0  0  0  0  0  0  0  0  0
    4.7740   -2.9380   24.0200 C   0  0  0  0  0  0  0  0  0  0  0  0
    5.0650   -1.4530   24.1690 C   0  0  0  0  0  0  0  0  0  0  0  0
    5.1380   -0.7530   25.3420 C   0  0  0  0  0  0  0  0  0  0  0  0
  1  2  2  3
  1  3  1  0
  3  4  1  0
  5  4  1  6
  5  6  1  0
  3  7  1  0
  6  7  1  0
  7  8  1  1
  5  9  1  0
  8  9  1  0
  9 10  1  1
 10 11  1  0
 11 12  1  0
 12 13  1  0
 13 14  1  0
 14 15  2  0
 15 16  1  0
 16 17  1  0
 16 18  2  0
 18 19  1  0
 19 20  1  0
 19 21  2  0
 19 22  2  0
 18 23  1  0
 14 24  1  0
 23 24  2  0
 11 25  1  0
 24 25  1  0
M  END
