MAK-UNK-8fdbca50-11-chloroacetamide
     RDKit          3D

 39 42  0  0  0  0  0  0  0  0999 V2000
    8.2540   -3.8440   20.3950 C   0  0  0  0  0  0  0  0  0  0  0  0
    7.0000   -3.0360   20.2510 C   0  0  0  0  0  0  0  0  0  0  0  0
    6.0560   -3.3260   19.4600 O   0  0  0  0  0  0  0  0  0  0  0  0
    6.9750   -1.9090   21.1020 N   0  0  0  0  0  0  0  0  0  0  0  0
    6.7130   -1.9810   22.4560 C   0  0  0  0  0  0  0  0  0  0  0  0
    7.9570   -2.1770   23.3320 C   0  0  0  0  0  0  0  0  0  0  0  0
    8.8500   -0.9730   23.1050 C   0  0  0  0  0  0  0  0  0  0  0  0
   10.1030   -1.3980   23.8530 C   0  0  0  0  0  0  0  0  0  0  0  0
   10.2030   -1.2490   25.0720 O   0  0  0  0  0  0  0  0  0  0  0  0
   11.0540   -2.0020   23.0190 N   0  0  0  0  0  0  0  0  0  0  0  0
   10.3570   -2.6700   21.9170 C   0  0  0  0  0  0  0  0  0  0  0  0
   12.2500   -1.4430   22.5300 C   0  0  1  0  0  0  0  0  0  0  0  0
   12.9460   -0.2660   22.9450 C   0  0  0  0  0  0  0  0  0  0  0  0
   13.6290   -1.6500   23.1570 C   0  0  0  0  0  0  0  0  0  0  0  0
   13.6510   -2.6060   24.2420 C   0  0  0  0  0  0  0  0  0  0  0  0
   12.2820   -2.3500   24.4950 C   0  0  0  0  0  0  0  0  0  0  0  0
   11.6960   -3.1050   25.4760 C   0  0  0  0  0  0  0  0  0  0  0  0
   12.4480   -3.9830   26.1340 C   0  0  0  0  0  0  0  0  0  0  0  0
   13.7930   -4.2530   25.9670 C   0  0  0  0  0  0  0  0  0  0  0  0
   14.5080   -3.6140   24.9970 C   0  0  0  0  0  0  0  0  0  0  0  0
   15.8770   -4.3130   25.0890 C   0  0  0  0  0  0  0  0  0  0  0  0
   15.6420   -5.6070   25.5540 C   0  0  0  0  0  0  0  0  0  0  0  0
   16.6710   -6.4540   25.6800 C   0  0  0  0  0  0  0  0  0  0  0  0
   16.4700   -7.7840   26.1110 C   0  0  0  0  0  0  0  0  0  0  0  0
   17.5060   -8.6490   26.1610 N   0  0  0  0  0  0  0  0  0  0  0  0
   17.7020   -9.8290   25.3710 C   0  0  0  0  0  0  0  0  0  0  0  0
   17.7310   -5.6730   25.2980 C   0  0  0  0  0  0  0  0  0  0  0  0
   17.3570   -4.3860   24.9470 N   0  0  0  0  0  0  0  0  0  0  0  0
   18.7620   -3.3870   24.4640 S   0  0  0  0  0  0  0  0  0  0  0  0
   18.6030   -2.1720   25.1690 O   0  0  0  0  0  0  0  0  0  0  0  0
   18.8270   -3.4970   23.0500 O   0  0  0  0  0  0  0  0  0  0  0  0
   20.4100   -3.5270   25.0440 C   0  0  0  0  0  0  0  0  0  0  0  0
   20.8910   -4.2930   26.2320 C   0  0  0  0  0  0  0  0  0  0  0  0
   22.2430   -4.2300   26.5480 C   0  0  0  0  0  0  0  0  0  0  0  0
   23.0920   -3.4850   25.7550 C   0  0  0  0  0  0  0  0  0  0  0  0
   22.6970   -2.7910   24.6680 N   0  0  0  0  0  0  0  0  0  0  0  0
   21.3830   -2.8210   24.3430 C   0  0  0  0  0  0  0  0  0  0  0  0
    9.0910   -0.6280   21.6340 C   0  0  0  0  0  0  0  0  0  0  0  0
    7.8060   -0.7360   20.7890 C   0  0  0  0  0  0  0  0  0  0  0  0
  1  2  1  0
  2  3  2  0
  2  4  1  0
  4  5  1  0
  5  6  1  0
  6  7  1  0
  7  8  1  0
  8  9  2  0
  8 10  1  0
 10 11  1  0
 10 12  1  0
 12 13  1  1
 12 14  1  0
 14 15  1  0
 15 16  2  0
 16 17  1  0
 17 18  2  0
 18 19  1  0
 15 20  1  0
 19 20  2  0
 20 21  1  0
 21 22  2  0
 22 23  1  0
 23 24  1  0
 24 25  1  0
 25 26  1  0
 23 27  2  0
 21 28  1  0
 27 28  1  0
 28 29  1  0
 29 30  2  0
 29 31  2  0
 29 32  1  0
 32 33  2  0
 33 34  1  0
 34 35  2  0
 35 36  1  0
 32 37  1  0
 36 37  2  0
  7 38  1  0
  4 39  1  0
 38 39  1  0
M  END
