MAK-UNK-ec98eaf6-46-chloroacetamide
     RDKit          3D

 25 28  0  0  0  0  0  0  0  0999 V2000
    7.1780   -3.0220   18.7650 C   0  0  0  0  0  0  0  0  0  0  0  0
    6.2360   -3.2900   19.8930 C   0  0  0  0  0  0  0  0  0  0  0  0
    5.4030   -4.2070   19.7960 O   0  0  0  0  0  0  0  0  0  0  0  0
    6.3900   -2.4720   20.9770 N   0  0  0  0  0  0  0  0  0  0  0  0
    6.3100   -2.8930   22.3450 C   0  0  2  0  0  0  0  0  0  0  0  0
    6.4980   -1.5130   22.9680 C   0  0  0  0  0  0  0  0  0  0  0  0
    7.9540   -1.2230   22.4600 C   0  0  2  0  0  0  0  0  0  0  0  0
    7.2700   -1.2950   21.0540 C   0  0  2  0  0  0  0  0  0  0  0  0
    6.5100    0.0320   21.0500 C   0  0  0  0  0  0  0  0  0  0  0  0
    7.5560    1.0900   21.5100 C   0  0  0  0  0  0  0  0  0  0  0  0
    7.0710    2.5380   21.4880 C   0  0  0  0  0  0  0  0  0  0  0  0
    8.0970    3.5460   21.9410 C   0  0  0  0  0  0  0  0  0  0  0  0
    9.3740    3.1360   22.3410 C   0  0  0  0  0  0  0  0  0  0  0  0
    9.7430    1.7940   22.3330 C   0  0  0  0  0  0  0  0  0  0  0  0
    8.8610    0.7890   21.9270 C   0  0  0  0  0  0  0  0  0  0  0  0
    8.1820   -2.3480   23.4360 N   0  0  0  0  0  0  0  0  0  0  0  0
    9.4660   -2.4480   24.1200 C   0  0  0  0  0  0  0  0  0  0  0  0
   10.4700   -1.5110   23.8650 C   0  0  0  0  0  0  0  0  0  0  0  0
   10.6140   -0.3030   24.5270 C   0  0  0  0  0  0  0  0  0  0  0  0
   11.6980    0.5170   24.1300 C   0  0  0  0  0  0  0  0  0  0  0  0
   12.5620    0.1020   23.1210 C   0  0  0  0  0  0  0  0  0  0  0  0
   12.3530   -1.1330   22.4950 C   0  0  0  0  0  0  0  0  0  0  0  0
   13.3650   -1.6910   21.2580 Cl  0  0  0  0  0  0  0  0  0  0  0  0
   11.2900   -1.9480   22.8760 C   0  0  0  0  0  0  0  0  0  0  0  0
    7.6090   -3.5470   22.8150 C   0  0  0  0  0  0  0  0  0  0  0  0
  1  2  1  0
  2  3  2  0
  2  4  1  0
  4  5  1  0
  5  6  1  0
  6  7  1  0
  4  8  1  0
  7  8  1  0
  8  9  1  1
  9 10  1  0
 10 11  2  0
 11 12  1  0
 12 13  2  0
 13 14  1  0
 10 15  1  0
 14 15  2  0
  7 16  1  6
 16 17  1  0
 17 18  1  0
 18 19  2  0
 19 20  1  0
 20 21  2  0
 21 22  1  0
 22 23  1  0
 18 24  1  0
 22 24  2  0
  5 25  1  1
 16 25  1  0
M  END
