MAK-UNK-10799360-11-vinylsulfonamide
     RDKit          3D

 28 31  0  0  0  0  0  0  0  0999 V2000
    7.7670   -3.9000   20.3700 C   0  0  0  0  0  0  0  0  0  0  0  0
    6.9190   -2.8050   19.7550 C   0  0  0  0  0  0  0  0  0  0  0  0
    5.9150   -2.1540   21.0540 S   0  0  0  0  0  0  0  0  0  0  0  0
    4.8490   -3.1300   21.3220 O   0  0  0  0  0  0  0  0  0  0  0  0
    5.5720   -0.7970   20.6780 O   0  0  0  0  0  0  0  0  0  0  0  0
    7.0500   -2.0450   22.3300 N   0  0  0  0  0  0  0  0  0  0  0  0
    8.5340   -2.2480   22.0880 C   0  0  0  0  0  0  0  0  0  0  0  0
    9.1480   -1.4460   23.2630 C   0  0  1  0  0  0  0  0  0  0  0  0
    8.3710   -0.1580   23.0050 C   0  0  0  0  0  0  0  0  0  0  0  0
    7.0200   -0.8210   23.2460 C   0  0  2  0  0  0  0  0  0  0  0  0
    7.2540   -1.1870   24.7310 C   0  0  0  0  0  0  0  0  0  0  0  0
    8.6150   -1.8600   24.6880 C   0  0  1  0  0  0  0  0  0  0  0  0
    8.6650   -3.3440   25.0330 C   0  0  0  0  0  0  0  0  0  0  0  0
    7.3840   -3.9820   24.6700 N   0  0  0  0  0  0  0  0  0  0  0  0
    6.6250   -4.8360   25.6320 C   0  0  0  0  0  0  0  0  0  0  0  0
    5.4790   -5.4630   25.0500 C   0  0  0  0  0  0  0  0  0  0  0  0
    4.6410   -6.3310   25.7710 C   0  0  0  0  0  0  0  0  0  0  0  0
    3.5300   -6.9200   25.1240 C   0  0  0  0  0  0  0  0  0  0  0  0
    2.4290   -8.0250   25.9290 S   0  0  0  0  0  0  0  0  0  0  0  0
    2.9150   -7.9220   27.5240 N   0  0  0  0  0  0  0  0  0  0  0  0
    2.7700   -9.3310   25.4230 O   0  0  0  0  0  0  0  0  0  0  0  0
    1.0860   -7.4860   25.8240 O   0  0  0  0  0  0  0  0  0  0  0  0
    3.2460   -6.6600   23.7960 C   0  0  0  0  0  0  0  0  0  0  0  0
    4.0590   -5.8120   23.0880 C   0  0  0  0  0  0  0  0  0  0  0  0
    5.1430   -5.2320   23.6980 C   0  0  0  0  0  0  0  0  0  0  0  0
    6.0290   -4.3180   22.9160 C   0  0  0  0  0  0  0  0  0  0  0  0
    7.3220   -4.5100   23.3080 C   0  0  2  0  0  0  0  0  0  0  0  0
    7.7940   -5.8240   23.2660 C   0  0  0  0  0  0  0  0  0  0  0  0
  1  2  1  0
  3  2  1  0
  3  4  2  0
  3  5  2  0
  3  6  1  0
  6  7  1  0
  8  7  1  6
  8  9  1  0
  6 10  1  0
  9 10  1  0
 10 11  1  1
  8 12  1  0
 11 12  1  0
 12 13  1  6
 13 14  1  0
 14 15  1  0
 15 16  1  0
 16 17  2  0
 17 18  1  0
 18 19  1  0
 19 20  1  0
 19 21  2  0
 19 22  2  0
 18 23  2  0
 23 24  1  0
 16 25  1  0
 24 25  2  0
 25 26  1  0
 14 27  1  0
 26 27  1  0
 27 28  1  1
M  END
