MAK-UNK-a7992eb3-9-chloroacetamide
     RDKit          3D

 31 34  0  0  0  0  0  0  0  0999 V2000
    7.7030   -3.6260   20.3220 C   0  0  0  0  0  0  0  0  0  0  0  0
    6.5240   -4.5250   20.6540 C   0  0  0  0  0  0  0  0  0  0  0  0
    5.5130   -4.6690   19.9640 O   0  0  0  0  0  0  0  0  0  0  0  0
    6.6410   -5.2210   21.8530 N   0  0  0  0  0  0  0  0  0  0  0  0
    7.3800   -4.6970   22.9830 C   0  0  0  0  0  0  0  0  0  0  0  0
    6.6310   -4.1820   24.0190 C   0  0  0  0  0  0  0  0  0  0  0  0
    5.6540   -5.0770   24.4430 C   0  0  0  0  0  0  0  0  0  0  0  0
    4.8080   -4.6010   25.4530 C   0  0  0  0  0  0  0  0  0  0  0  0
    5.1640   -4.5980   26.6340 O   0  0  0  0  0  0  0  0  0  0  0  0
    3.5410   -4.1300   25.1110 N   0  0  0  0  0  0  0  0  0  0  0  0
    2.8120   -3.1060   25.8730 C   0  0  0  0  0  0  0  0  0  0  0  0
    3.5190   -2.6060   24.5360 C   0  0  0  0  0  0  0  0  0  0  0  0
    3.5910   -1.2150   23.8410 C   0  0  0  0  0  0  0  0  0  0  0  0
    2.8800   -0.1040   24.4930 C   0  0  0  0  0  0  0  0  0  0  0  0
    2.1840   -0.4670   25.7560 C   0  0  0  0  0  0  0  0  0  0  0  0
    2.2180   -1.8860   26.3180 C   0  0  0  0  0  0  0  0  0  0  0  0
    1.6040   -2.0340   27.3750 O   0  0  0  0  0  0  0  0  0  0  0  0
    0.2910   -1.4720   27.5540 C   0  0  0  0  0  0  0  0  0  0  0  0
   -0.7210   -2.4960   27.0030 C   0  0  0  0  0  0  0  0  0  0  0  0
   -1.5000   -1.9050   26.0050 C   0  0  0  0  0  0  0  0  0  0  0  0
   -0.9330   -0.9530   25.0860 C   0  0  0  0  0  0  0  0  0  0  0  0
   -1.7240   -0.3500   24.0750 C   0  0  0  0  0  0  0  0  0  0  0  0
   -3.0430   -0.7450   24.0490 C   0  0  0  0  0  0  0  0  0  0  0  0
   -3.2240   -1.6440   25.0480 C   0  0  0  0  0  0  0  0  0  0  0  0
   -2.8270   -2.2460   25.9120 N   0  0  0  0  0  0  0  0  0  0  0  0
   -1.5030   -3.2270   28.0990 C   0  0  0  0  0  0  0  0  0  0  0  0
   -0.6900   -4.3120   28.3940 C   0  0  0  0  0  0  0  0  0  0  0  0
    0.1490   -4.5370   27.3320 C   0  0  0  0  0  0  0  0  0  0  0  0
   -0.1580   -3.6160   26.3380 C   0  0  0  0  0  0  0  0  0  0  0  0
    4.7630   -5.5440   23.2530 C   0  0  0  0  0  0  0  0  0  0  0  0
    5.5520   -6.1120   22.2420 C   0  0  0  0  0  0  0  0  0  0  0  0
  1  2  1  0
  2  3  2  0
  2  4  1  0
  4  5  1  0
  5  6  1  0
  6  7  1  0
  7  8  1  0
  8  9  2  0
  8 10  1  0
 10 11  1  0
 11 12  2  0
 12 13  1  0
 13 14  2  0
 14 15  1  0
 11 16  1  0
 15 16  2  0
 16 17  1  0
 17 18  1  0
 19 18  1  0
 19 20  1  0
 20 21  2  0
 21 22  1  0
 22 23  2  0
 23 24  1  0
 20 25  1  0
 24 25  2  0
 19 26  1  0
 26 27  1  0
 27 28  1  0
 19 29  1  0
 28 29  1  0
  7 30  1  0
  4 31  1  0
 30 31  1  0
M  END
