MAK-UNK-148caf23-11-chloroacetamide
     RDKit          3D

 35 38  0  0  0  0  0  0  0  0999 V2000
    8.3940   -3.5880   20.3020 C   0  0  0  0  0  0  0  0  0  0  0  0
    7.9790   -2.1640   19.9070 C   0  0  0  0  0  0  0  0  0  0  0  0
    7.2920   -2.7620   18.8370 O   0  0  0  0  0  0  0  0  0  0  0  0
    8.8570   -1.6770   21.2480 C   0  0  0  0  0  0  0  0  0  0  0  0
    7.9640   -1.4660   22.4340 C   0  0  0  0  0  0  0  0  0  0  0  0
    8.5520   -0.9860   23.6890 C   0  0  0  0  0  0  0  0  0  0  0  0
    9.8320   -0.7030   23.9220 C   0  0  0  0  0  0  0  0  0  0  0  0
   10.2680   -0.2360   25.1220 N   0  0  0  0  0  0  0  0  0  0  0  0
    9.7650   -0.7450   26.3050 C   0  0  0  0  0  0  0  0  0  0  0  0
    8.4250   -0.9680   26.7160 C   0  0  0  0  0  0  0  0  0  0  0  0
    7.5100   -2.0870   26.2850 C   0  0  0  0  0  0  0  0  0  0  0  0
    8.0060   -3.1440   25.2860 C   0  0  0  0  0  0  0  0  0  0  0  0
    7.6120   -4.3220   25.8840 N   0  0  0  0  0  0  0  0  0  0  0  0
    8.6720   -5.2150   26.0000 C   0  0  0  0  0  0  0  0  0  0  0  0
    6.3050   -1.9310   26.9390 C   0  0  0  0  0  0  0  0  0  0  0  0
    6.3510   -0.7270   27.8380 N   0  0  0  0  0  0  0  0  0  0  0  0
    5.0430   -0.2560   28.8020 S   0  0  0  0  0  0  0  0  0  0  0  0
    4.4760    0.9430   28.2300 O   0  0  0  0  0  0  0  0  0  0  0  0
    4.2490   -1.4520   28.9730 O   0  0  0  0  0  0  0  0  0  0  0  0
    5.7130    0.1030   30.3420 C   0  0  0  0  0  0  0  0  0  0  0  0
    7.0340   -0.1790   30.6680 C   0  0  0  0  0  0  0  0  0  0  0  0
    7.4760    0.1630   31.9590 C   0  0  0  0  0  0  0  0  0  0  0  0
    6.6230    0.7540   32.8720 C   0  0  0  0  0  0  0  0  0  0  0  0
    5.3360    1.0390   32.5890 N   0  0  0  0  0  0  0  0  0  0  0  0
    4.9320    0.7030   31.3350 C   0  0  0  0  0  0  0  0  0  0  0  0
    7.6050   -0.1300   27.7310 C   0  0  0  0  0  0  0  0  0  0  0  0
    8.1110    0.9900   28.3850 C   0  0  0  0  0  0  0  0  0  0  0  0
    9.1260    0.8080   29.3230 C   0  0  0  0  0  0  0  0  0  0  0  0
    9.6530    1.8920   29.9980 C   0  0  0  0  0  0  0  0  0  0  0  0
    9.1830    3.1820   29.7520 C   0  0  0  0  0  0  0  0  0  0  0  0
    8.1660    3.3860   28.8150 C   0  0  0  0  0  0  0  0  0  0  0  0
    7.6320    2.2950   28.1340 C   0  0  0  0  0  0  0  0  0  0  0  0
    6.6580    2.5100   27.2330 F   0  0  0  0  0  0  0  0  0  0  0  0
   10.7170   -0.8880   22.9080 N   0  0  0  0  0  0  0  0  0  0  0  0
   10.2590   -1.3540   21.6430 C   0  0  0  0  0  0  0  0  0  0  0  0
  1  2  1  0
  2  3  2  0
  2  4  1  0
  4  5  2  0
  5  6  1  0
  6  7  2  0
  7  8  1  0
  8  9  1  0
  9 10  1  0
 10 11  1  0
 11 12  1  0
 12 13  1  0
 13 14  1  0
 11 15  2  0
 15 16  1  0
 16 17  1  0
 17 18  2  0
 17 19  2  0
 17 20  1  0
 20 21  2  0
 21 22  1  0
 22 23  2  0
 23 24  1  0
 20 25  1  0
 24 25  2  0
 10 26  2  0
 16 26  1  0
 26 27  1  0
 27 28  2  0
 28 29  1  0
 29 30  2  0
 30 31  1  0
 27 32  1  0
 31 32  2  0
 32 33  1  0
  7 34  1  0
  4 35  1  0
 34 35  2  0
M  END
