MAK-UNK-a7992eb3-7-chloroacetamide
     RDKit          3D

 25 27  0  0  0  0  0  0  0  0999 V2000
    7.6380   -3.7310   20.5110 C   0  0  0  0  0  0  0  0  0  0  0  0
    6.4450   -4.6240   20.7350 C   0  0  0  0  0  0  0  0  0  0  0  0
    5.4740   -4.7240   19.9780 O   0  0  0  0  0  0  0  0  0  0  0  0
    6.4950   -5.3840   21.9000 N   0  0  0  0  0  0  0  0  0  0  0  0
    5.3770   -6.1520   22.3880 C   0  0  0  0  0  0  0  0  0  0  0  0
    4.6070   -5.5320   23.3460 C   0  0  0  0  0  0  0  0  0  0  0  0
    5.3710   -5.1400   24.4300 C   0  0  0  0  0  0  0  0  0  0  0  0
    4.7110   -4.5270   25.5110 C   0  0  0  0  0  0  0  0  0  0  0  0
    5.0970   -4.7370   26.6630 O   0  0  0  0  0  0  0  0  0  0  0  0
    3.6240   -3.6380   25.3460 N   0  0  0  0  0  0  0  0  0  0  0  0
    3.9500   -2.1850   25.4640 C   0  0  0  0  0  0  0  0  0  0  0  0
    2.4360   -2.0440   25.6040 C   0  0  0  0  0  0  0  0  0  0  0  0
    1.2810   -3.0380   25.6050 C   0  0  0  0  0  0  0  0  0  0  0  0
    0.9260   -1.5590   25.7750 C   0  0  0  0  0  0  0  0  0  0  0  0
    2.0560   -0.4720   25.7860 C   0  0  0  0  0  0  0  0  0  0  0  0
    3.5720   -0.8370   25.6270 C   0  0  0  0  0  0  0  0  0  0  0  0
    4.4430    0.0340   25.6410 O   0  0  0  0  0  0  0  0  0  0  0  0
    4.3670    1.1750   24.7730 C   0  0  0  0  0  0  0  0  0  0  0  0
    4.3010    0.6740   23.3940 C   0  0  0  0  0  0  0  0  0  0  0  0
    5.7390    1.5720   22.9370 S   0  0  0  0  0  0  0  0  0  0  0  0
    5.4200    2.7170   22.1180 O   0  0  0  0  0  0  0  0  0  0  0  0
    6.8730    0.7110   22.6860 O   0  0  0  0  0  0  0  0  0  0  0  0
    5.5460    1.9470   24.7340 C   0  0  0  0  0  0  0  0  0  0  0  0
    6.4340   -4.1620   23.8920 C   0  0  0  0  0  0  0  0  0  0  0  0
    7.2870   -4.8430   23.0160 C   0  0  0  0  0  0  0  0  0  0  0  0
  1  2  1  0
  2  3  2  0
  2  4  1  0
  4  5  1  0
  5  6  1  0
  6  7  1  0
  7  8  1  0
  8  9  2  0
  8 10  1  0
 10 11  1  0
 11 12  2  0
 12 13  1  0
 13 14  2  0
 14 15  1  0
 11 16  1  0
 15 16  2  0
 16 17  1  0
 17 18  1  0
 18 19  1  0
 20 19  1  0
 20 21  2  0
 20 22  2  0
 18 23  1  0
 20 23  1  0
  7 24  1  0
  4 25  1  0
 24 25  1  0
M  END
