MAK-UNK-6ca90168-16-nitrile
     RDKit          3D

 12 12  0  0  0  0  0  0  0  0999 V2000
    7.2410   -4.1530   20.3220 C   0  0  0  0  0  0  0  0  0  0  0  0
    6.1310   -4.7380   20.0880 N   0  0  0  0  0  0  0  0  0  0  0  0
    7.5620   -3.6610   21.5880 N   0  0  0  0  0  0  0  0  0  0  0  0
    6.4370   -3.7250   22.5360 C   0  0  0  0  0  0  0  0  0  0  0  0
    5.4780   -2.5700   22.2120 C   0  0  0  0  0  0  0  0  0  0  0  0
    6.0630   -1.7280   21.1560 N   0  0  0  0  0  0  0  0  0  0  0  0
    5.6770   -2.0000   19.8320 C   0  0  0  0  0  0  0  0  0  0  0  0
    4.9420   -2.9710   19.6100 O   0  0  0  0  0  0  0  0  0  0  0  0
    6.1540   -1.1690   18.7340 C   0  0  0  0  0  0  0  0  0  0  0  0
    5.4530    0.4600   18.8780 Cl  0  0  0  0  0  0  0  0  0  0  0  0
    7.4370   -1.2950   21.4590 C   0  0  0  0  0  0  0  0  0  0  0  0
    8.2920   -2.3800   21.7850 C   0  0  0  0  0  0  0  0  0  0  0  0
  1  2  2  3
  1  3  1  0
  3  4  1  0
  4  5  1  0
  5  6  1  0
  6  7  1  0
  7  8  2  0
  7  9  1  0
  9 10  1  0
  6 11  1  0
  3 12  1  0
 11 12  1  0
M  END
