MAK-UNK-212f693e-28
     RDKit          3D

 16 17  0  0  0  0  0  0  0  0999 V2000
    5.5320   -4.7280   19.8600 O   0  0  0  0  0  0  0  0  0  0  0  0
    6.2860   -4.3580   20.7560 C   0  0  0  0  0  0  0  0  0  0  0  0
    7.0260   -3.0960   20.6980 N   0  0  0  0  0  0  0  0  0  0  0  0
    8.6680   -3.1530   21.1460 S   0  0  0  0  0  0  0  0  0  0  0  0
    6.4890   -5.1280   21.8900 N   0  0  0  0  0  0  0  0  0  0  0  0
    7.1010   -4.5610   22.9580 C   0  0  0  0  0  0  0  0  0  0  0  0
    6.2750   -4.1380   24.1820 C   0  0  0  0  0  0  0  0  0  0  0  0
    5.2590   -5.2360   24.3960 C   0  0  0  0  0  0  0  0  0  0  0  0
    4.4700   -4.9230   25.5520 O   0  0  0  0  0  0  0  0  0  0  0  0
    3.5600   -3.8860   25.5680 C   0  0  0  0  0  0  0  0  0  0  0  0
    3.6830   -2.4820   25.6970 C   0  0  0  0  0  0  0  0  0  0  0  0
    2.5550   -1.6850   25.6880 C   0  0  0  0  0  0  0  0  0  0  0  0
    1.1560   -2.6130   25.5150 S   0  0  0  0  0  0  0  0  0  0  0  0
    2.1380   -4.0100   25.4570 C   0  0  0  0  0  0  0  0  0  0  0  0
    4.6210   -5.5310   23.1970 C   0  0  0  0  0  0  0  0  0  0  0  0
    5.5140   -6.0700   22.2550 C   0  0  0  0  0  0  0  0  0  0  0  0
  1  2  2  0
  2  3  1  0
  3  4  2  0
  2  5  1  0
  5  6  1  0
  6  7  1  0
  7  8  1  0
  8  9  1  0
  9 10  1  0
 10 11  1  0
 11 12  2  0
 12 13  1  0
 10 14  2  0
 13 14  1  0
  8 15  1  0
  5 16  1  0
 15 16  1  0
M  END
