MAK-UNK-148caf23-13-nitrile
     RDKit          3D

 34 37  0  0  0  0  0  0  0  0999 V2000
    8.2520   -3.3610   19.7890 C   0  0  0  0  0  0  0  0  0  0  0  0
    8.0450   -2.9080   18.4810 N   0  0  0  0  0  0  0  0  0  0  0  0
    8.9170   -2.4790   21.1490 C   0  0  0  0  0  0  0  0  0  0  0  0
    7.8140   -1.8080   22.0750 C   0  0  0  0  0  0  0  0  0  0  0  0
    8.9440   -1.2500   23.0460 C   0  0  0  0  0  0  0  0  0  0  0  0
   10.2920   -0.9100   23.6900 C   0  0  0  0  0  0  0  0  0  0  0  0
    9.0440   -0.3930   24.4210 N   0  0  0  0  0  0  0  0  0  0  0  0
    8.9320    0.0660   25.8290 C   0  0  0  0  0  0  0  0  0  0  0  0
    7.5690   -0.2640   26.5000 C   0  0  1  0  0  0  0  0  0  0  0  0
    7.5100   -0.9810   28.1450 S   0  0  0  0  0  0  0  0  0  0  0  0
    6.3130   -0.3520   28.6590 O   0  0  0  0  0  0  0  0  0  0  0  0
    8.7950   -0.7690   28.7710 O   0  0  0  0  0  0  0  0  0  0  0  0
    7.0810   -2.7050   28.2740 C   0  0  0  0  0  0  0  0  0  0  0  0
    8.1710   -3.7650   28.1570 C   0  0  0  0  0  0  0  0  0  0  0  0
    7.8670   -5.1410   28.2560 C   0  0  0  0  0  0  0  0  0  0  0  0
    6.5420   -5.5040   28.4690 C   0  0  0  0  0  0  0  0  0  0  0  0
    5.5140   -4.4830   28.5840 N   0  0  0  0  0  0  0  0  0  0  0  0
    5.7720   -3.1450   28.4890 C   0  0  0  0  0  0  0  0  0  0  0  0
    6.9460    1.1340   26.7110 C   0  0  0  0  0  0  0  0  0  0  0  0
    5.7430    1.2620   26.0120 C   0  0  0  0  0  0  0  0  0  0  0  0
    4.9800    2.4290   26.0280 C   0  0  0  0  0  0  0  0  0  0  0  0
    4.6960    2.8560   24.7620 N   0  0  0  0  0  0  0  0  0  0  0  0
    4.0270    2.0870   23.7190 C   0  0  0  0  0  0  0  0  0  0  0  0
    5.4830    0.0460   25.3240 C   0  0  0  0  0  0  0  0  0  0  0  0
    6.5000   -0.8670   25.5640 C   0  0  0  0  0  0  0  0  0  0  0  0
    6.4340   -2.1420   24.9530 C   0  0  0  0  0  0  0  0  0  0  0  0
    5.4710   -2.6290   24.0020 C   0  0  0  0  0  0  0  0  0  0  0  0
    5.5090   -4.0010   23.4260 C   0  0  0  0  0  0  0  0  0  0  0  0
    6.6200   -4.9420   23.8590 C   0  0  0  0  0  0  0  0  0  0  0  0
    7.5460   -4.4630   24.7790 C   0  0  0  0  0  0  0  0  0  0  0  0
    7.4450   -3.0480   25.3240 C   0  0  0  0  0  0  0  0  0  0  0  0
    8.3600   -2.6360   26.2030 F   0  0  0  0  0  0  0  0  0  0  0  0
   10.9120   -1.5730   22.6900 N   0  0  0  0  0  0  0  0  0  0  0  0
   10.3260   -2.2620   21.5850 C   0  0  0  0  0  0  0  0  0  0  0  0
  1  2  2  3
  1  3  1  0
  3  4  2  0
  4  5  1  0
  5  6  2  0
  6  7  1  0
  7  8  1  0
  9  8  1  6
  9 10  1  0
 10 11  2  0
 10 12  2  0
 10 13  1  0
 13 14  2  0
 14 15  1  0
 15 16  2  0
 16 17  1  0
 13 18  1  0
 17 18  2  0
  9 19  1  0
 19 20  2  0
 20 21  1  0
 21 22  1  0
 22 23  1  0
 20 24  1  0
  9 25  1  0
 24 25  2  0
 25 26  1  0
 26 27  2  0
 27 28  1  0
 28 29  2  0
 29 30  1  0
 26 31  1  0
 30 31  2  0
 31 32  1  0
  6 33  1  0
  3 34  1  0
 33 34  2  0
M  END
