MAK-UNK-c44f4be0-10
     RDKit          3D

 32 33  0  0  0  0  0  0  0  0999 V2000
    8.3650    7.1170   21.7690 C   0  0  0  0  0  0  0  0  0  0  0  0
    8.0790    7.2480   23.5090 S   0  0  0  0  0  0  0  0  0  0  0  0
    7.0390    8.2240   23.7160 O   0  0  0  0  0  0  0  0  0  0  0  0
    9.3470    7.2490   24.2040 O   0  0  0  0  0  0  0  0  0  0  0  0
    7.3750    5.7510   23.7650 N   0  0  0  0  0  0  0  0  0  0  0  0
    7.3360    4.8380   22.5870 C   0  0  2  0  0  0  0  0  0  0  0  0
    6.2180    5.1980   21.6080 C   0  0  0  0  0  0  0  0  0  0  0  0
    4.8710    5.6880   22.1080 C   0  0  0  0  0  0  0  0  0  0  0  0
    4.7700    6.4660   23.2920 C   0  0  0  0  0  0  0  0  0  0  0  0
    3.5110    6.8990   23.7130 C   0  0  0  0  0  0  0  0  0  0  0  0
    2.3610    6.5930   23.0140 C   0  0  0  0  0  0  0  0  0  0  0  0
    2.4410    5.8390   21.8640 C   0  0  0  0  0  0  0  0  0  0  0  0
    3.6770    5.3760   21.3910 C   0  0  0  0  0  0  0  0  0  0  0  0
    7.0950    3.4120   23.1050 C   0  0  0  0  0  0  0  0  0  0  0  0
    6.0460    3.1220   24.0390 O   0  0  0  0  0  0  0  0  0  0  0  0
    7.9510    2.4770   22.6000 N   0  0  0  0  0  0  0  0  0  0  0  0
    7.7040    1.1850   22.9020 C   0  0  1  0  0  0  0  0  0  0  0  0
    6.4990    0.5810   22.4680 C   0  0  0  0  0  0  0  0  0  0  0  0
    6.2640    0.6140   21.0980 C   0  0  0  0  0  0  0  0  0  0  0  0
    5.3610    1.5070   20.5300 C   0  0  0  0  0  0  0  0  0  0  0  0
    5.1410    1.5290   19.1770 C   0  0  0  0  0  0  0  0  0  0  0  0
    5.8380    0.6410   18.3870 C   0  0  0  0  0  0  0  0  0  0  0  0
    5.6310    0.6520   17.0700 O   0  0  0  0  0  0  0  0  0  0  0  0
    6.7830   -0.3160   18.8620 C   0  0  0  0  0  0  0  0  0  0  0  0
    6.9730   -0.2990   20.2440 C   0  0  0  0  0  0  0  0  0  0  0  0
    8.8660    0.4790   22.5050 C   0  0  0  0  0  0  0  0  0  0  0  0
    9.8150    1.0320   21.9630 O   0  0  0  0  0  0  0  0  0  0  0  0
    8.8510   -0.9410   22.8010 N   0  0  0  0  0  0  0  0  0  0  0  0
    9.6350   -1.8310   22.0960 C   0  0  0  0  0  0  0  0  0  0  0  0
   11.0810   -1.4320   22.0080 C   0  0  0  0  0  0  0  0  0  0  0  0
   12.0720   -1.8020   23.0600 C   0  0  0  0  0  0  0  0  0  0  0  0
   13.2900   -2.2920   24.4250 Br  0  0  0  0  0  0  0  0  0  0  0  0
  1  2  1  0
  2  3  2  0
  2  4  2  0
  2  5  1  0
  5  6  1  0
  6  7  1  6
  7  8  1  0
  8  9  2  0
  9 10  1  0
 10 11  2  0
 11 12  1  0
  8 13  1  0
 12 13  2  0
  6 14  1  0
 14 15  2  0
 14 16  1  0
 16 17  1  0
 17 18  1  6
 18 19  1  0
 19 20  2  0
 20 21  1  0
 21 22  2  0
 22 23  1  0
 22 24  1  0
 19 25  1  0
 24 25  2  0
 17 26  1  0
 26 27  2  0
 26 28  1  0
 28 29  1  0
 29 30  1  0
 30 31  3  0
 31 32  1  0
M  END
