MAK-UNK-72659d64-5-vinylsulfonamide
     RDKit          3D

 15 15  0  0  0  0  0  0  0  0999 V2000
    7.5030   -2.9490   18.6510 C   0  0  0  0  0  0  0  0  0  0  0  0
    7.4210   -2.5230   20.0950 C   0  0  0  0  0  0  0  0  0  0  0  0
    5.9450   -3.1760   20.8120 S   0  0  0  0  0  0  0  0  0  0  0  0
    4.8770   -3.3300   19.8650 O   0  0  0  0  0  0  0  0  0  0  0  0
    5.7170   -2.4040   22.0120 O   0  0  0  0  0  0  0  0  0  0  0  0
    6.2890   -4.7580   21.3010 N   0  0  0  0  0  0  0  0  0  0  0  0
    7.4950   -5.0750   21.3960 C   0  0  0  0  0  0  0  0  0  0  0  0
    5.7590   -4.9920   22.4810 C   0  0  0  0  0  0  0  0  0  0  0  0
    6.5430   -4.2860   23.6220 C   0  0  0  0  0  0  0  0  0  0  0  0
    5.9880   -4.5030   24.9910 C   0  0  0  0  0  0  0  0  0  0  0  0
    5.2910   -5.1410   23.9670 N   0  0  0  0  0  0  0  0  0  0  0  0
    4.2260   -5.9330   23.7740 C   0  0  0  0  0  0  0  0  0  0  0  0
    3.3230   -6.6790   23.0060 C   0  0  0  0  0  0  0  0  0  0  0  0
    1.9270   -6.2600   23.2490 N   0  0  0  0  0  0  0  0  0  0  0  0
    4.6380   -5.7740   22.6590 N   0  0  0  0  0  0  0  0  0  0  0  0
  1  2  1  0
  2  3  1  0
  3  4  2  0
  3  5  2  0
  3  6  1  0
  6  7  1  0
  6  8  1  0
  8  9  2  0
  9 10  1  0
 10 11  2  0
 11 12  1  0
 12 13  1  0
 13 14  3  0
  8 15  1  0
 12 15  2  0
M  END
