MAK-UNK-8fdbca50-12-vinylsulfonamide
     RDKit          3D

 41 44  0  0  0  0  0  0  0  0999 V2000
    6.7280   -5.5630   20.1110 C   0  0  0  0  0  0  0  0  0  0  0  0
    6.9720   -4.2570   20.8180 C   0  0  0  0  0  0  0  0  0  0  0  0
    5.3970   -3.4990   20.8220 S   0  0  0  0  0  0  0  0  0  0  0  0
    4.8100   -3.6160   19.5110 O   0  0  0  0  0  0  0  0  0  0  0  0
    4.6320   -4.0360   21.9130 O   0  0  0  0  0  0  0  0  0  0  0  0
    5.6270   -1.9250   21.2400 N   0  0  0  0  0  0  0  0  0  0  0  0
    6.1170   -1.5560   22.4500 C   0  0  0  0  0  0  0  0  0  0  0  0
    7.6220   -1.8370   22.5690 C   0  0  0  0  0  0  0  0  0  0  0  0
    8.3420   -1.3690   21.3060 C   0  0  0  0  0  0  0  0  0  0  0  0
    9.4710   -0.4590   21.8650 C   0  0  0  0  0  0  0  0  0  0  0  0
    9.5440    0.7550   21.5870 O   0  0  0  0  0  0  0  0  0  0  0  0
   10.3910   -1.1460   22.7100 N   0  0  0  0  0  0  0  0  0  0  0  0
   10.4410   -2.5750   22.3680 C   0  0  0  0  0  0  0  0  0  0  0  0
   11.6870   -0.7080   23.1920 C   0  0  2  0  0  0  0  0  0  0  0  0
   12.1820   -0.0640   24.4060 C   0  0  0  0  0  0  0  0  0  0  0  0
   12.2110    0.6780   22.8920 C   0  0  0  0  0  0  0  0  0  0  0  0
   11.1060    0.9240   23.9120 C   0  0  0  0  0  0  0  0  0  0  0  0
   11.4210    2.2610   23.6550 C   0  0  0  0  0  0  0  0  0  0  0  0
   12.0970    1.2270   22.9970 C   0  0  0  0  0  0  0  0  0  0  0  0
   11.8930   -0.1920   23.1880 C   0  0  0  0  0  0  0  0  0  0  0  0
   11.0330   -0.9630   24.0590 C   0  0  0  0  0  0  0  0  0  0  0  0
   11.6940   -2.2450   24.2410 C   0  0  0  0  0  0  0  0  0  0  0  0
   10.6830   -2.6820   25.0670 C   0  0  0  0  0  0  0  0  0  0  0  0
   10.7080   -3.9360   25.6490 C   0  0  0  0  0  0  0  0  0  0  0  0
   12.1120   -4.1050   26.0730 N   0  0  0  0  0  0  0  0  0  0  0  0
   13.0740   -3.2000   25.5240 C   0  0  0  0  0  0  0  0  0  0  0  0
    9.6020   -1.9500   25.3900 C   0  0  0  0  0  0  0  0  0  0  0  0
    9.7560   -0.7810   24.7750 N   0  0  0  0  0  0  0  0  0  0  0  0
    8.5730    0.4960   24.9650 S   0  0  0  0  0  0  0  0  0  0  0  0
    9.1170    1.7680   24.5100 O   0  0  0  0  0  0  0  0  0  0  0  0
    8.0860    0.4540   26.3410 O   0  0  0  0  0  0  0  0  0  0  0  0
    7.2030    0.2120   23.9130 C   0  0  0  0  0  0  0  0  0  0  0  0
    8.1140    1.0100   23.3540 C   0  0  0  0  0  0  0  0  0  0  0  0
    9.2950    1.2280   24.3370 C   0  0  0  0  0  0  0  0  0  0  0  0
    8.9270    0.3820   25.6650 C   0  0  0  0  0  0  0  0  0  0  0  0
    7.8050   -0.4080   25.9610 N   0  0  0  0  0  0  0  0  0  0  0  0
    6.8870   -0.4900   25.0030 C   0  0  0  0  0  0  0  0  0  0  0  0
   12.8480   -0.4210   22.2600 C   0  0  0  0  0  0  0  0  0  0  0  0
   12.8380   -1.7610   22.2200 F   0  0  0  0  0  0  0  0  0  0  0  0
    7.4620   -0.5860   20.2710 C   0  0  0  0  0  0  0  0  0  0  0  0
    6.0090   -1.0480   20.1670 C   0  0  0  0  0  0  0  0  0  0  0  0
  1  2  1  0
  3  2  1  0
  3  4  2  0
  3  5  2  0
  3  6  1  0
  6  7  1  0
  7  8  1  0
  8  9  1  0
  9 10  1  0
 10 11  2  0
 10 12  1  0
 12 13  1  0
 12 14  1  0
 14 15  1  1
 14 16  1  0
 16 17  2  0
 17 18  1  0
 18 19  2  0
 19 20  1  0
 20 21  1  0
 21 22  2  0
 22 23  1  0
 23 24  1  0
 24 25  1  0
 25 26  1  0
 23 27  2  0
 21 28  1  0
 27 28  1  0
 28 29  1  0
 29 30  2  0
 29 31  2  0
 29 32  1  0
 32 33  2  0
 33 34  1  0
 34 35  2  0
 35 36  1  0
 32 37  1  0
 36 37  2  0
 16 38  1  0
 20 38  2  0
 38 39  1  0
  9 40  1  0
  6 41  1  0
 40 41  1  0
M  END
