MAK-UNK-af83ef51-29-acrylamide
     RDKit          3D

 30 33  0  0  0  0  0  0  0  0999 V2000
    7.8180   -3.2210   19.4280 C   0  0  0  0  0  0  0  0  0  0  0  0
    6.6230   -2.2930   19.3720 C   0  0  0  0  0  0  0  0  0  0  0  0
    5.3980   -2.8570   20.0410 C   0  0  0  0  0  0  0  0  0  0  0  0
    4.7210   -3.6500   19.4010 O   0  0  0  0  0  0  0  0  0  0  0  0
    5.1830   -2.4200   21.3400 N   0  0  0  0  0  0  0  0  0  0  0  0
    5.0070   -3.1920   22.5110 C   0  0  0  0  0  0  0  0  0  0  0  0
    5.8960   -3.0530   23.5820 C   0  0  0  0  0  0  0  0  0  0  0  0
    6.1980   -1.6350   23.9620 N   0  0  0  0  0  0  0  0  0  0  0  0
    7.4110   -1.4950   24.8050 C   0  0  0  0  0  0  0  0  0  0  0  0
    8.5110   -1.1350   24.0350 C   0  0  0  0  0  0  0  0  0  0  0  0
    9.2500   -2.1350   23.2000 C   0  0  0  0  0  0  0  0  0  0  0  0
    8.7240   -3.5520   23.3150 C   0  0  0  0  0  0  0  0  0  0  0  0
   10.3160   -1.7120   22.3980 C   0  0  0  0  0  0  0  0  0  0  0  0
   10.8250   -0.3400   22.2550 N   0  0  0  0  0  0  0  0  0  0  0  0
   10.0480    0.5580   23.1180 C   0  0  0  0  0  0  0  0  0  0  0  0
   10.2660    1.9660   23.2190 C   0  0  0  0  0  0  0  0  0  0  0  0
   11.1040    3.0330   22.6310 C   0  0  0  0  0  0  0  0  0  0  0  0
   12.4600    2.5220   22.8660 C   0  0  0  0  0  0  0  0  0  0  0  0
   12.3460    1.2740   23.5460 C   0  0  0  0  0  0  0  0  0  0  0  0
   10.9650    0.9190   23.7930 C   0  0  0  0  0  0  0  0  0  0  0  0
   10.9600   -0.3680   24.5110 N   0  0  0  0  0  0  0  0  0  0  0  0
   12.1590   -1.0640   24.6150 C   0  0  0  0  0  0  0  0  0  0  0  0
   12.0770   -2.5470   24.3750 C   0  0  0  0  0  0  0  0  0  0  0  0
    9.8530    1.7430   23.3740 N   0  0  0  0  0  0  0  0  0  0  0  0
    9.7620    3.0370   22.6660 C   0  0  0  0  0  0  0  0  0  0  0  0
    9.2490    2.4140   24.2180 N   0  0  0  0  0  0  0  0  0  0  0  0
    8.5580    1.3370   24.5850 C   0  0  0  0  0  0  0  0  0  0  0  0
    8.9680    0.1940   23.9620 N   0  0  0  0  0  0  0  0  0  0  0  0
    6.3800   -0.7990   22.7510 C   0  0  0  0  0  0  0  0  0  0  0  0
    5.3510   -1.0000   21.6280 C   0  0  0  0  0  0  0  0  0  0  0  0
  1  2  1  0
  2  3  1  0
  3  4  2  0
  3  5  1  0
  5  6  1  0
  6  7  1  0
  7  8  1  0
  8  9  1  0
  9 10  1  0
 10 11  2  0
 11 12  1  0
 11 13  1  0
 13 14  2  0
 14 15  1  0
 15 16  2  0
 16 17  1  0
 17 18  2  0
 18 19  1  0
 19 20  2  0
 20 21  1  0
 21 22  1  0
 22 23  1  0
 20 24  1  0
 17 25  1  0
 24 25  2  0
 16 26  1  0
 26 27  2  0
 10 28  1  0
 15 28  1  0
 27 28  1  0
  8 29  1  0
  5 30  1  0
 29 30  1  0
M  END
