MAK-UNK-90d0606b-8-nitrile
     RDKit          3D

 21 23  0  0  0  0  0  0  0  0999 V2000
    6.7240   -4.0660   20.1280 C   0  0  0  0  0  0  0  0  0  0  0  0
    5.7180   -3.6050   19.4800 N   0  0  0  0  0  0  0  0  0  0  0  0
    7.5030   -3.3360   20.9990 N   0  0  0  0  0  0  0  0  0  0  0  0
    7.6250   -3.6500   22.4500 C   0  0  0  0  0  0  0  0  0  0  0  0
    7.6100   -2.2580   23.0870 C   0  0  2  0  0  0  0  0  0  0  0  0
    6.8690   -1.4520   22.0590 C   0  0  0  0  0  0  0  0  0  0  0  0
    7.7360   -1.8560   20.9380 C   0  0  1  0  0  0  0  0  0  0  0  0
    9.0190   -1.5930   21.4240 C   0  0  0  0  0  0  0  0  0  0  0  0
    9.0250   -1.5630   22.8400 C   0  0  2  0  0  0  0  0  0  0  0  0
   10.0640   -2.2930   23.4340 C   0  0  0  0  0  0  0  0  0  0  0  0
    9.9360   -3.5030   23.5780 O   0  0  0  0  0  0  0  0  0  0  0  0
   11.2850   -1.4650   23.8690 N   0  0  0  0  0  0  0  0  0  0  0  0
   11.1540    0.0150   24.0950 C   0  0  0  0  0  0  0  0  0  0  0  0
   12.0740   -0.1310   23.0630 C   0  0  0  0  0  0  0  0  0  0  0  0
   12.3350   -1.4710   22.8150 C   0  0  0  0  0  0  0  0  0  0  0  0
   11.5580   -2.4630   23.7370 C   0  0  0  0  0  0  0  0  0  0  0  0
   10.5320   -2.0700   24.8670 C   0  0  0  0  0  0  0  0  0  0  0  0
    9.8280   -3.1820   25.7060 C   0  0  0  0  0  0  0  0  0  0  0  0
   10.6320   -4.4410   26.0930 C   0  0  0  0  0  0  0  0  0  0  0  0
    8.6500   -3.0660   26.0570 O   0  0  0  0  0  0  0  0  0  0  0  0
   10.3610   -0.6630   24.9980 C   0  0  0  0  0  0  0  0  0  0  0  0
  1  2  2  3
  1  3  1  0
  3  4  1  0
  5  4  1  6
  5  6  1  0
  3  7  1  0
  6  7  1  0
  7  8  1  1
  5  9  1  0
  8  9  1  0
  9 10  1  1
 10 11  2  0
 10 12  1  0
 12 13  1  0
 13 14  2  0
 14 15  1  0
 15 16  2  0
 16 17  1  0
 17 18  1  0
 18 19  1  0
 18 20  2  0
 13 21  1  0
 17 21  2  0
M  END
