MAK-UNK-1bb0b7ee-4
     RDKit          3D

 27 30  0  0  0  0  0  0  0  0999 V2000
    5.9670   -6.7100   22.7820 C   0  0  0  0  0  0  0  0  0  0  0  0
    5.4180   -5.3900   22.2980 C   0  0  1  0  0  0  0  0  0  0  0  0
    4.7580   -4.6160   23.4240 C   0  0  1  0  0  0  0  0  0  0  0  0
    4.8010   -5.3780   24.6440 O   0  0  0  0  0  0  0  0  0  0  0  0
    4.5670   -4.7530   25.9410 C   0  0  0  0  0  0  0  0  0  0  0  0
    3.8740   -3.5230   25.9640 C   0  0  0  0  0  0  0  0  0  0  0  0
    4.5790   -2.3570   25.6590 C   0  0  0  0  0  0  0  0  0  0  0  0
    6.0480   -2.3210   25.9780 C   0  0  0  0  0  0  0  0  0  0  0  0
    6.8070   -1.1710   25.6900 C   0  0  0  0  0  0  0  0  0  0  0  0
    6.0550   -0.0180   25.0570 C   0  0  0  0  0  0  0  0  0  0  0  0
    4.5700   -0.1890   24.7920 C   0  0  0  0  0  0  0  0  0  0  0  0
    3.8900   -1.3160   25.0920 N   0  0  0  0  0  0  0  0  0  0  0  0
    2.5890   -3.6310   25.1200 C   0  0  0  0  0  0  0  0  0  0  0  0
    1.7280   -2.4940   25.6200 C   0  0  0  0  0  0  0  0  0  0  0  0
    2.1710   -2.2170   27.0420 C   0  0  0  0  0  0  0  0  0  0  0  0
    3.1890   -3.3060   27.3290 C   0  0  0  0  0  0  0  0  0  0  0  0
    5.4810   -3.2800   23.6060 C   0  0  0  0  0  0  0  0  0  0  0  0
    6.8630   -3.4300   23.7140 C   0  0  0  0  0  0  0  0  0  0  0  0
    7.5110   -4.2680   22.6290 C   0  0  0  0  0  0  0  0  0  0  0  0
    6.5270   -4.6700   21.6350 N   0  0  0  0  0  0  0  0  0  0  0  0
    6.1100   -3.6100   20.7070 C   0  0  0  0  0  0  0  0  0  0  0  0
    6.6180   -2.2210   21.0700 C   0  0  0  0  0  0  0  0  0  0  0  0
    8.1350   -2.3270   21.0280 C   0  0  0  0  0  0  0  0  0  0  0  0
    8.8400   -0.9980   21.3820 C   0  0  0  0  0  0  0  0  0  0  0  0
    7.9950    0.2950   21.7300 C   0  0  0  0  0  0  0  0  0  0  0  0
    6.4590    0.2350   21.7230 C   0  0  0  0  0  0  0  0  0  0  0  0
    5.8450   -1.1100   21.3700 C   0  0  0  0  0  0  0  0  0  0  0  0
  2  1  1  1
  2  3  1  0
  3  4  1  1
  4  5  1  0
  6  5  1  0
  6  7  1  0
  7  8  2  0
  8  9  1  0
  9 10  2  0
 10 11  1  0
  7 12  1  0
 11 12  2  0
  6 13  1  0
 13 14  1  0
 14 15  1  0
  6 16  1  0
 15 16  1  0
  3 17  1  0
 17 18  1  0
 18 19  1  0
  2 20  1  0
 19 20  1  0
 20 21  1  0
 21 22  1  0
 22 23  2  0
 23 24  1  0
 24 25  2  0
 25 26  1  0
 22 27  1  0
 26 27  2  0
M  END
