MAK-UNK-5e88aa6a-11
     RDKit          3D

 12 12  0  0  0  0  0  0  0  0999 V2000
   13.1100   -0.3100   23.2200 C   0  0  0  0  0  0  0  0  0  0  0  0
   11.7420   -0.2600   23.8650 C   0  0  0  0  0  0  0  0  0  0  0  0
   10.8630   -1.1730   23.2720 C   0  0  0  0  0  0  0  0  0  0  0  0
    9.6390   -1.4480   23.9140 C   0  0  2  0  0  0  0  0  0  0  0  0
    9.4340   -0.4990   24.9410 O   0  0  0  0  0  0  0  0  0  0  0  0
    9.4510   -2.8180   24.4090 N   0  0  0  0  0  0  0  0  0  0  0  0
    8.1770   -3.0300   25.1150 C   0  0  0  0  0  0  0  0  0  0  0  0
    8.0450   -4.2750   25.7250 C   0  0  0  0  0  0  0  0  0  0  0  0
    9.1520   -4.8070   26.3700 C   0  0  0  0  0  0  0  0  0  0  0  0
    9.1260   -4.4110   27.7360 O   0  0  0  0  0  0  0  0  0  0  0  0
   10.4090   -4.4990   25.8600 C   0  0  0  0  0  0  0  0  0  0  0  0
   10.6290   -3.3180   25.1310 C   0  0  0  0  0  0  0  0  0  0  0  0
  1  2  1  0
  2  3  1  0
  3  4  1  0
  4  5  1  1
  4  6  1  0
  6  7  1  0
  7  8  1  0
  8  9  1  0
  9 10  1  0
  9 11  1  0
  6 12  1  0
 11 12  1  0
M  END
