MAK-UNK-849bee6c-6-vinylsulfonamide
     RDKit          3D

 26 28  0  0  0  0  0  0  0  0999 V2000
    8.0220   -3.4810   19.6900 C   0  0  0  0  0  0  0  0  0  0  0  0
    6.9070   -2.7160   19.0820 C   0  0  0  0  0  0  0  0  0  0  0  0
    5.6780   -3.3220   20.1200 S   0  0  0  0  0  0  0  0  0  0  0  0
    4.4440   -3.0900   19.5090 O   0  0  0  0  0  0  0  0  0  0  0  0
    5.9810   -4.6720   20.4890 O   0  0  0  0  0  0  0  0  0  0  0  0
    5.9870   -2.3200   21.4550 N   0  0  0  0  0  0  0  0  0  0  0  0
    6.9850   -1.2540   21.2490 C   0  0  0  0  0  0  0  0  0  0  0  0
    8.3630   -1.5960   21.8510 C   0  0  0  0  0  0  0  0  0  0  0  0
    8.2790   -2.2390   23.1650 N   0  0  0  0  0  0  0  0  0  0  0  0
    9.3770   -2.3890   23.9910 C   0  0  0  0  0  0  0  0  0  0  0  0
   10.4880   -1.3760   23.7040 C   0  0  0  0  0  0  0  0  0  0  0  0
   11.7980   -1.9830   23.2850 C   0  0  0  0  0  0  0  0  0  0  0  0
   12.9010   -0.9830   22.9950 C   0  0  0  0  0  0  0  0  0  0  0  0
   12.6270    0.5050   23.1380 C   0  0  0  0  0  0  0  0  0  0  0  0
   11.2310    0.9280   23.5740 C   0  0  0  0  0  0  0  0  0  0  0  0
   10.9100    2.4030   23.7250 C   0  0  0  0  0  0  0  0  0  0  0  0
    9.6910    2.9110   24.4770 C   0  0  0  0  0  0  0  0  0  0  0  0
    9.4780    4.2870   24.5600 C   0  0  0  0  0  0  0  0  0  0  0  0
   10.3880    5.1790   23.9470 N   0  0  0  0  0  0  0  0  0  0  0  0
   11.5020    4.5660   23.2620 C   0  0  0  0  0  0  0  0  0  0  0  0
   12.4020    5.6110   22.6530 C   0  0  0  0  0  0  0  0  0  0  0  0
   13.1160    6.3940   22.1880 N   0  0  0  0  0  0  0  0  0  0  0  0
   11.7790    3.2550   23.1380 N   0  0  0  0  0  0  0  0  0  0  0  0
   10.2560   -0.0170   23.8320 C   0  0  0  0  0  0  0  0  0  0  0  0
    7.4940   -3.3410   23.1630 C   0  0  0  0  0  0  0  0  0  0  0  0
    6.0610   -2.9990   22.7420 C   0  0  0  0  0  0  0  0  0  0  0  0
  1  2  1  0
  3  2  1  0
  3  4  2  0
  3  5  2  0
  3  6  1  0
  6  7  1  0
  7  8  1  0
  8  9  1  0
  9 10  1  0
 10 11  1  0
 11 12  2  0
 12 13  1  0
 13 14  2  0
 14 15  1  0
 15 16  1  0
 16 17  2  0
 17 18  1  0
 18 19  2  0
 19 20  1  0
 20 21  1  0
 21 22  3  0
 16 23  1  0
 20 23  2  0
 11 24  1  0
 15 24  2  0
  9 25  1  0
  6 26  1  0
 25 26  1  0
M  END
