MAK-UNK-8fdbca50-21-nitrile
     RDKit          3D

 38 41  0  0  0  0  0  0  0  0999 V2000
    6.8390   -3.0290   20.3020 C   0  0  0  0  0  0  0  0  0  0  0  0
    6.0970   -2.8270   19.2150 N   0  0  0  0  0  0  0  0  0  0  0  0
    7.4530   -2.1850   21.3040 N   0  0  0  0  0  0  0  0  0  0  0  0
    7.6100   -2.5150   22.8010 C   0  0  0  0  0  0  0  0  0  0  0  0
    9.1410   -2.4090   23.3620 C   0  0  0  0  0  0  0  0  0  0  0  0
   10.0560   -2.3080   22.1050 C   0  0  0  0  0  0  0  0  0  0  0  0
   11.6490   -2.7590   22.4030 C   0  0  0  0  0  0  0  0  0  0  0  0
   12.1870   -2.4770   23.4810 O   0  0  0  0  0  0  0  0  0  0  0  0
   12.3280   -3.4760   21.3040 N   0  0  0  0  0  0  0  0  0  0  0  0
   13.3190   -4.5480   20.7410 C   0  0  0  0  0  0  0  0  0  0  0  0
   14.3670   -3.8040   20.1620 C   0  0  0  0  0  0  0  0  0  0  0  0
   15.5520   -4.5190   19.6290 C   0  0  0  0  0  0  0  0  0  0  0  0
   15.7510   -5.6400   19.6250 N   0  0  0  0  0  0  0  0  0  0  0  0
   14.8170   -6.2820   20.0710 C   0  0  0  0  0  0  0  0  0  0  0  0
   13.3740   -6.2240   20.6850 C   0  0  0  0  0  0  0  0  0  0  0  0
   12.0700   -8.0930   21.2710 S   0  0  0  0  0  0  0  0  0  0  0  0
   10.8920   -7.9420   22.0400 O   0  0  0  0  0  0  0  0  0  0  0  0
   10.8330   -8.2590   20.5570 O   0  0  0  0  0  0  0  0  0  0  0  0
   13.2800  -10.9880   21.8380 N   0  0  0  0  0  0  0  0  0  0  0  0
   12.7970  -12.2410   20.8140 C   0  0  0  0  0  0  0  0  0  0  0  0
   13.1950  -13.2780   20.9690 C   0  0  0  0  0  0  0  0  0  0  0  0
   12.7500  -14.2190   20.2130 C   0  0  0  0  0  0  0  0  0  0  0  0
   12.6360  -14.8760   21.3380 N   0  0  0  0  0  0  0  0  0  0  0  0
   11.6130  -14.3500   21.9550 C   0  0  0  0  0  0  0  0  0  0  0  0
   13.9840  -13.1800   21.8380 C   0  0  0  0  0  0  0  0  0  0  0  0
   14.2410  -12.1060   22.2630 C   0  0  0  0  0  0  0  0  0  0  0  0
   15.5880  -12.3950   22.7980 C   0  0  0  0  0  0  0  0  0  0  0  0
   15.6380  -12.7900   23.6420 C   0  0  0  0  0  0  0  0  0  0  0  0
   16.7360  -13.0180   24.2360 C   0  0  0  0  0  0  0  0  0  0  0  0
   17.8230  -12.8780   23.8200 C   0  0  0  0  0  0  0  0  0  0  0  0
   17.8410  -12.5150   22.7040 C   0  0  0  0  0  0  0  0  0  0  0  0
   16.9750  -12.2640   22.2480 C   0  0  0  0  0  0  0  0  0  0  0  0
   17.7430  -11.8900   21.1810 F   0  0  0  0  0  0  0  0  0  0  0  0
   12.3030   -2.6810   20.4100 C   0  0  0  0  0  0  0  0  0  0  0  0
   13.5510   -1.8730   20.7280 C   0  0  0  0  0  0  0  0  0  0  0  0
   12.2620   -4.0770   19.7150 C   0  0  0  0  0  0  0  0  0  0  0  0
    9.6360   -0.9290   21.6520 C   0  0  0  0  0  0  0  0  0  0  0  0
    8.2170   -0.9640   20.9620 C   0  0  0  0  0  0  0  0  0  0  0  0
  1  2  2  3
  1  3  1  0
  3  4  1  0
  4  5  1  0
  5  6  1  0
  6  7  1  0
  7  8  2  0
  7  9  1  0
  9 10  1  0
 10 11  2  0
 11 12  1  0
 12 13  2  0
 13 14  1  0
 10 15  1  0
 14 15  2  0
 16 15  1  0
 16 17  2  0
 16 18  2  0
 16 19  1  0
 19 20  1  0
 20 21  2  0
 21 22  1  0
 22 23  1  0
 23 24  1  0
 21 25  1  0
 19 26  1  0
 25 26  2  0
 26 27  1  0
 27 28  2  0
 28 29  1  0
 29 30  2  0
 30 31  1  0
 27 32  1  0
 31 32  2  0
 32 33  1  0
  9 34  1  0
 34 35  1  0
 34 36  1  0
  6 37  1  0
  3 38  1  0
 37 38  1  0
M  END
