MAK-UNK-d4768348-3-nitrile
     RDKit          3D

 16 17  0  0  0  0  0  0  0  0999 V2000
    6.3750   -4.5970   20.3640 C   0  0  0  0  0  0  0  0  0  0  0  0
    5.2570   -4.3510   19.8540 N   0  0  0  0  0  0  0  0  0  0  0  0
    6.5760   -5.0660   21.6320 N   0  0  0  0  0  0  0  0  0  0  0  0
    7.3080   -4.3330   22.6560 C   0  0  0  0  0  0  0  0  0  0  0  0
    6.3960   -4.0180   23.8450 C   0  0  0  0  0  0  0  0  0  0  0  0
    5.4370   -5.0900   24.1430 N   0  0  0  0  0  0  0  0  0  0  0  0
    4.7170   -5.1020   25.6800 S   0  0  0  0  0  0  0  0  0  0  0  0
    4.0100   -6.3510   25.8310 O   0  0  0  0  0  0  0  0  0  0  0  0
    5.7120   -4.6840   26.6370 O   0  0  0  0  0  0  0  0  0  0  0  0
    3.4640   -3.8470   25.6410 C   0  0  0  0  0  0  0  0  0  0  0  0
    3.6990   -2.4120   25.9530 N   0  0  0  0  0  0  0  0  0  0  0  0
    2.6010   -1.5460   25.9030 C   0  0  0  0  0  0  0  0  0  0  0  0
    1.3250   -2.5810   25.4800 S   0  0  0  0  0  0  0  0  0  0  0  0
    2.0060   -4.1040   25.3150 C   0  0  0  0  0  0  0  0  0  0  0  0
    4.8380   -5.6080   23.0880 C   0  0  0  0  0  0  0  0  0  0  0  0
    5.7620   -6.0500   22.0940 C   0  0  0  0  0  0  0  0  0  0  0  0
  1  2  2  3
  1  3  1  0
  3  4  1  0
  4  5  1  0
  5  6  1  0
  6  7  1  0
  7  8  2  0
  7  9  2  0
  7 10  1  0
 10 11  2  0
 11 12  1  0
 12 13  1  0
 10 14  1  0
 13 14  2  0
  6 15  1  0
  3 16  1  0
 15 16  1  0
M  END
