MAK-UNK-5d2caa6f-1-acrylamide
     RDKit          3D

 20 22  0  0  0  0  0  0  0  0999 V2000
    7.7620   -2.7210   18.6520 C   0  0  0  0  0  0  0  0  0  0  0  0
    6.2650   -2.8700   18.8550 C   0  0  0  0  0  0  0  0  0  0  0  0
    5.8700   -3.5240   20.1210 C   0  0  0  0  0  0  0  0  0  0  0  0
    5.2300   -4.5680   20.0720 O   0  0  0  0  0  0  0  0  0  0  0  0
    6.2440   -2.9010   21.2870 N   0  0  0  0  0  0  0  0  0  0  0  0
    7.1530   -1.7530   21.3120 C   0  0  0  0  0  0  0  0  0  0  0  0
    8.3180   -2.4000   22.0560 C   0  0  2  0  0  0  0  0  0  0  0  0
    7.6220   -3.7780   22.1560 C   0  0  0  0  0  0  0  0  0  0  0  0
    6.1660   -3.3790   22.6770 C   0  0  1  0  0  0  0  0  0  0  0  0
    7.1600   -3.2040   23.8740 C   0  0  0  0  0  0  0  0  0  0  0  0
    8.3020   -2.2090   23.5700 C   0  0  1  0  0  0  0  0  0  0  0  0
    9.5950   -2.5360   24.3320 C   0  0  0  0  0  0  0  0  0  0  0  0
    9.4860   -3.3080   25.4540 O   0  0  0  0  0  0  0  0  0  0  0  0
   10.7500   -2.0110   23.8150 N   0  0  0  0  0  0  0  0  0  0  0  0
   11.2180   -0.6650   23.9870 C   0  0  0  0  0  0  0  0  0  0  0  0
   12.0540    0.7540   23.8880 C   0  0  0  0  0  0  0  0  0  0  0  0
   13.2020    0.7930   22.9640 C   0  0  0  0  0  0  0  0  0  0  0  0
   12.7960   -0.4680   22.7690 C   0  0  0  0  0  0  0  0  0  0  0  0
   13.0150   -1.4480   22.1790 N   0  0  0  0  0  0  0  0  0  0  0  0
   11.9340   -1.6230   22.9980 C   0  0  0  0  0  0  0  0  0  0  0  0
  1  2  1  0
  2  3  1  0
  3  4  2  0
  3  5  1  0
  5  6  1  0
  7  6  1  6
  7  8  1  0
  5  9  1  0
  8  9  1  0
  9 10  1  1
  7 11  1  0
 10 11  1  0
 11 12  1  1
 12 13  2  0
 12 14  1  0
 14 15  1  0
 15 16  2  0
 16 17  1  0
 17 18  2  0
 18 19  1  0
 15 20  1  0
 19 20  2  0
M  END
