MAK-UNK-198e6d85-13
     RDKit          3D

 20 22  0  0  0  0  0  0  0  0999 V2000
    6.7440   -4.4740   27.0650 N   0  0  0  0  0  0  0  0  0  0  0  0
    7.2660   -5.5560   26.2150 C   0  0  0  0  0  0  0  0  0  0  0  0
    8.2690   -5.0440   25.2140 C   0  0  2  0  0  0  0  0  0  0  0  0
    8.8460   -3.9970   25.5600 O   0  0  0  0  0  0  0  0  0  0  0  0
    9.8450   -3.5760   24.6350 C   0  0  2  0  0  0  0  0  0  0  0  0
   10.6860   -2.6570   25.1860 C   0  0  0  0  0  0  0  0  0  0  0  0
   10.9620   -1.4530   24.3300 C   0  0  0  0  0  0  0  0  0  0  0  0
   12.0830   -0.6800   24.5580 C   0  0  0  0  0  0  0  0  0  0  0  0
   13.2870   -1.5460   24.7190 C   0  0  0  0  0  0  0  0  0  0  0  0
   12.9900   -2.9780   24.4730 C   0  0  0  0  0  0  0  0  0  0  0  0
   11.9700   -3.4070   25.4360 C   0  0  0  0  0  0  0  0  0  0  0  0
    9.1990   -3.0580   23.4180 C   0  0  0  0  0  0  0  0  0  0  0  0
    8.1430   -3.8450   23.0050 C   0  0  0  0  0  0  0  0  0  0  0  0
    7.6510   -4.8560   23.8200 C   0  0  0  0  0  0  0  0  0  0  0  0
    6.5030   -5.7590   23.3510 C   0  0  0  0  0  0  0  0  0  0  0  0
    5.8910   -5.5130   21.9700 C   0  0  0  0  0  0  0  0  0  0  0  0
    6.4580   -4.3660   21.1470 C   0  0  0  0  0  0  0  0  0  0  0  0
    5.9640   -4.0410   19.9080 O   0  0  0  0  0  0  0  0  0  0  0  0
    7.6040   -3.5790   21.7630 C   0  0  0  0  0  0  0  0  0  0  0  0
    8.0780   -2.5490   20.9950 O   0  0  0  0  0  0  0  0  0  0  0  0
  1  2  1  0
  3  2  1  1
  3  4  1  0
  4  5  1  0
  5  6  1  1
  6  7  1  0
  7  8  1  0
  8  9  1  0
  9 10  1  0
  6 11  1  0
 10 11  1  0
  5 12  1  0
 12 13  1  0
  3 14  1  0
 13 14  2  0
 14 15  1  0
 15 16  2  0
 16 17  1  0
 17 18  1  0
 13 19  1  0
 17 19  2  0
 19 20  1  0
M  END
