MAK-UNK-9e4a73aa-22
     RDKit          3D

 26 29  0  0  0  0  0  0  0  0999 V2000
    8.6940   -5.5800   24.3830 O   0  0  0  0  0  0  0  0  0  0  0  0
    7.4940   -5.2840   24.3280 C   0  0  0  0  0  0  0  0  0  0  0  0
    6.5880   -5.4210   25.5610 C   0  0  0  0  0  0  0  0  0  0  0  0
    7.2160   -5.4800   26.9700 C   0  0  0  0  0  0  0  0  0  0  0  0
    6.3030   -5.5970   28.2040 C   0  0  0  0  0  0  0  0  0  0  0  0
    6.7430   -5.6530   29.4520 F   0  0  0  0  0  0  0  0  0  0  0  0
    4.7960   -5.6620   27.9590 C   0  0  0  0  0  0  0  0  0  0  0  0
    3.5310   -5.7950   29.0850 Cl  0  0  0  0  0  0  0  0  0  0  0  0
    4.4000   -5.5990   26.4830 C   0  0  0  0  0  0  0  0  0  0  0  0
    5.2410   -5.4900   25.4000 C   0  0  0  0  0  0  0  0  0  0  0  0
    4.7070   -5.4570   24.1680 N   0  0  0  0  0  0  0  0  0  0  0  0
    3.5060   -6.2420   23.9420 C   0  0  0  0  0  0  0  0  0  0  0  0
    2.5640   -5.5850   23.2040 C   0  0  0  0  0  0  0  0  0  0  0  0
    1.2110   -6.2270   22.8470 C   0  0  0  0  0  0  0  0  0  0  0  0
    1.0160   -7.6990   23.4070 C   0  0  0  0  0  0  0  0  0  0  0  0
    2.1780   -8.2340   24.1990 C   0  0  0  0  0  0  0  0  0  0  0  0
    3.3410   -7.5400   24.4430 C   0  0  0  0  0  0  0  0  0  0  0  0
    5.5210   -5.0270   23.0180 C   0  0  0  0  0  0  0  0  0  0  0  0
    4.9420   -4.8020   21.7840 O   0  0  0  0  0  0  0  0  0  0  0  0
    6.8440   -4.8260   23.2240 N   0  0  0  0  0  0  0  0  0  0  0  0
    7.3090   -3.5880   22.5560 C   0  0  0  0  0  0  0  0  0  0  0  0
    8.7340   -3.0360   22.5770 C   0  0  0  0  0  0  0  0  0  0  0  0
    9.0670   -1.7480   21.8400 C   0  0  0  0  0  0  0  0  0  0  0  0
    8.1100   -1.0260   21.1250 C   0  0  0  0  0  0  0  0  0  0  0  0
    6.8240   -1.5330   21.1080 N   0  0  0  0  0  0  0  0  0  0  0  0
    6.3500   -2.7410   21.7610 C   0  0  0  0  0  0  0  0  0  0  0  0
  1  2  2  0
  2  3  1  0
  3  4  2  0
  4  5  1  0
  5  6  1  0
  5  7  2  0
  7  8  1  0
  7  9  1  0
  3 10  1  0
  9 10  2  0
 10 11  1  0
 11 12  1  0
 12 13  2  0
 13 14  1  0
 14 15  2  0
 15 16  1  0
 12 17  1  0
 16 17  2  0
 11 18  1  0
 18 19  2  0
  2 20  1  0
 18 20  1  0
 20 21  1  0
 21 22  2  0
 22 23  1  0
 23 24  2  0
 24 25  1  0
 21 26  1  0
 25 26  2  0
M  END
