MAK-UNK-198e6d85-4
     RDKit          3D

 31 35  0  0  0  0  0  0  0  0999 V2000
    5.9600   -6.7670   28.6290 N   0  0  0  0  0  0  0  0  0  0  0  0
    4.5300   -7.0990   28.6880 C   0  0  0  0  0  0  0  0  0  0  0  0
    3.7220   -6.6600   27.4930 C   0  0  2  0  0  0  0  0  0  0  0  0
    4.4580   -5.6630   26.7300 O   0  0  0  0  0  0  0  0  0  0  0  0
    4.2630   -4.3030   27.1930 C   0  0  1  0  0  0  0  0  0  0  0  0
    5.2200   -3.4760   26.6250 C   0  0  1  0  0  0  0  0  0  0  0  0
    6.4640   -3.2730   27.5220 C   0  0  0  0  0  0  0  0  0  0  0  0
    7.5840   -2.8210   26.8160 C   0  0  0  0  0  0  0  0  0  0  0  0
    7.2290   -2.0580   25.5410 C   0  0  0  0  0  0  0  0  0  0  0  0
    6.5580   -2.9750   24.4870 C   0  0  1  0  0  0  0  0  0  0  0  0
    7.5950   -3.6630   23.6980 N   0  0  0  0  0  0  0  0  0  0  0  0
    8.8840   -3.6030   24.1710 C   0  0  0  0  0  0  0  0  0  0  0  0
    9.4140   -4.6600   24.9050 C   0  0  0  0  0  0  0  0  0  0  0  0
   10.6950   -4.5530   25.3740 C   0  0  0  0  0  0  0  0  0  0  0  0
   11.3960   -3.4000   25.0830 C   0  0  0  0  0  0  0  0  0  0  0  0
   12.7960   -3.4060   25.6470 C   0  0  0  0  0  0  0  0  0  0  0  0
   13.6530   -2.2060   25.3850 C   0  0  0  0  0  0  0  0  0  0  0  0
   13.0440   -1.0540   24.5640 C   0  0  0  0  0  0  0  0  0  0  0  0
   11.6280   -1.1280   24.0380 C   0  0  0  0  0  0  0  0  0  0  0  0
   10.8340   -2.3710   24.3400 C   0  0  0  0  0  0  0  0  0  0  0  0
    9.5750   -2.4730   23.8850 N   0  0  0  0  0  0  0  0  0  0  0  0
    5.6400   -3.9700   25.2170 C   0  0  0  0  0  0  0  0  0  0  0  0
    2.8250   -3.8480   26.8530 C   0  0  0  0  0  0  0  0  0  0  0  0
    1.8040   -4.7020   27.5620 C   0  0  0  0  0  0  0  0  0  0  0  0
    2.3550   -6.1080   27.8400 C   0  0  0  0  0  0  0  0  0  0  0  0
    1.1190   -6.6870   28.5350 C   0  0  0  0  0  0  0  0  0  0  0  0
   -0.2080   -6.0760   28.8440 C   0  0  0  0  0  0  0  0  0  0  0  0
   -0.4430   -4.8030   28.4890 C   0  0  0  0  0  0  0  0  0  0  0  0
   -1.6470   -4.2170   28.7600 O   0  0  0  0  0  0  0  0  0  0  0  0
    0.5540   -4.1250   27.8540 C   0  0  0  0  0  0  0  0  0  0  0  0
    0.2460   -2.8310   27.5200 O   0  0  0  0  0  0  0  0  0  0  0  0
  1  2  1  0
  3  2  1  1
  3  4  1  0
  4  5  1  0
  5  6  1  0
  6  7  1  1
  7  8  1  0
  8  9  1  0
  9 10  1  0
 10 11  1  1
 11 12  1  0
 12 13  2  0
 13 14  1  0
 14 15  2  0
 15 16  1  0
 16 17  2  0
 17 18  1  0
 18 19  2  0
 15 20  1  0
 19 20  1  0
 12 21  1  0
 20 21  2  0
  6 22  1  0
 10 22  1  0
  5 23  1  6
 23 24  1  0
  3 25  1  0
 24 25  2  0
 25 26  1  0
 26 27  2  0
 27 28  1  0
 28 29  1  0
 24 30  1  0
 28 30  2  0
 30 31  1  0
M  END
