MAK-UNK-ec98eaf6-2-acrylamide
     RDKit          3D

 24 27  0  0  0  0  0  0  0  0999 V2000
    7.8320   -3.1390   18.9500 C   0  0  0  0  0  0  0  0  0  0  0  0
    6.5420   -2.3260   18.8490 C   0  0  0  0  0  0  0  0  0  0  0  0
    5.7290   -3.0480   19.8360 C   0  0  0  0  0  0  0  0  0  0  0  0
    4.9410   -3.9390   19.5350 O   0  0  0  0  0  0  0  0  0  0  0  0
    6.0110   -2.7130   21.1500 N   0  0  0  0  0  0  0  0  0  0  0  0
    5.6540   -3.3380   22.4260 C   0  0  0  0  0  0  0  0  0  0  0  0
    6.9780   -3.1730   23.2500 C   0  0  2  0  0  0  0  0  0  0  0  0
    6.1950   -1.8360   23.0660 C   0  0  0  0  0  0  0  0  0  0  0  0
    6.6970   -1.5230   21.6310 C   0  0  1  0  0  0  0  0  0  0  0  0
    8.1610   -1.6860   21.9700 C   0  0  0  0  0  0  0  0  0  0  0  0
    7.9160   -2.0220   23.4020 N   0  0  0  0  0  0  0  0  0  0  0  0
    9.0850   -2.3940   24.1790 C   0  0  0  0  0  0  0  0  0  0  0  0
   10.3070   -1.8180   23.8450 C   0  0  0  0  0  0  0  0  0  0  0  0
   10.8980   -0.7910   24.4280 N   0  0  0  0  0  0  0  0  0  0  0  0
   12.2510   -0.4150   23.9120 C   0  0  0  0  0  0  0  0  0  0  0  0
   12.3630   -1.4100   22.8560 C   0  0  0  0  0  0  0  0  0  0  0  0
   13.4330   -1.5230   22.0750 C   0  0  0  0  0  0  0  0  0  0  0  0
   13.9790   -2.7870   21.8450 C   0  0  0  0  0  0  0  0  0  0  0  0
   13.7950   -3.4070   20.6160 C   0  0  0  0  0  0  0  0  0  0  0  0
   14.4500   -4.6690   20.3500 C   0  0  0  0  0  0  0  0  0  0  0  0
   15.2330   -5.3050   21.2690 C   0  0  0  0  0  0  0  0  0  0  0  0
   15.4000   -4.7560   22.5060 C   0  0  0  0  0  0  0  0  0  0  0  0
   14.7590   -3.4860   22.8090 C   0  0  0  0  0  0  0  0  0  0  0  0
   11.1080   -2.5250   22.5820 S   0  0  0  0  0  0  0  0  0  0  0  0
  1  2  1  0
  2  3  1  0
  3  4  2  0
  3  5  1  0
  5  6  1  0
  7  6  1  6
  7  8  1  0
  5  9  1  0
  8  9  1  0
  9 10  1  1
  7 11  1  0
 10 11  1  0
 11 12  1  0
 12 13  1  0
 13 14  2  0
 14 15  1  0
 15 16  2  0
 16 17  1  0
 17 18  1  0
 18 19  2  0
 19 20  1  0
 20 21  2  0
 21 22  1  0
 18 23  1  0
 22 23  2  0
 13 24  1  0
 16 24  1  0
M  END
