MAK-UNK-e4a48a85-22-acrylamide
     RDKit          3D

 24 26  0  0  0  0  0  0  0  0999 V2000
    8.0140   -3.3790   19.7180 C   0  0  0  0  0  0  0  0  0  0  0  0
    6.9230   -2.6490   19.0350 C   0  0  0  0  0  0  0  0  0  0  0  0
    5.9140   -3.0180   20.0310 C   0  0  0  0  0  0  0  0  0  0  0  0
    5.0580   -3.8710   19.7790 O   0  0  0  0  0  0  0  0  0  0  0  0
    6.1240   -2.3690   21.2440 N   0  0  0  0  0  0  0  0  0  0  0  0
    5.9780   -3.1440   22.4750 C   0  0  0  0  0  0  0  0  0  0  0  0
    7.2170   -3.3190   23.0770 C   0  0  0  0  0  0  0  0  0  0  0  0
    8.1130   -2.2630   23.2450 N   0  0  0  0  0  0  0  0  0  0  0  0
    9.1560   -2.1240   24.2070 C   0  0  0  0  0  0  0  0  0  0  0  0
   10.1480   -1.2030   23.8830 C   0  0  0  0  0  0  0  0  0  0  0  0
   11.3660   -1.5940   23.5560 N   0  0  0  0  0  0  0  0  0  0  0  0
   12.2070   -0.5650   23.2030 C   0  0  0  0  0  0  0  0  0  0  0  0
   11.8800    0.7990   23.1600 C   0  0  0  0  0  0  0  0  0  0  0  0
   12.8880    1.7740   22.6870 C   0  0  0  0  0  0  0  0  0  0  0  0
   12.6080    3.1540   22.5610 C   0  0  0  0  0  0  0  0  0  0  0  0
   13.2290    3.9280   21.6060 C   0  0  0  0  0  0  0  0  0  0  0  0
   12.8930    5.2640   21.5660 C   0  0  0  0  0  0  0  0  0  0  0  0
   11.7410    5.6210   22.7670 S   0  0  0  0  0  0  0  0  0  0  0  0
   11.7330    3.9730   23.2950 C   0  0  0  0  0  0  0  0  0  0  0  0
   10.6080    1.0620   23.5760 C   0  0  0  0  0  0  0  0  0  0  0  0
   10.0900    2.3480   23.6620 N   0  0  0  0  0  0  0  0  0  0  0  0
    9.7650    0.0930   23.9230 N   0  0  0  0  0  0  0  0  0  0  0  0
    8.2980   -1.5790   22.0340 C   0  0  0  0  0  0  0  0  0  0  0  0
    7.0990   -1.2480   21.3640 C   0  0  0  0  0  0  0  0  0  0  0  0
  1  2  1  0
  2  3  1  0
  3  4  2  0
  3  5  1  0
  5  6  1  0
  6  7  1  0
  7  8  1  0
  8  9  1  0
  9 10  1  0
 10 11  2  0
 11 12  1  0
 12 13  2  0
 13 14  1  0
 14 15  1  0
 15 16  1  0
 16 17  2  0
 17 18  1  0
 15 19  2  0
 18 19  1  0
 13 20  1  0
 20 21  1  0
 10 22  1  0
 20 22  2  0
  8 23  1  0
  5 24  1  0
 23 24  1  0
M  END
