MAK-UNK-9e4a73aa-16
     RDKit          3D

 26 29  0  0  0  0  0  0  0  0999 V2000
    8.0210    0.0450   23.5400 O   0  0  0  0  0  0  0  0  0  0  0  0
    8.0980   -1.0220   22.9180 C   0  0  0  0  0  0  0  0  0  0  0  0
    7.3990   -1.1700   21.5970 C   0  0  0  0  0  0  0  0  0  0  0  0
    7.2240    0.0270   20.7410 C   0  0  0  0  0  0  0  0  0  0  0  0
    6.5130   -0.1580   19.4240 C   0  0  0  0  0  0  0  0  0  0  0  0
    6.3490    0.9240   18.6540 F   0  0  0  0  0  0  0  0  0  0  0  0
    5.9130   -1.4700   18.7990 C   0  0  0  0  0  0  0  0  0  0  0  0
    5.6330   -0.2030   17.7230 Cl  0  0  0  0  0  0  0  0  0  0  0  0
    6.3000   -2.4530   19.9710 C   0  0  0  0  0  0  0  0  0  0  0  0
    6.9400   -2.3350   21.1860 C   0  0  0  0  0  0  0  0  0  0  0  0
    7.1360   -3.3800   22.0250 N   0  0  0  0  0  0  0  0  0  0  0  0
    6.1380   -4.3540   22.3850 C   0  0  0  0  0  0  0  0  0  0  0  0
    4.8860   -3.8410   22.6600 C   0  0  0  0  0  0  0  0  0  0  0  0
    3.7250   -4.7620   23.0800 C   0  0  0  0  0  0  0  0  0  0  0  0
    4.1020   -6.3020   23.1600 C   0  0  0  0  0  0  0  0  0  0  0  0
    5.5270   -6.6240   22.8160 C   0  0  0  0  0  0  0  0  0  0  0  0
    6.4660   -5.7120   22.4550 C   0  0  0  0  0  0  0  0  0  0  0  0
    8.1980   -3.3080   23.0320 C   0  0  0  0  0  0  0  0  0  0  0  0
    8.5610   -4.4490   23.6560 O   0  0  0  0  0  0  0  0  0  0  0  0
    8.7510   -2.1190   23.3000 N   0  0  0  0  0  0  0  0  0  0  0  0
   10.1870   -1.9850   23.0490 C   0  0  0  0  0  0  0  0  0  0  0  0
   11.3090   -1.2090   23.3050 C   0  0  0  0  0  0  0  0  0  0  0  0
   12.6910   -1.2400   22.9260 C   0  0  0  0  0  0  0  0  0  0  0  0
   12.9250   -0.1640   23.5990 N   0  0  0  0  0  0  0  0  0  0  0  0
   11.6100    0.0750   24.1080 N   0  0  0  0  0  0  0  0  0  0  0  0
   10.3250   -0.7630   23.8610 C   0  0  0  0  0  0  0  0  0  0  0  0
  1  2  2  0
  2  3  1  0
  3  4  2  0
  4  5  1  0
  5  6  1  0
  5  7  2  0
  7  8  1  0
  7  9  1  0
  3 10  1  0
  9 10  2  0
 10 11  1  0
 11 12  1  0
 12 13  2  0
 13 14  1  0
 14 15  2  0
 15 16  1  0
 12 17  1  0
 16 17  2  0
 11 18  1  0
 18 19  2  0
  2 20  1  0
 18 20  1  0
 20 21  1  0
 21 22  2  0
 22 23  1  0
 23 24  2  0
 24 25  1  0
 21 26  1  0
 25 26  2  0
M  END
