MAK-UNK-9e4a73aa-25
     RDKit          3D

 26 29  0  0  0  0  0  0  0  0999 V2000
    6.9440   -0.4070   25.3130 O   0  0  0  0  0  0  0  0  0  0  0  0
    7.8760   -0.6660   24.5390 C   0  0  0  0  0  0  0  0  0  0  0  0
    8.8590    0.4600   24.1070 C   0  0  0  0  0  0  0  0  0  0  0  0
    8.4430    1.9440   24.1430 C   0  0  0  0  0  0  0  0  0  0  0  0
    9.4690    3.0120   23.7020 C   0  0  0  0  0  0  0  0  0  0  0  0
    9.2070    4.3240   23.6940 F   0  0  0  0  0  0  0  0  0  0  0  0
   10.8660    2.5270   23.2530 C   0  0  0  0  0  0  0  0  0  0  0  0
   12.1720    3.4690   22.7200 Cl  0  0  0  0  0  0  0  0  0  0  0  0
   11.0660    0.9970   23.3020 C   0  0  0  0  0  0  0  0  0  0  0  0
   10.0960    0.1020   23.6980 C   0  0  0  0  0  0  0  0  0  0  0  0
   10.3280   -1.1730   23.7010 N   0  0  0  0  0  0  0  0  0  0  0  0
   11.5600   -1.6560   23.6200 C   0  0  0  0  0  0  0  0  0  0  0  0
   11.9760   -1.6430   22.3540 C   0  0  0  0  0  0  0  0  0  0  0  0
   13.2990   -2.2020   22.0860 C   0  0  0  0  0  0  0  0  0  0  0  0
   13.9710   -2.7680   23.4040 C   0  0  0  0  0  0  0  0  0  0  0  0
   13.3270   -2.6350   24.6820 C   0  0  0  0  0  0  0  0  0  0  0  0
   12.1690   -2.0830   24.7470 C   0  0  0  0  0  0  0  0  0  0  0  0
    9.3210   -2.2190   23.5830 C   0  0  0  0  0  0  0  0  0  0  0  0
    9.6360   -3.4440   23.0560 O   0  0  0  0  0  0  0  0  0  0  0  0
    8.1250   -1.9200   24.0110 N   0  0  0  0  0  0  0  0  0  0  0  0
    7.0350   -2.4400   23.1880 C   0  0  0  0  0  0  0  0  0  0  0  0
    8.0650   -1.5690   22.4210 C   0  0  0  0  0  0  0  0  0  0  0  0
    8.4520   -0.9380   21.0580 C   0  0  0  0  0  0  0  0  0  0  0  0
    7.3990   -1.3850   20.2740 C   0  0  0  0  0  0  0  0  0  0  0  0
    6.4030   -2.1740   20.7140 N   0  0  0  0  0  0  0  0  0  0  0  0
    6.1660   -2.7020   22.0010 C   0  0  0  0  0  0  0  0  0  0  0  0
  1  2  2  0
  2  3  1  0
  3  4  2  0
  4  5  1  0
  5  6  1  0
  5  7  2  0
  7  8  1  0
  7  9  1  0
  3 10  1  0
  9 10  2  0
 10 11  1  0
 11 12  1  0
 12 13  2  0
 13 14  1  0
 14 15  2  0
 15 16  1  0
 12 17  1  0
 16 17  2  0
 11 18  1  0
 18 19  2  0
  2 20  1  0
 18 20  1  0
 20 21  1  0
 21 22  2  0
 22 23  1  0
 23 24  2  0
 24 25  1  0
 21 26  1  0
 25 26  2  0
M  END
