MAK-UNK-6c8f5f75-6-vinylsulfonamide
     RDKit          3D

 12 12  0  0  0  0  0  0  0  0999 V2000
    7.4200   -3.1730   19.1870 C   0  0  0  0  0  0  0  0  0  0  0  0
    7.0860   -3.5400   20.6020 C   0  0  0  0  0  0  0  0  0  0  0  0
    5.4530   -4.0300   20.7530 S   0  0  0  0  0  0  0  0  0  0  0  0
    4.7040   -3.0010   21.4100 O   0  0  0  0  0  0  0  0  0  0  0  0
    5.0670   -4.4970   19.4640 O   0  0  0  0  0  0  0  0  0  0  0  0
    5.4770   -5.3350   21.7960 N   0  0  0  0  0  0  0  0  0  0  0  0
    6.7670   -5.8020   22.1810 C   0  0  0  0  0  0  0  0  0  0  0  0
    7.0120   -5.7220   23.6500 C   0  0  0  0  0  0  0  0  0  0  0  0
    5.8470   -5.1840   24.4170 C   0  0  0  0  0  0  0  0  0  0  0  0
    4.5650   -5.2720   23.2340 S   0  0  0  0  0  0  0  0  0  0  0  0
    3.8670   -4.0000   23.2160 O   0  0  0  0  0  0  0  0  0  0  0  0
    3.8170   -6.5070   23.3510 O   0  0  0  0  0  0  0  0  0  0  0  0
  1  2  1  0
  3  2  1  0
  3  4  2  0
  3  5  2  0
  3  6  1  0
  6  7  1  0
  7  8  2  0
  8  9  1  0
 10  6  1  0
  9 10  1  0
 10 11  2  0
 10 12  2  0
M  END
