MAK-UNK-ec98eaf6-6-acrylamide
     RDKit          3D

 26 29  0  0  0  0  0  0  0  0999 V2000
    7.9370   -3.3240   19.1200 C   0  0  0  0  0  0  0  0  0  0  0  0
    6.7420   -2.4630   18.7890 C   0  0  0  0  0  0  0  0  0  0  0  0
    5.7850   -2.7520   19.8790 C   0  0  0  0  0  0  0  0  0  0  0  0
    4.9260   -3.6060   19.7170 O   0  0  0  0  0  0  0  0  0  0  0  0
    6.0230   -2.0380   21.0120 N   0  0  0  0  0  0  0  0  0  0  0  0
    6.8970   -0.8570   21.1650 C   0  0  0  0  0  0  0  0  0  0  0  0
    8.0050   -1.3540   22.1450 C   0  0  1  0  0  0  0  0  0  0  0  0
    6.6110   -1.1710   22.8330 C   0  0  0  0  0  0  0  0  0  0  0  0
    5.9640   -2.4920   22.3790 C   0  0  2  0  0  0  0  0  0  0  0  0
    7.1060   -3.3380   22.8930 C   0  0  0  0  0  0  0  0  0  0  0  0
    7.9440   -2.2000   23.3700 N   0  0  0  0  0  0  0  0  0  0  0  0
    9.2160   -2.6630   23.9150 C   0  0  2  0  0  0  0  0  0  0  0  0
    8.8770   -3.3660   25.0850 C   0  0  0  0  0  0  0  0  0  0  0  0
    9.5410   -4.4620   25.6330 C   0  0  0  0  0  0  0  0  0  0  0  0
    9.0710   -5.1050   26.7580 C   0  0  0  0  0  0  0  0  0  0  0  0
    7.9120   -4.6910   27.4010 C   0  0  0  0  0  0  0  0  0  0  0  0
    7.2790   -5.4880   28.7690 Cl  0  0  0  0  0  0  0  0  0  0  0  0
    7.2380   -3.5890   26.8940 C   0  0  0  0  0  0  0  0  0  0  0  0
    7.7090   -2.9340   25.7570 C   0  0  0  0  0  0  0  0  0  0  0  0
   10.3030   -1.6010   23.7490 C   0  0  0  0  0  0  0  0  0  0  0  0
   10.4070   -0.3390   24.4000 C   0  0  0  0  0  0  0  0  0  0  0  0
   11.4710    0.5650   24.1200 C   0  0  0  0  0  0  0  0  0  0  0  0
   12.4320    0.1900   23.1790 C   0  0  0  0  0  0  0  0  0  0  0  0
   12.3570   -1.0420   22.5170 C   0  0  0  0  0  0  0  0  0  0  0  0
   13.4460   -1.5680   21.3520 Cl  0  0  0  0  0  0  0  0  0  0  0  0
   11.2700   -1.9440   22.8210 C   0  0  0  0  0  0  0  0  0  0  0  0
  1  2  1  0
  2  3  1  0
  3  4  2  0
  3  5  1  0
  5  6  1  0
  7  6  1  6
  7  8  1  0
  5  9  1  0
  8  9  1  0
  9 10  1  6
  7 11  1  0
 10 11  1  0
 11 12  1  0
 12 13  1  1
 13 14  2  0
 14 15  1  0
 15 16  2  0
 16 17  1  0
 16 18  1  0
 13 19  1  0
 18 19  2  0
 12 20  1  0
 20 21  2  0
 21 22  1  0
 22 23  2  0
 23 24  1  0
 24 25  1  0
 20 26  1  0
 24 26  2  0
M  END
