MAK-UNK-987948f6-4-acrylamide
     RDKit          3D

 15 15  0  0  0  0  0  0  0  0999 V2000
    6.2370   -4.7430   20.6330 C   0  0  0  0  0  0  0  0  0  0  0  0
    5.4640   -5.4120   21.8280 C   0  0  0  0  0  0  0  0  0  0  0  0
    4.8200   -4.5240   22.8760 C   0  0  0  0  0  0  0  0  0  0  0  0
    3.9360   -3.7530   22.5990 O   0  0  0  0  0  0  0  0  0  0  0  0
    5.2880   -4.6620   24.1540 N   0  0  0  0  0  0  0  0  0  0  0  0
    6.4560   -5.5080   24.1140 C   0  0  0  0  0  0  0  0  0  0  0  0
    7.5260   -4.8430   23.3900 C   0  0  0  0  0  0  0  0  0  0  0  0
    7.2000   -3.4300   23.1160 N   0  0  0  0  0  0  0  0  0  0  0  0
    6.8440   -2.8610   21.8740 C   0  0  0  0  0  0  0  0  0  0  0  0
    5.6600   -2.8770   21.4980 O   0  0  0  0  0  0  0  0  0  0  0  0
    7.8350   -2.2480   21.0780 C   0  0  0  0  0  0  0  0  0  0  0  0
    7.3100   -1.8780   19.8570 C   0  0  0  0  0  0  0  0  0  0  0  0
    9.2140   -2.0870   21.6200 C   0  0  0  0  0  0  0  0  0  0  0  0
    6.6890   -2.7210   24.2970 C   0  0  0  0  0  0  0  0  0  0  0  0
    5.5330   -3.4040   24.8940 C   0  0  0  0  0  0  0  0  0  0  0  0
  1  2  1  0
  2  3  1  0
  3  4  2  0
  3  5  1  0
  5  6  1  0
  6  7  1  0
  7  8  1  0
  8  9  1  0
  9 10  2  0
  9 11  1  0
 11 12  2  3
 11 13  1  0
  8 14  1  0
  5 15  1  0
 14 15  1  0
M  END
