MAK-UNK-30aad1f1-16-vinylsulfonamide
     RDKit          3D

 28 30  0  0  0  0  0  0  0  0999 V2000
    7.2700   -5.2310   20.7170 C   0  0  0  0  0  0  0  0  0  0  0  0
    5.8310   -5.0080   20.8590 C   0  0  0  0  0  0  0  0  0  0  0  0
    5.8450   -3.3250   21.1600 S   0  0  0  0  0  0  0  0  0  0  0  0
    4.5480   -3.0190   21.6710 O   0  0  0  0  0  0  0  0  0  0  0  0
    7.0410   -3.0410   21.9340 O   0  0  0  0  0  0  0  0  0  0  0  0
    6.1050   -2.7760   19.4970 C   0  0  0  0  0  0  0  0  0  0  0  0
    6.3520   -2.0560   18.2120 C   0  0  0  0  0  0  0  0  0  0  0  0
    6.5760   -0.6950   18.0450 C   0  0  0  0  0  0  0  0  0  0  0  0
    6.5750    0.0350   19.1450 C   0  0  0  0  0  0  0  0  0  0  0  0
    6.7500    1.3500   19.3300 N   0  0  0  0  0  0  0  0  0  0  0  0
    6.4070    1.6500   20.7160 C   0  0  0  0  0  0  0  0  0  0  0  0
    5.0460    1.5900   20.2550 C   0  0  0  0  0  0  0  0  0  0  0  0
    4.4870    1.3590   19.0250 N   0  0  0  0  0  0  0  0  0  0  0  0
    3.4410    1.5450   19.8480 C   0  0  0  0  0  0  0  0  0  0  0  0
    3.9670    1.8170   21.2940 C   0  0  0  0  0  0  0  0  0  0  0  0
    2.7870    2.0090   22.1270 N   0  0  0  0  0  0  0  0  0  0  0  0
    2.7010    2.3120   23.4720 C   0  0  0  0  0  0  0  0  0  0  0  0
    3.0710    1.6000   24.4080 O   0  0  0  0  0  0  0  0  0  0  0  0
    2.0690    3.4890   23.7350 N   0  0  0  0  0  0  0  0  0  0  0  0
    0.7000    3.7730   23.9270 C   0  0  0  0  0  0  0  0  0  0  0  0
   -0.3540    3.0680   23.3150 C   0  0  0  0  0  0  0  0  0  0  0  0
   -1.6980    3.3890   23.5410 C   0  0  0  0  0  0  0  0  0  0  0  0
   -2.0570    4.4470   24.4000 C   0  0  0  0  0  0  0  0  0  0  0  0
   -0.8860    5.2100   25.0640 C   0  0  0  0  0  0  0  0  0  0  0  0
    0.4250    4.8320   24.7920 C   0  0  0  0  0  0  0  0  0  0  0  0
    5.3850    1.8670   21.6920 C   0  0  0  0  0  0  0  0  0  0  0  0
    6.3780   -0.4830   20.3010 N   0  0  0  0  0  0  0  0  0  0  0  0
    6.1690   -1.7530   20.4150 C   0  0  0  0  0  0  0  0  0  0  0  0
  1  2  1  0
  3  2  1  0
  3  4  2  0
  3  5  2  0
  3  6  1  0
  6  7  2  0
  7  8  1  0
  8  9  2  0
  9 10  1  0
 10 11  1  0
 11 12  2  0
 12 13  1  0
 13 14  2  0
 14 15  1  0
 15 16  1  0
 16 17  1  0
 17 18  2  0
 17 19  1  0
 19 20  1  0
 20 21  2  0
 21 22  1  0
 22 23  2  0
 23 24  1  0
 20 25  1  0
 24 25  2  0
 11 26  1  0
 15 26  2  0
  9 27  1  0
  6 28  1  0
 27 28  2  0
M  END
