MAK-UNK-01147c51-1
     RDKit          3D

 22 24  0  0  0  0  0  0  0  0999 V2000
    6.3370   -2.4680   19.5870 C   0  0  0  0  0  0  0  0  0  0  0  0
    5.6210   -3.2770   20.4890 N   0  0  0  0  0  0  0  0  0  0  0  0
    6.4980   -4.0470   21.3560 C   0  0  2  0  0  0  0  0  0  0  0  0
    5.7890   -5.3200   21.8280 C   0  0  0  0  0  0  0  0  0  0  0  0
    6.5670   -6.2240   22.8200 C   0  0  0  0  0  0  0  0  0  0  0  0
    7.5710   -5.3990   23.6390 C   0  0  0  0  0  0  0  0  0  0  0  0
    8.2410   -4.3630   22.9720 C   0  0  2  0  0  0  0  0  0  0  0  0
    9.2380   -3.7220   23.6790 C   0  0  1  0  0  0  0  0  0  0  0  0
    9.2920   -2.3240   23.6680 C   0  0  0  0  0  0  0  0  0  0  0  0
   10.6200   -2.0550   23.8350 C   0  0  0  0  0  0  0  0  0  0  0  0
   11.1680   -2.7660   24.8550 C   0  0  0  0  0  0  0  0  0  0  0  0
   12.5110   -2.6610   25.1480 C   0  0  0  0  0  0  0  0  0  0  0  0
   13.2950   -1.8150   24.4000 C   0  0  0  0  0  0  0  0  0  0  0  0
   12.7480   -1.0650   23.3620 C   0  0  0  0  0  0  0  0  0  0  0  0
   13.5320   -0.2290   22.6290 O   0  0  0  0  0  0  0  0  0  0  0  0
   11.3940   -1.1910   23.0800 C   0  0  0  0  0  0  0  0  0  0  0  0
   10.8910   -0.4520   22.0480 O   0  0  0  0  0  0  0  0  0  0  0  0
   10.2230   -3.6580   25.6210 C   0  0  2  0  0  0  0  0  0  0  0  0
   10.8720   -4.6810   26.2000 C   0  0  0  0  0  0  0  0  0  0  0  0
   12.3040   -4.3790   26.3870 N   0  0  0  0  0  0  0  0  0  0  0  0
    9.0970   -4.0640   24.8450 O   0  0  0  0  0  0  0  0  0  0  0  0
    7.1470   -3.3840   22.5410 C   0  0  0  0  0  0  0  0  0  0  0  0
  1  2  1  0
  3  2  1  1
  3  4  1  0
  4  5  1  0
  5  6  1  0
  7  6  1  1
  7  8  1  0
  8  9  1  1
  9 10  1  0
 10 11  2  0
 11 12  1  0
 12 13  2  0
 13 14  1  0
 14 15  1  0
 10 16  1  0
 14 16  2  0
 16 17  1  0
 11 18  1  0
 18 19  1  6
 19 20  1  0
  8 21  1  0
 18 21  1  0
  3 22  1  0
  7 22  1  0
M  END
