MAK-UNK-5d2caa6f-6-chloroacetamide
     RDKit          3D

 22 25  0  0  0  0  0  0  0  0999 V2000
    7.3790   -3.0750   18.7910 C   0  0  0  0  0  0  0  0  0  0  0  0
    6.3970   -3.4510   19.9220 C   0  0  0  0  0  0  0  0  0  0  0  0
    5.5240   -4.3210   19.8220 O   0  0  0  0  0  0  0  0  0  0  0  0
    6.5470   -2.7190   21.0800 N   0  0  0  0  0  0  0  0  0  0  0  0
    6.1340   -3.1600   22.4170 C   0  0  0  0  0  0  0  0  0  0  0  0
    7.5150   -3.1400   23.0810 C   0  0  1  0  0  0  0  0  0  0  0  0
    8.2650   -2.8680   21.7920 C   0  0  0  0  0  0  0  0  0  0  0  0
    7.4540   -1.6040   21.2530 C   0  0  2  0  0  0  0  0  0  0  0  0
    8.1630   -1.1300   22.5420 C   0  0  0  0  0  0  0  0  0  0  0  0
    7.8480   -1.8710   23.7570 N   0  0  0  0  0  0  0  0  0  0  0  0
    9.0310   -1.9370   24.5900 C   0  0  0  0  0  0  0  0  0  0  0  0
   10.1000   -1.0110   24.0240 C   0  0  0  0  0  0  0  0  0  0  0  0
   11.1800   -1.6900   23.2140 C   0  0  0  0  0  0  0  0  0  0  0  0
   12.2680   -0.8720   22.5850 C   0  0  0  0  0  0  0  0  0  0  0  0
   13.4290   -1.6270   21.6480 Cl  0  0  0  0  0  0  0  0  0  0  0  0
   12.2540    0.6330   22.8090 C   0  0  0  0  0  0  0  0  0  0  0  0
   11.0990    1.1710   23.6290 C   0  0  0  0  0  0  0  0  0  0  0  0
   11.1050    2.6900   23.7730 C   0  0  0  0  0  0  0  0  0  0  0  0
   10.1540    3.3830   24.4500 N   0  0  0  0  0  0  0  0  0  0  0  0
    9.1560    2.6900   25.0360 C   0  0  0  0  0  0  0  0  0  0  0  0
    9.0110    1.1430   24.9870 C   0  0  0  0  0  0  0  0  0  0  0  0
   10.0860    0.3920   24.2050 C   0  0  0  0  0  0  0  0  0  0  0  0
  1  2  1  0
  2  3  2  0
  2  4  1  0
  4  5  1  0
  6  5  1  6
  6  7  1  0
  4  8  1  0
  7  8  1  0
  8  9  1  1
  6 10  1  0
  9 10  1  0
 10 11  1  0
 11 12  1  0
 12 13  2  0
 13 14  1  0
 14 15  1  0
 14 16  2  0
 16 17  1  0
 17 18  1  0
 18 19  2  0
 19 20  1  0
 20 21  2  0
 12 22  1  0
 17 22  2  0
 21 22  1  0
M  END
