MAK-UNK-30aad1f1-17-acrylamide
     RDKit          3D

 27 29  0  0  0  0  0  0  0  0999 V2000
    7.1820   -3.7960   20.2740 C   0  0  0  0  0  0  0  0  0  0  0  0
    6.9390   -2.3150   20.4050 C   0  0  0  0  0  0  0  0  0  0  0  0
    5.5680   -2.1100   19.8130 C   0  0  0  0  0  0  0  0  0  0  0  0
    4.6870   -2.9420   20.1110 O   0  0  0  0  0  0  0  0  0  0  0  0
    5.2900   -1.0100   18.7860 C   0  0  0  0  0  0  0  0  0  0  0  0
    6.3540   -0.0190   19.1240 C   0  0  0  0  0  0  0  0  0  0  0  0
    5.7380    0.4470   18.0910 C   0  0  0  0  0  0  0  0  0  0  0  0
    5.2940   -0.7070   18.7040 C   0  0  0  0  0  0  0  0  0  0  0  0
    5.5520   -1.5130   19.7970 N   0  0  0  0  0  0  0  0  0  0  0  0
    5.5420   -1.2630   21.1920 C   0  0  0  0  0  0  0  0  0  0  0  0
    5.2600   -0.5400   22.2830 C   0  0  0  0  0  0  0  0  0  0  0  0
    5.5230   -0.7920   23.6530 C   0  0  0  0  0  0  0  0  0  0  0  0
    4.8640    0.4260   23.4330 C   0  0  0  0  0  0  0  0  0  0  0  0
    4.5490    1.2480   24.5480 N   0  0  0  0  0  0  0  0  0  0  0  0
    3.2920    1.7080   24.9390 C   0  0  0  0  0  0  0  0  0  0  0  0
    3.1050    0.6190   25.4600 O   0  0  0  0  0  0  0  0  0  0  0  0
    3.8510    2.7390   24.2720 N   0  0  0  0  0  0  0  0  0  0  0  0
    2.9870    3.5390   23.5990 C   0  0  0  0  0  0  0  0  0  0  0  0
    2.8980    4.8730   23.3330 C   0  0  0  0  0  0  0  0  0  0  0  0
    2.1010    5.8270   22.6820 C   0  0  0  0  0  0  0  0  0  0  0  0
    0.8590    5.0800   22.0180 C   0  0  0  0  0  0  0  0  0  0  0  0
    0.7800    3.6540   22.1910 C   0  0  0  0  0  0  0  0  0  0  0  0
    1.8450    3.1700   22.9380 C   0  0  0  0  0  0  0  0  0  0  0  0
    4.5790    0.7080   22.0430 C   0  0  0  0  0  0  0  0  0  0  0  0
    4.8990   -0.1010   20.9180 N   0  0  0  0  0  0  0  0  0  0  0  0
    6.3860    0.1620   19.0630 N   0  0  0  0  0  0  0  0  0  0  0  0
    5.5450    0.2280   18.1630 C   0  0  0  0  0  0  0  0  0  0  0  0
  1  2  1  0
  2  3  1  0
  3  4  2  0
  3  5  1  0
  5  6  2  0
  6  7  1  0
  7  8  2  0
  8  9  1  0
  9 10  1  0
 10 11  2  0
 11 12  1  0
 12 13  2  0
 13 14  1  0
 14 15  1  0
 15 16  2  0
 15 17  1  0
 17 18  1  0
 18 19  2  0
 19 20  1  0
 20 21  2  0
 21 22  1  0
 18 23  1  0
 22 23  2  0
 13 24  1  0
 10 25  1  0
 24 25  2  0
  8 26  1  0
  5 27  1  0
 26 27  2  0
M  END
