MAK-UNK-198e6d85-14
     RDKit          3D

 23 25  0  0  0  0  0  0  0  0999 V2000
   11.8020   -4.4770   26.2830 N   0  0  0  0  0  0  0  0  0  0  0  0
   10.4280   -4.7830   25.8920 C   0  0  0  0  0  0  0  0  0  0  0  0
    9.8050   -3.4820   25.5620 C   0  0  2  0  0  0  0  0  0  0  0  0
    8.5920   -3.3840   25.3600 O   0  0  0  0  0  0  0  0  0  0  0  0
    8.1400   -3.1970   24.0090 C   0  0  2  0  0  0  0  0  0  0  0  0
    8.3950   -4.3820   23.3560 C   0  0  1  0  0  0  0  0  0  0  0  0
    7.7360   -5.5730   23.9210 C   0  0  2  0  0  0  0  0  0  0  0  0
    8.4810   -6.6840   23.4240 O   0  0  0  0  0  0  0  0  0  0  0  0
    6.3830   -5.8570   23.6690 C   0  0  0  0  0  0  0  0  0  0  0  0
    5.7060   -4.7590   22.8670 C   0  0  0  0  0  0  0  0  0  0  0  0
    6.4980   -4.4360   21.6130 C   0  0  1  0  0  0  0  0  0  0  0  0
    6.1770   -3.4700   20.9490 O   0  0  0  0  0  0  0  0  0  0  0  0
    7.9870   -4.4090   21.8940 C   0  0  2  0  0  0  0  0  0  0  0  0
    8.4690   -5.6470   21.3820 O   0  0  0  0  0  0  0  0  0  0  0  0
    8.8340   -1.9720   23.3910 C   0  0  0  0  0  0  0  0  0  0  0  0
   10.2090   -1.9510   23.6040 C   0  0  0  0  0  0  0  0  0  0  0  0
   10.7240   -2.6790   24.6580 C   0  0  0  0  0  0  0  0  0  0  0  0
   12.2140   -2.7230   24.9810 C   0  0  0  0  0  0  0  0  0  0  0  0
   13.1560   -1.9290   24.1080 C   0  0  0  0  0  0  0  0  0  0  0  0
   12.5570   -1.1380   22.9570 C   0  0  0  0  0  0  0  0  0  0  0  0
   13.3120   -0.3900   22.1100 O   0  0  0  0  0  0  0  0  0  0  0  0
   11.0420   -1.2070   22.7690 C   0  0  0  0  0  0  0  0  0  0  0  0
   10.4610   -0.5060   21.7380 O   0  0  0  0  0  0  0  0  0  0  0  0
  1  2  1  0
  3  2  1  6
  3  4  1  0
  4  5  1  0
  6  5  1  1
  6  7  1  0
  7  8  1  6
  7  9  1  0
  9 10  1  0
 10 11  1  0
 11 12  1  1
  6 13  1  0
 11 13  1  0
 13 14  1  1
  5 15  1  6
 15 16  1  0
  3 17  1  0
 16 17  2  0
 17 18  1  0
 18 19  2  0
 19 20  1  0
 20 21  1  0
 16 22  1  0
 20 22  2  0
 22 23  1  0
M  END
