MAK-UNK-ec98eaf6-9-chloroacetamide
     RDKit          3D

 25 28  0  0  0  0  0  0  0  0999 V2000
    7.1660   -2.9930   18.7530 C   0  0  0  0  0  0  0  0  0  0  0  0
    6.2360   -3.2930   19.8890 C   0  0  0  0  0  0  0  0  0  0  0  0
    5.3920   -4.1970   19.7860 O   0  0  0  0  0  0  0  0  0  0  0  0
    6.4010   -2.5250   21.0140 N   0  0  0  0  0  0  0  0  0  0  0  0
    7.3240   -1.3390   21.0590 C   0  0  0  0  0  0  0  0  0  0  0  0
    7.9750   -1.3760   22.4920 C   0  0  1  0  0  0  0  0  0  0  0  0
    6.5000   -1.5630   22.9880 C   0  0  0  0  0  0  0  0  0  0  0  0
    6.1740   -2.8930   22.4180 C   0  0  2  0  0  0  0  0  0  0  0  0
    7.3520   -3.5830   22.9360 C   0  0  0  0  0  0  0  0  0  0  0  0
    8.0450   -2.5420   23.4820 N   0  0  0  0  0  0  0  0  0  0  0  0
    9.3750   -2.9250   23.9480 C   0  0  1  0  0  0  0  0  0  0  0  0
   10.4070   -1.8540   23.6250 C   0  0  0  0  0  0  0  0  0  0  0  0
   10.0390   -0.5470   24.3360 C   0  0  0  0  0  0  0  0  0  0  0  0
   10.9770    0.5980   24.0610 C   0  0  0  0  0  0  0  0  0  0  0  0
   12.1660    0.4310   23.1580 C   0  0  0  0  0  0  0  0  0  0  0  0
   12.9910    1.6060   22.9260 C   0  0  0  0  0  0  0  0  0  0  0  0
   12.4870   -0.7820   22.5380 C   0  0  0  0  0  0  0  0  0  0  0  0
   11.6100   -1.9950   22.7440 C   0  0  0  0  0  0  0  0  0  0  0  0
    9.2460   -3.2940   25.4210 C   0  0  0  0  0  0  0  0  0  0  0  0
    9.7770   -4.6490   25.8920 C   0  0  0  0  0  0  0  0  0  0  0  0
    9.6300   -5.0360   27.3290 C   0  0  0  0  0  0  0  0  0  0  0  0
    8.9770   -4.0570   28.2050 C   0  0  0  0  0  0  0  0  0  0  0  0
    8.4800   -2.7360   27.7090 C   0  0  0  0  0  0  0  0  0  0  0  0
    7.8360   -1.7950   28.6830 C   0  0  0  0  0  0  0  0  0  0  0  0
    8.6310   -2.4160   26.3470 C   0  0  0  0  0  0  0  0  0  0  0  0
  1  2  1  0
  2  3  2  0
  2  4  1  0
  4  5  1  0
  6  5  1  6
  6  7  1  0
  4  8  1  0
  7  8  1  0
  8  9  1  1
  6 10  1  0
  9 10  1  0
 10 11  1  0
 11 12  1  1
 12 13  2  0
 13 14  1  0
 14 15  2  0
 15 16  1  0
 15 17  1  0
 12 18  1  0
 17 18  2  0
 11 19  1  0
 19 20  2  0
 20 21  1  0
 21 22  2  0
 22 23  1  0
 23 24  1  0
 19 25  1  0
 23 25  2  0
M  END
