MAK-UNK-8fdbca50-15-nitrile
     RDKit          3D

 38 41  0  0  0  0  0  0  0  0999 V2000
    7.6240   -3.5820   19.9270 C   0  0  0  0  0  0  0  0  0  0  0  0
    6.3770   -3.7870   19.5720 N   0  0  0  0  0  0  0  0  0  0  0  0
    8.0310   -2.7800   20.9850 N   0  0  0  0  0  0  0  0  0  0  0  0
    7.1890   -1.8610   21.7680 C   0  0  0  0  0  0  0  0  0  0  0  0
    7.7460   -0.4690   21.3280 C   0  0  0  0  0  0  0  0  0  0  0  0
    9.1380   -0.3850   22.0380 C   0  0  0  0  0  0  0  0  0  0  0  0
    8.8280    0.5650   23.2430 C   0  0  0  0  0  0  0  0  0  0  0  0
    9.7660    1.2330   23.6900 O   0  0  0  0  0  0  0  0  0  0  0  0
    7.5960    0.6970   23.7940 N   0  0  0  0  0  0  0  0  0  0  0  0
    6.8970    1.7710   23.3900 C   0  0  0  0  0  0  0  0  0  0  0  0
    7.3980    0.3910   25.2220 C   0  0  2  0  0  0  0  0  0  0  0  0
    8.7060   -0.0670   25.8710 C   0  0  0  0  0  0  0  0  0  0  0  0
    6.2630   -0.4240   25.3260 C   0  0  0  0  0  0  0  0  0  0  0  0
    4.9480    0.2850   25.0470 C   0  0  0  0  0  0  0  0  0  0  0  0
    3.7500   -0.4410   25.1170 C   0  0  0  0  0  0  0  0  0  0  0  0
    3.7410   -1.7870   25.4260 C   0  0  0  0  0  0  0  0  0  0  0  0
    4.9650   -2.4650   25.6920 C   0  0  0  0  0  0  0  0  0  0  0  0
    4.8990   -3.7760   25.9890 F   0  0  0  0  0  0  0  0  0  0  0  0
    6.2120   -1.8070   25.6550 C   0  0  0  0  0  0  0  0  0  0  0  0
    7.3420   -2.6040   25.9660 C   0  0  0  0  0  0  0  0  0  0  0  0
    8.5100   -3.0000   25.3350 C   0  0  0  0  0  0  0  0  0  0  0  0
    9.2380   -3.8200   26.1960 C   0  0  0  0  0  0  0  0  0  0  0  0
   10.4560   -4.4430   25.9560 C   0  0  0  0  0  0  0  0  0  0  0  0
   11.5260   -4.8550   26.1760 N   0  0  0  0  0  0  0  0  0  0  0  0
   12.9780   -4.3300   26.0900 C   0  0  0  0  0  0  0  0  0  0  0  0
    8.4300   -3.8690   27.3450 C   0  0  0  0  0  0  0  0  0  0  0  0
    7.4530   -3.2240   27.1770 N   0  0  0  0  0  0  0  0  0  0  0  0
    6.2720   -3.1050   28.4160 S   0  0  0  0  0  0  0  0  0  0  0  0
    5.0050   -2.7430   27.8290 O   0  0  0  0  0  0  0  0  0  0  0  0
    6.4160   -4.3100   29.2010 O   0  0  0  0  0  0  0  0  0  0  0  0
    6.8510   -1.7510   29.3520 C   0  0  0  0  0  0  0  0  0  0  0  0
    8.1510   -1.4400   29.3410 C   0  0  0  0  0  0  0  0  0  0  0  0
    8.6390   -0.2780   30.1720 C   0  0  0  0  0  0  0  0  0  0  0  0
    7.5620    0.4490   30.9550 C   0  0  0  0  0  0  0  0  0  0  0  0
    6.2620    0.0850   30.9150 N   0  0  0  0  0  0  0  0  0  0  0  0
    5.9440   -0.9980   30.1220 C   0  0  0  0  0  0  0  0  0  0  0  0
    9.7010   -1.7360   22.5010 C   0  0  0  0  0  0  0  0  0  0  0  0
    9.3030   -2.9880   21.7070 C   0  0  0  0  0  0  0  0  0  0  0  0
  1  2  2  3
  1  3  1  0
  3  4  1  0
  4  5  1  0
  5  6  1  0
  6  7  1  0
  7  8  2  0
  7  9  1  0
  9 10  1  0
  9 11  1  0
 11 12  1  6
 11 13  1  0
 13 14  2  0
 14 15  1  0
 15 16  2  0
 16 17  1  0
 17 18  1  0
 13 19  1  0
 17 19  2  0
 19 20  1  0
 20 21  2  0
 21 22  1  0
 22 23  1  0
 23 24  1  0
 24 25  1  0
 22 26  2  0
 20 27  1  0
 26 27  1  0
 27 28  1  0
 28 29  2  0
 28 30  2  0
 28 31  1  0
 31 32  2  0
 32 33  1  0
 33 34  2  0
 34 35  1  0
 31 36  1  0
 35 36  2  0
  6 37  1  0
  3 38  1  0
 37 38  1  0
M  END
