MAK-UNK-af83ef51-28-chloroacetamide
     RDKit          3D

 30 33  0  0  0  0  0  0  0  0999 V2000
    7.1680   -2.9690   18.7670 C   0  0  0  0  0  0  0  0  0  0  0  0
    6.2500   -3.2800   19.9020 C   0  0  0  0  0  0  0  0  0  0  0  0
    5.3870   -4.1500   19.7560 O   0  0  0  0  0  0  0  0  0  0  0  0
    6.5080   -2.5250   21.0370 N   0  0  0  0  0  0  0  0  0  0  0  0
    7.3700   -1.3880   21.1050 C   0  0  0  0  0  0  0  0  0  0  0  0
    8.6020   -1.6040   21.7240 C   0  0  0  0  0  0  0  0  0  0  0  0
    8.4590   -2.1280   23.0990 N   0  0  0  0  0  0  0  0  0  0  0  0
    9.7910   -2.2780   23.7540 C   0  0  0  0  0  0  0  0  0  0  0  0
   10.5460   -1.1150   23.6280 C   0  0  0  0  0  0  0  0  0  0  0  0
   10.0640    0.1310   23.9870 C   0  0  0  0  0  0  0  0  0  0  0  0
    8.7420    0.5540   24.5690 C   0  0  0  0  0  0  0  0  0  0  0  0
    7.8180   -0.2060   24.8460 O   0  0  0  0  0  0  0  0  0  0  0  0
    6.9630    0.1810   25.8410 C   0  0  0  0  0  0  0  0  0  0  0  0
    7.2680    0.0290   27.3010 C   0  0  0  0  0  0  0  0  0  0  0  0
    6.2210    0.5040   28.2840 C   0  0  0  0  0  0  0  0  0  0  0  0
    5.0000    1.0710   27.8940 C   0  0  0  0  0  0  0  0  0  0  0  0
    4.0160    1.5210   28.8870 N   0  0  0  0  0  0  0  0  0  0  0  0
    4.1960    1.1910   30.2140 C   0  0  0  0  0  0  0  0  0  0  0  0
    2.9610    1.6140   30.9530 C   0  0  0  0  0  0  0  0  0  0  0  0
    4.7260    1.2080   26.5300 N   0  0  0  0  0  0  0  0  0  0  0  0
    5.7210    0.7560   25.5510 C   0  0  0  0  0  0  0  0  0  0  0  0
    8.7040    1.9310   24.7490 N   0  0  0  0  0  0  0  0  0  0  0  0
    9.8050    2.8830   24.4190 N   0  0  0  0  0  0  0  0  0  0  0  0
   11.0170    2.5070   23.8940 C   0  0  0  0  0  0  0  0  0  0  0  0
   11.0760    1.0380   23.6990 C   0  0  0  0  0  0  0  0  0  0  0  0
   12.2380    0.2760   23.1500 C   0  0  0  0  0  0  0  0  0  0  0  0
   11.8830   -1.0690   23.1100 N   0  0  0  0  0  0  0  0  0  0  0  0
   12.7670   -2.1020   22.6160 C   0  0  0  0  0  0  0  0  0  0  0  0
    7.6060   -3.3240   23.1590 C   0  0  0  0  0  0  0  0  0  0  0  0
    6.2940   -3.1680   22.3400 C   0  0  0  0  0  0  0  0  0  0  0  0
  1  2  1  0
  2  3  2  0
  2  4  1  0
  4  5  1  0
  5  6  1  0
  6  7  1  0
  7  8  1  0
  8  9  1  0
  9 10  2  0
 10 11  1  0
 11 12  1  0
 12 13  1  0
 13 14  2  0
 14 15  1  0
 15 16  2  0
 16 17  1  0
 17 18  1  0
 18 19  1  0
 16 20  1  0
 13 21  1  0
 20 21  2  0
 11 22  2  0
 22 23  1  0
 23 24  2  0
 10 25  1  0
 24 25  1  0
 25 26  2  0
  9 27  1  0
 26 27  1  0
 27 28  1  0
  7 29  1  0
  4 30  1  0
 29 30  1  0
M  END
