MAK-UNK-194150d3-17
     RDKit          3D

 19 20  0  0  0  0  0  0  0  0999 V2000
    3.3210    0.4450   22.3060 C   0  0  0  0  0  0  0  0  0  0  0  0
    2.6650    1.3490   21.3580 C   0  0  0  0  0  0  0  0  0  0  0  0
    1.2510    1.6630   21.4120 N   0  0  0  0  0  0  0  0  0  0  0  0
    0.7230    2.5820   20.4190 C   0  0  0  0  0  0  0  0  0  0  0  0
    1.3730    3.2290   19.3970 N   0  0  0  0  0  0  0  0  0  0  0  0
    2.6660    2.9230   19.3610 C   0  0  0  0  0  0  0  0  0  0  0  0
    3.4340    2.0480   20.2220 C   0  0  0  0  0  0  0  0  0  0  0  0
    4.9280    1.7900   20.0730 C   0  0  0  0  0  0  0  0  0  0  0  0
    5.3370    0.3150   20.2680 C   0  0  0  0  0  0  0  0  0  0  0  0
    6.8700    0.0830   20.0810 C   0  0  0  0  0  0  0  0  0  0  0  0
    7.3690   -0.2560   21.4140 N   0  0  0  0  0  0  0  0  0  0  0  0
    8.7530    0.1610   21.6660 C   0  0  0  0  0  0  0  0  0  0  0  0
    9.2330   -0.0730   23.0980 C   0  0  0  0  0  0  0  0  0  0  0  0
   10.6100   -0.5710   23.3110 C   0  0  0  0  0  0  0  0  0  0  0  0
   11.4080   -1.3240   22.2540 C   0  0  0  0  0  0  0  0  0  0  0  0
   12.6930   -1.7630   22.5370 C   0  0  0  0  0  0  0  0  0  0  0  0
   13.1940   -1.4890   23.7970 C   0  0  0  0  0  0  0  0  0  0  0  0
   12.5010   -0.8080   24.7750 C   0  0  0  0  0  0  0  0  0  0  0  0
   11.2210   -0.3490   24.5470 C   0  0  0  0  0  0  0  0  0  0  0  0
  1  2  1  0
  2  3  2  0
  3  4  1  0
  4  5  2  0
  5  6  1  0
  2  7  1  0
  6  7  2  0
  7  8  1  0
  8  9  3  0
  9 10  1  0
 10 11  1  0
 11 12  1  0
 12 13  1  0
 13 14  1  0
 14 15  2  0
 15 16  1  0
 16 17  2  0
 17 18  1  0
 14 19  1  0
 18 19  2  0
M  END
