MAK-UNK-c7aa8293-9
     RDKit          3D

 27 29  0  0  0  0  0  0  0  0999 V2000
   20.1520   -1.6080   27.2840 N   0  0  0  0  0  0  0  0  0  0  0  0
   19.7410   -2.1750   26.3710 C   0  0  0  0  0  0  0  0  0  0  0  0
   18.9140   -2.9270   25.5250 C   0  0  1  0  0  0  0  0  0  0  0  0
   17.6010   -2.8950   25.5100 O   0  0  0  0  0  0  0  0  0  0  0  0
   16.7170   -4.0750   25.0870 C   0  0  1  0  0  0  0  0  0  0  0  0
   15.0930   -3.5420   25.1980 C   0  0  2  0  0  0  0  0  0  0  0  0
   14.0960   -4.2590   25.9600 C   0  0  0  0  0  0  0  0  0  0  0  0
   12.6880   -4.0940   26.0790 C   0  0  0  0  0  0  0  0  0  0  0  0
   11.8510   -3.3070   25.0530 C   0  0  1  0  0  0  0  0  0  0  0  0
   10.6330   -2.6000   25.4760 N   0  0  0  0  0  0  0  0  0  0  0  0
    9.4730   -3.4890   25.6580 C   0  0  0  0  0  0  0  0  0  0  0  0
    9.1790   -4.2270   24.4310 C   0  0  0  0  0  0  0  0  0  0  0  0
    7.4580   -4.0780   23.9650 S   0  0  0  0  0  0  0  0  0  0  0  0
    7.3180   -3.3460   22.7240 O   0  0  0  0  0  0  0  0  0  0  0  0
    6.6720   -3.7520   25.1300 O   0  0  0  0  0  0  0  0  0  0  0  0
    7.1410   -5.6180   23.6000 O   0  0  0  0  0  0  0  0  0  0  0  0
   12.9300   -2.4090   24.6430 C   0  0  0  0  0  0  0  0  0  0  0  0
   14.0860   -2.8840   24.0910 C   0  0  0  0  0  0  0  0  0  0  0  0
   17.6500   -4.4710   23.8580 C   0  0  0  0  0  0  0  0  0  0  0  0
   18.8040   -3.5400   23.3620 C   0  0  0  0  0  0  0  0  0  0  0  0
   19.4320   -2.7440   24.2550 C   0  0  0  0  0  0  0  0  0  0  0  0
   20.4730   -1.8380   24.0870 C   0  0  0  0  0  0  0  0  0  0  0  0
   21.0690   -1.6450   22.7350 C   0  0  0  0  0  0  0  0  0  0  0  0
   20.4470   -2.4660   21.7040 C   0  0  0  0  0  0  0  0  0  0  0  0
   20.9390   -2.3270   20.4570 O   0  0  0  0  0  0  0  0  0  0  0  0
   19.3680   -3.3660   22.0190 C   0  0  0  0  0  0  0  0  0  0  0  0
   18.9300   -4.0500   20.9270 O   0  0  0  0  0  0  0  0  0  0  0  0
  1  2  1  0
  3  2  1  1
  3  4  1  0
  4  5  1  0
  5  6  1  0
  6  7  1  6
  7  8  1  0
  8  9  1  0
  9 10  1  1
 10 11  1  0
 11 12  1  0
 12 13  1  0
 13 14  2  0
 13 15  2  0
 13 16  1  0
  9 17  1  0
  6 18  1  0
 17 18  1  0
  5 19  1  6
 19 20  1  0
  3 21  1  0
 20 21  2  0
 21 22  1  0
 22 23  2  0
 23 24  1  0
 24 25  1  0
 20 26  1  0
 24 26  2  0
 26 27  1  0
M  END
