MAK-UNK-987948f6-7-vinylsulfonamide
     RDKit          3D

 22 23  0  0  0  0  0  0  0  0999 V2000
    7.8090   -3.6280   20.1450 C   0  0  0  0  0  0  0  0  0  0  0  0
    7.1630   -2.6040   19.2080 C   0  0  0  0  0  0  0  0  0  0  0  0
    5.4670   -2.3830   19.6750 S   0  0  0  0  0  0  0  0  0  0  0  0
    4.7870   -3.6480   19.4680 O   0  0  0  0  0  0  0  0  0  0  0  0
    5.0180   -1.1760   19.0310 O   0  0  0  0  0  0  0  0  0  0  0  0
    5.4970   -2.0490   21.3500 N   0  0  0  0  0  0  0  0  0  0  0  0
    6.4240   -2.8450   22.1710 C   0  0  0  0  0  0  0  0  0  0  0  0
    6.0630   -3.5550   23.3860 C   0  0  0  0  0  0  0  0  0  0  0  0
    7.2420   -3.8610   23.3410 C   0  0  0  0  0  0  0  0  0  0  0  0
    7.8660   -4.6880   24.2730 C   0  0  0  0  0  0  0  0  0  0  0  0
    8.4910   -5.3950   24.9720 N   0  0  0  0  0  0  0  0  0  0  0  0
    8.2520   -3.7110   22.7040 C   0  0  0  0  0  0  0  0  0  0  0  0
    7.0830   -4.0230   23.6420 C   0  0  0  0  0  0  0  0  0  0  0  0
    7.2510   -4.8660   24.8190 C   0  0  0  0  0  0  0  0  0  0  0  0
    6.8930   -5.7670   25.7860 O   0  0  0  0  0  0  0  0  0  0  0  0
    5.9190   -5.2310   24.4720 N   0  0  0  0  0  0  0  0  0  0  0  0
    4.9600   -5.2750   25.5930 C   0  0  0  0  0  0  0  0  0  0  0  0
    3.6600   -4.6170   25.3220 C   0  0  0  0  0  0  0  0  0  0  0  0
    2.9890   -5.0870   23.6850 S   0  0  0  0  0  0  0  0  0  0  0  0
    4.1390   -6.4570   23.3100 C   0  0  0  0  0  0  0  0  0  0  0  0
    5.5490   -6.0160   23.2730 C   0  0  0  0  0  0  0  0  0  0  0  0
    5.6200   -3.3000   23.1880 C   0  0  0  0  0  0  0  0  0  0  0  0
  1  2  1  0
  2  3  1  0
  3  4  2  0
  3  5  2  0
  3  6  1  0
  6  7  1  0
  7  8  2  0
  8  9  1  0
  9 10  1  0
 10 11  3  0
  9 12  2  0
 12 13  1  0
 13 14  1  0
 14 15  2  0
 14 16  1  0
 16 17  1  0
 17 18  1  0
 18 19  1  0
 19 20  1  0
 16 21  1  0
 20 21  1  0
  7 22  1  0
 13 22  2  0
M  END
