MAK-UNK-1bb0b7ee-5
     RDKit          3D

 30 34  0  0  0  0  0  0  0  0999 V2000
    3.8380   -1.6560   29.6390 C   0  0  0  0  0  0  0  0  0  0  0  0
    3.6330   -2.9270   30.4510 C   0  0  0  0  0  0  0  0  0  0  0  0
    4.1150   -4.3560   30.0980 C   0  0  0  0  0  0  0  0  0  0  0  0
    4.7670   -4.0480   28.8350 C   0  0  0  0  0  0  0  0  0  0  0  0
    5.3390   -5.1790   28.2410 C   0  0  0  0  0  0  0  0  0  0  0  0
    5.8990   -4.9890   26.9960 C   0  0  0  0  0  0  0  0  0  0  0  0
    7.2170   -5.5980   26.9560 O   0  0  0  0  0  0  0  0  0  0  0  0
    7.3670   -6.0900   25.6910 C   0  0  0  0  0  0  0  0  0  0  0  0
    6.2970   -5.7320   24.8730 C   0  0  0  0  0  0  0  0  0  0  0  0
    6.2530   -6.1810   23.4360 C   0  0  0  0  0  0  0  0  0  0  0  0
    7.3920   -7.0150   22.9050 C   0  0  0  0  0  0  0  0  0  0  0  0
    8.5460   -7.3760   23.8380 C   0  0  0  0  0  0  0  0  0  0  0  0
    8.4830   -6.8810   25.2740 C   0  0  0  0  0  0  0  0  0  0  0  0
    9.7000   -7.3020   26.2040 C   0  0  0  0  0  0  0  0  0  0  0  0
   10.1140   -9.1400   26.4980 N   0  0  0  0  0  0  0  0  0  0  0  0
   10.0000  -10.6970   28.0400 C   0  0  0  0  0  0  0  0  0  0  0  0
   10.4760  -11.9240   28.3090 N   0  0  0  0  0  0  0  0  0  0  0  0
   10.1210  -12.5270   29.4590 C   0  0  0  0  0  0  0  0  0  0  0  0
   10.5170  -13.7360   29.9430 C   0  0  0  0  0  0  0  0  0  0  0  0
   10.1130  -14.3610   31.2950 C   0  0  0  0  0  0  0  0  0  0  0  0
    9.2350  -13.6390   32.0570 C   0  0  0  0  0  0  0  0  0  0  0  0
    8.6840  -12.3040   31.5740 C   0  0  0  0  0  0  0  0  0  0  0  0
    9.2870  -11.8050   30.1430 C   0  0  0  0  0  0  0  0  0  0  0  0
    9.1890  -10.6630   29.2590 N   0  0  0  0  0  0  0  0  0  0  0  0
    6.3710   -5.7540   29.2290 C   0  0  0  0  0  0  0  0  0  0  0  0
    5.6340   -6.7960   30.1310 C   0  0  0  0  0  0  0  0  0  0  0  0
    4.3230   -7.1250   29.4350 C   0  0  0  0  0  0  0  0  0  0  0  0
    4.3070   -6.3340   28.1290 C   0  0  0  0  0  0  0  0  0  0  0  0
    4.9550   -2.9150   28.0950 N   0  0  0  0  0  0  0  0  0  0  0  0
    4.5020   -1.7420   28.4890 C   0  0  0  0  0  0  0  0  0  0  0  0
  1  2  2  0
  2  3  1  0
  3  4  2  0
  4  5  1  0
  5  6  1  0
  6  7  1  0
  7  8  1  0
  8  9  2  0
  9 10  1  0
 10 11  2  0
 11 12  1  0
  8 13  1  0
 12 13  2  0
 13 14  1  0
 14 15  1  0
 15 16  1  0
 16 17  2  0
 17 18  1  0
 18 19  2  0
 19 20  1  0
 20 21  2  0
 21 22  1  0
 18 23  1  0
 22 23  2  0
 16 24  1  0
 23 24  1  0
  5 25  1  0
 25 26  1  0
 26 27  1  0
  5 28  1  0
 27 28  1  0
  4 29  1  0
  1 30  1  0
 29 30  2  0
M  END
