MAK-UNK-849bee6c-25-acrylamide
     RDKit          3D

 32 34  0  0  0  0  0  0  0  0999 V2000
    7.1230   -2.9280   18.8540 C   0  0  0  0  0  0  0  0  0  0  0  0
    5.9280   -3.2940   19.6970 C   0  0  0  0  0  0  0  0  0  0  0  0
    5.9380   -2.9180   21.1650 C   0  0  0  0  0  0  0  0  0  0  0  0
    4.8500   -3.3720   21.7030 O   0  0  0  0  0  0  0  0  0  0  0  0
    7.0780   -2.1350   21.7760 N   0  0  0  0  0  0  0  0  0  0  0  0
    7.8740   -2.5390   22.8560 C   0  0  0  0  0  0  0  0  0  0  0  0
    9.3640   -1.9450   23.0680 C   0  0  0  0  0  0  0  0  0  0  0  0
    9.6460   -0.4860   22.7500 N   0  0  0  0  0  0  0  0  0  0  0  0
   11.2300   -0.1480   22.7140 C   0  0  0  0  0  0  0  0  0  0  0  0
   11.9400    1.3480   22.6890 C   0  0  0  0  0  0  0  0  0  0  0  0
   11.1540    2.4690   22.9970 C   0  0  0  0  0  0  0  0  0  0  0  0
   11.6860    3.7690   23.0070 C   0  0  0  0  0  0  0  0  0  0  0  0
   10.8460    4.8270   23.3340 C   0  0  0  0  0  0  0  0  0  0  0  0
   13.0400    4.0430   22.7050 C   0  0  0  0  0  0  0  0  0  0  0  0
   13.9730    3.0550   22.3650 C   0  0  0  0  0  0  0  0  0  0  0  0
   15.4600    3.5370   22.0700 N   0  0  0  0  0  0  0  0  0  0  0  0
   16.9300    3.9190   22.7420 C   0  0  0  0  0  0  0  0  0  0  0  0
   17.8130    4.6850   21.9670 C   0  0  0  0  0  0  0  0  0  0  0  0
   19.0930    5.1690   22.1910 C   0  0  0  0  0  0  0  0  0  0  0  0
   19.7230    5.9410   21.2020 N   0  0  0  0  0  0  0  0  0  0  0  0
   20.7420    6.8450   21.3970 C   0  0  0  0  0  0  0  0  0  0  0  0
   21.7190    6.6950   22.1300 O   0  0  0  0  0  0  0  0  0  0  0  0
   20.6040    8.0290   20.6740 C   0  0  0  0  0  0  0  0  0  0  0  0
   22.1550    8.8980   20.7040 Cl  0  0  0  0  0  0  0  0  0  0  0  0
   19.6790    4.8160   23.4500 N   0  0  0  0  0  0  0  0  0  0  0  0
   18.7880    3.9900   24.2490 C   0  0  0  0  0  0  0  0  0  0  0  0
   19.5000    3.5810   25.5570 C   0  0  0  0  0  0  0  0  0  0  0  0
   20.0920    3.2840   26.5140 N   0  0  0  0  0  0  0  0  0  0  0  0
   17.5110    3.5730   23.9500 N   0  0  0  0  0  0  0  0  0  0  0  0
   13.3750    1.6740   22.3670 C   0  0  0  0  0  0  0  0  0  0  0  0
    8.8860   -0.2830   21.4970 C   0  0  0  0  0  0  0  0  0  0  0  0
    7.3520   -0.6900   21.5310 C   0  0  0  0  0  0  0  0  0  0  0  0
  1  2  1  0
  2  3  1  0
  3  4  2  0
  3  5  1  0
  5  6  1  0
  6  7  1  0
  7  8  1  0
  8  9  1  0
  9 10  1  0
 10 11  2  0
 11 12  1  0
 12 13  1  0
 12 14  2  0
 14 15  1  0
 15 16  1  0
 16 17  1  0
 17 18  2  0
 18 19  1  0
 19 20  1  0
 20 21  1  0
 21 22  2  0
 21 23  1  0
 23 24  1  0
 19 25  2  0
 25 26  1  0
 26 27  1  0
 27 28  3  0
 17 29  1  0
 26 29  2  0
 10 30  1  0
 15 30  2  0
  8 31  1  0
  5 32  1  0
 31 32  1  0
M  END
