MAK-UNK-8fdbca50-40-chloroacetamide
     RDKit          3D

 39 42  0  0  0  0  0  0  0  0999 V2000
    7.6470   -5.2410   20.7980 C   0  0  0  0  0  0  0  0  0  0  0  0
    6.1540   -5.4290   20.6460 C   0  0  0  0  0  0  0  0  0  0  0  0
    5.6070   -6.1300   19.8140 O   0  0  0  0  0  0  0  0  0  0  0  0
    5.3940   -4.7210   21.5770 N   0  0  0  0  0  0  0  0  0  0  0  0
    4.8270   -5.6370   22.5220 C   0  0  0  0  0  0  0  0  0  0  0  0
    5.8850   -6.3210   23.0760 C   0  0  0  0  0  0  0  0  0  0  0  0
    6.6870   -5.5350   23.9140 C   0  0  0  0  0  0  0  0  0  0  0  0
    6.2800   -5.4050   25.3190 C   0  0  0  0  0  0  0  0  0  0  0  0
    7.1670   -5.2330   26.1510 O   0  0  0  0  0  0  0  0  0  0  0  0
    4.8570   -5.4930   25.7410 C   0  0  2  0  0  0  0  0  0  0  0  0
    4.1400   -6.6030   25.3230 C   0  0  0  0  0  0  0  0  0  0  0  0
    4.1650   -4.3370   25.4900 N   0  0  0  0  0  0  0  0  0  0  0  0
    4.4680   -3.3120   24.6660 C   0  0  0  0  0  0  0  0  0  0  0  0
    5.6490   -2.4670   25.0580 C   0  0  0  0  0  0  0  0  0  0  0  0
    5.7900   -2.2080   26.5190 C   0  0  0  0  0  0  0  0  0  0  0  0
    7.0110   -1.3800   26.5630 C   0  0  0  0  0  0  0  0  0  0  0  0
    7.3540   -0.9880   27.9910 C   0  0  0  0  0  0  0  0  0  0  0  0
    8.6530   -1.0480   28.4410 C   0  0  0  0  0  0  0  0  0  0  0  0
    8.9330   -0.6560   29.8780 C   0  0  0  0  0  0  0  0  0  0  0  0
    7.8810   -0.2490   30.7020 C   0  0  0  0  0  0  0  0  0  0  0  0
    6.5860   -0.2050   30.1950 C   0  0  0  0  0  0  0  0  0  0  0  0
    6.3290   -0.5650   28.8710 C   0  0  0  0  0  0  0  0  0  0  0  0
    5.0560   -0.5010   28.4440 F   0  0  0  0  0  0  0  0  0  0  0  0
    7.5580   -1.1490   25.3430 N   0  0  0  0  0  0  0  0  0  0  0  0
    8.9570   -0.2460   24.9500 S   0  0  0  0  0  0  0  0  0  0  0  0
    8.4930    0.8610   24.1330 O   0  0  0  0  0  0  0  0  0  0  0  0
    9.6480    0.0160   26.1780 O   0  0  0  0  0  0  0  0  0  0  0  0
   10.0110   -1.1770   23.8570 C   0  0  0  0  0  0  0  0  0  0  0  0
   11.0390   -1.7370   22.9880 C   0  0  0  0  0  0  0  0  0  0  0  0
   12.4060   -1.1640   22.5800 C   0  0  0  0  0  0  0  0  0  0  0  0
   12.7180    0.1380   23.1670 C   0  0  0  0  0  0  0  0  0  0  0  0
   11.8550    0.6960   23.9610 N   0  0  0  0  0  0  0  0  0  0  0  0
   10.6710    0.0620   24.2310 C   0  0  0  0  0  0  0  0  0  0  0  0
    6.7290   -1.8120   24.3930 C   0  0  0  0  0  0  0  0  0  0  0  0
    4.9070   -5.6510   27.3330 C   0  0  0  0  0  0  0  0  0  0  0  0
    4.4840   -6.9130   27.7900 C   0  0  0  0  0  0  0  0  0  0  0  0
    6.2560   -5.3120   27.9940 C   0  0  0  0  0  0  0  0  0  0  0  0
    7.0760   -4.1700   23.2900 C   0  0  0  0  0  0  0  0  0  0  0  0
    6.0610   -3.6380   22.2660 C   0  0  0  0  0  0  0  0  0  0  0  0
  1  2  1  0
  2  3  2  0
  2  4  1  0
  4  5  1  0
  5  6  1  0
  6  7  1  0
  7  8  1  0
  8  9  2  0
 10  8  1  0
 10 11  1  6
 10 12  1  0
 12 13  1  0
 13 14  1  0
 14 15  1  0
 15 16  2  0
 16 17  1  0
 17 18  2  0
 18 19  1  0
 19 20  2  0
 20 21  1  0
 17 22  1  0
 21 22  2  0
 22 23  1  0
 16 24  1  0
 24 25  1  0
 25 26  2  0
 25 27  2  0
 25 28  1  0
 28 29  2  0
 29 30  1  0
 30 31  2  0
 31 32  1  0
 28 33  1  0
 32 33  2  0
 14 34  2  0
 24 34  1  0
 10 35  1  0
 35 36  1  0
 35 37  1  0
  7 38  1  0
  4 39  1  0
 38 39  1  0
M  END
