MAK-UNK-ec98eaf6-24-acrylamide
     RDKit          3D

 24 27  0  0  0  0  0  0  0  0999 V2000
    7.3880   -2.7720   18.3690 C   0  0  0  0  0  0  0  0  0  0  0  0
    6.1650   -2.1750   19.0010 C   0  0  0  0  0  0  0  0  0  0  0  0
    5.7630   -2.9660   20.1900 C   0  0  0  0  0  0  0  0  0  0  0  0
    5.2250   -4.0810   20.0870 O   0  0  0  0  0  0  0  0  0  0  0  0
    6.1250   -2.3290   21.3320 N   0  0  0  0  0  0  0  0  0  0  0  0
    6.9220   -1.0690   21.2070 C   0  0  0  0  0  0  0  0  0  0  0  0
    7.8590   -1.0900   22.4480 C   0  0  1  0  0  0  0  0  0  0  0  0
    6.5400   -1.3630   23.1830 C   0  0  0  0  0  0  0  0  0  0  0  0
    6.1510   -2.7280   22.7480 C   0  0  2  0  0  0  0  0  0  0  0  0
    7.4860   -3.2970   23.1770 C   0  0  0  0  0  0  0  0  0  0  0  0
    7.9940   -1.9640   23.6300 N   0  0  0  0  0  0  0  0  0  0  0  0
    9.2470   -1.9240   24.3610 C   0  0  0  0  0  0  0  0  0  0  0  0
   10.3460   -0.9610   23.8220 C   0  0  0  0  0  0  0  0  0  0  0  0
   10.3300    0.4760   24.3000 C   0  0  0  0  0  0  0  0  0  0  0  0
   11.3760    1.4600   23.8190 C   0  0  0  0  0  0  0  0  0  0  0  0
   11.5640    2.7750   24.0080 O   0  0  0  0  0  0  0  0  0  0  0  0
   12.0770    3.5330   22.9090 C   0  0  0  0  0  0  0  0  0  0  0  0
   12.3410    1.0210   23.0260 C   0  0  0  0  0  0  0  0  0  0  0  0
   12.2930   -0.3650   22.5850 C   0  0  0  0  0  0  0  0  0  0  0  0
   13.4060   -0.5810   21.6990 C   0  0  0  0  0  0  0  0  0  0  0  0
   13.5580   -1.8510   20.9930 C   0  0  0  0  0  0  0  0  0  0  0  0
   12.5720   -2.8670   21.2770 C   0  0  0  0  0  0  0  0  0  0  0  0
   11.5000   -2.5340   22.2600 C   0  0  0  0  0  0  0  0  0  0  0  0
   11.3530   -1.2850   22.9180 C   0  0  0  0  0  0  0  0  0  0  0  0
  1  2  1  0
  2  3  1  0
  3  4  2  0
  3  5  1  0
  5  6  1  0
  7  6  1  6
  7  8  1  0
  5  9  1  0
  8  9  1  0
  9 10  1  6
  7 11  1  0
 10 11  1  0
 11 12  1  0
 12 13  1  0
 13 14  2  0
 14 15  1  0
 15 16  1  0
 16 17  1  0
 15 18  2  0
 18 19  1  0
 19 20  1  0
 20 21  2  0
 21 22  1  0
 22 23  2  0
 13 24  1  0
 19 24  2  0
 23 24  1  0
M  END
