MAK-UNK-10799360-18-nitrile
     RDKit          3D

 26 29  0  0  0  0  0  0  0  0999 V2000
    7.3840   -3.7170   20.0930 C   0  0  0  0  0  0  0  0  0  0  0  0
    6.1760   -4.0570   19.7590 N   0  0  0  0  0  0  0  0  0  0  0  0
    7.7280   -3.1950   21.3170 N   0  0  0  0  0  0  0  0  0  0  0  0
    8.0340   -1.7720   21.6020 C   0  0  0  0  0  0  0  0  0  0  0  0
    8.8520   -1.8670   22.9420 C   0  0  2  0  0  0  0  0  0  0  0  0
    9.3780   -0.3810   22.8540 C   0  0  0  0  0  0  0  0  0  0  0  0
   10.1830    1.0140   22.7810 C   0  0  0  0  0  0  0  0  0  0  0  0
   11.7030    1.1880   22.8130 C   0  0  0  0  0  0  0  0  0  0  0  0
   12.3410    2.8580   22.7250 S   0  0  0  0  0  0  0  0  0  0  0  0
   11.7390    3.5720   23.8140 O   0  0  0  0  0  0  0  0  0  0  0  0
   13.7450    2.7640   22.4430 O   0  0  0  0  0  0  0  0  0  0  0  0
   11.7890    3.8610   21.5520 N   0  0  0  0  0  0  0  0  0  0  0  0
   12.3680    5.2040   21.7510 C   0  0  0  0  0  0  0  0  0  0  0  0
   12.5750    0.1860   22.9110 C   0  0  0  0  0  0  0  0  0  0  0  0
   11.9370   -1.1180   23.0050 C   0  0  0  0  0  0  0  0  0  0  0  0
   10.5430   -1.2910   22.9780 C   0  0  0  0  0  0  0  0  0  0  0  0
   10.2810   -2.6370   23.1110 C   0  0  0  0  0  0  0  0  0  0  0  0
   11.2380   -3.1230   24.1140 N   0  0  0  0  0  0  0  0  0  0  0  0
    9.4840   -3.2230   22.4290 C   0  0  0  0  0  0  0  0  0  0  0  0
    8.2470   -3.9040   22.3830 C   0  0  1  0  0  0  0  0  0  0  0  0
    7.5330   -3.5720   23.5100 C   0  0  0  0  0  0  0  0  0  0  0  0
    6.6060   -4.3630   24.1680 C   0  0  0  0  0  0  0  0  0  0  0  0
    5.9570   -3.8710   25.3230 C   0  0  0  0  0  0  0  0  0  0  0  0
    6.2500   -2.5900   25.8000 C   0  0  0  0  0  0  0  0  0  0  0  0
    7.1890   -1.7900   25.1310 C   0  0  0  0  0  0  0  0  0  0  0  0
    7.8150   -2.3190   23.9800 C   0  0  0  0  0  0  0  0  0  0  0  0
  1  2  2  3
  1  3  1  0
  3  4  1  0
  4  5  1  0
  5  6  1  1
  6  7  2  0
  7  8  1  0
  8  9  1  0
  9 10  2  0
  9 11  2  0
  9 12  1  0
 12 13  1  0
  8 14  2  0
 14 15  1  0
  6 16  1  0
 15 16  2  0
 16 17  1  0
 17 18  3  0
  5 19  1  0
 20  3  1  6
 19 20  1  0
 20 21  1  0
 21 22  1  0
 22 23  2  0
 23 24  1  0
 24 25  2  0
  5 26  1  0
 21 26  2  0
 25 26  1  0
M  END
