MAK-UNK-e4a48a85-20-vinylsulfonamide
     RDKit          3D

 23 25  0  0  0  0  0  0  0  0999 V2000
    8.0940   -3.4570   19.7630 C   0  0  0  0  0  0  0  0  0  0  0  0
    6.9700   -2.7710   19.1040 C   0  0  0  0  0  0  0  0  0  0  0  0
    5.7650   -3.3160   20.2040 S   0  0  0  0  0  0  0  0  0  0  0  0
    4.5190   -3.1190   19.5780 O   0  0  0  0  0  0  0  0  0  0  0  0
    6.0850   -4.6430   20.6820 O   0  0  0  0  0  0  0  0  0  0  0  0
    6.1030   -2.2360   21.4570 N   0  0  0  0  0  0  0  0  0  0  0  0
    7.1350   -1.2050   21.2290 C   0  0  0  0  0  0  0  0  0  0  0  0
    8.3860   -1.5080   21.8650 C   0  0  0  0  0  0  0  0  0  0  0  0
    8.1900   -2.0510   23.2560 N   0  0  0  0  0  0  0  0  0  0  0  0
    9.2240   -2.1170   24.1490 C   0  0  0  0  0  0  0  0  0  0  0  0
   10.2150   -1.1930   23.8450 C   0  0  0  0  0  0  0  0  0  0  0  0
   11.4960   -1.5220   23.5290 N   0  0  0  0  0  0  0  0  0  0  0  0
   12.2800   -0.3630   23.2410 C   0  0  0  0  0  0  0  0  0  0  0  0
   11.4420    0.9000   23.3750 C   0  0  0  0  0  0  0  0  0  0  0  0
   11.9590    2.1550   23.1200 C   0  0  0  0  0  0  0  0  0  0  0  0
   11.0650    3.3250   23.0210 C   0  0  0  0  0  0  0  0  0  0  0  0
   11.5140    4.6340   22.9420 C   0  0  0  0  0  0  0  0  0  0  0  0
   10.5050    5.5660   22.8520 C   0  0  0  0  0  0  0  0  0  0  0  0
    8.9520    4.8410   22.8640 S   0  0  0  0  0  0  0  0  0  0  0  0
    9.6680    3.2800   22.9870 C   0  0  0  0  0  0  0  0  0  0  0  0
    9.8480    0.4990   23.8470 S   0  0  0  0  0  0  0  0  0  0  0  0
    7.3070   -3.1940   23.2630 C   0  0  0  0  0  0  0  0  0  0  0  0
    6.0290   -2.8120   22.7880 C   0  0  0  0  0  0  0  0  0  0  0  0
  1  2  1  0
  3  2  1  0
  3  4  2  0
  3  5  2  0
  3  6  1  0
  6  7  1  0
  7  8  1  0
  8  9  1  0
  9 10  1  0
 10 11  1  0
 11 12  2  0
 12 13  1  0
 13 14  2  0
 14 15  1  0
 15 16  1  0
 16 17  1  0
 17 18  2  0
 18 19  1  0
 16 20  2  0
 19 20  1  0
 11 21  1  0
 14 21  1  0
  9 22  1  0
  6 23  1  0
 22 23  1  0
M  END
