MAK-UNK-1cb0e944-11
     RDKit          3D

 21 22  0  0  0  0  0  0  0  0999 V2000
    7.8060   -0.7550   20.3190 N   0  0  0  0  0  0  0  0  0  0  0  0
    8.3310    0.1830   21.6070 S   0  0  0  0  0  0  0  0  0  0  0  0
    8.5240    1.5560   21.1290 O   0  0  0  0  0  0  0  0  0  0  0  0
    7.4340   -0.1000   22.7050 O   0  0  0  0  0  0  0  0  0  0  0  0
    9.9600   -0.5130   21.9480 C   0  0  1  0  0  0  0  0  0  0  0  0
   10.7900    0.1870   22.5480 O   0  0  0  0  0  0  0  0  0  0  0  0
   11.4460   -0.6290   23.5240 C   0  0  1  0  0  0  0  0  0  0  0  0
   10.8070   -0.5500   24.7510 C   0  0  0  0  0  0  0  0  0  0  0  0
    9.2730   -1.3120   24.9020 S   0  0  0  0  0  0  0  0  0  0  0  0
    9.7290   -3.0310   25.2520 C   0  0  0  0  0  0  0  0  0  0  0  0
    8.6050   -4.0280   25.3360 N   0  0  0  0  0  0  0  0  0  0  0  0
    8.9220   -5.3310   25.5450 C   0  0  0  0  0  0  0  0  0  0  0  0
    9.4270   -5.5030   26.8200 C   0  0  0  0  0  0  0  0  0  0  0  0
    8.5540   -5.0600   27.7960 C   0  0  0  0  0  0  0  0  0  0  0  0
    7.9650   -6.1860   28.4410 O   0  0  0  0  0  0  0  0  0  0  0  0
    7.4090   -4.1580   27.3190 C   0  0  0  0  0  0  0  0  0  0  0  0
    7.4930   -3.5920   26.0440 C   0  0  0  0  0  0  0  0  0  0  0  0
   11.3310   -2.0080   22.9060 C   0  0  2  0  0  0  0  0  0  0  0  0
   12.2550   -2.1620   21.8410 O   0  0  0  0  0  0  0  0  0  0  0  0
    9.9930   -1.9440   22.4920 C   0  0  2  0  0  0  0  0  0  0  0  0
    9.8580   -2.9690   21.5000 O   0  0  0  0  0  0  0  0  0  0  0  0
  2  1  1  0
  2  3  2  0
  2  4  2  0
  5  2  1  1
  5  6  1  0
  6  7  1  0
  7  8  1  1
  8  9  1  0
  9 10  1  0
 10 11  1  0
 11 12  1  0
 12 13  1  0
 13 14  1  0
 14 15  1  0
 14 16  1  0
 11 17  1  0
 16 17  1  0
  7 18  1  0
 18 19  1  6
  5 20  1  0
 18 20  1  0
 20 21  1  6
M  END
