MAK-UNK-c44f4be0-4
     RDKit          3D

 32 33  0  0  0  0  0  0  0  0999 V2000
    7.0480    7.1770   20.8670 C   0  0  0  0  0  0  0  0  0  0  0  0
    5.8020    8.1270   21.7150 S   0  0  0  0  0  0  0  0  0  0  0  0
    4.5510    7.4190   21.5970 O   0  0  0  0  0  0  0  0  0  0  0  0
    5.9650    9.5260   21.4060 O   0  0  0  0  0  0  0  0  0  0  0  0
    6.2570    7.9530   23.3140 N   0  0  0  0  0  0  0  0  0  0  0  0
    7.3320    8.8440   23.8170 C   0  0  0  0  0  0  0  0  0  0  0  0
    8.7130    8.2360   23.6370 C   0  0  0  0  0  0  0  0  0  0  0  0
    8.9100    6.7640   23.8810 C   0  0  0  0  0  0  0  0  0  0  0  0
   10.0290    6.3280   24.6200 C   0  0  0  0  0  0  0  0  0  0  0  0
   10.2240    4.9750   24.8520 C   0  0  0  0  0  0  0  0  0  0  0  0
    9.2910    4.0910   24.3360 C   0  0  0  0  0  0  0  0  0  0  0  0
    8.1700    4.4660   23.6000 C   0  0  0  0  0  0  0  0  0  0  0  0
    7.2920    3.4870   23.1310 C   0  0  0  0  0  0  0  0  0  0  0  0
    5.9120    3.6150   23.4490 O   0  0  0  0  0  0  0  0  0  0  0  0
    7.8530    2.4580   22.4250 N   0  0  0  0  0  0  0  0  0  0  0  0
    7.7300    1.1240   23.0030 C   0  0  1  0  0  0  0  0  0  0  0  0
    6.4430    0.4810   22.5290 C   0  0  0  0  0  0  0  0  0  0  0  0
    6.2120    0.5130   21.1470 C   0  0  0  0  0  0  0  0  0  0  0  0
    6.9590   -0.3290   20.2870 C   0  0  0  0  0  0  0  0  0  0  0  0
    6.7290   -0.2900   18.9310 C   0  0  0  0  0  0  0  0  0  0  0  0
    5.7880    0.5510   18.3830 C   0  0  0  0  0  0  0  0  0  0  0  0
    5.5690    0.5820   17.0760 O   0  0  0  0  0  0  0  0  0  0  0  0
    5.0460    1.3840   19.1850 C   0  0  0  0  0  0  0  0  0  0  0  0
    5.2310    1.3940   20.5860 C   0  0  0  0  0  0  0  0  0  0  0  0
    8.9680    0.3400   22.5440 C   0  0  0  0  0  0  0  0  0  0  0  0
    9.9090    0.8870   21.9750 O   0  0  0  0  0  0  0  0  0  0  0  0
    8.9440   -1.0800   22.8340 N   0  0  0  0  0  0  0  0  0  0  0  0
    9.7060   -1.9410   22.0830 C   0  0  0  0  0  0  0  0  0  0  0  0
   11.1470   -1.5360   21.9820 C   0  0  0  0  0  0  0  0  0  0  0  0
   12.1270   -1.8490   23.0580 C   0  0  0  0  0  0  0  0  0  0  0  0
   13.3000   -2.2890   24.4750 Br  0  0  0  0  0  0  0  0  0  0  0  0
    7.9860    5.8310   23.3730 C   0  0  0  0  0  0  0  0  0  0  0  0
  1  2  1  0
  2  3  2  0
  2  4  2  0
  2  5  1  0
  5  6  1  0
  6  7  1  0
  7  8  1  0
  8  9  2  0
  9 10  1  0
 10 11  2  0
 11 12  1  0
 12 13  1  0
 13 14  2  0
 13 15  1  0
 15 16  1  0
 16 17  1  6
 17 18  1  0
 18 19  2  0
 19 20  1  0
 20 21  2  0
 21 22  1  0
 21 23  1  0
 18 24  1  0
 23 24  2  0
 16 25  1  0
 25 26  2  0
 25 27  1  0
 27 28  1  0
 28 29  1  0
 29 30  3  0
 30 31  1  0
  8 32  1  0
 12 32  2  0
M  END
