MAK-UNK-ec98eaf6-32-acrylamide
     RDKit          3D

 19 21  0  0  0  0  0  0  0  0999 V2000
    7.6220   -2.6630   18.5390 C   0  0  0  0  0  0  0  0  0  0  0  0
    6.1590   -2.7780   18.8830 C   0  0  0  0  0  0  0  0  0  0  0  0
    5.8540   -3.4500   20.1620 C   0  0  0  0  0  0  0  0  0  0  0  0
    5.2520   -4.5210   20.1270 O   0  0  0  0  0  0  0  0  0  0  0  0
    6.2730   -2.7890   21.2870 N   0  0  0  0  0  0  0  0  0  0  0  0
    7.0870   -1.5570   21.1890 C   0  0  0  0  0  0  0  0  0  0  0  0
    7.5500   -1.3650   22.6260 C   0  0  1  0  0  0  0  0  0  0  0  0
    6.2050   -1.7070   23.3510 C   0  0  0  0  0  0  0  0  0  0  0  0
    6.1140   -3.0880   22.7130 C   0  0  2  0  0  0  0  0  0  0  0  0
    7.4370   -3.6140   23.2710 C   0  0  0  0  0  0  0  0  0  0  0  0
    8.4830   -2.5510   22.9960 C   0  0  2  0  0  0  0  0  0  0  0  0
    9.3350   -2.2500   24.1650 N   0  0  0  0  0  0  0  0  0  0  0  0
   10.5350   -1.4840   23.7770 C   0  0  0  0  0  0  0  0  0  0  0  0
   10.8190   -0.3060   24.4670 C   0  0  0  0  0  0  0  0  0  0  0  0
   11.9430    0.4410   24.1040 C   0  0  0  0  0  0  0  0  0  0  0  0
   12.7770    0.0200   23.0710 C   0  0  0  0  0  0  0  0  0  0  0  0
   12.4750   -1.1590   22.3980 C   0  0  0  0  0  0  0  0  0  0  0  0
   13.2150   -1.6750   21.3590 C   0  0  0  0  0  0  0  0  0  0  0  0
   11.3680   -1.8870   22.7550 C   0  0  0  0  0  0  0  0  0  0  0  0
  1  2  1  0
  2  3  1  0
  3  4  2  0
  3  5  1  0
  5  6  1  0
  7  6  1  6
  7  8  1  0
  5  9  1  0
  8  9  1  0
  9 10  1  1
  7 11  1  0
 10 11  1  0
 11 12  1  1
 12 13  1  0
 13 14  2  0
 14 15  1  0
 15 16  2  0
 16 17  1  0
 17 18  1  0
 13 19  1  0
 17 19  2  0
M  END
