MAK-UNK-37f1d6fa-7
     RDKit          3D

 31 34  0  0  0  0  0  0  0  0999 V2000
    8.5910    2.5900   21.2580 O   0  0  0  0  0  0  0  0  0  0  0  0
    8.7770    1.5560   21.8570 C   0  0  0  0  0  0  0  0  0  0  0  0
    9.7640    1.4030   22.8340 N   0  0  0  0  0  0  0  0  0  0  0  0
   10.9830    2.1350   22.7310 C   0  0  0  0  0  0  0  0  0  0  0  0
   11.0800    3.5250   22.5570 C   0  0  0  0  0  0  0  0  0  0  0  0
   12.3300    4.1870   22.4190 C   0  0  0  0  0  0  0  0  0  0  0  0
   13.5310    3.4760   22.4480 C   0  0  0  0  0  0  0  0  0  0  0  0
   14.8420    4.1460   22.2720 C   0  0  0  0  0  0  0  0  0  0  0  0
   15.2580    4.2940   21.1400 O   0  0  0  0  0  0  0  0  0  0  0  0
   15.5940    4.6870   23.3600 N   0  0  0  0  0  0  0  0  0  0  0  0
   16.9880    4.4190   23.9820 C   0  0  0  0  0  0  0  0  0  0  0  0
   18.0900    3.7180   23.5400 C   0  0  0  0  0  0  0  0  0  0  0  0
   19.3230    4.0050   24.2730 C   0  0  0  0  0  0  0  0  0  0  0  0
   19.5150    3.7030   25.6040 C   0  0  0  0  0  0  0  0  0  0  0  0
   20.7360    4.0580   26.0610 N   0  0  0  0  0  0  0  0  0  0  0  0
   21.4400    4.6150   25.0360 C   0  0  0  0  0  0  0  0  0  0  0  0
   22.8180    5.1470   25.0450 C   0  0  0  0  0  0  0  0  0  0  0  0
   23.3490    5.6890   23.7750 C   0  0  0  0  0  0  0  0  0  0  0  0
   22.4950    5.6860   22.5210 C   0  0  0  0  0  0  0  0  0  0  0  0
   22.9400    6.1610   21.3510 F   0  0  0  0  0  0  0  0  0  0  0  0
   21.1260    5.1090   22.7090 C   0  0  0  0  0  0  0  0  0  0  0  0
   20.6070    4.6020   23.8910 C   0  0  0  0  0  0  0  0  0  0  0  0
   13.3890    2.0670   22.6430 C   0  0  0  0  0  0  0  0  0  0  0  0
   12.1640    1.4150   22.7820 C   0  0  0  0  0  0  0  0  0  0  0  0
    7.9560    0.5210   21.4750 N   0  0  0  0  0  0  0  0  0  0  0  0
    7.0410    0.5490   20.3940 C   0  0  0  0  0  0  0  0  0  0  0  0
    6.0240    1.5000   20.4420 C   0  0  0  0  0  0  0  0  0  0  0  0
    5.0840    1.6010   19.4160 C   0  0  0  0  0  0  0  0  0  0  0  0
    5.1970    0.7180   18.3340 C   0  0  0  0  0  0  0  0  0  0  0  0
    6.1670   -0.2120   18.2540 N   0  0  0  0  0  0  0  0  0  0  0  0
    7.0600   -0.2800   19.2750 C   0  0  0  0  0  0  0  0  0  0  0  0
  1  2  2  0
  2  3  1  0
  3  4  1  0
  4  5  2  0
  5  6  1  0
  6  7  2  0
  7  8  1  0
  8  9  2  0
  8 10  1  0
 10 11  1  0
 11 12  1  0
 12 13  1  0
 13 14  2  0
 14 15  1  0
 15 16  1  0
 16 17  1  0
 17 18  2  0
 18 19  1  0
 19 20  1  0
 19 21  2  0
 13 22  1  0
 16 22  2  0
 21 22  1  0
  7 23  1  0
  4 24  1  0
 23 24  2  0
  2 25  1  0
 25 26  1  0
 26 27  2  0
 27 28  1  0
 28 29  2  0
 29 30  1  0
 26 31  1  0
 30 31  2  0
M  END
