MAK-UNK-a7992eb3-22
     RDKit          3D

 21 23  0  0  0  0  0  0  0  0999 V2000
    2.8190   -1.7180   27.9770 O   0  0  0  0  0  0  0  0  0  0  0  0
    2.6180   -1.4010   26.5780 S   0  0  0  0  0  0  0  0  0  0  0  0
    1.3890   -0.8160   26.0910 O   0  0  0  0  0  0  0  0  0  0  0  0
    3.2110   -2.6980   25.5120 C   0  0  0  0  0  0  0  0  0  0  0  0
    4.2160   -1.7390   25.0010 C   0  0  0  0  0  0  0  0  0  0  0  0
    5.5490   -2.2840   24.9700 O   0  0  0  0  0  0  0  0  0  0  0  0
    5.9220   -2.9030   23.7280 C   0  0  0  0  0  0  0  0  0  0  0  0
    6.2740   -4.2140   23.9900 C   0  0  2  0  0  0  0  0  0  0  0  0
    7.1930   -4.7980   23.1120 C   0  0  0  0  0  0  0  0  0  0  0  0
    6.6420   -5.2110   21.8280 N   0  0  0  0  0  0  0  0  0  0  0  0
    6.1870   -4.1030   20.9590 C   0  0  0  0  0  0  0  0  0  0  0  0
    6.9710   -2.9400   21.0430 C   0  0  0  0  0  0  0  0  0  0  0  0
    8.2660   -2.9110   21.9120 C   0  0  0  0  0  0  0  0  0  0  0  0
    9.1230   -1.6260   22.0340 C   0  0  0  0  0  0  0  0  0  0  0  0
    8.6660   -0.3980   21.2820 C   0  0  0  0  0  0  0  0  0  0  0  0
    7.3960   -0.4710   20.4320 C   0  0  0  0  0  0  0  0  0  0  0  0
    6.5790   -1.7730   20.3440 C   0  0  0  0  0  0  0  0  0  0  0  0
    5.5540   -6.1470   22.1480 C   0  0  0  0  0  0  0  0  0  0  0  0
    4.5850   -5.4180   23.0880 C   0  0  0  0  0  0  0  0  0  0  0  0
    5.1080   -5.0620   24.1400 O   0  0  0  0  0  0  0  0  0  0  0  0
    4.0340   -0.5360   25.8820 C   0  0  0  0  0  0  0  0  0  0  0  0
  1  2  2  0
  2  3  2  0
  2  4  1  0
  4  5  1  0
  5  6  1  0
  6  7  1  0
  8  7  1  6
  8  9  1  0
  9 10  1  0
 10 11  1  0
 11 12  1  0
 12 13  2  0
 13 14  1  0
 14 15  2  0
 15 16  1  0
 12 17  1  0
 16 17  2  0
 10 18  1  0
 18 19  1  0
  8 20  1  0
 19 20  1  0
  2 21  1  0
  5 21  1  0
M  END
