MAK-UNK-ec98eaf6-5-acrylamide
     RDKit          3D

 34 38  0  0  0  0  0  0  0  0999 V2000
    7.4470   -3.0420   18.8540 C   0  0  0  0  0  0  0  0  0  0  0  0
    6.6270   -3.0180   20.1640 C   0  0  0  0  0  0  0  0  0  0  0  0
    5.2830   -2.3420   19.8680 C   0  0  0  0  0  0  0  0  0  0  0  0
    4.4150   -3.1090   19.4760 O   0  0  0  0  0  0  0  0  0  0  0  0
    5.0840   -0.9210   20.0670 N   0  0  0  0  0  0  0  0  0  0  0  0
    5.0290   -0.1640   21.3520 C   0  0  0  0  0  0  0  0  0  0  0  0
    4.5170    1.2850   21.0190 C   0  0  2  0  0  0  0  0  0  0  0  0
    3.5320    0.8160   19.9690 C   0  0  0  0  0  0  0  0  0  0  0  0
    4.5430    0.0590   19.0810 C   0  0  1  0  0  0  0  0  0  0  0  0
    5.3750    1.2940   18.8730 C   0  0  0  0  0  0  0  0  0  0  0  0
    5.5310    2.0820   20.1550 C   0  0  2  0  0  0  0  0  0  0  0  0
    6.7820    2.1060   20.7450 C   0  0  0  0  0  0  0  0  0  0  0  0
    7.1510    2.9780   21.5260 O   0  0  0  0  0  0  0  0  0  0  0  0
    7.4890    1.0260   20.3010 N   0  0  0  0  0  0  0  0  0  0  0  0
    7.2410    0.2150   19.1540 C   0  0  0  0  0  0  0  0  0  0  0  0
    7.3030    0.6450   17.8270 C   0  0  0  0  0  0  0  0  0  0  0  0
    7.1040   -0.1130   16.7290 C   0  0  0  0  0  0  0  0  0  0  0  0
    6.7970   -1.4120   16.8510 C   0  0  0  0  0  0  0  0  0  0  0  0
    6.6870   -1.9260   18.1390 C   0  0  0  0  0  0  0  0  0  0  0  0
    6.9190   -1.1330   19.3370 C   0  0  0  0  0  0  0  0  0  0  0  0
    6.8330   -1.6480   20.6550 O   0  0  0  0  0  0  0  0  0  0  0  0
    7.4650   -1.1380   21.8630 C   0  0  0  0  0  0  0  0  0  0  0  0
    8.7900   -1.6090   21.8350 C   0  0  0  0  0  0  0  0  0  0  0  0
    9.3210   -1.7270   23.1370 C   0  0  0  0  0  0  0  0  0  0  0  0
    8.6490   -0.7830   24.0450 N   0  0  0  0  0  0  0  0  0  0  0  0
    9.5010   -0.1190   25.0300 C   0  0  0  0  0  0  0  0  0  0  0  0
   10.8170    0.0040   24.3760 C   0  0  0  0  0  0  0  0  0  0  0  0
   11.0930    1.3590   23.7160 C   0  0  0  0  0  0  0  0  0  0  0  0
   12.2990    1.5530   23.0510 C   0  0  0  0  0  0  0  0  0  0  0  0
   13.2910    0.4300   22.9980 C   0  0  0  0  0  0  0  0  0  0  0  0
   13.0550   -0.8000   23.5970 C   0  0  0  0  0  0  0  0  0  0  0  0
   11.7580   -1.0230   24.3230 C   0  0  0  0  0  0  0  0  0  0  0  0
    7.3130   -1.2030   24.3890 C   0  0  0  0  0  0  0  0  0  0  0  0
    6.7120   -1.7330   23.0940 C   0  0  0  0  0  0  0  0  0  0  0  0
  1  2  1  0
  2  3  1  0
  3  4  2  0
  3  5  1  0
  5  6  1  0
  7  6  1  6
  7  8  1  0
  5  9  1  0
  8  9  1  0
  9 10  1  1
  7 11  1  0
 10 11  1  0
 11 12  1  1
 12 13  2  0
 12 14  1  0
 14 15  1  0
 15 16  2  0
 16 17  1  0
 17 18  2  0
 18 19  1  0
 15 20  1  0
 19 20  2  0
 20 21  1  0
 21 22  1  0
 22 23  1  0
 23 24  1  0
 24 25  1  0
 25 26  1  0
 26 27  1  0
 27 28  2  0
 28 29  1  0
 29 30  2  0
 30 31  1  0
 27 32  1  0
 31 32  2  0
 25 33  1  0
 22 34  1  0
 33 34  1  0
M  END
