MAK-UNK-9e4a73aa-23
     RDKit          3D

 26 29  0  0  0  0  0  0  0  0999 V2000
    6.9850   -0.3910   25.3940 O   0  0  0  0  0  0  0  0  0  0  0  0
    7.8990   -0.6580   24.6050 C   0  0  0  0  0  0  0  0  0  0  0  0
    8.8670    0.4710   24.1510 C   0  0  0  0  0  0  0  0  0  0  0  0
    8.4450    1.9570   24.2140 C   0  0  0  0  0  0  0  0  0  0  0  0
    9.4570    3.0360   23.7500 C   0  0  0  0  0  0  0  0  0  0  0  0
    9.1940    4.3530   23.7630 F   0  0  0  0  0  0  0  0  0  0  0  0
   10.8420    2.5550   23.2550 C   0  0  0  0  0  0  0  0  0  0  0  0
   12.1390    3.4970   22.6920 Cl  0  0  0  0  0  0  0  0  0  0  0  0
   11.0450    1.0230   23.2840 C   0  0  0  0  0  0  0  0  0  0  0  0
   10.0890    0.1200   23.7020 C   0  0  0  0  0  0  0  0  0  0  0  0
   10.3310   -1.1530   23.6790 N   0  0  0  0  0  0  0  0  0  0  0  0
   11.5560   -1.6230   23.5080 C   0  0  0  0  0  0  0  0  0  0  0  0
   12.0310   -1.9480   24.7090 C   0  0  0  0  0  0  0  0  0  0  0  0
   13.3380   -2.5910   24.8750 C   0  0  0  0  0  0  0  0  0  0  0  0
   13.9670   -2.7600   23.4890 C   0  0  0  0  0  0  0  0  0  0  0  0
   13.2810   -2.2620   22.2630 C   0  0  0  0  0  0  0  0  0  0  0  0
   12.1020   -1.7250   22.2830 C   0  0  0  0  0  0  0  0  0  0  0  0
    9.3260   -2.2080   23.6260 C   0  0  0  0  0  0  0  0  0  0  0  0
    9.6350   -3.4440   23.1190 O   0  0  0  0  0  0  0  0  0  0  0  0
    8.1370   -1.9140   24.0830 N   0  0  0  0  0  0  0  0  0  0  0  0
    7.0480   -2.3750   23.2300 C   0  0  0  0  0  0  0  0  0  0  0  0
    8.1440   -1.5690   22.5230 C   0  0  0  0  0  0  0  0  0  0  0  0
    8.3430   -1.0920   21.1270 C   0  0  0  0  0  0  0  0  0  0  0  0
    7.4530   -1.3460   20.1580 C   0  0  0  0  0  0  0  0  0  0  0  0
    6.4130   -2.0910   20.6140 N   0  0  0  0  0  0  0  0  0  0  0  0
    6.1830   -2.5880   21.9690 C   0  0  0  0  0  0  0  0  0  0  0  0
  1  2  2  0
  2  3  1  0
  3  4  2  0
  4  5  1  0
  5  6  1  0
  5  7  2  0
  7  8  1  0
  7  9  1  0
  3 10  1  0
  9 10  2  0
 10 11  1  0
 11 12  1  0
 12 13  2  0
 13 14  1  0
 14 15  2  0
 15 16  1  0
 12 17  1  0
 16 17  2  0
 11 18  1  0
 18 19  2  0
  2 20  1  0
 18 20  1  0
 20 21  1  0
 21 22  2  0
 22 23  1  0
 23 24  2  0
 24 25  1  0
 21 26  1  0
 25 26  2  0
M  END
