MAK-UNK-10799360-36-vinylsulfonamide
     RDKit          3D

 27 30  0  0  0  0  0  0  0  0999 V2000
    8.3860   -3.7640   19.9430 C   0  0  0  0  0  0  0  0  0  0  0  0
    7.4500   -2.8590   19.0860 C   0  0  0  0  0  0  0  0  0  0  0  0
    5.7770   -2.8100   19.7090 S   0  0  0  0  0  0  0  0  0  0  0  0
    5.1760   -4.1390   19.8980 O   0  0  0  0  0  0  0  0  0  0  0  0
    5.0980   -1.8520   18.8790 O   0  0  0  0  0  0  0  0  0  0  0  0
    5.9690   -2.0600   21.2110 N   0  0  0  0  0  0  0  0  0  0  0  0
    5.7100   -2.6860   22.4900 C   0  0  0  0  0  0  0  0  0  0  0  0
    7.1590   -2.6030   22.9950 C   0  0  1  0  0  0  0  0  0  0  0  0
    7.6910   -2.2840   21.5930 C   0  0  0  0  0  0  0  0  0  0  0  0
    6.9160   -0.9510   21.3980 C   0  0  2  0  0  0  0  0  0  0  0  0
    8.1730   -0.7280   22.2780 C   0  0  0  0  0  0  0  0  0  0  0  0
    7.7680   -1.3700   23.5570 N   0  0  0  0  0  0  0  0  0  0  0  0
    8.9400   -1.7040   24.3480 C   0  0  0  0  0  0  0  0  0  0  0  0
   10.2070   -0.9390   23.9700 C   0  0  0  0  0  0  0  0  0  0  0  0
   10.4690    0.3290   24.4690 C   0  0  0  0  0  0  0  0  0  0  0  0
   11.6140    1.0140   24.0840 C   0  0  0  0  0  0  0  0  0  0  0  0
   12.5230    0.4620   23.2120 C   0  0  0  0  0  0  0  0  0  0  0  0
   12.2780   -0.7930   22.7140 C   0  0  0  0  0  0  0  0  0  0  0  0
   13.3650   -1.4850   21.6270 Cl  0  0  0  0  0  0  0  0  0  0  0  0
   11.1460   -1.4980   23.0780 C   0  0  0  0  0  0  0  0  0  0  0  0
    9.0100   -3.1030   23.8810 C   0  0  0  0  0  0  0  0  0  0  0  0
    9.7900   -3.2140   22.7590 C   0  0  0  0  0  0  0  0  0  0  0  0
    9.9610   -4.3710   22.1480 C   0  0  0  0  0  0  0  0  0  0  0  0
    9.3730   -5.5230   22.6120 C   0  0  0  0  0  0  0  0  0  0  0  0
    8.5910   -5.4200   23.7280 C   0  0  0  0  0  0  0  0  0  0  0  0
    7.8590   -6.8590   24.2570 Cl  0  0  0  0  0  0  0  0  0  0  0  0
    8.3660   -4.2150   24.4210 C   0  0  0  0  0  0  0  0  0  0  0  0
  1  2  1  0
  3  2  1  0
  3  4  2  0
  3  5  2  0
  3  6  1  0
  6  7  1  0
  8  7  1  6
  8  9  1  0
  6 10  1  0
  9 10  1  0
 10 11  1  1
  8 12  1  0
 11 12  1  0
 12 13  1  0
 13 14  1  0
 14 15  2  0
 15 16  1  0
 16 17  2  0
 17 18  1  0
 18 19  1  0
 14 20  1  0
 18 20  2  0
 13 21  1  0
 21 22  2  0
 22 23  1  0
 23 24  2  0
 24 25  1  0
 25 26  1  0
 21 27  1  0
 25 27  2  0
M  END
