MAK-UNK-df1a028e-2
     RDKit          3D

 33 37  0  0  0  0  0  0  0  0999 V2000
    3.9920   -2.0360   25.0860 C   0  0  0  0  0  0  0  0  0  0  0  0
    4.3960   -2.9230   23.9700 C   0  0  0  0  0  0  0  0  0  0  0  0
    4.2180   -4.4470   24.2370 C   0  0  0  0  0  0  0  0  0  0  0  0
    4.6800   -5.2730   23.0330 C   0  0  0  0  0  0  0  0  0  0  0  0
    4.4850   -6.7400   23.4330 C   0  0  0  0  0  0  0  0  0  0  0  0
    5.1810   -4.7470   21.8250 C   0  0  0  0  0  0  0  0  0  0  0  0
    5.6140   -5.7280   20.7420 C   0  0  0  0  0  0  0  0  0  0  0  0
    5.2740   -3.3240   21.6820 C   0  0  0  0  0  0  0  0  0  0  0  0
    5.8780   -2.5380   20.1790 S   0  0  0  0  0  0  0  0  0  0  0  0
    5.6060   -3.3520   19.0280 O   0  0  0  0  0  0  0  0  0  0  0  0
    5.5440   -1.1330   20.1150 O   0  0  0  0  0  0  0  0  0  0  0  0
    7.4600   -2.6370   20.6940 N   0  0  0  0  0  0  0  0  0  0  0  0
    7.6210   -3.6620   21.8030 C   0  0  0  0  0  0  0  0  0  0  0  0
    7.4700   -2.8060   22.8880 C   0  0  2  0  0  0  0  0  0  0  0  0
    7.1310   -1.5460   22.4270 C   0  0  0  0  0  0  0  0  0  0  0  0
    8.0280   -1.4280   21.3990 C   0  0  1  0  0  0  0  0  0  0  0  0
    9.2760   -1.7720   21.9070 C   0  0  0  0  0  0  0  0  0  0  0  0
    8.8370   -2.3640   23.1890 N   0  0  0  0  0  0  0  0  0  0  0  0
    9.2820   -1.7560   24.4560 C   0  0  0  0  0  0  0  0  0  0  0  0
    8.5920   -1.0640   25.1960 O   0  0  0  0  0  0  0  0  0  0  0  0
   10.6150   -2.0660   24.6980 C   0  0  0  0  0  0  0  0  0  0  0  0
   10.1220   -3.1910   25.1670 C   0  0  0  0  0  0  0  0  0  0  0  0
   11.2930   -3.6770   25.4010 C   0  0  0  0  0  0  0  0  0  0  0  0
   11.5980   -4.4760   26.2720 O   0  0  0  0  0  0  0  0  0  0  0  0
   12.1000   -3.0590   24.4370 N   0  0  0  0  0  0  0  0  0  0  0  0
   12.2050   -1.6700   23.8980 C   0  0  0  0  0  0  0  0  0  0  0  0
   11.9320   -0.5230   23.6190 C   0  0  0  0  0  0  0  0  0  0  0  0
   13.1160   -0.4580   23.0360 C   0  0  0  0  0  0  0  0  0  0  0  0
   12.7200    0.7040   22.8780 C   0  0  0  0  0  0  0  0  0  0  0  0
   11.4410    0.4780   23.5250 C   0  0  0  0  0  0  0  0  0  0  0  0
   10.9150   -0.8400   24.1760 C   0  0  0  0  0  0  0  0  0  0  0  0
    4.9130   -2.4400   22.7410 C   0  0  0  0  0  0  0  0  0  0  0  0
    5.1080   -0.9460   22.5600 C   0  0  0  0  0  0  0  0  0  0  0  0
  1  2  1  0
  2  3  2  0
  3  4  1  0
  4  5  1  0
  4  6  2  0
  6  7  1  0
  6  8  1  0
  9  8  1  0
  9 10  2  0
  9 11  2  0
  9 12  1  0
 12 13  1  0
 14 13  1  6
 14 15  1  0
 12 16  1  0
 15 16  1  0
 16 17  1  1
 14 18  1  0
 17 18  1  0
 18 19  1  0
 19 20  2  0
 19 21  1  0
 21 22  2  0
 22 23  1  0
 23 24  2  0
 23 25  1  0
 25 26  1  0
 26 27  1  0
 27 28  2  0
 28 29  1  0
 29 30  2  0
 21 31  1  0
 26 31  2  0
 30 31  1  0
  2 32  1  0
  8 32  2  0
 32 33  1  0
M  END
