MAK-UNK-af83ef51-32-vinylsulfonamide
     RDKit          3D

 33 35  0  0  0  0  0  0  0  0999 V2000
    7.9650   -3.5390   19.9200 C   0  0  0  0  0  0  0  0  0  0  0  0
    7.0830   -2.4140   19.5070 C   0  0  0  0  0  0  0  0  0  0  0  0
    5.7260   -2.5110   20.6140 S   0  0  0  0  0  0  0  0  0  0  0  0
    4.6630   -3.0770   19.8260 O   0  0  0  0  0  0  0  0  0  0  0  0
    6.1520   -3.1840   21.8150 O   0  0  0  0  0  0  0  0  0  0  0  0
    5.4360   -0.8800   20.9330 N   0  0  0  0  0  0  0  0  0  0  0  0
    6.1710    0.1280   20.2230 C   0  0  0  0  0  0  0  0  0  0  0  0
    6.8790    1.0920   20.9600 C   0  0  0  0  0  0  0  0  0  0  0  0
    7.4160    0.6910   22.3000 N   0  0  0  0  0  0  0  0  0  0  0  0
    8.8560    0.2520   22.2540 C   0  0  0  0  0  0  0  0  0  0  0  0
    9.7120    0.6500   23.2800 N   0  0  0  0  0  0  0  0  0  0  0  0
    9.0560    1.0330   24.3810 C   0  0  0  0  0  0  0  0  0  0  0  0
    8.6190    2.0870   23.9950 C   0  0  0  0  0  0  0  0  0  0  0  0
    9.3780    1.8500   22.7690 C   0  0  0  0  0  0  0  0  0  0  0  0
   10.3090    0.4570   22.6650 C   0  0  0  0  0  0  0  0  0  0  0  0
   11.0800   -0.8580   22.7800 C   0  0  0  0  0  0  0  0  0  0  0  0
   11.7250   -1.8270   22.8140 N   0  0  0  0  0  0  0  0  0  0  0  0
    9.9940   -0.2890   24.1740 C   0  0  0  0  0  0  0  0  0  0  0  0
   10.6130   -1.5110   24.4600 O   0  0  0  0  0  0  0  0  0  0  0  0
    9.8660   -2.7230   24.1630 C   0  0  0  0  0  0  0  0  0  0  0  0
    8.8810   -3.0380   25.1920 C   0  0  0  0  0  0  0  0  0  0  0  0
    9.2870   -4.1100   26.1870 N   0  0  0  0  0  0  0  0  0  0  0  0
   10.5220   -4.7080   25.9180 C   0  0  0  0  0  0  0  0  0  0  0  0
    9.5860   -5.8780   26.4240 C   0  0  0  0  0  0  0  0  0  0  0  0
    8.1410   -5.5550   26.8540 C   0  0  0  0  0  0  0  0  0  0  0  0
    8.0260   -4.0840   26.6540 C   0  0  0  0  0  0  0  0  0  0  0  0
    6.8450   -3.1810   26.9080 C   0  0  0  0  0  0  0  0  0  0  0  0
    5.7660   -2.3770   27.1600 N   0  0  0  0  0  0  0  0  0  0  0  0
    9.3200   -4.0140   26.2050 C   0  0  0  0  0  0  0  0  0  0  0  0
   10.4040   -3.4030   25.7380 N   0  0  0  0  0  0  0  0  0  0  0  0
    9.1840    0.1880   25.1880 N   0  0  0  0  0  0  0  0  0  0  0  0
    6.5380   -0.2240   23.0460 C   0  0  0  0  0  0  0  0  0  0  0  0
    5.2020   -0.5090   22.3320 C   0  0  0  0  0  0  0  0  0  0  0  0
  1  2  1  0
  3  2  1  0
  3  4  2  0
  3  5  2  0
  3  6  1  0
  6  7  1  0
  7  8  1  0
  8  9  1  0
  9 10  1  0
 10 11  1  0
 11 12  1  0
 12 13  2  0
 13 14  1  0
 14 15  2  0
 15 16  1  0
 16 17  3  0
 15 18  1  0
 18 19  1  0
 19 20  1  0
 20 21  1  0
 21 22  1  0
 22 23  1  0
 23 24  2  0
 24 25  1  0
 25 26  2  0
 26 27  1  0
 27 28  3  0
 26 29  1  0
 23 30  1  0
 29 30  2  0
 12 31  1  0
 18 31  2  0
  9 32  1  0
  6 33  1  0
 32 33  1  0
M  END
