MAK-UNK-9e4a73aa-2
     RDKit          3D

 26 29  0  0  0  0  0  0  0  0999 V2000
    5.5090   -2.8040   20.4860 O   0  0  0  0  0  0  0  0  0  0  0  0
    6.2430   -2.4980   21.4320 C   0  0  0  0  0  0  0  0  0  0  0  0
    6.8690   -1.1360   21.5330 C   0  0  0  0  0  0  0  0  0  0  0  0
    6.1040    0.0110   20.8400 C   0  0  0  0  0  0  0  0  0  0  0  0
    6.6720    1.4280   20.9180 C   0  0  0  0  0  0  0  0  0  0  0  0
    6.0780    2.4810   20.3600 F   0  0  0  0  0  0  0  0  0  0  0  0
    7.9870    1.5980   21.6910 C   0  0  0  0  0  0  0  0  0  0  0  0
    8.8890    2.9990   21.9820 Cl  0  0  0  0  0  0  0  0  0  0  0  0
    8.5670    0.3100   22.2920 C   0  0  0  0  0  0  0  0  0  0  0  0
    8.0370   -0.9630   22.2160 C   0  0  0  0  0  0  0  0  0  0  0  0
    8.6670   -2.0200   22.8230 N   0  0  0  0  0  0  0  0  0  0  0  0
   10.1190   -2.0470   22.7330 C   0  0  0  0  0  0  0  0  0  0  0  0
   11.2040   -1.4570   23.0280 C   0  0  0  0  0  0  0  0  0  0  0  0
   12.6240   -1.6970   22.7730 C   0  0  0  0  0  0  0  0  0  0  0  0
   12.8040   -0.4000   23.5440 C   0  0  0  0  0  0  0  0  0  0  0  0
   11.3270   -0.0420   23.8830 C   0  0  0  0  0  0  0  0  0  0  0  0
   10.0960   -0.7960   23.5140 C   0  0  0  0  0  0  0  0  0  0  0  0
    7.9520   -3.3050   22.9600 C   0  0  0  0  0  0  0  0  0  0  0  0
    8.5740   -4.4110   23.4470 O   0  0  0  0  0  0  0  0  0  0  0  0
    6.6190   -3.3860   22.5820 C   0  0  1  0  0  0  0  0  0  0  0  0
    5.7210   -3.1840   23.8080 C   0  0  0  0  0  0  0  0  0  0  0  0
    6.3250   -2.7700   25.1580 C   0  0  0  0  0  0  0  0  0  0  0  0
    5.4890   -2.5940   26.2700 C   0  0  0  0  0  0  0  0  0  0  0  0
    4.1020   -2.7980   26.1390 C   0  0  0  0  0  0  0  0  0  0  0  0
    3.4820   -3.1610   24.9940 N   0  0  0  0  0  0  0  0  0  0  0  0
    4.3290   -3.3540   23.8040 C   0  0  0  0  0  0  0  0  0  0  0  0
  1  2  2  0
  2  3  1  0
  3  4  1  0
  4  5  2  0
  5  6  1  0
  5  7  1  0
  7  8  1  0
  7  9  2  0
  3 10  2  0
  9 10  1  0
 10 11  1  0
 11 12  1  0
 12 13  2  0
 13 14  1  0
 14 15  2  0
 15 16  1  0
 12 17  1  0
 16 17  2  0
 11 18  1  0
 18 19  2  0
  2 20  1  0
 18 20  1  0
 20 21  1  1
 21 22  2  0
 22 23  1  0
 23 24  2  0
 24 25  1  0
 21 26  1  0
 25 26  2  0
M  END
