MAK-UNK-8fdbca50-11-chloroacetamide
     RDKit          3D

 39 42  0  0  0  0  0  0  0  0999 V2000
    6.2510   -3.3050   19.9770 C   0  0  0  0  0  0  0  0  0  0  0  0
    4.9520   -3.4620   20.5470 C   0  0  0  0  0  0  0  0  0  0  0  0
    4.9260   -3.2200   19.2720 O   0  0  0  0  0  0  0  0  0  0  0  0
    5.3280   -3.7530   21.9970 N   0  0  0  0  0  0  0  0  0  0  0  0
    4.3820   -4.4020   22.9890 C   0  0  0  0  0  0  0  0  0  0  0  0
    4.8610   -5.8730   23.4400 C   0  0  0  0  0  0  0  0  0  0  0  0
    6.4110   -5.8230   23.3230 C   0  0  0  0  0  0  0  0  0  0  0  0
    6.9070   -7.3500   23.6340 C   0  0  0  0  0  0  0  0  0  0  0  0
    6.0340   -8.0520   24.1280 O   0  0  0  0  0  0  0  0  0  0  0  0
    8.3480   -8.0010   23.3410 N   0  0  0  0  0  0  0  0  0  0  0  0
    8.9360   -7.6000   24.7030 C   0  0  0  0  0  0  0  0  0  0  0  0
    9.1820   -8.8720   21.9860 C   0  0  1  0  0  0  0  0  0  0  0  0
    8.2590  -10.0410   22.1190 C   0  0  0  0  0  0  0  0  0  0  0  0
   10.5680   -8.2450   20.6860 C   0  0  0  0  0  0  0  0  0  0  0  0
   11.1620   -6.2410   20.3480 C   0  0  0  0  0  0  0  0  0  0  0  0
   12.7400   -5.7520   20.6100 C   0  0  0  0  0  0  0  0  0  0  0  0
   13.6330   -4.7050   20.6410 C   0  0  0  0  0  0  0  0  0  0  0  0
   13.1470   -3.6520   20.4580 C   0  0  0  0  0  0  0  0  0  0  0  0
   11.8610   -3.7630   20.2160 C   0  0  0  0  0  0  0  0  0  0  0  0
   10.8190   -4.7970   20.0930 C   0  0  0  0  0  0  0  0  0  0  0  0
    9.8050   -3.9510   19.8380 C   0  0  0  0  0  0  0  0  0  0  0  0
    8.8390   -2.7810   20.3890 C   0  0  0  0  0  0  0  0  0  0  0  0
    7.9590   -2.2450   19.2380 C   0  0  0  0  0  0  0  0  0  0  0  0
    6.9790   -1.2000   19.2820 C   0  0  0  0  0  0  0  0  0  0  0  0
    7.3380   -0.2120   20.2950 N   0  0  0  0  0  0  0  0  0  0  0  0
    6.9410    1.1280   19.8200 C   0  0  0  0  0  0  0  0  0  0  0  0
    8.4120   -3.0910   18.0310 C   0  0  0  0  0  0  0  0  0  0  0  0
    9.5380   -4.0750   18.4930 N   0  0  0  0  0  0  0  0  0  0  0  0
   10.8390   -5.3840   18.1510 S   0  0  0  0  0  0  0  0  0  0  0  0
   11.9810   -4.8590   18.9160 O   0  0  0  0  0  0  0  0  0  0  0  0
   10.2820   -6.1990   19.1530 O   0  0  0  0  0  0  0  0  0  0  0  0
   12.1690   -6.2950   16.0670 C   0  0  0  0  0  0  0  0  0  0  0  0
   13.7860   -7.0290   15.9230 C   0  0  0  0  0  0  0  0  0  0  0  0
   14.6620   -7.9030   15.0870 C   0  0  0  0  0  0  0  0  0  0  0  0
   13.9030   -8.1810   14.2630 C   0  0  0  0  0  0  0  0  0  0  0  0
   13.0870   -7.3210   14.8930 N   0  0  0  0  0  0  0  0  0  0  0  0
   11.9210   -6.6920   14.8890 C   0  0  0  0  0  0  0  0  0  0  0  0
    6.8410   -4.4860   23.9620 C   0  0  0  0  0  0  0  0  0  0  0  0
    6.4660   -3.3280   22.8920 C   0  0  0  0  0  0  0  0  0  0  0  0
  1  2  1  0
  2  3  2  0
  2  4  1  0
  4  5  1  0
  5  6  1  0
  6  7  1  0
  7  8  1  0
  8  9  2  0
  8 10  1  0
 10 11  1  0
 10 12  1  0
 12 13  1  6
 12 14  1  0
 14 15  1  0
 15 16  2  0
 16 17  1  0
 17 18  2  0
 18 19  1  0
 15 20  1  0
 19 20  2  0
 20 21  1  0
 21 22  2  0
 22 23  1  0
 23 24  1  0
 24 25  1  0
 25 26  1  0
 23 27  2  0
 21 28  1  0
 27 28  1  0
 28 29  1  0
 29 30  2  0
 29 31  2  0
 29 32  1  0
 32 33  2  0
 33 34  1  0
 34 35  2  0
 35 36  1  0
 32 37  1  0
 36 37  2  0
  7 38  1  0
  4 39  1  0
 38 39  1  0
M  END
