MAK-UNK-2084232d-10
     RDKit          3D

 22 24  0  0  0  0  0  0  0  0999 V2000
    6.8870   -2.4730   20.0010 C   0  0  0  0  0  0  0  0  0  0  0  0
    6.0170   -3.6460   20.4040 C   0  0  0  0  0  0  0  0  0  0  0  0
    6.7360   -4.5340   21.4000 C   0  0  2  0  0  0  0  0  0  0  0  0
    6.0210   -5.6500   21.7990 C   0  0  0  0  0  0  0  0  0  0  0  0
    6.4650   -6.2700   22.9360 C   0  0  0  0  0  0  0  0  0  0  0  0
    7.0230   -5.3990   23.8500 C   0  0  0  0  0  0  0  0  0  0  0  0
    7.8600   -4.4340   23.3390 C   0  0  2  0  0  0  0  0  0  0  0  0
    8.8310   -3.8610   24.3690 C   0  0  2  0  0  0  0  0  0  0  0  0
    9.2190   -2.3860   24.0060 C   0  0  0  0  0  0  0  0  0  0  0  0
   10.6920   -2.2330   24.3350 C   0  0  0  0  0  0  0  0  0  0  0  0
   11.3040   -3.4080   25.1060 C   0  0  0  0  0  0  0  0  0  0  0  0
   12.7790   -3.3420   25.4360 C   0  0  0  0  0  0  0  0  0  0  0  0
   13.5020   -2.1270   24.9900 C   0  0  0  0  0  0  0  0  0  0  0  0
   12.8060   -0.9910   24.2380 C   0  0  0  0  0  0  0  0  0  0  0  0
   13.3710    0.0260   23.8550 O   0  0  0  0  0  0  0  0  0  0  0  0
   11.4590   -1.1100   23.9600 C   0  0  0  0  0  0  0  0  0  0  0  0
   10.9640   -0.1600   23.3500 O   0  0  0  0  0  0  0  0  0  0  0  0
   10.4930   -4.4700   25.4530 C   0  0  1  0  0  0  0  0  0  0  0  0
    9.9390   -4.3380   26.7200 C   0  0  0  0  0  0  0  0  0  0  0  0
    8.8420   -5.2930   26.9410 N   0  0  0  0  0  0  0  0  0  0  0  0
    9.7120   -4.7060   24.5890 O   0  0  0  0  0  0  0  0  0  0  0  0
    7.2280   -3.7590   22.5200 O   0  0  0  0  0  0  0  0  0  0  0  0
  1  2  1  0
  3  2  1  6
  3  4  1  0
  4  5  1  0
  5  6  1  0
  7  6  1  1
  7  8  1  0
  8  9  1  6
  9 10  1  0
 10 11  2  0
 11 12  1  0
 12 13  2  0
 13 14  1  0
 14 15  1  0
 10 16  1  0
 14 16  2  0
 16 17  1  0
 11 18  1  0
 18 19  1  1
 19 20  1  0
  8 21  1  0
 18 21  1  0
  3 22  1  0
  7 22  1  0
M  END
