MAK-UNK-f2409524-2
     RDKit          3D

 23 24  0  0  0  0  0  0  0  0999 V2000
    9.9720   -0.5960   22.5040 C   0  0  0  0  0  0  0  0  0  0  0  0
    9.0160    0.1210   21.5880 C   0  0  0  0  0  0  0  0  0  0  0  0
    9.1540    1.3200   21.2990 O   0  0  0  0  0  0  0  0  0  0  0  0
    7.9920   -0.6680   21.1160 N   0  0  0  0  0  0  0  0  0  0  0  0
    6.9990   -0.0790   20.2450 C   0  0  0  0  0  0  0  0  0  0  0  0
    7.1260   -0.4000   18.7670 C   0  0  0  0  0  0  0  0  0  0  0  0
    6.1410    0.2000   17.8890 N   0  0  0  0  0  0  0  0  0  0  0  0
    5.1380    1.0140   18.3770 C   0  0  0  0  0  0  0  0  0  0  0  0
    5.0980    1.2420   19.7310 C   0  0  0  0  0  0  0  0  0  0  0  0
    5.9690    0.7430   20.6990 C   0  0  0  0  0  0  0  0  0  0  0  0
    5.7920    1.0680   22.0560 C   0  0  0  0  0  0  0  0  0  0  0  0
    5.9660    2.4650   22.6100 C   0  0  0  0  0  0  0  0  0  0  0  0
    5.2330    2.6210   23.9420 C   0  0  0  0  0  0  0  0  0  0  0  0
    4.0220    3.4470   23.7270 N   0  0  0  0  0  0  0  0  0  0  0  0
    2.9080    3.0280   23.0170 C   0  0  0  0  0  0  0  0  0  0  0  0
    3.0050    1.7520   22.5180 N   0  0  0  0  0  0  0  0  0  0  0  0
    1.7480    3.8070   22.7290 N   0  0  0  0  0  0  0  0  0  0  0  0
    0.5180    3.9880   23.3830 C   0  0  0  0  0  0  0  0  0  0  0  0
    0.6320    4.4080   24.6960 C   0  0  0  0  0  0  0  0  0  0  0  0
   -0.6280    4.7320   25.2260 C   0  0  0  0  0  0  0  0  0  0  0  0
   -1.6590    4.4110   24.3040 C   0  0  0  0  0  0  0  0  0  0  0  0
   -1.6220    3.0920   23.8580 C   0  0  0  0  0  0  0  0  0  0  0  0
   -0.3780    2.7530   23.3440 C   0  0  0  0  0  0  0  0  0  0  0  0
  1  2  1  0
  2  3  2  0
  2  4  1  0
  4  5  1  0
  5  6  2  0
  6  7  1  0
  7  8  2  0
  8  9  1  0
  5 10  1  0
  9 10  2  0
 10 11  1  0
 11 12  1  0
 12 13  1  0
 13 14  1  0
 14 15  2  3
 15 16  1  0
 15 17  1  0
 17 18  1  0
 18 19  1  0
 19 20  1  0
 20 21  1  0
 21 22  1  0
 18 23  1  0
 22 23  1  0
M  END
