MAK-UNK-ec98eaf6-9-vinylsulfonamide
     RDKit          3D

 27 30  0  0  0  0  0  0  0  0999 V2000
    8.2550   -4.0500   20.2870 C   0  0  0  0  0  0  0  0  0  0  0  0
    7.1770   -3.1190   19.6710 C   0  0  0  0  0  0  0  0  0  0  0  0
    5.5800   -3.4890   20.3410 S   0  0  0  0  0  0  0  0  0  0  0  0
    4.5090   -3.2460   19.4330 O   0  0  0  0  0  0  0  0  0  0  0  0
    5.6500   -4.8060   20.9150 O   0  0  0  0  0  0  0  0  0  0  0  0
    5.4570   -2.4370   21.6440 N   0  0  0  0  0  0  0  0  0  0  0  0
    6.2020   -1.1290   21.6160 C   0  0  0  0  0  0  0  0  0  0  0  0
    7.4810   -1.6200   22.3650 C   0  0  2  0  0  0  0  0  0  0  0  0
    7.3650   -3.1350   22.3700 C   0  0  0  0  0  0  0  0  0  0  0  0
    5.9440   -3.1280   22.8490 C   0  0  1  0  0  0  0  0  0  0  0  0
    6.0090   -2.1260   23.9590 C   0  0  0  0  0  0  0  0  0  0  0  0
    7.2080   -1.4740   23.8490 N   0  0  0  0  0  0  0  0  0  0  0  0
    8.2720   -2.2050   24.5600 C   0  0  2  0  0  0  0  0  0  0  0  0
    9.5680   -1.5150   24.1390 C   0  0  0  0  0  0  0  0  0  0  0  0
   10.2660   -2.3010   22.9970 C   0  0  0  0  0  0  0  0  0  0  0  0
   11.5460   -1.6590   22.5160 C   0  0  0  0  0  0  0  0  0  0  0  0
   12.0680   -0.3890   23.0990 C   0  0  0  0  0  0  0  0  0  0  0  0
   13.3120    0.2050   22.6080 C   0  0  0  0  0  0  0  0  0  0  0  0
   11.4030    0.2720   24.1240 C   0  0  0  0  0  0  0  0  0  0  0  0
   10.0970   -0.2370   24.7330 C   0  0  0  0  0  0  0  0  0  0  0  0
    8.2740   -3.6850   24.1190 C   0  0  0  0  0  0  0  0  0  0  0  0
    9.5820   -4.4720   24.2040 C   0  0  0  0  0  0  0  0  0  0  0  0
    9.5450   -5.9100   23.7370 C   0  0  0  0  0  0  0  0  0  0  0  0
    8.2690   -6.4500   23.2370 C   0  0  0  0  0  0  0  0  0  0  0  0
    7.0360   -5.6530   23.1880 C   0  0  0  0  0  0  0  0  0  0  0  0
    5.7880   -6.3180   22.6630 C   0  0  0  0  0  0  0  0  0  0  0  0
    7.0860   -4.3200   23.6290 C   0  0  0  0  0  0  0  0  0  0  0  0
  1  2  1  0
  3  2  1  0
  3  4  2  0
  3  5  2  0
  3  6  1  0
  6  7  1  0
  8  7  1  6
  8  9  1  0
  6 10  1  0
  9 10  1  0
 10 11  1  1
  8 12  1  0
 11 12  1  0
 12 13  1  0
 13 14  1  6
 14 15  2  0
 15 16  1  0
 16 17  2  0
 17 18  1  0
 17 19  1  0
 14 20  1  0
 19 20  2  0
 13 21  1  0
 21 22  2  0
 22 23  1  0
 23 24  2  0
 24 25  1  0
 25 26  1  0
 21 27  1  0
 25 27  2  0
M  END
