MAK-UNK-e05327b2-2-chloroacetamide
     RDKit          3D

 51 57  0  0  0  0  0  0  0  0999 V2000
    7.2020   -3.4330   19.8970 C   0  0  0  0  0  0  0  0  0  0  0  0
    6.3300   -4.4910   20.5600 C   0  0  0  0  0  0  0  0  0  0  0  0
    5.3200   -4.8400   19.9690 O   0  0  0  0  0  0  0  0  0  0  0  0
    6.6340   -5.0840   21.7820 N   0  0  0  0  0  0  0  0  0  0  0  0
    7.4920   -4.6900   22.6760 C   0  0  0  0  0  0  0  0  0  0  0  0
    6.7470   -4.3460   23.9880 C   0  0  0  0  0  0  0  0  0  0  0  0
    5.7860   -5.3940   24.3960 N   0  0  0  0  0  0  0  0  0  0  0  0
    5.1020   -5.3290   25.9080 S   0  0  0  0  0  0  0  0  0  0  0  0
    4.0960   -6.3590   26.0350 O   0  0  0  0  0  0  0  0  0  0  0  0
    6.1910   -5.1940   26.8430 O   0  0  0  0  0  0  0  0  0  0  0  0
    4.1890   -3.8060   25.9410 C   0  0  0  0  0  0  0  0  0  0  0  0
    4.5930   -2.3590   26.0070 C   0  0  0  0  0  0  0  0  0  0  0  0
    3.4520   -1.3900   26.0270 C   0  0  0  0  0  0  0  0  0  0  0  0
    2.2300   -2.0760   25.9800 C   0  0  0  0  0  0  0  0  0  0  0  0
    0.9750   -1.4540   26.0000 C   0  0  0  0  0  0  0  0  0  0  0  0
   -0.0160   -1.1450   26.5450 N   0  0  0  0  0  0  0  0  0  0  0  0
   -1.0470   -0.6140   25.6240 C   0  0  0  0  0  0  0  0  0  0  0  0
   -2.2250   -0.4020   26.3390 C   0  0  0  0  0  0  0  0  0  0  0  0
   -2.1740   -0.4450   27.6910 N   0  0  0  0  0  0  0  0  0  0  0  0
   -3.6520   -0.1990   28.5520 S   0  0  0  0  0  0  0  0  0  0  0  0
   -4.7400   -0.4710   27.6400 O   0  0  0  0  0  0  0  0  0  0  0  0
   -3.5120   -0.9530   29.7810 O   0  0  0  0  0  0  0  0  0  0  0  0
   -3.7010    1.5660   28.9200 C   0  0  0  0  0  0  0  0  0  0  0  0
   -3.0030    2.4020   28.0340 C   0  0  0  0  0  0  0  0  0  0  0  0
   -2.9880    3.7850   28.2490 C   0  0  0  0  0  0  0  0  0  0  0  0
   -3.6650    4.3310   29.3400 C   0  0  0  0  0  0  0  0  0  0  0  0
   -4.3630    3.5080   30.2290 C   0  0  0  0  0  0  0  0  0  0  0  0
   -5.0230    4.1050   31.3050 C   0  0  0  0  0  0  0  0  0  0  0  0
   -5.7420    3.3460   32.2310 C   0  0  0  0  0  0  0  0  0  0  0  0
   -6.4470    4.0640   33.3960 C   0  0  0  0  0  0  0  0  0  0  0  0
   -5.5610    4.6110   34.5400 C   0  0  0  0  0  0  0  0  0  0  0  0
   -6.2630    5.0820   35.8090 C   0  0  0  0  0  0  0  0  0  0  0  0
   -6.5980    4.1120   36.9200 C   0  0  0  0  0  0  0  0  0  0  0  0
   -7.2280    4.7210   37.9710 C   0  0  0  0  0  0  0  0  0  0  0  0
   -7.4220    6.0980   37.7940 C   0  0  0  0  0  0  0  0  0  0  0  0
   -8.1690    7.1860   38.8920 Cl  0  0  0  0  0  0  0  0  0  0  0  0
   -6.8150    6.6630   36.2900 S   0  0  0  0  0  0  0  0  0  0  0  0
   -5.7940    1.9530   32.0630 C   0  0  0  0  0  0  0  0  0  0  0  0
   -6.5470    1.0010   33.0000 C   0  0  0  0  0  0  0  0  0  0  0  0
   -5.9590    0.9970   34.4210 C   0  0  0  0  0  0  0  0  0  0  0  0
   -4.5710    1.3960   34.8510 C   0  0  0  0  0  0  0  0  0  0  0  0
   -4.4030    1.2400   36.3540 C   0  0  0  0  0  0  0  0  0  0  0  0
   -5.8520    0.6620   37.0440 S   0  0  0  0  0  0  0  0  0  0  0  0
   -6.6920    0.5980   35.5390 C   0  0  0  0  0  0  0  0  0  0  0  0
   -5.1150    1.3750   30.9660 C   0  0  0  0  0  0  0  0  0  0  0  0
   -4.4000    2.1060   30.0410 C   0  0  0  0  0  0  0  0  0  0  0  0
   -0.9600    0.2200   28.2610 C   0  0  0  0  0  0  0  0  0  0  0  0
    0.2070   -0.1580   27.6260 C   0  0  0  0  0  0  0  0  0  0  0  0
    2.4540   -3.8130   25.9040 S   0  0  0  0  0  0  0  0  0  0  0  0
    4.9440   -5.8900   23.2630 C   0  0  0  0  0  0  0  0  0  0  0  0
    5.7640   -6.2060   22.1520 C   0  0  0  0  0  0  0  0  0  0  0  0
  1  2  1  0
  2  3  2  0
  2  4  1  0
  4  5  1  0
  5  6  1  0
  6  7  1  0
  7  8  1  0
  8  9  2  0
  8 10  2  0
  8 11  1  0
 11 12  2  0
 12 13  1  0
 13 14  2  0
 14 15  1  0
 15 16  1  0
 16 17  1  0
 17 18  1  0
 18 19  1  0
 19 20  1  0
 20 21  2  0
 20 22  2  0
 20 23  1  0
 23 24  2  0
 24 25  1  0
 25 26  2  0
 26 27  1  0
 27 28  1  0
 28 29  2  0
 29 30  1  0
 30 31  1  0
 31 32  1  0
 32 33  2  0
 33 34  1  0
 34 35  2  0
 35 36  1  0
 32 37  1  0
 35 37  1  0
 29 38  1  0
 38 39  1  0
 39 40  1  0
 40 41  1  0
 41 42  2  0
 42 43  1  0
 40 44  2  0
 43 44  1  0
 38 45  2  0
 23 46  1  0
 27 46  2  0
 45 46  1  0
 19 47  1  0
 16 48  1  0
 47 48  1  0
 11 49  1  0
 14 49  1  0
  7 50  1  0
  4 51  1  0
 50 51  1  0
M  END
