MAK-UNK-8fdbca50-24-chloroacetamide
     RDKit          3D

 39 42  0  0  0  0  0  0  0  0999 V2000
    6.6970   -5.3260   20.6670 C   0  0  0  0  0  0  0  0  0  0  0  0
    5.5360   -4.4170   20.7540 C   0  0  0  0  0  0  0  0  0  0  0  0
    4.9940   -4.0330   19.7090 O   0  0  0  0  0  0  0  0  0  0  0  0
    5.0840   -4.0360   22.0280 N   0  0  0  0  0  0  0  0  0  0  0  0
    4.9640   -4.9340   23.0780 C   0  0  0  0  0  0  0  0  0  0  0  0
    5.8030   -4.5970   24.3370 C   0  0  0  0  0  0  0  0  0  0  0  0
    5.3770   -3.2010   24.7730 C   0  0  0  0  0  0  0  0  0  0  0  0
    6.0970   -3.0080   26.1180 C   0  0  0  0  0  0  0  0  0  0  0  0
    6.1140   -3.9470   26.9190 O   0  0  0  0  0  0  0  0  0  0  0  0
    6.7040   -1.7500   26.4060 N   0  0  0  0  0  0  0  0  0  0  0  0
    7.6070   -1.1920   25.3650 C   0  0  0  0  0  0  0  0  0  0  0  0
    8.2070    0.1930   25.5620 C   0  0  0  0  0  0  0  0  0  0  0  0
    9.0820    0.8820   24.6570 C   0  0  0  0  0  0  0  0  0  0  0  0
    9.3370    0.1370   23.5310 C   0  0  0  0  0  0  0  0  0  0  0  0
    8.8070   -1.1920   23.2700 C   0  0  0  0  0  0  0  0  0  0  0  0
    9.1680   -1.9690   21.8330 S   0  0  0  0  0  0  0  0  0  0  0  0
    8.3800   -3.1370   22.0570 O   0  0  0  0  0  0  0  0  0  0  0  0
    8.8660   -1.0270   20.8010 O   0  0  0  0  0  0  0  0  0  0  0  0
   10.7550   -2.5840   21.6040 N   0  0  0  0  0  0  0  0  0  0  0  0
   11.2390   -3.5130   20.5630 C   0  0  0  0  0  0  0  0  0  0  0  0
   12.5820   -3.7870   20.7060 C   0  0  0  0  0  0  0  0  0  0  0  0
   13.3220   -4.5770   19.9620 C   0  0  0  0  0  0  0  0  0  0  0  0
   14.6640   -4.4210   19.8970 N   0  0  0  0  0  0  0  0  0  0  0  0
   15.4950   -5.5330   20.2640 C   0  0  0  0  0  0  0  0  0  0  0  0
   13.0070   -3.0450   21.8680 C   0  0  0  0  0  0  0  0  0  0  0  0
   11.9560   -2.3820   22.3530 C   0  0  0  0  0  0  0  0  0  0  0  0
   12.1620   -1.7300   23.3760 C   0  0  0  0  0  0  0  0  0  0  0  0
   11.4640   -0.6330   23.5450 C   0  0  0  0  0  0  0  0  0  0  0  0
   11.6320    0.0660   24.6380 C   0  0  0  0  0  0  0  0  0  0  0  0
   12.5560   -0.4310   25.5540 C   0  0  0  0  0  0  0  0  0  0  0  0
   13.2910   -1.5430   25.4100 C   0  0  0  0  0  0  0  0  0  0  0  0
   13.1040   -2.2680   24.2150 C   0  0  0  0  0  0  0  0  0  0  0  0
   13.8050   -3.3470   24.0060 F   0  0  0  0  0  0  0  0  0  0  0  0
    7.9650   -1.8340   24.1850 C   0  0  0  0  0  0  0  0  0  0  0  0
    6.8210   -1.2750   27.8130 C   0  0  0  0  0  0  0  0  0  0  0  0
    7.9730   -0.5710   28.1260 C   0  0  0  0  0  0  0  0  0  0  0  0
    6.5730   -2.3910   28.8240 C   0  0  0  0  0  0  0  0  0  0  0  0
    5.6140   -2.1720   23.6710 C   0  0  0  0  0  0  0  0  0  0  0  0
    4.8740   -2.6240   22.4110 C   0  0  0  0  0  0  0  0  0  0  0  0
  1  2  1  0
  2  3  2  0
  2  4  1  0
  4  5  1  0
  5  6  1  0
  6  7  1  0
  7  8  1  0
  8  9  2  0
  8 10  1  0
 10 11  1  0
 11 12  2  0
 12 13  1  0
 13 14  2  0
 14 15  1  0
 16 15  1  0
 16 17  2  0
 16 18  2  0
 16 19  1  0
 19 20  1  0
 20 21  2  0
 21 22  1  0
 22 23  1  0
 23 24  1  0
 21 25  1  0
 19 26  1  0
 25 26  2  0
 26 27  1  0
 27 28  2  0
 28 29  1  0
 29 30  2  0
 30 31  1  0
 27 32  1  0
 31 32  2  0
 32 33  1  0
 11 34  1  0
 15 34  2  0
 10 35  1  0
 35 36  1  0
 35 37  1  0
  7 38  1  0
  4 39  1  0
 38 39  1  0
M  END
