MAK-UNK-212f693e-32-acrylamide
     RDKit          3D

 16 17  0  0  0  0  0  0  0  0999 V2000
    7.4050   -3.1170   19.1280 C   0  0  0  0  0  0  0  0  0  0  0  0
    7.0010   -3.1790   20.5850 C   0  0  0  0  0  0  0  0  0  0  0  0
    6.1140   -4.3860   20.8040 C   0  0  0  0  0  0  0  0  0  0  0  0
    5.2020   -4.6160   19.9950 O   0  0  0  0  0  0  0  0  0  0  0  0
    6.3680   -5.2030   21.9080 N   0  0  0  0  0  0  0  0  0  0  0  0
    7.1940   -4.7510   23.0450 C   0  0  0  0  0  0  0  0  0  0  0  0
    6.3810   -4.5370   24.2740 C   0  0  0  0  0  0  0  0  0  0  0  0
    5.0220   -4.6670   24.1160 C   0  0  0  0  0  0  0  0  0  0  0  0
    4.3590   -4.8220   25.3440 C   0  0  0  0  0  0  0  0  0  0  0  0
    3.4240   -3.7890   25.5190 C   0  0  0  0  0  0  0  0  0  0  0  0
    3.6650   -2.4790   25.8210 C   0  0  0  0  0  0  0  0  0  0  0  0
    2.4910   -1.7340   25.9080 C   0  0  0  0  0  0  0  0  0  0  0  0
    1.1170   -2.7280   25.6040 S   0  0  0  0  0  0  0  0  0  0  0  0
    2.1130   -4.1150   25.3620 C   0  0  0  0  0  0  0  0  0  0  0  0
    4.5260   -5.7410   23.3000 C   0  0  0  0  0  0  0  0  0  0  0  0
    5.4390   -6.1560   22.3060 C   0  0  0  0  0  0  0  0  0  0  0  0
  1  2  1  0
  2  3  1  0
  3  4  2  0
  3  5  1  0
  5  6  1  0
  6  7  1  0
  7  8  1  0
  8  9  1  0
  9 10  1  0
 10 11  1  0
 11 12  2  0
 12 13  1  0
 10 14  2  0
 13 14  1  0
  8 15  1  0
  5 16  1  0
 15 16  1  0
M  END
