MAK-UNK-f983951f-22-nitrile
     RDKit          3D

 14 14  0  0  0  0  0  0  0  0999 V2000
    6.0220   -4.2980   20.2650 C   0  0  0  0  0  0  0  0  0  0  0  0
    5.1460   -3.7250   19.5580 N   0  0  0  0  0  0  0  0  0  0  0  0
    5.6360   -4.8170   21.5340 N   0  0  0  0  0  0  0  0  0  0  0  0
    6.0120   -4.5530   22.9510 C   0  0  2  0  0  0  0  0  0  0  0  0
    5.4010   -3.3050   23.6010 C   0  0  0  0  0  0  0  0  0  0  0  0
    4.3730   -3.4670   24.5870 C   0  0  0  0  0  0  0  0  0  0  0  0
    4.4240   -4.5480   25.5660 C   0  0  0  0  0  0  0  0  0  0  0  0
    3.4240   -3.7560   25.5860 C   0  0  0  0  0  0  0  0  0  0  0  0
    2.2840   -3.5840   26.2780 C   0  0  0  0  0  0  0  0  0  0  0  0
    2.0520   -2.5360   25.5150 C   0  0  0  0  0  0  0  0  0  0  0  0
    3.2070   -2.4960   24.6060 C   0  0  0  0  0  0  0  0  0  0  0  0
    7.5130   -4.6670   23.0910 C   0  0  0  0  0  0  0  0  0  0  0  0
    8.2390   -3.5260   23.4460 C   0  0  0  0  0  0  0  0  0  0  0  0
    8.0420   -5.7450   22.8910 O   0  0  0  0  0  0  0  0  0  0  0  0
  1  2  2  3
  1  3  1  0
  3  4  1  0
  4  5  1  6
  5  6  1  0
  6  7  2  0
  7  8  1  0
  8  9  2  0
  9 10  1  0
  6 11  1  0
 10 11  2  0
  4 12  1  0
 12 13  1  0
 12 14  2  0
M  END
