MAK-UNK-ec98eaf6-51-chloroacetamide
     RDKit          3D

 27 30  0  0  0  0  0  0  0  0999 V2000
    7.4560   -3.0800   18.8110 C   0  0  0  0  0  0  0  0  0  0  0  0
    6.3700   -3.3400   19.8620 C   0  0  0  0  0  0  0  0  0  0  0  0
    5.5930   -4.2970   19.8040 O   0  0  0  0  0  0  0  0  0  0  0  0
    6.2830   -2.4380   20.8740 N   0  0  0  0  0  0  0  0  0  0  0  0
    7.2680   -1.3810   20.8800 C   0  0  0  0  0  0  0  0  0  0  0  0
    8.2570   -2.1140   21.7460 C   0  0  2  0  0  0  0  0  0  0  0  0
    7.3820   -3.3560   21.9500 C   0  0  0  0  0  0  0  0  0  0  0  0
    6.0410   -2.6620   22.3120 C   0  0  1  0  0  0  0  0  0  0  0  0
    7.0590   -2.7390   23.4560 C   0  0  0  0  0  0  0  0  0  0  0  0
    8.0470   -1.6780   23.0880 N   0  0  0  0  0  0  0  0  0  0  0  0
    9.2000   -1.6370   23.9330 C   0  0  1  0  0  0  0  0  0  0  0  0
    9.5950   -2.9720   24.2770 C   0  0  0  0  0  0  0  0  0  0  0  0
    9.5150   -2.8440   25.7100 C   0  0  0  0  0  0  0  0  0  0  0  0
    9.3750   -4.0250   26.1970 C   0  0  0  0  0  0  0  0  0  0  0  0
    9.6700   -4.8850   25.2060 C   0  0  0  0  0  0  0  0  0  0  0  0
    9.5840   -6.1450   25.4520 C   0  0  0  0  0  0  0  0  0  0  0  0
    9.2100   -6.5470   26.6980 C   0  0  0  0  0  0  0  0  0  0  0  0
    8.9040   -5.6970   27.7320 C   0  0  0  0  0  0  0  0  0  0  0  0
    8.9850   -4.3790   27.4810 C   0  0  0  0  0  0  0  0  0  0  0  0
   10.4890   -1.0320   23.5810 C   0  0  0  0  0  0  0  0  0  0  0  0
   10.8300    0.0350   24.3290 C   0  0  0  0  0  0  0  0  0  0  0  0
   11.9960    0.7070   24.1110 C   0  0  0  0  0  0  0  0  0  0  0  0
   12.8070    0.2530   23.1360 C   0  0  0  0  0  0  0  0  0  0  0  0
   12.5090   -0.8470   22.3530 C   0  0  0  0  0  0  0  0  0  0  0  0
   13.3660   -1.3100   21.3240 C   0  0  0  0  0  0  0  0  0  0  0  0
   13.9700   -1.5620   20.4530 N   0  0  0  0  0  0  0  0  0  0  0  0
   11.3220   -1.5060   22.5730 C   0  0  0  0  0  0  0  0  0  0  0  0
  1  2  1  0
  2  3  2  0
  2  4  1  0
  4  5  1  0
  6  5  1  6
  6  7  1  0
  4  8  1  0
  7  8  1  0
  8  9  1  1
  6 10  1  0
  9 10  1  0
 10 11  1  0
 11 12  1  6
 12 13  1  0
 13 14  1  0
 14 15  2  0
 15 16  1  0
 16 17  2  0
 17 18  1  0
 14 19  1  0
 18 19  2  0
 11 20  1  0
 20 21  2  0
 21 22  1  0
 22 23  2  0
 23 24  1  0
 24 25  1  0
 25 26  3  0
 20 27  1  0
 24 27  2  0
M  END
