MAK-UNK-8fdbca50-31-chloroacetamide
     RDKit          3D

 39 42  0  0  0  0  0  0  0  0999 V2000
    8.4960   -4.9010   20.5710 C   0  0  0  0  0  0  0  0  0  0  0  0
    7.0560   -4.3780   20.3930 C   0  0  0  0  0  0  0  0  0  0  0  0
    6.0870   -5.0340   20.0100 O   0  0  0  0  0  0  0  0  0  0  0  0
    6.8280   -3.0040   20.7070 N   0  0  0  0  0  0  0  0  0  0  0  0
    7.9090   -2.0610   20.4730 C   0  0  0  0  0  0  0  0  0  0  0  0
    7.6950   -0.8190   21.0830 C   0  0  0  0  0  0  0  0  0  0  0  0
    6.9290   -0.9050   22.2420 C   0  0  0  0  0  0  0  0  0  0  0  0
    6.9830    0.1960   23.2130 C   0  0  0  0  0  0  0  0  0  0  0  0
    6.3710    1.2620   23.0610 O   0  0  0  0  0  0  0  0  0  0  0  0
    7.8040   -0.1180   24.2780 N   0  0  0  0  0  0  0  0  0  0  0  0
    8.8680   -0.7870   23.7310 C   0  0  0  0  0  0  0  0  0  0  0  0
    9.8440    0.0840   23.2730 C   0  0  0  0  0  0  0  0  0  0  0  0
   11.1250   -0.0280   22.6270 C   0  0  0  0  0  0  0  0  0  0  0  0
   11.2670   -1.5760   22.4930 C   0  0  0  0  0  0  0  0  0  0  0  0
   10.2460   -2.6300   22.9710 C   0  0  0  0  0  0  0  0  0  0  0  0
   10.4850   -3.9270   22.8040 F   0  0  0  0  0  0  0  0  0  0  0  0
    8.9940   -2.1590   23.6240 C   0  0  0  0  0  0  0  0  0  0  0  0
    8.0220   -3.2720   24.0910 C   0  0  0  0  0  0  0  0  0  0  0  0
    6.7400   -3.5820   23.6970 C   0  0  0  0  0  0  0  0  0  0  0  0
    6.2410   -4.7670   24.4740 C   0  0  0  0  0  0  0  0  0  0  0  0
    4.9690   -5.3470   24.3230 C   0  0  0  0  0  0  0  0  0  0  0  0
    4.9170   -5.9490   23.0730 N   0  0  0  0  0  0  0  0  0  0  0  0
    6.0210   -6.3850   22.3080 C   0  0  0  0  0  0  0  0  0  0  0  0
    7.2900   -5.1120   25.3220 C   0  0  0  0  0  0  0  0  0  0  0  0
    8.3520   -4.2690   25.1320 N   0  0  0  0  0  0  0  0  0  0  0  0
    9.7660   -4.5070   26.0670 S   0  0  0  0  0  0  0  0  0  0  0  0
    9.4310   -4.2190   27.4420 O   0  0  0  0  0  0  0  0  0  0  0  0
   10.1970   -5.8210   25.6870 O   0  0  0  0  0  0  0  0  0  0  0  0
   10.9990   -3.3540   25.5860 C   0  0  0  0  0  0  0  0  0  0  0  0
   12.3580   -3.6960   25.5660 C   0  0  0  0  0  0  0  0  0  0  0  0
   13.3530   -2.6260   25.1280 C   0  0  0  0  0  0  0  0  0  0  0  0
   12.7450   -1.2970   24.7670 C   0  0  0  0  0  0  0  0  0  0  0  0
   11.4370   -1.0370   24.8200 N   0  0  0  0  0  0  0  0  0  0  0  0
   10.6250   -2.0440   25.2140 C   0  0  0  0  0  0  0  0  0  0  0  0
    7.2870   -0.5700   25.6050 C   0  0  0  0  0  0  0  0  0  0  0  0
    6.8340    0.5180   26.5640 C   0  0  0  0  0  0  0  0  0  0  0  0
    8.2560   -1.4770   26.3440 C   0  0  0  0  0  0  0  0  0  0  0  0
    5.5040   -1.2130   21.7970 C   0  0  0  0  0  0  0  0  0  0  0  0
    5.4980   -2.4060   20.8390 C   0  0  0  0  0  0  0  0  0  0  0  0
  1  2  1  0
  2  3  2  0
  2  4  1  0
  4  5  1  0
  5  6  1  0
  6  7  1  0
  7  8  1  0
  8  9  2  0
  8 10  1  0
 10 11  1  0
 11 12  2  0
 12 13  1  0
 13 14  2  0
 14 15  1  0
 15 16  1  0
 11 17  1  0
 15 17  2  0
 17 18  1  0
 18 19  2  0
 19 20  1  0
 20 21  1  0
 21 22  1  0
 22 23  1  0
 20 24  2  0
 18 25  1  0
 24 25  1  0
 25 26  1  0
 26 27  2  0
 26 28  2  0
 26 29  1  0
 29 30  2  0
 30 31  1  0
 31 32  2  0
 32 33  1  0
 29 34  1  0
 33 34  2  0
 10 35  1  0
 35 36  1  0
 35 37  1  0
  7 38  1  0
  4 39  1  0
 38 39  1  0
M  END
