MAK-UNK-8145c7a0-2
     RDKit          3D

 25 27  0  0  0  0  0  0  0  0999 V2000
    9.0160   -6.1240   25.7680 O   0  0  0  0  0  0  0  0  0  0  0  0
    9.2970   -4.9820   26.5890 S   0  0  0  0  0  0  0  0  0  0  0  0
   10.6120   -4.7330   27.1310 O   0  0  0  0  0  0  0  0  0  0  0  0
    8.1860   -4.9750   27.8630 N   0  0  0  0  0  0  0  0  0  0  0  0
    7.4970   -3.6800   28.0860 C   0  0  0  0  0  0  0  0  0  0  0  0
    6.1150   -3.8970   28.5570 C   0  0  0  0  0  0  0  0  0  0  0  0
    5.5050   -2.7470   29.0690 C   0  0  0  0  0  0  0  0  0  0  0  0
    6.2520   -1.7220   29.6520 C   0  0  0  0  0  0  0  0  0  0  0  0
    5.6970   -0.5580   30.1850 C   0  0  0  0  0  0  0  0  0  0  0  0
    4.3410   -0.2780   30.1930 C   0  0  0  0  0  0  0  0  0  0  0  0
    3.4290   -1.3330   29.5740 C   0  0  0  0  0  0  0  0  0  0  0  0
    4.1090   -2.5850   29.0130 C   0  0  0  0  0  0  0  0  0  0  0  0
    8.9220   -3.5940   25.6020 C   0  0  0  0  0  0  0  0  0  0  0  0
    8.0920   -2.6420   25.9410 N   0  0  0  0  0  0  0  0  0  0  0  0
    7.9980   -1.6720   24.9720 N   0  0  0  0  0  0  0  0  0  0  0  0
    8.7630   -1.9410   23.9360 C   0  0  0  0  0  0  0  0  0  0  0  0
    8.8680   -1.1290   22.7890 C   0  0  0  0  0  0  0  0  0  0  0  0
   10.2130   -0.5530   22.6280 N   0  0  0  0  0  0  0  0  0  0  0  0
   10.5750    0.3770   23.7280 C   0  0  0  0  0  0  0  0  0  0  0  0
   11.7300    1.0890   23.4390 C   0  0  0  0  0  0  0  0  0  0  0  0
   12.7360    0.3850   22.8080 C   0  0  0  0  0  0  0  0  0  0  0  0
   12.5510   -0.8930   22.2770 C   0  0  0  0  0  0  0  0  0  0  0  0
   13.5410   -1.5480   21.6560 F   0  0  0  0  0  0  0  0  0  0  0  0
   11.1830   -1.5170   22.4090 C   0  0  0  0  0  0  0  0  0  0  0  0
    9.6550   -3.4090   24.0860 S   0  0  0  0  0  0  0  0  0  0  0  0
  1  2  2  0
  2  3  2  0
  2  4  1  0
  4  5  1  0
  5  6  1  0
  6  7  1  0
  7  8  2  0
  8  9  1  0
  9 10  2  0
 10 11  1  0
  7 12  1  0
 11 12  2  0
  2 13  1  0
 13 14  2  0
 14 15  1  0
 15 16  2  0
 16 17  1  0
 17 18  1  0
 18 19  1  0
 19 20  1  0
 20 21  1  0
 21 22  2  0
 22 23  1  0
 18 24  1  0
 22 24  1  0
 13 25  1  0
 16 25  1  0
M  END
