MAK-UNK-212f693e-3
     RDKit          3D

 15 16  0  0  0  0  0  0  0  0999 V2000
    7.0280   -3.0290   20.6440 C   0  0  0  0  0  0  0  0  0  0  0  0
    6.2160   -4.3260   20.7530 C   0  0  0  0  0  0  0  0  0  0  0  0
    5.4440   -4.7070   19.8730 O   0  0  0  0  0  0  0  0  0  0  0  0
    6.4410   -5.0320   21.9150 N   0  0  0  0  0  0  0  0  0  0  0  0
    7.2150   -4.4400   22.9910 C   0  0  0  0  0  0  0  0  0  0  0  0
    6.2850   -3.9930   24.1200 C   0  0  0  0  0  0  0  0  0  0  0  0
    5.2820   -5.0760   24.4050 C   0  0  1  0  0  0  0  0  0  0  0  0
    4.6380   -4.8730   25.4550 O   0  0  0  0  0  0  0  0  0  0  0  0
    3.6280   -3.9490   25.5180 C   0  0  0  0  0  0  0  0  0  0  0  0
    3.7850   -2.5790   25.7460 C   0  0  0  0  0  0  0  0  0  0  0  0
    2.6290   -1.7890   25.7880 C   0  0  0  0  0  0  0  0  0  0  0  0
    1.1940   -2.6900   25.5440 S   0  0  0  0  0  0  0  0  0  0  0  0
    2.1160   -4.1230   25.3770 C   0  0  0  0  0  0  0  0  0  0  0  0
    4.5690   -5.5330   23.2580 N   0  0  0  0  0  0  0  0  0  0  0  0
    5.4790   -6.0580   22.3410 C   0  0  0  0  0  0  0  0  0  0  0  0
  1  2  1  0
  2  3  2  0
  2  4  1  0
  4  5  1  0
  5  6  1  0
  6  7  1  0
  7  8  1  1
  8  9  1  0
  9 10  1  0
 10 11  2  0
 11 12  1  0
  9 13  2  0
 12 13  1  0
  7 14  1  0
  4 15  1  0
 14 15  1  0
M  END
