MAK-UNK-af83ef51-23-chloroacetamide
     RDKit          3D

 29 31  0  0  0  0  0  0  0  0999 V2000
    7.2090   -5.0620   20.9530 C   0  0  0  0  0  0  0  0  0  0  0  0
    5.7650   -4.5480   21.1890 C   0  0  0  0  0  0  0  0  0  0  0  0
    5.4700   -4.8650   20.0330 O   0  0  0  0  0  0  0  0  0  0  0  0
    6.3870   -4.3130   22.4060 N   0  0  0  0  0  0  0  0  0  0  0  0
    6.3620   -3.0540   23.0880 C   0  0  0  0  0  0  0  0  0  0  0  0
    7.2320   -2.9170   24.1810 C   0  0  0  0  0  0  0  0  0  0  0  0
    8.4890   -3.6770   23.9970 N   0  0  0  0  0  0  0  0  0  0  0  0
    9.1090   -3.2970   22.7050 C   0  0  0  0  0  0  0  0  0  0  0  0
   10.1080   -2.3340   22.7310 C   0  0  2  0  0  0  0  0  0  0  0  0
   11.1010   -2.4760   23.6900 C   0  0  0  0  0  0  0  0  0  0  0  0
   12.2200   -1.4770   23.5540 C   0  0  1  0  0  0  0  0  0  0  0  0
   13.0120   -1.7750   22.2800 C   0  0  0  0  0  0  0  0  0  0  0  0
   11.7830   -0.1760   23.7070 C   0  0  0  0  0  0  0  0  0  0  0  0
   10.2930    0.0570   23.4490 C   0  0  2  0  0  0  0  0  0  0  0  0
    9.4960    0.0330   24.6860 N   0  0  0  0  0  0  0  0  0  0  0  0
    8.5520    1.1420   24.7360 C   0  0  0  0  0  0  0  0  0  0  0  0
    9.0760    2.3450   24.1760 C   0  0  0  0  0  0  0  0  0  0  0  0
   10.4520    2.4140   24.2300 N   0  0  0  0  0  0  0  0  0  0  0  0
   11.1850    3.2840   23.3580 C   0  0  0  0  0  0  0  0  0  0  0  0
   11.7890    4.5310   23.2360 C   0  0  0  0  0  0  0  0  0  0  0  0
   12.2870    4.2830   21.6960 C   0  0  0  0  0  0  0  0  0  0  0  0
   12.6850    5.5010   22.0250 C   0  0  0  0  0  0  0  0  0  0  0  0
   12.7140    6.5490   23.0960 C   0  0  0  0  0  0  0  0  0  0  0  0
   11.5440    7.0770   23.5750 N   0  0  0  0  0  0  0  0  0  0  0  0
   11.9690    4.6670   22.9230 C   0  0  0  0  0  0  0  0  0  0  0  0
   11.7310    3.5220   22.2430 N   0  0  0  0  0  0  0  0  0  0  0  0
    9.7640   -0.9920   22.4540 C   0  0  0  0  0  0  0  0  0  0  0  0
    8.1580   -5.1090   23.9160 C   0  0  0  0  0  0  0  0  0  0  0  0
    6.7890   -5.4100   23.2930 C   0  0  0  0  0  0  0  0  0  0  0  0
  1  2  1  0
  2  3  2  0
  2  4  1  0
  4  5  1  0
  5  6  1  0
  6  7  1  0
  7  8  1  0
  9  8  1  1
  9 10  1  0
 10 11  1  0
 11 12  1  6
 11 13  1  0
 13 14  1  0
 14 15  1  1
 15 16  1  0
 16 17  1  0
 17 18  1  0
 18 19  1  0
 19 20  2  0
 20 21  1  0
 21 22  2  0
 22 23  1  0
 23 24  3  0
 22 25  1  0
 19 26  1  0
 25 26  2  0
  9 27  1  0
 14 27  1  0
  7 28  1  0
  4 29  1  0
 28 29  1  0
M  END
