MAK-UNK-51bb34f9-3-vinylsulfonamide
     RDKit          3D

 28 29  0  0  0  0  0  0  0  0999 V2000
    7.9210   -3.8210   20.5290 C   0  0  0  0  0  0  0  0  0  0  0  0
    6.9180   -4.8600   21.0070 C   0  0  0  0  0  0  0  0  0  0  0  0
    6.1960   -4.1460   22.4280 S   0  0  0  0  0  0  0  0  0  0  0  0
    4.8580   -3.6530   21.9050 O   0  0  0  0  0  0  0  0  0  0  0  0
    6.1660   -5.2090   23.4080 O   0  0  0  0  0  0  0  0  0  0  0  0
    7.5330   -3.0140   23.0620 C   0  0  0  0  0  0  0  0  0  0  0  0
    7.3640   -1.5040   23.3240 C   0  0  0  0  0  0  0  0  0  0  0  0
    8.7070   -1.1640   23.8380 N   0  0  0  0  0  0  0  0  0  0  0  0
   10.0860   -1.5610   24.2060 C   0  0  0  0  0  0  0  0  0  0  0  0
   11.3870   -2.2360   24.4890 N   0  0  0  0  0  0  0  0  0  0  0  0
   12.5500   -1.4700   24.5810 C   0  0  0  0  0  0  0  0  0  0  0  0
   13.1000   -1.1640   23.2080 C   0  0  0  0  0  0  0  0  0  0  0  0
    9.9970   -2.9320   23.8790 C   0  0  0  0  0  0  0  0  0  0  0  0
    8.7820   -3.4230   23.3800 C   0  0  0  0  0  0  0  0  0  0  0  0
    9.0350   -2.0170   23.7100 N   0  0  0  0  0  0  0  0  0  0  0  0
   10.1460   -1.7100   22.7680 C   0  0  0  0  0  0  0  0  0  0  0  0
   11.1880   -2.6310   22.3770 O   0  0  0  0  0  0  0  0  0  0  0  0
   10.0880   -0.3130   22.2230 C   0  0  0  0  0  0  0  0  0  0  0  0
    9.0370    0.4490   22.5640 N   0  0  0  0  0  0  0  0  0  0  0  0
    8.3590    0.8730   21.4930 C   0  0  0  0  0  0  0  0  0  0  0  0
    8.6910    1.9420   20.9960 O   0  0  0  0  0  0  0  0  0  0  0  0
    7.3750    0.0230   21.1090 N   0  0  0  0  0  0  0  0  0  0  0  0
    6.6030    0.4150   20.0890 C   0  0  0  0  0  0  0  0  0  0  0  0
    5.3650    1.2530   20.5430 C   0  0  0  0  0  0  0  0  0  0  0  0
    4.4510    1.7360   19.4310 C   0  0  0  0  0  0  0  0  0  0  0  0
    5.1280    1.1910   18.2570 C   0  0  0  0  0  0  0  0  0  0  0  0
    6.1550    0.4760   17.6820 N   0  0  0  0  0  0  0  0  0  0  0  0
    6.8830    0.1040   18.7450 C   0  0  0  0  0  0  0  0  0  0  0  0
  1  2  1  0
  3  2  1  0
  3  4  2  0
  3  5  2  0
  3  6  1  0
  6  7  2  0
  7  8  1  0
  8  9  2  0
  9 10  1  0
 10 11  1  0
 11 12  1  0
  9 13  1  0
  6 14  1  0
 13 14  2  0
 14 15  1  0
 15 16  1  0
 16 17  2  0
 16 18  1  0
 18 19  1  0
 19 20  1  0
 20 21  2  0
 20 22  1  0
 22 23  1  0
 23 24  2  0
 24 25  1  0
 25 26  2  0
 26 27  1  0
 23 28  1  0
 27 28  2  0
M  END
