MAK-UNK-e4a48a85-23-chloroacetamide
     RDKit          3D

 23 25  0  0  0  0  0  0  0  0999 V2000
    7.1570   -2.9700   18.7970 C   0  0  0  0  0  0  0  0  0  0  0  0
    6.2140   -3.2670   19.9140 C   0  0  0  0  0  0  0  0  0  0  0  0
    5.3680   -4.1600   19.7670 O   0  0  0  0  0  0  0  0  0  0  0  0
    6.3430   -2.5300   21.0980 N   0  0  0  0  0  0  0  0  0  0  0  0
    6.3020   -3.0880   22.4400 C   0  0  0  0  0  0  0  0  0  0  0  0
    7.6190   -3.3320   22.9600 C   0  0  0  0  0  0  0  0  0  0  0  0
    8.4780   -2.0800   22.9890 N   0  0  0  0  0  0  0  0  0  0  0  0
    9.7060   -2.1760   23.5960 C   0  0  0  0  0  0  0  0  0  0  0  0
   10.5580   -1.0800   23.3610 C   0  0  0  0  0  0  0  0  0  0  0  0
   11.7720   -1.3420   22.7940 N   0  0  0  0  0  0  0  0  0  0  0  0
   12.7180   -0.2740   22.5160 C   0  0  0  0  0  0  0  0  0  0  0  0
   12.2580    1.1390   22.9010 C   0  0  0  0  0  0  0  0  0  0  0  0
   13.0860    2.2690   22.7000 C   0  0  0  0  0  0  0  0  0  0  0  0
   14.4220    2.2890   22.0390 C   0  0  0  0  0  0  0  0  0  0  0  0
   15.0900    3.5400   22.0270 C   0  0  0  0  0  0  0  0  0  0  0  0
   14.0390    4.7850   22.8350 S   0  0  0  0  0  0  0  0  0  0  0  0
   12.7540    3.5910   23.1460 C   0  0  0  0  0  0  0  0  0  0  0  0
   10.9890    1.2660   23.4820 C   0  0  0  0  0  0  0  0  0  0  0  0
   10.4870    2.5740   23.8890 N   0  0  0  0  0  0  0  0  0  0  0  0
    9.8870    3.2990   22.7620 C   0  0  0  0  0  0  0  0  0  0  0  0
   10.1690    0.1760   23.7000 N   0  0  0  0  0  0  0  0  0  0  0  0
    8.5530   -1.4360   21.6970 C   0  0  0  0  0  0  0  0  0  0  0  0
    7.1530   -1.2940   21.0310 C   0  0  0  0  0  0  0  0  0  0  0  0
  1  2  1  0
  2  3  2  0
  2  4  1  0
  4  5  1  0
  5  6  1  0
  6  7  1  0
  7  8  1  0
  8  9  1  0
  9 10  2  0
 10 11  1  0
 11 12  2  0
 12 13  1  0
 13 14  1  0
 14 15  2  0
 15 16  1  0
 13 17  2  0
 16 17  1  0
 12 18  1  0
 18 19  1  0
 19 20  1  0
  9 21  1  0
 18 21  2  0
  7 22  1  0
  4 23  1  0
 22 23  1  0
M  END
