MAK-UNK-516d8086-1-vinylsulfonamide
     RDKit          3D

 24 26  0  0  0  0  0  0  0  0999 V2000
    7.0050   -3.8550   20.0790 C   0  0  0  0  0  0  0  0  0  0  0  0
    6.4450   -5.0770   20.8680 C   0  0  0  0  0  0  0  0  0  0  0  0
    5.8050   -4.6590   22.4570 S   0  0  0  0  0  0  0  0  0  0  0  0
    4.6150   -3.8640   22.2220 O   0  0  0  0  0  0  0  0  0  0  0  0
    5.6970   -5.8890   23.2110 O   0  0  0  0  0  0  0  0  0  0  0  0
    7.1100   -3.6330   23.2810 C   0  0  0  0  0  0  0  0  0  0  0  0
    6.5870   -2.2480   23.5480 C   0  0  0  0  0  0  0  0  0  0  0  0
    7.2330   -1.2780   24.1090 N   0  0  0  0  0  0  0  0  0  0  0  0
    8.4510   -1.6780   24.4260 C   0  0  0  0  0  0  0  0  0  0  0  0
    9.3900   -0.7370   25.0810 N   0  0  0  0  0  0  0  0  0  0  0  0
    8.8430    0.4260   25.4590 C   0  0  0  0  0  0  0  0  0  0  0  0
    8.9720   -2.9940   24.1830 C   0  0  0  0  0  0  0  0  0  0  0  0
   10.4160   -3.2870   24.6280 C   0  0  0  0  0  0  0  0  0  0  0  0
   11.3420   -2.2220   23.9530 C   0  0  0  0  0  0  0  0  0  0  0  0
   11.1050   -2.0050   22.6380 C   0  0  0  0  0  0  0  0  0  0  0  0
   11.9670   -1.0950   22.1460 C   0  0  0  0  0  0  0  0  0  0  0  0
   12.0260   -1.4990   23.5480 C   0  0  0  0  0  0  0  0  0  0  0  0
   11.4170   -2.3900   24.6670 C   0  0  0  0  0  0  0  0  0  0  0  0
   12.3310   -1.5890   24.8880 C   0  0  0  0  0  0  0  0  0  0  0  0
   10.9720   -2.6390   23.5780 C   0  0  0  0  0  0  0  0  0  0  0  0
   10.9800   -2.8600   22.3800 O   0  0  0  0  0  0  0  0  0  0  0  0
   12.4980   -2.4160   23.7970 N   0  0  0  0  0  0  0  0  0  0  0  0
   12.9150   -1.0650   24.2050 C   0  0  0  0  0  0  0  0  0  0  0  0
    8.3870   -4.1840   23.5700 C   0  0  0  0  0  0  0  0  0  0  0  0
  1  2  1  0
  3  2  1  0
  3  4  2  0
  3  5  2  0
  3  6  1  0
  6  7  2  0
  7  8  1  0
  8  9  2  0
  9 10  1  0
 10 11  1  0
  9 12  1  0
 12 13  1  0
 13 14  1  0
 14 15  2  0
 15 16  1  0
 16 17  2  0
 17 18  1  0
 14 19  1  0
 18 19  2  0
 18 20  1  0
 20 21  2  0
 20 22  1  0
 17 23  1  0
 22 23  1  0
  6 24  1  0
 12 24  2  0
M  END
