MAK-UNK-516d8086-8-nitrile
     RDKit          3D

 22 24  0  0  0  0  0  0  0  0999 V2000
    8.2790   -3.9690   19.9700 C   0  0  0  0  0  0  0  0  0  0  0  0
    6.9860   -3.9760   19.5850 N   0  0  0  0  0  0  0  0  0  0  0  0
    8.7790   -3.8990   21.4660 C   0  0  0  0  0  0  0  0  0  0  0  0
    8.4080   -5.0590   22.3960 C   0  0  0  0  0  0  0  0  0  0  0  0
    8.7930   -5.1450   23.6870 N   0  0  0  0  0  0  0  0  0  0  0  0
    9.5620   -4.1180   24.1600 C   0  0  0  0  0  0  0  0  0  0  0  0
    9.9220   -4.3780   25.6160 C   0  0  0  0  0  0  0  0  0  0  0  0
    9.2140   -5.4110   26.2350 C   0  0  0  0  0  0  0  0  0  0  0  0
    9.1890   -5.2600   27.6250 C   0  0  0  0  0  0  0  0  0  0  0  0
    9.9740   -2.9630   23.3890 C   0  0  0  0  0  0  0  0  0  0  0  0
   10.7890   -1.8750   23.8860 C   0  0  0  0  0  0  0  0  0  0  0  0
   12.0780   -2.0710   23.4250 C   0  0  0  0  0  0  0  0  0  0  0  0
   12.0390   -2.6990   24.6280 C   0  0  0  0  0  0  0  0  0  0  0  0
   10.8120   -2.4940   25.1800 C   0  0  0  0  0  0  0  0  0  0  0  0
    9.9340   -1.7170   24.4020 C   0  0  0  0  0  0  0  0  0  0  0  0
   10.3120   -1.1890   23.1200 C   0  0  0  0  0  0  0  0  0  0  0  0
   11.5600   -1.3080   22.3790 C   0  0  0  0  0  0  0  0  0  0  0  0
    9.0880   -0.4420   22.6760 C   0  0  0  0  0  0  0  0  0  0  0  0
    8.9890    0.2680   21.6930 O   0  0  0  0  0  0  0  0  0  0  0  0
    8.1190   -0.6920   23.6000 N   0  0  0  0  0  0  0  0  0  0  0  0
    8.6320   -1.3280   24.6700 C   0  0  0  0  0  0  0  0  0  0  0  0
    9.5550   -2.8900   22.0240 C   0  0  0  0  0  0  0  0  0  0  0  0
  1  2  2  3
  1  3  1  0
  3  4  2  0
  4  5  1  0
  5  6  2  0
  6  7  1  0
  7  8  1  0
  8  9  1  0
  6 10  1  0
 10 11  1  0
 11 12  1  0
 12 13  2  0
 13 14  1  0
 14 15  2  0
 15 16  1  0
 12 17  1  0
 16 17  2  0
 16 18  1  0
 18 19  2  0
 18 20  1  0
 15 21  1  0
 20 21  1  0
  3 22  1  0
 10 22  2  0
M  END
