MAK-UNK-516d8086-17-vinylsulfonamide
     RDKit          3D

 25 27  0  0  0  0  0  0  0  0999 V2000
    6.8450   -3.8700   20.0440 C   0  0  0  0  0  0  0  0  0  0  0  0
    6.2760   -5.0560   20.9050 C   0  0  0  0  0  0  0  0  0  0  0  0
    5.7370   -4.5410   22.5280 S   0  0  0  0  0  0  0  0  0  0  0  0
    4.3820   -4.0600   22.4430 O   0  0  0  0  0  0  0  0  0  0  0  0
    6.1040   -5.5610   23.4860 O   0  0  0  0  0  0  0  0  0  0  0  0
    6.8180   -3.0940   22.7940 C   0  0  0  0  0  0  0  0  0  0  0  0
    6.2350   -1.7940   23.3030 C   0  0  0  0  0  0  0  0  0  0  0  0
    6.9390   -0.6620   23.5160 N   0  0  0  0  0  0  0  0  0  0  0  0
    8.2690   -0.7390   23.2340 C   0  0  0  0  0  0  0  0  0  0  0  0
    9.2320    0.3910   23.3940 N   0  0  0  0  0  0  0  0  0  0  0  0
    9.9960    0.7280   22.3400 C   0  0  0  0  0  0  0  0  0  0  0  0
   11.3600    1.2300   22.8510 C   0  0  0  0  0  0  0  0  0  0  0  0
    8.9220   -2.0530   22.7110 C   0  0  0  0  0  0  0  0  0  0  0  0
   10.3550   -2.3330   22.3470 C   0  0  0  0  0  0  0  0  0  0  0  0
   11.3360   -1.4460   22.6770 C   0  0  0  0  0  0  0  0  0  0  0  0
   12.6630   -1.0480   23.5860 C   0  0  0  0  0  0  0  0  0  0  0  0
   13.1660   -2.2060   24.6810 C   0  0  0  0  0  0  0  0  0  0  0  0
   13.4830   -1.1340   24.3460 C   0  0  0  0  0  0  0  0  0  0  0  0
   12.6780   -2.1150   24.2020 C   0  0  0  0  0  0  0  0  0  0  0  0
   11.7770   -2.1280   23.4370 C   0  0  0  0  0  0  0  0  0  0  0  0
   12.7880   -3.1810   24.8770 C   0  0  0  0  0  0  0  0  0  0  0  0
   13.6350   -3.0250   25.7290 O   0  0  0  0  0  0  0  0  0  0  0  0
   12.0900   -2.6290   23.7970 N   0  0  0  0  0  0  0  0  0  0  0  0
   12.4900   -1.0990   23.4370 C   0  0  0  0  0  0  0  0  0  0  0  0
    8.1400   -3.1600   22.5290 C   0  0  0  0  0  0  0  0  0  0  0  0
  1  2  1  0
  3  2  1  0
  3  4  2  0
  3  5  2  0
  3  6  1  0
  6  7  2  0
  7  8  1  0
  8  9  2  0
  9 10  1  0
 10 11  1  0
 11 12  1  0
  9 13  1  0
 13 14  1  0
 14 15  1  0
 15 16  2  0
 16 17  1  0
 17 18  2  0
 18 19  1  0
 15 20  1  0
 19 20  2  0
 19 21  1  0
 21 22  2  0
 21 23  1  0
 18 24  1  0
 23 24  1  0
  6 25  1  0
 13 25  2  0
M  END
