MAK-UNK-516d8086-23-acrylamide
     RDKit          3D

 24 26  0  0  0  0  0  0  0  0999 V2000
    8.2040   -3.3700   19.5550 C   0  0  0  0  0  0  0  0  0  0  0  0
    6.6630   -3.6760   19.6540 C   0  0  0  0  0  0  0  0  0  0  0  0
    6.1360   -3.5170   21.0370 C   0  0  0  0  0  0  0  0  0  0  0  0
    4.9460   -3.2570   21.3030 O   0  0  0  0  0  0  0  0  0  0  0  0
    7.2400   -3.8500   22.0470 C   0  0  0  0  0  0  0  0  0  0  0  0
    7.6630   -5.1420   22.1140 C   0  0  0  0  0  0  0  0  0  0  0  0
    7.9310   -6.3080   22.0620 N   0  0  0  0  0  0  0  0  0  0  0  0
    8.7790   -5.8790   22.9870 C   0  0  0  0  0  0  0  0  0  0  0  0
    9.6220   -6.6380   23.6230 N   0  0  0  0  0  0  0  0  0  0  0  0
    9.4450   -6.0940   24.9410 C   0  0  0  0  0  0  0  0  0  0  0  0
    8.0950   -5.6850   25.0110 C   0  0  0  0  0  0  0  0  0  0  0  0
    8.8270   -4.3350   23.4600 C   0  0  0  0  0  0  0  0  0  0  0  0
    9.6790   -3.9170   24.4820 C   0  0  0  0  0  0  0  0  0  0  0  0
   10.8190   -3.1220   24.3580 C   0  0  0  0  0  0  0  0  0  0  0  0
   12.0760   -3.3850   24.9370 C   0  0  0  0  0  0  0  0  0  0  0  0
   12.8630   -2.1720   24.4900 C   0  0  0  0  0  0  0  0  0  0  0  0
   12.7330   -0.9120   23.7120 C   0  0  0  0  0  0  0  0  0  0  0  0
   11.4340   -1.0850   23.3580 C   0  0  0  0  0  0  0  0  0  0  0  0
   10.8090   -2.0640   23.7250 C   0  0  0  0  0  0  0  0  0  0  0  0
   10.2500   -0.4500   22.5630 C   0  0  0  0  0  0  0  0  0  0  0  0
    9.5100    0.3210   21.9990 O   0  0  0  0  0  0  0  0  0  0  0  0
   11.1050    0.5430   22.8700 N   0  0  0  0  0  0  0  0  0  0  0  0
   12.4040    0.1790   22.9670 C   0  0  0  0  0  0  0  0  0  0  0  0
    7.9820   -3.2540   22.9320 N   0  0  0  0  0  0  0  0  0  0  0  0
  1  2  1  0
  2  3  1  0
  3  4  2  0
  3  5  1  0
  5  6  2  0
  6  7  1  0
  7  8  2  0
  8  9  1  0
  9 10  1  0
 10 11  1  0
  8 12  1  0
 12 13  1  0
 13 14  1  0
 14 15  2  0
 15 16  1  0
 16 17  2  0
 17 18  1  0
 14 19  1  0
 18 19  2  0
 18 20  1  0
 20 21  2  0
 20 22  1  0
 17 23  1  0
 22 23  1  0
  5 24  1  0
 12 24  2  0
M  END
