MAK-UNK-10799360-2-chloroacetamide
     RDKit          3D

 27 30  0  0  0  0  0  0  0  0999 V2000
    7.3550   -3.0410   18.8560 C   0  0  0  0  0  0  0  0  0  0  0  0
    6.3800   -3.4380   19.9700 C   0  0  0  0  0  0  0  0  0  0  0  0
    5.5860   -4.3700   19.8380 O   0  0  0  0  0  0  0  0  0  0  0  0
    6.3460   -2.7200   21.1590 N   0  0  0  0  0  0  0  0  0  0  0  0
    5.9740   -3.1530   22.5500 C   0  0  0  0  0  0  0  0  0  0  0  0
    7.4250   -3.2500   23.0650 C   0  0  1  0  0  0  0  0  0  0  0  0
    7.9970   -2.8980   21.7310 C   0  0  0  0  0  0  0  0  0  0  0  0
    7.2250   -1.5460   21.4770 C   0  0  2  0  0  0  0  0  0  0  0  0
    8.3420   -1.1530   22.4830 C   0  0  1  0  0  0  0  0  0  0  0  0
    7.9740    0.2330   22.8870 N   0  0  0  0  0  0  0  0  0  0  0  0
    8.3720    1.3290   22.0240 C   0  0  0  0  0  0  0  0  0  0  0  0
    9.7450    1.9170   22.2620 C   0  0  0  0  0  0  0  0  0  0  0  0
   10.8060    1.1520   22.7420 C   0  0  0  0  0  0  0  0  0  0  0  0
   12.0710    1.7340   22.9370 C   0  0  0  0  0  0  0  0  0  0  0  0
   12.2490    3.0720   22.6460 C   0  0  0  0  0  0  0  0  0  0  0  0
   11.2190    3.8640   22.1760 C   0  0  0  0  0  0  0  0  0  0  0  0
    9.9610    3.2620   21.9940 C   0  0  0  0  0  0  0  0  0  0  0  0
    8.0860   -2.0490   23.7160 C   0  0  2  0  0  0  0  0  0  0  0  0
    9.3660   -2.4150   24.3170 N   0  0  0  0  0  0  0  0  0  0  0  0
   10.6460   -2.2100   23.6770 C   0  0  0  0  0  0  0  0  0  0  0  0
   11.1750   -3.0190   22.9620 O   0  0  0  0  0  0  0  0  0  0  0  0
   11.3840   -0.9250   23.9160 C   0  0  0  0  0  0  0  0  0  0  0  0
   12.2390    0.3000   23.9930 C   0  0  0  0  0  0  0  0  0  0  0  0
   13.2090    0.4060   23.1000 C   0  0  0  0  0  0  0  0  0  0  0  0
   12.7880   -0.7920   22.6100 C   0  0  0  0  0  0  0  0  0  0  0  0
   13.1000   -1.6530   21.6350 C   0  0  0  0  0  0  0  0  0  0  0  0
   11.9110   -1.8310   22.6940 C   0  0  0  0  0  0  0  0  0  0  0  0
  1  2  1  0
  2  3  2  0
  2  4  1  0
  4  5  1  0
  6  5  1  6
  6  7  1  0
  8  4  1  1
  7  8  1  0
  8  9  1  0
  9 10  1  1
 10 11  1  0
 11 12  1  0
 12 13  2  0
 13 14  1  0
 14 15  2  0
 15 16  1  0
 12 17  1  0
 16 17  2  0
  6 18  1  0
  9 18  1  0
 18 19  1  6
 19 20  1  0
 20 21  2  0
 20 22  1  0
 22 23  2  0
 23 24  1  0
 24 25  2  0
 25 26  1  0
 22 27  1  0
 26 27  2  0
M  END
