MAK-UNK-de9577cf-13
     RDKit          3D

 37 40  0  0  0  0  0  0  0  0999 V2000
   10.3730   -3.4350   24.6900 C   0  0  0  0  0  0  0  0  0  0  0  0
   11.8090   -3.5340   24.4940 N   0  0  0  0  0  0  0  0  0  0  0  0
   12.6150   -3.4440   25.7250 C   0  0  0  0  0  0  0  0  0  0  0  0
   14.0450   -4.0160   25.6820 C   0  0  0  0  0  0  0  0  0  0  0  0
   14.7060   -5.3410   25.8460 C   0  0  0  0  0  0  0  0  0  0  0  0
   16.0880   -5.2420   25.5920 N   0  0  0  0  0  0  0  0  0  0  0  0
   17.2420   -6.1980   25.5240 S   0  0  0  0  0  0  0  0  0  0  0  0
   18.1570   -6.0130   26.5890 O   0  0  0  0  0  0  0  0  0  0  0  0
   16.7010   -7.5100   25.2460 O   0  0  0  0  0  0  0  0  0  0  0  0
   17.7830   -5.3860   23.9900 C   0  0  0  0  0  0  0  0  0  0  0  0
   17.0280   -5.4470   22.6110 C   0  0  0  0  0  0  0  0  0  0  0  0
   17.5280   -4.9490   21.1820 C   0  0  0  0  0  0  0  0  0  0  0  0
   18.8490   -4.1540   21.1320 C   0  0  0  0  0  0  0  0  0  0  0  0
   19.4930   -4.0150   22.4460 N   0  0  0  0  0  0  0  0  0  0  0  0
   19.0820   -4.5410   23.7260 C   0  0  0  0  0  0  0  0  0  0  0  0
   16.3670   -3.9650   25.3290 C   0  0  0  0  0  0  0  0  0  0  0  0
   17.8390   -3.6030   25.0130 C   0  0  0  0  0  0  0  0  0  0  0  0
   18.8010   -2.5990   25.6010 C   0  0  0  0  0  0  0  0  0  0  0  0
   20.0660   -2.3130   25.1930 C   0  0  0  0  0  0  0  0  0  0  0  0
   20.5650   -2.9600   24.1410 C   0  0  0  0  0  0  0  0  0  0  0  0
   19.7370   -3.8950   23.5510 C   0  0  0  0  0  0  0  0  0  0  0  0
   18.4220   -4.2190   23.9650 C   0  0  0  0  0  0  0  0  0  0  0  0
   17.7320   -5.1530   23.2760 F   0  0  0  0  0  0  0  0  0  0  0  0
   14.9910   -3.2670   25.4100 C   0  0  0  0  0  0  0  0  0  0  0  0
   14.5560   -2.1380   25.2430 O   0  0  0  0  0  0  0  0  0  0  0  0
   13.6040   -2.1220   24.2210 C   0  0  0  0  0  0  0  0  0  0  0  0
   13.4210   -3.0470   23.4540 O   0  0  0  0  0  0  0  0  0  0  0  0
   12.7230   -0.8550   24.0460 C   0  0  0  0  0  0  0  0  0  0  0  0
   13.1520    0.2760   23.1170 C   0  0  0  0  0  0  0  0  0  0  0  0
   12.2790    1.4970   22.9400 C   0  0  0  0  0  0  0  0  0  0  0  0
   10.9770    1.5750   23.6810 C   0  0  0  0  0  0  0  0  0  0  0  0
    9.9580    3.0240   23.4460 S   0  0  0  0  0  0  0  0  0  0  0  0
    9.3000    2.7870   21.9150 N   0  0  0  0  0  0  0  0  0  0  0  0
   10.8360    4.1690   23.3220 O   0  0  0  0  0  0  0  0  0  0  0  0
    8.8360    3.0220   24.3600 O   0  0  0  0  0  0  0  0  0  0  0  0
   10.6190    0.3980   24.5890 C   0  0  0  0  0  0  0  0  0  0  0  0
   11.4770   -0.7280   24.7310 C   0  0  0  0  0  0  0  0  0  0  0  0
  1  2  1  0
  2  3  1  0
  3  4  1  0
  4  5  2  0
  5  6  1  0
  6  7  1  0
  7  8  2  0
  7  9  2  0
  7 10  1  0
 10 11  2  0
 11 12  1  0
 12 13  2  0
 13 14  1  0
 10 15  1  0
 14 15  2  0
  6 16  1  0
 16 17  1  0
 17 18  2  0
 18 19  1  0
 19 20  2  0
 20 21  1  0
 17 22  1  0
 21 22  2  0
 22 23  1  0
  4 24  1  0
 16 24  2  0
 24 25  1  0
 25 26  1  0
 26 27  2  0
 26 28  1  0
 28 29  2  0
 29 30  1  0
 30 31  2  0
 31 32  1  0
 32 33  1  0
 32 34  2  0
 32 35  2  0
 31 36  1  0
 28 37  1  0
 36 37  2  0
M  END
