MAK-UNK-8fdbca50-37-vinylsulfonamide
     RDKit          3D

 41 44  0  0  0  0  0  0  0  0999 V2000
    6.8010   -3.2460   18.9840 C   0  0  0  0  0  0  0  0  0  0  0  0
    7.0410   -2.0690   19.8910 C   0  0  0  0  0  0  0  0  0  0  0  0
    6.2670   -2.2580   21.4710 S   0  0  0  0  0  0  0  0  0  0  0  0
    5.1060   -3.4480   21.3430 O   0  0  0  0  0  0  0  0  0  0  0  0
    5.6970   -0.9530   21.7150 O   0  0  0  0  0  0  0  0  0  0  0  0
    7.8910   -2.1330   22.4320 N   0  0  0  0  0  0  0  0  0  0  0  0
    9.2630   -1.9530   21.7350 C   0  0  0  0  0  0  0  0  0  0  0  0
   10.4670   -2.1160   22.7280 C   0  0  0  0  0  0  0  0  0  0  0  0
   10.1430   -0.9400   23.6260 C   0  0  1  0  0  0  0  0  0  0  0  0
    9.8020    0.1000   22.5760 C   0  0  0  0  0  0  0  0  0  0  0  0
   10.0580    0.9300   21.7230 O   0  0  0  0  0  0  0  0  0  0  0  0
   11.2750   -0.1870   22.6520 N   0  0  0  0  0  0  0  0  0  0  0  0
   11.8600   -1.4990   22.1460 C   0  0  0  0  0  0  0  0  0  0  0  0
   11.9910    0.4470   23.7260 C   0  0  0  0  0  0  0  0  0  0  0  0
   12.7820   -0.6240   24.4890 C   0  0  0  0  0  0  0  0  0  0  0  0
   12.8180    1.5140   23.0450 C   0  0  0  0  0  0  0  0  0  0  0  0
    9.0520   -1.0580   24.4560 C   0  0  1  0  0  0  0  0  0  0  0  0
    8.7250    0.0970   25.3090 N   0  0  0  0  0  0  0  0  0  0  0  0
    7.3960    0.2840   25.6890 C   0  0  0  0  0  0  0  0  0  0  0  0
    6.8730   -0.9680   26.0230 C   0  0  0  0  0  0  0  0  0  0  0  0
    7.6600   -2.0560   25.7410 C   0  0  0  0  0  0  0  0  0  0  0  0
    7.0600   -3.1810   26.1050 C   0  0  0  0  0  0  0  0  0  0  0  0
    7.6220   -4.4380   25.9410 C   0  0  0  0  0  0  0  0  0  0  0  0
    8.3260   -4.3810   27.1730 C   0  0  0  0  0  0  0  0  0  0  0  0
    9.1210   -5.5910   27.3760 C   0  0  0  0  0  0  0  0  0  0  0  0
    9.1050   -6.6330   26.3680 C   0  0  0  0  0  0  0  0  0  0  0  0
    8.2720   -6.2450   25.3570 C   0  0  0  0  0  0  0  0  0  0  0  0
    8.4250   -5.3870   26.4260 C   0  0  0  0  0  0  0  0  0  0  0  0
    8.3870   -4.3780   27.3110 F   0  0  0  0  0  0  0  0  0  0  0  0
    5.7760   -2.8790   26.6730 N   0  0  0  0  0  0  0  0  0  0  0  0
    4.6010   -3.9460   27.2940 S   0  0  0  0  0  0  0  0  0  0  0  0
    3.7820   -3.1450   28.1820 O   0  0  0  0  0  0  0  0  0  0  0  0
    4.0360   -4.6320   26.1430 O   0  0  0  0  0  0  0  0  0  0  0  0
    5.5510   -5.1050   28.2110 C   0  0  0  0  0  0  0  0  0  0  0  0
    6.1770   -6.2460   29.0590 C   0  0  0  0  0  0  0  0  0  0  0  0
    5.5730   -7.4230   29.7120 C   0  0  0  0  0  0  0  0  0  0  0  0
    4.1380   -7.5410   29.5280 C   0  0  0  0  0  0  0  0  0  0  0  0
    3.5140   -6.6190   28.8220 N   0  0  0  0  0  0  0  0  0  0  0  0
    4.1860   -5.5580   28.2590 C   0  0  0  0  0  0  0  0  0  0  0  0
    5.6790   -1.4700   26.6120 C   0  0  0  0  0  0  0  0  0  0  0  0
    7.8840   -1.1040   23.4940 C   0  0  0  0  0  0  0  0  0  0  0  0
  1  2  1  0
  3  2  1  0
  3  4  2  0
  3  5  2  0
  3  6  1  0
  6  7  1  0
  7  8  1  0
  8  9  1  0
  9 10  1  6
 10 11  2  0
 10 12  1  0
 12 13  1  0
 12 14  1  0
 14 15  1  0
 14 16  1  0
  9 17  1  0
 17 18  1  1
 18 19  1  0
 19 20  1  0
 20 21  1  0
 21 22  2  0
 22 23  1  0
 23 24  2  0
 24 25  1  0
 25 26  2  0
 26 27  1  0
 23 28  1  0
 27 28  2  0
 28 29  1  0
 22 30  1  0
 30 31  1  0
 31 32  2  0
 31 33  2  0
 31 34  1  0
 34 35  2  0
 35 36  1  0
 36 37  2  0
 37 38  1  0
 34 39  1  0
 38 39  2  0
 20 40  2  0
 30 40  1  0
  6 41  1  0
 17 41  1  0
M  END
