MAK-UNK-90d0606b-9-nitrile
     RDKit          3D

 19 21  0  0  0  0  0  0  0  0999 V2000
    7.4190   -3.3830   19.9080 C   0  0  0  0  0  0  0  0  0  0  0  0
    6.1720   -3.6020   19.5440 N   0  0  0  0  0  0  0  0  0  0  0  0
    7.9470   -2.6950   21.0970 N   0  0  0  0  0  0  0  0  0  0  0  0
    9.2490   -3.0220   21.8010 C   0  0  0  0  0  0  0  0  0  0  0  0
    9.6190   -1.7800   22.5940 C   0  0  1  0  0  0  0  0  0  0  0  0
    9.0660   -0.7220   21.7280 C   0  0  0  0  0  0  0  0  0  0  0  0
    7.6940   -1.2780   21.6450 C   0  0  2  0  0  0  0  0  0  0  0  0
    7.3980   -1.3430   23.0090 C   0  0  0  0  0  0  0  0  0  0  0  0
    8.5750   -1.6570   23.7690 C   0  0  1  0  0  0  0  0  0  0  0  0
    8.5300   -2.9000   24.3790 C   0  0  0  0  0  0  0  0  0  0  0  0
    9.1150   -3.1360   25.4290 O   0  0  0  0  0  0  0  0  0  0  0  0
    7.7040   -3.8600   23.6020 N   0  0  0  0  0  0  0  0  0  0  0  0
    6.5970   -4.7540   24.0970 C   0  0  0  0  0  0  0  0  0  0  0  0
    6.3340   -4.8420   25.5400 N   0  0  0  0  0  0  0  0  0  0  0  0
    5.3440   -5.6350   26.0470 C   0  0  0  0  0  0  0  0  0  0  0  0
    4.5040   -6.4210   25.2630 C   0  0  0  0  0  0  0  0  0  0  0  0
    4.7460   -6.3570   23.7550 C   0  0  0  0  0  0  0  0  0  0  0  0
    5.8420   -5.4840   23.1520 C   0  0  0  0  0  0  0  0  0  0  0  0
    6.0620   -5.4410   21.6270 C   0  0  0  0  0  0  0  0  0  0  0  0
  1  2  2  3
  1  3  1  0
  3  4  1  0
  5  4  1  6
  5  6  1  0
  3  7  1  0
  6  7  1  0
  7  8  1  1
  5  9  1  0
  8  9  1  0
  9 10  1  6
 10 11  2  0
 10 12  1  0
 12 13  1  0
 13 14  2  0
 14 15  1  0
 15 16  2  0
 16 17  1  0
 13 18  1  0
 17 18  2  0
 18 19  1  0
M  END
