MAK-UNK-ec98eaf6-16-chloroacetamide
     RDKit          3D

 22 24  0  0  0  0  0  0  0  0999 V2000
    7.3550   -3.0470   18.8850 C   0  0  0  0  0  0  0  0  0  0  0  0
    6.3740   -3.2870   19.9770 C   0  0  0  0  0  0  0  0  0  0  0  0
    5.4200   -4.0770   19.7840 O   0  0  0  0  0  0  0  0  0  0  0  0
    6.6680   -2.6080   21.1500 N   0  0  0  0  0  0  0  0  0  0  0  0
    7.8780   -1.7050   21.2680 C   0  0  0  0  0  0  0  0  0  0  0  0
    7.5710   -1.0530   22.6320 C   0  0  1  0  0  0  0  0  0  0  0  0
    6.0590   -1.2500   22.8190 C   0  0  0  0  0  0  0  0  0  0  0  0
    6.1260   -2.7180   22.5430 C   0  0  2  0  0  0  0  0  0  0  0  0
    7.2410   -3.1220   23.4710 C   0  0  0  0  0  0  0  0  0  0  0  0
    8.0470   -2.0100   23.7090 N   0  0  0  0  0  0  0  0  0  0  0  0
    9.4770   -2.3930   23.7130 C   0  0  0  0  0  0  0  0  0  0  0  0
   10.5420   -1.3260   23.4260 C   0  0  0  0  0  0  0  0  0  0  0  0
   10.0610    0.0840   23.7410 C   0  0  0  0  0  0  0  0  0  0  0  0
   11.0720    1.1940   23.4450 C   0  0  0  0  0  0  0  0  0  0  0  0
   10.6870    2.6330   23.6720 C   0  0  0  0  0  0  0  0  0  0  0  0
    9.4120    3.0550   22.9520 C   0  0  0  0  0  0  0  0  0  0  0  0
    9.4670    2.8180   21.5370 O   0  0  0  0  0  0  0  0  0  0  0  0
   12.3300    0.9580   22.9560 N   0  0  0  0  0  0  0  0  0  0  0  0
   12.7520   -0.3050   22.6860 C   0  0  0  0  0  0  0  0  0  0  0  0
   11.9270   -1.5550   22.8830 C   0  0  0  0  0  0  0  0  0  0  0  0
   12.6580   -2.8080   22.4840 C   0  0  0  0  0  0  0  0  0  0  0  0
   12.9630   -2.7990   21.0750 N   0  0  0  0  0  0  0  0  0  0  0  0
  1  2  1  0
  2  3  2  0
  2  4  1  0
  4  5  1  0
  6  5  1  6
  6  7  1  0
  4  8  1  0
  7  8  1  0
  8  9  1  1
  6 10  1  0
  9 10  1  0
 10 11  1  0
 11 12  1  0
 12 13  2  0
 13 14  1  0
 14 15  1  0
 15 16  1  0
 16 17  1  0
 14 18  2  0
 18 19  1  0
 12 20  1  0
 19 20  2  0
 20 21  1  0
 21 22  3  0
M  END
