MAK-UNK-d4768348-2-nitrile
     RDKit          3D

 16 17  0  0  0  0  0  0  0  0999 V2000
    6.3680   -4.4850   20.3520 C   0  0  0  0  0  0  0  0  0  0  0  0
    5.2440   -4.2320   19.8250 N   0  0  0  0  0  0  0  0  0  0  0  0
    6.5630   -5.0690   21.5790 N   0  0  0  0  0  0  0  0  0  0  0  0
    7.3350   -4.4350   22.6390 C   0  0  0  0  0  0  0  0  0  0  0  0
    6.4130   -4.0550   23.7950 C   0  0  0  0  0  0  0  0  0  0  0  0
    5.4280   -5.1020   24.0950 N   0  0  0  0  0  0  0  0  0  0  0  0
    4.7310   -5.1100   25.6440 S   0  0  0  0  0  0  0  0  0  0  0  0
    4.0520   -6.3730   25.8190 O   0  0  0  0  0  0  0  0  0  0  0  0
    5.7330   -4.6660   26.5830 O   0  0  0  0  0  0  0  0  0  0  0  0
    3.4460   -3.8840   25.6150 C   0  0  0  0  0  0  0  0  0  0  0  0
    3.7310   -2.4000   25.8710 C   0  0  0  0  0  0  0  0  0  0  0  0
    2.5940   -1.5670   25.8220 N   0  0  0  0  0  0  0  0  0  0  0  0
    1.2960   -2.6040   25.4830 S   0  0  0  0  0  0  0  0  0  0  0  0
    1.9680   -4.1350   25.3570 C   0  0  0  0  0  0  0  0  0  0  0  0
    4.8120   -5.5990   23.0390 C   0  0  0  0  0  0  0  0  0  0  0  0
    5.7120   -6.0360   22.0160 C   0  0  0  0  0  0  0  0  0  0  0  0
  1  2  2  3
  1  3  1  0
  3  4  1  0
  4  5  1  0
  5  6  1  0
  6  7  1  0
  7  8  2  0
  7  9  2  0
  7 10  1  0
 10 11  2  0
 11 12  1  0
 12 13  1  0
 10 14  1  0
 13 14  2  0
  6 15  1  0
  3 16  1  0
 15 16  1  0
M  END
