MAK-UNK-e4a48a85-13-vinylsulfonamide
     RDKit          3D

 22 23  0  0  0  0  0  0  0  0999 V2000
    7.8440   -3.6470   20.0350 C   0  0  0  0  0  0  0  0  0  0  0  0
    7.1220   -2.5930   19.1690 C   0  0  0  0  0  0  0  0  0  0  0  0
    5.6580   -2.1240   20.0470 S   0  0  0  0  0  0  0  0  0  0  0  0
    5.0790   -3.3290   20.6460 O   0  0  0  0  0  0  0  0  0  0  0  0
    4.8850   -1.2630   19.1870 O   0  0  0  0  0  0  0  0  0  0  0  0
    6.2960   -1.1460   21.2630 N   0  0  0  0  0  0  0  0  0  0  0  0
    6.6540    0.2390   20.9220 C   0  0  0  0  0  0  0  0  0  0  0  0
    7.3680    0.7700   22.1970 C   0  0  0  0  0  0  0  0  0  0  0  0
    8.7310    0.1360   22.2730 N   0  0  0  0  0  0  0  0  0  0  0  0
    9.6460    0.4010   23.4160 C   0  0  0  0  0  0  0  0  0  0  0  0
    9.2330   -0.4390   24.6400 C   0  0  0  0  0  0  0  0  0  0  0  0
   10.3530   -1.5680   24.8300 C   0  0  2  0  0  0  0  0  0  0  0  0
   11.2110   -1.6230   23.7430 N   0  0  0  0  0  0  0  0  0  0  0  0
    9.7970   -2.8110   25.3020 N   0  0  0  0  0  0  0  0  0  0  0  0
   10.4210   -4.0490   25.3100 C   0  0  0  0  0  0  0  0  0  0  0  0
    9.8820   -5.0510   26.3700 C   0  0  0  0  0  0  0  0  0  0  0  0
    8.3570   -5.0600   26.4370 C   0  0  0  0  0  0  0  0  0  0  0  0
    7.9160   -4.4920   27.6670 O   0  0  0  0  0  0  0  0  0  0  0  0
    7.7950   -4.3020   25.2470 C   0  0  0  0  0  0  0  0  0  0  0  0
    8.4200   -2.9170   25.0910 C   0  0  0  0  0  0  0  0  0  0  0  0
    8.6550   -1.2970   21.9700 C   0  0  0  0  0  0  0  0  0  0  0  0
    7.2290   -1.8070   22.1680 C   0  0  0  0  0  0  0  0  0  0  0  0
  1  2  1  0
  3  2  1  0
  3  4  2  0
  3  5  2  0
  3  6  1  0
  6  7  1  0
  7  8  1  0
  8  9  1  0
  9 10  1  0
 10 11  1  0
 11 12  1  0
 12 13  1  6
 12 14  1  0
 14 15  1  0
 15 16  1  0
 16 17  1  0
 17 18  1  0
 17 19  1  0
 14 20  1  0
 19 20  1  0
  9 21  1  0
  6 22  1  0
 21 22  1  0
M  END
