MAK-UNK-af83ef51-31-acrylamide
     RDKit          3D

 26 27  0  0  0  0  0  0  0  0999 V2000
    7.8990   -3.2490   19.0920 C   0  0  0  0  0  0  0  0  0  0  0  0
    6.6940   -2.4300   18.7810 C   0  0  0  0  0  0  0  0  0  0  0  0
    5.7290   -2.7410   19.8610 C   0  0  0  0  0  0  0  0  0  0  0  0
    4.8510   -3.5620   19.6240 O   0  0  0  0  0  0  0  0  0  0  0  0
    5.9600   -2.1370   21.0880 N   0  0  0  0  0  0  0  0  0  0  0  0
    5.7230   -2.7860   22.3910 C   0  0  0  0  0  0  0  0  0  0  0  0
    6.9030   -3.2070   23.0280 C   0  0  0  0  0  0  0  0  0  0  0  0
    7.9700   -2.2030   23.1080 N   0  0  0  0  0  0  0  0  0  0  0  0
    9.2580   -2.8420   23.3710 C   0  0  0  0  0  0  0  0  0  0  0  0
   10.2930   -1.9400   23.4930 C   0  0  0  0  0  0  0  0  0  0  0  0
   10.2490   -1.2630   24.6800 C   0  0  0  0  0  0  0  0  0  0  0  0
   10.7910    0.0550   24.6240 C   0  0  0  0  0  0  0  0  0  0  0  0
   10.0590    1.2180   24.7850 O   0  0  0  0  0  0  0  0  0  0  0  0
   12.2050   -0.1030   24.3510 N   0  0  0  0  0  0  0  0  0  0  0  0
   12.6760    0.3100   23.0590 C   0  0  0  0  0  0  0  0  0  0  0  0
   12.6700    1.5140   23.0150 C   0  0  0  0  0  0  0  0  0  0  0  0
   13.0540    2.8820   22.7790 C   0  0  0  0  0  0  0  0  0  0  0  0
   12.4440    4.0740   23.0670 C   0  0  0  0  0  0  0  0  0  0  0  0
   11.2460    4.0780   23.6960 C   0  0  0  0  0  0  0  0  0  0  0  0
   10.6760    5.2160   24.0490 N   0  0  0  0  0  0  0  0  0  0  0  0
   11.7400    6.0500   24.6250 C   0  0  0  0  0  0  0  0  0  0  0  0
   11.2960    6.7230   25.9180 C   0  0  0  0  0  0  0  0  0  0  0  0
   10.6460    2.9610   23.9870 N   0  0  0  0  0  0  0  0  0  0  0  0
   11.2850    1.7960   23.6790 C   0  0  0  0  0  0  0  0  0  0  0  0
    8.0900   -1.4080   21.8810 C   0  0  0  0  0  0  0  0  0  0  0  0
    6.9810   -1.0670   21.1280 C   0  0  0  0  0  0  0  0  0  0  0  0
  1  2  1  0
  2  3  1  0
  3  4  2  0
  3  5  1  0
  5  6  1  0
  6  7  1  0
  7  8  1  0
  8  9  1  0
  9 10  1  0
 10 11  1  0
 11 12  1  0
 12 13  2  0
 12 14  1  0
 14 15  1  0
 15 16  1  0
 16 17  2  0
 17 18  1  0
 18 19  2  0
 19 20  1  0
 20 21  1  0
 21 22  1  0
 19 23  1  0
 16 24  1  0
 23 24  2  0
  8 25  1  0
  5 26  1  0
 25 26  1  0
M  END
