MAK-UNK-10dfa458-13-nitrile
     RDKit          3D

 28 30  0  0  0  0  0  0  0  0999 V2000
    6.3320   -4.4800   20.3670 C   0  0  0  0  0  0  0  0  0  0  0  0
    5.2040   -4.2510   19.8270 N   0  0  0  0  0  0  0  0  0  0  0  0
    6.4200   -5.0730   21.6170 N   0  0  0  0  0  0  0  0  0  0  0  0
    5.6090   -6.2430   22.0060 C   0  0  0  0  0  0  0  0  0  0  0  0
    4.6000   -5.6540   23.0600 C   0  0  0  0  0  0  0  0  0  0  0  0
    5.4210   -5.1640   24.2060 N   0  0  0  0  0  0  0  0  0  0  0  0
    4.6810   -4.9460   25.5030 C   0  0  0  0  0  0  0  0  0  0  0  0
    3.5960   -3.8130   25.4770 C   0  0  0  0  0  0  0  0  0  0  0  0
    2.1890   -4.3510   25.2990 C   0  0  0  0  0  0  0  0  0  0  0  0
    1.2660   -3.1520   25.3080 C   0  0  0  0  0  0  0  0  0  0  0  0
   -0.1530   -3.7270   25.1250 C   0  0  0  0  0  0  0  0  0  0  0  0
    1.5920   -1.8020   25.4490 C   0  0  0  0  0  0  0  0  0  0  0  0
    2.9940   -1.2420   25.6200 C   0  0  0  0  0  0  0  0  0  0  0  0
    3.7730   -0.3950   25.7590 N   0  0  0  0  0  0  0  0  0  0  0  0
    4.2700    0.2600   26.9030 C   0  0  0  0  0  0  0  0  0  0  0  0
    5.4050   -0.2220   27.5540 C   0  0  0  0  0  0  0  0  0  0  0  0
    5.9130    0.4430   28.7130 C   0  0  0  0  0  0  0  0  0  0  0  0
    5.2800    1.5870   29.2150 C   0  0  0  0  0  0  0  0  0  0  0  0
    5.7140    2.2920   30.3410 N   0  0  0  0  0  0  0  0  0  0  0  0
    5.7320    1.6290   31.6380 C   0  0  0  0  0  0  0  0  0  0  0  0
    4.5710    0.8400   31.6920 C   0  0  0  0  0  0  0  0  0  0  0  0
    4.1410    2.0440   28.5400 C   0  0  0  0  0  0  0  0  0  0  0  0
    3.6300    1.4160   27.4130 C   0  0  0  0  0  0  0  0  0  0  0  0
    2.4880    1.9610   26.8180 C   0  0  0  0  0  0  0  0  0  0  0  0
    1.5420    2.4390   26.3420 N   0  0  0  0  0  0  0  0  0  0  0  0
    3.9440   -2.3220   25.6280 C   0  0  0  0  0  0  0  0  0  0  0  0
    6.3610   -4.1060   23.7700 C   0  0  0  0  0  0  0  0  0  0  0  0
    7.1820   -4.4940   22.7610 C   0  0  0  0  0  0  0  0  0  0  0  0
  1  2  2  3
  1  3  1  0
  3  4  1  0
  4  5  1  0
  5  6  1  0
  6  7  1  0
  7  8  1  0
  8  9  2  0
  9 10  1  0
 10 11  1  0
 10 12  2  0
 12 13  1  0
 13 14  1  0
 14 15  1  0
 15 16  2  0
 16 17  1  0
 17 18  2  0
 18 19  1  0
 19 20  1  0
 20 21  1  0
 18 22  1  0
 15 23  1  0
 22 23  2  0
 23 24  1  0
 24 25  3  0
  8 26  1  0
 13 26  2  0
  6 27  1  0
  3 28  1  0
 27 28  1  0
M  END
