MAK-UNK-ec98eaf6-26-vinylsulfonamide
     RDKit          3D

 29 33  0  0  0  0  0  0  0  0999 V2000
    7.7220   -4.1490   20.5580 C   0  0  0  0  0  0  0  0  0  0  0  0
    6.4210   -3.4030   20.5140 C   0  0  0  0  0  0  0  0  0  0  0  0
    5.8360   -3.3900   22.1770 S   0  0  0  0  0  0  0  0  0  0  0  0
    4.3870   -3.2860   22.1300 O   0  0  0  0  0  0  0  0  0  0  0  0
    6.3880   -4.5820   22.7870 O   0  0  0  0  0  0  0  0  0  0  0  0
    6.7290   -2.1140   22.9240 N   0  0  0  0  0  0  0  0  0  0  0  0
    6.2510   -0.7900   23.3980 C   0  0  2  0  0  0  0  0  0  0  0  0
    7.4040    0.1710   22.9590 C   0  0  0  0  0  0  0  0  0  0  0  0
    8.5900   -0.6600   23.3790 C   0  0  1  0  0  0  0  0  0  0  0  0
   10.0110   -0.1520   23.2290 C   0  0  0  0  0  0  0  0  0  0  0  0
   10.1970    1.3190   23.4310 C   0  0  0  0  0  0  0  0  0  0  0  0
   11.6100    1.9180   23.3000 C   0  0  0  0  0  0  0  0  0  0  0  0
   12.7930    0.9660   22.9630 C   0  0  0  0  0  0  0  0  0  0  0  0
   12.4860   -0.5500   22.7730 C   0  0  0  0  0  0  0  0  0  0  0  0
   11.0570   -1.0100   22.9270 C   0  0  0  0  0  0  0  0  0  0  0  0
    7.9590   -0.6300   24.7620 C   0  0  0  0  0  0  0  0  0  0  0  0
    8.5280   -0.5110   26.1730 C   0  0  0  0  0  0  0  0  0  0  0  0
    7.5550   -0.5230   27.3800 C   0  0  0  0  0  0  0  0  0  0  0  0
    6.1080   -0.6500   26.9550 C   0  0  0  0  0  0  0  0  0  0  0  0
    7.3410   -0.6030   26.1330 C   0  0  0  0  0  0  0  0  0  0  0  0
    6.5180   -0.7100   24.9000 C   0  0  0  0  0  0  0  0  0  0  0  0
    8.1300   -1.8600   22.4800 C   0  0  2  0  0  0  0  0  0  0  0  0
    8.2330   -1.3330   21.0920 C   0  0  0  0  0  0  0  0  0  0  0  0
    7.0570   -0.7120   20.3660 C   0  0  0  0  0  0  0  0  0  0  0  0
    6.8530   -0.9810   18.9070 C   0  0  0  0  0  0  0  0  0  0  0  0
    5.7630   -0.4030   18.2590 C   0  0  0  0  0  0  0  0  0  0  0  0
    4.9170    0.3980   18.9920 C   0  0  0  0  0  0  0  0  0  0  0  0
    5.0610    0.6730   20.3090 N   0  0  0  0  0  0  0  0  0  0  0  0
    6.1100    0.1220   20.9580 C   0  0  0  0  0  0  0  0  0  0  0  0
  1  2  1  0
  3  2  1  0
  3  4  2  0
  3  5  2  0
  3  6  1  0
  7  6  1  6
  7  8  1  0
  8  9  1  0
  9 10  1  1
 10 11  2  0
 11 12  1  0
 12 13  2  0
 13 14  1  0
 10 15  1  0
 14 15  2  0
  9 16  1  0
 16 17  1  0
 17 18  2  0
 18 19  1  0
 19 20  2  0
  7 21  1  0
 16 21  2  0
 20 21  1  0
  6 22  1  0
  9 22  1  0
 22 23  1  6
 23 24  1  0
 24 25  2  0
 25 26  1  0
 26 27  2  0
 27 28  1  0
 24 29  1  0
 28 29  2  0
M  END
