MAK-UNK-ec98eaf6-2-nitrile
     RDKit          3D

 22 25  0  0  0  0  0  0  0  0999 V2000
    6.8120   -3.8920   20.1460 C   0  0  0  0  0  0  0  0  0  0  0  0
    5.8110   -4.6730   19.9650 N   0  0  0  0  0  0  0  0  0  0  0  0
    7.0050   -3.2310   21.3080 N   0  0  0  0  0  0  0  0  0  0  0  0
    6.4980   -3.6540   22.6160 C   0  0  0  0  0  0  0  0  0  0  0  0
    7.4310   -2.7400   23.4470 C   0  0  1  0  0  0  0  0  0  0  0  0
    8.2500   -2.2400   22.2300 C   0  0  0  0  0  0  0  0  0  0  0  0
    7.0320   -1.7530   21.3680 C   0  0  2  0  0  0  0  0  0  0  0  0
    7.5510   -0.7670   22.4230 C   0  0  0  0  0  0  0  0  0  0  0  0
    6.9890   -1.3570   23.6790 N   0  0  0  0  0  0  0  0  0  0  0  0
    7.6000   -0.7240   24.8560 C   0  0  0  0  0  0  0  0  0  0  0  0
    8.9320   -0.0670   24.5580 C   0  0  0  0  0  0  0  0  0  0  0  0
    9.0570    1.2250   24.2820 N   0  0  0  0  0  0  0  0  0  0  0  0
   10.2510    1.8400   24.0050 C   0  0  0  0  0  0  0  0  0  0  0  0
   11.0270    0.6410   24.1480 C   0  0  0  0  0  0  0  0  0  0  0  0
   12.3730    0.6600   23.9800 C   0  0  0  0  0  0  0  0  0  0  0  0
   12.7140   -0.4930   23.4640 C   0  0  0  0  0  0  0  0  0  0  0  0
   12.6740   -1.5900   24.2660 C   0  0  0  0  0  0  0  0  0  0  0  0
   12.9880   -2.7880   23.7310 C   0  0  0  0  0  0  0  0  0  0  0  0
   13.3360   -2.8800   22.3810 C   0  0  0  0  0  0  0  0  0  0  0  0
   13.3770   -1.7310   21.5990 C   0  0  0  0  0  0  0  0  0  0  0  0
   13.0690   -0.5450   22.1720 C   0  0  0  0  0  0  0  0  0  0  0  0
   10.3590   -0.8900   24.5370 S   0  0  0  0  0  0  0  0  0  0  0  0
  1  2  2  3
  1  3  1  0
  3  4  1  0
  5  4  1  6
  5  6  1  0
  3  7  1  0
  6  7  1  0
  7  8  1  1
  5  9  1  0
  8  9  1  0
  9 10  1  0
 10 11  1  0
 11 12  2  0
 12 13  1  0
 13 14  2  0
 14 15  1  0
 15 16  1  0
 16 17  2  0
 17 18  1  0
 18 19  2  0
 19 20  1  0
 16 21  1  0
 20 21  2  0
 11 22  1  0
 14 22  1  0
M  END
