MAK-UNK-5d2caa6f-5-acrylamide
     RDKit          3D

 24 27  0  0  0  0  0  0  0  0999 V2000
    8.0100   -3.4270   19.7330 C   0  0  0  0  0  0  0  0  0  0  0  0
    6.9070   -2.6610   19.0440 C   0  0  0  0  0  0  0  0  0  0  0  0
    5.8220   -3.0070   19.9660 C   0  0  0  0  0  0  0  0  0  0  0  0
    5.0760   -3.9650   19.7620 O   0  0  0  0  0  0  0  0  0  0  0  0
    5.8110   -2.1930   21.0590 N   0  0  0  0  0  0  0  0  0  0  0  0
    6.6260   -0.9500   21.0750 C   0  0  0  0  0  0  0  0  0  0  0  0
    7.8320   -1.2950   21.9990 C   0  0  1  0  0  0  0  0  0  0  0  0
    6.4840   -1.0810   22.7720 C   0  0  0  0  0  0  0  0  0  0  0  0
    5.8350   -2.4820   22.4660 C   0  0  2  0  0  0  0  0  0  0  0  0
    7.0630   -3.2650   22.9380 C   0  0  0  0  0  0  0  0  0  0  0  0
    7.9000   -2.0710   23.2720 N   0  0  0  0  0  0  0  0  0  0  0  0
    9.2140   -2.5160   23.6930 C   0  0  1  0  0  0  0  0  0  0  0  0
   10.3650   -1.4650   23.5830 C   0  0  0  0  0  0  0  0  0  0  0  0
   11.5520   -1.9210   22.7400 C   0  0  0  0  0  0  0  0  0  0  0  0
   12.7380   -0.9660   22.5340 C   0  0  0  0  0  0  0  0  0  0  0  0
   12.6890    0.4230   23.1870 C   0  0  0  0  0  0  0  0  0  0  0  0
   11.4670    0.8210   24.0270 C   0  0  0  0  0  0  0  0  0  0  0  0
   10.3480   -0.2080   24.1660 C   0  0  0  0  0  0  0  0  0  0  0  0
    9.0100   -3.2380   25.0670 C   0  0  0  0  0  0  0  0  0  0  0  0
    8.2810   -2.3480   26.0740 C   0  0  0  0  0  0  0  0  0  0  0  0
    8.2650   -2.9690   27.4670 C   0  0  0  0  0  0  0  0  0  0  0  0
    8.4830   -4.3820   27.3990 O   0  0  0  0  0  0  0  0  0  0  0  0
    9.7580   -4.7340   26.8550 C   0  0  0  0  0  0  0  0  0  0  0  0
   10.2230   -3.7340   25.8000 C   0  0  0  0  0  0  0  0  0  0  0  0
  1  2  1  0
  2  3  1  0
  3  4  2  0
  3  5  1  0
  5  6  1  0
  7  6  1  6
  7  8  1  0
  5  9  1  0
  8  9  1  0
  9 10  1  6
  7 11  1  0
 10 11  1  0
 11 12  1  0
 12 13  1  1
 13 14  2  0
 14 15  1  0
 15 16  2  0
 16 17  1  0
 13 18  1  0
 17 18  2  0
 12 19  1  0
 19 20  1  0
 20 21  1  0
 21 22  1  0
 22 23  1  0
 19 24  1  0
 23 24  1  0
M  END
