MAK-UNK-9e4a73aa-8
     RDKit          3D

 26 29  0  0  0  0  0  0  0  0999 V2000
   10.7510   -3.1660   23.8200 O   0  0  0  0  0  0  0  0  0  0  0  0
   10.0060   -2.2900   23.3690 C   0  0  0  0  0  0  0  0  0  0  0  0
    9.0250   -2.5530   22.3660 N   0  0  0  0  0  0  0  0  0  0  0  0
    8.0290   -3.6250   22.4660 C   0  0  0  0  0  0  0  0  0  0  0  0
    7.5370   -2.1410   22.4750 C   0  0  0  0  0  0  0  0  0  0  0  0
    6.1070   -1.8970   22.5660 C   0  0  0  0  0  0  0  0  0  0  0  0
    4.8600   -2.5810   22.6600 C   0  0  0  0  0  0  0  0  0  0  0  0
    5.2490   -3.9790   22.6610 N   0  0  0  0  0  0  0  0  0  0  0  0
    6.7340   -4.3450   22.5720 C   0  0  0  0  0  0  0  0  0  0  0  0
    8.5320   -1.4040   21.5900 C   0  0  0  0  0  0  0  0  0  0  0  0
    7.5660   -1.4020   20.1530 S   0  0  0  0  0  0  0  0  0  0  0  0
    8.9680   -0.0130   22.1480 C   0  0  0  0  0  0  0  0  0  0  0  0
    8.4610    1.0520   21.4540 C   0  0  0  0  0  0  0  0  0  0  0  0
    8.7840    2.4960   21.8550 C   0  0  0  0  0  0  0  0  0  0  0  0
    8.2640    3.5050   21.1930 F   0  0  0  0  0  0  0  0  0  0  0  0
    9.7560    2.6840   23.0800 C   0  0  0  0  0  0  0  0  0  0  0  0
   10.2550    4.2290   23.6540 Cl  0  0  0  0  0  0  0  0  0  0  0  0
   10.1930    1.4020   23.7080 C   0  0  0  0  0  0  0  0  0  0  0  0
    9.8060    0.1610   23.2760 C   0  0  0  0  0  0  0  0  0  0  0  0
   10.1380   -1.0110   23.8830 N   0  0  0  0  0  0  0  0  0  0  0  0
    9.3680   -0.7680   24.9880 C   0  0  0  0  0  0  0  0  0  0  0  0
   10.1080   -0.3770   26.0440 C   0  0  0  0  0  0  0  0  0  0  0  0
    9.3240   -0.0580   27.3170 C   0  0  0  0  0  0  0  0  0  0  0  0
    7.8050   -0.2040   27.3060 C   0  0  0  0  0  0  0  0  0  0  0  0
    7.1860   -0.6270   26.1310 C   0  0  0  0  0  0  0  0  0  0  0  0
    7.9650   -0.9030   24.9890 C   0  0  0  0  0  0  0  0  0  0  0  0
  1  2  2  0
  2  3  1  0
  3  4  1  0
  4  5  2  0
  5  6  1  0
  6  7  2  0
  7  8  1  0
  4  9  1  0
  8  9  2  0
  3 10  1  0
 10 11  2  0
 10 12  1  0
 12 13  1  0
 13 14  2  0
 14 15  1  0
 14 16  1  0
 16 17  1  0
 16 18  2  0
 12 19  2  0
 18 19  1  0
  2 20  1  0
 19 20  1  0
 20 21  1  0
 21 22  2  0
 22 23  1  0
 23 24  2  0
 24 25  1  0
 21 26  1  0
 25 26  2  0
M  END
