MAK-UNK-8fdbca50-36-nitrile
     RDKit          3D

 38 41  0  0  0  0  0  0  0  0999 V2000
    6.9500   -3.4720   20.1990 C   0  0  0  0  0  0  0  0  0  0  0  0
    6.0600   -3.0900   19.3100 N   0  0  0  0  0  0  0  0  0  0  0  0
    7.6330   -2.5200   21.1900 N   0  0  0  0  0  0  0  0  0  0  0  0
    8.0540   -1.1380   20.7900 C   0  0  0  0  0  0  0  0  0  0  0  0
    9.1400   -0.6130   21.5800 C   0  0  0  0  0  0  0  0  0  0  0  0
    9.8760   -1.5480   22.2450 C   0  0  2  0  0  0  0  0  0  0  0  0
   10.1810   -2.6210   21.4860 C   0  0  0  0  0  0  0  0  0  0  0  0
    9.2800   -3.1720   20.9370 O   0  0  0  0  0  0  0  0  0  0  0  0
   11.5450   -3.1290   21.3150 N   0  0  0  0  0  0  0  0  0  0  0  0
   11.7380   -3.9730   20.1830 C   0  0  0  0  0  0  0  0  0  0  0  0
   12.8380   -2.7510   21.7540 C   0  0  0  0  0  0  0  0  0  0  0  0
   13.5510   -3.4680   20.8260 C   0  0  0  0  0  0  0  0  0  0  0  0
   13.2080   -1.2910   21.8160 C   0  0  0  0  0  0  0  0  0  0  0  0
    8.8650   -2.0040   23.2760 C   0  0  0  0  0  0  0  0  0  0  0  0
    7.4870   -2.3360   22.6350 C   0  0  2  0  0  0  0  0  0  0  0  0
    6.6840   -3.1110   23.3740 N   0  0  0  0  0  0  0  0  0  0  0  0
    7.1040   -3.3120   24.6600 C   0  0  0  0  0  0  0  0  0  0  0  0
    6.8430   -2.2460   25.7470 C   0  0  0  0  0  0  0  0  0  0  0  0
    6.2220   -2.5120   26.9440 C   0  0  0  0  0  0  0  0  0  0  0  0
    6.1060   -1.3370   27.7950 C   0  0  0  0  0  0  0  0  0  0  0  0
    5.5110   -1.3480   29.0700 C   0  0  0  0  0  0  0  0  0  0  0  0
    5.8870   -0.4040   30.0350 C   0  0  0  0  0  0  0  0  0  0  0  0
    5.3050   -0.3940   31.3090 C   0  0  0  0  0  0  0  0  0  0  0  0
    4.3260   -1.3130   31.6910 C   0  0  0  0  0  0  0  0  0  0  0  0
    3.8990   -2.2850   30.7890 C   0  0  0  0  0  0  0  0  0  0  0  0
    4.5350   -2.2940   29.4020 C   0  0  0  0  0  0  0  0  0  0  0  0
    4.1380   -3.2210   28.5150 F   0  0  0  0  0  0  0  0  0  0  0  0
    6.6810   -0.3060   27.0840 N   0  0  0  0  0  0  0  0  0  0  0  0
    6.8500    1.3330   27.5460 S   0  0  0  0  0  0  0  0  0  0  0  0
    7.2200    2.0420   26.3430 O   0  0  0  0  0  0  0  0  0  0  0  0
    5.6440    1.6900   28.2610 O   0  0  0  0  0  0  0  0  0  0  0  0
    8.1920    1.4420   28.6830 C   0  0  0  0  0  0  0  0  0  0  0  0
    8.7030    0.3050   29.3110 C   0  0  0  0  0  0  0  0  0  0  0  0
    9.8610    0.5090   30.2810 C   0  0  0  0  0  0  0  0  0  0  0  0
   10.3400    1.9330   30.4580 C   0  0  0  0  0  0  0  0  0  0  0  0
    9.7720    2.9660   29.7970 N   0  0  0  0  0  0  0  0  0  0  0  0
    8.7360    2.6990   28.9460 C   0  0  0  0  0  0  0  0  0  0  0  0
    7.1330   -0.8470   25.8410 C   0  0  0  0  0  0  0  0  0  0  0  0
  1  2  2  3
  1  3  1  0
  3  4  1  0
  4  5  1  0
  5  6  1  0
  6  7  1  6
  7  8  2  0
  7  9  1  0
  9 10  1  0
  9 11  1  0
 11 12  1  0
 11 13  1  0
  6 14  1  0
  3 15  1  0
 14 15  1  0
 15 16  1  1
 16 17  1  0
 17 18  1  0
 18 19  1  0
 19 20  2  0
 20 21  1  0
 21 22  2  0
 22 23  1  0
 23 24  2  0
 24 25  1  0
 21 26  1  0
 25 26  2  0
 26 27  1  0
 20 28  1  0
 28 29  1  0
 29 30  2  0
 29 31  2  0
 29 32  1  0
 32 33  2  0
 33 34  1  0
 34 35  2  0
 35 36  1  0
 32 37  1  0
 36 37  2  0
 18 38  2  0
 28 38  1  0
M  END
