MAK-UNK-10799360-14-nitrile
     RDKit          3D

 30 34  0  0  0  0  0  0  0  0999 V2000
    6.8930   -3.7020   20.1180 C   0  0  0  0  0  0  0  0  0  0  0  0
    5.8230   -4.3790   19.9070 N   0  0  0  0  0  0  0  0  0  0  0  0
    7.0160   -2.7980   21.1500 N   0  0  0  0  0  0  0  0  0  0  0  0
    7.4200   -1.3660   21.0100 C   0  0  2  0  0  0  0  0  0  0  0  0
    8.4970   -1.9310   22.0320 C   0  0  0  0  0  0  0  0  0  0  0  0
    7.5740   -2.1970   23.2300 C   0  0  2  0  0  0  0  0  0  0  0  0
    6.4780   -2.9470   22.5100 C   0  0  1  0  0  0  0  0  0  0  0  0
    5.3890   -1.9330   22.8970 C   0  0  0  0  0  0  0  0  0  0  0  0
    5.0880   -2.1580   24.4010 C   0  0  0  0  0  0  0  0  0  0  0  0
    4.0090   -1.1850   24.8740 C   0  0  0  0  0  0  0  0  0  0  0  0
    3.3400   -0.1520   23.9820 C   0  0  0  0  0  0  0  0  0  0  0  0
    3.7290   -0.0550   22.5710 N   0  0  0  0  0  0  0  0  0  0  0  0
    4.7610   -0.9790   22.1010 C   0  0  0  0  0  0  0  0  0  0  0  0
    7.2080   -0.7870   23.3830 N   0  0  0  0  0  0  0  0  0  0  0  0
    7.8540   -0.2140   24.5610 C   0  0  0  0  0  0  0  0  0  0  0  0
    8.7260    0.8530   24.3000 C   0  0  0  0  0  0  0  0  0  0  0  0
    8.2940    2.1550   24.5990 C   0  0  0  0  0  0  0  0  0  0  0  0
    9.0980    3.2790   24.3830 C   0  0  0  0  0  0  0  0  0  0  0  0
   10.3830    3.1300   23.8690 C   0  0  0  0  0  0  0  0  0  0  0  0
   10.8160    1.8650   23.5710 C   0  0  0  0  0  0  0  0  0  0  0  0
   12.1350    1.4990   23.0240 C   0  0  0  0  0  0  0  0  0  0  0  0
   12.9020    0.4880   22.6020 C   0  0  0  0  0  0  0  0  0  0  0  0
   12.1750   -0.6870   22.7010 C   0  0  0  0  0  0  0  0  0  0  0  0
   12.9080   -2.1610   22.1280 S   0  0  0  0  0  0  0  0  0  0  0  0
   11.6180   -2.9720   21.4410 N   0  0  0  0  0  0  0  0  0  0  0  0
   13.4100   -2.9330   23.2420 O   0  0  0  0  0  0  0  0  0  0  0  0
   13.7020   -1.8070   20.9760 O   0  0  0  0  0  0  0  0  0  0  0  0
   10.7220   -0.6410   23.3010 C   0  0  0  0  0  0  0  0  0  0  0  0
   10.0360    0.6980   23.7500 C   0  0  0  0  0  0  0  0  0  0  0  0
    7.7480   -0.2590   22.0810 C   0  0  0  0  0  0  0  0  0  0  0  0
  1  2  2  3
  1  3  1  0
  3  4  1  0
  4  5  1  0
  5  6  1  0
  3  7  1  0
  6  7  1  0
  7  8  1  6
  8  9  2  0
  9 10  1  0
 10 11  2  0
 11 12  1  0
  8 13  1  0
 12 13  2  0
  6 14  1  6
 14 15  1  0
 15 16  1  0
 16 17  2  0
 17 18  1  0
 18 19  2  0
 19 20  1  0
 20 21  1  0
 21 22  2  0
 22 23  1  0
 23 24  1  0
 24 25  1  0
 24 26  2  0
 24 27  2  0
 23 28  2  0
 16 29  1  0
 20 29  2  0
 28 29  1  0
  4 30  1  1
 14 30  1  0
M  END
