MAK-UNK-53da93bf-5
     RDKit          3D

 13 13  0  0  0  0  0  0  0  0999 V2000
    9.9750   -0.4990   24.9030 C   0  0  0  0  0  0  0  0  0  0  0  0
   11.0430   -0.4070   24.0250 N   0  0  0  0  0  0  0  0  0  0  0  0
   11.8800   -1.4870   23.6640 C   0  0  0  0  0  0  0  0  0  0  0  0
   11.4280    0.9420   23.6450 C   0  0  0  0  0  0  0  0  0  0  0  0
   12.7820    1.0920   22.9800 C   0  0  0  0  0  0  0  0  0  0  0  0
   13.2470    2.4520   22.5650 C   0  0  0  0  0  0  0  0  0  0  0  0
   12.3480    3.6320   22.8210 C   0  0  0  0  0  0  0  0  0  0  0  0
   11.0040    3.4480   23.4890 C   0  0  0  0  0  0  0  0  0  0  0  0
   10.1090    4.9580   23.7040 S   0  0  0  0  0  0  0  0  0  0  0  0
   11.1880    6.1830   23.3320 N   0  0  0  0  0  0  0  0  0  0  0  0
    9.0410    5.0250   22.7480 O   0  0  0  0  0  0  0  0  0  0  0  0
    9.8280    5.0580   25.1060 O   0  0  0  0  0  0  0  0  0  0  0  0
   10.6330    2.1130   23.8560 C   0  0  0  0  0  0  0  0  0  0  0  0
  1  2  1  0
  2  3  1  0
  2  4  1  0
  4  5  2  0
  5  6  1  0
  6  7  2  0
  7  8  1  0
  8  9  1  0
  9 10  1  0
  9 11  2  0
  9 12  2  0
  4 13  1  0
  8 13  2  0
M  END
