MAK-UNK-5d2caa6f-8-acrylamide
     RDKit          3D

 26 29  0  0  0  0  0  0  0  0999 V2000
    7.8820   -3.3110   19.2400 C   0  0  0  0  0  0  0  0  0  0  0  0
    6.7130   -2.4420   18.8950 C   0  0  0  0  0  0  0  0  0  0  0  0
    5.6120   -2.8100   19.8170 C   0  0  0  0  0  0  0  0  0  0  0  0
    4.8280   -3.6960   19.5060 O   0  0  0  0  0  0  0  0  0  0  0  0
    5.5980   -2.0800   20.9600 N   0  0  0  0  0  0  0  0  0  0  0  0
    5.4020   -0.6520   20.8440 C   0  0  0  0  0  0  0  0  0  0  0  0
    5.9450   -0.1880   21.9970 C   0  0  1  0  0  0  0  0  0  0  0  0
    5.5720   -1.2830   22.9890 C   0  0  0  0  0  0  0  0  0  0  0  0
    6.3050   -2.3700   22.2750 C   0  0  2  0  0  0  0  0  0  0  0  0
    7.7460   -1.8370   22.2490 C   0  0  2  0  0  0  0  0  0  0  0  0
    8.4560   -1.6290   23.3560 N   0  0  0  0  0  0  0  0  0  0  0  0
    9.5020   -2.7060   23.5250 C   0  0  0  0  0  0  0  0  0  0  0  0
   10.8630   -2.1180   23.9630 C   0  0  0  0  0  0  0  0  0  0  0  0
   11.7830   -2.2660   22.7380 C   0  0  0  0  0  0  0  0  0  0  0  0
   12.3410   -1.0160   22.3660 C   0  0  0  0  0  0  0  0  0  0  0  0
   13.0240   -0.3970   23.5340 C   0  0  0  0  0  0  0  0  0  0  0  0
   12.1360   -0.0740   24.5260 C   0  0  0  0  0  0  0  0  0  0  0  0
   10.8640   -0.8870   24.6270 C   0  0  0  0  0  0  0  0  0  0  0  0
    8.7380   -0.2030   23.7220 C   0  0  2  0  0  0  0  0  0  0  0  0
    7.5360    0.5400   24.3210 C   0  0  0  0  0  0  0  0  0  0  0  0
    7.1340    1.9410   23.8290 C   0  0  0  0  0  0  0  0  0  0  0  0
    8.1650    2.6530   23.1940 C   0  0  1  0  0  0  0  0  0  0  0  0
    8.8290    3.2650   24.0340 O   0  0  0  0  0  0  0  0  0  0  0  0
    8.8670    1.7800   22.1400 C   0  0  0  0  0  0  0  0  0  0  0  0
    9.5730    0.5310   22.7040 C   0  0  0  0  0  0  0  0  0  0  0  0
    7.3950   -0.4710   21.5760 C   0  0  0  0  0  0  0  0  0  0  0  0
  1  2  1  0
  2  3  1  0
  3  4  2  0
  3  5  1  0
  5  6  1  0
  7  6  1  6
  7  8  1  0
  9  5  1  6
  8  9  1  0
  9 10  1  0
 10 11  1  1
 11 12  1  0
 12 13  1  0
 13 14  1  0
 14 15  1  0
 15 16  1  0
 16 17  1  0
 13 18  1  0
 17 18  1  0
 19 11  1  6
 19 20  1  0
 20 21  1  0
 21 22  1  0
 22 23  1  1
 22 24  1  0
 19 25  1  0
 24 25  1  0
  7 26  1  0
 10 26  1  0
M  END
