MAK-UNK-212f693e-11-chloroacetamide
     RDKit          3D

 15 16  0  0  0  0  0  0  0  0999 V2000
    7.2440   -3.4410   19.9590 C   0  0  0  0  0  0  0  0  0  0  0  0
    6.2760   -4.4410   20.5740 C   0  0  0  0  0  0  0  0  0  0  0  0
    5.2670   -4.7160   19.9330 O   0  0  0  0  0  0  0  0  0  0  0  0
    6.4700   -5.0680   21.8020 N   0  0  0  0  0  0  0  0  0  0  0  0
    5.6360   -6.1790   22.2210 C   0  0  0  0  0  0  0  0  0  0  0  0
    4.6640   -5.7110   23.3050 C   0  0  0  0  0  0  0  0  0  0  0  0
    5.4490   -5.0180   24.3850 C   0  0  2  0  0  0  0  0  0  0  0  0
    4.7890   -4.8060   25.4300 O   0  0  0  0  0  0  0  0  0  0  0  0
    3.7340   -3.9260   25.4850 C   0  0  0  0  0  0  0  0  0  0  0  0
    3.8040   -2.5530   25.6950 C   0  0  0  0  0  0  0  0  0  0  0  0
    2.6500   -1.7710   25.7390 C   0  0  0  0  0  0  0  0  0  0  0  0
    1.2470   -2.7280   25.5110 S   0  0  0  0  0  0  0  0  0  0  0  0
    2.2210   -4.1400   25.3550 C   0  0  0  0  0  0  0  0  0  0  0  0
    6.3230   -3.9870   23.9180 N   0  0  0  0  0  0  0  0  0  0  0  0
    7.2000   -4.4520   22.9260 C   0  0  0  0  0  0  0  0  0  0  0  0
  1  2  1  0
  2  3  2  0
  2  4  1  0
  4  5  1  0
  5  6  1  0
  6  7  1  0
  7  8  1  1
  8  9  1  0
  9 10  1  0
 10 11  2  0
 11 12  1  0
  9 13  2  0
 12 13  1  0
  7 14  1  0
  4 15  1  0
 14 15  1  0
M  END
