MAK-UNK-b2c98f02-3
     RDKit          3D

 28 30  0  0  0  0  0  0  0  0999 V2000
   10.0010    1.7300   22.2770 O   0  0  0  0  0  0  0  0  0  0  0  0
    9.2450    0.9790   22.8730 C   0  0  0  0  0  0  0  0  0  0  0  0
    9.6330   -0.2170   23.4340 C   0  0  0  0  0  0  0  0  0  0  0  0
   11.0950   -0.4830   23.5430 C   0  0  0  0  0  0  0  0  0  0  0  0
   11.4080   -1.3230   24.7410 C   0  0  0  0  0  0  0  0  0  0  0  0
   12.7790   -1.5670   24.8680 C   0  0  0  0  0  0  0  0  0  0  0  0
   13.3530   -1.9700   23.6700 C   0  0  0  0  0  0  0  0  0  0  0  0
   12.4970   -2.0740   22.6020 C   0  0  0  0  0  0  0  0  0  0  0  0
   11.7380   -0.9490   22.4080 C   0  0  0  0  0  0  0  0  0  0  0  0
    7.9230    1.1690   23.0670 N   0  0  0  0  0  0  0  0  0  0  0  0
    7.0760    1.3300   22.0030 C   0  0  0  0  0  0  0  0  0  0  0  0
    5.7740    2.0570   22.0640 C   0  0  0  0  0  0  0  0  0  0  0  0
    4.9470    2.1550   20.8410 C   0  0  0  0  0  0  0  0  0  0  0  0
    5.4520    1.5550   19.7000 C   0  0  0  0  0  0  0  0  0  0  0  0
    4.5060    1.5840   18.2830 S   0  0  0  0  0  0  0  0  0  0  0  0
    5.3020    2.0050   17.1720 O   0  0  0  0  0  0  0  0  0  0  0  0
    3.2240    2.1220   18.6820 O   0  0  0  0  0  0  0  0  0  0  0  0
    4.3450   -0.0810   18.3320 N   0  0  0  0  0  0  0  0  0  0  0  0
    4.9200   -0.7270   19.4030 C   0  0  0  0  0  0  0  0  0  0  0  0
    6.2430   -0.8770   19.0890 C   0  0  0  0  0  0  0  0  0  0  0  0
    6.7700   -0.5230   17.8520 C   0  0  0  0  0  0  0  0  0  0  0  0
    7.2070    0.6620   17.3070 C   0  0  0  0  0  0  0  0  0  0  0  0
    7.7060    0.8750   16.0090 C   0  0  0  0  0  0  0  0  0  0  0  0
    7.7130   -0.2690   15.2930 C   0  0  0  0  0  0  0  0  0  0  0  0
    7.2590   -1.6150   15.7900 C   0  0  0  0  0  0  0  0  0  0  0  0
    6.7730   -1.6650   17.1770 C   0  0  0  0  0  0  0  0  0  0  0  0
    6.5580    0.9300   19.5610 N   0  0  0  0  0  0  0  0  0  0  0  0
    7.3600    0.7890   20.6120 C   0  0  0  0  0  0  0  0  0  0  0  0
  1  2  2  0
  2  3  1  0
  3  4  1  0
  4  5  1  0
  5  6  1  0
  6  7  1  0
  7  8  1  0
  4  9  1  0
  8  9  1  0
  2 10  1  0
 10 11  1  0
 11 12  2  0
 12 13  1  0
 13 14  2  0
 14 15  1  0
 15 16  2  0
 15 17  2  0
 15 18  1  0
 18 19  1  0
 19 20  1  0
 20 21  1  0
 21 22  2  0
 22 23  1  0
 23 24  2  0
 24 25  1  0
 21 26  1  0
 25 26  2  0
 14 27  1  0
 11 28  1  0
 27 28  2  0
M  END
