MAK-UNK-148caf23-22-acrylamide
     RDKit          3D

 36 39  0  0  0  0  0  0  0  0999 V2000
    8.7750   -3.6990   19.9930 C   0  0  0  0  0  0  0  0  0  0  0  0
    7.6730   -2.6490   19.9870 C   0  0  0  0  0  0  0  0  0  0  0  0
    6.7800   -2.8710   21.2150 C   0  0  0  0  0  0  0  0  0  0  0  0
    5.2820   -3.4980   21.0930 O   0  0  0  0  0  0  0  0  0  0  0  0
    7.8500   -2.2530   22.4120 C   0  0  0  0  0  0  0  0  0  0  0  0
    9.2990   -1.7090   22.5980 C   0  0  0  0  0  0  0  0  0  0  0  0
    8.8710   -1.5800   23.9530 C   0  0  0  0  0  0  0  0  0  0  0  0
   10.2020   -0.9470   24.1670 C   0  0  0  0  0  0  0  0  0  0  0  0
    9.8520   -0.7210   25.5410 N   0  0  0  0  0  0  0  0  0  0  0  0
    8.4340   -0.7760   25.9200 C   0  0  0  0  0  0  0  0  0  0  0  0
    8.3280    0.2290   27.0170 C   0  0  0  0  0  0  0  0  0  0  0  0
    7.6710    1.3870   26.8900 C   0  0  0  0  0  0  0  0  0  0  0  0
    7.6920    2.2190   27.9780 C   0  0  0  0  0  0  0  0  0  0  0  0
    8.3010    1.7820   29.1090 C   0  0  0  0  0  0  0  0  0  0  0  0
    8.1870    2.6610   30.1060 F   0  0  0  0  0  0  0  0  0  0  0  0
    9.0110    0.6100   29.4780 C   0  0  0  0  0  0  0  0  0  0  0  0
    9.0330    1.3610   30.6970 C   0  0  0  0  0  0  0  0  0  0  0  0
    9.1520    0.5670   31.7940 C   0  0  0  0  0  0  0  0  0  0  0  0
    9.1390    1.2250   32.9380 C   0  0  0  0  0  0  0  0  0  0  0  0
    9.2270    0.6240   34.2000 C   0  0  0  0  0  0  0  0  0  0  0  0
    7.8550    0.3710   34.6700 N   0  0  0  0  0  0  0  0  0  0  0  0
    6.8990    0.3360   33.5480 C   0  0  0  0  0  0  0  0  0  0  0  0
    9.0310    2.5950   32.5050 C   0  0  0  0  0  0  0  0  0  0  0  0
    8.9370    2.8330   31.0000 N   0  0  0  0  0  0  0  0  0  0  0  0
    8.8320    4.4590   31.3340 S   0  0  0  0  0  0  0  0  0  0  0  0
    8.8250    4.5570   32.7930 O   0  0  0  0  0  0  0  0  0  0  0  0
    9.9120    5.0510   30.5770 O   0  0  0  0  0  0  0  0  0  0  0  0
    7.3410    5.1470   30.7140 C   0  0  0  0  0  0  0  0  0  0  0  0
    6.7130    3.8630   30.6980 C   0  0  0  0  0  0  0  0  0  0  0  0
    5.4610    4.3930   30.1910 C   0  0  0  0  0  0  0  0  0  0  0  0
    5.6010    5.8570   30.0320 C   0  0  0  0  0  0  0  0  0  0  0  0
    6.8110    6.6680   30.2890 N   0  0  0  0  0  0  0  0  0  0  0  0
    8.0130    6.2500   30.7680 C   0  0  0  0  0  0  0  0  0  0  0  0
    8.9220   -0.0410   28.2200 C   0  0  0  0  0  0  0  0  0  0  0  0
   10.1860   -1.3180   22.7570 N   0  0  0  0  0  0  0  0  0  0  0  0
    9.2810   -1.9190   21.6520 C   0  0  0  0  0  0  0  0  0  0  0  0
  1  2  1  0
  2  3  1  0
  3  4  2  0
  3  5  1  0
  5  6  2  0
  6  7  1  0
  7  8  2  0
  8  9  1  0
  9 10  1  0
 10 11  1  0
 11 12  2  0
 12 13  1  0
 13 14  2  0
 14 15  1  0
 14 16  1  0
 16 17  1  0
 17 18  2  0
 18 19  1  0
 19 20  1  0
 20 21  1  0
 21 22  1  0
 19 23  2  0
 17 24  1  0
 23 24  1  0
 24 25  1  0
 25 26  2  0
 25 27  2  0
 25 28  1  0
 28 29  2  0
 29 30  1  0
 30 31  2  0
 31 32  1  0
 28 33  1  0
 32 33  2  0
 11 34  1  0
 16 34  2  0
  8 35  1  0
  5 36  1  0
 35 36  2  0
M  END
