MAK-UNK-af83ef51-30-vinylsulfonamide
     RDKit          3D

 31 33  0  0  0  0  0  0  0  0999 V2000
    7.9460   -3.6880   20.2530 C   0  0  0  0  0  0  0  0  0  0  0  0
    7.2060   -2.5190   19.6510 C   0  0  0  0  0  0  0  0  0  0  0  0
    5.6320   -2.4590   20.4490 S   0  0  0  0  0  0  0  0  0  0  0  0
    4.9570   -3.5640   19.8160 O   0  0  0  0  0  0  0  0  0  0  0  0
    5.1120   -1.1190   20.3160 O   0  0  0  0  0  0  0  0  0  0  0  0
    5.8750   -2.8410   22.1100 N   0  0  0  0  0  0  0  0  0  0  0  0
    7.1520   -2.7500   22.7760 C   0  0  0  0  0  0  0  0  0  0  0  0
    7.1720   -2.1000   24.0240 C   0  0  0  0  0  0  0  0  0  0  0  0
    6.3330   -0.8760   24.0280 N   0  0  0  0  0  0  0  0  0  0  0  0
    6.5580    0.1230   25.1250 C   0  0  0  0  0  0  0  0  0  0  0  0
    7.4310    1.1520   24.8670 N   0  0  0  0  0  0  0  0  0  0  0  0
    8.5470    0.7700   24.2110 C   0  0  1  0  0  0  0  0  0  0  0  0
    8.3860    0.1190   23.0320 C   0  0  2  0  0  0  0  0  0  0  0  0
    7.0490   -0.2460   22.7150 O   0  0  0  0  0  0  0  0  0  0  0  0
    9.2740   -0.9820   23.1040 O   0  0  0  0  0  0  0  0  0  0  0  0
   10.5360   -0.5490   23.6210 C   0  0  1  0  0  0  0  0  0  0  0  0
   11.5410   -1.4850   22.9950 C   0  0  0  0  0  0  0  0  0  0  0  0
   12.7550   -2.0330   23.6690 C   0  0  0  0  0  0  0  0  0  0  0  0
   13.5560   -2.9450   22.7880 C   0  0  0  0  0  0  0  0  0  0  0  0
   13.2260   -3.2670   21.4550 C   0  0  0  0  0  0  0  0  0  0  0  0
   13.9680   -4.1230   20.5930 N   0  0  0  0  0  0  0  0  0  0  0  0
   14.8460   -5.2690   20.7010 C   0  0  0  0  0  0  0  0  0  0  0  0
   15.9740   -5.3250   21.6250 C   0  0  0  0  0  0  0  0  0  0  0  0
   12.1110   -2.7300   20.9240 N   0  0  0  0  0  0  0  0  0  0  0  0
   11.3310   -1.8830   21.6910 C   0  0  0  0  0  0  0  0  0  0  0  0
   10.8090    0.9640   23.3500 C   0  0  2  0  0  0  0  0  0  0  0  0
   11.9740    1.4340   24.0200 O   0  0  0  0  0  0  0  0  0  0  0  0
    9.5970    1.7880   23.7410 C   0  0  2  0  0  0  0  0  0  0  0  0
    9.9030    2.7920   24.6910 O   0  0  0  0  0  0  0  0  0  0  0  0
    4.9230   -1.2310   23.8020 C   0  0  0  0  0  0  0  0  0  0  0  0
    4.7450   -2.5220   23.0200 C   0  0  0  0  0  0  0  0  0  0  0  0
  1  2  1  0
  3  2  1  0
  3  4  2  0
  3  5  2  0
  3  6  1  0
  6  7  1  0
  7  8  1  0
  8  9  1  0
  9 10  1  0
 10 11  1  0
 12 11  1  6
 12 13  1  0
 13 14  1  1
 13 15  1  0
 15 16  1  0
 16 17  1  6
 17 18  2  0
 18 19  1  0
 19 20  2  0
 20 21  1  0
 21 22  1  0
 22 23  1  0
 20 24  1  0
 17 25  1  0
 24 25  2  0
 16 26  1  0
 26 27  1  1
 12 28  1  0
 26 28  1  0
 28 29  1  1
  9 30  1  0
  6 31  1  0
 30 31  1  0
M  END
