MAK-UNK-176ca439-2-acrylamide
     RDKit          3D

 29 30  0  0  0  0  0  0  0  0999 V2000
    7.9840   -3.3820   19.6970 C   0  0  0  0  0  0  0  0  0  0  0  0
    6.9070   -2.6580   18.9810 C   0  0  0  0  0  0  0  0  0  0  0  0
    5.8620   -3.0140   19.9490 C   0  0  0  0  0  0  0  0  0  0  0  0
    5.0300   -3.8890   19.7120 O   0  0  0  0  0  0  0  0  0  0  0  0
    6.0150   -2.3150   21.1310 N   0  0  0  0  0  0  0  0  0  0  0  0
    6.9670   -1.1780   21.2170 C   0  0  0  0  0  0  0  0  0  0  0  0
    8.1470   -1.5680   21.8800 C   0  0  0  0  0  0  0  0  0  0  0  0
    8.0650   -2.1790   23.1080 N   0  0  0  0  0  0  0  0  0  0  0  0
    9.2230   -2.3270   23.9980 C   0  0  0  0  0  0  0  0  0  0  0  0
   10.3130   -1.2870   23.7480 C   0  0  0  0  0  0  0  0  0  0  0  0
   11.7100   -1.6560   23.2610 C   0  0  0  0  0  0  0  0  0  0  0  0
   12.6700   -0.5230   23.0650 C   0  0  0  0  0  0  0  0  0  0  0  0
   12.2360    0.8990   23.3460 C   0  0  0  0  0  0  0  0  0  0  0  0
   10.9020    1.1570   23.7990 C   0  0  0  0  0  0  0  0  0  0  0  0
   10.4390    2.4520   24.0700 C   0  0  1  0  0  0  0  0  0  0  0  0
    9.7160    3.0220   22.9300 N   0  0  0  0  0  0  0  0  0  0  0  0
    9.3340    4.3740   23.0170 C   0  0  0  0  0  0  0  0  0  0  0  0
    8.1430    4.7560   22.3940 C   0  0  0  0  0  0  0  0  0  0  0  0
    7.0400    4.8660   23.3350 N   0  0  0  0  0  0  0  0  0  0  0  0
    7.0030    5.8680   24.2740 C   0  0  0  0  0  0  0  0  0  0  0  0
    7.2260    5.4050   25.7130 C   0  0  0  0  0  0  0  0  0  0  0  0
    6.8040    7.0550   24.0120 O   0  0  0  0  0  0  0  0  0  0  0  0
    9.4360    2.5390   25.2810 C   0  0  0  0  0  0  0  0  0  0  0  0
    9.2820    3.7410   26.0610 O   0  0  0  0  0  0  0  0  0  0  0  0
    8.6970    1.3970   25.5610 N   0  0  0  0  0  0  0  0  0  0  0  0
    9.0660    0.4750   26.6120 C   0  0  0  0  0  0  0  0  0  0  0  0
   10.0080    0.0660   23.9790 C   0  0  0  0  0  0  0  0  0  0  0  0
    7.2260   -3.3710   23.0590 C   0  0  0  0  0  0  0  0  0  0  0  0
    5.8840   -3.0790   22.3770 C   0  0  0  0  0  0  0  0  0  0  0  0
  1  2  1  0
  2  3  1  0
  3  4  2  0
  3  5  1  0
  5  6  1  0
  6  7  1  0
  7  8  1  0
  8  9  1  0
  9 10  1  0
 10 11  2  0
 11 12  1  0
 12 13  2  0
 13 14  1  0
 14 15  1  0
 15 16  1  6
 16 17  1  0
 17 18  1  0
 18 19  1  0
 19 20  1  0
 20 21  1  0
 20 22  2  0
 15 23  1  0
 23 24  2  0
 23 25  1  0
 25 26  1  0
 10 27  1  0
 14 27  2  0
  8 28  1  0
  5 29  1  0
 28 29  1  0
M  END
