MAK-UNK-0cb6a3ad-2
     RDKit          3D

 19 18  0  0  0  0  0  0  0  0999 V2000
    7.7290   -2.0180   20.5140 C   0  0  0  0  0  0  0  0  0  0  0  0
    6.4660   -2.3670   19.7660 C   0  0  0  0  0  0  0  0  0  0  0  0
    5.8680   -3.6410   20.3520 C   0  0  0  0  0  0  0  0  0  0  0  0
    6.5890   -4.3980   21.2690 C   0  0  0  0  0  0  0  0  0  0  0  0
    5.9650   -5.5570   21.7110 C   0  0  0  0  0  0  0  0  0  0  0  0
    6.5590   -6.2550   22.7590 C   0  0  0  0  0  0  0  0  0  0  0  0
    7.2270   -5.5280   23.7380 C   0  0  0  0  0  0  0  0  0  0  0  0
    7.3400   -4.3150   23.5850 O   0  0  0  0  0  0  0  0  0  0  0  0
    8.2050   -3.4920   24.6610 P   0  0  0  0  0  0  0  0  0  0  0  0
    7.0650   -2.6660   26.0090 S   0  0  0  0  0  0  0  0  0  0  0  0
    9.6220   -4.9100   25.2850 S   0  0  0  0  0  0  0  0  0  0  0  0
    8.8770   -2.4010   23.6490 O   0  0  0  0  0  0  0  0  0  0  0  0
   10.2710   -2.1110   23.6070 C   0  0  0  0  0  0  0  0  0  0  0  0
   10.6200   -0.7770   24.3090 C   0  0  0  0  0  0  0  0  0  0  0  0
   12.0680   -0.4160   24.0560 C   0  0  0  0  0  0  0  0  0  0  0  0
   13.1270   -1.2660   24.7520 C   0  0  0  0  0  0  0  0  0  0  0  0
   12.9220   -2.7610   24.9330 C   0  0  0  0  0  0  0  0  0  0  0  0
   11.4930   -3.2030   25.1930 C   0  0  0  0  0  0  0  0  0  0  0  0
   11.3860   -4.3910   26.1340 C   0  0  0  0  0  0  0  0  0  0  0  0
  1  2  1  0
  2  3  1  0
  3  4  1  0
  4  5  1  0
  5  6  1  0
  6  7  1  0
  7  8  1  0
  8  9  1  0
  9 10  2  0
  9 11  1  0
  9 12  1  0
 12 13  1  0
 13 14  1  0
 14 15  1  0
 15 16  1  0
 16 17  1  0
 17 18  1  0
 18 19  1  0
M  END
