MAK-UNK-af83ef51-23-vinylsulfonamide
     RDKit          3D

 31 33  0  0  0  0  0  0  0  0999 V2000
    6.4850   -4.9970   20.3890 C   0  0  0  0  0  0  0  0  0  0  0  0
    5.8900   -5.7640   21.5650 C   0  0  0  0  0  0  0  0  0  0  0  0
    5.1420   -4.6800   22.7490 S   0  0  0  0  0  0  0  0  0  0  0  0
    4.6580   -3.5350   22.0260 O   0  0  0  0  0  0  0  0  0  0  0  0
    4.2380   -5.4570   23.5590 O   0  0  0  0  0  0  0  0  0  0  0  0
    6.4410   -4.1660   23.6750 N   0  0  0  0  0  0  0  0  0  0  0  0
    6.4620   -2.8790   24.2900 C   0  0  0  0  0  0  0  0  0  0  0  0
    7.7150   -2.4050   24.6710 C   0  0  0  0  0  0  0  0  0  0  0  0
    8.7980   -3.3880   24.4230 N   0  0  0  0  0  0  0  0  0  0  0  0
   10.1330   -2.9090   24.8160 C   0  0  0  0  0  0  0  0  0  0  0  0
   10.5900   -1.9090   23.9790 C   0  0  2  0  0  0  0  0  0  0  0  0
   11.6070   -2.3450   23.1760 C   0  0  0  0  0  0  0  0  0  0  0  0
   12.1240   -1.3750   22.1850 C   0  0  2  0  0  0  0  0  0  0  0  0
   12.9880   -2.0770   21.1750 C   0  0  0  0  0  0  0  0  0  0  0  0
   12.6690   -0.2860   22.7880 C   0  0  0  0  0  0  0  0  0  0  0  0
   12.0640    0.1690   24.0820 C   0  0  1  0  0  0  0  0  0  0  0  0
   11.8520    1.6090   24.0020 N   0  0  0  0  0  0  0  0  0  0  0  0
   10.6270    2.0660   23.3770 C   0  0  0  0  0  0  0  0  0  0  0  0
   10.6810    3.4550   23.0090 C   0  0  0  0  0  0  0  0  0  0  0  0
    9.4640    4.1760   23.0170 N   0  0  0  0  0  0  0  0  0  0  0  0
    8.3350    3.6630   23.7420 C   0  0  0  0  0  0  0  0  0  0  0  0
    7.9400    2.5950   22.8530 C   0  0  0  0  0  0  0  0  0  0  0  0
    9.1500    3.4020   22.2540 C   0  0  0  0  0  0  0  0  0  0  0  0
    9.6610    4.6410   23.1460 C   0  0  0  0  0  0  0  0  0  0  0  0
   10.8130    5.5430   22.7000 C   0  0  0  0  0  0  0  0  0  0  0  0
   11.0180    6.7450   23.3250 N   0  0  0  0  0  0  0  0  0  0  0  0
    8.9490    4.7930   24.3390 C   0  0  0  0  0  0  0  0  0  0  0  0
    8.1110    4.3030   24.8710 N   0  0  0  0  0  0  0  0  0  0  0  0
   10.7840   -0.5950   24.4910 C   0  0  0  0  0  0  0  0  0  0  0  0
    8.4760   -4.7050   24.9730 C   0  0  0  0  0  0  0  0  0  0  0  0
    7.1570   -5.2420   24.3850 C   0  0  0  0  0  0  0  0  0  0  0  0
  1  2  1  0
  3  2  1  0
  3  4  2  0
  3  5  2  0
  3  6  1  0
  6  7  1  0
  7  8  1  0
  8  9  1  0
  9 10  1  0
 11 10  1  1
 11 12  1  0
 12 13  1  0
 13 14  1  1
 13 15  1  0
 15 16  1  0
 16 17  1  6
 17 18  1  0
 18 19  1  0
 19 20  1  0
 20 21  1  0
 21 22  2  0
 22 23  1  0
 23 24  2  0
 24 25  1  0
 25 26  3  0
 24 27  1  0
 21 28  1  0
 27 28  2  0
 11 29  1  0
 16 29  1  0
  9 30  1  0
  6 31  1  0
 30 31  1  0
M  END
