MAK-UNK-27459e11-13
     RDKit          3D

 16 16  0  0  0  0  0  0  0  0999 V2000
    6.5680   -5.1520   26.5070 C   0  0  0  0  0  0  0  0  0  0  0  0
    8.2180   -4.5300   26.2570 S   0  0  0  0  0  0  0  0  0  0  0  0
    9.0400   -5.6120   25.8000 O   0  0  0  0  0  0  0  0  0  0  0  0
    8.5690   -3.7210   27.3810 O   0  0  0  0  0  0  0  0  0  0  0  0
    8.0270   -3.5080   24.9210 N   0  0  0  0  0  0  0  0  0  0  0  0
    9.1960   -2.9610   24.3940 C   0  0  0  0  0  0  0  0  0  0  0  0
    9.2450   -1.7050   23.5170 C   0  0  1  0  0  0  0  0  0  0  0  0
    8.1650   -0.7170   24.0120 C   0  0  0  0  0  0  0  0  0  0  0  0
    7.0580   -0.6970   23.2740 N   0  0  0  0  0  0  0  0  0  0  0  0
    8.3520    0.0540   25.1020 N   0  0  0  0  0  0  0  0  0  0  0  0
   10.5260   -1.1880   23.2940 C   0  0  0  0  0  0  0  0  0  0  0  0
   11.4610   -1.9390   22.3500 C   0  0  0  0  0  0  0  0  0  0  0  0
   12.8380   -1.3120   22.1580 C   0  0  0  0  0  0  0  0  0  0  0  0
   13.0950   -0.0390   22.9140 C   0  0  0  0  0  0  0  0  0  0  0  0
   12.1850    0.6110   23.7780 C   0  0  0  0  0  0  0  0  0  0  0  0
   10.9690    0.0050   23.9180 C   0  0  0  0  0  0  0  0  0  0  0  0
  1  2  1  0
  2  3  2  0
  2  4  2  0
  2  5  1  0
  5  6  1  0
  7  6  1  1
  7  8  1  0
  8  9  2  3
  8 10  1  0
  7 11  1  0
 11 12  2  0
 12 13  1  0
 13 14  2  0
 14 15  1  0
 11 16  1  0
 15 16  2  0
M  END
