MAK-UNK-10799360-1-acrylamide
     RDKit          3D

 23 26  0  0  0  0  0  0  0  0999 V2000
    7.2240   -3.1310   19.3380 C   0  0  0  0  0  0  0  0  0  0  0  0
    5.8040   -2.6560   19.6000 C   0  0  0  0  0  0  0  0  0  0  0  0
    5.5080   -2.5600   21.0870 C   0  0  0  0  0  0  0  0  0  0  0  0
    4.8390   -3.4070   21.6860 O   0  0  0  0  0  0  0  0  0  0  0  0
    6.0070   -1.4730   21.7570 N   0  0  0  0  0  0  0  0  0  0  0  0
    6.0420   -1.2780   23.2580 C   0  0  0  0  0  0  0  0  0  0  0  0
    7.3390   -0.4440   23.4620 C   0  0  2  0  0  0  0  0  0  0  0  0
    7.3720   -1.5890   22.5520 C   0  0  0  0  0  0  0  0  0  0  0  0
    7.2290   -0.7970   21.3140 C   0  0  1  0  0  0  0  0  0  0  0  0
    8.6880   -1.1030   21.6260 C   0  0  0  0  0  0  0  0  0  0  0  0
    8.7710   -0.8010   23.1410 N   0  0  0  0  0  0  0  0  0  0  0  0
    9.4480   -1.8220   24.0220 C   0  0  0  0  0  0  0  0  0  0  0  0
   10.7950   -1.3620   24.4460 C   0  0  0  0  0  0  0  0  0  0  0  0
   12.4030   -0.9070   24.5060 C   0  0  0  0  0  0  0  0  0  0  0  0
   12.4730   -1.1650   23.1870 N   0  0  0  0  0  0  0  0  0  0  0  0
   11.5420   -1.2280   24.1050 C   0  0  0  0  0  0  0  0  0  0  0  0
   10.2980   -1.4470   24.6910 C   0  0  0  0  0  0  0  0  0  0  0  0
   10.8190   -1.7230   22.6830 S   0  0  0  0  0  0  0  0  0  0  0  0
    8.5230   -2.1750   25.0630 C   0  0  0  0  0  0  0  0  0  0  0  0
    8.7730   -3.3660   25.7870 C   0  0  0  0  0  0  0  0  0  0  0  0
    8.4460   -4.4440   24.9930 C   0  0  0  0  0  0  0  0  0  0  0  0
    8.5590   -4.1020   23.5280 C   0  0  0  0  0  0  0  0  0  0  0  0
    9.5940   -3.1940   23.2210 C   0  0  0  0  0  0  0  0  0  0  0  0
  1  2  1  0
  2  3  1  0
  3  4  2  0
  3  5  1  0
  5  6  1  0
  7  6  1  1
  7  8  1  0
  5  9  1  0
  8  9  1  0
  9 10  1  6
  7 11  1  0
 10 11  1  0
 11 12  1  0
 12 13  1  0
 13 14  2  0
 14 15  1  0
 15 16  2  0
 16 17  1  0
 13 18  1  0
 16 18  1  0
 12 19  1  0
 19 20  1  0
 20 21  1  0
 21 22  1  0
 12 23  1  0
 22 23  1  0
M  END
