MAK-UNK-af83ef51-30-chloroacetamide
     RDKit          3D

 29 31  0  0  0  0  0  0  0  0999 V2000
    6.8620   -3.1300   19.1050 C   0  0  0  0  0  0  0  0  0  0  0  0
    5.9370   -3.6860   20.1610 C   0  0  0  0  0  0  0  0  0  0  0  0
    5.1770   -4.5940   19.8710 O   0  0  0  0  0  0  0  0  0  0  0  0
    5.9410   -3.1920   21.4620 N   0  0  0  0  0  0  0  0  0  0  0  0
    6.1410   -4.0830   22.6110 C   0  0  0  0  0  0  0  0  0  0  0  0
    7.3740   -3.8740   23.2320 C   0  0  0  0  0  0  0  0  0  0  0  0
    7.4740   -2.4770   23.6680 N   0  0  0  0  0  0  0  0  0  0  0  0
    8.7850   -2.1550   24.2640 C   0  0  0  0  0  0  0  0  0  0  0  0
    9.6760   -1.2440   23.6990 N   0  0  0  0  0  0  0  0  0  0  0  0
   10.3020   -0.2210   24.4980 C   0  0  1  0  0  0  0  0  0  0  0  0
   11.3030    0.4380   23.8180 C   0  0  2  0  0  0  0  0  0  0  0  0
   11.6480    1.5270   24.2540 O   0  0  0  0  0  0  0  0  0  0  0  0
   10.9410    0.8260   22.5920 O   0  0  0  0  0  0  0  0  0  0  0  0
    9.6540    1.3850   22.6130 C   0  0  1  0  0  0  0  0  0  0  0  0
    8.7830    0.7660   21.6030 C   0  0  0  0  0  0  0  0  0  0  0  0
    7.8500    1.4860   20.8400 C   0  0  0  0  0  0  0  0  0  0  0  0
    7.1130    1.2710   20.0330 C   0  0  0  0  0  0  0  0  0  0  0  0
    6.8030    0.0960   19.4070 C   0  0  0  0  0  0  0  0  0  0  0  0
    5.9040   -0.0890   18.4190 N   0  0  0  0  0  0  0  0  0  0  0  0
    4.7360    0.7440   18.2290 C   0  0  0  0  0  0  0  0  0  0  0  0
    4.1170    1.0510   19.4350 C   0  0  0  0  0  0  0  0  0  0  0  0
    7.6210   -0.9320   20.0010 N   0  0  0  0  0  0  0  0  0  0  0  0
    8.6190   -0.5690   21.1150 C   0  0  0  0  0  0  0  0  0  0  0  0
    8.9050    1.5360   23.9840 C   0  0  2  0  0  0  0  0  0  0  0  0
    9.0360    2.8580   24.5510 O   0  0  0  0  0  0  0  0  0  0  0  0
    9.2960    0.6090   24.9310 C   0  0  1  0  0  0  0  0  0  0  0  0
    8.1450   -0.1210   25.3800 O   0  0  0  0  0  0  0  0  0  0  0  0
    6.9560   -1.4920   22.6980 C   0  0  0  0  0  0  0  0  0  0  0  0
    5.9250   -1.7790   21.8200 C   0  0  0  0  0  0  0  0  0  0  0  0
  1  2  1  0
  2  3  2  0
  2  4  1  0
  4  5  1  0
  5  6  1  0
  6  7  1  0
  7  8  1  0
  8  9  1  0
 10  9  1  6
 10 11  1  0
 11 12  1  1
 11 13  1  0
 13 14  1  0
 14 15  1  6
 15 16  2  0
 16 17  1  0
 17 18  2  0
 18 19  1  0
 19 20  1  0
 20 21  1  0
 18 22  1  0
 15 23  1  0
 22 23  2  0
 14 24  1  0
 24 25  1  1
 10 26  1  0
 24 26  1  0
 26 27  1  6
  7 28  1  0
  4 29  1  0
 28 29  1  0
M  END
