MAK-UNK-8fdbca50-8-chloroacetamide
     RDKit          3D

 39 42  0  0  0  0  0  0  0  0999 V2000
    6.6540   -3.6600   19.6910 C   0  0  0  0  0  0  0  0  0  0  0  0
    5.7530   -4.5900   20.4850 C   0  0  0  0  0  0  0  0  0  0  0  0
    5.4070   -5.6480   20.0000 O   0  0  0  0  0  0  0  0  0  0  0  0
    5.3200   -4.2430   21.7330 N   0  0  0  0  0  0  0  0  0  0  0  0
    5.1380   -5.2540   22.8070 C   0  0  0  0  0  0  0  0  0  0  0  0
    3.9830   -4.7140   23.7070 C   0  0  0  0  0  0  0  0  0  0  0  0
    4.8000   -3.5800   24.3510 C   0  0  0  0  0  0  0  0  0  0  0  0
    4.1060   -3.2880   25.6750 C   0  0  0  0  0  0  0  0  0  0  0  0
    3.0520   -3.8290   26.0260 O   0  0  0  0  0  0  0  0  0  0  0  0
    4.8480   -2.2950   26.4600 N   0  0  0  0  0  0  0  0  0  0  0  0
    4.4070   -0.8780   26.3540 C   0  0  0  0  0  0  0  0  0  0  0  0
    6.2950   -2.3660   26.7430 C   0  0  2  0  0  0  0  0  0  0  0  0
    6.6410   -1.5350   27.9670 C   0  0  0  0  0  0  0  0  0  0  0  0
    7.0600   -2.1640   25.5760 C   0  0  0  0  0  0  0  0  0  0  0  0
    7.1180   -3.0800   24.4980 C   0  0  0  0  0  0  0  0  0  0  0  0
    7.8620   -2.8730   23.3530 C   0  0  0  0  0  0  0  0  0  0  0  0
    8.6200   -1.6950   23.2310 C   0  0  0  0  0  0  0  0  0  0  0  0
    9.5430   -1.4280   21.7410 S   0  0  0  0  0  0  0  0  0  0  0  0
    8.5860   -1.7390   20.7260 O   0  0  0  0  0  0  0  0  0  0  0  0
    9.9920   -0.0510   21.8280 O   0  0  0  0  0  0  0  0  0  0  0  0
   11.0250   -2.3620   21.5370 N   0  0  0  0  0  0  0  0  0  0  0  0
   11.4860   -3.3800   20.5640 C   0  0  0  0  0  0  0  0  0  0  0  0
   12.7490   -3.7720   20.8330 C   0  0  0  0  0  0  0  0  0  0  0  0
   13.3640   -4.6720   20.0760 C   0  0  0  0  0  0  0  0  0  0  0  0
   14.6750   -4.5040   20.0030 N   0  0  0  0  0  0  0  0  0  0  0  0
   15.5300   -5.5880   20.3770 C   0  0  0  0  0  0  0  0  0  0  0  0
   13.1360   -3.1260   21.9190 C   0  0  0  0  0  0  0  0  0  0  0  0
   12.1750   -2.3260   22.3320 C   0  0  0  0  0  0  0  0  0  0  0  0
   12.2620   -1.6280   23.3520 C   0  0  0  0  0  0  0  0  0  0  0  0
   11.4750   -0.3750   23.4530 C   0  0  0  0  0  0  0  0  0  0  0  0
   11.5820    0.2730   24.5320 C   0  0  0  0  0  0  0  0  0  0  0  0
   12.5050   -0.3120   25.6040 C   0  0  0  0  0  0  0  0  0  0  0  0
   13.2840   -1.5520   25.4760 C   0  0  0  0  0  0  0  0  0  0  0  0
   13.1100   -2.1960   24.2470 C   0  0  0  0  0  0  0  0  0  0  0  0
   13.7690   -3.3040   24.0330 F   0  0  0  0  0  0  0  0  0  0  0  0
    8.5790   -0.7930   24.2860 C   0  0  0  0  0  0  0  0  0  0  0  0
    7.8350   -1.0050   25.4100 N   0  0  0  0  0  0  0  0  0  0  0  0
    4.8240   -2.3840   23.4320 C   0  0  0  0  0  0  0  0  0  0  0  0
    5.4150   -2.8130   22.0760 C   0  0  0  0  0  0  0  0  0  0  0  0
  1  2  1  0
  2  3  2  0
  2  4  1  0
  4  5  1  0
  5  6  1  0
  6  7  1  0
  7  8  1  0
  8  9  2  0
  8 10  1  0
 10 11  1  0
 10 12  1  0
 12 13  1  1
 12 14  1  0
 14 15  2  0
 15 16  1  0
 16 17  2  0
 18 17  1  0
 18 19  2  0
 18 20  2  0
 18 21  1  0
 21 22  1  0
 22 23  2  0
 23 24  1  0
 24 25  1  0
 25 26  1  0
 23 27  1  0
 21 28  1  0
 27 28  2  0
 28 29  1  0
 29 30  2  0
 30 31  1  0
 31 32  2  0
 32 33  1  0
 29 34  1  0
 33 34  2  0
 34 35  1  0
 17 36  1  0
 14 37  1  0
 36 37  2  0
  7 38  1  0
  4 39  1  0
 38 39  1  0
M  END
