MAK-UNK-bae89c02-3-acrylamide
     RDKit          3D

 26 29  0  0  0  0  0  0  0  0999 V2000
    7.8700   -3.0780   18.9740 C   0  0  0  0  0  0  0  0  0  0  0  0
    6.3820   -2.8010   18.9690 C   0  0  0  0  0  0  0  0  0  0  0  0
    5.7060   -3.3040   20.1970 C   0  0  0  0  0  0  0  0  0  0  0  0
    5.2670   -4.4490   20.1890 O   0  0  0  0  0  0  0  0  0  0  0  0
    5.6610   -2.3660   21.2450 N   0  0  0  0  0  0  0  0  0  0  0  0
    6.7220   -1.3750   21.1040 C   0  0  0  0  0  0  0  0  0  0  0  0
    7.7270   -1.9990   22.0070 C   0  0  2  0  0  0  0  0  0  0  0  0
    6.9270   -3.1630   22.5100 C   0  0  0  0  0  0  0  0  0  0  0  0
    5.5690   -2.5540   22.7590 C   0  0  1  0  0  0  0  0  0  0  0  0
    6.4160   -1.8920   23.8650 C   0  0  0  0  0  0  0  0  0  0  0  0
    7.6770   -1.2800   23.2620 N   0  0  0  0  0  0  0  0  0  0  0  0
    8.8890   -1.5100   24.0220 C   0  0  0  0  0  0  0  0  0  0  0  0
   10.0260   -0.6990   23.7180 C   0  0  0  0  0  0  0  0  0  0  0  0
   10.0050    0.5260   24.3280 C   0  0  0  0  0  0  0  0  0  0  0  0
   11.0850    1.4860   24.1710 C   0  0  0  0  0  0  0  0  0  0  0  0
   12.1460    1.0920   23.4050 C   0  0  0  0  0  0  0  0  0  0  0  0
   12.1720   -0.1240   22.7940 C   0  0  0  0  0  0  0  0  0  0  0  0
   13.2320   -0.4820   22.0440 C   0  0  0  0  0  0  0  0  0  0  0  0
   13.3670   -1.6620   21.3640 C   0  0  0  0  0  0  0  0  0  0  0  0
   12.3890   -2.6090   21.4150 C   0  0  0  0  0  0  0  0  0  0  0  0
   12.8750   -4.0620   20.4630 S   0  0  0  0  0  0  0  0  0  0  0  0
   11.5370   -4.3250   19.5800 N   0  0  0  0  0  0  0  0  0  0  0  0
   12.9220   -5.4130   20.8080 O   0  0  0  0  0  0  0  0  0  0  0  0
   14.1210   -3.6780   19.8980 O   0  0  0  0  0  0  0  0  0  0  0  0
   11.2500   -2.3100   22.1440 C   0  0  0  0  0  0  0  0  0  0  0  0
   11.1260   -1.0240   22.9070 C   0  0  0  0  0  0  0  0  0  0  0  0
  1  2  1  0
  2  3  1  0
  3  4  2  0
  3  5  1  0
  5  6  1  0
  7  6  1  6
  7  8  1  0
  5  9  1  0
  8  9  1  0
  9 10  1  1
  7 11  1  0
 10 11  1  0
 11 12  1  0
 12 13  1  0
 13 14  2  0
 14 15  1  0
 15 16  2  0
 16 17  1  0
 17 18  1  0
 18 19  2  0
 19 20  1  0
 20 21  1  0
 21 22  1  0
 21 23  2  0
 21 24  2  0
 20 25  2  0
 13 26  1  0
 17 26  2  0
 25 26  1  0
M  END
