MAK-UNK-9e4a73aa-14
     RDKit          3D

 26 29  0  0  0  0  0  0  0  0999 V2000
    9.3610    0.7820   21.2090 O   0  0  0  0  0  0  0  0  0  0  0  0
    9.3970    0.0960   22.2030 C   0  0  0  0  0  0  0  0  0  0  0  0
   10.6060   -0.6690   22.7500 C   0  0  0  0  0  0  0  0  0  0  0  0
   11.4500   -1.7020   21.9740 C   0  0  0  0  0  0  0  0  0  0  0  0
   12.5950   -2.3930   22.7260 C   0  0  0  0  0  0  0  0  0  0  0  0
   13.3870   -3.2860   22.1540 F   0  0  0  0  0  0  0  0  0  0  0  0
   12.7910   -2.0160   24.2090 C   0  0  0  0  0  0  0  0  0  0  0  0
   13.8690   -2.5790   25.3740 Cl  0  0  0  0  0  0  0  0  0  0  0  0
   11.8470   -0.9500   24.7240 C   0  0  0  0  0  0  0  0  0  0  0  0
   10.8670   -0.3570   24.0210 C   0  0  0  0  0  0  0  0  0  0  0  0
   10.0700    0.5880   24.4970 N   0  0  0  0  0  0  0  0  0  0  0  0
   10.5080    1.8430   23.8920 C   0  0  0  0  0  0  0  0  0  0  0  0
    9.5580    2.8450   23.8680 C   0  0  0  0  0  0  0  0  0  0  0  0
    9.8650    4.2300   23.2570 C   0  0  0  0  0  0  0  0  0  0  0  0
   11.3270    4.3980   22.6670 C   0  0  0  0  0  0  0  0  0  0  0  0
   12.2010    3.1860   22.7920 C   0  0  0  0  0  0  0  0  0  0  0  0
   11.8110    1.9960   23.3660 C   0  0  0  0  0  0  0  0  0  0  0  0
    8.6530    0.2830   24.2960 C   0  0  0  0  0  0  0  0  0  0  0  0
    7.7410    0.3480   25.3120 O   0  0  0  0  0  0  0  0  0  0  0  0
    8.3730   -0.0670   23.0390 N   0  0  0  0  0  0  0  0  0  0  0  0
    7.6820   -1.3560   22.8460 C   0  0  0  0  0  0  0  0  0  0  0  0
    6.5960   -1.4290   21.7760 C   0  0  0  0  0  0  0  0  0  0  0  0
    5.8930   -2.6990   21.5700 N   0  0  0  0  0  0  0  0  0  0  0  0
    6.3270   -3.8160   22.4480 C   0  0  0  0  0  0  0  0  0  0  0  0
    7.3570   -3.5910   23.3980 C   0  0  0  0  0  0  0  0  0  0  0  0
    8.0010   -2.4290   23.5910 N   0  0  0  0  0  0  0  0  0  0  0  0
  1  2  2  0
  2  3  1  0
  3  4  2  0
  4  5  1  0
  5  6  1  0
  5  7  2  0
  7  8  1  0
  7  9  1  0
  3 10  1  0
  9 10  2  0
 10 11  1  0
 11 12  1  0
 12 13  2  0
 13 14  1  0
 14 15  2  0
 15 16  1  0
 12 17  1  0
 16 17  2  0
 11 18  1  0
 18 19  2  0
  2 20  1  0
 18 20  1  0
 20 21  1  0
 21 22  2  0
 22 23  1  0
 23 24  2  0
 24 25  1  0
 21 26  1  0
 25 26  2  0
M  END
