MAK-UNK-148caf23-19-acrylamide
     RDKit          3D

 36 39  0  0  0  0  0  0  0  0999 V2000
    7.6290   -3.2630   19.0040 C   0  0  0  0  0  0  0  0  0  0  0  0
    7.8600   -2.5580   20.2950 C   0  0  0  0  0  0  0  0  0  0  0  0
    6.7360   -2.8360   21.3240 C   0  0  0  0  0  0  0  0  0  0  0  0
    5.2520   -3.5100   21.1340 O   0  0  0  0  0  0  0  0  0  0  0  0
    7.5270   -2.1680   22.6100 C   0  0  0  0  0  0  0  0  0  0  0  0
    8.8380   -1.4030   23.1290 C   0  0  0  0  0  0  0  0  0  0  0  0
    8.0510   -1.4870   24.3640 C   0  0  0  0  0  0  0  0  0  0  0  0
    9.4610   -0.7840   24.2180 C   0  0  0  0  0  0  0  0  0  0  0  0
    9.9650   -0.1810   25.3900 N   0  0  0  0  0  0  0  0  0  0  0  0
    9.1360   -0.5900   26.5350 C   0  0  0  0  0  0  0  0  0  0  0  0
    8.2720    0.5840   26.9760 C   0  0  0  0  0  0  0  0  0  0  0  0
    7.5580    1.1240   25.9990 N   0  0  0  0  0  0  0  0  0  0  0  0
    6.7770    2.1690   26.3530 C   0  0  0  0  0  0  0  0  0  0  0  0
    6.7340    2.6340   27.6640 C   0  0  0  0  0  0  0  0  0  0  0  0
    7.4280    2.1750   28.8390 C   0  0  0  0  0  0  0  0  0  0  0  0
    8.2080    1.0780   28.3060 C   0  0  0  0  0  0  0  0  0  0  0  0
    9.1870    0.3050   29.5440 S   0  0  0  0  0  0  0  0  0  0  0  0
   10.5250    0.8310   29.4570 O   0  0  0  0  0  0  0  0  0  0  0  0
    8.9610   -1.1140   29.4220 O   0  0  0  0  0  0  0  0  0  0  0  0
    8.6100    0.8170   31.0230 N   0  0  0  0  0  0  0  0  0  0  0  0
    9.3140    1.6440   31.8840 C   0  0  0  0  0  0  0  0  0  0  0  0
    8.5880    1.9070   33.0590 C   0  0  0  0  0  0  0  0  0  0  0  0
    9.0920    2.7260   34.0990 C   0  0  0  0  0  0  0  0  0  0  0  0
    9.3630    4.0180   33.6810 N   0  0  0  0  0  0  0  0  0  0  0  0
   10.0560    4.6580   34.6000 C   0  0  0  0  0  0  0  0  0  0  0  0
    7.3270    1.2090   32.9570 C   0  0  0  0  0  0  0  0  0  0  0  0
    7.3550    0.5550   31.7190 C   0  0  0  0  0  0  0  0  0  0  0  0
    6.4260   -0.2970   31.0180 C   0  0  0  0  0  0  0  0  0  0  0  0
    6.6860   -1.2460   29.9020 C   0  0  0  0  0  0  0  0  0  0  0  0
    5.5040   -2.0200   29.3530 C   0  0  0  0  0  0  0  0  0  0  0  0
    4.2390   -1.8240   29.8980 C   0  0  0  0  0  0  0  0  0  0  0  0
    4.0680   -0.8360   31.0330 C   0  0  0  0  0  0  0  0  0  0  0  0
    5.1580   -0.1150   31.5470 C   0  0  0  0  0  0  0  0  0  0  0  0
    4.9320    0.7450   32.5530 F   0  0  0  0  0  0  0  0  0  0  0  0
    9.9960   -0.8610   22.9180 N   0  0  0  0  0  0  0  0  0  0  0  0
    8.9580   -1.5440   22.2590 C   0  0  0  0  0  0  0  0  0  0  0  0
  1  2  1  0
  2  3  1  0
  3  4  2  0
  3  5  1  0
  5  6  2  0
  6  7  1  0
  7  8  2  0
  8  9  1  0
  9 10  1  0
 10 11  1  0
 11 12  2  0
 12 13  1  0
 13 14  2  0
 14 15  1  0
 11 16  1  0
 15 16  2  0
 17 16  1  0
 17 18  2  0
 17 19  2  0
 17 20  1  0
 20 21  1  0
 21 22  2  0
 22 23  1  0
 23 24  1  0
 24 25  1  0
 22 26  1  0
 20 27  1  0
 26 27  2  0
 27 28  1  0
 28 29  2  0
 29 30  1  0
 30 31  2  0
 31 32  1  0
 28 33  1  0
 32 33  2  0
 33 34  1  0
  8 35  1  0
  5 36  1  0
 35 36  2  0
M  END
