MAK-UNK-10dfa458-9-acrylamide
     RDKit          3D

 20 21  0  0  0  0  0  0  0  0999 V2000
    8.0230   -3.5890   19.6410 C   0  0  0  0  0  0  0  0  0  0  0  0
    7.3780   -2.9760   20.8540 C   0  0  0  0  0  0  0  0  0  0  0  0
    6.1170   -3.7170   21.1430 C   0  0  0  0  0  0  0  0  0  0  0  0
    5.1430   -3.5230   20.4510 O   0  0  0  0  0  0  0  0  0  0  0  0
    6.1860   -4.6230   22.1670 N   0  0  0  0  0  0  0  0  0  0  0  0
    5.5350   -5.9210   22.1920 C   0  0  0  0  0  0  0  0  0  0  0  0
    4.5420   -5.6930   23.3640 C   0  0  0  0  0  0  0  0  0  0  0  0
    5.3170   -5.2530   24.5850 N   0  0  0  0  0  0  0  0  0  0  0  0
    4.4750   -4.9800   25.7640 C   0  0  2  0  0  0  0  0  0  0  0  0
    3.7970   -6.2470   26.2730 C   0  0  0  0  0  0  0  0  0  0  0  0
    3.4320   -3.9130   25.3310 C   0  0  0  0  0  0  0  0  0  0  0  0
    3.5590   -2.5660   26.0260 C   0  0  0  0  0  0  0  0  0  0  0  0
    2.2720   -1.7610   26.0270 C   0  0  0  0  0  0  0  0  0  0  0  0
    1.0930   -2.4350   25.6030 C   0  0  0  0  0  0  0  0  0  0  0  0
   -0.1400   -1.7850   25.5720 C   0  0  0  0  0  0  0  0  0  0  0  0
   -0.1850   -0.4190   25.9770 C   0  0  0  0  0  0  0  0  0  0  0  0
    0.9850    0.2100   26.3830 C   0  0  0  0  0  0  0  0  0  0  0  0
    2.2380   -0.4080   26.4300 C   0  0  0  0  0  0  0  0  0  0  0  0
    6.2520   -4.1350   24.3560 C   0  0  0  0  0  0  0  0  0  0  0  0
    7.0650   -4.3690   23.2800 C   0  0  0  0  0  0  0  0  0  0  0  0
  1  2  1  0
  2  3  1  0
  3  4  2  0
  3  5  1  0
  5  6  1  0
  6  7  1  0
  7  8  1  0
  8  9  1  0
  9 10  1  6
  9 11  1  0
 11 12  1  0
 12 13  1  0
 13 14  2  0
 14 15  1  0
 15 16  2  0
 16 17  1  0
 13 18  1  0
 17 18  2  0
  8 19  1  0
  5 20  1  0
 19 20  1  0
M  END
