MAK-UNK-5d2caa6f-4-vinylsulfonamide
     RDKit          3D

 25 28  0  0  0  0  0  0  0  0999 V2000
    7.9890   -3.3930   19.6800 C   0  0  0  0  0  0  0  0  0  0  0  0
    6.8550   -2.7180   18.9460 C   0  0  0  0  0  0  0  0  0  0  0  0
    5.6170   -3.2540   20.0250 S   0  0  0  0  0  0  0  0  0  0  0  0
    4.3730   -3.1870   19.3640 O   0  0  0  0  0  0  0  0  0  0  0  0
    5.9850   -4.5040   20.6190 O   0  0  0  0  0  0  0  0  0  0  0  0
    5.7990   -2.0110   21.1210 N   0  0  0  0  0  0  0  0  0  0  0  0
    6.8580   -0.9990   20.9750 C   0  0  0  0  0  0  0  0  0  0  0  0
    7.8770   -1.2070   22.1390 C   0  0  1  0  0  0  0  0  0  0  0  0
    6.4670   -0.9470   22.8350 C   0  0  0  0  0  0  0  0  0  0  0  0
    5.7700   -2.2980   22.5170 C   0  0  2  0  0  0  0  0  0  0  0  0
    6.9720   -3.0140   23.1110 C   0  0  0  0  0  0  0  0  0  0  0  0
    7.9430   -1.9880   23.4180 N   0  0  0  0  0  0  0  0  0  0  0  0
    9.2110   -2.5660   23.7520 C   0  0  1  0  0  0  0  0  0  0  0  0
   10.4670   -1.6500   23.5560 C   0  0  0  0  0  0  0  0  0  0  0  0
   11.5770   -2.0310   22.5640 C   0  0  0  0  0  0  0  0  0  0  0  0
   12.7790   -1.1370   22.3520 C   0  0  0  0  0  0  0  0  0  0  0  0
   12.9310    0.1620   23.0970 C   0  0  0  0  0  0  0  0  0  0  0  0
   11.8330    0.5510   24.0850 C   0  0  0  0  0  0  0  0  0  0  0  0
   10.5990   -0.3410   24.3340 C   0  0  0  0  0  0  0  0  0  0  0  0
    8.9850   -3.3120   25.1280 C   0  0  0  0  0  0  0  0  0  0  0  0
    7.9710   -2.6920   26.1160 C   0  0  0  0  0  0  0  0  0  0  0  0
    7.8340   -3.5120   27.4040 C   0  0  0  0  0  0  0  0  0  0  0  0
    8.4000   -4.9240   27.2600 C   0  0  0  0  0  0  0  0  0  0  0  0
    9.8620   -4.8900   26.8480 C   0  0  0  0  0  0  0  0  0  0  0  0
   10.1870   -3.6810   25.9640 C   0  0  0  0  0  0  0  0  0  0  0  0
  1  2  1  0
  3  2  1  0
  3  4  2  0
  3  5  2  0
  3  6  1  0
  6  7  1  0
  8  7  1  6
  8  9  1  0
  6 10  1  0
  9 10  1  0
 10 11  1  6
  8 12  1  0
 11 12  1  0
 12 13  1  0
 13 14  1  1
 14 15  2  0
 15 16  1  0
 16 17  2  0
 17 18  1  0
 14 19  1  0
 18 19  2  0
 13 20  1  0
 20 21  1  0
 21 22  1  0
 22 23  1  0
 23 24  1  0
 20 25  1  0
 24 25  1  0
M  END
