MAK-UNK-9e4a73aa-9
     RDKit          3D

 26 29  0  0  0  0  0  0  0  0999 V2000
    5.8970    1.5130   26.9560 F   0  0  0  0  0  0  0  0  0  0  0  0
    6.6590    0.7270   26.1780 C   0  0  0  0  0  0  0  0  0  0  0  0
    7.0630    1.2080   24.7910 C   0  0  0  0  0  0  0  0  0  0  0  0
    7.9340    0.2520   23.9800 C   0  0  0  0  0  0  0  0  0  0  0  0
    8.4490    0.5990   22.5430 C   0  0  0  0  0  0  0  0  0  0  0  0
    8.2710    2.1500   21.8490 S   0  0  0  0  0  0  0  0  0  0  0  0
    9.0460   -0.4480   21.9090 N   0  0  0  0  0  0  0  0  0  0  0  0
    8.0440   -0.9930   21.2000 C   0  0  0  0  0  0  0  0  0  0  0  0
    8.2660   -2.1180   22.2580 C   0  0  0  0  0  0  0  0  0  0  0  0
    7.5430   -3.2120   22.3070 C   0  0  0  0  0  0  0  0  0  0  0  0
    6.4350   -3.8490   21.6040 C   0  0  0  0  0  0  0  0  0  0  0  0
    6.1500   -2.9730   20.6050 N   0  0  0  0  0  0  0  0  0  0  0  0
    6.9550   -1.6870   20.5080 C   0  0  0  0  0  0  0  0  0  0  0  0
    9.8860   -1.3450   22.5940 C   0  0  0  0  0  0  0  0  0  0  0  0
   11.5290   -1.5460   22.1390 S   0  0  0  0  0  0  0  0  0  0  0  0
    9.1690   -1.9360   23.7270 N   0  0  0  0  0  0  0  0  0  0  0  0
    9.1210   -3.4050   23.9770 C   0  0  0  0  0  0  0  0  0  0  0  0
    9.4890   -4.4010   22.9280 C   0  0  0  0  0  0  0  0  0  0  0  0
    9.5070   -5.7650   23.0660 C   0  0  0  0  0  0  0  0  0  0  0  0
    9.1360   -6.3360   24.3210 C   0  0  0  0  0  0  0  0  0  0  0  0
    8.7630   -5.5240   25.3790 C   0  0  0  0  0  0  0  0  0  0  0  0
    8.7630   -4.0060   25.1780 C   0  0  0  0  0  0  0  0  0  0  0  0
    8.3360   -1.0190   24.4980 C   0  0  0  0  0  0  0  0  0  0  0  0
    7.9120   -1.3820   25.7970 C   0  0  0  0  0  0  0  0  0  0  0  0
    7.0990   -0.5330   26.6130 C   0  0  0  0  0  0  0  0  0  0  0  0
    6.6490   -1.0780   28.1740 Cl  0  0  0  0  0  0  0  0  0  0  0  0
  1  2  1  0
  2  3  2  0
  3  4  1  0
  4  5  1  0
  5  6  2  0
  5  7  1  0
  7  8  1  0
  8  9  2  0
  9 10  1  0
 10 11  2  0
 11 12  1  0
  8 13  1  0
 12 13  2  0
  7 14  1  0
 14 15  2  0
 14 16  1  0
 16 17  1  0
 17 18  2  0
 18 19  1  0
 19 20  2  0
 20 21  1  0
 17 22  1  0
 21 22  2  0
  4 23  2  0
 16 23  1  0
 23 24  1  0
  2 25  1  0
 24 25  2  0
 25 26  1  0
M  END
