MAK-UNK-e05327b2-6-chloroacetamide
     RDKit          3D

 60 67  0  0  0  0  0  0  0  0999 V2000
    7.7720   -3.6630   20.3740 C   0  0  0  0  0  0  0  0  0  0  0  0
    6.5450   -4.5150   20.6650 C   0  0  0  0  0  0  0  0  0  0  0  0
    5.5510   -4.4900   19.9210 O   0  0  0  0  0  0  0  0  0  0  0  0
    6.5850   -5.3070   21.7980 N   0  0  0  0  0  0  0  0  0  0  0  0
    5.8020   -6.3000   22.0700 C   0  0  0  0  0  0  0  0  0  0  0  0
    4.8780   -5.9150   23.2480 C   0  0  0  0  0  0  0  0  0  0  0  0
    5.6490   -5.4250   24.4120 N   0  0  0  0  0  0  0  0  0  0  0  0
    4.9200   -5.3800   25.9030 S   0  0  0  0  0  0  0  0  0  0  0  0
    3.8490   -6.3460   25.9540 O   0  0  0  0  0  0  0  0  0  0  0  0
    5.9660   -5.3470   26.8910 O   0  0  0  0  0  0  0  0  0  0  0  0
    4.1190   -3.8030   25.9510 C   0  0  0  0  0  0  0  0  0  0  0  0
    4.6200   -2.3930   26.0740 C   0  0  0  0  0  0  0  0  0  0  0  0
    3.5490   -1.3560   26.0770 C   0  0  0  0  0  0  0  0  0  0  0  0
    2.2900   -1.9580   25.9630 C   0  0  0  0  0  0  0  0  0  0  0  0
    1.0990   -1.2260   25.9460 C   0  0  0  0  0  0  0  0  0  0  0  0
    0.2010   -0.6720   26.4450 N   0  0  0  0  0  0  0  0  0  0  0  0
    0.0260   -1.0200   27.8740 C   0  0  0  0  0  0  0  0  0  0  0  0
   -1.1300   -0.3850   28.3380 C   0  0  0  0  0  0  0  0  0  0  0  0
   -1.1830    0.9750   28.3170 N   0  0  0  0  0  0  0  0  0  0  0  0
   -2.7460    1.7070   28.3200 S   0  0  0  0  0  0  0  0  0  0  0  0
   -2.7170    2.8100   27.3880 O   0  0  0  0  0  0  0  0  0  0  0  0
   -3.6860    0.6170   28.1530 O   0  0  0  0  0  0  0  0  0  0  0  0
   -2.9190    2.4130   29.9730 C   0  0  0  0  0  0  0  0  0  0  0  0
   -1.7170    2.5880   30.6730 C   0  0  0  0  0  0  0  0  0  0  0  0
   -1.7260    3.1280   31.9670 C   0  0  0  0  0  0  0  0  0  0  0  0
   -2.9330    3.4940   32.5660 C   0  0  0  0  0  0  0  0  0  0  0  0
   -4.1410    3.3290   31.8870 C   0  0  0  0  0  0  0  0  0  0  0  0
   -5.3180    3.7150   32.5430 C   0  0  0  0  0  0  0  0  0  0  0  0
   -6.5770    3.5900   31.9470 C   0  0  0  0  0  0  0  0  0  0  0  0
   -7.8380    4.0310   32.7290 C   0  0  0  0  0  0  0  0  0  0  0  0
   -8.5460    4.3160   33.6130 N   0  0  0  0  0  0  0  0  0  0  0  0
   -8.1750    5.5940   34.2820 C   0  0  0  0  0  0  0  0  0  0  0  0
   -8.6440    6.9030   33.6370 C   0  0  0  0  0  0  0  0  0  0  0  0
  -10.0640    6.8050   33.1660 N   0  0  0  0  0  0  0  0  0  0  0  0
  -10.9660    8.2430   33.1730 S   0  0  0  0  0  0  0  0  0  0  0  0
  -11.8620    8.2210   32.0330 O   0  0  0  0  0  0  0  0  0  0  0  0
  -10.0410    9.3390   33.3690 O   0  0  0  0  0  0  0  0  0  0  0  0
  -12.0390    8.2920   34.5970 C   0  0  1  0  0  0  0  0  0  0  0  0
  -12.9780    7.3220   34.9550 C   0  0  0  0  0  0  0  0  0  0  0  0
  -13.6210    7.7790   36.1070 C   0  0  0  0  0  0  0  0  0  0  0  0
  -12.5270    8.4100   36.9830 C   0  0  2  0  0  0  0  0  0  0  0  0
  -12.8780    9.7800   37.9590 Cl  0  0  0  0  0  0  0  0  0  0  0  0
  -11.1380    8.5780   36.0290 S   0  0  0  0  0  0  0  0  0  0  0  0
  -10.7380    5.6040   33.7000 C   0  0  0  0  0  0  0  0  0  0  0  0
   -9.9750    4.3540   33.2250 C   0  0  0  0  0  0  0  0  0  0  0  0
   -6.6520    3.0610   30.6460 C   0  0  0  0  0  0  0  0  0  0  0  0
   -7.9640    2.8730   29.8720 C   0  0  0  0  0  0  0  0  0  0  0  0
   -7.9870    3.5910   28.5480 C   0  0  0  0  0  0  0  0  0  0  0  0
   -7.5770    4.9590   28.4010 C   0  0  0  0  0  0  0  0  0  0  0  0
   -6.3120    5.3050   28.7880 C   0  0  0  0  0  0  0  0  0  0  0  0
   -5.9780    6.6800   28.6140 C   0  0  0  0  0  0  0  0  0  0  0  0
   -7.3230    7.4990   27.9430 S   0  0  0  0  0  0  0  0  0  0  0  0
   -8.2680    6.0540   27.9100 C   0  0  0  0  0  0  0  0  0  0  0  0
   -5.4600    2.6730   29.9930 C   0  0  0  0  0  0  0  0  0  0  0  0
   -4.1720    2.7860   30.5720 C   0  0  0  0  0  0  0  0  0  0  0  0
   -0.1000    1.6260   27.5400 C   0  0  0  0  0  0  0  0  0  0  0  0
    0.2990    0.8030   26.3010 C   0  0  0  0  0  0  0  0  0  0  0  0
    2.3920   -3.7000   25.8470 S   0  0  0  0  0  0  0  0  0  0  0  0
    6.5630   -4.3510   24.0350 C   0  0  0  0  0  0  0  0  0  0  0  0
    7.4440   -4.8740   22.9000 C   0  0  0  0  0  0  0  0  0  0  0  0
  1  2  1  0
  2  3  2  0
  2  4  1  0
  4  5  1  0
  5  6  1  0
  6  7  1  0
  7  8  1  0
  8  9  2  0
  8 10  2  0
  8 11  1  0
 11 12  2  0
 12 13  1  0
 13 14  2  0
 14 15  1  0
 15 16  1  0
 16 17  1  0
 17 18  1  0
 18 19  1  0
 19 20  1  0
 20 21  2  0
 20 22  2  0
 20 23  1  0
 23 24  2  0
 24 25  1  0
 25 26  2  0
 26 27  1  0
 27 28  1  0
 28 29  2  0
 29 30  1  0
 30 31  1  0
 31 32  1  0
 32 33  1  0
 33 34  1  0
 35 34  1  0
 35 36  2  0
 35 37  2  0
 38 35  1  6
 38 39  1  0
 39 40  1  0
 40 41  1  0
 41 42  1  6
 38 43  1  0
 41 43  1  0
 34 44  1  0
 31 45  1  0
 44 45  1  0
 29 46  1  0
 46 47  1  0
 47 48  1  0
 48 49  1  0
 49 50  1  0
 50 51  2  0
 51 52  1  0
 49 53  2  0
 52 53  1  0
 46 54  2  0
 23 55  1  0
 27 55  2  0
 54 55  1  0
 19 56  1  0
 16 57  1  0
 56 57  1  0
 11 58  1  0
 14 58  1  0
  7 59  1  0
  4 60  1  0
 59 60  1  0
M  END
