MAK-UNK-8fdbca50-23-chloroacetamide
     RDKit          3D

 39 42  0  0  0  0  0  0  0  0999 V2000
    6.7220   -5.3530   20.2450 C   0  0  0  0  0  0  0  0  0  0  0  0
    5.5900   -4.4200   20.5230 C   0  0  0  0  0  0  0  0  0  0  0  0
    5.0510   -3.8740   19.5690 O   0  0  0  0  0  0  0  0  0  0  0  0
    5.1760   -4.2190   21.8130 N   0  0  0  0  0  0  0  0  0  0  0  0
    5.1190   -2.9250   22.4700 C   0  0  0  0  0  0  0  0  0  0  0  0
    6.6340   -2.6950   22.6940 C   0  0  0  0  0  0  0  0  0  0  0  0
    6.9370   -3.7000   23.8570 C   0  0  0  0  0  0  0  0  0  0  0  0
    7.0140   -2.6870   24.9910 C   0  0  0  0  0  0  0  0  0  0  0  0
    6.4190   -2.8560   26.0590 O   0  0  0  0  0  0  0  0  0  0  0  0
    7.8410   -1.5210   24.6700 N   0  0  0  0  0  0  0  0  0  0  0  0
    8.9680   -1.6330   23.6910 C   0  0  0  0  0  0  0  0  0  0  0  0
   10.0940   -2.5340   24.1740 C   0  0  0  0  0  0  0  0  0  0  0  0
   11.3010   -2.7350   23.3210 C   0  0  0  0  0  0  0  0  0  0  0  0
   11.2940   -2.0140   22.0060 C   0  0  0  0  0  0  0  0  0  0  0  0
   12.7500   -2.3430   21.0850 S   0  0  0  0  0  0  0  0  0  0  0  0
   13.5440   -3.0560   22.0270 O   0  0  0  0  0  0  0  0  0  0  0  0
   12.2720   -3.0920   19.9920 O   0  0  0  0  0  0  0  0  0  0  0  0
   13.6860   -0.9040   20.6150 N   0  0  0  0  0  0  0  0  0  0  0  0
   14.4530   -0.3660   19.5000 C   0  0  0  0  0  0  0  0  0  0  0  0
   14.9800    0.9100   19.6480 C   0  0  0  0  0  0  0  0  0  0  0  0
   15.7290    1.6340   18.7060 C   0  0  0  0  0  0  0  0  0  0  0  0
   15.3840    1.3960   17.4160 N   0  0  0  0  0  0  0  0  0  0  0  0
   16.3160    0.6070   16.6600 C   0  0  0  0  0  0  0  0  0  0  0  0
   14.6230    1.2500   20.9020 C   0  0  0  0  0  0  0  0  0  0  0  0
   13.7910    0.1160   21.6020 C   0  0  0  0  0  0  0  0  0  0  0  0
   13.1340   -0.2930   22.8590 C   0  0  0  0  0  0  0  0  0  0  0  0
   13.5420   -1.5820   23.0000 C   0  0  0  0  0  0  0  0  0  0  0  0
   13.2060   -2.4040   24.0130 C   0  0  0  0  0  0  0  0  0  0  0  0
   12.4010   -2.0140   24.9970 C   0  0  0  0  0  0  0  0  0  0  0  0
   11.9160   -0.6060   24.9020 C   0  0  0  0  0  0  0  0  0  0  0  0
   12.2490    0.2280   23.9080 C   0  0  0  0  0  0  0  0  0  0  0  0
   11.6850    1.4260   24.0630 F   0  0  0  0  0  0  0  0  0  0  0  0
   10.1500   -1.2200   21.7100 C   0  0  0  0  0  0  0  0  0  0  0  0
    9.0460   -1.0270   22.4970 N   0  0  0  0  0  0  0  0  0  0  0  0
    7.9250   -0.4580   25.6830 C   0  0  0  0  0  0  0  0  0  0  0  0
    9.3670   -0.1080   26.0740 C   0  0  0  0  0  0  0  0  0  0  0  0
    7.0510   -0.6130   26.9360 C   0  0  0  0  0  0  0  0  0  0  0  0
    5.8930   -4.8000   24.1100 C   0  0  0  0  0  0  0  0  0  0  0  0
    5.2840   -5.3040   22.7800 C   0  0  0  0  0  0  0  0  0  0  0  0
  1  2  1  0
  2  3  2  0
  2  4  1  0
  4  5  1  0
  5  6  1  0
  6  7  1  0
  7  8  1  0
  8  9  2  0
  8 10  1  0
 10 11  1  0
 11 12  2  0
 12 13  1  0
 13 14  2  0
 15 14  1  0
 15 16  2  0
 15 17  2  0
 15 18  1  0
 18 19  1  0
 19 20  2  0
 20 21  1  0
 21 22  1  0
 22 23  1  0
 20 24  1  0
 18 25  1  0
 24 25  2  0
 25 26  1  0
 26 27  2  0
 27 28  1  0
 28 29  2  0
 29 30  1  0
 26 31  1  0
 30 31  2  0
 31 32  1  0
 14 33  1  0
 11 34  1  0
 33 34  2  0
 10 35  1  0
 35 36  1  0
 35 37  1  0
  7 38  1  0
  4 39  1  0
 38 39  1  0
M  END
