MAK-UNK-516d8086-7-acrylamide
     RDKit          3D

 23 25  0  0  0  0  0  0  0  0999 V2000
    7.7010   -3.2580   19.5720 C   0  0  0  0  0  0  0  0  0  0  0  0
    6.6040   -2.3050   20.1030 C   0  0  0  0  0  0  0  0  0  0  0  0
    5.5450   -3.0320   20.8830 C   0  0  0  0  0  0  0  0  0  0  0  0
    4.8370   -3.4880   21.7740 O   0  0  0  0  0  0  0  0  0  0  0  0
    6.2940   -2.3800   22.0230 C   0  0  0  0  0  0  0  0  0  0  0  0
    5.5220   -1.6190   23.1150 C   0  0  0  0  0  0  0  0  0  0  0  0
    6.2620   -1.0430   24.1390 N   0  0  0  0  0  0  0  0  0  0  0  0
    7.6690   -1.1290   24.2180 C   0  0  0  0  0  0  0  0  0  0  0  0
    8.4780   -0.5560   25.2600 N   0  0  0  0  0  0  0  0  0  0  0  0
    7.8080    0.0960   26.4090 C   0  0  0  0  0  0  0  0  0  0  0  0
    7.1050    1.2940   25.7920 C   0  0  0  0  0  0  0  0  0  0  0  0
    8.4640   -1.8760   23.1500 C   0  0  0  0  0  0  0  0  0  0  0  0
    9.9040   -1.9720   23.2440 C   0  0  0  0  0  0  0  0  0  0  0  0
   10.2020   -3.1100   23.9320 C   0  0  0  0  0  0  0  0  0  0  0  0
    8.9510   -3.4440   24.0690 C   0  0  0  0  0  0  0  0  0  0  0  0
    8.7250   -2.1270   23.2810 C   0  0  0  0  0  0  0  0  0  0  0  0
    9.3440   -1.0150   22.6530 C   0  0  0  0  0  0  0  0  0  0  0  0
   10.7230   -1.0750   22.7390 C   0  0  0  0  0  0  0  0  0  0  0  0
    8.6790   -0.0110   22.0510 C   0  0  0  0  0  0  0  0  0  0  0  0
    8.6500    1.1600   21.7030 O   0  0  0  0  0  0  0  0  0  0  0  0
    9.8620   -0.1480   22.6630 N   0  0  0  0  0  0  0  0  0  0  0  0
   10.0850   -1.6390   23.0890 C   0  0  0  0  0  0  0  0  0  0  0  0
    7.7220   -2.4690   22.0980 C   0  0  0  0  0  0  0  0  0  0  0  0
  1  2  1  0
  2  3  1  0
  3  4  2  0
  3  5  1  0
  5  6  2  0
  6  7  1  0
  7  8  2  0
  8  9  1  0
  9 10  1  0
 10 11  1  0
  8 12  1  0
 12 13  1  0
 13 14  2  0
 14 15  1  0
 15 16  2  0
 16 17  1  0
 13 18  1  0
 17 18  2  0
 17 19  1  0
 19 20  2  0
 19 21  1  0
 16 22  1  0
 21 22  1  0
  5 23  1  0
 12 23  2  0
M  END
