MAK-UNK-5d2caa6f-5-chloroacetamide
     RDKit          3D

 23 26  0  0  0  0  0  0  0  0999 V2000
    7.1910   -2.9740   18.7660 C   0  0  0  0  0  0  0  0  0  0  0  0
    6.2080   -3.2770   19.8790 C   0  0  0  0  0  0  0  0  0  0  0  0
    5.4090   -4.2170   19.7900 O   0  0  0  0  0  0  0  0  0  0  0  0
    6.2660   -2.4480   20.9920 N   0  0  0  0  0  0  0  0  0  0  0  0
    7.1310   -1.2650   20.9860 C   0  0  0  0  0  0  0  0  0  0  0  0
    8.1880   -1.5200   22.1100 C   0  0  1  0  0  0  0  0  0  0  0  0
    6.7450   -1.3550   22.7720 C   0  0  0  0  0  0  0  0  0  0  0  0
    6.1480   -2.7370   22.3870 C   0  0  2  0  0  0  0  0  0  0  0  0
    7.3620   -3.4040   23.0360 C   0  0  0  0  0  0  0  0  0  0  0  0
    8.2550   -2.3190   23.3870 N   0  0  0  0  0  0  0  0  0  0  0  0
    9.5510   -2.7270   23.9260 C   0  0  1  0  0  0  0  0  0  0  0  0
   10.6940   -1.7020   23.6430 C   0  0  0  0  0  0  0  0  0  0  0  0
   11.7650   -2.0510   22.6160 C   0  0  0  0  0  0  0  0  0  0  0  0
   12.8790   -1.0650   22.3260 C   0  0  0  0  0  0  0  0  0  0  0  0
   12.9040    0.2580   23.0600 C   0  0  0  0  0  0  0  0  0  0  0  0
   11.8360    0.6090   24.0800 C   0  0  0  0  0  0  0  0  0  0  0  0
   10.7020   -0.3750   24.3980 C   0  0  0  0  0  0  0  0  0  0  0  0
    9.3620   -2.9780   25.4800 C   0  0  0  0  0  0  0  0  0  0  0  0
    7.8650   -2.8050   25.9430 C   0  0  0  0  0  0  0  0  0  0  0  0
    7.4150   -4.0060   26.7620 C   0  0  0  0  0  0  0  0  0  0  0  0
    7.6880   -5.1800   26.0380 O   0  0  0  0  0  0  0  0  0  0  0  0
    9.0450   -5.5310   26.2240 C   0  0  0  0  0  0  0  0  0  0  0  0
    9.9770   -4.3410   25.9830 C   0  0  0  0  0  0  0  0  0  0  0  0
  1  2  1  0
  2  3  2  0
  2  4  1  0
  4  5  1  0
  6  5  1  6
  6  7  1  0
  4  8  1  0
  7  8  1  0
  8  9  1  6
  6 10  1  0
  9 10  1  0
 10 11  1  0
 11 12  1  1
 12 13  2  0
 13 14  1  0
 14 15  2  0
 15 16  1  0
 12 17  1  0
 16 17  2  0
 11 18  1  0
 18 19  1  0
 19 20  1  0
 20 21  1  0
 21 22  1  0
 18 23  1  0
 22 23  1  0
M  END
