MAK-UNK-a7992eb3-6-vinylsulfonamide
     RDKit          3D

 35 36  0  0  0  0  0  0  0  0999 V2000
    6.0930   -5.6240   20.4990 C   0  0  0  0  0  0  0  0  0  0  0  0
    6.4350   -6.1760   21.8960 C   0  0  0  0  0  0  0  0  0  0  0  0
    5.3440   -5.5030   23.1090 S   0  0  0  0  0  0  0  0  0  0  0  0
    4.3980   -4.6070   22.4400 O   0  0  0  0  0  0  0  0  0  0  0  0
    4.8440   -6.6010   23.9210 O   0  0  0  0  0  0  0  0  0  0  0  0
    6.3550   -4.5530   24.1070 N   0  0  0  0  0  0  0  0  0  0  0  0
    7.6440   -4.1580   23.5390 C   0  0  0  0  0  0  0  0  0  0  0  0
    7.6570   -2.9420   22.9020 C   0  0  0  0  0  0  0  0  0  0  0  0
    6.3660   -2.5060   22.6480 C   0  0  0  0  0  0  0  0  0  0  0  0
    6.2350   -1.4690   21.7180 C   0  0  0  0  0  0  0  0  0  0  0  0
    5.0960   -1.1820   21.3690 O   0  0  0  0  0  0  0  0  0  0  0  0
    7.3450   -0.8000   21.2080 N   0  0  0  0  0  0  0  0  0  0  0  0
    7.5710    0.5370   21.7920 C   0  0  0  0  0  0  0  0  0  0  0  0
    7.7690    0.5500   23.3340 C   0  0  0  0  0  0  0  0  0  0  0  0
    8.0140    1.8920   24.0680 C   0  0  0  0  0  0  0  0  0  0  0  0
    8.0490    3.1530   23.2340 C   0  0  0  0  0  0  0  0  0  0  0  0
    7.8480    3.0650   21.7240 C   0  0  0  0  0  0  0  0  0  0  0  0
    7.6040    1.7130   21.0110 C   0  0  0  0  0  0  0  0  0  0  0  0
    7.4480    1.6610   19.7700 O   0  0  0  0  0  0  0  0  0  0  0  0
    6.3170    1.0130   19.1200 C   0  0  1  0  0  0  0  0  0  0  0  0
    5.1420    1.9830   19.2950 C   0  0  0  0  0  0  0  0  0  0  0  0
    6.6570    0.7210   17.7760 C   0  0  2  0  0  0  0  0  0  0  0  0
    5.8570   -0.1270   17.2200 N   0  0  0  0  0  0  0  0  0  0  0  0
    6.4970   -1.3400   16.9230 C   0  0  0  0  0  0  0  0  0  0  0  0
    6.7360   -2.2310   17.9320 C   0  0  0  0  0  0  0  0  0  0  0  0
    6.8830   -1.6630   15.6520 O   0  0  0  0  0  0  0  0  0  0  0  0
    7.7120   -0.3700   17.7270 C   0  0  0  0  0  0  0  0  0  0  0  0
    7.9220   -1.0120   18.7460 O   0  0  0  0  0  0  0  0  0  0  0  0
    8.3730   -0.6290   16.4750 N   0  0  0  0  0  0  0  0  0  0  0  0
    8.4200    0.1720   15.3510 C   0  0  0  0  0  0  0  0  0  0  0  0
    9.6590    0.1620   14.6340 C   0  0  0  0  0  0  0  0  0  0  0  0
   10.9180    0.3780   15.2500 C   0  0  0  0  0  0  0  0  0  0  0  0
   13.3380    0.9190   17.0770 Br  0  0  0  0  0  0  0  0  0  0  0  0
    5.5590   -2.3230   23.7840 C   0  0  0  0  0  0  0  0  0  0  0  0
    5.6640   -3.4000   24.6810 C   0  0  0  0  0  0  0  0  0  0  0  0
  1  2  1  0
  3  2  1  0
  3  4  2  0
  3  5  2  0
  3  6  1  0
  6  7  1  0
  7  8  1  0
  8  9  1  0
  9 10  1  0
 10 11  2  0
 10 12  1  0
 12 13  1  0
 13 14  2  0
 14 15  1  0
 15 16  2  0
 16 17  1  0
 13 18  1  0
 17 18  2  0
 18 19  1  0
 19 20  1  0
 20 21  1  6
 20 22  1  0
 22 23  1  6
 23 24  1  0
 24 25  1  0
 24 26  2  0
 22 27  1  0
 27 28  2  0
 27 29  1  0
 29 30  1  0
 30 31  1  0
 31 32  3  0
 32 33  1  0
  9 34  1  0
  6 35  1  0
 34 35  1  0
M  END
