MAK-UNK-10799360-4-vinylsulfonamide
     RDKit          3D

 27 30  0  0  0  0  0  0  0  0999 V2000
    7.9310   -3.3920   19.6720 C   0  0  0  0  0  0  0  0  0  0  0  0
    6.9690   -2.5330   18.9160 C   0  0  0  0  0  0  0  0  0  0  0  0
    5.5900   -2.7010   19.9600 S   0  0  0  0  0  0  0  0  0  0  0  0
    5.0390   -4.0070   19.6920 O   0  0  0  0  0  0  0  0  0  0  0  0
    4.8550   -1.4600   19.8970 O   0  0  0  0  0  0  0  0  0  0  0  0
    6.4560   -2.7090   21.3860 N   0  0  0  0  0  0  0  0  0  0  0  0
    5.8560   -2.5320   22.7510 C   0  0  0  0  0  0  0  0  0  0  0  0
    7.2260   -2.5300   23.4980 C   0  0  1  0  0  0  0  0  0  0  0  0
    8.0020   -2.8560   22.2370 C   0  0  0  0  0  0  0  0  0  0  0  0
    7.4810   -1.6270   21.4180 C   0  0  2  0  0  0  0  0  0  0  0  0
    8.5300   -1.1150   22.4020 C   0  0  0  0  0  0  0  0  0  0  0  0
    7.7810   -1.1770   23.6730 N   0  0  0  0  0  0  0  0  0  0  0  0
    8.7010   -0.8910   24.7580 C   0  0  0  0  0  0  0  0  0  0  0  0
    9.8190    0.0350   24.3290 C   0  0  0  0  0  0  0  0  0  0  0  0
    9.7010    1.4250   24.3760 C   0  0  0  0  0  0  0  0  0  0  0  0
   10.7590    2.2500   23.9420 C   0  0  0  0  0  0  0  0  0  0  0  0
   11.9480    1.7070   23.4580 C   0  0  0  0  0  0  0  0  0  0  0  0
   12.0510    0.3410   23.4190 C   0  0  0  0  0  0  0  0  0  0  0  0
   13.0480   -0.4020   23.0060 N   0  0  0  0  0  0  0  0  0  0  0  0
   12.6830   -1.6630   23.1510 C   0  0  0  0  0  0  0  0  0  0  0  0
   13.3450   -2.7390   22.8400 C   0  0  0  0  0  0  0  0  0  0  0  0
   13.2280   -2.8610   21.0880 S   0  0  0  0  0  0  0  0  0  0  0  0
   11.5790   -2.8300   20.8800 N   0  0  0  0  0  0  0  0  0  0  0  0
   13.8000   -4.1020   20.5940 O   0  0  0  0  0  0  0  0  0  0  0  0
   13.6720   -1.5700   20.6110 O   0  0  0  0  0  0  0  0  0  0  0  0
   11.4550   -1.7700   23.6660 N   0  0  0  0  0  0  0  0  0  0  0  0
   11.0000   -0.4380   23.8510 C   0  0  0  0  0  0  0  0  0  0  0  0
  1  2  1  0
  3  2  1  0
  3  4  2  0
  3  5  2  0
  3  6  1  0
  6  7  1  0
  8  7  1  6
  8  9  1  0
  6 10  1  0
  9 10  1  0
 10 11  1  1
  8 12  1  0
 11 12  1  0
 12 13  1  0
 13 14  1  0
 14 15  1  0
 15 16  2  0
 16 17  1  0
 17 18  2  0
 18 19  1  0
 19 20  2  0
 20 21  1  0
 21 22  1  0
 22 23  1  0
 22 24  2  0
 22 25  2  0
 20 26  1  0
 14 27  2  0
 18 27  1  0
 26 27  1  0
M  END
