MAK-UNK-849bee6c-24-acrylamide
     RDKit          3D

 32 34  0  0  0  0  0  0  0  0999 V2000
    7.0990   -2.8070   18.5790 C   0  0  0  0  0  0  0  0  0  0  0  0
    6.0240   -2.4650   19.6110 C   0  0  0  0  0  0  0  0  0  0  0  0
    5.5150   -3.6470   20.4090 C   0  0  0  0  0  0  0  0  0  0  0  0
    5.1380   -4.6820   19.8730 O   0  0  0  0  0  0  0  0  0  0  0  0
    5.4690   -3.4990   21.7780 N   0  0  0  0  0  0  0  0  0  0  0  0
    5.9250   -4.4650   22.6170 C   0  0  0  0  0  0  0  0  0  0  0  0
    7.2310   -4.0190   23.2930 C   0  0  0  0  0  0  0  0  0  0  0  0
    7.7420   -2.8790   22.5140 N   0  0  0  0  0  0  0  0  0  0  0  0
    9.1830   -2.5670   22.6920 C   0  0  0  0  0  0  0  0  0  0  0  0
    9.3230   -1.2090   23.3490 C   0  0  0  0  0  0  0  0  0  0  0  0
    8.8890   -1.1020   24.6610 C   0  0  0  0  0  0  0  0  0  0  0  0
    8.9640    0.0910   25.3470 C   0  0  0  0  0  0  0  0  0  0  0  0
    8.5140    0.1280   26.6560 C   0  0  0  0  0  0  0  0  0  0  0  0
    9.4830    1.2130   24.6950 C   0  0  0  0  0  0  0  0  0  0  0  0
    9.9240    1.1420   23.3780 C   0  0  0  0  0  0  0  0  0  0  0  0
   10.4320    2.3020   22.7490 N   0  0  0  0  0  0  0  0  0  0  0  0
   11.8100    2.7640   22.6260 C   0  0  0  0  0  0  0  0  0  0  0  0
   12.0380    4.1350   22.8240 C   0  0  0  0  0  0  0  0  0  0  0  0
   13.2980    4.7240   22.7750 C   0  0  0  0  0  0  0  0  0  0  0  0
   14.4610    4.0080   22.4880 C   0  0  0  0  0  0  0  0  0  0  0  0
   15.7300    4.8130   22.5770 N   0  0  0  0  0  0  0  0  0  0  0  0
   17.0730    4.3720   22.9490 C   0  0  0  0  0  0  0  0  0  0  0  0
   17.3890    3.2860   23.3310 O   0  0  0  0  0  0  0  0  0  0  0  0
   18.1520    5.3040   22.9180 C   0  0  0  0  0  0  0  0  0  0  0  0
   19.6310    4.8040   23.7370 Cl  0  0  0  0  0  0  0  0  0  0  0  0
   14.2790    2.6420   22.2170 C   0  0  0  0  0  0  0  0  0  0  0  0
   12.9300    1.9640   22.3380 C   0  0  0  0  0  0  0  0  0  0  0  0
   12.9410    0.4470   22.1660 C   0  0  0  0  0  0  0  0  0  0  0  0
   12.9970   -0.7160   22.1190 N   0  0  0  0  0  0  0  0  0  0  0  0
    9.8460   -0.0850   22.7000 C   0  0  0  0  0  0  0  0  0  0  0  0
    6.8440   -1.7240   22.5210 C   0  0  0  0  0  0  0  0  0  0  0  0
    5.5280   -2.1620   22.3810 C   0  0  0  0  0  0  0  0  0  0  0  0
  1  2  1  0
  2  3  1  0
  3  4  2  0
  3  5  1  0
  5  6  1  0
  6  7  1  0
  7  8  1  0
  8  9  1  0
  9 10  1  0
 10 11  2  0
 11 12  1  0
 12 13  1  0
 12 14  2  0
 14 15  1  0
 15 16  1  0
 16 17  1  0
 17 18  2  0
 18 19  1  0
 19 20  2  0
 20 21  1  0
 21 22  1  0
 22 23  2  0
 22 24  1  0
 24 25  1  0
 20 26  1  0
 17 27  1  0
 26 27  2  0
 27 28  1  0
 28 29  3  0
 10 30  1  0
 15 30  2  0
  8 31  1  0
  5 32  1  0
 31 32  1  0
M  END
