MAK-UNK-849bee6c-26-acrylamide
     RDKit          3D

 32 34  0  0  0  0  0  0  0  0999 V2000
    7.1450   -2.8330   18.7400 C   0  0  0  0  0  0  0  0  0  0  0  0
    6.2050   -2.4130   19.8600 C   0  0  0  0  0  0  0  0  0  0  0  0
    5.4460   -3.5740   20.4630 C   0  0  0  0  0  0  0  0  0  0  0  0
    5.1280   -4.5690   19.8170 O   0  0  0  0  0  0  0  0  0  0  0  0
    5.0950   -3.4760   21.7900 N   0  0  0  0  0  0  0  0  0  0  0  0
    5.0010   -4.5440   22.6260 C   0  0  0  0  0  0  0  0  0  0  0  0
    5.7320   -4.3510   23.9700 C   0  0  0  0  0  0  0  0  0  0  0  0
    5.4630   -3.0240   24.5680 N   0  0  0  0  0  0  0  0  0  0  0  0
    6.4430   -2.7270   25.6130 C   0  0  0  0  0  0  0  0  0  0  0  0
    7.6740   -2.0830   24.9680 C   0  0  0  0  0  0  0  0  0  0  0  0
    7.8380   -0.7020   25.1190 C   0  0  0  0  0  0  0  0  0  0  0  0
    8.9270   -0.0650   24.5500 C   0  0  0  0  0  0  0  0  0  0  0  0
    9.0790    1.3050   24.6960 C   0  0  0  0  0  0  0  0  0  0  0  0
    9.8580   -0.8190   23.8310 C   0  0  0  0  0  0  0  0  0  0  0  0
    9.7440   -2.2000   23.6520 C   0  0  0  0  0  0  0  0  0  0  0  0
   10.7780   -2.8450   22.8930 N   0  0  0  0  0  0  0  0  0  0  0  0
   11.8620   -2.1030   22.3250 C   0  0  0  0  0  0  0  0  0  0  0  0
   11.7810   -0.8700   22.9140 N   0  0  0  0  0  0  0  0  0  0  0  0
   12.7070    0.1110   22.5660 C   0  0  0  0  0  0  0  0  0  0  0  0
   12.5880    1.3460   23.2030 C   0  0  0  0  0  0  0  0  0  0  0  0
   11.2250    1.8880   23.2250 N   0  0  0  0  0  0  0  0  0  0  0  0
   13.6170   -0.1230   21.6890 N   0  0  0  0  0  0  0  0  0  0  0  0
   13.6670   -1.3580   21.1100 C   0  0  0  0  0  0  0  0  0  0  0  0
   12.9000   -2.4650   21.3280 C   0  0  0  0  0  0  0  0  0  0  0  0
   13.2430   -3.7330   20.5690 N   0  0  0  0  0  0  0  0  0  0  0  0
   14.4560   -4.0280   19.7730 C   0  0  0  0  0  0  0  0  0  0  0  0
   15.0630   -3.2690   19.1790 O   0  0  0  0  0  0  0  0  0  0  0  0
   15.2920   -5.2330   19.5350 C   0  0  0  0  0  0  0  0  0  0  0  0
   15.4310   -5.7950   21.0210 Cl  0  0  0  0  0  0  0  0  0  0  0  0
    8.6270   -2.8300   24.2310 C   0  0  0  0  0  0  0  0  0  0  0  0
    5.5880   -1.9300   23.6020 C   0  0  0  0  0  0  0  0  0  0  0  0
    4.7130   -2.2170   22.4060 C   0  0  0  0  0  0  0  0  0  0  0  0
  1  2  1  0
  2  3  1  0
  3  4  2  0
  3  5  1  0
  5  6  1  0
  6  7  1  0
  7  8  1  0
  8  9  1  0
  9 10  1  0
 10 11  2  0
 11 12  1  0
 12 13  1  0
 12 14  2  0
 14 15  1  0
 15 16  1  0
 16 17  1  0
 17 18  2  0
 18 19  1  0
 19 20  1  0
 20 21  3  0
 19 22  2  0
 22 23  1  0
 17 24  1  0
 23 24  2  0
 24 25  1  0
 25 26  1  0
 26 27  2  0
 26 28  1  0
 28 29  1  0
 10 30  1  0
 15 30  2  0
  8 31  1  0
  5 32  1  0
 31 32  1  0
M  END
