MAK-UNK-be5ffcbc-2
     RDKit          3D

 23 25  0  0  0  0  0  0  0  0999 V2000
    8.9690    6.6540   22.5470 C   0  0  0  0  0  0  0  0  0  0  0  0
   10.1670    6.2340   23.3960 C   0  0  0  0  0  0  0  0  0  0  0  0
   10.1620    6.2850   24.6230 O   0  0  0  0  0  0  0  0  0  0  0  0
   11.2330    5.8000   22.6490 N   0  0  0  0  0  0  0  0  0  0  0  0
   12.3890    5.2220   23.3120 C   0  0  0  0  0  0  0  0  0  0  0  0
   12.7590    3.8540   22.7440 C   0  0  0  0  0  0  0  0  0  0  0  0
   11.7870    2.7620   23.1350 C   0  0  0  0  0  0  0  0  0  0  0  0
   10.5000    2.9310   23.7040 C   0  0  0  0  0  0  0  0  0  0  0  0
    9.8130    1.7610   23.9200 N   0  0  0  0  0  0  0  0  0  0  0  0
   10.6450    0.6700   23.4870 C   0  0  0  0  0  0  0  0  0  0  0  0
   10.3320   -0.6730   23.4980 C   0  0  0  0  0  0  0  0  0  0  0  0
    9.0800   -1.1400   23.9250 C   0  0  0  0  0  0  0  0  0  0  0  0
    9.1380   -2.0130   24.9910 N   0  0  0  0  0  0  0  0  0  0  0  0
    9.0820   -3.4190   24.7880 C   0  0  0  0  0  0  0  0  0  0  0  0
    8.1980   -4.0870   25.6410 C   0  0  0  0  0  0  0  0  0  0  0  0
    8.0810   -3.6240   26.8390 N   0  0  0  0  0  0  0  0  0  0  0  0
    7.7300   -2.3330   26.8280 C   0  0  0  0  0  0  0  0  0  0  0  0
    8.6510   -1.4940   26.1950 C   0  0  0  0  0  0  0  0  0  0  0  0
   11.3600   -1.5400   23.0130 C   0  0  0  0  0  0  0  0  0  0  0  0
   12.6170   -1.0710   22.5480 C   0  0  0  0  0  0  0  0  0  0  0  0
   13.5260   -1.9280   22.1050 F   0  0  0  0  0  0  0  0  0  0  0  0
   12.8640    0.3040   22.5590 C   0  0  0  0  0  0  0  0  0  0  0  0
   11.9200    1.2060   23.0010 C   0  0  0  0  0  0  0  0  0  0  0  0
  1  2  1  0
  2  3  2  0
  2  4  1  0
  4  5  1  0
  5  6  1  0
  6  7  1  0
  7  8  2  0
  8  9  1  0
  9 10  1  0
 10 11  1  0
 11 12  1  0
 12 13  1  0
 13 14  1  0
 14 15  1  0
 15 16  1  0
 16 17  1  0
 13 18  1  0
 17 18  1  0
 11 19  2  0
 19 20  1  0
 20 21  1  0
 20 22  2  0
  7 23  1  0
 10 23  2  0
 22 23  1  0
M  END
