MAK-UNK-e4a48a85-12-acrylamide
     RDKit          3D

 22 23  0  0  0  0  0  0  0  0999 V2000
    7.8850   -3.2400   19.0480 C   0  0  0  0  0  0  0  0  0  0  0  0
    6.6970   -2.3450   18.7900 C   0  0  0  0  0  0  0  0  0  0  0  0
    5.8380   -2.5890   19.9700 C   0  0  0  0  0  0  0  0  0  0  0  0
    4.8230   -3.2490   19.8800 O   0  0  0  0  0  0  0  0  0  0  0  0
    6.3080   -2.0920   21.1530 N   0  0  0  0  0  0  0  0  0  0  0  0
    7.3660   -1.0610   21.1650 C   0  0  0  0  0  0  0  0  0  0  0  0
    8.6170   -1.7890   21.7090 C   0  0  0  0  0  0  0  0  0  0  0  0
    8.3460   -2.0660   23.1460 N   0  0  0  0  0  0  0  0  0  0  0  0
    9.5250   -2.3720   23.9740 C   0  0  1  0  0  0  0  0  0  0  0  0
    9.8870   -3.5000   23.6630 O   0  0  0  0  0  0  0  0  0  0  0  0
   10.7920   -1.4010   23.9280 C   0  0  1  0  0  0  0  0  0  0  0  0
   11.6630   -1.5990   22.9160 O   0  0  0  0  0  0  0  0  0  0  0  0
   10.1570   -0.0050   23.7720 C   0  0  0  0  0  0  0  0  0  0  0  0
   11.0170    1.0580   23.9430 N   0  0  0  0  0  0  0  0  0  0  0  0
   12.1430    1.3990   23.1700 C   0  0  0  0  0  0  0  0  0  0  0  0
   12.3690    2.8500   22.6390 C   0  0  0  0  0  0  0  0  0  0  0  0
   11.0770    3.5750   22.2290 C   0  0  0  0  0  0  0  0  0  0  0  0
   11.2990    4.9290   22.3210 O   0  0  0  0  0  0  0  0  0  0  0  0
    9.8760    2.8940   22.8540 C   0  0  0  0  0  0  0  0  0  0  0  0
   10.3170    2.2440   24.1400 C   0  0  0  0  0  0  0  0  0  0  0  0
    7.2750   -3.0590   23.2350 C   0  0  0  0  0  0  0  0  0  0  0  0
    6.0130   -2.7260   22.4380 C   0  0  0  0  0  0  0  0  0  0  0  0
  1  2  1  0
  2  3  1  0
  3  4  2  0
  3  5  1  0
  5  6  1  0
  6  7  1  0
  7  8  1  0
  8  9  1  0
  9 10  1  6
  9 11  1  0
 11 12  1  6
 11 13  1  0
 13 14  1  0
 14 15  1  0
 15 16  1  0
 16 17  1  0
 17 18  1  0
 17 19  1  0
 14 20  1  0
 19 20  1  0
  8 21  1  0
  5 22  1  0
 21 22  1  0
M  END
