MAK-UNK-ec98eaf6-8-nitrile
     RDKit          3D

 31 35  0  0  0  0  0  0  0  0999 V2000
    6.8120   -3.7860   19.9600 C   0  0  0  0  0  0  0  0  0  0  0  0
    5.8520   -4.6230   19.9190 N   0  0  0  0  0  0  0  0  0  0  0  0
    6.9820   -3.0070   21.0520 N   0  0  0  0  0  0  0  0  0  0  0  0
    6.2130   -3.0640   22.3420 C   0  0  0  0  0  0  0  0  0  0  0  0
    7.4470   -3.4250   23.1610 C   0  0  1  0  0  0  0  0  0  0  0  0
    8.5130   -3.4390   22.1400 C   0  0  0  0  0  0  0  0  0  0  0  0
    8.2030   -2.1590   21.2630 C   0  0  2  0  0  0  0  0  0  0  0  0
    8.4570   -1.3830   22.5470 C   0  0  0  0  0  0  0  0  0  0  0  0
    8.2490   -2.3310   23.7140 N   0  0  0  0  0  0  0  0  0  0  0  0
    9.5610   -2.8240   24.1510 C   0  0  2  0  0  0  0  0  0  0  0  0
    9.3010   -3.4460   25.5130 C   0  0  0  0  0  0  0  0  0  0  0  0
    9.8120   -4.8870   25.4160 C   0  0  0  0  0  0  0  0  0  0  0  0
    9.6090   -5.7430   26.6880 C   0  0  0  0  0  0  0  0  0  0  0  0
    8.9490   -5.1280   27.9090 C   0  0  0  0  0  0  0  0  0  0  0  0
    8.4950   -3.7050   27.8920 C   0  0  0  0  0  0  0  0  0  0  0  0
    8.7050   -2.9090   26.6380 C   0  0  0  0  0  0  0  0  0  0  0  0
   10.4860   -1.6340   23.9010 C   0  0  0  0  0  0  0  0  0  0  0  0
   11.8810   -1.7910   23.2740 C   0  0  0  0  0  0  0  0  0  0  0  0
   12.7290   -0.5500   22.9850 C   0  0  0  0  0  0  0  0  0  0  0  0
   12.1450    0.8290   23.3370 C   0  0  0  0  0  0  0  0  0  0  0  0
   10.7330    0.8160   23.9560 C   0  0  0  0  0  0  0  0  0  0  0  0
    9.8460    1.9720   24.3870 C   0  0  0  0  0  0  0  0  0  0  0  0
   10.0770    3.4470   24.3190 C   0  0  0  0  0  0  0  0  0  0  0  0
    9.6200    4.1430   23.0840 C   0  0  0  0  0  0  0  0  0  0  0  0
   10.6930    4.9050   22.5270 N   0  0  0  0  0  0  0  0  0  0  0  0
   11.9450    4.4900   22.8720 C   0  0  0  0  0  0  0  0  0  0  0  0
   12.6240    5.3370   23.7150 C   0  0  0  0  0  0  0  0  0  0  0  0
   12.4380    3.4450   22.4620 O   0  0  0  0  0  0  0  0  0  0  0  0
    8.7060    1.3890   24.8770 C   0  0  0  0  0  0  0  0  0  0  0  0
    8.8240    0.0350   24.7590 N   0  0  0  0  0  0  0  0  0  0  0  0
   10.0350   -0.3450   24.1970 C   0  0  0  0  0  0  0  0  0  0  0  0
  1  2  2  3
  1  3  1  0
  3  4  1  0
  5  4  1  6
  5  6  1  0
  3  7  1  0
  6  7  1  0
  7  8  1  1
  5  9  1  0
  8  9  1  0
  9 10  1  0
 10 11  1  1
 11 12  2  0
 12 13  1  0
 13 14  2  0
 14 15  1  0
 11 16  1  0
 15 16  2  0
 10 17  1  0
 17 18  1  0
 18 19  2  0
 19 20  1  0
 20 21  2  0
 21 22  1  0
 22 23  1  0
 23 24  1  0
 24 25  1  0
 25 26  1  0
 26 27  1  0
 26 28  2  0
 22 29  2  0
 29 30  1  0
 17 31  2  0
 21 31  1  0
 30 31  1  0
M  END
