MAK-UNK-acefcb18-1
     RDKit          3D

 18 19  0  0  0  0  0  0  0  0999 V2000
    1.3910   -3.5040   25.4860 C   0  0  0  0  0  0  0  0  0  0  0  0
    2.6510   -2.7300   25.1970 C   0  0  0  0  0  0  0  0  0  0  0  0
    3.6470   -3.2120   24.1680 C   0  0  0  0  0  0  0  0  0  0  0  0
    4.8770   -2.3650   23.9490 C   0  0  0  0  0  0  0  0  0  0  0  0
    5.0850   -1.1020   24.7330 C   0  0  0  0  0  0  0  0  0  0  0  0
    6.1320   -0.5190   24.4500 O   0  0  0  0  0  0  0  0  0  0  0  0
    7.3540   -1.2380   24.6690 C   0  0  0  0  0  0  0  0  0  0  0  0
    8.5470   -0.5820   24.3300 C   0  0  1  0  0  0  0  0  0  0  0  0
    9.0750    0.0380   25.5320 N   0  0  0  0  0  0  0  0  0  0  0  0
    9.5190   -1.5160   23.9350 C   0  0  0  0  0  0  0  0  0  0  0  0
    9.1890   -2.6840   24.0940 O   0  0  0  0  0  0  0  0  0  0  0  0
   10.8780   -1.2000   23.3540 C   0  0  0  0  0  0  0  0  0  0  0  0
   11.6640    0.0160   23.7780 C   0  0  0  0  0  0  0  0  0  0  0  0
   12.9830    0.1030   23.0690 C   0  0  0  0  0  0  0  0  0  0  0  0
   13.1470   -1.2350   22.0180 S   0  0  0  0  0  0  0  0  0  0  0  0
   11.6060   -1.9160   22.4100 C   0  0  0  0  0  0  0  0  0  0  0  0
    4.1620   -0.6360   25.7000 C   0  0  0  0  0  0  0  0  0  0  0  0
    3.0090   -1.4310   25.9010 C   0  0  0  0  0  0  0  0  0  0  0  0
  1  2  1  0
  2  3  2  0
  3  4  1  0
  4  5  2  0
  5  6  1  0
  6  7  1  0
  7  8  1  0
  8  9  1  1
  8 10  1  0
 10 11  2  0
 10 12  1  0
 12 13  1  0
 13 14  2  0
 14 15  1  0
 12 16  2  0
 15 16  1  0
  5 17  1  0
  2 18  1  0
 17 18  2  0
M  END
