MAK-UNK-6c8f5f75-3-chloroacetamide
     RDKit          3D

 10 10  0  0  0  0  0  0  0  0999 V2000
    7.2500   -3.0200   18.8840 C   0  0  0  0  0  0  0  0  0  0  0  0
    6.3250   -3.4090   20.0320 C   0  0  0  0  0  0  0  0  0  0  0  0
    5.4610   -4.2770   19.8320 O   0  0  0  0  0  0  0  0  0  0  0  0
    6.4870   -2.7790   21.2750 N   0  0  0  0  0  0  0  0  0  0  0  0
    6.2930   -3.5090   22.5050 C   0  0  0  0  0  0  0  0  0  0  0  0
    7.4440   -3.3150   23.4290 C   0  0  0  0  0  0  0  0  0  0  0  0
    8.4820   -2.4190   22.7560 C   0  0  2  0  0  0  0  0  0  0  0  0
    9.0590   -1.3140   23.6370 C   0  0  0  0  0  0  0  0  0  0  0  0
   10.3750   -1.0010   23.3720 N   0  0  0  0  0  0  0  0  0  0  0  0
    7.6500   -1.8580   21.5490 C   0  0  0  0  0  0  0  0  0  0  0  0
  1  2  1  0
  2  3  2  0
  2  4  1  0
  4  5  1  0
  5  6  2  0
  6  7  1  0
  7  8  1  1
  8  9  3  0
  4 10  1  0
  7 10  1  0
M  END
