MAK-UNK-90d0606b-4-nitrile
     RDKit          3D

 25 28  0  0  0  0  0  0  0  0999 V2000
    6.1160   -4.7630   20.1610 C   0  0  0  0  0  0  0  0  0  0  0  0
    5.7080   -5.9370   19.9380 N   0  0  0  0  0  0  0  0  0  0  0  0
    5.6060   -4.0400   21.2200 N   0  0  0  0  0  0  0  0  0  0  0  0
    5.7580   -2.5710   21.4360 C   0  0  0  0  0  0  0  0  0  0  0  0
    5.9860   -2.4040   22.9450 C   0  0  1  0  0  0  0  0  0  0  0  0
    4.8030   -3.3550   23.1030 C   0  0  0  0  0  0  0  0  0  0  0  0
    5.3100   -4.5930   22.5650 C   0  0  2  0  0  0  0  0  0  0  0  0
    6.4040   -4.6890   23.3620 C   0  0  0  0  0  0  0  0  0  0  0  0
    6.6610   -3.4010   23.8870 N   0  0  0  0  0  0  0  0  0  0  0  0
    8.0390   -2.9600   24.2210 C   0  0  2  0  0  0  0  0  0  0  0  0
    8.3220   -1.7340   24.1850 C   0  0  0  0  0  0  0  0  0  0  0  0
    8.3630   -0.7530   24.9810 C   0  0  0  0  0  0  0  0  0  0  0  0
    8.6630    0.6030   25.0810 C   0  0  0  0  0  0  0  0  0  0  0  0
    9.9370    1.0300   24.7120 C   0  0  0  0  0  0  0  0  0  0  0  0
   11.0160    0.0350   24.2110 C   0  0  0  0  0  0  0  0  0  0  0  0
   11.2260   -0.7870   23.1290 C   0  0  0  0  0  0  0  0  0  0  0  0
   11.0170   -1.4270   21.9240 C   0  0  0  0  0  0  0  0  0  0  0  0
   12.3570   -2.0630   22.2010 C   0  0  0  0  0  0  0  0  0  0  0  0
   13.0140   -3.0580   21.2410 C   0  0  0  0  0  0  0  0  0  0  0  0
   13.4990   -3.8280   20.5260 N   0  0  0  0  0  0  0  0  0  0  0  0
   12.9370   -1.5850   23.5350 C   0  0  0  0  0  0  0  0  0  0  0  0
   12.2680   -0.4990   24.6060 C   0  0  0  0  0  0  0  0  0  0  0  0
    8.6690   -1.0200   23.4960 C   0  0  0  0  0  0  0  0  0  0  0  0
    8.9310   -0.1640   22.6570 O   0  0  0  0  0  0  0  0  0  0  0  0
    8.5920   -2.4880   23.2190 O   0  0  0  0  0  0  0  0  0  0  0  0
  1  2  2  3
  1  3  1  0
  3  4  1  0
  5  4  1  6
  5  6  1  0
  3  7  1  0
  6  7  1  0
  7  8  1  1
  5  9  1  0
  8  9  1  0
 10  9  1  6
 10 11  1  0
 11 12  2  0
 12 13  1  0
 13 14  2  3
 14 15  1  0
 15 16  2  0
 16 17  1  0
 17 18  2  0
 18 19  1  0
 19 20  3  0
 18 21  1  0
 15 22  1  0
 21 22  2  0
 12 23  1  0
 23 24  2  0
 10 25  1  0
 23 25  1  0
M  END
