MAK-UNK-212f693e-4
     RDKit          3D

 15 16  0  0  0  0  0  0  0  0999 V2000
    7.1180   -3.0040   20.6690 C   0  0  0  0  0  0  0  0  0  0  0  0
    6.1910   -4.2240   20.7340 C   0  0  0  0  0  0  0  0  0  0  0  0
    5.4320   -4.5220   19.8130 O   0  0  0  0  0  0  0  0  0  0  0  0
    6.2980   -4.9590   21.8940 N   0  0  0  0  0  0  0  0  0  0  0  0
    7.1520   -4.5210   22.9850 C   0  0  0  0  0  0  0  0  0  0  0  0
    6.2850   -4.0250   24.1390 C   0  0  0  0  0  0  0  0  0  0  0  0
    5.2500   -5.0740   24.4440 C   0  0  1  0  0  0  0  0  0  0  0  0
    4.5930   -4.8900   25.4860 O   0  0  0  0  0  0  0  0  0  0  0  0
    3.5950   -3.9550   25.5470 C   0  0  0  0  0  0  0  0  0  0  0  0
    3.7640   -2.5860   25.7690 C   0  0  0  0  0  0  0  0  0  0  0  0
    2.6150   -1.7860   25.8060 C   0  0  0  0  0  0  0  0  0  0  0  0
    1.1750   -2.6780   25.5650 S   0  0  0  0  0  0  0  0  0  0  0  0
    2.0820   -4.1190   25.4070 C   0  0  0  0  0  0  0  0  0  0  0  0
    4.4600   -5.4110   23.3210 C   0  0  0  0  0  0  0  0  0  0  0  0
    5.2370   -5.8460   22.2140 N   0  0  0  0  0  0  0  0  0  0  0  0
  1  2  1  0
  2  3  2  0
  2  4  1  0
  4  5  1  0
  5  6  1  0
  6  7  1  0
  7  8  1  1
  8  9  1  0
  9 10  1  0
 10 11  2  0
 11 12  1  0
  9 13  2  0
 12 13  1  0
  7 14  1  0
  4 15  1  0
 14 15  1  0
M  END
