MAK-UNK-176ca439-3-acrylamide
     RDKit          3D

 24 25  0  0  0  0  0  0  0  0999 V2000
    7.8900   -3.2380   19.0720 C   0  0  0  0  0  0  0  0  0  0  0  0
    6.6930   -2.4100   18.7800 C   0  0  0  0  0  0  0  0  0  0  0  0
    5.8250   -2.6140   19.9630 C   0  0  0  0  0  0  0  0  0  0  0  0
    4.8040   -3.2480   19.8540 O   0  0  0  0  0  0  0  0  0  0  0  0
    6.2940   -2.1080   21.1570 N   0  0  0  0  0  0  0  0  0  0  0  0
    7.2950   -1.0310   21.1880 C   0  0  0  0  0  0  0  0  0  0  0  0
    8.4310   -1.5170   21.8200 C   0  0  0  0  0  0  0  0  0  0  0  0
    8.3050   -2.1160   23.0500 N   0  0  0  0  0  0  0  0  0  0  0  0
    9.5150   -2.4660   23.8020 C   0  0  0  0  0  0  0  0  0  0  0  0
   10.5560   -1.3680   23.5860 C   0  0  0  0  0  0  0  0  0  0  0  0
   11.9370   -1.7060   23.0520 C   0  0  0  0  0  0  0  0  0  0  0  0
   12.8880   -0.5730   22.8690 C   0  0  0  0  0  0  0  0  0  0  0  0
   12.4780    0.8390   23.2100 C   0  0  0  0  0  0  0  0  0  0  0  0
   11.1600    1.0710   23.7050 C   0  0  0  0  0  0  0  0  0  0  0  0
   10.6580    2.3300   24.0610 C   0  0  0  0  0  0  0  0  0  0  0  0
   10.4470    3.5300   24.1150 O   0  0  0  0  0  0  0  0  0  0  0  0
   11.7650    2.8970   22.8120 S   0  0  0  0  0  0  0  0  0  0  0  0
   12.0060    4.6400   23.3190 C   0  0  0  0  0  0  0  0  0  0  0  0
   11.1650    5.5250   22.6600 C   0  0  0  0  0  0  0  0  0  0  0  0
   10.8850    6.7070   23.4900 N   0  0  0  0  0  0  0  0  0  0  0  0
   12.1000    7.1830   24.1510 C   0  0  0  0  0  0  0  0  0  0  0  0
   10.2510   -0.0120   23.8750 C   0  0  0  0  0  0  0  0  0  0  0  0
    7.3560   -3.2230   23.0110 C   0  0  0  0  0  0  0  0  0  0  0  0
    6.1380   -2.8370   22.4280 C   0  0  0  0  0  0  0  0  0  0  0  0
  1  2  1  0
  2  3  1  0
  3  4  2  0
  3  5  1  0
  5  6  1  0
  6  7  1  0
  7  8  1  0
  8  9  1  0
  9 10  1  0
 10 11  2  0
 11 12  1  0
 12 13  2  0
 13 14  1  0
 14 15  1  0
 15 16  2  0
 15 17  1  0
 17 18  1  0
 18 19  1  0
 19 20  1  0
 20 21  1  0
 10 22  1  0
 14 22  2  0
  8 23  1  0
  5 24  1  0
 23 24  1  0
M  END
