MAK-UNK-0955449e-35
     RDKit          3D

 39 42  0  0  0  0  0  0  0  0999 V2000
    7.0350   -6.7290   22.5760 C   0  0  0  0  0  0  0  0  0  0  0  0
    7.0420   -5.4720   23.2050 N   0  0  0  0  0  0  0  0  0  0  0  0
    8.2060   -4.6870   23.3710 C   0  0  0  0  0  0  0  0  0  0  0  0
    8.4840   -3.5410   22.4830 C   0  0  0  0  0  0  0  0  0  0  0  0
    9.5240   -2.9690   22.9890 C   0  0  0  0  0  0  0  0  0  0  0  0
    8.9750   -4.1720   23.6360 C   0  0  0  0  0  0  0  0  0  0  0  0
   10.2280   -3.4770   24.2650 C   0  0  0  0  0  0  0  0  0  0  0  0
   10.2960   -2.0880   23.6940 C   0  0  0  0  0  0  0  0  0  0  0  0
   11.3050   -1.1040   23.9860 C   0  0  0  0  0  0  0  0  0  0  0  0
   12.3700   -1.4690   24.9210 C   0  0  0  0  0  0  0  0  0  0  0  0
   13.1460   -0.2260   24.9430 C   0  0  0  0  0  0  0  0  0  0  0  0
   11.9660    0.6150   24.3980 C   0  0  0  0  0  0  0  0  0  0  0  0
   12.2380    1.9410   23.8650 N   0  0  0  0  0  0  0  0  0  0  0  0
   11.1160    2.7370   23.2490 C   0  0  0  0  0  0  0  0  0  0  0  0
   10.4130    2.2600   22.3440 O   0  0  0  0  0  0  0  0  0  0  0  0
   10.8720    4.1340   23.7820 C   0  0  0  0  0  0  0  0  0  0  0  0
   11.5590    4.9380   22.9120 N   0  0  0  0  0  0  0  0  0  0  0  0
   12.7180    5.8520   23.1980 C   0  0  0  0  0  0  0  0  0  0  0  0
   12.5660    6.8020   23.9790 O   0  0  0  0  0  0  0  0  0  0  0  0
   13.9430    5.4420   22.4210 C   0  0  0  0  0  0  0  0  0  0  0  0
   13.9480    5.6390   20.9600 C   0  0  0  0  0  0  0  0  0  0  0  0
   14.9790    5.2550   20.2360 N   0  0  0  0  0  0  0  0  0  0  0  0
   15.8870    4.7200   21.0770 C   0  0  0  0  0  0  0  0  0  0  0  0
   17.1410    4.1810   20.4250 C   0  0  0  0  0  0  0  0  0  0  0  0
   15.4840    4.7150   22.7740 S   0  0  0  0  0  0  0  0  0  0  0  0
   12.4640   -2.7420   25.5570 C   0  0  0  0  0  0  0  0  0  0  0  0
   11.3770   -3.8640   25.2820 C   0  0  0  0  0  0  0  0  0  0  0  0
   11.4460   -5.0620   25.8790 F   0  0  0  0  0  0  0  0  0  0  0  0
    8.3080   -3.6940   22.4570 N   0  0  0  0  0  0  0  0  0  0  0  0
    6.8780   -4.4390   21.7760 S   0  0  0  0  0  0  0  0  0  0  0  0
    5.7200   -4.2960   22.6550 O   0  0  0  0  0  0  0  0  0  0  0  0
    7.1080   -5.5780   20.9140 O   0  0  0  0  0  0  0  0  0  0  0  0
    6.6510   -3.1870   20.5240 C   0  0  0  0  0  0  0  0  0  0  0  0
    7.8180   -2.6380   19.7120 C   0  0  0  0  0  0  0  0  0  0  0  0
    7.5070   -1.5920   18.6780 C   0  0  0  0  0  0  0  0  0  0  0  0
    6.0770   -1.1800   18.5480 C   0  0  0  0  0  0  0  0  0  0  0  0
    5.0710   -1.7030   19.3110 N   0  0  0  0  0  0  0  0  0  0  0  0
    5.3680   -2.6700   20.2500 C   0  0  0  0  0  0  0  0  0  0  0  0
    7.6920   -3.2530   21.3680 C   0  0  0  0  0  0  0  0  0  0  0  0
  1  2  1  0
  2  3  1  0
  3  4  1  0
  4  5  1  0
  5  6  2  0
  6  7  1  0
  7  8  2  0
  8  9  1  0
  9 10  2  0
 10 11  1  0
 11 12  1  0
 12 13  1  0
 13 14  1  0
 14 15  2  0
 14 16  1  0
 16 17  1  0
 17 18  1  0
 18 19  2  0
 18 20  1  0
 20 21  2  0
 21 22  1  0
 22 23  2  0
 23 24  1  0
 20 25  1  0
 23 25  1  0
 10 26  1  0
  7 27  1  0
 26 27  2  0
 27 28  1  0
  6 29  1  0
 29 30  1  0
 30 31  2  0
 30 32  2  0
 30 33  1  0
 33 34  2  0
 34 35  1  0
 35 36  2  0
 36 37  1  0
 33 38  1  0
 37 38  2  0
  4 39  2  0
 29 39  1  0
M  END
