MAK-UNK-ec98eaf6-47-vinylsulfonamide
     RDKit          3D

 28 31  0  0  0  0  0  0  0  0999 V2000
    6.9830   -2.9380   18.8580 C   0  0  0  0  0  0  0  0  0  0  0  0
    6.4060   -2.3700   20.1420 C   0  0  0  0  0  0  0  0  0  0  0  0
    5.7330   -3.6670   21.1500 S   0  0  0  0  0  0  0  0  0  0  0  0
    4.5710   -3.1720   21.8270 O   0  0  0  0  0  0  0  0  0  0  0  0
    5.6170   -4.8850   20.3550 O   0  0  0  0  0  0  0  0  0  0  0  0
    6.9310   -3.7030   22.3370 N   0  0  0  0  0  0  0  0  0  0  0  0
    6.6260   -4.2220   23.6690 C   0  0  0  0  0  0  0  0  0  0  0  0
    7.9190   -3.8940   24.4700 C   0  0  2  0  0  0  0  0  0  0  0  0
    7.0510   -2.6260   24.2730 C   0  0  0  0  0  0  0  0  0  0  0  0
    7.2930   -2.3770   22.7690 C   0  0  1  0  0  0  0  0  0  0  0  0
    8.7780   -2.2530   22.9340 C   0  0  0  0  0  0  0  0  0  0  0  0
    8.9210   -2.7770   24.3090 N   0  0  0  0  0  0  0  0  0  0  0  0
   10.2900   -2.9100   24.8380 C   0  0  0  0  0  0  0  0  0  0  0  0
   11.2860   -1.9760   24.1280 C   0  0  0  0  0  0  0  0  0  0  0  0
   11.6400   -0.8070   24.9030 C   0  0  0  0  0  0  0  0  0  0  0  0
   12.5160    0.0810   24.3910 C   0  0  0  0  0  0  0  0  0  0  0  0
   13.1360    0.0130   23.1810 C   0  0  0  0  0  0  0  0  0  0  0  0
   12.8250   -1.0160   22.3840 C   0  0  0  0  0  0  0  0  0  0  0  0
   13.2530   -1.2890   21.0630 C   0  0  0  0  0  0  0  0  0  0  0  0
   14.1120   -0.5430   20.0950 C   0  0  0  0  0  0  0  0  0  0  0  0
   14.6130    0.9110   20.1940 C   0  0  0  0  0  0  0  0  0  0  0  0
   15.6810    1.2600   19.3690 N   0  0  0  0  0  0  0  0  0  0  0  0
   15.1060    2.0370   18.4650 C   0  0  0  0  0  0  0  0  0  0  0  0
   15.1710    3.3980   18.6770 C   0  0  0  0  0  0  0  0  0  0  0  0
   14.4920    1.5290   17.5790 O   0  0  0  0  0  0  0  0  0  0  0  0
   12.6110   -2.4930   20.8330 C   0  0  0  0  0  0  0  0  0  0  0  0
   11.8600   -2.8490   21.8910 N   0  0  0  0  0  0  0  0  0  0  0  0
   11.9370   -1.9820   22.8660 C   0  0  0  0  0  0  0  0  0  0  0  0
  1  2  1  0
  3  2  1  0
  3  4  2  0
  3  5  2  0
  3  6  1  0
  6  7  1  0
  8  7  1  6
  8  9  1  0
  6 10  1  0
  9 10  1  0
 10 11  1  1
  8 12  1  0
 11 12  1  0
 12 13  1  0
 13 14  1  0
 14 15  1  0
 15 16  2  0
 16 17  1  0
 17 18  2  0
 18 19  1  0
 19 20  1  0
 20 21  1  0
 21 22  1  0
 22 23  1  0
 23 24  1  0
 23 25  2  0
 19 26  2  0
 26 27  1  0
 14 28  2  0
 18 28  1  0
 27 28  1  0
M  END
