MAK-UNK-ec98eaf6-31-acrylamide
     RDKit          3D

 21 22  0  0  0  0  0  0  0  0999 V2000
    7.6110   -2.9170   18.3730 C   0  0  0  0  0  0  0  0  0  0  0  0
    6.5640   -2.2480   19.2030 C   0  0  0  0  0  0  0  0  0  0  0  0
    5.9170   -3.1390   20.2030 C   0  0  0  0  0  0  0  0  0  0  0  0
    5.1910   -4.1220   19.9420 O   0  0  0  0  0  0  0  0  0  0  0  0
    6.2410   -2.7390   21.4520 N   0  0  0  0  0  0  0  0  0  0  0  0
    6.5970   -3.6920   22.4860 C   0  0  0  0  0  0  0  0  0  0  0  0
    7.0320   -2.7410   23.6400 C   0  0  2  0  0  0  0  0  0  0  0  0
    6.6030   -3.2910   24.9840 C   0  0  0  0  0  0  0  0  0  0  0  0
    6.2830   -4.7660   24.9170 C   0  0  0  0  0  0  0  0  0  0  0  0
    5.2180   -5.1690   25.6680 N   0  0  0  0  0  0  0  0  0  0  0  0
    6.9220   -5.5600   24.2380 O   0  0  0  0  0  0  0  0  0  0  0  0
    6.2750   -1.4390   23.2810 C   0  0  0  0  0  0  0  0  0  0  0  0
    6.8070   -1.4310   21.8550 C   0  0  1  0  0  0  0  0  0  0  0  0
    8.3580   -1.5090   22.0980 C   0  0  1  0  0  0  0  0  0  0  0  0
    8.9160   -0.0730   22.1170 C   0  0  0  0  0  0  0  0  0  0  0  0
    9.9450    0.3370   23.1440 C   0  0  0  0  0  0  0  0  0  0  0  0
    8.5160    0.7610   21.3010 O   0  0  0  0  0  0  0  0  0  0  0  0
    8.4360   -2.2820   23.3680 N   0  0  0  0  0  0  0  0  0  0  0  0
    9.5490   -2.9930   23.7820 C   0  0  0  0  0  0  0  0  0  0  0  0
   10.8850   -2.2980   23.7730 C   0  0  0  0  0  0  0  0  0  0  0  0
    9.4830   -4.1670   24.1360 O   0  0  0  0  0  0  0  0  0  0  0  0
  1  2  1  0
  2  3  1  0
  3  4  2  0
  3  5  1  0
  5  6  1  0
  6  7  1  0
  7  8  1  1
  8  9  1  0
  9 10  1  0
  9 11  2  0
  7 12  1  0
 13  5  1  6
 12 13  1  0
 13 14  1  0
 14 15  1  1
 15 16  1  0
 15 17  2  0
  7 18  1  0
 14 18  1  0
 18 19  1  0
 19 20  1  0
 19 21  2  0
M  END
