MAK-UNK-ec98eaf6-28-chloroacetamide
     RDKit          3D

 27 30  0  0  0  0  0  0  0  0999 V2000
    7.0630   -3.0470   18.9370 C   0  0  0  0  0  0  0  0  0  0  0  0
    5.9590   -3.4040   19.9450 C   0  0  0  0  0  0  0  0  0  0  0  0
    5.3520   -4.4740   19.8660 O   0  0  0  0  0  0  0  0  0  0  0  0
    5.6740   -2.4860   20.9460 N   0  0  0  0  0  0  0  0  0  0  0  0
    6.3840   -1.1810   20.9200 C   0  0  0  0  0  0  0  0  0  0  0  0
    7.5470   -1.8950   21.6080 C   0  0  2  0  0  0  0  0  0  0  0  0
    6.9460   -3.2370   21.9890 C   0  0  0  0  0  0  0  0  0  0  0  0
    5.5860   -2.7650   22.4340 C   0  0  1  0  0  0  0  0  0  0  0  0
    6.4440   -2.0560   23.5030 C   0  0  0  0  0  0  0  0  0  0  0  0
    7.6150   -1.4690   23.0070 N   0  0  0  0  0  0  0  0  0  0  0  0
    8.8130   -2.1080   23.5740 C   0  0  0  0  0  0  0  0  0  0  0  0
   10.0990   -1.3170   23.2960 C   0  0  0  0  0  0  0  0  0  0  0  0
    9.9390    0.0570   23.9670 C   0  0  0  0  0  0  0  0  0  0  0  0
   11.0960    1.0210   23.8490 C   0  0  0  0  0  0  0  0  0  0  0  0
   11.0050    2.2260   24.3890 F   0  0  0  0  0  0  0  0  0  0  0  0
   12.3410    0.6000   23.1190 C   0  0  0  0  0  0  0  0  0  0  0  0
   12.4290   -0.7470   22.4630 C   0  0  0  0  0  0  0  0  0  0  0  0
   11.2600   -1.6640   22.5880 C   0  0  0  0  0  0  0  0  0  0  0  0
   11.5530   -2.8300   21.9080 N   0  0  0  0  0  0  0  0  0  0  0  0
   12.7430   -2.7070   21.3930 C   0  0  0  0  0  0  0  0  0  0  0  0
   13.5070   -1.4270   21.6510 C   0  0  1  0  0  0  0  0  0  0  0  0
   13.8840   -0.6420   20.3380 C   0  0  0  0  0  0  0  0  0  0  0  0
   15.0260   -0.6110   19.1730 C   0  0  0  0  0  0  0  0  0  0  0  0
   14.7080    0.2410   18.0620 N   0  0  0  0  0  0  0  0  0  0  0  0
   15.4940    1.3050   17.7890 C   0  0  0  0  0  0  0  0  0  0  0  0
   16.5640    0.9290   16.8370 C   0  0  0  0  0  0  0  0  0  0  0  0
   15.3520    2.4270   18.2610 O   0  0  0  0  0  0  0  0  0  0  0  0
  1  2  1  0
  2  3  2  0
  2  4  1  0
  4  5  1  0
  6  5  1  6
  6  7  1  0
  4  8  1  0
  7  8  1  0
  8  9  1  1
  6 10  1  0
  9 10  1  0
 10 11  1  0
 11 12  1  0
 12 13  1  0
 13 14  2  0
 14 15  1  0
 14 16  1  0
 16 17  2  0
 12 18  2  0
 17 18  1  0
 18 19  1  0
 19 20  2  0
 17 21  1  0
 20 21  1  0
 21 22  1  6
 22 23  1  0
 23 24  1  0
 24 25  1  0
 25 26  1  0
 25 27  2  0
M  END
