MAK-UNK-f2409524-1
     RDKit          3D

 22 23  0  0  0  0  0  0  0  0999 V2000
    9.9410   -0.6520   22.4100 C   0  0  0  0  0  0  0  0  0  0  0  0
    8.9360    0.0920   21.5690 C   0  0  0  0  0  0  0  0  0  0  0  0
    9.0780    1.2940   21.2760 O   0  0  0  0  0  0  0  0  0  0  0  0
    7.8560   -0.6740   21.1730 N   0  0  0  0  0  0  0  0  0  0  0  0
    6.8530   -0.1310   20.2790 C   0  0  0  0  0  0  0  0  0  0  0  0
    7.1390   -0.2770   18.7940 C   0  0  0  0  0  0  0  0  0  0  0  0
    6.1630    0.2790   17.8860 N   0  0  0  0  0  0  0  0  0  0  0  0
    5.0250    0.9030   18.3470 C   0  0  0  0  0  0  0  0  0  0  0  0
    4.8360    0.9810   19.7040 C   0  0  0  0  0  0  0  0  0  0  0  0
    5.6790    0.5010   20.7030 C   0  0  0  0  0  0  0  0  0  0  0  0
    5.3240    0.6640   22.0530 C   0  0  0  0  0  0  0  0  0  0  0  0
    4.3480   -0.3000   22.6820 C   0  0  0  0  0  0  0  0  0  0  0  0
    3.6880    0.2100   23.9600 C   0  0  0  0  0  0  0  0  0  0  0  0
    2.6570    1.2110   23.6110 N   0  0  0  0  0  0  0  0  0  0  0  0
    2.8670    2.5610   23.4130 C   0  0  0  0  0  0  0  0  0  0  0  0
    1.7360    3.2970   23.1030 N   0  0  0  0  0  0  0  0  0  0  0  0
    0.6140    3.5140   23.9370 C   0  0  0  0  0  0  0  0  0  0  0  0
    0.3510    4.8040   24.3910 C   0  0  0  0  0  0  0  0  0  0  0  0
   -0.8370    4.8810   25.1180 C   0  0  0  0  0  0  0  0  0  0  0  0
   -1.9190    4.5890   24.2690 C   0  0  0  0  0  0  0  0  0  0  0  0
   -1.7970    3.3100   23.7470 C   0  0  0  0  0  0  0  0  0  0  0  0
   -0.5950    3.0590   23.1030 C   0  0  0  0  0  0  0  0  0  0  0  0
  1  2  1  0
  2  3  2  0
  2  4  1  0
  4  5  1  0
  5  6  2  0
  6  7  1  0
  7  8  2  0
  8  9  1  0
  5 10  1  0
  9 10  2  0
 10 11  1  0
 11 12  1  0
 12 13  1  0
 13 14  1  0
 14 15  2  3
 15 16  1  0
 16 17  1  0
 17 18  1  0
 18 19  1  0
 19 20  1  0
 20 21  1  0
 17 22  1  0
 21 22  1  0
M  END
