MAK-UNK-194150d3-2
     RDKit          3D

 17 18  0  0  0  0  0  0  0  0999 V2000
   13.2590   -1.6060   23.8780 C   0  0  0  0  0  0  0  0  0  0  0  0
   12.6410   -1.8660   22.5620 C   0  0  0  0  0  0  0  0  0  0  0  0
   11.2850   -1.3530   22.2330 C   0  0  0  0  0  0  0  0  0  0  0  0
   10.6120   -0.5770   23.3000 C   0  0  0  0  0  0  0  0  0  0  0  0
    9.3370   -0.0500   23.1170 C   0  0  0  0  0  0  0  0  0  0  0  0
    9.0120    0.2190   21.8040 C   0  0  0  0  0  0  0  0  0  0  0  0
    7.9790   -0.7100   21.3610 N   0  0  0  0  0  0  0  0  0  0  0  0
    7.1110   -0.0920   20.3820 C   0  0  0  0  0  0  0  0  0  0  0  0
    5.3870   -0.3500   20.8460 S   0  0  0  0  0  0  0  0  0  0  0  0
    4.8480    0.8760   19.7400 C   0  0  0  0  0  0  0  0  0  0  0  0
    5.2510    1.1490   18.4640 C   0  0  0  0  0  0  0  0  0  0  0  0
    6.0000    0.7970   17.6000 N   0  0  0  0  0  0  0  0  0  0  0  0
    5.1920    1.8770   17.3340 C   0  0  0  0  0  0  0  0  0  0  0  0
    4.2090    2.3860   18.3950 C   0  0  0  0  0  0  0  0  0  0  0  0
    3.9980    1.8460   19.7320 N   0  0  0  0  0  0  0  0  0  0  0  0
   11.2700   -0.3670   24.5320 C   0  0  0  0  0  0  0  0  0  0  0  0
   12.5650   -0.8640   24.8220 C   0  0  0  0  0  0  0  0  0  0  0  0
  1  2  2  0
  2  3  1  0
  3  4  2  0
  4  5  1  0
  5  6  1  0
  6  7  1  0
  7  8  1  0
  8  9  1  0
  9 10  1  0
 10 11  2  0
 11 12  1  0
 12 13  2  0
 13 14  1  0
 10 15  1  0
 14 15  2  0
  4 16  1  0
  1 17  1  0
 16 17  2  0
M  END
