MAK-UNK-987948f6-1-acrylamide
     RDKit          3D

 27 29  0  0  0  0  0  0  0  0999 V2000
    7.2450   -3.1280   19.3760 C   0  0  0  0  0  0  0  0  0  0  0  0
    5.7910   -3.4840   19.8070 C   0  0  0  0  0  0  0  0  0  0  0  0
    5.4520   -4.4170   20.9970 C   0  0  0  0  0  0  0  0  0  0  0  0
    4.8860   -3.8930   21.9410 O   0  0  0  0  0  0  0  0  0  0  0  0
    5.6520   -5.8230   21.0360 N   0  0  0  0  0  0  0  0  0  0  0  0
    5.6710   -6.4860   19.6770 C   0  0  0  0  0  0  0  0  0  0  0  0
    4.7680   -7.6410   19.1090 C   0  0  0  0  0  0  0  0  0  0  0  0
    3.3260   -8.5790   19.5580 C   0  0  0  0  0  0  0  0  0  0  0  0
    2.8160   -9.4160   18.6370 C   0  0  0  0  0  0  0  0  0  0  0  0
    1.7910   -9.8440   19.3130 C   0  0  0  0  0  0  0  0  0  0  0  0
    3.6930   -9.3850   17.4370 O   0  0  0  0  0  0  0  0  0  0  0  0
    4.9570   -8.3610   17.5310 N   0  0  0  0  0  0  0  0  0  0  0  0
    6.4990   -6.3460   22.1550 C   0  0  0  0  0  0  0  0  0  0  0  0
    6.5300   -5.5500   23.5240 C   0  0  2  0  0  0  0  0  0  0  0  0
    5.2640   -5.6980   24.3520 C   0  0  2  0  0  0  0  0  0  0  0  0
    4.6450   -6.7550   24.2520 O   0  0  0  0  0  0  0  0  0  0  0  0
    4.2090   -4.5530   24.1420 C   0  0  0  0  0  0  0  0  0  0  0  0
    4.8770   -3.2370   24.2050 C   0  0  0  0  0  0  0  0  0  0  0  0
    6.2580   -3.5200   23.9210 C   0  0  0  0  0  0  0  0  0  0  0  0
    7.0830   -4.2550   23.6490 N   0  0  0  0  0  0  0  0  0  0  0  0
    7.9770   -3.8360   22.5750 C   0  0  0  0  0  0  0  0  0  0  0  0
    9.2860   -3.1260   22.9570 C   0  0  0  0  0  0  0  0  0  0  0  0
   10.1290   -3.6510   23.9280 C   0  0  0  0  0  0  0  0  0  0  0  0
   11.3230   -3.0120   24.2710 C   0  0  0  0  0  0  0  0  0  0  0  0
   11.6910   -1.8280   23.6360 C   0  0  0  0  0  0  0  0  0  0  0  0
   10.8580   -1.2880   22.6600 C   0  0  0  0  0  0  0  0  0  0  0  0
    9.6630   -1.9320   22.3210 C   0  0  0  0  0  0  0  0  0  0  0  0
  1  2  1  0
  2  3  1  0
  3  4  2  0
  3  5  1  0
  5  6  1  0
  6  7  1  0
  7  8  1  0
  8  9  2  0
  9 10  1  0
  9 11  1  0
  7 12  2  0
 11 12  1  0
  5 13  1  0
 14 13  1  6
 14 15  1  0
 15 16  1  6
 15 17  1  0
 17 18  1  0
 18 19  1  0
 14 20  1  0
 19 20  1  0
 20 21  1  0
 21 22  1  0
 22 23  2  0
 23 24  1  0
 24 25  2  0
 25 26  1  0
 22 27  1  0
 26 27  2  0
M  END
