MAK-UNK-849bee6c-5-acrylamide
     RDKit          3D

 25 27  0  0  0  0  0  0  0  0999 V2000
    8.0160   -3.3660   19.6740 C   0  0  0  0  0  0  0  0  0  0  0  0
    6.8970   -2.6450   19.0040 C   0  0  0  0  0  0  0  0  0  0  0  0
    5.8760   -2.9880   20.0010 C   0  0  0  0  0  0  0  0  0  0  0  0
    5.0510   -3.8760   19.7580 O   0  0  0  0  0  0  0  0  0  0  0  0
    6.0320   -2.2900   21.1950 N   0  0  0  0  0  0  0  0  0  0  0  0
    5.9120   -3.0330   22.4500 C   0  0  0  0  0  0  0  0  0  0  0  0
    7.2690   -3.3390   23.0990 C   0  0  0  0  0  0  0  0  0  0  0  0
    8.0940   -2.1220   23.2330 N   0  0  0  0  0  0  0  0  0  0  0  0
    9.2320   -2.1760   24.0450 C   0  0  0  0  0  0  0  0  0  0  0  0
   10.3120   -1.1580   23.7630 C   0  0  0  0  0  0  0  0  0  0  0  0
   11.6130   -1.8670   23.4060 C   0  0  0  0  0  0  0  0  0  0  0  0
   12.8130   -0.9890   23.0940 C   0  0  0  0  0  0  0  0  0  0  0  0
   12.5760    0.5080   23.1700 C   0  0  0  0  0  0  0  0  0  0  0  0
   11.2750    1.1990   23.5240 C   0  0  0  0  0  0  0  0  0  0  0  0
   11.2250    2.7250   23.5330 C   0  0  0  0  0  0  0  0  0  0  0  0
   12.2880    3.4160   22.9060 C   0  0  0  0  0  0  0  0  0  0  0  0
   12.4480    4.9180   22.7900 C   0  0  0  0  0  0  0  0  0  0  0  0
   11.3170    5.6720   23.4320 C   0  0  0  0  0  0  0  0  0  0  0  0
   10.2720    4.9050   24.0480 N   0  0  0  0  0  0  0  0  0  0  0  0
   10.2060    3.5010   24.1070 C   0  0  0  0  0  0  0  0  0  0  0  0
    9.0670    2.7670   24.7720 C   0  0  0  0  0  0  0  0  0  0  0  0
    8.2800    3.1550   25.8390 N   0  0  0  0  0  0  0  0  0  0  0  0
   10.1840    0.3810   23.8120 C   0  0  0  0  0  0  0  0  0  0  0  0
    8.3340   -1.5410   21.9020 C   0  0  0  0  0  0  0  0  0  0  0  0
    7.0440   -1.1610   21.2030 C   0  0  0  0  0  0  0  0  0  0  0  0
  1  2  1  0
  2  3  1  0
  3  4  2  0
  3  5  1  0
  5  6  1  0
  6  7  1  0
  7  8  1  0
  8  9  1  0
  9 10  1  0
 10 11  2  0
 11 12  1  0
 12 13  2  0
 13 14  1  0
 14 15  1  0
 15 16  2  0
 16 17  1  0
 17 18  2  0
 18 19  1  0
 15 20  1  0
 19 20  2  0
 20 21  1  0
 21 22  3  0
 10 23  1  0
 14 23  2  0
  8 24  1  0
  5 25  1  0
 24 25  1  0
M  END
