MAK-UNK-ec98eaf6-28-nitrile
     RDKit          3D

 26 29  0  0  0  0  0  0  0  0999 V2000
    6.5990   -4.1070   20.0930 C   0  0  0  0  0  0  0  0  0  0  0  0
    5.7900   -5.1050   20.0190 N   0  0  0  0  0  0  0  0  0  0  0  0
    6.6180   -3.2640   21.1510 N   0  0  0  0  0  0  0  0  0  0  0  0
    6.6180   -1.7570   21.0680 C   0  0  0  0  0  0  0  0  0  0  0  0
    7.8520   -1.4640   21.9680 C   0  0  2  0  0  0  0  0  0  0  0  0
    8.6360   -2.7480   22.1380 C   0  0  0  0  0  0  0  0  0  0  0  0
    7.3880   -3.5960   22.3980 C   0  0  1  0  0  0  0  0  0  0  0  0
    6.6760   -2.8150   23.4770 C   0  0  0  0  0  0  0  0  0  0  0  0
    7.5290   -1.5720   23.4190 N   0  0  0  0  0  0  0  0  0  0  0  0
    8.7520   -1.8990   24.1440 C   0  0  0  0  0  0  0  0  0  0  0  0
    9.9530   -1.0450   23.7270 C   0  0  0  0  0  0  0  0  0  0  0  0
    9.5830    0.2900   24.3440 C   0  0  0  0  0  0  0  0  0  0  0  0
   10.6080    1.4090   24.1510 C   0  0  0  0  0  0  0  0  0  0  0  0
   10.3980    2.6270   24.6260 F   0  0  0  0  0  0  0  0  0  0  0  0
   11.8730    1.0610   23.3940 C   0  0  0  0  0  0  0  0  0  0  0  0
   12.1730   -0.2680   22.7640 C   0  0  0  0  0  0  0  0  0  0  0  0
   11.1350   -1.3180   22.9820 C   0  0  0  0  0  0  0  0  0  0  0  0
   11.5490   -2.4970   22.3710 N   0  0  0  0  0  0  0  0  0  0  0  0
   12.7190   -2.2660   21.8110 C   0  0  0  0  0  0  0  0  0  0  0  0
   13.3420   -0.8680   21.9300 C   0  0  1  0  0  0  0  0  0  0  0  0
   13.8990   -0.4820   20.4270 C   0  0  0  0  0  0  0  0  0  0  0  0
   14.8250    0.9180   20.0480 C   0  0  0  0  0  0  0  0  0  0  0  0
   14.9020    1.6840   18.9450 N   0  0  0  0  0  0  0  0  0  0  0  0
   14.7080    0.6650   18.2620 C   0  0  0  0  0  0  0  0  0  0  0  0
   14.3570    0.9870   17.0310 C   0  0  0  0  0  0  0  0  0  0  0  0
   14.6700   -0.4100   18.7430 O   0  0  0  0  0  0  0  0  0  0  0  0
  1  2  2  3
  1  3  1  0
  3  4  1  0
  5  4  1  6
  5  6  1  0
  3  7  1  0
  6  7  1  0
  7  8  1  1
  5  9  1  0
  8  9  1  0
  9 10  1  0
 10 11  1  0
 11 12  1  0
 12 13  2  0
 13 14  1  0
 13 15  1  0
 15 16  2  0
 11 17  2  0
 16 17  1  0
 17 18  1  0
 18 19  2  0
 16 20  1  0
 19 20  1  0
 20 21  1  6
 21 22  1  0
 22 23  1  0
 23 24  1  0
 24 25  1  0
 24 26  2  0
M  END
