MAK-UNK-148caf23-20-acrylamide
     RDKit          3D

 36 39  0  0  0  0  0  0  0  0999 V2000
    8.7640   -3.1490   19.9240 C   0  0  0  0  0  0  0  0  0  0  0  0
    8.1960   -3.8700   21.0510 C   0  0  0  0  0  0  0  0  0  0  0  0
    6.7160   -3.7190   21.1740 C   0  0  0  0  0  0  0  0  0  0  0  0
    5.2260   -3.5680   21.2970 O   0  0  0  0  0  0  0  0  0  0  0  0
    7.5610   -2.7720   22.3270 C   0  0  0  0  0  0  0  0  0  0  0  0
    8.8430   -2.2720   21.7000 C   0  0  0  0  0  0  0  0  0  0  0  0
    8.4630   -1.8880   23.3280 C   0  0  0  0  0  0  0  0  0  0  0  0
    9.5990   -0.9970   23.9500 C   0  0  0  0  0  0  0  0  0  0  0  0
    9.8390   -0.4200   25.2220 N   0  0  0  0  0  0  0  0  0  0  0  0
    9.1510   -1.0060   26.3510 C   0  0  0  0  0  0  0  0  0  0  0  0
    8.2000    0.0600   26.9090 C   0  0  0  0  0  0  0  0  0  0  0  0
    8.6380    1.3610   27.0270 C   0  0  0  0  0  0  0  0  0  0  0  0
    7.7900    2.3520   27.4780 C   0  0  0  0  0  0  0  0  0  0  0  0
    6.4810    1.9920   27.8520 C   0  0  0  0  0  0  0  0  0  0  0  0
    5.9840    0.6720   27.7780 C   0  0  0  0  0  0  0  0  0  0  0  0
    4.6630    0.3460   28.1660 C   0  0  0  0  0  0  0  0  0  0  0  0
    3.8620   -0.6530   27.6470 C   0  0  0  0  0  0  0  0  0  0  0  0
    2.5980   -0.7300   28.2390 C   0  0  0  0  0  0  0  0  0  0  0  0
    1.6110   -1.6530   27.8920 C   0  0  0  0  0  0  0  0  0  0  0  0
    1.6810   -2.7540   28.8630 N   0  0  0  0  0  0  0  0  0  0  0  0
    1.0000   -3.9230   28.3800 C   0  0  0  0  0  0  0  0  0  0  0  0
    2.5980    0.3140   29.2200 C   0  0  0  0  0  0  0  0  0  0  0  0
    3.9050    1.0040   29.1850 N   0  0  0  0  0  0  0  0  0  0  0  0
    4.2660    2.2960   30.2070 S   0  0  0  0  0  0  0  0  0  0  0  0
    4.9760    3.3040   29.4600 O   0  0  0  0  0  0  0  0  0  0  0  0
    3.0500    2.6190   30.9080 O   0  0  0  0  0  0  0  0  0  0  0  0
    5.3480    1.6390   31.4490 C   0  0  0  0  0  0  0  0  0  0  0  0
    5.9740    2.4550   32.5080 C   0  0  0  0  0  0  0  0  0  0  0  0
    6.8440    1.7380   33.4860 C   0  0  0  0  0  0  0  0  0  0  0  0
    7.0400    0.3770   33.3700 C   0  0  0  0  0  0  0  0  0  0  0  0
    6.4570   -0.3620   32.3770 N   0  0  0  0  0  0  0  0  0  0  0  0
    5.6270    0.2860   31.4580 C   0  0  0  0  0  0  0  0  0  0  0  0
    6.8810   -0.2990   27.2830 C   0  0  0  0  0  0  0  0  0  0  0  0
    6.5100   -1.5590   27.1860 F   0  0  0  0  0  0  0  0  0  0  0  0
   10.1160   -1.0460   22.9010 N   0  0  0  0  0  0  0  0  0  0  0  0
    8.8790   -1.8180   22.7880 C   0  0  0  0  0  0  0  0  0  0  0  0
  1  2  1  0
  2  3  1  0
  3  4  2  0
  3  5  1  0
  5  6  2  0
  6  7  1  0
  7  8  2  0
  8  9  1  0
  9 10  1  0
 10 11  1  0
 11 12  2  0
 12 13  1  0
 13 14  2  0
 14 15  1  0
 15 16  1  0
 16 17  2  0
 17 18  1  0
 18 19  1  0
 19 20  1  0
 20 21  1  0
 18 22  2  0
 16 23  1  0
 22 23  1  0
 23 24  1  0
 24 25  2  0
 24 26  2  0
 24 27  1  0
 27 28  2  0
 28 29  1  0
 29 30  2  0
 30 31  1  0
 27 32  1  0
 31 32  2  0
 11 33  1  0
 15 33  2  0
 33 34  1  0
  8 35  1  0
  5 36  1  0
 35 36  2  0
M  END
