MAK-UNK-10dfa458-1-chloroacetamide
     RDKit          3D

 15 16  0  0  0  0  0  0  0  0999 V2000
    7.6070   -3.6440   20.4550 C   0  0  0  0  0  0  0  0  0  0  0  0
    6.4250   -4.5500   20.7420 C   0  0  0  0  0  0  0  0  0  0  0  0
    5.4710   -4.7010   19.9670 O   0  0  0  0  0  0  0  0  0  0  0  0
    6.4750   -5.1900   21.9550 N   0  0  0  0  0  0  0  0  0  0  0  0
    7.3370   -4.8250   23.0860 C   0  0  0  0  0  0  0  0  0  0  0  0
    6.3180   -4.1270   24.0180 C   0  0  0  0  0  0  0  0  0  0  0  0
    5.2780   -5.1130   24.4120 N   0  0  0  0  0  0  0  0  0  0  0  0
    4.6090   -5.0030   25.7210 C   0  0  0  0  0  0  0  0  0  0  0  0
    3.3940   -4.0600   25.6530 C   0  0  0  0  0  0  0  0  0  0  0  0
    3.9060   -2.6600   25.9170 C   0  0  0  0  0  0  0  0  0  0  0  0
    2.6460   -1.7770   25.8490 C   0  0  0  0  0  0  0  0  0  0  0  0
    1.2270   -2.6910   25.5200 S   0  0  0  0  0  0  0  0  0  0  0  0
    2.0500   -4.1980   25.4300 C   0  0  0  0  0  0  0  0  0  0  0  0
    4.4880   -5.5200   23.2030 C   0  0  0  0  0  0  0  0  0  0  0  0
    5.3930   -6.1260   22.2920 C   0  0  0  0  0  0  0  0  0  0  0  0
  1  2  1  0
  2  3  2  0
  2  4  1  0
  4  5  1  0
  5  6  1  0
  6  7  1  0
  7  8  1  0
  8  9  1  0
  9 10  1  0
 10 11  2  0
 11 12  1  0
  9 13  2  0
 12 13  1  0
  7 14  1  0
  4 15  1  0
 14 15  1  0
M  END
