MAK-UNK-516d8086-7-nitrile
     RDKit          3D

 21 23  0  0  0  0  0  0  0  0999 V2000
    7.2620   -3.4930   19.8150 C   0  0  0  0  0  0  0  0  0  0  0  0
    6.1430   -3.4920   19.1820 N   0  0  0  0  0  0  0  0  0  0  0  0
    7.3900   -3.0210   21.2260 C   0  0  0  0  0  0  0  0  0  0  0  0
    6.5450   -1.8300   21.7380 C   0  0  0  0  0  0  0  0  0  0  0  0
    6.6980   -1.3890   23.1190 N   0  0  0  0  0  0  0  0  0  0  0  0
    7.6180   -2.0820   23.9160 C   0  0  0  0  0  0  0  0  0  0  0  0
    7.7970   -1.6980   25.2520 N   0  0  0  0  0  0  0  0  0  0  0  0
    7.7430   -0.2680   25.5480 C   0  0  0  0  0  0  0  0  0  0  0  0
    8.8250    0.0410   26.5780 C   0  0  0  0  0  0  0  0  0  0  0  0
    8.4680   -3.2800   23.4220 C   0  0  0  0  0  0  0  0  0  0  0  0
    9.4570   -4.0960   24.2920 C   0  0  0  0  0  0  0  0  0  0  0  0
    8.0280   -4.3220   24.1100 C   0  0  0  0  0  0  0  0  0  0  0  0
    7.6060   -3.3240   23.2230 C   0  0  0  0  0  0  0  0  0  0  0  0
    8.6630   -2.2600   22.6530 C   0  0  0  0  0  0  0  0  0  0  0  0
    9.9950   -2.2880   23.0100 C   0  0  0  0  0  0  0  0  0  0  0  0
   10.4600   -3.2490   23.8830 C   0  0  0  0  0  0  0  0  0  0  0  0
   10.8520   -1.3130   22.4400 C   0  0  0  0  0  0  0  0  0  0  0  0
   11.7420   -2.1290   22.5710 O   0  0  0  0  0  0  0  0  0  0  0  0
    9.6590   -0.5930   22.4150 N   0  0  0  0  0  0  0  0  0  0  0  0
    8.5630   -1.1960   21.7990 C   0  0  0  0  0  0  0  0  0  0  0  0
    8.2900   -3.6730   22.0970 C   0  0  0  0  0  0  0  0  0  0  0  0
  1  2  2  3
  1  3  1  0
  3  4  2  0
  4  5  1  0
  5  6  2  0
  6  7  1  0
  7  8  1  0
  8  9  1  0
  6 10  1  0
 10 11  1  0
 11 12  2  0
 12 13  1  0
 13 14  2  0
 14 15  1  0
 11 16  1  0
 15 16  2  0
 15 17  1  0
 17 18  2  0
 17 19  1  0
 14 20  1  0
 19 20  1  0
  3 21  1  0
 10 21  2  0
M  END
