MAK-UNK-516d8086-1-chloroacetamide
     RDKit          3D

 22 24  0  0  0  0  0  0  0  0999 V2000
    6.5900   -5.1370   20.1330 C   0  0  0  0  0  0  0  0  0  0  0  0
    6.6860   -3.6440   19.9300 C   0  0  0  0  0  0  0  0  0  0  0  0
    5.8340   -3.1750   19.1690 O   0  0  0  0  0  0  0  0  0  0  0  0
    7.8880   -2.7980   20.6050 C   0  0  0  0  0  0  0  0  0  0  0  0
    6.5380   -2.0090   20.5870 C   0  0  0  0  0  0  0  0  0  0  0  0
    6.0940   -0.7870   20.9840 N   0  0  0  0  0  0  0  0  0  0  0  0
    6.9400    0.0450   21.5520 C   0  0  0  0  0  0  0  0  0  0  0  0
    6.5430    1.3320   21.9890 N   0  0  0  0  0  0  0  0  0  0  0  0
    6.9710    2.3800   21.0750 C   0  0  0  0  0  0  0  0  0  0  0  0
    8.3350   -0.4010   21.7270 C   0  0  0  0  0  0  0  0  0  0  0  0
    9.2670    0.4860   22.3320 C   0  0  0  0  0  0  0  0  0  0  0  0
   10.4500   -0.1060   22.8410 C   0  0  0  0  0  0  0  0  0  0  0  0
   11.7230    0.5480   22.8310 C   0  0  0  0  0  0  0  0  0  0  0  0
   12.5710   -0.2860   23.3810 C   0  0  0  0  0  0  0  0  0  0  0  0
   11.6290   -1.2170   23.5820 C   0  0  0  0  0  0  0  0  0  0  0  0
   11.3610   -2.3380   24.0190 C   0  0  0  0  0  0  0  0  0  0  0  0
   10.3000   -1.4960   23.4180 C   0  0  0  0  0  0  0  0  0  0  0  0
   10.2550   -3.2770   24.1900 C   0  0  0  0  0  0  0  0  0  0  0  0
   11.1770   -4.1290   24.9110 O   0  0  0  0  0  0  0  0  0  0  0  0
    9.6540   -2.2250   23.4630 N   0  0  0  0  0  0  0  0  0  0  0  0
   10.3600   -1.0410   23.2110 C   0  0  0  0  0  0  0  0  0  0  0  0
    8.6960   -1.7950   21.2400 C   0  0  0  0  0  0  0  0  0  0  0  0
  1  2  1  0
  2  3  2  0
  2  4  1  0
  4  5  2  0
  5  6  1  0
  6  7  2  0
  7  8  1  0
  8  9  1  0
  7 10  1  0
 10 11  1  0
 11 12  1  0
 12 13  2  0
 13 14  1  0
 14 15  2  0
 15 16  1  0
 12 17  1  0
 16 17  2  0
 16 18  1  0
 18 19  2  0
 18 20  1  0
 15 21  1  0
 20 21  1  0
  4 22  1  0
 10 22  2  0
M  END
