MAK-UNK-8fdbca50-3-chloroacetamide
     RDKit          3D

 39 42  0  0  0  0  0  0  0  0999 V2000
    7.3870   -3.6140   20.1190 C   0  0  0  0  0  0  0  0  0  0  0  0
    6.0710   -3.4910   19.3940 C   0  0  0  0  0  0  0  0  0  0  0  0
    4.8840   -3.5500   19.1440 O   0  0  0  0  0  0  0  0  0  0  0  0
    5.6140   -4.0240   20.6140 N   0  0  0  0  0  0  0  0  0  0  0  0
    5.6350   -5.4600   20.9160 C   0  0  0  0  0  0  0  0  0  0  0  0
    4.9680   -5.8310   22.2180 C   0  0  0  0  0  0  0  0  0  0  0  0
    5.6520   -4.9230   23.1180 C   0  0  0  0  0  0  0  0  0  0  0  0
    6.0540   -5.3630   24.3330 C   0  0  0  0  0  0  0  0  0  0  0  0
    5.2470   -5.3580   25.4350 O   0  0  0  0  0  0  0  0  0  0  0  0
    7.3430   -5.8070   24.2340 N   0  0  0  0  0  0  0  0  0  0  0  0
    7.8190   -5.6620   22.9430 C   0  0  0  0  0  0  0  0  0  0  0  0
    8.2900   -5.3790   24.9810 C   0  0  2  0  0  0  0  0  0  0  0  0
    9.6300   -5.9750   24.7110 C   0  0  0  0  0  0  0  0  0  0  0  0
    7.9210   -5.4400   26.4850 C   0  0  2  0  0  0  0  0  0  0  0  0
    6.6350   -6.0250   26.9220 N   0  0  0  0  0  0  0  0  0  0  0  0
    5.7870   -5.4940   27.8800 C   0  0  0  0  0  0  0  0  0  0  0  0
    7.9960   -3.9970   26.6760 C   0  0  0  0  0  0  0  0  0  0  0  0
    7.4190   -3.2620   27.6750 C   0  0  0  0  0  0  0  0  0  0  0  0
    7.7510   -1.9520   27.4940 C   0  0  0  0  0  0  0  0  0  0  0  0
    7.2850   -1.0010   28.4210 C   0  0  0  0  0  0  0  0  0  0  0  0
    8.0260   -0.7750   29.5700 C   0  0  0  0  0  0  0  0  0  0  0  0
    7.5880    0.1410   30.4920 C   0  0  0  0  0  0  0  0  0  0  0  0
    6.4220    0.8730   30.3390 C   0  0  0  0  0  0  0  0  0  0  0  0
    5.6560    0.6630   29.1880 C   0  0  0  0  0  0  0  0  0  0  0  0
    6.0860   -0.2710   28.2330 C   0  0  0  0  0  0  0  0  0  0  0  0
    5.3290   -0.4550   27.1380 F   0  0  0  0  0  0  0  0  0  0  0  0
    8.5320   -1.8450   26.3820 N   0  0  0  0  0  0  0  0  0  0  0  0
    9.3300   -0.5670   25.5620 S   0  0  0  0  0  0  0  0  0  0  0  0
    8.3150    0.2820   24.9770 O   0  0  0  0  0  0  0  0  0  0  0  0
   10.2220   -0.1430   26.5890 O   0  0  0  0  0  0  0  0  0  0  0  0
   10.2530   -1.4430   24.3140 C   0  0  0  0  0  0  0  0  0  0  0  0
   11.2270   -1.7910   23.2860 C   0  0  0  0  0  0  0  0  0  0  0  0
   12.3010   -0.9450   22.7690 C   0  0  0  0  0  0  0  0  0  0  0  0
   12.5120    0.3680   23.2360 C   0  0  0  0  0  0  0  0  0  0  0  0
   11.6760    0.7830   24.1640 N   0  0  0  0  0  0  0  0  0  0  0  0
   11.0070   -0.3430   24.1950 C   0  0  0  0  0  0  0  0  0  0  0  0
    8.6790   -3.0930   25.8770 C   0  0  0  0  0  0  0  0  0  0  0  0
    5.1700   -3.6360   22.9590 C   0  0  0  0  0  0  0  0  0  0  0  0
    5.5120   -3.0490   21.7370 C   0  0  0  0  0  0  0  0  0  0  0  0
  1  2  1  0
  2  3  2  0
  2  4  1  0
  4  5  1  0
  5  6  1  0
  6  7  1  0
  7  8  1  0
  8  9  2  0
  8 10  1  0
 10 11  1  0
 10 12  1  0
 12 13  1  1
 12 14  1  0
 14 15  1  6
 15 16  1  0
 14 17  1  0
 17 18  1  0
 18 19  2  0
 19 20  1  0
 20 21  2  0
 21 22  1  0
 22 23  2  0
 23 24  1  0
 20 25  1  0
 24 25  2  0
 25 26  1  0
 19 27  1  0
 27 28  1  0
 28 29  2  0
 28 30  2  0
 28 31  1  0
 31 32  2  0
 32 33  1  0
 33 34  2  0
 34 35  1  0
 31 36  1  0
 35 36  2  0
 17 37  2  0
 27 37  1  0
  7 38  1  0
  4 39  1  0
 38 39  1  0
M  END
