MAK-UNK-516d8086-9-nitrile
     RDKit          3D

 22 24  0  0  0  0  0  0  0  0999 V2000
    7.5310   -3.4940   19.8140 C   0  0  0  0  0  0  0  0  0  0  0  0
    6.2780   -3.7230   19.5280 N   0  0  0  0  0  0  0  0  0  0  0  0
    8.0690   -2.3370   20.6330 C   0  0  0  0  0  0  0  0  0  0  0  0
    7.4370   -0.9390   20.7140 C   0  0  0  0  0  0  0  0  0  0  0  0
    8.0710    0.0970   21.5210 N   0  0  0  0  0  0  0  0  0  0  0  0
    9.2520   -0.2140   22.2040 C   0  0  0  0  0  0  0  0  0  0  0  0
    9.9070    0.7510   22.9970 N   0  0  0  0  0  0  0  0  0  0  0  0
    9.8770    2.1580   22.5770 C   0  0  0  0  0  0  0  0  0  0  0  0
   11.2840    2.7300   22.7580 C   0  0  0  0  0  0  0  0  0  0  0  0
    9.9090   -1.5930   22.1480 C   0  0  0  0  0  0  0  0  0  0  0  0
   11.2350   -2.0370   22.8660 C   0  0  0  0  0  0  0  0  0  0  0  0
   11.3420   -1.2050   24.1720 C   0  0  0  0  0  0  0  0  0  0  0  0
   12.3150   -0.6890   23.3500 C   0  0  0  0  0  0  0  0  0  0  0  0
   12.2680   -1.4700   22.1610 C   0  0  0  0  0  0  0  0  0  0  0  0
   11.2540   -2.3730   22.4260 C   0  0  0  0  0  0  0  0  0  0  0  0
   10.3470   -2.8110   23.2660 C   0  0  0  0  0  0  0  0  0  0  0  0
   10.2810   -2.0870   24.5430 C   0  0  0  0  0  0  0  0  0  0  0  0
    9.4930   -3.7720   23.1780 C   0  0  0  0  0  0  0  0  0  0  0  0
    8.3030   -4.7210   23.8180 S   0  0  0  0  0  0  0  0  0  0  0  0
    9.8090   -2.8690   24.2310 N   0  0  0  0  0  0  0  0  0  0  0  0
   10.9820   -1.8710   23.7640 C   0  0  0  0  0  0  0  0  0  0  0  0
    9.2570   -2.5520   21.3680 C   0  0  0  0  0  0  0  0  0  0  0  0
  1  2  2  3
  1  3  1  0
  3  4  2  0
  4  5  1  0
  5  6  2  0
  6  7  1  0
  7  8  1  0
  8  9  1  0
  6 10  1  0
 10 11  1  0
 11 12  1  0
 12 13  2  0
 13 14  1  0
 14 15  2  0
 15 16  1  0
 12 17  1  0
 16 17  2  0
 16 18  1  0
 18 19  2  0
 18 20  1  0
 15 21  1  0
 20 21  1  0
  3 22  1  0
 10 22  2  0
M  END
