MAK-UNK-ec98eaf6-20-vinylsulfonamide
     RDKit          3D

 23 25  0  0  0  0  0  0  0  0999 V2000
    6.7360   -4.7020   20.4610 C   0  0  0  0  0  0  0  0  0  0  0  0
    6.3740   -5.2280   21.8550 C   0  0  0  0  0  0  0  0  0  0  0  0
    4.8760   -4.4640   22.3800 S   0  0  0  0  0  0  0  0  0  0  0  0
    3.7830   -5.3950   22.4590 O   0  0  0  0  0  0  0  0  0  0  0  0
    4.6790   -3.3820   21.4720 O   0  0  0  0  0  0  0  0  0  0  0  0
    5.2070   -3.7720   23.8750 N   0  0  0  0  0  0  0  0  0  0  0  0
    4.3810   -2.5580   24.2030 C   0  0  0  0  0  0  0  0  0  0  0  0
    5.5200   -1.6140   24.6590 C   0  0  1  0  0  0  0  0  0  0  0  0
    6.5540   -2.5530   25.2690 C   0  0  0  0  0  0  0  0  0  0  0  0
    6.6570   -3.4180   24.0620 C   0  0  2  0  0  0  0  0  0  0  0  0
    6.9260   -2.3820   23.0220 C   0  0  0  0  0  0  0  0  0  0  0  0
    6.2600   -1.2240   23.3790 N   0  0  0  0  0  0  0  0  0  0  0  0
    5.3490   -0.7540   22.3140 C   0  0  0  0  0  0  0  0  0  0  0  0
    6.0480   -0.5900   20.9560 C   0  0  0  0  0  0  0  0  0  0  0  0
    6.3700    0.8630   20.8930 N   0  0  0  0  0  0  0  0  0  0  0  0
    7.6430    1.3190   21.1320 C   0  0  0  0  0  0  0  0  0  0  0  0
    8.0100    2.4480   20.8390 O   0  0  0  0  0  0  0  0  0  0  0  0
    8.6360    0.3930   21.8120 C   0  0  0  0  0  0  0  0  0  0  0  0
    8.9570   -0.9650   21.2610 C   0  0  0  0  0  0  0  0  0  0  0  0
    9.9420   -1.8470   21.9440 C   0  0  0  0  0  0  0  0  0  0  0  0
   10.5650   -1.3060   23.1830 C   0  0  0  0  0  0  0  0  0  0  0  0
   10.2630   -0.0340   23.7090 N   0  0  0  0  0  0  0  0  0  0  0  0
    9.2900    0.7750   22.9720 C   0  0  0  0  0  0  0  0  0  0  0  0
  1  2  1  0
  3  2  1  0
  3  4  2  0
  3  5  2  0
  3  6  1  0
  6  7  1  0
  8  7  1  6
  8  9  1  0
  6 10  1  0
  9 10  1  0
 10 11  1  6
  8 12  1  0
 11 12  1  0
 12 13  1  0
 13 14  1  0
 14 15  1  0
 15 16  1  0
 16 17  2  0
 16 18  1  0
 18 19  2  0
 19 20  1  0
 20 21  2  0
 21 22  1  0
 18 23  1  0
 22 23  2  0
M  END
