MAK-UNK-8fdbca50-10-acrylamide
     RDKit          3D

 40 43  0  0  0  0  0  0  0  0999 V2000
    6.6160   -5.6040   20.9730 C   0  0  0  0  0  0  0  0  0  0  0  0
    6.2410   -4.8430   22.2270 C   0  0  0  0  0  0  0  0  0  0  0  0
    4.7590   -5.0210   22.3790 C   0  0  0  0  0  0  0  0  0  0  0  0
    3.5940   -4.8530   22.7260 O   0  0  0  0  0  0  0  0  0  0  0  0
    4.9930   -3.9360   23.1800 N   0  0  0  0  0  0  0  0  0  0  0  0
    5.6260   -3.9610   24.5080 C   0  0  0  0  0  0  0  0  0  0  0  0
    4.5950   -3.1870   25.4060 C   0  0  0  0  0  0  0  0  0  0  0  0
    4.7440   -1.7140   24.9480 C   0  0  0  0  0  0  0  0  0  0  0  0
    5.7440   -1.2930   26.0260 C   0  0  0  0  0  0  0  0  0  0  0  0
    6.0770   -2.0230   26.9710 O   0  0  0  0  0  0  0  0  0  0  0  0
    6.2120    0.1260   25.7350 N   0  0  0  0  0  0  0  0  0  0  0  0
    5.5550    0.8000   24.6030 C   0  0  0  0  0  0  0  0  0  0  0  0
    7.6530    0.5240   25.9230 C   0  0  2  0  0  0  0  0  0  0  0  0
    8.1330    0.1010   27.3310 C   0  0  0  0  0  0  0  0  0  0  0  0
    7.8410    1.8830   25.5320 C   0  0  0  0  0  0  0  0  0  0  0  0
    7.0390    1.7600   26.3290 N   0  0  0  0  0  0  0  0  0  0  0  0
    6.9160    0.4050   26.6880 C   0  0  0  0  0  0  0  0  0  0  0  0
    7.7970   -0.5390   25.9910 C   0  0  0  0  0  0  0  0  0  0  0  0
    8.7300   -0.0970   25.0140 C   0  0  0  0  0  0  0  0  0  0  0  0
    8.7770    1.2780   24.7330 C   0  0  0  0  0  0  0  0  0  0  0  0
    9.9180    1.9270   23.5310 S   0  0  0  0  0  0  0  0  0  0  0  0
   11.0910    2.4240   24.1910 O   0  0  0  0  0  0  0  0  0  0  0  0
    9.2650    2.6830   22.4830 O   0  0  0  0  0  0  0  0  0  0  0  0
   10.4160    0.4480   22.8420 N   0  0  0  0  0  0  0  0  0  0  0  0
   11.7150   -0.1700   22.9720 C   0  0  0  0  0  0  0  0  0  0  0  0
   11.7970   -1.4040   22.2880 C   0  0  0  0  0  0  0  0  0  0  0  0
   12.9310   -2.1890   22.2410 C   0  0  0  0  0  0  0  0  0  0  0  0
   13.1320   -2.9380   20.9660 N   0  0  0  0  0  0  0  0  0  0  0  0
   12.0750   -3.8890   20.6250 C   0  0  0  0  0  0  0  0  0  0  0  0
   10.5300   -1.6020   21.7110 C   0  0  0  0  0  0  0  0  0  0  0  0
    9.6150   -0.4300   22.0200 C   0  0  0  0  0  0  0  0  0  0  0  0
    8.3470   -0.1530   21.6700 C   0  0  0  0  0  0  0  0  0  0  0  0
    8.0330    1.3040   21.2440 C   0  0  0  0  0  0  0  0  0  0  0  0
    6.6290    1.7580   20.8070 C   0  0  0  0  0  0  0  0  0  0  0  0
    5.5070    0.7240   20.7910 C   0  0  0  0  0  0  0  0  0  0  0  0
    5.8510   -0.7020   21.2140 C   0  0  0  0  0  0  0  0  0  0  0  0
    7.2910   -1.0890   21.6500 C   0  0  0  0  0  0  0  0  0  0  0  0
    7.5080   -2.3540   22.0080 F   0  0  0  0  0  0  0  0  0  0  0  0
    5.3340   -1.5610   23.5490 C   0  0  0  0  0  0  0  0  0  0  0  0
    4.7520   -2.6350   22.6280 C   0  0  0  0  0  0  0  0  0  0  0  0
  1  2  1  0
  2  3  1  0
  3  4  2  0
  3  5  1  0
  5  6  1  0
  6  7  1  0
  7  8  1  0
  8  9  1  0
  9 10  2  0
  9 11  1  0
 11 12  1  0
 11 13  1  0
 13 14  1  1
 13 15  1  0
 15 16  2  0
 16 17  1  0
 17 18  2  0
 18 19  1  0
 15 20  1  0
 19 20  2  0
 21 20  1  0
 21 22  2  0
 21 23  2  0
 21 24  1  0
 24 25  1  0
 25 26  2  0
 26 27  1  0
 27 28  1  0
 28 29  1  0
 26 30  1  0
 24 31  1  0
 30 31  2  0
 31 32  1  0
 32 33  2  0
 33 34  1  0
 34 35  2  0
 35 36  1  0
 32 37  1  0
 36 37  2  0
 37 38  1  0
  8 39  1  0
  5 40  1  0
 39 40  1  0
M  END
