MAK-UNK-10799360-31-vinylsulfonamide
     RDKit          3D

 32 36  0  0  0  0  0  0  0  0999 V2000
    7.8620   -3.7110   20.0830 C   0  0  0  0  0  0  0  0  0  0  0  0
    7.1290   -2.6160   19.3060 C   0  0  0  0  0  0  0  0  0  0  0  0
    5.5180   -2.5140   19.9990 S   0  0  0  0  0  0  0  0  0  0  0  0
    4.7950   -3.6570   19.4810 O   0  0  0  0  0  0  0  0  0  0  0  0
    5.0250   -1.1660   19.8220 O   0  0  0  0  0  0  0  0  0  0  0  0
    5.8090   -2.7570   21.6640 N   0  0  0  0  0  0  0  0  0  0  0  0
    7.1920   -2.5570   22.0860 C   0  0  0  0  0  0  0  0  0  0  0  0
    7.0180   -1.3470   23.0380 C   0  0  1  0  0  0  0  0  0  0  0  0
    8.3800   -0.6780   22.9240 C   0  0  0  0  0  0  0  0  0  0  0  0
    9.3770   -1.8080   22.5340 C   0  0  0  0  0  0  0  0  0  0  0  0
   10.8940   -1.4480   22.3000 C   0  0  0  0  0  0  0  0  0  0  0  0
   12.1600   -2.5120   21.8510 Cl  0  0  0  0  0  0  0  0  0  0  0  0
   11.1970    0.0160   22.5030 C   0  0  0  0  0  0  0  0  0  0  0  0
   10.1460    1.0050   22.8820 C   0  0  0  0  0  0  0  0  0  0  0  0
   10.2840    2.3240   23.0800 C   0  0  0  0  0  0  0  0  0  0  0  0
   11.5070    2.9210   22.9350 C   0  0  0  0  0  0  0  0  0  0  0  0
   12.5800    2.0600   23.1540 C   0  0  0  0  0  0  0  0  0  0  0  0
   12.5810    0.7540   22.5550 N   0  0  0  0  0  0  0  0  0  0  0  0
   12.8760   -0.3570   23.3320 C   0  0  0  0  0  0  0  0  0  0  0  0
   12.2290   -0.4260   24.5720 C   0  0  0  0  0  0  0  0  0  0  0  0
   13.6320   -1.2460   22.9900 O   0  0  0  0  0  0  0  0  0  0  0  0
    9.0610    2.9100   23.4270 C   0  0  0  0  0  0  0  0  0  0  0  0
    8.1340    1.8680   23.4290 N   0  0  0  0  0  0  0  0  0  0  0  0
    8.7510    0.6450   23.0920 C   0  0  0  0  0  0  0  0  0  0  0  0
    5.7700   -0.7280   22.3120 C   0  0  0  0  0  0  0  0  0  0  0  0
    5.0100   -1.8720   22.5100 C   0  0  2  0  0  0  0  0  0  0  0  0
    5.1400   -2.2330   23.8480 C   0  0  0  0  0  0  0  0  0  0  0  0
    4.2230   -2.8360   24.7740 C   0  0  0  0  0  0  0  0  0  0  0  0
    4.5900   -3.0970   26.1910 C   0  0  0  0  0  0  0  0  0  0  0  0
    5.9850   -2.6950   26.6390 C   0  0  0  0  0  0  0  0  0  0  0  0
    6.8550   -2.1150   25.7210 C   0  0  0  0  0  0  0  0  0  0  0  0
    6.4040   -1.9020   24.3100 C   0  0  0  0  0  0  0  0  0  0  0  0
  1  2  1  0
  3  2  1  0
  3  4  2  0
  3  5  2  0
  3  6  1  0
  6  7  1  0
  7  8  1  0
  8  9  1  1
  9 10  2  0
 10 11  1  0
 11 12  1  0
 11 13  2  0
 13 14  1  0
 14 15  1  0
 15 16  1  0
 16 17  1  0
 17 18  1  0
 18 19  1  0
 19 20  1  0
 19 21  2  0
 15 22  2  0
 22 23  1  0
  9 24  1  0
 14 24  2  0
 23 24  1  0
  8 25  1  0
 26  6  1  6
 25 26  1  0
 26 27  1  0
 27 28  1  0
 28 29  2  0
 29 30  1  0
 30 31  2  0
  8 32  1  0
 27 32  2  0
 31 32  1  0
M  END
