MAK-UNK-516d8086-2-acrylamide
     RDKit          3D

 22 24  0  0  0  0  0  0  0  0999 V2000
    7.1440   -3.0940   19.0750 C   0  0  0  0  0  0  0  0  0  0  0  0
    6.6530   -2.2280   20.2430 C   0  0  0  0  0  0  0  0  0  0  0  0
    5.5290   -2.9380   20.9570 C   0  0  0  0  0  0  0  0  0  0  0  0
    4.7400   -3.3530   21.7990 O   0  0  0  0  0  0  0  0  0  0  0  0
    6.1320   -2.1700   22.1080 C   0  0  0  0  0  0  0  0  0  0  0  0
    5.3290   -1.8680   23.3860 C   0  0  0  0  0  0  0  0  0  0  0  0
    5.9950   -1.1520   24.3780 N   0  0  0  0  0  0  0  0  0  0  0  0
    7.3330   -0.6920   24.2830 C   0  0  0  0  0  0  0  0  0  0  0  0
    7.9540    0.0470   25.3630 N   0  0  0  0  0  0  0  0  0  0  0  0
    8.1390   -0.9830   23.0190 C   0  0  0  0  0  0  0  0  0  0  0  0
    9.5740   -0.4750   22.9360 C   0  0  0  0  0  0  0  0  0  0  0  0
   10.4900   -1.4220   23.7380 C   0  0  0  0  0  0  0  0  0  0  0  0
   11.9400   -1.2660   23.7310 C   0  0  0  0  0  0  0  0  0  0  0  0
   11.5750   -2.4190   24.6020 C   0  0  0  0  0  0  0  0  0  0  0  0
   12.3320   -3.2900   25.3470 C   0  0  0  0  0  0  0  0  0  0  0  0
   10.9730   -3.2590   25.2090 C   0  0  0  0  0  0  0  0  0  0  0  0
    9.9710   -2.5210   24.5480 C   0  0  0  0  0  0  0  0  0  0  0  0
   11.5320   -2.2290   24.3960 C   0  0  0  0  0  0  0  0  0  0  0  0
   10.9360   -1.8950   23.3780 O   0  0  0  0  0  0  0  0  0  0  0  0
   12.7500   -1.6830   24.6880 N   0  0  0  0  0  0  0  0  0  0  0  0
   13.5060   -2.6920   24.9880 C   0  0  0  0  0  0  0  0  0  0  0  0
    7.5180   -1.7130   21.9720 C   0  0  0  0  0  0  0  0  0  0  0  0
  1  2  1  0
  2  3  1  0
  3  4  2  0
  3  5  1  0
  5  6  2  0
  6  7  1  0
  7  8  2  0
  8  9  1  0
  8 10  1  0
 10 11  1  0
 11 12  1  0
 12 13  2  0
 13 14  1  0
 14 15  2  0
 15 16  1  0
 12 17  1  0
 16 17  2  0
 16 18  1  0
 18 19  2  0
 18 20  1  0
 15 21  1  0
 20 21  1  0
  5 22  1  0
 10 22  2  0
M  END
