MAK-UNK-9a6be56d-31
     RDKit          3D

 38 42  0  0  0  0  0  0  0  0999 V2000
    8.6990    0.4960   25.7280 C   0  0  0  0  0  0  0  0  0  0  0  0
    9.1470    0.8260   24.4650 N   0  0  0  0  0  0  0  0  0  0  0  0
    9.5490    2.1210   24.1490 C   0  0  0  0  0  0  0  0  0  0  0  0
    8.7240    3.1500   24.5840 C   0  0  0  0  0  0  0  0  0  0  0  0
    8.9930    4.5430   24.3500 C   0  0  0  0  0  0  0  0  0  0  0  0
    7.9980    5.8460   24.8830 S   0  0  0  0  0  0  0  0  0  0  0  0
    8.6560    7.2840   24.3470 N   0  0  0  0  0  0  0  0  0  0  0  0
    8.0930    5.9230   26.3270 O   0  0  0  0  0  0  0  0  0  0  0  0
    6.7030    5.6960   24.2550 O   0  0  0  0  0  0  0  0  0  0  0  0
   10.1590    4.7710   23.6420 C   0  0  0  0  0  0  0  0  0  0  0  0
   11.0250    3.7820   23.1730 C   0  0  0  0  0  0  0  0  0  0  0  0
   10.6960    2.4620   23.4400 C   0  0  0  0  0  0  0  0  0  0  0  0
   11.5250    1.3020   22.9830 C   0  0  0  0  0  0  0  0  0  0  0  0
   10.5940    0.3990   22.4860 C   0  0  0  0  0  0  0  0  0  0  0  0
    9.8350   -0.1950   23.5810 C   0  0  1  0  0  0  0  0  0  0  0  0
   10.8570   -1.0570   24.1400 N   0  0  0  0  0  0  0  0  0  0  0  0
   11.9920   -1.4020   23.3910 C   0  0  0  0  0  0  0  0  0  0  0  0
   12.8090   -2.2470   24.0740 C   0  0  0  0  0  0  0  0  0  0  0  0
   14.0100   -2.6150   23.6490 C   0  0  0  0  0  0  0  0  0  0  0  0
   14.5980   -3.4940   24.5920 C   0  0  0  0  0  0  0  0  0  0  0  0
   15.8050   -4.3360   24.9560 C   0  0  0  0  0  0  0  0  0  0  0  0
   15.2580   -5.5300   25.8160 C   0  0  0  0  0  0  0  0  0  0  0  0
   16.0430   -6.5380   26.3750 C   0  0  0  0  0  0  0  0  0  0  0  0
   17.3700   -6.4370   26.1440 C   0  0  0  0  0  0  0  0  0  0  0  0
   17.9400   -5.4030   25.3890 C   0  0  0  0  0  0  0  0  0  0  0  0
   17.2680   -4.3920   24.8100 C   0  0  0  0  0  0  0  0  0  0  0  0
   18.1900   -3.6280   24.2260 F   0  0  0  0  0  0  0  0  0  0  0  0
   13.7460   -3.6420   25.5040 N   0  0  0  0  0  0  0  0  0  0  0  0
   14.3930   -4.7260   26.5550 S   0  0  0  0  0  0  0  0  0  0  0  0
   14.0140   -5.8290   25.9900 O   0  0  0  0  0  0  0  0  0  0  0  0
   14.3150   -4.7330   27.9780 O   0  0  0  0  0  0  0  0  0  0  0  0
   15.6750   -5.6760   25.8940 C   0  0  0  0  0  0  0  0  0  0  0  0
   15.9890   -6.9810   26.5830 C   0  0  0  0  0  0  0  0  0  0  0  0
   16.8720   -7.8100   26.0830 C   0  0  0  0  0  0  0  0  0  0  0  0
   17.4820   -7.4500   24.9690 C   0  0  0  0  0  0  0  0  0  0  0  0
   17.2990   -6.2650   24.3160 N   0  0  0  0  0  0  0  0  0  0  0  0
   16.3970   -5.3860   24.7660 C   0  0  0  0  0  0  0  0  0  0  0  0
   12.6050   -2.8620   25.2360 C   0  0  0  0  0  0  0  0  0  0  0  0
  1  2  1  0
  2  3  1  0
  3  4  1  0
  4  5  2  0
  5  6  1  0
  6  7  1  0
  6  8  2  0
  6  9  2  0
  5 10  1  0
 10 11  2  0
  3 12  2  0
 11 12  1  0
 12 13  1  0
 13 14  1  0
  2 15  1  0
 14 15  1  0
 15 16  1  1
 16 17  1  0
 17 18  1  0
 18 19  1  0
 19 20  2  0
 20 21  1  0
 21 22  2  0
 22 23  1  0
 23 24  2  0
 24 25  1  0
 21 26  1  0
 25 26  2  0
 26 27  1  0
 20 28  1  0
 28 29  1  0
 29 30  2  0
 29 31  2  0
 29 32  1  0
 32 33  2  0
 33 34  1  0
 34 35  2  0
 35 36  1  0
 32 37  1  0
 36 37  2  0
 18 38  2  0
 28 38  1  0
M  END
