MAK-UNK-148caf23-13-acrylamide
     RDKit          3D

 36 39  0  0  0  0  0  0  0  0999 V2000
    6.5020   -4.2630   20.2780 C   0  0  0  0  0  0  0  0  0  0  0  0
    5.7470   -2.9200   20.2920 C   0  0  0  0  0  0  0  0  0  0  0  0
    5.5500   -2.4490   21.7400 C   0  0  0  0  0  0  0  0  0  0  0  0
    4.8260   -3.4800   21.7890 O   0  0  0  0  0  0  0  0  0  0  0  0
    6.4680   -1.3820   21.1860 C   0  0  0  0  0  0  0  0  0  0  0  0
    5.4990   -2.0470   20.4580 C   0  0  0  0  0  0  0  0  0  0  0  0
    5.8720   -2.2540   22.1330 C   0  0  0  0  0  0  0  0  0  0  0  0
    6.8880   -1.7370   23.4350 C   0  0  0  0  0  0  0  0  0  0  0  0
    6.9440   -2.1320   24.8020 N   0  0  0  0  0  0  0  0  0  0  0  0
    7.8840   -1.3910   25.6630 C   0  0  0  0  0  0  0  0  0  0  0  0
    7.2760   -1.3510   27.0890 C   0  0  1  0  0  0  0  0  0  0  0  0
    6.4080   -2.7680   27.5750 S   0  0  0  0  0  0  0  0  0  0  0  0
    5.6240   -3.0280   26.3920 O   0  0  0  0  0  0  0  0  0  0  0  0
    7.3410   -3.7490   28.0930 O   0  0  0  0  0  0  0  0  0  0  0  0
    5.2240   -2.5450   28.8160 C   0  0  0  0  0  0  0  0  0  0  0  0
    5.4280   -1.6790   29.8930 C   0  0  0  0  0  0  0  0  0  0  0  0
    4.5080   -1.4730   30.9050 C   0  0  0  0  0  0  0  0  0  0  0  0
    3.2930   -2.1300   30.9170 C   0  0  0  0  0  0  0  0  0  0  0  0
    2.9850   -3.0510   29.8440 N   0  0  0  0  0  0  0  0  0  0  0  0
    3.9830   -3.2450   28.7860 C   0  0  0  0  0  0  0  0  0  0  0  0
    8.1780   -1.2090   28.1710 C   0  0  0  0  0  0  0  0  0  0  0  0
    7.9720   -0.1850   29.1040 C   0  0  0  0  0  0  0  0  0  0  0  0
    8.7370    0.1000   30.2400 C   0  0  0  0  0  0  0  0  0  0  0  0
    9.4780    1.2530   30.2150 N   0  0  0  0  0  0  0  0  0  0  0  0
   10.8930    1.3850   30.5570 C   0  0  0  0  0  0  0  0  0  0  0  0
    6.8250    0.4320   28.5930 C   0  0  0  0  0  0  0  0  0  0  0  0
    6.3970   -0.2510   27.3950 C   0  0  0  0  0  0  0  0  0  0  0  0
    5.1970    0.2030   26.6250 C   0  0  0  0  0  0  0  0  0  0  0  0
    4.0830   -0.8150   26.3890 C   0  0  0  0  0  0  0  0  0  0  0  0
    2.9340   -0.4610   25.6880 C   0  0  0  0  0  0  0  0  0  0  0  0
    2.7980    0.9470   25.1590 C   0  0  0  0  0  0  0  0  0  0  0  0
    3.8030    1.8900   25.3610 C   0  0  0  0  0  0  0  0  0  0  0  0
    5.0600    1.5050   26.1280 C   0  0  0  0  0  0  0  0  0  0  0  0
    6.0100    2.4310   26.3100 F   0  0  0  0  0  0  0  0  0  0  0  0
    7.6510   -0.8430   22.8750 N   0  0  0  0  0  0  0  0  0  0  0  0
    6.6840   -1.6290   22.5150 C   0  0  0  0  0  0  0  0  0  0  0  0
  1  2  1  0
  2  3  1  0
  3  4  2  0
  3  5  1  0
  5  6  2  0
  6  7  1  0
  7  8  2  0
  8  9  1  0
  9 10  1  0
 11 10  1  6
 11 12  1  0
 12 13  2  0
 12 14  2  0
 12 15  1  0
 15 16  2  0
 16 17  1  0
 17 18  2  0
 18 19  1  0
 15 20  1  0
 19 20  2  0
 11 21  1  0
 21 22  2  0
 22 23  1  0
 23 24  1  0
 24 25  1  0
 22 26  1  0
 11 27  1  0
 26 27  2  0
 27 28  1  0
 28 29  2  0
 29 30  1  0
 30 31  2  0
 31 32  1  0
 28 33  1  0
 32 33  2  0
 33 34  1  0
  8 35  1  0
  5 36  1  0
 35 36  2  0
M  END
