MAK-UNK-516d8086-21-chloroacetamide
     RDKit          3D

 23 25  0  0  0  0  0  0  0  0999 V2000
    7.7030   -3.4110   19.0360 C   0  0  0  0  0  0  0  0  0  0  0  0
    6.9190   -3.9700   20.1930 C   0  0  0  0  0  0  0  0  0  0  0  0
    5.7640   -4.4410   19.9960 O   0  0  0  0  0  0  0  0  0  0  0  0
    7.8990   -3.9410   21.4710 C   0  0  0  0  0  0  0  0  0  0  0  0
    8.8650   -2.8240   21.2310 C   0  0  0  0  0  0  0  0  0  0  0  0
    9.8800   -2.5050   21.9670 N   0  0  0  0  0  0  0  0  0  0  0  0
   10.0470   -3.2500   23.0420 C   0  0  0  0  0  0  0  0  0  0  0  0
   11.2160   -2.8920   23.7840 N   0  0  0  0  0  0  0  0  0  0  0  0
   11.8820   -1.6630   23.2980 C   0  0  0  0  0  0  0  0  0  0  0  0
   12.6400   -1.9590   22.1700 C   0  0  0  0  0  0  0  0  0  0  0  0
    9.1550   -4.3500   23.4740 C   0  0  0  0  0  0  0  0  0  0  0  0
    9.3610   -5.0650   24.6600 C   0  0  0  0  0  0  0  0  0  0  0  0
   10.4270   -4.3680   25.1790 C   0  0  0  0  0  0  0  0  0  0  0  0
    9.7170   -3.1430   24.9850 C   0  0  0  0  0  0  0  0  0  0  0  0
    9.9530   -1.6570   25.1810 N   0  0  0  0  0  0  0  0  0  0  0  0
    8.7730   -1.7850   24.7330 C   0  0  0  0  0  0  0  0  0  0  0  0
   10.0950   -2.2000   25.2030 C   0  0  0  0  0  0  0  0  0  0  0  0
   10.9410   -3.2850   25.4730 C   0  0  0  0  0  0  0  0  0  0  0  0
   10.5680   -0.7740   25.3970 C   0  0  0  0  0  0  0  0  0  0  0  0
   11.9800   -0.4370   25.5610 O   0  0  0  0  0  0  0  0  0  0  0  0
    9.4980    0.1130   25.3130 N   0  0  0  0  0  0  0  0  0  0  0  0
    8.4520   -0.4690   24.6960 C   0  0  0  0  0  0  0  0  0  0  0  0
    8.0420   -4.6980   22.6300 C   0  0  0  0  0  0  0  0  0  0  0  0
  1  2  1  0
  2  3  2  0
  2  4  1  0
  4  5  2  0
  5  6  1  0
  6  7  2  0
  7  8  1  0
  8  9  1  0
  9 10  1  0
  7 11  1  0
 11 12  1  0
 12 13  1  0
 13 14  2  0
 14 15  1  0
 15 16  2  0
 16 17  1  0
 13 18  1  0
 17 18  2  0
 17 19  1  0
 19 20  2  0
 19 21  1  0
 16 22  1  0
 21 22  1  0
  4 23  1  0
 11 23  2  0
M  END
