MAK-UNK-3e0761f8-2-chloroacetamide
     RDKit          3D

 20 23  0  0  0  0  0  0  0  0999 V2000
    7.7170   -3.0980   19.1020 C   0  0  0  0  0  0  0  0  0  0  0  0
    6.6250   -3.3350   20.0960 C   0  0  0  0  0  0  0  0  0  0  0  0
    5.6350   -4.0370   19.7830 O   0  0  0  0  0  0  0  0  0  0  0  0
    6.7740   -2.7780   21.3650 N   0  0  0  0  0  0  0  0  0  0  0  0
    7.4700   -1.5870   21.9250 C   0  0  1  0  0  0  0  0  0  0  0  0
    7.3750   -1.8390   23.5000 C   0  0  0  0  0  0  0  0  0  0  0  0
    7.6070   -3.3640   23.4520 C   0  0  2  0  0  0  0  0  0  0  0  0
    8.9610   -2.8300   22.9580 C   0  0  0  0  0  0  0  0  0  0  0  0
   10.0780   -3.5710   23.5910 C   0  0  0  0  0  0  0  0  0  0  0  0
   11.4120   -2.9240   23.1200 C   0  0  0  0  0  0  0  0  0  0  0  0
   11.3300   -1.7730   22.1570 C   0  0  0  0  0  0  0  0  0  0  0  0
   10.0310   -1.2300   21.6590 C   0  0  0  0  0  0  0  0  0  0  0  0
    8.9350   -1.7850   22.0920 C   0  0  0  0  0  0  0  0  0  0  0  0
    6.3290   -3.4560   22.5690 C   0  0  1  0  0  0  0  0  0  0  0  0
    5.4180   -2.6540   23.1570 C   0  0  0  0  0  0  0  0  0  0  0  0
    4.7430   -1.6400   22.6230 N   0  0  0  0  0  0  0  0  0  0  0  0
    3.9540   -1.0980   23.6140 N   0  0  0  0  0  0  0  0  0  0  0  0
    4.2190   -1.8590   24.7110 C   0  0  0  0  0  0  0  0  0  0  0  0
    3.6400   -1.6800   25.9700 C   0  0  0  0  0  0  0  0  0  0  0  0
    5.1300   -2.8570   24.4880 O   0  0  0  0  0  0  0  0  0  0  0  0
  1  2  1  0
  2  3  2  0
  2  4  1  0
  5  4  1  6
  5  6  1  0
  6  7  1  0
  7  8  1  6
  8  9  1  0
  9 10  2  0
 10 11  1  0
 11 12  2  0
  5 13  1  0
  8 13  2  0
 12 13  1  0
  4 14  1  0
  7 14  1  0
 14 15  1  1
 15 16  2  0
 16 17  1  0
 17 18  2  0
 18 19  1  0
 15 20  1  0
 18 20  1  0
M  END
