MAK-UNK-8fdbca50-36-vinylsulfonamide
     RDKit          3D

 41 44  0  0  0  0  0  0  0  0999 V2000
    8.7750   -4.6720   20.8690 C   0  0  0  0  0  0  0  0  0  0  0  0
    7.3780   -4.5610   21.5010 C   0  0  0  0  0  0  0  0  0  0  0  0
    6.6070   -2.9470   21.4590 S   0  0  0  0  0  0  0  0  0  0  0  0
    4.9940   -3.3520   21.5150 O   0  0  0  0  0  0  0  0  0  0  0  0
    6.9020   -2.3860   20.1630 O   0  0  0  0  0  0  0  0  0  0  0  0
    7.7900   -1.8360   22.4340 N   0  0  0  0  0  0  0  0  0  0  0  0
    8.8710   -1.0080   21.7040 C   0  0  0  0  0  0  0  0  0  0  0  0
   10.3430   -0.9890   22.3510 C   0  0  0  0  0  0  0  0  0  0  0  0
   10.4650   -2.2380   23.2450 C   0  0  1  0  0  0  0  0  0  0  0  0
   10.9040   -1.4490   24.4720 C   0  0  0  0  0  0  0  0  0  0  0  0
   10.3130   -1.5630   25.6940 O   0  0  0  0  0  0  0  0  0  0  0  0
   12.0220   -0.6000   24.1660 N   0  0  0  0  0  0  0  0  0  0  0  0
   11.8240    0.8180   23.7480 C   0  0  0  0  0  0  0  0  0  0  0  0
   13.1740   -1.1650   23.5440 C   0  0  0  0  0  0  0  0  0  0  0  0
   13.5250   -2.4520   24.2740 C   0  0  0  0  0  0  0  0  0  0  0  0
   13.0970   -1.1720   22.1520 C   0  0  0  0  0  0  0  0  0  0  0  0
    9.3170   -2.9460   23.4800 C   0  0  0  0  0  0  0  0  0  0  0  0
    8.3120   -2.0980   23.8360 C   0  0  1  0  0  0  0  0  0  0  0  0
    7.8160   -1.1900   24.3860 N   0  0  0  0  0  0  0  0  0  0  0  0
    7.8870   -0.8860   25.7740 C   0  0  0  0  0  0  0  0  0  0  0  0
    6.9270   -0.0850   26.4260 C   0  0  0  0  0  0  0  0  0  0  0  0
    6.9390    0.6240   25.1550 C   0  0  0  0  0  0  0  0  0  0  0  0
    6.1150    1.7120   24.9970 C   0  0  0  0  0  0  0  0  0  0  0  0
    6.0080    2.4900   23.8340 C   0  0  0  0  0  0  0  0  0  0  0  0
    4.7680    2.4600   23.1730 C   0  0  0  0  0  0  0  0  0  0  0  0
    4.6110    3.2190   22.0160 C   0  0  0  0  0  0  0  0  0  0  0  0
    5.6390    4.0000   21.5000 C   0  0  0  0  0  0  0  0  0  0  0  0
    6.9570    4.0030   22.2370 C   0  0  0  0  0  0  0  0  0  0  0  0
    7.1100    3.2680   23.3590 C   0  0  0  0  0  0  0  0  0  0  0  0
    8.2920    3.2900   23.9970 F   0  0  0  0  0  0  0  0  0  0  0  0
    5.4660    1.8500   26.1470 N   0  0  0  0  0  0  0  0  0  0  0  0
    4.2910    2.9970   26.6340 S   0  0  0  0  0  0  0  0  0  0  0  0
    3.0400    2.5080   26.1040 O   0  0  0  0  0  0  0  0  0  0  0  0
    4.4730    3.1730   28.0640 O   0  0  0  0  0  0  0  0  0  0  0  0
    4.6920    4.5250   25.8730 C   0  0  0  0  0  0  0  0  0  0  0  0
    6.1220    4.7590   25.3120 C   0  0  0  0  0  0  0  0  0  0  0  0
    5.2490    5.9540   25.1040 C   0  0  0  0  0  0  0  0  0  0  0  0
    4.8060    7.3120   24.6890 C   0  0  0  0  0  0  0  0  0  0  0  0
    3.6840    6.8080   25.2630 N   0  0  0  0  0  0  0  0  0  0  0  0
    3.6630    5.5140   25.8010 C   0  0  0  0  0  0  0  0  0  0  0  0
    5.9290    0.8350   26.9470 C   0  0  0  0  0  0  0  0  0  0  0  0
  1  2  1  0
  3  2  1  0
  3  4  2  0
  3  5  2  0
  3  6  1  0
  6  7  1  0
  7  8  1  0
  8  9  1  0
  9 10  1  1
 10 11  2  0
 10 12  1  0
 12 13  1  0
 12 14  1  0
 14 15  1  0
 14 16  1  0
  9 17  1  0
  6 18  1  0
 17 18  1  0
 18 19  1  6
 19 20  1  0
 20 21  1  0
 21 22  1  0
 22 23  2  0
 23 24  1  0
 24 25  2  0
 25 26  1  0
 26 27  2  0
 27 28  1  0
 24 29  1  0
 28 29  2  0
 29 30  1  0
 23 31  1  0
 31 32  1  0
 32 33  2  0
 32 34  2  0
 32 35  1  0
 35 36  2  0
 36 37  1  0
 37 38  2  0
 38 39  1  0
 35 40  1  0
 39 40  2  0
 21 41  2  0
 31 41  1  0
M  END
