MAK-UNK-148caf23-2-chloroacetamide
     RDKit          3D

 35 38  0  0  0  0  0  0  0  0999 V2000
    9.6330   -4.2730   20.2760 C   0  0  0  0  0  0  0  0  0  0  0  0
    8.5640   -3.3050   20.4470 C   0  0  0  0  0  0  0  0  0  0  0  0
    7.3460   -3.4950   19.6450 O   0  0  0  0  0  0  0  0  0  0  0  0
    9.1320   -2.3530   21.6560 C   0  0  0  0  0  0  0  0  0  0  0  0
   10.5230   -1.5100   21.7710 C   0  0  0  0  0  0  0  0  0  0  0  0
   10.9460   -0.7400   22.8640 N   0  0  0  0  0  0  0  0  0  0  0  0
   10.0310   -0.7220   24.0090 C   0  0  0  0  0  0  0  0  0  0  0  0
   10.2420    0.0090   25.2810 N   0  0  0  0  0  0  0  0  0  0  0  0
    9.4790   -0.3300   26.4960 C   0  0  0  0  0  0  0  0  0  0  0  0
    8.1660    0.4250   26.5650 C   0  0  0  0  0  0  0  0  0  0  0  0
    8.8230   -1.4450   23.9690 C   0  0  0  0  0  0  0  0  0  0  0  0
    8.3840   -2.2510   22.8040 C   0  0  0  0  0  0  0  0  0  0  0  0
    7.0760   -2.9450   22.9770 N   0  0  0  0  0  0  0  0  0  0  0  0
    6.2510   -2.5230   24.0910 C   0  0  0  0  0  0  0  0  0  0  0  0
    5.5460   -1.4200   23.8500 C   0  0  0  0  0  0  0  0  0  0  0  0
    4.2020   -1.1290   24.1460 C   0  0  0  0  0  0  0  0  0  0  0  0
    3.7510    0.0550   23.7810 C   0  0  0  0  0  0  0  0  0  0  0  0
    2.3930    0.5700   23.9770 C   0  0  0  0  0  0  0  0  0  0  0  0
    1.6680    0.4110   25.1720 C   0  0  0  0  0  0  0  0  0  0  0  0
    0.3860    0.8780   25.3980 C   0  0  0  0  0  0  0  0  0  0  0  0
   -0.3210    1.5650   24.4360 C   0  0  0  0  0  0  0  0  0  0  0  0
    0.3010    1.7940   23.1760 C   0  0  0  0  0  0  0  0  0  0  0  0
    1.6020    1.3510   22.8740 C   0  0  0  0  0  0  0  0  0  0  0  0
    2.1240    1.6010   21.6650 F   0  0  0  0  0  0  0  0  0  0  0  0
    4.8760    0.6250   23.1920 N   0  0  0  0  0  0  0  0  0  0  0  0
    4.9970    2.1290   22.5060 S   0  0  0  0  0  0  0  0  0  0  0  0
    6.2540    2.6830   22.9570 O   0  0  0  0  0  0  0  0  0  0  0  0
    3.7550    2.8330   22.7180 O   0  0  0  0  0  0  0  0  0  0  0  0
    5.1010    1.7600   20.7980 C   0  0  0  0  0  0  0  0  0  0  0  0
    4.4770    2.6850   19.7560 C   0  0  0  0  0  0  0  0  0  0  0  0
    4.6320    2.2480   18.3130 C   0  0  0  0  0  0  0  0  0  0  0  0
    5.3880    0.9460   18.0920 C   0  0  0  0  0  0  0  0  0  0  0  0
    5.9030    0.2040   19.0960 N   0  0  0  0  0  0  0  0  0  0  0  0
    5.7640    0.5960   20.3950 C   0  0  0  0  0  0  0  0  0  0  0  0
    5.9490   -0.2430   23.2300 C   0  0  0  0  0  0  0  0  0  0  0  0
  1  2  1  0
  2  3  2  0
  2  4  1  0
  4  5  2  0
  5  6  1  0
  6  7  2  0
  7  8  1  0
  8  9  1  0
  9 10  1  0
  7 11  1  0
  4 12  1  0
 11 12  2  0
 12 13  1  0
 13 14  1  0
 14 15  1  0
 15 16  1  0
 16 17  2  0
 17 18  1  0
 18 19  2  0
 19 20  1  0
 20 21  2  0
 21 22  1  0
 18 23  1  0
 22 23  2  0
 23 24  1  0
 17 25  1  0
 25 26  1  0
 26 27  2  0
 26 28  2  0
 26 29  1  0
 29 30  2  0
 30 31  1  0
 31 32  2  0
 32 33  1  0
 29 34  1  0
 33 34  2  0
 15 35  2  0
 25 35  1  0
M  END
