MAK-UNK-5d2caa6f-5-vinylsulfonamide
     RDKit          3D

 25 28  0  0  0  0  0  0  0  0999 V2000
    7.9340   -3.3460   19.4770 C   0  0  0  0  0  0  0  0  0  0  0  0
    6.7490   -2.6750   18.8360 C   0  0  0  0  0  0  0  0  0  0  0  0
    5.5900   -3.3800   19.9110 S   0  0  0  0  0  0  0  0  0  0  0  0
    4.3240   -3.0270   19.4690 O   0  0  0  0  0  0  0  0  0  0  0  0
    5.8090   -4.7850   20.0050 O   0  0  0  0  0  0  0  0  0  0  0  0
    6.0120   -2.5750   21.3180 N   0  0  0  0  0  0  0  0  0  0  0  0
    7.0200   -1.4970   21.2260 C   0  0  0  0  0  0  0  0  0  0  0  0
    8.2220   -2.0820   22.0000 C   0  0  2  0  0  0  0  0  0  0  0  0
    7.9200   -3.6000   21.9220 C   0  0  0  0  0  0  0  0  0  0  0  0
    6.4720   -3.4500   22.3900 C   0  0  1  0  0  0  0  0  0  0  0  0
    6.8670   -2.6610   23.6600 C   0  0  0  0  0  0  0  0  0  0  0  0
    8.0010   -1.7620   23.4480 N   0  0  0  0  0  0  0  0  0  0  0  0
    9.1490   -2.0000   24.3110 C   0  0  2  0  0  0  0  0  0  0  0  0
   10.4530   -1.3330   23.8150 C   0  0  0  0  0  0  0  0  0  0  0  0
   11.4640   -1.9450   22.8530 C   0  0  0  0  0  0  0  0  0  0  0  0
   12.7050   -1.1600   22.4470 C   0  0  0  0  0  0  0  0  0  0  0  0
   12.9570    0.2330   22.9810 C   0  0  0  0  0  0  0  0  0  0  0  0
   11.9370    0.8380   23.9390 C   0  0  0  0  0  0  0  0  0  0  0  0
   10.6890    0.0680   24.3670 C   0  0  0  0  0  0  0  0  0  0  0  0
    9.2910   -3.4950   24.7880 C   0  0  0  0  0  0  0  0  0  0  0  0
    8.3920   -3.8590   26.0160 C   0  0  0  0  0  0  0  0  0  0  0  0
    8.6510   -5.2560   26.5500 C   0  0  0  0  0  0  0  0  0  0  0  0
    8.4540   -6.1330   25.4720 O   0  0  0  0  0  0  0  0  0  0  0  0
    9.3880   -5.9240   24.4300 C   0  0  0  0  0  0  0  0  0  0  0  0
    9.0670   -4.6130   23.7660 C   0  0  0  0  0  0  0  0  0  0  0  0
  1  2  1  0
  3  2  1  0
  3  4  2  0
  3  5  2  0
  3  6  1  0
  6  7  1  0
  8  7  1  6
  8  9  1  0
  6 10  1  0
  9 10  1  0
 10 11  1  1
  8 12  1  0
 11 12  1  0
 12 13  1  0
 13 14  1  6
 14 15  2  0
 15 16  1  0
 16 17  2  0
 17 18  1  0
 14 19  1  0
 18 19  2  0
 13 20  1  0
 20 21  1  0
 21 22  1  0
 22 23  1  0
 23 24  1  0
 20 25  1  0
 24 25  1  0
M  END
