MAK-UNK-516d8086-9-nitrile
     RDKit          3D

 22 24  0  0  0  0  0  0  0  0999 V2000
    7.3510   -3.8340   20.0380 C   0  0  0  0  0  0  0  0  0  0  0  0
    6.1650   -3.6560   19.5590 N   0  0  0  0  0  0  0  0  0  0  0  0
    7.6820   -3.5990   21.5580 C   0  0  0  0  0  0  0  0  0  0  0  0
    6.6770   -3.7650   22.6990 C   0  0  0  0  0  0  0  0  0  0  0  0
    6.9490   -3.5850   24.0220 N   0  0  0  0  0  0  0  0  0  0  0  0
    8.2180   -3.2270   24.4350 C   0  0  0  0  0  0  0  0  0  0  0  0
    8.4170   -3.0840   25.7510 N   0  0  0  0  0  0  0  0  0  0  0  0
    8.0930   -4.2640   26.5810 C   0  0  0  0  0  0  0  0  0  0  0  0
    9.1870   -4.7560   27.3180 C   0  0  0  0  0  0  0  0  0  0  0  0
    9.3470   -3.0020   23.5360 C   0  0  0  0  0  0  0  0  0  0  0  0
   10.6870   -2.6200   23.9270 C   0  0  0  0  0  0  0  0  0  0  0  0
   11.0440   -1.5990   23.0760 C   0  0  0  0  0  0  0  0  0  0  0  0
   11.8710   -0.6430   23.4870 C   0  0  0  0  0  0  0  0  0  0  0  0
   12.0000   -1.2660   24.6450 C   0  0  0  0  0  0  0  0  0  0  0  0
   11.1610   -2.4460   24.4650 C   0  0  0  0  0  0  0  0  0  0  0  0
   10.3570   -2.8350   23.2840 C   0  0  0  0  0  0  0  0  0  0  0  0
   10.3590   -1.9650   22.0800 C   0  0  0  0  0  0  0  0  0  0  0  0
    9.6190   -4.1800   23.5440 C   0  0  0  0  0  0  0  0  0  0  0  0
    8.9750   -5.6380   24.0070 S   0  0  0  0  0  0  0  0  0  0  0  0
   10.4270   -4.4260   24.6880 N   0  0  0  0  0  0  0  0  0  0  0  0
   10.9940   -3.4030   25.3700 C   0  0  0  0  0  0  0  0  0  0  0  0
    9.0940   -3.1860   22.0420 C   0  0  0  0  0  0  0  0  0  0  0  0
  1  2  2  3
  1  3  1  0
  3  4  2  0
  4  5  1  0
  5  6  2  0
  6  7  1  0
  7  8  1  0
  8  9  1  0
  6 10  1  0
 10 11  1  0
 11 12  1  0
 12 13  2  0
 13 14  1  0
 14 15  2  0
 15 16  1  0
 12 17  1  0
 16 17  2  0
 16 18  1  0
 18 19  2  0
 18 20  1  0
 15 21  1  0
 20 21  1  0
  3 22  1  0
 10 22  2  0
M  END
