MAK-UNK-704ed37c-3-acrylamide
     RDKit          3D

 17 18  0  0  0  0  0  0  0  0999 V2000
    7.3230   -2.9210   18.5610 C   0  0  0  0  0  0  0  0  0  0  0  0
    6.4220   -2.6410   19.7310 C   0  0  0  0  0  0  0  0  0  0  0  0
    5.9950   -3.8940   20.4500 C   0  0  0  0  0  0  0  0  0  0  0  0
    5.1790   -4.6730   19.9490 O   0  0  0  0  0  0  0  0  0  0  0  0
    6.6100   -4.1020   21.6690 N   0  0  0  0  0  0  0  0  0  0  0  0
    6.4250   -5.3680   22.3810 C   0  0  0  0  0  0  0  0  0  0  0  0
    5.9970   -5.1060   23.8270 C   0  0  0  0  0  0  0  0  0  0  0  0
    6.0500   -3.6020   24.1470 C   0  0  0  0  0  0  0  0  0  0  0  0
    5.6300   -3.2440   25.5470 C   0  0  0  0  0  0  0  0  0  0  0  0
    4.4590   -2.4220   25.4610 O   0  0  0  0  0  0  0  0  0  0  0  0
    6.2400   -3.6300   26.7120 N   0  0  0  0  0  0  0  0  0  0  0  0
    7.5840   -4.0370   27.0000 C   0  0  0  0  0  0  0  0  0  0  0  0
    7.3450   -4.8660   28.2480 C   0  0  0  0  0  0  0  0  0  0  0  0
    6.2140   -4.2500   28.9180 O   0  0  0  0  0  0  0  0  0  0  0  0
    5.5900   -3.3630   27.9800 C   0  0  0  0  0  0  0  0  0  0  0  0
    7.3950   -3.0030   23.7550 C   0  0  0  0  0  0  0  0  0  0  0  0
    7.5250   -3.0990   22.2510 C   0  0  0  0  0  0  0  0  0  0  0  0
  1  2  1  0
  2  3  1  0
  3  4  2  0
  3  5  1  0
  5  6  1  0
  6  7  1  0
  7  8  1  0
  8  9  1  0
  9 10  2  0
  9 11  1  0
 11 12  1  0
 12 13  1  0
 13 14  1  0
 11 15  1  0
 14 15  1  0
  8 16  1  0
  5 17  1  0
 16 17  1  0
M  END
