MAK-UNK-516d8086-6-vinylsulfonamide
     RDKit          3D

 25 27  0  0  0  0  0  0  0  0999 V2000
    8.4180   -3.3760   20.1440 C   0  0  0  0  0  0  0  0  0  0  0  0
    7.0970   -3.9250   20.6530 C   0  0  0  0  0  0  0  0  0  0  0  0
    6.2370   -2.8400   21.6930 S   0  0  0  0  0  0  0  0  0  0  0  0
    4.8390   -3.4940   21.8090 O   0  0  0  0  0  0  0  0  0  0  0  0
    6.4090   -1.5250   21.1480 O   0  0  0  0  0  0  0  0  0  0  0  0
    7.4810   -2.9340   23.1900 C   0  0  0  0  0  0  0  0  0  0  0  0
    8.8850   -2.1200   23.0350 C   0  0  0  0  0  0  0  0  0  0  0  0
    9.9020   -2.3040   24.2370 C   0  0  0  0  0  0  0  0  0  0  0  0
   11.4830   -2.1050   24.1880 C   0  0  0  0  0  0  0  0  0  0  0  0
   11.9560   -0.8740   23.2670 C   0  0  0  0  0  0  0  0  0  0  0  0
   12.4000   -0.7370   24.5920 C   0  0  0  0  0  0  0  0  0  0  0  0
   11.9330   -1.9670   25.2970 C   0  0  0  0  0  0  0  0  0  0  0  0
   11.1560   -3.1890   24.9110 C   0  0  0  0  0  0  0  0  0  0  0  0
   10.8280   -2.8870   23.2030 C   0  0  0  0  0  0  0  0  0  0  0  0
   11.2720   -1.7570   22.5580 C   0  0  0  0  0  0  0  0  0  0  0  0
   10.0670   -3.8440   22.5010 C   0  0  0  0  0  0  0  0  0  0  0  0
    9.0430   -4.8640   22.0950 O   0  0  0  0  0  0  0  0  0  0  0  0
    9.5030   -3.6750   23.6700 N   0  0  0  0  0  0  0  0  0  0  0  0
   10.4720   -4.2630   24.5710 C   0  0  0  0  0  0  0  0  0  0  0  0
    9.1740   -2.7940   25.5490 C   0  0  0  0  0  0  0  0  0  0  0  0
    9.8950   -3.0930   26.7260 N   0  0  0  0  0  0  0  0  0  0  0  0
    9.4150   -4.1290   27.4600 C   0  0  0  0  0  0  0  0  0  0  0  0
   10.4130   -5.0290   27.4700 C   0  0  0  0  0  0  0  0  0  0  0  0
    7.8320   -2.9800   25.5910 N   0  0  0  0  0  0  0  0  0  0  0  0
    7.3170   -3.7090   24.4360 C   0  0  0  0  0  0  0  0  0  0  0  0
  1  2  1  0
  3  2  1  0
  3  4  2  0
  3  5  2  0
  3  6  1  0
  6  7  2  0
  7  8  1  0
  8  9  1  0
  9 10  1  0
 10 11  2  0
 11 12  1  0
 12 13  2  0
 13 14  1  0
 10 15  1  0
 14 15  2  0
 14 16  1  0
 16 17  2  0
 16 18  1  0
 13 19  1  0
 18 19  1  0
  8 20  2  0
 20 21  1  0
 21 22  1  0
 22 23  1  0
 20 24  1  0
  6 25  1  0
 24 25  1  0
M  END
