MAK-UNK-a7992eb3-3-acrylamide
     RDKit          3D

 39 41  0  0  0  0  0  0  0  0999 V2000
    7.2700   -3.0420   19.0540 C   0  0  0  0  0  0  0  0  0  0  0  0
    6.8660   -3.0540   20.5060 C   0  0  0  0  0  0  0  0  0  0  0  0
    6.1280   -4.3430   20.7520 C   0  0  0  0  0  0  0  0  0  0  0  0
    5.1970   -4.6710   20.0060 O   0  0  0  0  0  0  0  0  0  0  0  0
    6.5220   -5.1510   21.8190 N   0  0  0  0  0  0  0  0  0  0  0  0
    7.1740   -4.5550   22.8580 C   0  0  0  0  0  0  0  0  0  0  0  0
    6.4340   -4.0660   23.9290 C   0  0  0  0  0  0  0  0  0  0  0  0
    5.4650   -4.9250   24.4690 C   0  0  0  0  0  0  0  0  0  0  0  0
    4.6540   -4.4530   25.5330 C   0  0  0  0  0  0  0  0  0  0  0  0
    5.0970   -4.9230   26.8140 O   0  0  0  0  0  0  0  0  0  0  0  0
    3.5700   -3.5820   25.2950 N   0  0  0  0  0  0  0  0  0  0  0  0
    3.8100   -2.1290   25.4030 C   0  0  0  0  0  0  0  0  0  0  0  0
    3.2720   -0.6960   25.6780 C   0  0  0  0  0  0  0  0  0  0  0  0
    1.7600   -0.5720   26.0160 C   0  0  0  0  0  0  0  0  0  0  0  0
    0.8060   -1.8060   26.0720 C   0  0  0  0  0  0  0  0  0  0  0  0
    1.3870   -3.1980   25.7910 C   0  0  0  0  0  0  0  0  0  0  0  0
    2.4480   -2.1160   25.6780 C   0  0  0  0  0  0  0  0  0  0  0  0
    2.0120   -0.9740   25.8570 O   0  0  0  0  0  0  0  0  0  0  0  0
    1.3500   -0.2190   24.7910 C   0  0  0  0  0  0  0  0  0  0  0  0
    2.1000    0.6310   23.9470 C   0  0  0  0  0  0  0  0  0  0  0  0
    1.4810    1.3580   22.9090 C   0  0  0  0  0  0  0  0  0  0  0  0
    0.1070    1.2600   22.6830 C   0  0  0  0  0  0  0  0  0  0  0  0
   -0.4970    1.9790   21.6490 C   0  0  0  0  0  0  0  0  0  0  0  0
   -1.6540    2.6310   22.1000 C   0  0  2  0  0  0  0  0  0  0  0  0
   -2.6040    2.8710   22.7240 N   0  0  0  0  0  0  0  0  0  0  0  0
   -2.4930    3.3770   23.9970 C   0  0  0  0  0  0  0  0  0  0  0  0
   -1.3160    3.0150   24.6670 C   0  0  0  0  0  0  0  0  0  0  0  0
   -3.3510    4.0930   24.5280 O   0  0  0  0  0  0  0  0  0  0  0  0
   -2.4370    2.5280   20.7710 C   0  0  0  0  0  0  0  0  0  0  0  0
   -2.7740    3.5240   20.1290 O   0  0  0  0  0  0  0  0  0  0  0  0
   -2.7260    1.2430   20.3620 N   0  0  0  0  0  0  0  0  0  0  0  0
   -4.0940    0.8580   20.1270 C   0  0  0  0  0  0  0  0  0  0  0  0
   -4.1520   -0.5340   20.0190 C   0  0  0  0  0  0  0  0  0  0  0  0
   -5.2120   -1.2420   20.5830 C   0  0  0  0  0  0  0  0  0  0  0  0
   -6.6600   -2.2080   21.3620 Br  0  0  0  0  0  0  0  0  0  0  0  0
   -0.6330    0.4240   23.5210 C   0  0  0  0  0  0  0  0  0  0  0  0
   -0.0290   -0.2980   24.5500 C   0  0  0  0  0  0  0  0  0  0  0  0
    4.6420   -5.4970   23.3050 C   0  0  0  0  0  0  0  0  0  0  0  0
    5.5540   -6.1450   22.2660 C   0  0  0  0  0  0  0  0  0  0  0  0
  1  2  1  0
  2  3  1  0
  3  4  2  0
  3  5  1  0
  5  6  1  0
  6  7  1  0
  7  8  1  0
  8  9  1  0
  9 10  2  0
  9 11  1  0
 11 12  1  0
 12 13  2  0
 13 14  1  0
 14 15  2  0
 15 16  1  0
 12 17  1  0
 16 17  2  0
 17 18  1  0
 18 19  1  0
 19 20  2  0
 20 21  1  0
 21 22  2  0
 22 23  1  0
 24 23  1  1
 24 25  1  0
 25 26  1  0
 26 27  1  0
 26 28  2  0
 24 29  1  0
 29 30  2  0
 29 31  1  0
 31 32  1  0
 32 33  1  0
 33 34  3  0
 34 35  1  0
 22 36  1  0
 19 37  1  0
 36 37  2  0
  8 38  1  0
  5 39  1  0
 38 39  1  0
M  END
