MAK-UNK-e4a48a85-18-acrylamide
     RDKit          3D

 30 32  0  0  0  0  0  0  0  0999 V2000
    7.2740   -3.1440   19.1370 C   0  0  0  0  0  0  0  0  0  0  0  0
    5.9470   -2.5050   19.5640 C   0  0  0  0  0  0  0  0  0  0  0  0
    5.7880   -2.6990   21.0510 C   0  0  0  0  0  0  0  0  0  0  0  0
    4.8870   -3.3600   21.5500 O   0  0  0  0  0  0  0  0  0  0  0  0
    6.7240   -2.1200   21.8590 N   0  0  0  0  0  0  0  0  0  0  0  0
    7.6720   -1.1100   21.3710 C   0  0  0  0  0  0  0  0  0  0  0  0
    9.0300   -1.7440   21.7160 C   0  0  0  0  0  0  0  0  0  0  0  0
    9.0890   -1.9110   23.2010 N   0  0  0  0  0  0  0  0  0  0  0  0
   10.4740   -1.9360   23.7010 C   0  0  0  0  0  0  0  0  0  0  0  0
   11.2700   -0.6000   23.3650 C   0  0  0  0  0  0  0  0  0  0  0  0
   12.6590   -0.7130   22.7420 C   0  0  0  0  0  0  0  0  0  0  0  0
   13.3660    0.6410   22.4410 C   0  0  0  0  0  0  0  0  0  0  0  0
   12.7450    2.0270   22.7340 C   0  0  0  0  0  0  0  0  0  0  0  0
   13.2980    3.2380   22.4980 N   0  0  0  0  0  0  0  0  0  0  0  0
   14.5690    3.0590   21.9090 C   0  0  0  0  0  0  0  0  0  0  0  0
   15.7710    3.9880   22.2980 C   0  0  0  0  0  0  0  0  0  0  0  0
   17.0380    3.5300   22.8290 N   0  0  0  0  0  0  0  0  0  0  0  0
   17.7290    4.0410   23.9390 C   0  0  0  0  0  0  0  0  0  0  0  0
   19.1470    4.0820   24.1500 N   0  0  0  0  0  0  0  0  0  0  0  0
   19.9110    3.0730   24.9580 C   0  0  0  0  0  0  0  0  0  0  0  0
   20.1260    3.4610   26.3960 C   0  0  0  0  0  0  0  0  0  0  0  0
   20.8090    4.8450   26.4280 C   0  0  0  0  0  0  0  0  0  0  0  0
   21.9920    4.8080   27.2250 O   0  0  0  0  0  0  0  0  0  0  0  0
   21.1200    5.3290   25.0130 C   0  0  0  0  0  0  0  0  0  0  0  0
   19.9080    5.3320   24.0800 C   0  0  0  0  0  0  0  0  0  0  0  0
   11.4380    2.0410   23.3210 C   0  0  0  0  0  0  0  0  0  0  0  0
   10.6680    3.3030   23.6750 C   0  0  0  0  0  0  0  0  0  0  0  0
   10.6300    0.7660   23.6700 C   0  0  0  0  0  0  0  0  0  0  0  0
    8.0760   -2.8570   23.6470 C   0  0  0  0  0  0  0  0  0  0  0  0
    6.8150   -2.4630   23.2740 C   0  0  0  0  0  0  0  0  0  0  0  0
  1  2  1  0
  2  3  1  0
  3  4  2  0
  3  5  1  0
  5  6  1  0
  6  7  1  0
  7  8  1  0
  8  9  1  0
  9 10  1  0
 10 11  2  0
 11 12  1  0
 12 13  2  0
 13 14  1  0
 14 15  1  0
 15 16  1  0
 16 17  1  0
 17 18  1  0
 18 19  1  0
 19 20  1  0
 20 21  1  0
 21 22  1  0
 22 23  1  0
 22 24  1  0
 19 25  1  0
 24 25  1  0
 13 26  1  0
 26 27  1  0
 10 28  1  0
 26 28  2  0
  8 29  1  0
  5 30  1  0
 29 30  1  0
M  END
