MAK-UNK-8fdbca50-20-chloroacetamide
     RDKit          3D

 39 42  0  0  0  0  0  0  0  0999 V2000
    8.9680   -4.5840   20.4280 C   0  0  0  0  0  0  0  0  0  0  0  0
    7.7350   -3.7650   20.5090 C   0  0  0  0  0  0  0  0  0  0  0  0
    6.6710   -3.8440   19.7110 O   0  0  0  0  0  0  0  0  0  0  0  0
    7.9590   -2.9100   21.6220 N   0  0  0  0  0  0  0  0  0  0  0  0
    8.3170   -3.4530   22.8690 C   0  0  0  0  0  0  0  0  0  0  0  0
    9.8250   -3.4540   23.3670 C   0  0  0  0  0  0  0  0  0  0  0  0
   10.7360   -2.5650   22.5150 C   0  0  0  0  0  0  0  0  0  0  0  0
   12.1300   -2.2690   23.2890 C   0  0  0  0  0  0  0  0  0  0  0  0
   12.5470   -1.0900   23.2860 O   0  0  0  0  0  0  0  0  0  0  0  0
   12.8940   -3.3030   24.0410 N   0  0  0  0  0  0  0  0  0  0  0  0
   14.4770   -3.1890   24.0390 C   0  0  0  0  0  0  0  0  0  0  0  0
   16.0260   -4.2890   24.8140 S   0  0  1  0  0  0  0  0  0  0  0  0
   17.4210   -4.5700   25.0670 O   0  0  0  0  0  0  0  0  0  0  0  0
   17.8330   -3.7610   24.7420 C   0  0  0  0  0  0  0  0  0  0  0  0
   18.3410   -2.6420   25.4460 C   0  0  0  0  0  0  0  0  0  0  0  0
   19.5860   -2.3580   25.3130 C   0  0  0  0  0  0  0  0  0  0  0  0
   20.4550   -3.0770   24.5340 C   0  0  0  0  0  0  0  0  0  0  0  0
   20.2520   -4.2100   23.7630 N   0  0  0  0  0  0  0  0  0  0  0  0
   18.7700   -4.4000   24.0460 C   0  0  0  0  0  0  0  0  0  0  0  0
   15.8360   -5.4120   25.4980 N   0  0  0  0  0  0  0  0  0  0  0  0
   16.8310   -6.1920   25.2740 C   0  0  0  0  0  0  0  0  0  0  0  0
   16.5310   -7.1040   25.9310 C   0  0  0  0  0  0  0  0  0  0  0  0
   17.3180   -8.1010   25.8500 C   0  0  0  0  0  0  0  0  0  0  0  0
   16.4190   -8.4150   26.5840 N   0  0  0  0  0  0  0  0  0  0  0  0
   15.4530   -7.5140   26.8220 C   0  0  0  0  0  0  0  0  0  0  0  0
   15.3190   -6.9140   26.6620 C   0  0  0  0  0  0  0  0  0  0  0  0
   14.8160   -5.5970   26.2260 C   0  0  0  0  0  0  0  0  0  0  0  0
   13.8140   -4.4030   26.1010 C   0  0  0  0  0  0  0  0  0  0  0  0
   12.3980   -4.5210   25.9170 C   0  0  0  0  0  0  0  0  0  0  0  0
   11.4480   -3.5600   25.6160 C   0  0  0  0  0  0  0  0  0  0  0  0
   11.7860   -2.2550   25.4290 C   0  0  0  0  0  0  0  0  0  0  0  0
   13.2450   -1.7990   25.5930 C   0  0  0  0  0  0  0  0  0  0  0  0
   14.1880   -3.0160   25.9560 C   0  0  0  0  0  0  0  0  0  0  0  0
   15.4290   -2.6490   26.0910 F   0  0  0  0  0  0  0  0  0  0  0  0
   12.4020   -3.5840   25.4070 C   0  0  0  0  0  0  0  0  0  0  0  0
   13.4460   -4.1170   26.1810 C   0  0  0  0  0  0  0  0  0  0  0  0
   11.0270   -4.3180   25.5150 C   0  0  0  0  0  0  0  0  0  0  0  0
    9.9190   -1.3050   22.1520 C   0  0  0  0  0  0  0  0  0  0  0  0
    8.5470   -1.5680   21.4540 C   0  0  0  0  0  0  0  0  0  0  0  0
  1  2  1  0
  2  3  2  0
  2  4  1  0
  4  5  1  0
  5  6  1  0
  6  7  1  0
  7  8  1  0
  8  9  2  0
  8 10  1  0
 10 11  1  0
 11 12  2  0
 12 13  2  0
 12 14  1  1
 14 15  2  0
 15 16  1  0
 16 17  2  0
 17 18  1  0
 14 19  1  0
 18 19  2  0
 12 20  1  0
 20 21  1  0
 21 22  2  0
 22 23  1  0
 23 24  1  0
 24 25  1  0
 22 26  1  0
 20 27  1  0
 26 27  2  0
 27 28  1  0
 28 29  2  0
 29 30  1  0
 30 31  2  0
 31 32  1  0
 28 33  1  0
 32 33  2  0
 33 34  1  0
 10 35  1  0
 35 36  1  0
 35 37  1  0
  7 38  1  0
  4 39  1  0
 38 39  1  0
M  END
