MAK-UNK-af83ef51-24-chloroacetamide
     RDKit          3D

 29 31  0  0  0  0  0  0  0  0999 V2000
    7.3180   -3.8520   20.7420 C   0  0  0  0  0  0  0  0  0  0  0  0
    7.5570   -5.1490   21.5290 C   0  0  0  0  0  0  0  0  0  0  0  0
    7.1800   -5.5080   20.2510 O   0  0  0  0  0  0  0  0  0  0  0  0
    7.9120   -4.3800   22.8090 N   0  0  0  0  0  0  0  0  0  0  0  0
    7.0010   -3.7800   23.7550 C   0  0  0  0  0  0  0  0  0  0  0  0
    7.3980   -2.5590   24.3450 C   0  0  0  0  0  0  0  0  0  0  0  0
    8.8670   -2.3390   24.4130 N   0  0  0  0  0  0  0  0  0  0  0  0
    9.4390   -1.9320   23.0860 C   0  0  0  0  0  0  0  0  0  0  0  0
   10.7920   -1.6070   23.1130 C   0  0  1  0  0  0  0  0  0  0  0  0
   11.4890   -1.8150   21.9430 C   0  0  0  0  0  0  0  0  0  0  0  0
   12.9670   -1.6060   22.1510 C   0  0  1  0  0  0  0  0  0  0  0  0
   13.4710   -0.3130   21.5490 C   0  0  0  0  0  0  0  0  0  0  0  0
   13.2770   -1.6900   23.4780 C   0  0  0  0  0  0  0  0  0  0  0  0
   12.6460   -0.5510   24.2920 C   0  0  2  0  0  0  0  0  0  0  0  0
   12.4060   -0.6490   25.6690 C   0  0  0  0  0  0  0  0  0  0  0  0
   10.9810   -0.4480   26.0980 N   0  0  0  0  0  0  0  0  0  0  0  0
    9.9210   -0.3900   25.2230 C   0  0  0  0  0  0  0  0  0  0  0  0
    9.7140    0.8760   24.7170 N   0  0  0  0  0  0  0  0  0  0  0  0
   10.8790    1.3550   24.0430 C   0  0  0  0  0  0  0  0  0  0  0  0
   11.5690    2.4980   23.5380 C   0  0  0  0  0  0  0  0  0  0  0  0
   12.6670    1.6600   23.0810 C   0  0  0  0  0  0  0  0  0  0  0  0
   12.4060    3.0950   23.0400 C   0  0  0  0  0  0  0  0  0  0  0  0
   13.4320    3.9800   22.3980 C   0  0  0  0  0  0  0  0  0  0  0  0
   13.3230    5.3370   22.4940 N   0  0  0  0  0  0  0  0  0  0  0  0
   11.1160    3.4240   23.6590 C   0  0  0  0  0  0  0  0  0  0  0  0
   10.3480    2.5800   24.1530 N   0  0  0  0  0  0  0  0  0  0  0  0
   11.2590   -0.4060   23.6920 C   0  0  0  0  0  0  0  0  0  0  0  0
    9.4290   -3.6000   24.7500 C   0  0  0  0  0  0  0  0  0  0  0  0
    9.1300   -4.6030   23.6560 C   0  0  0  0  0  0  0  0  0  0  0  0
  1  2  1  0
  2  3  2  0
  2  4  1  0
  4  5  1  0
  5  6  1  0
  6  7  1  0
  7  8  1  0
  9  8  1  6
  9 10  1  0
 10 11  1  0
 11 12  1  1
 11 13  1  0
 13 14  1  0
 14 15  1  1
 15 16  1  0
 16 17  1  0
 17 18  1  0
 18 19  1  0
 19 20  2  0
 20 21  1  0
 21 22  2  0
 22 23  1  0
 23 24  3  0
 22 25  1  0
 19 26  1  0
 25 26  2  0
  9 27  1  0
 14 27  1  0
  7 28  1  0
  4 29  1  0
 28 29  1  0
M  END
