MAK-UNK-212f693e-9-vinylsulfonamide
     RDKit          3D

 17 18  0  0  0  0  0  0  0  0999 V2000
    6.7540   -3.6240   19.8510 C   0  0  0  0  0  0  0  0  0  0  0  0
    6.2450   -4.4860   21.0040 C   0  0  0  0  0  0  0  0  0  0  0  0
    5.6830   -3.4780   22.3500 S   0  0  0  0  0  0  0  0  0  0  0  0
    4.2710   -3.2820   22.1960 O   0  0  0  0  0  0  0  0  0  0  0  0
    6.5670   -2.3310   22.4670 O   0  0  0  0  0  0  0  0  0  0  0  0
    5.8610   -4.4680   23.6850 N   0  0  0  0  0  0  0  0  0  0  0  0
    6.8450   -4.1200   24.6870 C   0  0  0  0  0  0  0  0  0  0  0  0
    8.0770   -4.9840   24.4970 C   0  0  0  0  0  0  0  0  0  0  0  0
    8.1420   -5.7650   23.4080 N   0  0  0  0  0  0  0  0  0  0  0  0
    8.6640   -4.9170   22.3380 O   0  0  0  0  0  0  0  0  0  0  0  0
    9.4380   -3.7370   22.7150 C   0  0  0  0  0  0  0  0  0  0  0  0
    9.3610   -2.4510   22.1510 C   0  0  0  0  0  0  0  0  0  0  0  0
   10.1740   -1.4470   22.6090 C   0  0  0  0  0  0  0  0  0  0  0  0
   11.1760   -1.9920   23.8500 S   0  0  0  0  0  0  0  0  0  0  0  0
   10.4630   -3.5600   23.7100 C   0  0  0  0  0  0  0  0  0  0  0  0
    7.0120   -6.3260   22.8060 C   0  0  0  0  0  0  0  0  0  0  0  0
    5.7880   -5.8980   23.3460 C   0  0  0  0  0  0  0  0  0  0  0  0
  1  2  1  0
  3  2  1  0
  3  4  2  0
  3  5  2  0
  3  6  1  0
  6  7  1  0
  7  8  1  0
  8  9  1  0
  9 10  1  0
 10 11  1  0
 11 12  1  0
 12 13  2  0
 13 14  1  0
 11 15  2  0
 14 15  1  0
  9 16  1  0
  6 17  1  0
 16 17  1  0
M  END
