MAK-UNK-f2409524-14
     RDKit          3D

 25 26  0  0  0  0  0  0  0  0999 V2000
    3.3920    0.7230   21.0470 C   0  0  0  0  0  0  0  0  0  0  0  0
    4.7040    0.5020   21.7400 C   0  0  2  0  0  0  0  0  0  0  0  0
    4.7620    1.5640   22.8550 C   0  0  0  0  0  0  0  0  0  0  0  0
    3.7740    2.5150   22.6820 N   0  0  0  0  0  0  0  0  0  0  0  0
    2.8180    2.1990   23.5480 C   0  0  0  0  0  0  0  0  0  0  0  0
    2.6000    1.0190   23.7790 O   0  0  0  0  0  0  0  0  0  0  0  0
    1.9870    3.1390   24.2900 N   0  0  0  0  0  0  0  0  0  0  0  0
    0.8370    3.7370   23.7890 C   0  0  0  0  0  0  0  0  0  0  0  0
    0.4210    4.6510   24.7410 C   0  0  0  0  0  0  0  0  0  0  0  0
   -0.7730    5.2890   24.3970 C   0  0  0  0  0  0  0  0  0  0  0  0
   -1.8480    4.3950   24.2280 C   0  0  0  0  0  0  0  0  0  0  0  0
   -1.5920    3.0250   23.6490 C   0  0  0  0  0  0  0  0  0  0  0  0
   -0.0950    2.6910   23.5430 C   0  0  0  0  0  0  0  0  0  0  0  0
    5.6580    0.8400   20.8080 N   0  0  0  0  0  0  0  0  0  0  0  0
    6.2010   -0.1200   19.9730 C   0  0  0  0  0  0  0  0  0  0  0  0
    6.6830   -1.1810   20.3390 O   0  0  0  0  0  0  0  0  0  0  0  0
    6.2760   -0.0090   18.5910 C   0  0  0  0  0  0  0  0  0  0  0  0
    5.4070    0.8640   17.9340 C   0  0  0  0  0  0  0  0  0  0  0  0
    4.9840    1.8300   18.8230 N   0  0  0  0  0  0  0  0  0  0  0  0
    4.1150    2.8350   18.1930 C   0  0  0  0  0  0  0  0  0  0  0  0
    2.9370    3.2180   18.8410 C   0  0  0  0  0  0  0  0  0  0  0  0
    2.1130    4.1420   18.2750 N   0  0  0  0  0  0  0  0  0  0  0  0
    2.4960    4.6570   17.0610 C   0  0  0  0  0  0  0  0  0  0  0  0
    3.6090    4.3660   16.3360 N   0  0  0  0  0  0  0  0  0  0  0  0
    4.4050    3.4460   16.9350 C   0  0  0  0  0  0  0  0  0  0  0  0
  2  1  1  6
  2  3  1  0
  3  4  1  0
  4  5  1  0
  5  6  2  0
  5  7  1  0
  7  8  1  0
  8  9  1  0
  9 10  1  0
 10 11  1  0
 11 12  1  0
  8 13  1  0
 12 13  1  0
  2 14  1  0
 14 15  1  0
 15 16  2  0
 15 17  1  0
 17 18  1  0
 18 19  1  0
 19 20  1  0
 20 21  2  0
 21 22  1  0
 22 23  2  0
 23 24  1  0
 20 25  1  0
 24 25  2  0
M  END
