MAK-UNK-5d2caa6f-24-chloroacetamide
     RDKit          3D

 24 27  0  0  0  0  0  0  0  0999 V2000
    7.1470   -2.9880   18.8340 C   0  0  0  0  0  0  0  0  0  0  0  0
    6.1970   -3.3730   19.9290 C   0  0  0  0  0  0  0  0  0  0  0  0
    5.2890   -4.1720   19.7280 O   0  0  0  0  0  0  0  0  0  0  0  0
    6.4170   -2.8140   21.1570 N   0  0  0  0  0  0  0  0  0  0  0  0
    6.3690   -3.5970   22.3830 C   0  0  0  0  0  0  0  0  0  0  0  0
    7.1600   -2.9700   23.3430 C   0  0  2  0  0  0  0  0  0  0  0  0
    6.5770   -1.7070   23.0070 C   0  0  0  0  0  0  0  0  0  0  0  0
    7.0170   -1.5350   21.5830 C   0  0  1  0  0  0  0  0  0  0  0  0
    8.4750   -1.7410   21.8080 C   0  0  0  0  0  0  0  0  0  0  0  0
    8.3970   -2.0670   23.2360 N   0  0  0  0  0  0  0  0  0  0  0  0
    9.6220   -2.6110   23.9150 C   0  0  1  0  0  0  0  0  0  0  0  0
   10.7480   -1.5900   23.6930 C   0  0  0  0  0  0  0  0  0  0  0  0
   11.7700   -2.0100   22.6500 C   0  0  0  0  0  0  0  0  0  0  0  0
   12.9070   -1.0320   22.3630 C   0  0  0  0  0  0  0  0  0  0  0  0
   12.9560    0.2120   23.0710 C   0  0  0  0  0  0  0  0  0  0  0  0
   11.8700    0.5000   24.0830 C   0  0  0  0  0  0  0  0  0  0  0  0
   10.8400   -0.3860   24.3510 C   0  0  0  0  0  0  0  0  0  0  0  0
    9.4600   -2.9610   25.4460 C   0  0  2  0  0  0  0  0  0  0  0  0
   10.0840   -4.2920   25.8930 C   0  0  0  0  0  0  0  0  0  0  0  0
    9.3840   -4.9210   27.1070 C   0  0  0  0  0  0  0  0  0  0  0  0
    7.9770   -5.0510   26.8820 N   0  0  0  0  0  0  0  0  0  0  0  0
    7.3170   -4.0820   25.9840 C   0  0  0  0  0  0  0  0  0  0  0  0
    6.2830   -4.3440   25.3710 O   0  0  0  0  0  0  0  0  0  0  0  0
    7.9860   -2.8540   25.9420 C   0  0  0  0  0  0  0  0  0  0  0  0
  1  2  1  0
  2  3  2  0
  2  4  1  0
  4  5  1  0
  6  5  1  6
  6  7  1  0
  4  8  1  0
  7  8  1  0
  8  9  1  1
  6 10  1  0
  9 10  1  0
 10 11  1  0
 11 12  1  1
 12 13  2  0
 13 14  1  0
 14 15  2  0
 15 16  1  0
 12 17  1  0
 16 17  2  0
 11 18  1  0
 18 19  1  6
 19 20  1  0
 20 21  1  0
 21 22  1  0
 22 23  2  0
 18 24  1  0
 22 24  1  0
M  END
