MAK-UNK-702fb7d3-13-chloroacetamide
     RDKit          3D

 42 47  0  0  0  0  0  0  0  0999 V2000
    7.2840   -5.1240   21.2280 C   0  0  0  0  0  0  0  0  0  0  0  0
    7.4600   -3.6800   21.0250 C   0  0  0  0  0  0  0  0  0  0  0  0
    6.9910   -3.3670   19.7620 O   0  0  0  0  0  0  0  0  0  0  0  0
    8.0050   -2.9800   22.2540 N   0  0  0  0  0  0  0  0  0  0  0  0
    9.4200   -2.7310   22.7880 C   0  0  0  0  0  0  0  0  0  0  0  0
    9.5840   -3.5050   24.1820 C   0  0  0  0  0  0  0  0  0  0  0  0
   11.0490   -3.3600   24.5990 C   0  0  0  0  0  0  0  0  0  0  0  0
   11.4000   -4.0670   25.9340 C   0  0  0  0  0  0  0  0  0  0  0  0
   10.2460   -4.8170   26.6820 C   0  0  0  0  0  0  0  0  0  0  0  0
    8.8090   -4.8670   26.1250 C   0  0  0  0  0  0  0  0  0  0  0  0
    8.6300   -4.1720   24.8800 C   0  0  0  0  0  0  0  0  0  0  0  0
    7.2910   -4.2100   24.3570 C   0  0  1  0  0  0  0  0  0  0  0  0
    6.4240   -4.2170   25.3520 C   0  0  0  0  0  0  0  0  0  0  0  0
    5.4620   -5.2660   25.5690 C   0  0  0  0  0  0  0  0  0  0  0  0
    4.6100   -5.2450   26.5840 C   0  0  0  0  0  0  0  0  0  0  0  0
    4.6750   -4.1070   27.4900 C   0  0  0  0  0  0  0  0  0  0  0  0
    5.5750   -3.0470   27.3520 C   0  0  0  0  0  0  0  0  0  0  0  0
    5.5570   -1.9950   28.2760 N   0  0  0  0  0  0  0  0  0  0  0  0
    5.1540   -2.2250   29.7090 C   0  0  0  0  0  0  0  0  0  0  0  0
    3.8050   -2.5760   29.7110 C   0  0  0  0  0  0  0  0  0  0  0  0
    3.3130   -3.7950   30.2400 C   0  0  0  0  0  0  0  0  0  0  0  0
    1.9400   -3.8880   30.1040 C   0  0  0  0  0  0  0  0  0  0  0  0
    1.2230   -5.0040   30.5460 C   0  0  0  0  0  0  0  0  0  0  0  0
    0.1780   -5.6250   29.6200 C   0  0  0  0  0  0  0  0  0  0  0  0
   -0.5820   -6.8440   30.1410 C   0  0  0  0  0  0  0  0  0  0  0  0
   -0.2320   -7.3440   31.5500 C   0  0  0  0  0  0  0  0  0  0  0  0
    0.7440   -6.6880   32.2980 C   0  0  0  0  0  0  0  0  0  0  0  0
    1.4410   -5.5690   31.8190 C   0  0  0  0  0  0  0  0  0  0  0  0
    2.3610   -5.0230   32.6290 F   0  0  0  0  0  0  0  0  0  0  0  0
    1.5560   -2.7020   29.4800 N   0  0  0  0  0  0  0  0  0  0  0  0
    0.0260   -2.1840   29.0240 S   0  0  0  0  0  0  0  0  0  0  0  0
    0.0640   -0.7400   29.1320 O   0  0  0  0  0  0  0  0  0  0  0  0
   -0.3170   -2.8300   27.7780 O   0  0  0  0  0  0  0  0  0  0  0  0
   -1.0560   -2.7990   30.2650 C   0  0  0  0  0  0  0  0  0  0  0  0
   -0.5950   -3.1120   31.5330 C   0  0  0  0  0  0  0  0  0  0  0  0
   -1.4960   -3.5950   32.4740 C   0  0  0  0  0  0  0  0  0  0  0  0
   -2.8280   -3.7460   32.1110 C   0  0  0  0  0  0  0  0  0  0  0  0
   -3.2850   -3.4400   30.8730 N   0  0  0  0  0  0  0  0  0  0  0  0
   -2.3980   -2.9710   29.9610 C   0  0  0  0  0  0  0  0  0  0  0  0
    2.6770   -1.9090   29.2430 C   0  0  0  0  0  0  0  0  0  0  0  0
    6.4510   -3.1270   26.2620 C   0  0  0  0  0  0  0  0  0  0  0  0
    7.0950   -2.9790   23.4330 C   0  0  0  0  0  0  0  0  0  0  0  0
  1  2  1  0
  2  3  2  0
  2  4  1  0
  4  5  1  0
  5  6  1  0
  6  7  1  0
  7  8  2  0
  8  9  1  0
  9 10  2  0
  6 11  2  0
 10 11  1  0
 11 12  1  0
 12 13  1  1
 13 14  2  0
 14 15  1  0
 15 16  2  0
 16 17  1  0
 17 18  1  0
 18 19  1  0
 19 20  1  0
 20 21  1  0
 21 22  2  0
 22 23  1  0
 23 24  2  0
 24 25  1  0
 25 26  2  0
 26 27  1  0
 23 28  1  0
 27 28  2  0
 28 29  1  0
 22 30  1  0
 30 31  1  0
 31 32  2  0
 31 33  2  0
 31 34  1  0
 34 35  2  0
 35 36  1  0
 36 37  2  0
 37 38  1  0
 34 39  1  0
 38 39  2  0
 20 40  2  0
 30 40  1  0
 13 41  1  0
 17 41  2  0
  4 42  1  0
 12 42  1  0
M  END
