MAK-UNK-8fdbca50-20-acrylamide
     RDKit          3D

 40 43  0  0  0  0  0  0  0  0999 V2000
    7.6550   -3.3810   20.0650 C   0  0  0  0  0  0  0  0  0  0  0  0
    6.1380   -3.5320   20.2390 C   0  0  0  0  0  0  0  0  0  0  0  0
    5.7230   -3.3420   21.6760 C   0  0  0  0  0  0  0  0  0  0  0  0
    4.7040   -3.8520   22.1240 O   0  0  0  0  0  0  0  0  0  0  0  0
    6.5250   -2.5650   22.4480 N   0  0  0  0  0  0  0  0  0  0  0  0
    7.1830   -1.3790   21.9260 C   0  0  0  0  0  0  0  0  0  0  0  0
    8.6510   -1.6830   22.3240 C   0  0  0  0  0  0  0  0  0  0  0  0
    8.5740   -1.3120   23.8050 C   0  0  0  0  0  0  0  0  0  0  0  0
   10.0690   -1.4740   24.0770 C   0  0  0  0  0  0  0  0  0  0  0  0
   10.5390   -1.8080   25.1420 O   0  0  0  0  0  0  0  0  0  0  0  0
   10.8080   -1.0660   22.8660 N   0  0  0  0  0  0  0  0  0  0  0  0
   10.4530    0.3270   22.7450 C   0  0  0  0  0  0  0  0  0  0  0  0
   11.3710    1.7550   22.7690 S   0  0  1  0  0  0  0  0  0  0  0  0
   12.7690    2.0890   22.8940 O   0  0  0  0  0  0  0  0  0  0  0  0
   11.8170    0.1640   22.9560 C   0  0  0  0  0  0  0  0  0  0  0  0
   12.3380   -0.3180   24.1200 C   0  0  0  0  0  0  0  0  0  0  0  0
   12.7140   -1.1820   24.6200 C   0  0  0  0  0  0  0  0  0  0  0  0
   13.1340   -1.9170   25.3330 C   0  0  0  0  0  0  0  0  0  0  0  0
   12.6910   -1.6710   24.2200 N   0  0  0  0  0  0  0  0  0  0  0  0
   12.3150    0.0550   24.3050 C   0  0  0  0  0  0  0  0  0  0  0  0
    9.9670    2.7370   22.6240 N   0  0  0  0  0  0  0  0  0  0  0  0
    8.6270    2.1610   22.4240 C   0  0  0  0  0  0  0  0  0  0  0  0
    7.6750    3.1880   22.3470 C   0  0  0  0  0  0  0  0  0  0  0  0
    6.2990    2.9650   22.1590 C   0  0  0  0  0  0  0  0  0  0  0  0
    5.7670    4.1130   22.6790 N   0  0  0  0  0  0  0  0  0  0  0  0
    5.7640    5.1730   21.6610 C   0  0  0  0  0  0  0  0  0  0  0  0
    8.3870    4.3730   22.4920 C   0  0  0  0  0  0  0  0  0  0  0  0
    9.7530    4.1680   22.6580 C   0  0  0  0  0  0  0  0  0  0  0  0
   10.7910    5.0760   22.8160 C   0  0  0  0  0  0  0  0  0  0  0  0
   12.0230    4.8410   21.9410 C   0  0  0  0  0  0  0  0  0  0  0  0
   13.1060    5.5980   21.9210 C   0  0  0  0  0  0  0  0  0  0  0  0
   13.0970    6.8040   22.8590 C   0  0  0  0  0  0  0  0  0  0  0  0
   11.9070    7.1060   23.7790 C   0  0  0  0  0  0  0  0  0  0  0  0
   10.7270    6.1500   23.7010 C   0  0  0  0  0  0  0  0  0  0  0  0
    9.6510    6.3640   24.4780 F   0  0  0  0  0  0  0  0  0  0  0  0
   11.7200   -1.6860   21.8290 C   0  0  0  0  0  0  0  0  0  0  0  0
   11.6200   -3.1310   21.3520 C   0  0  0  0  0  0  0  0  0  0  0  0
   13.1820   -1.2200   21.7930 C   0  0  0  0  0  0  0  0  0  0  0  0
    7.7040   -2.2640   24.6500 C   0  0  0  0  0  0  0  0  0  0  0  0
    6.3770   -2.6470   23.9090 C   0  0  0  0  0  0  0  0  0  0  0  0
  1  2  1  0
  2  3  1  0
  3  4  2  0
  3  5  1  0
  5  6  1  0
  6  7  1  0
  7  8  1  0
  8  9  1  0
  9 10  2  0
  9 11  1  0
 11 12  1  0
 12 13  2  0
 13 14  2  0
 13 15  1  1
 15 16  2  0
 16 17  1  0
 17 18  2  0
 18 19  1  0
 15 20  1  0
 19 20  2  0
 13 21  1  0
 21 22  1  0
 22 23  2  0
 23 24  1  0
 24 25  1  0
 25 26  1  0
 23 27  1  0
 21 28  1  0
 27 28  2  0
 28 29  1  0
 29 30  2  0
 30 31  1  0
 31 32  2  0
 32 33  1  0
 29 34  1  0
 33 34  2  0
 34 35  1  0
 11 36  1  0
 36 37  1  0
 36 38  1  0
  8 39  1  0
  5 40  1  0
 39 40  1  0
M  END
