MAK-UNK-849bee6c-6-chloroacetamide
     RDKit          3D

 24 26  0  0  0  0  0  0  0  0999 V2000
    7.1590   -2.9510   18.7630 C   0  0  0  0  0  0  0  0  0  0  0  0
    6.1780   -3.2640   19.8670 C   0  0  0  0  0  0  0  0  0  0  0  0
    5.3700   -4.1940   19.7650 O   0  0  0  0  0  0  0  0  0  0  0  0
    6.2380   -2.4440   21.0080 N   0  0  0  0  0  0  0  0  0  0  0  0
    7.0970   -1.2590   20.9610 C   0  0  0  0  0  0  0  0  0  0  0  0
    8.4160   -1.5040   21.7000 C   0  0  0  0  0  0  0  0  0  0  0  0
    8.2690   -2.1870   22.9890 N   0  0  0  0  0  0  0  0  0  0  0  0
    9.3890   -2.3910   23.7660 C   0  0  0  0  0  0  0  0  0  0  0  0
   10.4620   -1.3180   23.5010 C   0  0  0  0  0  0  0  0  0  0  0  0
   11.7620   -1.8700   23.0040 C   0  0  0  0  0  0  0  0  0  0  0  0
   12.8700   -0.8740   22.7340 C   0  0  0  0  0  0  0  0  0  0  0  0
   12.6200    0.6140   22.9640 C   0  0  0  0  0  0  0  0  0  0  0  0
   11.2220    0.9960   23.4590 C   0  0  0  0  0  0  0  0  0  0  0  0
   10.9200    2.4760   23.6780 C   0  0  0  0  0  0  0  0  0  0  0  0
   11.8780    3.5350   23.1310 C   0  0  0  0  0  0  0  0  0  0  0  0
   11.5770    4.8820   23.3420 C   0  0  0  0  0  0  0  0  0  0  0  0
   10.4040    5.2270   24.0520 N   0  0  0  0  0  0  0  0  0  0  0  0
    9.5790    4.1400   24.5150 C   0  0  0  0  0  0  0  0  0  0  0  0
    8.3770    4.6970   25.2480 C   0  0  0  0  0  0  0  0  0  0  0  0
    7.4540    5.1310   25.8120 N   0  0  0  0  0  0  0  0  0  0  0  0
    9.7870    2.8150   24.3550 N   0  0  0  0  0  0  0  0  0  0  0  0
   10.2420    0.0390   23.7020 C   0  0  0  0  0  0  0  0  0  0  0  0
    7.5270   -3.3220   22.8970 C   0  0  0  0  0  0  0  0  0  0  0  0
    6.1250   -3.0640   22.3290 C   0  0  0  0  0  0  0  0  0  0  0  0
  1  2  1  0
  2  3  2  0
  2  4  1  0
  4  5  1  0
  5  6  1  0
  6  7  1  0
  7  8  1  0
  8  9  1  0
  9 10  2  0
 10 11  1  0
 11 12  2  0
 12 13  1  0
 13 14  1  0
 14 15  2  0
 15 16  1  0
 16 17  2  0
 17 18  1  0
 18 19  1  0
 19 20  3  0
 14 21  1  0
 18 21  2  0
  9 22  1  0
 13 22  2  0
  7 23  1  0
  4 24  1  0
 23 24  1  0
M  END
