MAK-UNK-6c8f5f75-6-nitrile
     RDKit          3D

  9  9  0  0  0  0  0  0  0  0999 V2000
    6.6600   -4.0470   20.1130 C   0  0  0  0  0  0  0  0  0  0  0  0
    5.5710   -3.7350   19.5110 N   0  0  0  0  0  0  0  0  0  0  0  0
    6.7000   -4.7740   21.2840 N   0  0  0  0  0  0  0  0  0  0  0  0
    7.0000   -4.1560   22.4410 C   0  0  0  0  0  0  0  0  0  0  0  0
    7.9920   -3.4800   23.1510 C   0  0  0  0  0  0  0  0  0  0  0  0
    6.5930   -3.6970   23.8200 C   0  0  0  0  0  0  0  0  0  0  0  0
    5.5280   -4.6720   22.5060 S   0  0  0  0  0  0  0  0  0  0  0  0
    5.2540   -5.9930   23.0370 O   0  0  0  0  0  0  0  0  0  0  0  0
    4.4620   -3.8100   22.0550 O   0  0  0  0  0  0  0  0  0  0  0  0
  1  2  2  3
  1  3  1  0
  3  4  1  0
  4  5  2  0
  5  6  1  0
  7  3  1  0
  6  7  1  0
  7  8  2  0
  7  9  2  0
M  END
