MAK-UNK-a7992eb3-4-acrylamide
     RDKit          3D

 37 41  0  0  0  0  0  0  0  0999 V2000
    8.0710   -3.4940   19.8350 C   0  0  0  0  0  0  0  0  0  0  0  0
    7.4060   -2.9820   21.0820 C   0  0  0  0  0  0  0  0  0  0  0  0
    6.1880   -3.8090   21.3160 C   0  0  0  0  0  0  0  0  0  0  0  0
    5.1710   -3.5480   20.7090 O   0  0  0  0  0  0  0  0  0  0  0  0
    6.3250   -4.8800   22.1840 N   0  0  0  0  0  0  0  0  0  0  0  0
    7.1450   -4.7440   23.2270 C   0  0  0  0  0  0  0  0  0  0  0  0
    6.5420   -4.6410   24.4430 C   0  0  0  0  0  0  0  0  0  0  0  0
    5.1560   -4.6120   24.4580 C   0  0  0  0  0  0  0  0  0  0  0  0
    4.5490   -4.5150   25.7110 C   0  0  0  0  0  0  0  0  0  0  0  0
    5.4410   -4.7220   26.8170 O   0  0  0  0  0  0  0  0  0  0  0  0
    3.1880   -4.2420   25.7750 N   0  0  0  0  0  0  0  0  0  0  0  0
    2.5750   -2.9400   25.5660 C   0  0  0  0  0  0  0  0  0  0  0  0
    3.9680   -2.3550   25.8260 C   0  0  0  0  0  0  0  0  0  0  0  0
    3.8200   -0.8130   25.6880 C   0  0  0  0  0  0  0  0  0  0  0  0
    2.3860   -0.2360   25.3410 C   0  0  0  0  0  0  0  0  0  0  0  0
    1.3070   -1.3530   25.1940 C   0  0  0  0  0  0  0  0  0  0  0  0
    2.7230   -1.5980   25.5150 C   0  0  0  0  0  0  0  0  0  0  0  0
    2.4320   -0.3990   25.3790 O   0  0  0  0  0  0  0  0  0  0  0  0
    1.1920    0.2250   25.8130 C   0  0  0  0  0  0  0  0  0  0  0  0
    0.8050    0.0660   27.1550 C   0  0  0  0  0  0  0  0  0  0  0  0
   -0.3760    0.6350   27.6420 C   0  0  0  0  0  0  0  0  0  0  0  0
   -1.1910    1.3790   26.7970 C   0  0  0  0  0  0  0  0  0  0  0  0
   -0.8360    1.5550   25.4710 C   0  0  0  0  0  0  0  0  0  0  0  0
    0.3390    0.9900   24.9700 C   0  0  0  0  0  0  0  0  0  0  0  0
    0.6740    1.1870   23.6240 C   0  0  0  0  0  0  0  0  0  0  0  0
   -0.4040    0.7600   22.7290 N   0  0  0  0  0  0  0  0  0  0  0  0
   -0.6820    1.5070   21.4860 C   0  0  0  0  0  0  0  0  0  0  0  0
   -1.8750    1.8910   20.9820 N   0  0  0  0  0  0  0  0  0  0  0  0
   -1.7590    2.5640   19.8130 C   0  0  0  0  0  0  0  0  0  0  0  0
   -2.6910    3.1320   18.9630 C   0  0  0  0  0  0  0  0  0  0  0  0
   -2.2460    3.7640   17.8110 C   0  0  0  0  0  0  0  0  0  0  0  0
   -0.8810    3.8220   17.5260 C   0  0  0  0  0  0  0  0  0  0  0  0
    0.0950    3.2610   18.3660 C   0  0  0  0  0  0  0  0  0  0  0  0
   -0.3640    2.6160   19.5380 C   0  0  0  0  0  0  0  0  0  0  0  0
    0.2740    1.9520   20.5970 N   0  0  0  0  0  0  0  0  0  0  0  0
    4.6290   -5.8260   23.6720 C   0  0  0  0  0  0  0  0  0  0  0  0
    5.2900   -5.8930   22.3010 C   0  0  0  0  0  0  0  0  0  0  0  0
  1  2  1  0
  2  3  1  0
  3  4  2  0
  3  5  1  0
  5  6  1  0
  6  7  1  0
  7  8  1  0
  8  9  1  0
  9 10  2  0
  9 11  1  0
 11 12  1  0
 12 13  2  0
 13 14  1  0
 14 15  2  0
 15 16  1  0
 12 17  1  0
 16 17  2  0
 17 18  1  0
 18 19  1  0
 19 20  2  0
 20 21  1  0
 21 22  2  0
 22 23  1  0
 19 24  1  0
 23 24  2  0
 24 25  1  0
 25 26  1  0
 26 27  1  0
 27 28  2  0
 28 29  1  0
 29 30  2  0
 30 31  1  0
 31 32  2  0
 32 33  1  0
 29 34  1  0
 33 34  2  0
 27 35  1  0
 34 35  1  0
  8 36  1  0
  5 37  1  0
 36 37  1  0
M  END
