MAK-UNK-9e4a73aa-20
     RDKit          3D

 26 29  0  0  0  0  0  0  0  0999 V2000
    8.0860   -4.4810   23.5550 O   0  0  0  0  0  0  0  0  0  0  0  0
    7.9010   -3.2560   23.6140 C   0  0  0  0  0  0  0  0  0  0  0  0
    7.1680   -2.4670   22.5430 C   0  0  0  0  0  0  0  0  0  0  0  0
    6.4540   -1.5940   21.4080 N   0  0  0  0  0  0  0  0  0  0  0  0
    7.1980   -0.5390   20.8830 C   0  0  0  0  0  0  0  0  0  0  0  0
    7.0440    0.4360   19.9720 F   0  0  0  0  0  0  0  0  0  0  0  0
    8.1150   -1.0330   21.7750 C   0  0  0  0  0  0  0  0  0  0  0  0
    7.4490   -2.3890   22.5730 Cl  0  0  0  0  0  0  0  0  0  0  0  0
    9.3610   -0.5870   22.0360 C   0  0  0  0  0  0  0  0  0  0  0  0
    8.6540   -1.8360   22.7510 C   0  0  0  0  0  0  0  0  0  0  0  0
    9.6340   -2.3480   23.6620 N   0  0  0  0  0  0  0  0  0  0  0  0
   10.7740   -1.6110   23.3670 C   0  0  0  0  0  0  0  0  0  0  0  0
   11.1230   -0.2540   24.0830 C   0  0  0  0  0  0  0  0  0  0  0  0
   12.2680    0.4110   23.7170 C   0  0  0  0  0  0  0  0  0  0  0  0
   13.2390   -0.0870   22.6490 C   0  0  0  0  0  0  0  0  0  0  0  0
   12.8770   -1.4550   21.9390 C   0  0  0  0  0  0  0  0  0  0  0  0
   11.6090   -2.1420   22.3740 C   0  0  0  0  0  0  0  0  0  0  0  0
    9.6010   -2.4020   25.0170 C   0  0  0  0  0  0  0  0  0  0  0  0
   11.0290   -2.2650   24.8840 O   0  0  0  0  0  0  0  0  0  0  0  0
    8.3220   -2.5210   24.7020 N   0  0  0  0  0  0  0  0  0  0  0  0
    7.5420   -1.5500   25.3090 C   0  0  0  0  0  0  0  0  0  0  0  0
    7.9280   -0.2320   25.0900 C   0  0  0  0  0  0  0  0  0  0  0  0
    7.0930    0.8850   25.7470 C   0  0  0  0  0  0  0  0  0  0  0  0
    5.8630    0.5890   26.6260 C   0  0  0  0  0  0  0  0  0  0  0  0
    5.5610   -0.7430   26.7860 N   0  0  0  0  0  0  0  0  0  0  0  0
    6.3030   -1.7810   26.1980 C   0  0  0  0  0  0  0  0  0  0  0  0
  1  2  2  0
  2  3  1  0
  3  4  2  0
  4  5  1  0
  5  6  1  0
  5  7  2  0
  7  8  1  0
  7  9  1  0
  3 10  1  0
  9 10  2  0
 10 11  1  0
 11 12  1  0
 12 13  2  0
 13 14  1  0
 14 15  2  0
 15 16  1  0
 12 17  1  0
 16 17  2  0
 11 18  1  0
 18 19  2  0
  2 20  1  0
 18 20  1  0
 20 21  1  0
 21 22  2  0
 22 23  1  0
 23 24  2  0
 24 25  1  0
 21 26  1  0
 25 26  2  0
M  END
