MAK-UNK-df1a028e-4-vinylsulfonamide
     RDKit          3D

 22 24  0  0  0  0  0  0  0  0999 V2000
    8.5580   -3.9100   20.3260 C   0  0  0  0  0  0  0  0  0  0  0  0
    7.9100   -4.6560   21.5120 C   0  0  0  0  0  0  0  0  0  0  0  0
    6.4250   -3.8090   22.0610 S   0  0  0  0  0  0  0  0  0  0  0  0
    5.2890   -4.0710   21.1400 O   0  0  0  0  0  0  0  0  0  0  0  0
    6.2880   -4.1760   23.4570 O   0  0  0  0  0  0  0  0  0  0  0  0
    6.8430   -2.1620   22.0570 N   0  0  0  0  0  0  0  0  0  0  0  0
    7.8820   -1.5780   21.1770 C   0  0  0  0  0  0  0  0  0  0  0  0
    7.2110   -0.2720   20.6830 C   0  0  2  0  0  0  0  0  0  0  0  0
    6.5520    0.1690   21.9850 C   0  0  0  0  0  0  0  0  0  0  0  0
    5.8080   -1.1440   22.2370 C   0  0  1  0  0  0  0  0  0  0  0  0
    5.0620   -1.1550   20.9100 C   0  0  0  0  0  0  0  0  0  0  0  0
    6.0430   -0.7360   19.9230 N   0  0  0  0  0  0  0  0  0  0  0  0
    5.6430   -0.3290   18.5610 C   0  0  2  0  0  0  0  0  0  0  0  0
    4.7890    0.9580   18.4780 C   0  0  0  0  0  0  0  0  0  0  0  0
    4.9460   -1.5720   17.9080 C   0  0  0  0  0  0  0  0  0  0  0  0
    3.8780   -1.2870   16.7900 C   0  0  0  0  0  0  0  0  0  0  0  0
    1.4870   -2.6160   15.9100 C   0  0  0  0  0  0  0  0  0  0  0  0
    0.7440   -3.5650   16.5470 C   0  0  0  0  0  0  0  0  0  0  0  0
   -0.5040   -4.2280   16.1490 C   0  0  0  0  0  0  0  0  0  0  0  0
   -1.0880   -3.9640   14.9480 C   0  0  0  0  0  0  0  0  0  0  0  0
   -0.4510   -3.0810   14.1430 C   0  0  0  0  0  0  0  0  0  0  0  0
    0.7240   -2.4590   14.5510 C   0  0  0  0  0  0  0  0  0  0  0  0
  1  2  1  0
  3  2  1  0
  3  4  2  0
  3  5  2  0
  3  6  1  0
  6  7  1  0
  8  7  1  1
  8  9  1  0
  6 10  1  0
  9 10  1  0
 10 11  1  6
  8 12  1  0
 11 12  1  0
 12 13  1  0
 13 14  1  1
 13 15  1  0
 15 16  1  0
 16 17  1  0
 17 18  2  0
 18 19  1  0
 19 20  2  0
 20 21  1  0
 17 22  1  0
 21 22  2  0
M  END
