MAK-UNK-8fdbca50-26-chloroacetamide
     RDKit          3D

 39 42  0  0  0  0  0  0  0  0999 V2000
    6.6640   -4.6250   20.6010 C   0  0  0  0  0  0  0  0  0  0  0  0
    5.5650   -3.6460   20.3220 C   0  0  0  0  0  0  0  0  0  0  0  0
    4.8890   -3.6750   19.3100 O   0  0  0  0  0  0  0  0  0  0  0  0
    5.3040   -2.6570   21.2310 N   0  0  0  0  0  0  0  0  0  0  0  0
    5.4190   -1.3220   20.8930 C   0  0  0  0  0  0  0  0  0  0  0  0
    5.6160   -0.4440   22.1130 C   0  0  0  0  0  0  0  0  0  0  0  0
    6.7990   -1.0880   22.7740 C   0  0  0  0  0  0  0  0  0  0  0  0
    7.3500    0.0550   23.5900 C   0  0  0  0  0  0  0  0  0  0  0  0
    7.0030    0.2660   24.7590 O   0  0  0  0  0  0  0  0  0  0  0  0
    8.2390    0.8410   22.8360 N   0  0  0  0  0  0  0  0  0  0  0  0
    9.5130    0.1450   22.4580 C   0  0  0  0  0  0  0  0  0  0  0  0
   10.6920    1.1020   22.6370 C   0  0  0  0  0  0  0  0  0  0  0  0
   10.4200    2.5080   22.8480 C   0  0  0  0  0  0  0  0  0  0  0  0
   11.4750    3.3380   22.9830 C   0  0  0  0  0  0  0  0  0  0  0  0
   12.8270    2.9340   22.9440 C   0  0  0  0  0  0  0  0  0  0  0  0
   13.1460    1.5320   22.7560 C   0  0  0  0  0  0  0  0  0  0  0  0
   12.0510    0.6370   22.5910 C   0  0  0  0  0  0  0  0  0  0  0  0
   12.4240   -0.7090   22.3910 C   0  0  0  0  0  0  0  0  0  0  0  0
   13.0000   -1.4300   21.2960 C   0  0  0  0  0  0  0  0  0  0  0  0
   13.0940   -2.7250   21.5430 C   0  0  0  0  0  0  0  0  0  0  0  0
   13.4900   -3.8010   20.7140 C   0  0  0  0  0  0  0  0  0  0  0  0
   14.6200   -4.1650   20.1590 N   0  0  0  0  0  0  0  0  0  0  0  0
   15.0550   -5.4320   20.5380 C   0  0  0  0  0  0  0  0  0  0  0  0
   12.6720   -2.8610   22.8420 C   0  0  0  0  0  0  0  0  0  0  0  0
   12.2590   -1.6670   23.3000 N   0  0  0  0  0  0  0  0  0  0  0  0
   11.6110   -1.4820   24.8080 S   0  0  0  0  0  0  0  0  0  0  0  0
   12.2120   -0.2420   25.2230 O   0  0  0  0  0  0  0  0  0  0  0  0
   11.9580   -2.7700   25.3510 O   0  0  0  0  0  0  0  0  0  0  0  0
    9.8180   -1.3700   24.5460 C   0  0  0  0  0  0  0  0  0  0  0  0
    9.3940   -2.0540   23.5400 C   0  0  0  0  0  0  0  0  0  0  0  0
   10.7460   -1.9570   23.9280 C   0  0  0  0  0  0  0  0  0  0  0  0
   11.0770   -1.0120   25.2440 C   0  0  0  0  0  0  0  0  0  0  0  0
   10.1670   -0.2820   26.0550 N   0  0  0  0  0  0  0  0  0  0  0  0
    9.1590   -0.6260   25.4000 C   0  0  0  0  0  0  0  0  0  0  0  0
    7.6390    1.7840   21.8710 C   0  0  0  0  0  0  0  0  0  0  0  0
    7.3470    1.2030   20.6480 C   0  0  0  0  0  0  0  0  0  0  0  0
    8.3700    3.1160   21.7660 C   0  0  0  0  0  0  0  0  0  0  0  0
    6.3560   -2.3550   23.4940 C   0  0  0  0  0  0  0  0  0  0  0  0
    5.2110   -2.9630   22.6760 C   0  0  0  0  0  0  0  0  0  0  0  0
  1  2  1  0
  2  3  2  0
  2  4  1  0
  4  5  1  0
  5  6  1  0
  6  7  1  0
  7  8  1  0
  8  9  2  0
  8 10  1  0
 10 11  1  0
 11 12  1  0
 12 13  2  0
 13 14  1  0
 14 15  2  0
 15 16  1  0
 12 17  1  0
 16 17  2  0
 17 18  1  0
 18 19  2  0
 19 20  1  0
 20 21  1  0
 21 22  1  0
 22 23  1  0
 20 24  2  0
 18 25  1  0
 24 25  1  0
 25 26  1  0
 26 27  2  0
 26 28  2  0
 26 29  1  0
 29 30  2  0
 30 31  1  0
 31 32  2  0
 32 33  1  0
 29 34  1  0
 33 34  2  0
 10 35  1  0
 35 36  1  0
 35 37  1  0
  7 38  1  0
  4 39  1  0
 38 39  1  0
M  END
