MAK-UNK-53da93bf-1
     RDKit          3D

 10  9  0  0  0  0  0  0  0  0999 V2000
   12.0810   -1.3780   23.8070 C   0  0  0  0  0  0  0  0  0  0  0  0
   11.0340   -0.2850   23.8040 C   0  0  0  0  0  0  0  0  0  0  0  0
   11.5430    0.9870   23.6230 N   0  0  0  0  0  0  0  0  0  0  0  0
   10.6700    2.1660   23.6350 C   0  0  0  0  0  0  0  0  0  0  0  0
   11.2380    3.4100   22.9400 C   0  0  2  0  0  0  0  0  0  0  0  0
   12.4650    3.6090   22.9240 O   0  0  0  0  0  0  0  0  0  0  0  0
   10.3150    4.8420   23.5090 S   0  0  0  0  0  0  0  0  0  0  0  0
   11.4140    6.0880   23.3120 N   0  0  0  0  0  0  0  0  0  0  0  0
   10.0330    4.7250   24.9010 O   0  0  0  0  0  0  0  0  0  0  0  0
    9.2290    5.0740   22.6060 O   0  0  0  0  0  0  0  0  0  0  0  0
  1  2  1  0
  2  3  1  0
  3  4  1  0
  4  5  1  0
  5  6  1  1
  5  7  1  0
  7  8  1  0
  7  9  2  0
  7 10  2  0
M  END
