MAK-UNK-8fdbca50-22-chloroacetamide
     RDKit          3D

 39 42  0  0  0  0  0  0  0  0999 V2000
    7.0670   -3.3290   19.6290 C   0  0  0  0  0  0  0  0  0  0  0  0
    5.7920   -3.6030   20.3780 C   0  0  0  0  0  0  0  0  0  0  0  0
    4.9700   -4.3030   19.8100 O   0  0  0  0  0  0  0  0  0  0  0  0
    5.5830   -3.1210   21.6710 N   0  0  0  0  0  0  0  0  0  0  0  0
    5.3110   -1.7230   22.0520 C   0  0  0  0  0  0  0  0  0  0  0  0
    4.5600   -1.8430   23.4280 C   0  0  0  0  0  0  0  0  0  0  0  0
    5.7620   -1.9960   24.4200 C   0  0  0  0  0  0  0  0  0  0  0  0
    6.1720   -0.5060   24.6000 C   0  0  0  0  0  0  0  0  0  0  0  0
    5.5100    0.3960   24.0750 O   0  0  0  0  0  0  0  0  0  0  0  0
    7.3660   -0.2040   25.4370 N   0  0  0  0  0  0  0  0  0  0  0  0
    8.4430    0.6750   24.8860 C   0  0  0  0  0  0  0  0  0  0  0  0
    8.0850    2.1620   24.7110 C   0  0  0  0  0  0  0  0  0  0  0  0
    8.9440    3.1020   24.2210 N   0  0  0  0  0  0  0  0  0  0  0  0
   10.1850    2.6530   23.8590 C   0  0  0  0  0  0  0  0  0  0  0  0
   10.5880    1.1970   24.0050 C   0  0  0  0  0  0  0  0  0  0  0  0
   12.1060    0.6710   23.4860 S   0  0  0  0  0  0  0  0  0  0  0  0
   12.7020    1.6190   22.5950 O   0  0  0  0  0  0  0  0  0  0  0  0
   12.7710   -0.0150   24.5470 O   0  0  0  0  0  0  0  0  0  0  0  0
   11.0420   -0.3460   22.6420 N   0  0  0  0  0  0  0  0  0  0  0  0
    9.7340    0.1740   22.6030 C   0  0  0  0  0  0  0  0  0  0  0  0
    8.8370   -0.5980   21.9330 C   0  0  0  0  0  0  0  0  0  0  0  0
    7.4630   -0.2630   21.7420 C   0  0  0  0  0  0  0  0  0  0  0  0
    7.0600    0.5990   20.7200 N   0  0  0  0  0  0  0  0  0  0  0  0
    6.6860   -0.0780   19.6080 C   0  0  0  0  0  0  0  0  0  0  0  0
    9.5550   -1.6740   21.5170 C   0  0  0  0  0  0  0  0  0  0  0  0
   10.9110   -1.5940   21.8880 C   0  0  0  0  0  0  0  0  0  0  0  0
   11.8200   -2.5710   21.4830 C   0  0  0  0  0  0  0  0  0  0  0  0
   11.1950   -3.4390   20.6690 C   0  0  0  0  0  0  0  0  0  0  0  0
   11.7770   -4.4690   19.9920 C   0  0  0  0  0  0  0  0  0  0  0  0
   13.0720   -4.7100   20.1430 C   0  0  0  0  0  0  0  0  0  0  0  0
   13.7050   -3.8080   21.0590 C   0  0  0  0  0  0  0  0  0  0  0  0
   13.1340   -2.7430   21.7310 C   0  0  0  0  0  0  0  0  0  0  0  0
   13.7640   -1.9110   22.5520 F   0  0  0  0  0  0  0  0  0  0  0  0
    9.7090    0.2500   24.5230 C   0  0  0  0  0  0  0  0  0  0  0  0
    7.8730   -1.3270   26.2310 C   0  0  0  0  0  0  0  0  0  0  0  0
    8.5570   -0.9080   27.5520 C   0  0  0  0  0  0  0  0  0  0  0  0
    8.7980   -2.2420   25.4240 C   0  0  0  0  0  0  0  0  0  0  0  0
    6.7960   -2.9610   23.8290 C   0  0  0  0  0  0  0  0  0  0  0  0
    6.0770   -3.8860   22.8120 C   0  0  0  0  0  0  0  0  0  0  0  0
  1  2  1  0
  2  3  2  0
  2  4  1  0
  4  5  1  0
  5  6  1  0
  6  7  1  0
  7  8  1  0
  8  9  2  0
  8 10  1  0
 10 11  1  0
 11 12  2  0
 12 13  1  0
 13 14  2  0
 14 15  1  0
 16 15  1  0
 16 17  2  0
 16 18  2  0
 16 19  1  0
 19 20  1  0
 20 21  2  0
 21 22  1  0
 22 23  1  0
 23 24  1  0
 21 25  1  0
 19 26  1  0
 25 26  2  0
 26 27  1  0
 27 28  2  0
 28 29  1  0
 29 30  2  0
 30 31  1  0
 27 32  1  0
 31 32  2  0
 32 33  1  0
 11 34  1  0
 15 34  2  0
 10 35  1  0
 35 36  1  0
 35 37  1  0
  7 38  1  0
  4 39  1  0
 38 39  1  0
M  END
