MAK-UNK-8fdbca50-12-nitrile
     RDKit          3D

 38 41  0  0  0  0  0  0  0  0999 V2000
    7.0410   -3.4530   20.1610 C   0  0  0  0  0  0  0  0  0  0  0  0
    5.8590   -3.7490   19.7030 N   0  0  0  0  0  0  0  0  0  0  0  0
    7.2730   -2.4570   21.1840 N   0  0  0  0  0  0  0  0  0  0  0  0
    6.3280   -2.0640   22.2510 C   0  0  0  0  0  0  0  0  0  0  0  0
    6.6490   -2.9850   23.4870 C   0  0  0  0  0  0  0  0  0  0  0  0
    7.9210   -3.7180   23.0080 C   0  0  0  0  0  0  0  0  0  0  0  0
    8.1150   -4.8430   24.0630 C   0  0  0  0  0  0  0  0  0  0  0  0
    8.7640   -4.5590   25.0720 O   0  0  0  0  0  0  0  0  0  0  0  0
    7.5620   -6.1050   23.9070 N   0  0  0  0  0  0  0  0  0  0  0  0
    6.2260   -5.9010   24.0820 C   0  0  0  0  0  0  0  0  0  0  0  0
    7.6630   -7.0510   22.6970 C   0  0  1  0  0  0  0  0  0  0  0  0
    6.8670   -6.2440   21.6480 C   0  0  0  0  0  0  0  0  0  0  0  0
    8.7930   -8.0360   22.2320 C   0  0  0  0  0  0  0  0  0  0  0  0
    8.7540   -9.0370   22.1500 C   0  0  0  0  0  0  0  0  0  0  0  0
   10.0140   -8.6310   21.6550 C   0  0  0  0  0  0  0  0  0  0  0  0
   11.1740   -8.9660   20.9330 C   0  0  0  0  0  0  0  0  0  0  0  0
   12.0390   -8.0160   20.9720 C   0  0  0  0  0  0  0  0  0  0  0  0
   14.0730   -6.7260   20.5050 C   0  0  0  0  0  0  0  0  0  0  0  0
   15.6920   -6.6010   21.0070 C   0  0  0  0  0  0  0  0  0  0  0  0
   16.6930   -5.9390   20.6320 C   0  0  0  0  0  0  0  0  0  0  0  0
   18.0140   -6.0790   21.0710 C   0  0  0  0  0  0  0  0  0  0  0  0
   18.4540   -6.4560   22.3560 N   0  0  0  0  0  0  0  0  0  0  0  0
   19.8740   -6.8390   22.1310 C   0  0  0  0  0  0  0  0  0  0  0  0
   16.1940   -5.2560   19.7970 C   0  0  0  0  0  0  0  0  0  0  0  0
   14.8390   -5.7180   19.7580 N   0  0  0  0  0  0  0  0  0  0  0  0
   14.6750   -4.7760   18.7040 S   0  0  0  0  0  0  0  0  0  0  0  0
   13.2660   -4.6580   18.9080 O   0  0  0  0  0  0  0  0  0  0  0  0
   15.7220   -3.8170   18.7430 O   0  0  0  0  0  0  0  0  0  0  0  0
   14.8270   -5.3670   17.1790 C   0  0  0  0  0  0  0  0  0  0  0  0
   16.0300   -5.7090   16.9340 C   0  0  0  0  0  0  0  0  0  0  0  0
   16.1770   -6.1490   15.8940 C   0  0  0  0  0  0  0  0  0  0  0  0
   15.0610   -6.3400   14.9100 C   0  0  0  0  0  0  0  0  0  0  0  0
   13.9020   -5.9630   15.1060 N   0  0  0  0  0  0  0  0  0  0  0  0
   13.8390   -5.4750   16.2760 C   0  0  0  0  0  0  0  0  0  0  0  0
   10.3590   -8.0260   21.6250 C   0  0  0  0  0  0  0  0  0  0  0  0
   11.4340   -7.7120   21.2650 F   0  0  0  0  0  0  0  0  0  0  0  0
    9.0160   -2.6750   22.8460 C   0  0  0  0  0  0  0  0  0  0  0  0
    8.6060   -1.8940   21.6050 C   0  0  0  0  0  0  0  0  0  0  0  0
  1  2  2  3
  1  3  1  0
  3  4  1  0
  4  5  1  0
  5  6  1  0
  6  7  1  0
  7  8  2  0
  7  9  1  0
  9 10  1  0
  9 11  1  0
 11 12  1  6
 11 13  1  0
 13 14  2  0
 14 15  1  0
 15 16  2  0
 16 17  1  0
 17 18  1  0
 18 19  2  0
 19 20  1  0
 20 21  1  0
 21 22  1  0
 22 23  1  0
 20 24  2  0
 18 25  1  0
 24 25  1  0
 25 26  1  0
 26 27  2  0
 26 28  2  0
 26 29  1  0
 29 30  2  0
 30 31  1  0
 31 32  2  0
 32 33  1  0
 29 34  1  0
 33 34  2  0
 13 35  1  0
 17 35  2  0
 35 36  1  0
  6 37  1  0
  3 38  1  0
 37 38  1  0
M  END
