MAK-UNK-f983951f-21-acrylamide
     RDKit          3D

 10 10  0  0  0  0  0  0  0  0999 V2000
    8.1270   -3.7510   20.2700 C   0  0  0  0  0  0  0  0  0  0  0  0
    6.8110   -3.1010   20.1170 C   0  0  0  0  0  0  0  0  0  0  0  0
    5.9020   -4.2110   20.5250 C   0  0  0  0  0  0  0  0  0  0  0  0
    5.0840   -4.6230   19.7450 O   0  0  0  0  0  0  0  0  0  0  0  0
    6.1020   -4.7520   21.7820 N   0  0  0  0  0  0  0  0  0  0  0  0
    5.4590   -5.9430   22.2590 C   0  0  0  0  0  0  0  0  0  0  0  0
    4.7160   -5.6080   23.4000 C   0  0  0  0  0  0  0  0  0  0  0  0
    5.5650   -5.0580   24.4220 O   0  0  0  0  0  0  0  0  0  0  0  0
    6.2160   -3.8540   23.9790 C   0  0  0  0  0  0  0  0  0  0  0  0
    6.9610   -4.1300   22.7900 C   0  0  0  0  0  0  0  0  0  0  0  0
  1  2  1  0
  2  3  1  0
  3  4  2  0
  3  5  1  0
  5  6  1  0
  6  7  1  0
  7  8  1  0
  8  9  1  0
  5 10  1  0
  9 10  1  0
M  END
