MAK-UNK-148caf23-7-nitrile
     RDKit          3D

 34 37  0  0  0  0  0  0  0  0999 V2000
    8.0410   -3.1580   19.8110 C   0  0  0  0  0  0  0  0  0  0  0  0
    7.6830   -2.6290   18.6570 N   0  0  0  0  0  0  0  0  0  0  0  0
    8.7460   -2.3910   21.2300 C   0  0  0  0  0  0  0  0  0  0  0  0
    8.4110   -2.8440   22.5200 C   0  0  0  0  0  0  0  0  0  0  0  0
    8.8800   -2.2950   23.7440 C   0  0  0  0  0  0  0  0  0  0  0  0
    9.7480   -1.2240   23.8120 C   0  0  0  0  0  0  0  0  0  0  0  0
   10.1630   -0.6680   25.0400 N   0  0  0  0  0  0  0  0  0  0  0  0
    9.0830   -0.0770   25.8840 C   0  0  2  0  0  0  0  0  0  0  0  0
    8.6860   -0.8750   27.1180 C   0  0  0  0  0  0  0  0  0  0  0  0
    7.9420    0.1790   25.0930 N   0  0  0  0  0  0  0  0  0  0  0  0
    6.7350    0.0490   25.7090 C   0  0  0  0  0  0  0  0  0  0  0  0
    5.9790   -1.2570   25.4890 C   0  0  0  0  0  0  0  0  0  0  0  0
    5.4680   -2.0440   26.6770 C   0  0  0  0  0  0  0  0  0  0  0  0
    4.8260   -3.2130   26.0580 C   0  0  0  0  0  0  0  0  0  0  0  0
    4.1920   -4.2900   26.6940 C   0  0  0  0  0  0  0  0  0  0  0  0
    5.0690   -5.5160   26.8480 C   0  0  0  0  0  0  0  0  0  0  0  0
    4.5880   -6.7420   27.4890 C   0  0  0  0  0  0  0  0  0  0  0  0
    3.1180   -6.6790   27.9920 C   0  0  0  0  0  0  0  0  0  0  0  0
    2.3230   -5.3800   27.7820 C   0  0  0  0  0  0  0  0  0  0  0  0
    2.8830   -4.2340   27.1430 C   0  0  0  0  0  0  0  0  0  0  0  0
    2.1300   -3.1330   26.9960 F   0  0  0  0  0  0  0  0  0  0  0  0
    4.9030   -3.1870   24.6510 N   0  0  0  0  0  0  0  0  0  0  0  0
    4.3430   -4.2980   23.5230 S   0  0  0  0  0  0  0  0  0  0  0  0
    3.2900   -5.0880   24.1280 O   0  0  0  0  0  0  0  0  0  0  0  0
    4.1660   -3.6020   22.2690 O   0  0  0  0  0  0  0  0  0  0  0  0
    5.8260   -5.2030   23.4050 C   0  0  0  0  0  0  0  0  0  0  0  0
    6.8840   -4.8350   24.2240 C   0  0  0  0  0  0  0  0  0  0  0  0
    8.0320   -5.5490   24.1000 C   0  0  0  0  0  0  0  0  0  0  0  0
    8.0900   -6.6900   23.0820 C   0  0  0  0  0  0  0  0  0  0  0  0
    7.0470   -7.0070   22.3260 N   0  0  0  0  0  0  0  0  0  0  0  0
    5.9140   -6.2500   22.5020 C   0  0  0  0  0  0  0  0  0  0  0  0
    5.5940   -2.0060   24.3300 C   0  0  0  0  0  0  0  0  0  0  0  0
   10.1880   -0.6950   22.6750 N   0  0  0  0  0  0  0  0  0  0  0  0
    9.7080   -1.2510   21.4730 C   0  0  0  0  0  0  0  0  0  0  0  0
  1  2  2  3
  1  3  1  0
  3  4  2  0
  4  5  1  0
  5  6  2  0
  6  7  1  0
  7  8  1  0
  8  9  1  1
  8 10  1  0
 10 11  1  0
 11 12  1  0
 12 13  1  0
 13 14  2  0
 14 15  1  0
 15 16  2  0
 16 17  1  0
 17 18  2  0
 18 19  1  0
 15 20  1  0
 19 20  2  0
 20 21  1  0
 14 22  1  0
 22 23  1  0
 23 24  2  0
 23 25  2  0
 23 26  1  0
 26 27  2  0
 27 28  1  0
 28 29  2  0
 29 30  1  0
 26 31  1  0
 30 31  2  0
 12 32  2  0
 22 32  1  0
  6 33  1  0
  3 34  1  0
 33 34  2  0
M  END
