MAK-UNK-8fdbca50-37-acrylamide
     RDKit          3D

 40 43  0  0  0  0  0  0  0  0999 V2000
    6.2150   -5.0800   20.0620 C   0  0  0  0  0  0  0  0  0  0  0  0
    6.5250   -3.6040   20.2220 C   0  0  0  0  0  0  0  0  0  0  0  0
    5.2710   -2.9840   20.7510 C   0  0  0  0  0  0  0  0  0  0  0  0
    4.8490   -3.4690   19.6820 O   0  0  0  0  0  0  0  0  0  0  0  0
    6.1060   -2.6290   21.7910 N   0  0  0  0  0  0  0  0  0  0  0  0
    5.7400   -1.5230   22.6680 C   0  0  0  0  0  0  0  0  0  0  0  0
    4.9760   -2.2340   23.7950 C   0  0  0  0  0  0  0  0  0  0  0  0
    6.0920   -3.0590   24.5080 C   0  0  1  0  0  0  0  0  0  0  0  0
    5.1880   -4.2240   24.8510 C   0  0  0  0  0  0  0  0  0  0  0  0
    4.9800   -4.6390   25.9950 O   0  0  0  0  0  0  0  0  0  0  0  0
    4.6380   -4.7280   23.5750 N   0  0  0  0  0  0  0  0  0  0  0  0
    3.2740   -4.3540   23.3100 C   0  0  0  0  0  0  0  0  0  0  0  0
    4.9450   -6.0880   23.1100 C   0  0  0  0  0  0  0  0  0  0  0  0
    6.4220   -6.3890   22.9990 C   0  0  0  0  0  0  0  0  0  0  0  0
    4.2620   -7.1470   23.9680 C   0  0  0  0  0  0  0  0  0  0  0  0
    7.2860   -3.4470   23.9000 C   0  0  2  0  0  0  0  0  0  0  0  0
    8.1460   -2.7730   24.2360 N   0  0  0  0  0  0  0  0  0  0  0  0
    7.9940   -1.3800   24.6500 C   0  0  0  0  0  0  0  0  0  0  0  0
    9.1280   -0.7520   24.1980 C   0  0  0  0  0  0  0  0  0  0  0  0
    9.2780    0.6090   24.0090 C   0  0  0  0  0  0  0  0  0  0  0  0
   10.5230    0.9160   23.5390 C   0  0  0  0  0  0  0  0  0  0  0  0
   11.0580    2.2040   23.2120 C   0  0  0  0  0  0  0  0  0  0  0  0
   12.4190    2.4860   22.8810 C   0  0  0  0  0  0  0  0  0  0  0  0
   12.9500    3.7520   22.5530 C   0  0  0  0  0  0  0  0  0  0  0  0
   12.0600    4.8010   22.5600 C   0  0  0  0  0  0  0  0  0  0  0  0
   10.7110    4.6500   22.8680 C   0  0  0  0  0  0  0  0  0  0  0  0
   10.1490    3.3240   23.2120 C   0  0  0  0  0  0  0  0  0  0  0  0
    8.8430    3.1970   23.5070 F   0  0  0  0  0  0  0  0  0  0  0  0
   11.2310   -0.3260   23.4180 N   0  0  0  0  0  0  0  0  0  0  0  0
   12.7880   -0.8130   22.9180 S   0  0  0  0  0  0  0  0  0  0  0  0
   12.5570   -1.5020   21.6570 O   0  0  0  0  0  0  0  0  0  0  0  0
   13.7190    0.3030   23.0280 O   0  0  0  0  0  0  0  0  0  0  0  0
   13.2100   -2.1010   24.0360 C   0  0  0  0  0  0  0  0  0  0  0  0
   13.3200   -2.5730   22.6860 C   0  0  0  0  0  0  0  0  0  0  0  0
   12.9720   -1.3720   21.8960 C   0  0  0  0  0  0  0  0  0  0  0  0
   12.6140   -0.0840   22.6940 C   0  0  0  0  0  0  0  0  0  0  0  0
   12.5760    0.1010   24.1030 N   0  0  0  0  0  0  0  0  0  0  0  0
   12.9190   -1.0430   24.7920 C   0  0  0  0  0  0  0  0  0  0  0  0
   10.3470   -1.3190   23.8300 C   0  0  0  0  0  0  0  0  0  0  0  0
    7.1360   -3.5000   22.3570 C   0  0  0  0  0  0  0  0  0  0  0  0
  1  2  1  0
  2  3  1  0
  3  4  2  0
  3  5  1  0
  5  6  1  0
  6  7  1  0
  7  8  1  0
  8  9  1  6
  9 10  2  0
  9 11  1  0
 11 12  1  0
 11 13  1  0
 13 14  1  0
 13 15  1  0
  8 16  1  0
 16 17  1  6
 17 18  1  0
 18 19  1  0
 19 20  1  0
 20 21  2  0
 21 22  1  0
 22 23  2  0
 23 24  1  0
 24 25  2  0
 25 26  1  0
 22 27  1  0
 26 27  2  0
 27 28  1  0
 21 29  1  0
 29 30  1  0
 30 31  2  0
 30 32  2  0
 30 33  1  0
 33 34  2  0
 34 35  1  0
 35 36  2  0
 36 37  1  0
 33 38  1  0
 37 38  2  0
 19 39  2  0
 29 39  1  0
  5 40  1  0
 16 40  1  0
M  END
