MAK-UNK-6ca90168-18-acrylamide
     RDKit          3D

 15 15  0  0  0  0  0  0  0  0999 V2000
    7.9080   -3.2200   19.0030 C   0  0  0  0  0  0  0  0  0  0  0  0
    6.6820   -2.3810   18.8260 C   0  0  0  0  0  0  0  0  0  0  0  0
    5.7990   -2.7130   19.9700 C   0  0  0  0  0  0  0  0  0  0  0  0
    4.9270   -3.5470   19.7670 O   0  0  0  0  0  0  0  0  0  0  0  0
    6.0830   -2.1270   21.2020 N   0  0  0  0  0  0  0  0  0  0  0  0
    7.1290   -1.0950   21.2100 C   0  0  0  0  0  0  0  0  0  0  0  0
    8.4370   -1.5770   21.6290 C   0  0  0  0  0  0  0  0  0  0  0  0
    8.4220   -2.2900   22.9050 N   0  0  0  0  0  0  0  0  0  0  0  0
    9.6070   -2.4600   23.6480 C   0  0  0  0  0  0  0  0  0  0  0  0
    9.8260   -3.5360   24.2000 O   0  0  0  0  0  0  0  0  0  0  0  0
   10.5090   -1.3680   23.7640 C   0  0  0  0  0  0  0  0  0  0  0  0
   11.6450   -1.8050   23.1220 C   0  0  0  0  0  0  0  0  0  0  0  0
   12.6240   -2.1280   22.5840 N   0  0  0  0  0  0  0  0  0  0  0  0
    7.4110   -3.3560   23.0220 C   0  0  0  0  0  0  0  0  0  0  0  0
    6.0280   -2.9520   22.4230 C   0  0  0  0  0  0  0  0  0  0  0  0
  1  2  1  0
  2  3  1  0
  3  4  2  0
  3  5  1  0
  5  6  1  0
  6  7  1  0
  7  8  1  0
  8  9  1  0
  9 10  2  0
  9 11  1  0
 11 12  1  0
 12 13  3  0
  8 14  1  0
  5 15  1  0
 14 15  1  0
M  END
