MAK-UNK-148caf23-13-vinylsulfonamide
     RDKit          3D

 37 40  0  0  0  0  0  0  0  0999 V2000
    7.8360   -3.2370   19.3870 C   0  0  0  0  0  0  0  0  0  0  0  0
    6.6110   -2.3660   19.4860 C   0  0  0  0  0  0  0  0  0  0  0  0
    6.1500   -2.2060   21.1780 S   0  0  0  0  0  0  0  0  0  0  0  0
    5.0540   -3.3890   21.3650 O   0  0  0  0  0  0  0  0  0  0  0  0
    5.5560   -0.8850   21.2240 O   0  0  0  0  0  0  0  0  0  0  0  0
    7.8220   -1.7980   22.1410 C   0  0  0  0  0  0  0  0  0  0  0  0
    9.2880   -2.2350   22.0170 C   0  0  0  0  0  0  0  0  0  0  0  0
   10.2610   -1.6100   23.0390 C   0  0  0  0  0  0  0  0  0  0  0  0
   10.1220   -0.6800   24.1200 C   0  0  0  0  0  0  0  0  0  0  0  0
    9.8150    0.2400   25.1420 N   0  0  0  0  0  0  0  0  0  0  0  0
    9.1990   -0.1620   26.3520 C   0  0  0  0  0  0  0  0  0  0  0  0
    8.1740    0.3970   27.1610 C   0  0  2  0  0  0  0  0  0  0  0  0
    7.7490    2.0760   26.5330 S   0  0  0  0  0  0  0  0  0  0  0  0
    8.3270    2.2180   25.2150 O   0  0  0  0  0  0  0  0  0  0  0  0
    8.0220    3.0600   27.5600 O   0  0  0  0  0  0  0  0  0  0  0  0
    5.9690    2.1820   26.2760 C   0  0  0  0  0  0  0  0  0  0  0  0
    5.3050    1.9830   24.8970 C   0  0  0  0  0  0  0  0  0  0  0  0
    3.9660    2.0800   24.7940 C   0  0  0  0  0  0  0  0  0  0  0  0
    3.1690    2.3580   25.8970 C   0  0  0  0  0  0  0  0  0  0  0  0
    3.7500    2.5450   27.1550 N   0  0  0  0  0  0  0  0  0  0  0  0
    5.1040    2.4580   27.3380 C   0  0  0  0  0  0  0  0  0  0  0  0
    8.5360    0.7100   28.5280 C   0  0  0  0  0  0  0  0  0  0  0  0
    7.6870    0.1630   29.4720 C   0  0  0  0  0  0  0  0  0  0  0  0
    7.8460    0.3270   30.8410 C   0  0  0  0  0  0  0  0  0  0  0  0
    8.9300    1.0260   31.2620 N   0  0  0  0  0  0  0  0  0  0  0  0
   10.1500    0.5000   30.9770 C   0  0  0  0  0  0  0  0  0  0  0  0
    6.7070   -0.5360   28.7420 C   0  0  0  0  0  0  0  0  0  0  0  0
    6.9880   -0.3990   27.3750 C   0  0  0  0  0  0  0  0  0  0  0  0
    6.1270   -1.0150   26.4640 C   0  0  0  0  0  0  0  0  0  0  0  0
    5.9580   -0.5050   25.1820 C   0  0  0  0  0  0  0  0  0  0  0  0
    5.0880   -1.1160   24.2780 C   0  0  0  0  0  0  0  0  0  0  0  0
    4.3690   -2.2530   24.6420 C   0  0  0  0  0  0  0  0  0  0  0  0
    4.5310   -2.7780   25.9200 C   0  0  0  0  0  0  0  0  0  0  0  0
    5.3980   -2.1690   26.8230 C   0  0  0  0  0  0  0  0  0  0  0  0
    5.5120   -2.7180   28.0420 F   0  0  0  0  0  0  0  0  0  0  0  0
    8.8550   -0.4610   23.9970 N   0  0  0  0  0  0  0  0  0  0  0  0
    7.8400   -0.8980   23.1890 C   0  0  0  0  0  0  0  0  0  0  0  0
  1  2  1  0
  3  2  1  0
  3  4  2  0
  3  5  2  0
  3  6  1  0
  6  7  2  0
  7  8  1  0
  8  9  2  0
  9 10  1  0
 10 11  1  0
 12 11  1  6
 12 13  1  0
 13 14  2  0
 13 15  2  0
 13 16  1  0
 16 17  2  0
 17 18  1  0
 18 19  2  0
 19 20  1  0
 16 21  1  0
 20 21  2  0
 12 22  1  0
 22 23  2  0
 23 24  1  0
 24 25  1  0
 25 26  1  0
 23 27  1  0
 12 28  1  0
 27 28  2  0
 28 29  1  0
 29 30  2  0
 30 31  1  0
 31 32  2  0
 32 33  1  0
 29 34  1  0
 33 34  2  0
 34 35  1  0
  9 36  1  0
  6 37  1  0
 36 37  2  0
M  END
