MAK-UNK-53da93bf-4
     RDKit          3D

 10  9  0  0  0  0  0  0  0  0999 V2000
   14.3100    3.5860   22.1290 C   0  0  0  0  0  0  0  0  0  0  0  0
   13.2700    2.5050   22.4270 C   0  0  0  0  0  0  0  0  0  0  0  0
   13.5730    1.0430   22.6860 C   0  0  0  0  0  0  0  0  0  0  0  0
   12.0910    2.8870   22.4460 C   0  0  0  0  0  0  0  0  0  0  0  0
   10.9600    3.7730   22.3670 C   0  0  0  0  0  0  0  0  0  0  0  0
   10.3800    3.7570   23.7340 C   0  0  0  0  0  0  0  0  0  0  0  0
    9.8250    5.3400   24.1330 S   0  0  0  0  0  0  0  0  0  0  0  0
   11.1190    6.2980   23.6770 N   0  0  0  0  0  0  0  0  0  0  0  0
    8.7480    5.5900   23.2090 O   0  0  0  0  0  0  0  0  0  0  0  0
    9.7290    5.3710   25.5650 O   0  0  0  0  0  0  0  0  0  0  0  0
  1  2  1  0
  2  3  1  0
  2  4  2  3
  4  5  1  0
  5  6  1  0
  6  7  1  0
  7  8  1  0
  7  9  2  0
  7 10  2  0
M  END
