MAK-UNK-148caf23-14-vinylsulfonamide
     RDKit          3D

 37 40  0  0  0  0  0  0  0  0999 V2000
    7.8400   -4.7100   20.8400 C   0  0  0  0  0  0  0  0  0  0  0  0
    6.5700   -4.4830   21.6200 C   0  0  0  0  0  0  0  0  0  0  0  0
    5.5700   -3.2980   20.8090 S   0  0  0  0  0  0  0  0  0  0  0  0
    4.5330   -3.0900   21.7800 O   0  0  0  0  0  0  0  0  0  0  0  0
    5.2370   -3.7300   19.4530 O   0  0  0  0  0  0  0  0  0  0  0  0
    6.5810   -1.8310   20.8060 C   0  0  0  0  0  0  0  0  0  0  0  0
    7.2240   -0.7820   19.9910 C   0  0  0  0  0  0  0  0  0  0  0  0
    6.3030   -2.1030   19.8360 C   0  0  0  0  0  0  0  0  0  0  0  0
    6.9120   -1.3860   21.0200 C   0  0  0  0  0  0  0  0  0  0  0  0
    7.0080   -1.4540   22.4110 N   0  0  0  0  0  0  0  0  0  0  0  0
    8.2990   -1.7840   23.0450 C   0  0  0  0  0  0  0  0  0  0  0  0
    8.3170   -1.2470   24.4710 C   0  0  0  0  0  0  0  0  0  0  0  0
    7.5440   -1.7880   25.9240 S   0  0  0  0  0  0  0  0  0  0  0  0
    6.6610   -2.8500   26.3490 O   0  0  0  0  0  0  0  0  0  0  0  0
    6.8010   -3.1040   25.0980 C   0  0  0  0  0  0  0  0  0  0  0  0
    8.1920   -3.4760   25.3350 C   0  0  0  0  0  0  0  0  0  0  0  0
    8.9410   -4.6190   25.0250 C   0  0  0  0  0  0  0  0  0  0  0  0
    8.4030   -5.6650   24.3800 C   0  0  0  0  0  0  0  0  0  0  0  0
    7.0520   -5.4640   24.0780 N   0  0  0  0  0  0  0  0  0  0  0  0
    6.4040   -4.3130   24.4230 C   0  0  0  0  0  0  0  0  0  0  0  0
    7.6060   -1.1240   27.4870 N   0  0  0  0  0  0  0  0  0  0  0  0
    7.9840    0.1090   27.7990 C   0  0  0  0  0  0  0  0  0  0  0  0
    7.9190    0.3170   29.1720 C   0  0  0  0  0  0  0  0  0  0  0  0
    8.2930    1.5780   29.7050 C   0  0  0  0  0  0  0  0  0  0  0  0
    7.6410    2.5690   28.9920 N   0  0  0  0  0  0  0  0  0  0  0  0
    8.5250    3.3840   28.4490 C   0  0  0  0  0  0  0  0  0  0  0  0
    7.4500   -0.8430   29.9590 C   0  0  0  0  0  0  0  0  0  0  0  0
    7.2960   -1.6670   28.7870 C   0  0  0  0  0  0  0  0  0  0  0  0
    6.8550   -3.0400   28.6980 C   0  0  0  0  0  0  0  0  0  0  0  0
    7.6410   -4.2440   28.3050 C   0  0  0  0  0  0  0  0  0  0  0  0
    6.9340   -5.5890   28.3050 C   0  0  0  0  0  0  0  0  0  0  0  0
    5.5920   -5.6550   28.6660 C   0  0  0  0  0  0  0  0  0  0  0  0
    4.8890   -4.3700   29.0470 C   0  0  0  0  0  0  0  0  0  0  0  0
    5.5220   -3.1170   29.0550 C   0  0  0  0  0  0  0  0  0  0  0  0
    4.8180   -2.0300   29.4120 F   0  0  0  0  0  0  0  0  0  0  0  0
    7.3650   -0.5910   20.1750 N   0  0  0  0  0  0  0  0  0  0  0  0
    6.6360   -1.5550   19.4020 C   0  0  0  0  0  0  0  0  0  0  0  0
  1  2  1  0
  3  2  1  0
  3  4  2  0
  3  5  2  0
  3  6  1  0
  6  7  2  0
  7  8  1  0
  8  9  2  0
  9 10  1  0
 10 11  1  0
 11 12  1  0
 12 13  2  0
 13 14  2  0
 13 15  1  0
 15 16  2  0
 16 17  1  0
 17 18  2  0
 18 19  1  0
 15 20  1  0
 19 20  2  0
 13 21  1  0
 21 22  1  0
 22 23  2  0
 23 24  1  0
 24 25  1  0
 25 26  1  0
 23 27  1  0
 21 28  1  0
 27 28  2  0
 28 29  1  0
 29 30  2  0
 30 31  1  0
 31 32  2  0
 32 33  1  0
 29 34  1  0
 33 34  2  0
 34 35  1  0
  9 36  1  0
  6 37  1  0
 36 37  2  0
M  END
