MAK-UNK-8fdbca50-21-chloroacetamide
     RDKit          3D

 39 42  0  0  0  0  0  0  0  0999 V2000
    7.1340   -2.9200   18.7320 C   0  0  0  0  0  0  0  0  0  0  0  0
    5.9980   -3.0840   19.7070 C   0  0  0  0  0  0  0  0  0  0  0  0
    5.3850   -4.1630   19.7640 O   0  0  0  0  0  0  0  0  0  0  0  0
    5.6940   -1.9860   20.4750 N   0  0  0  0  0  0  0  0  0  0  0  0
    5.6930   -1.8950   21.9300 C   0  0  0  0  0  0  0  0  0  0  0  0
    7.2140   -1.8660   22.3390 C   0  0  0  0  0  0  0  0  0  0  0  0
    7.9000   -0.8480   21.3550 C   0  0  0  0  0  0  0  0  0  0  0  0
    8.9300   -0.0880   22.2520 C   0  0  0  0  0  0  0  0  0  0  0  0
    8.9400    1.1580   22.2010 O   0  0  0  0  0  0  0  0  0  0  0  0
    9.8760   -0.9100   23.1350 N   0  0  0  0  0  0  0  0  0  0  0  0
    9.3710   -2.2870   23.3590 C   0  0  0  0  0  0  0  0  0  0  0  0
   10.1800   -1.7770   22.2350 C   0  0  0  0  0  0  0  0  0  0  0  0
   10.4660   -0.3100   22.5720 C   0  0  0  0  0  0  0  0  0  0  0  0
   10.0260    0.3610   23.7230 N   0  0  0  0  0  0  0  0  0  0  0  0
    9.1730   -0.4100   24.7530 C   0  0  0  0  0  0  0  0  0  0  0  0
    8.8430   -1.7860   24.5400 C   0  0  0  0  0  0  0  0  0  0  0  0
    7.8550   -2.7090   25.6880 S   0  0  0  0  0  0  0  0  0  0  0  0
    8.5620   -3.8370   26.2410 O   0  0  0  0  0  0  0  0  0  0  0  0
    6.5780   -2.9360   25.0450 O   0  0  0  0  0  0  0  0  0  0  0  0
    7.5130   -1.6330   26.9950 N   0  0  0  0  0  0  0  0  0  0  0  0
    8.0620   -1.7520   28.2420 C   0  0  0  0  0  0  0  0  0  0  0  0
    7.5600   -0.6770   29.0790 C   0  0  0  0  0  0  0  0  0  0  0  0
    7.9370   -0.5120   30.4080 C   0  0  0  0  0  0  0  0  0  0  0  0
    8.3970    0.7100   30.9130 N   0  0  0  0  0  0  0  0  0  0  0  0
    9.8380    0.9290   30.9950 C   0  0  0  0  0  0  0  0  0  0  0  0
    6.6900    0.0910   28.3050 C   0  0  0  0  0  0  0  0  0  0  0  0
    6.6490   -0.4670   27.0450 C   0  0  0  0  0  0  0  0  0  0  0  0
    5.9170   -0.0260   25.9520 C   0  0  0  0  0  0  0  0  0  0  0  0
    5.1730   -0.9090   25.1770 C   0  0  0  0  0  0  0  0  0  0  0  0
    4.4180   -0.5410   24.0630 C   0  0  0  0  0  0  0  0  0  0  0  0
    4.4130    0.9250   23.6800 C   0  0  0  0  0  0  0  0  0  0  0  0
    5.0930    1.8560   24.3640 C   0  0  0  0  0  0  0  0  0  0  0  0
    5.8990    1.3400   25.5860 C   0  0  0  0  0  0  0  0  0  0  0  0
    6.5890    2.2470   26.2930 F   0  0  0  0  0  0  0  0  0  0  0  0
   11.3420   -0.7230   22.7760 C   0  0  0  0  0  0  0  0  0  0  0  0
   12.1780   -1.9680   22.3440 C   0  0  0  0  0  0  0  0  0  0  0  0
   12.2090    0.2030   23.6690 C   0  0  0  0  0  0  0  0  0  0  0  0
    6.9190    0.1290   20.6740 C   0  0  0  0  0  0  0  0  0  0  0  0
    5.8560   -0.6690   19.8880 C   0  0  0  0  0  0  0  0  0  0  0  0
  1  2  1  0
  2  3  2  0
  2  4  1  0
  4  5  1  0
  5  6  1  0
  6  7  1  0
  7  8  1  0
  8  9  2  0
  8 10  1  0
 10 11  1  0
 11 12  2  0
 12 13  1  0
 13 14  2  0
 14 15  1  0
 11 16  1  0
 15 16  2  0
 17 16  1  0
 17 18  2  0
 17 19  2  0
 17 20  1  0
 20 21  1  0
 21 22  2  0
 22 23  1  0
 23 24  1  0
 24 25  1  0
 22 26  1  0
 20 27  1  0
 26 27  2  0
 27 28  1  0
 28 29  2  0
 29 30  1  0
 30 31  2  0
 31 32  1  0
 28 33  1  0
 32 33  2  0
 33 34  1  0
 10 35  1  0
 35 36  1  0
 35 37  1  0
  7 38  1  0
  4 39  1  0
 38 39  1  0
M  END
