MAK-UNK-4c6b313a-1
     RDKit          3D

 17 18  0  0  0  0  0  0  0  0999 V2000
    7.1050   -2.9370   20.7080 C   0  0  0  0  0  0  0  0  0  0  0  0
    6.2270   -4.1970   20.6800 C   0  0  0  0  0  0  0  0  0  0  0  0
    5.3800   -4.3960   19.8080 O   0  0  0  0  0  0  0  0  0  0  0  0
    6.5140   -5.1210   21.7640 N   0  0  0  0  0  0  0  0  0  0  0  0
    5.5430   -6.0420   22.1660 C   0  0  0  0  0  0  0  0  0  0  0  0
    4.6970   -5.6950   23.2470 C   0  0  0  0  0  0  0  0  0  0  0  0
    5.4140   -5.2520   24.3350 N   0  0  0  0  0  0  0  0  0  0  0  0
    4.6100   -5.1000   25.8240 S   0  0  0  0  0  0  0  0  0  0  0  0
    5.5920   -4.7120   26.8050 O   0  0  0  0  0  0  0  0  0  0  0  0
    3.7540   -6.2500   25.9890 O   0  0  0  0  0  0  0  0  0  0  0  0
    3.4990   -3.7760   25.7760 C   0  0  0  0  0  0  0  0  0  0  0  0
    2.1550   -3.8630   25.4810 C   0  0  0  0  0  0  0  0  0  0  0  0
    1.2140   -2.6750   25.4680 C   0  0  0  0  0  0  0  0  0  0  0  0
    2.4640   -1.5350   25.9000 S   0  0  0  0  0  0  0  0  0  0  0  0
    3.8280   -2.5130   26.0330 C   0  0  0  0  0  0  0  0  0  0  0  0
    6.3270   -4.1190   23.9890 C   0  0  0  0  0  0  0  0  0  0  0  0
    7.2800   -4.6020   22.9000 C   0  0  0  0  0  0  0  0  0  0  0  0
  1  2  1  0
  2  3  2  0
  2  4  1  0
  4  5  1  0
  5  6  1  0
  6  7  1  0
  7  8  1  0
  8  9  2  0
  8 10  2  0
  8 11  1  0
 11 12  1  0
 12 13  2  0
 13 14  1  0
 11 15  2  0
 14 15  1  0
  7 16  1  0
  4 17  1  0
 16 17  1  0
M  END
