MAK-UNK-987948f6-2-nitrile
     RDKit          3D

 16 17  0  0  0  0  0  0  0  0999 V2000
    6.7560   -4.9470   20.4140 C   0  0  0  0  0  0  0  0  0  0  0  0
    5.8920   -4.1800   19.8470 N   0  0  0  0  0  0  0  0  0  0  0  0
    6.6860   -5.3570   21.7520 N   0  0  0  0  0  0  0  0  0  0  0  0
    5.4670   -6.0550   22.2020 C   0  0  0  0  0  0  0  0  0  0  0  0
    4.6400   -5.0900   23.0520 C   0  0  0  0  0  0  0  0  0  0  0  0
    5.3840   -3.8250   23.1650 N   0  0  0  0  0  0  0  0  0  0  0  0
    5.4700   -3.0660   21.9910 C   0  0  0  0  0  0  0  0  0  0  0  0
    4.7290   -3.3350   21.0570 O   0  0  0  0  0  0  0  0  0  0  0  0
    6.4320   -1.9660   21.8730 C   0  0  0  0  0  0  0  0  0  0  0  0
    6.0990   -0.6340   22.0150 C   0  0  0  0  0  0  0  0  0  0  0  0
    7.1420    0.3580   21.8870 C   0  0  0  0  0  0  0  0  0  0  0  0
    8.4850    0.0180   21.6240 C   0  0  0  0  0  0  0  0  0  0  0  0
    8.8350   -1.3530   21.4750 C   0  0  0  0  0  0  0  0  0  0  0  0
    7.7130   -2.3570   21.6130 C   0  0  0  0  0  0  0  0  0  0  0  0
    6.6820   -4.0230   23.8150 C   0  0  0  0  0  0  0  0  0  0  0  0
    7.5260   -4.8680   22.8520 C   0  0  0  0  0  0  0  0  0  0  0  0
  1  2  2  3
  1  3  1  0
  3  4  1  0
  4  5  1  0
  5  6  1  0
  6  7  1  0
  7  8  2  0
  7  9  1  0
  9 10  2  0
 10 11  1  0
 11 12  2  0
 12 13  1  0
  9 14  1  0
 13 14  2  0
  6 15  1  0
  3 16  1  0
 15 16  1  0
M  END
