MAK-UNK-3d7e3904-3-acrylamide
     RDKit          3D

 23 25  0  0  0  0  0  0  0  0999 V2000
    7.5030   -2.9200   18.5000 C   0  0  0  0  0  0  0  0  0  0  0  0
    6.7040   -2.5830   19.7190 C   0  0  0  0  0  0  0  0  0  0  0  0
    6.0760   -3.8320   20.2620 C   0  0  0  0  0  0  0  0  0  0  0  0
    5.1050   -4.3670   19.7360 O   0  0  0  0  0  0  0  0  0  0  0  0
    6.6780   -4.3390   21.3750 N   0  0  0  0  0  0  0  0  0  0  0  0
    7.5490   -3.5010   22.1760 C   0  0  0  0  0  0  0  0  0  0  0  0
    6.6840   -2.6320   22.9900 C   0  0  0  0  0  0  0  0  0  0  0  0
    5.6440   -3.2890   23.6670 C   0  0  0  0  0  0  0  0  0  0  0  0
    5.5000   -2.9530   24.9920 C   0  0  0  0  0  0  0  0  0  0  0  0
    4.6150   -3.4230   25.6900 O   0  0  0  0  0  0  0  0  0  0  0  0
    6.4700   -2.0470   25.3470 N   0  0  0  0  0  0  0  0  0  0  0  0
    6.6200   -1.3060   26.5960 C   0  0  0  0  0  0  0  0  0  0  0  0
    6.1180   -0.0010   26.6070 C   0  0  0  0  0  0  0  0  0  0  0  0
    6.2040    0.8310   27.7520 C   0  0  0  0  0  0  0  0  0  0  0  0
    6.8100    0.3510   28.9260 C   0  0  0  0  0  0  0  0  0  0  0  0
    7.3570   -1.0860   28.9090 C   0  0  0  0  0  0  0  0  0  0  0  0
    7.2340   -1.9390   27.6480 C   0  0  0  0  0  0  0  0  0  0  0  0
    7.6930   -3.3990   27.4000 C   0  0  0  0  0  0  0  0  0  0  0  0
    8.5050   -4.2480   28.3740 C   0  0  0  0  0  0  0  0  0  0  0  0
    7.2670   -4.7200   28.9730 O   0  0  0  0  0  0  0  0  0  0  0  0
    6.6640   -4.5240   27.6740 C   0  0  0  0  0  0  0  0  0  0  0  0
    5.8230   -4.8280   23.5940 C   0  0  0  0  0  0  0  0  0  0  0  0
    6.0410   -5.3480   22.1830 C   0  0  0  0  0  0  0  0  0  0  0  0
  1  2  1  0
  2  3  1  0
  3  4  2  0
  3  5  1  0
  5  6  1  0
  6  7  1  0
  7  8  1  0
  8  9  1  0
  9 10  2  0
  9 11  1  0
 11 12  1  0
 12 13  2  0
 13 14  1  0
 14 15  2  0
 15 16  1  0
 12 17  1  0
 16 17  2  0
 17 18  1  0
 18 19  1  0
 19 20  1  0
 18 21  1  0
 20 21  1  0
  8 22  1  0
  5 23  1  0
 22 23  1  0
M  END
