MAK-UNK-148caf23-23-chloroacetamide
     RDKit          3D

 35 38  0  0  0  0  0  0  0  0999 V2000
    9.2490   -4.1140   18.8910 C   0  0  0  0  0  0  0  0  0  0  0  0
    8.3730   -3.3190   19.8850 C   0  0  0  0  0  0  0  0  0  0  0  0
    7.0690   -3.3630   19.3950 O   0  0  0  0  0  0  0  0  0  0  0  0
    8.9990   -2.4780   21.2350 C   0  0  0  0  0  0  0  0  0  0  0  0
    8.0640   -2.3310   22.3960 C   0  0  0  0  0  0  0  0  0  0  0  0
    8.5260   -1.5840   23.5870 C   0  0  0  0  0  0  0  0  0  0  0  0
    9.7150   -0.9910   23.7910 C   0  0  0  0  0  0  0  0  0  0  0  0
    9.9960   -0.2910   24.9320 N   0  0  0  0  0  0  0  0  0  0  0  0
    8.8980    0.1180   25.7040 C   0  0  0  0  0  0  0  0  0  0  0  0
    8.5610   -0.3030   27.0320 C   0  0  0  0  0  0  0  0  0  0  0  0
    9.1770    0.3690   28.2170 C   0  0  0  0  0  0  0  0  0  0  0  0
    8.7640   -0.0920   29.6070 C   0  0  0  0  0  0  0  0  0  0  0  0
    7.8830   -1.0710   29.6920 C   0  0  0  0  0  0  0  0  0  0  0  0
    7.3210   -1.7060   28.5990 C   0  0  0  0  0  0  0  0  0  0  0  0
    6.4450   -2.6940   28.8440 F   0  0  0  0  0  0  0  0  0  0  0  0
    7.6360   -1.3510   27.2850 C   0  0  0  0  0  0  0  0  0  0  0  0
    7.0100   -2.0750   26.2850 C   0  0  0  0  0  0  0  0  0  0  0  0
    7.5220   -3.3160   26.0150 C   0  0  0  0  0  0  0  0  0  0  0  0
    6.7960   -3.8990   25.0250 C   0  0  0  0  0  0  0  0  0  0  0  0
    7.0600   -5.1650   24.5300 C   0  0  0  0  0  0  0  0  0  0  0  0
    8.3170   -5.6740   25.0950 N   0  0  0  0  0  0  0  0  0  0  0  0
    8.3370   -5.8960   26.4660 C   0  0  0  0  0  0  0  0  0  0  0  0
    5.7570   -2.9200   24.6620 C   0  0  0  0  0  0  0  0  0  0  0  0
    5.9340   -1.7920   25.4870 N   0  0  0  0  0  0  0  0  0  0  0  0
    4.9700   -0.3970   25.4560 S   0  0  0  0  0  0  0  0  0  0  0  0
    3.7150   -0.7110   26.1010 O   0  0  0  0  0  0  0  0  0  0  0  0
    5.8040    0.6840   25.9260 O   0  0  0  0  0  0  0  0  0  0  0  0
    4.6490   -0.0140   23.7630 C   0  0  0  0  0  0  0  0  0  0  0  0
    3.3610    0.3090   23.3450 C   0  0  0  0  0  0  0  0  0  0  0  0
    3.1380    0.6130   22.0040 C   0  0  0  0  0  0  0  0  0  0  0  0
    4.2110    0.5820   21.1200 C   0  0  0  0  0  0  0  0  0  0  0  0
    5.4690    0.2710   21.5070 N   0  0  0  0  0  0  0  0  0  0  0  0
    5.6670   -0.0230   22.8240 C   0  0  0  0  0  0  0  0  0  0  0  0
   10.6410   -1.0980   22.8070 N   0  0  0  0  0  0  0  0  0  0  0  0
   10.3000   -1.8010   21.6120 C   0  0  0  0  0  0  0  0  0  0  0  0
  1  2  1  0
  2  3  2  0
  2  4  1  0
  4  5  2  0
  5  6  1  0
  6  7  2  0
  7  8  1  0
  8  9  1  0
  9 10  1  0
 10 11  2  0
 11 12  1  0
 12 13  2  0
 13 14  1  0
 14 15  1  0
 10 16  1  0
 14 16  2  0
 16 17  1  0
 17 18  2  0
 18 19  1  0
 19 20  1  0
 20 21  1  0
 21 22  1  0
 19 23  2  0
 17 24  1  0
 23 24  1  0
 24 25  1  0
 25 26  2  0
 25 27  2  0
 25 28  1  0
 28 29  2  0
 29 30  1  0
 30 31  2  0
 31 32  1  0
 28 33  1  0
 32 33  2  0
  7 34  1  0
  4 35  1  0
 34 35  2  0
M  END
