MAK-UNK-90d0606b-3-nitrile
     RDKit          3D

 22 24  0  0  0  0  0  0  0  0999 V2000
    6.8300   -3.7260   19.9600 C   0  0  0  0  0  0  0  0  0  0  0  0
    5.8270   -4.5080   19.8930 N   0  0  0  0  0  0  0  0  0  0  0  0
    6.9420   -3.0190   21.0990 N   0  0  0  0  0  0  0  0  0  0  0  0
    6.3000   -3.3740   22.3650 C   0  0  0  0  0  0  0  0  0  0  0  0
    7.4430   -2.9180   23.3150 C   0  0  2  0  0  0  0  0  0  0  0  0
    6.7610   -1.6020   22.7550 C   0  0  0  0  0  0  0  0  0  0  0  0
    7.3550   -1.6450   21.3310 C   0  0  1  0  0  0  0  0  0  0  0  0
    8.7770   -1.6250   21.8390 C   0  0  0  0  0  0  0  0  0  0  0  0
    8.4580   -1.8180   23.2910 N   0  0  0  0  0  0  0  0  0  0  0  0
    9.6780   -2.0400   24.0960 C   0  0  1  0  0  0  0  0  0  0  0  0
   10.3400   -3.3980   23.8760 C   0  0  0  0  0  0  0  0  0  0  0  0
   11.4650   -3.5150   24.8250 N   0  0  0  0  0  0  0  0  0  0  0  0
   13.0000   -2.8590   24.6520 S   0  0  0  0  0  0  0  0  0  0  0  0
   12.8420   -1.1610   25.1140 C   0  0  0  0  0  0  0  0  0  0  0  0
   13.4000   -2.8940   23.2700 O   0  0  0  0  0  0  0  0  0  0  0  0
   13.7930   -3.4940   25.6870 O   0  0  0  0  0  0  0  0  0  0  0  0
   10.7690   -1.0880   23.6910 C   0  0  0  0  0  0  0  0  0  0  0  0
   11.7390   -1.4690   22.8430 C   0  0  0  0  0  0  0  0  0  0  0  0
   12.8010   -0.5970   22.4530 C   0  0  0  0  0  0  0  0  0  0  0  0
   12.8450    0.6440   22.9310 C   0  0  0  0  0  0  0  0  0  0  0  0
   11.7950    1.0860   23.8440 C   0  0  0  0  0  0  0  0  0  0  0  0
   10.7760    0.2120   24.2120 C   0  0  0  0  0  0  0  0  0  0  0  0
  1  2  2  3
  1  3  1  0
  3  4  1  0
  5  4  1  6
  5  6  1  0
  3  7  1  0
  6  7  1  0
  7  8  1  1
  5  9  1  0
  8  9  1  0
  9 10  1  0
 10 11  1  6
 11 12  1  0
 13 12  1  0
 13 14  1  0
 13 15  2  0
 13 16  2  0
 10 17  1  0
 17 18  2  0
 18 19  1  0
 19 20  2  0
 20 21  1  0
 17 22  1  0
 21 22  2  0
M  END
