MAK-UNK-ec98eaf6-14-nitrile
     RDKit          3D

 20 22  0  0  0  0  0  0  0  0999 V2000
    6.7930   -3.7580   20.0370 C   0  0  0  0  0  0  0  0  0  0  0  0
    5.7420   -4.4680   19.8970 N   0  0  0  0  0  0  0  0  0  0  0  0
    7.0000   -3.0770   21.1950 N   0  0  0  0  0  0  0  0  0  0  0  0
    6.3030   -3.3160   22.5010 C   0  0  0  0  0  0  0  0  0  0  0  0
    7.6080   -3.3370   23.2890 C   0  0  1  0  0  0  0  0  0  0  0  0
    8.6450   -3.0970   22.2460 C   0  0  0  0  0  0  0  0  0  0  0  0
    8.0130   -1.9600   21.3710 C   0  0  2  0  0  0  0  0  0  0  0  0
    8.2440   -1.1510   22.6560 C   0  0  0  0  0  0  0  0  0  0  0  0
    8.0040   -2.0430   23.8730 N   0  0  0  0  0  0  0  0  0  0  0  0
    9.2260   -2.1100   24.6900 C   0  0  0  0  0  0  0  0  0  0  0  0
   10.2110   -1.1310   24.0850 C   0  0  0  0  0  0  0  0  0  0  0  0
   11.1960   -1.9040   23.1960 C   0  0  0  0  0  0  0  0  0  0  0  0
   12.2820   -1.0820   22.4560 C   0  0  0  0  0  0  0  0  0  0  0  0
   13.3780   -1.8060   21.4320 Cl  0  0  0  0  0  0  0  0  0  0  0  0
   12.3190    0.4060   22.6540 C   0  0  0  0  0  0  0  0  0  0  0  0
   11.3440    1.0770   23.4940 C   0  0  0  0  0  0  0  0  0  0  0  0
   11.3800    2.5730   23.5950 C   0  0  0  0  0  0  0  0  0  0  0  0
   10.8980    3.2000   22.4150 O   0  0  0  0  0  0  0  0  0  0  0  0
   11.8630    4.1190   21.8910 C   0  0  0  0  0  0  0  0  0  0  0  0
   10.2810    0.3930   24.2460 C   0  0  0  0  0  0  0  0  0  0  0  0
  1  2  2  3
  1  3  1  0
  3  4  1  0
  5  4  1  6
  5  6  1  0
  3  7  1  0
  6  7  1  0
  7  8  1  1
  5  9  1  0
  8  9  1  0
  9 10  1  0
 10 11  1  0
 11 12  2  0
 12 13  1  0
 13 14  1  0
 13 15  2  0
 15 16  1  0
 16 17  1  0
 17 18  1  0
 18 19  1  0
 11 20  1  0
 16 20  2  0
M  END
