MAK-UNK-5d2caa6f-3-nitrile
     RDKit          3D

 21 23  0  0  0  0  0  0  0  0999 V2000
    7.2350   -3.5110   19.8010 C   0  0  0  0  0  0  0  0  0  0  0  0
    6.0680   -3.9450   19.5150 N   0  0  0  0  0  0  0  0  0  0  0  0
    7.3490   -2.9430   21.0230 N   0  0  0  0  0  0  0  0  0  0  0  0
    6.9930   -3.6150   22.2380 C   0  0  0  0  0  0  0  0  0  0  0  0
    8.3790   -3.3630   22.8430 C   0  0  1  0  0  0  0  0  0  0  0  0
    9.0010   -2.3550   21.8800 C   0  0  0  0  0  0  0  0  0  0  0  0
    7.7390   -1.5780   21.4460 C   0  0  2  0  0  0  0  0  0  0  0  0
    8.4040   -1.1600   22.8150 C   0  0  0  0  0  0  0  0  0  0  0  0
    8.3040   -2.3330   23.8180 N   0  0  0  0  0  0  0  0  0  0  0  0
    9.5000   -2.4290   24.6840 C   0  0  2  0  0  0  0  0  0  0  0  0
   10.6640   -1.5770   24.0900 C   0  0  0  0  0  0  0  0  0  0  0  0
   11.5930   -2.0810   22.9880 C   0  0  0  0  0  0  0  0  0  0  0  0
   12.7230   -1.1790   22.4440 C   0  0  0  0  0  0  0  0  0  0  0  0
   12.8780    0.2110   23.0220 C   0  0  0  0  0  0  0  0  0  0  0  0
   11.9370    0.6880   24.1070 C   0  0  0  0  0  0  0  0  0  0  0  0
   10.8240   -0.1930   24.6650 C   0  0  0  0  0  0  0  0  0  0  0  0
    9.9660   -3.9000   25.0940 C   0  0  0  0  0  0  0  0  0  0  0  0
    9.3540   -4.4180   26.4060 C   0  0  0  0  0  0  0  0  0  0  0  0
    7.9450   -4.2640   26.4190 O   0  0  0  0  0  0  0  0  0  0  0  0
    9.5310   -4.9700   24.0620 C   0  0  0  0  0  0  0  0  0  0  0  0
    8.2110   -5.4450   24.3330 O   0  0  0  0  0  0  0  0  0  0  0  0
  1  2  2  3
  1  3  1  0
  3  4  1  0
  5  4  1  6
  5  6  1  0
  3  7  1  0
  6  7  1  0
  7  8  1  1
  5  9  1  0
  8  9  1  0
  9 10  1  0
 10 11  1  0
 11 12  2  0
 12 13  1  0
 13 14  2  0
 14 15  1  0
 11 16  1  0
 15 16  2  0
 10 17  1  6
 17 18  1  0
 18 19  1  0
 17 20  1  0
 20 21  1  0
M  END
