MAK-UNK-af83ef51-28-vinylsulfonamide
     RDKit          3D

 32 35  0  0  0  0  0  0  0  0999 V2000
    7.7570   -4.5310   20.7020 C   0  0  0  0  0  0  0  0  0  0  0  0
    6.7970   -4.7840   21.8180 C   0  0  0  0  0  0  0  0  0  0  0  0
    5.3360   -3.9480   21.3120 S   0  0  0  0  0  0  0  0  0  0  0  0
    5.1490   -4.0910   19.8720 O   0  0  0  0  0  0  0  0  0  0  0  0
    4.2650   -4.3520   22.1620 O   0  0  0  0  0  0  0  0  0  0  0  0
    5.6220   -2.3270   21.5580 N   0  0  0  0  0  0  0  0  0  0  0  0
    6.1240   -1.8910   22.7940 C   0  0  0  0  0  0  0  0  0  0  0  0
    7.4710   -2.1080   22.9630 C   0  0  0  0  0  0  0  0  0  0  0  0
    8.3220   -1.9210   21.7490 N   0  0  0  0  0  0  0  0  0  0  0  0
    9.5160   -1.0810   22.0030 C   0  0  0  0  0  0  0  0  0  0  0  0
   10.5150   -1.6210   22.7750 C   0  0  0  0  0  0  0  0  0  0  0  0
   11.8110   -1.2690   22.7680 C   0  0  0  0  0  0  0  0  0  0  0  0
   12.4920   -2.0900   23.7600 C   0  0  0  0  0  0  0  0  0  0  0  0
   13.3340   -1.1380   23.0840 O   0  0  0  0  0  0  0  0  0  0  0  0
   12.8350    0.2020   23.0000 C   0  0  0  0  0  0  0  0  0  0  0  0
   11.9610   -0.7620   23.9170 C   0  0  0  0  0  0  0  0  0  0  0  0
   11.1870    0.3960   24.0550 C   0  0  0  0  0  0  0  0  0  0  0  0
   10.3390    1.3430   24.3110 C   0  0  0  0  0  0  0  0  0  0  0  0
    9.1160    1.3500   25.1140 N   0  0  0  0  0  0  0  0  0  0  0  0
    8.4790    0.1550   25.3670 C   0  0  0  0  0  0  0  0  0  0  0  0
    8.3800   -0.1270   26.8280 C   0  0  0  0  0  0  0  0  0  0  0  0
   10.9450    2.2530   23.6230 N   0  0  0  0  0  0  0  0  0  0  0  0
   12.1460    1.5440   23.0430 C   0  0  0  0  0  0  0  0  0  0  0  0
   13.8900   -2.1310   24.1880 N   0  0  0  0  0  0  0  0  0  0  0  0
   14.1490   -3.0510   25.1710 N   0  0  0  0  0  0  0  0  0  0  0  0
   12.9620   -2.9940   24.7840 C   0  0  0  0  0  0  0  0  0  0  0  0
   12.8190   -1.8750   23.6370 C   0  0  0  0  0  0  0  0  0  0  0  0
   11.6060   -2.7310   24.1560 C   0  0  0  0  0  0  0  0  0  0  0  0
   10.3490   -2.5700   23.6630 N   0  0  0  0  0  0  0  0  0  0  0  0
    9.2020   -3.3020   24.0870 C   0  0  0  0  0  0  0  0  0  0  0  0
    7.6560   -1.4550   20.5140 C   0  0  0  0  0  0  0  0  0  0  0  0
    6.1230   -1.5530   20.4390 C   0  0  0  0  0  0  0  0  0  0  0  0
  1  2  1  0
  3  2  1  0
  3  4  2  0
  3  5  2  0
  3  6  1  0
  6  7  1  0
  7  8  1  0
  8  9  1  0
  9 10  1  0
 10 11  1  0
 11 12  2  0
 12 13  1  0
 13 14  1  0
 14 15  1  0
 15 16  2  0
 16 17  1  0
 17 18  2  0
 18 19  1  0
 19 20  1  0
 20 21  1  0
 18 22  1  0
 15 23  1  0
 22 23  2  0
 13 24  2  0
 24 25  1  0
 25 26  2  0
 12 27  1  0
 26 27  1  0
 27 28  2  0
 11 29  1  0
 28 29  1  0
 29 30  1  0
  9 31  1  0
  6 32  1  0
 31 32  1  0
M  END
