MAK-UNK-ec98eaf6-46-vinylsulfonamide
     RDKit          3D

 27 30  0  0  0  0  0  0  0  0999 V2000
    7.9930   -3.5020   19.6170 C   0  0  0  0  0  0  0  0  0  0  0  0
    7.0640   -2.5720   18.8910 C   0  0  0  0  0  0  0  0  0  0  0  0
    5.6180   -2.6130   19.8700 S   0  0  0  0  0  0  0  0  0  0  0  0
    5.1190   -3.9850   19.8420 O   0  0  0  0  0  0  0  0  0  0  0  0
    4.8130   -1.4880   19.4720 O   0  0  0  0  0  0  0  0  0  0  0  0
    6.2360   -2.2550   21.4080 N   0  0  0  0  0  0  0  0  0  0  0  0
    6.3450   -3.2040   22.5330 C   0  0  1  0  0  0  0  0  0  0  0  0
    7.6650   -3.3880   21.7500 C   0  0  0  0  0  0  0  0  0  0  0  0
    8.3240   -2.0590   22.1260 C   0  0  1  0  0  0  0  0  0  0  0  0
    7.1940   -1.1710   21.6040 C   0  0  2  0  0  0  0  0  0  0  0  0
    6.8680   -0.3910   22.8810 C   0  0  0  0  0  0  0  0  0  0  0  0
    7.7520    0.8720   22.7380 C   0  0  0  0  0  0  0  0  0  0  0  0
    7.3340    1.9380   21.7470 C   0  0  0  0  0  0  0  0  0  0  0  0
    8.2010    3.1510   21.6340 C   0  0  0  0  0  0  0  0  0  0  0  0
    9.3470    3.2490   22.4290 C   0  0  0  0  0  0  0  0  0  0  0  0
    9.6920    2.2350   23.3310 C   0  0  0  0  0  0  0  0  0  0  0  0
    8.9130    1.0770   23.4830 C   0  0  0  0  0  0  0  0  0  0  0  0
    8.2240   -2.1450   23.5910 N   0  0  0  0  0  0  0  0  0  0  0  0
    9.4510   -2.1530   24.3830 C   0  0  0  0  0  0  0  0  0  0  0  0
   10.4920   -1.2930   24.0200 C   0  0  0  0  0  0  0  0  0  0  0  0
   10.7420   -0.0750   24.5790 C   0  0  0  0  0  0  0  0  0  0  0  0
   11.8160    0.7020   24.1290 C   0  0  0  0  0  0  0  0  0  0  0  0
   12.6310    0.2220   23.1210 C   0  0  0  0  0  0  0  0  0  0  0  0
   12.3550   -1.0310   22.5680 C   0  0  0  0  0  0  0  0  0  0  0  0
   13.3270   -1.6580   21.3260 Cl  0  0  0  0  0  0  0  0  0  0  0  0
   11.2590   -1.7980   23.0300 C   0  0  0  0  0  0  0  0  0  0  0  0
    7.4450   -3.4100   23.6310 C   0  0  0  0  0  0  0  0  0  0  0  0
  1  2  1  0
  3  2  1  0
  3  4  2  0
  3  5  2  0
  3  6  1  0
  6  7  1  0
  7  8  1  0
  8  9  1  0
  6 10  1  0
  9 10  1  0
 10 11  1  1
 11 12  1  0
 12 13  2  0
 13 14  1  0
 14 15  2  0
 15 16  1  0
 12 17  1  0
 16 17  2  0
  9 18  1  1
 18 19  1  0
 19 20  1  0
 20 21  2  0
 21 22  1  0
 22 23  2  0
 23 24  1  0
 24 25  1  0
 20 26  1  0
 24 26  2  0
  7 27  1  1
 18 27  1  0
M  END
