MAK-UNK-5d2caa6f-21-acrylamide
     RDKit          3D

 21 23  0  0  0  0  0  0  0  0999 V2000
    7.4090   -2.9890   18.4070 C   0  0  0  0  0  0  0  0  0  0  0  0
    6.7120   -1.9630   19.2490 C   0  0  0  0  0  0  0  0  0  0  0  0
    5.9370   -2.6200   20.3430 C   0  0  0  0  0  0  0  0  0  0  0  0
    5.0160   -3.3970   20.1310 O   0  0  0  0  0  0  0  0  0  0  0  0
    6.4300   -2.2710   21.5510 N   0  0  0  0  0  0  0  0  0  0  0  0
    5.9720   -2.8420   22.8140 C   0  0  0  0  0  0  0  0  0  0  0  0
    7.1330   -3.1940   23.5190 C   0  0  1  0  0  0  0  0  0  0  0  0
    8.0800   -3.4710   22.4080 C   0  0  0  0  0  0  0  0  0  0  0  0
    7.8790   -2.1420   21.6900 C   0  0  2  0  0  0  0  0  0  0  0  0
    8.0120   -1.1010   22.7440 C   0  0  0  0  0  0  0  0  0  0  0  0
    7.9890   -1.9810   24.0030 C   0  0  2  0  0  0  0  0  0  0  0  0
    9.4000   -2.4750   24.2640 C   0  0  0  0  0  0  0  0  0  0  0  0
    9.6020   -3.4610   24.9700 O   0  0  0  0  0  0  0  0  0  0  0  0
   10.4550   -1.8610   23.6950 N   0  0  0  0  0  0  0  0  0  0  0  0
   10.8530   -0.5820   23.5970 C   0  0  0  0  0  0  0  0  0  0  0  0
   11.9240   -1.6230   22.9570 C   0  0  0  0  0  0  0  0  0  0  0  0
   13.2160   -1.1440   22.3430 C   0  0  0  0  0  0  0  0  0  0  0  0
   12.7960   -0.1070   22.6690 C   0  0  0  0  0  0  0  0  0  0  0  0
   12.6960    1.1880   22.8600 C   0  0  0  0  0  0  0  0  0  0  0  0
   11.3820    0.8760   23.4500 C   0  0  0  0  0  0  0  0  0  0  0  0
   10.3260    2.3610   24.0140 Br  0  0  0  0  0  0  0  0  0  0  0  0
  1  2  1  0
  2  3  1  0
  3  4  2  0
  3  5  1  0
  5  6  1  0
  7  6  1  6
  7  8  1  0
  5  9  1  0
  8  9  1  0
  9 10  1  1
  7 11  1  0
 10 11  1  0
 11 12  1  6
 12 13  2  0
 12 14  1  0
 14 15  1  0
 15 16  2  0
 16 17  1  0
 17 18  2  0
 18 19  1  0
 15 20  1  0
 19 20  2  0
 20 21  1  0
M  END
