MAK-UNK-148caf23-22-vinylsulfonamide
     RDKit          3D

 37 40  0  0  0  0  0  0  0  0999 V2000
    6.5720   -3.8830   19.5330 C   0  0  0  0  0  0  0  0  0  0  0  0
    7.2440   -2.9380   20.4490 C   0  0  0  0  0  0  0  0  0  0  0  0
    6.6120   -3.3330   22.0160 S   0  0  0  0  0  0  0  0  0  0  0  0
    4.9720   -3.4100   21.6360 O   0  0  0  0  0  0  0  0  0  0  0  0
    7.1580   -4.5990   22.4580 O   0  0  0  0  0  0  0  0  0  0  0  0
    8.0090   -2.1660   22.7610 C   0  0  0  0  0  0  0  0  0  0  0  0
    9.5350   -2.1430   22.1330 C   0  0  0  0  0  0  0  0  0  0  0  0
   10.7110   -1.2140   22.7610 C   0  0  0  0  0  0  0  0  0  0  0  0
   10.2350   -0.4100   23.9740 C   0  0  0  0  0  0  0  0  0  0  0  0
    9.3450    0.0390   24.9380 N   0  0  0  0  0  0  0  0  0  0  0  0
    9.2240   -0.8730   26.0750 C   0  0  0  0  0  0  0  0  0  0  0  0
    8.3550   -0.3840   27.2120 C   0  0  0  0  0  0  0  0  0  0  0  0
    8.1040   -1.8750   27.0940 C   0  0  0  0  0  0  0  0  0  0  0  0
    7.2820   -2.7530   27.8060 C   0  0  0  0  0  0  0  0  0  0  0  0
    6.4050   -2.5660   28.8750 C   0  0  0  0  0  0  0  0  0  0  0  0
    6.3920   -3.8700   28.5290 F   0  0  0  0  0  0  0  0  0  0  0  0
    6.6400   -1.1850   28.9810 C   0  0  0  0  0  0  0  0  0  0  0  0
    5.9190   -0.5720   30.0050 C   0  0  0  0  0  0  0  0  0  0  0  0
    6.4280   -0.3020   31.2640 C   0  0  0  0  0  0  0  0  0  0  0  0
    5.5590    0.3100   32.1480 C   0  0  0  0  0  0  0  0  0  0  0  0
    5.8870    0.6660   33.4860 C   0  0  0  0  0  0  0  0  0  0  0  0
    7.2370    1.2250   33.4990 N   0  0  0  0  0  0  0  0  0  0  0  0
    8.2600    0.2340   33.5730 C   0  0  0  0  0  0  0  0  0  0  0  0
    4.3440    0.4680   31.4070 C   0  0  0  0  0  0  0  0  0  0  0  0
    4.5850   -0.0930   30.0560 N   0  0  0  0  0  0  0  0  0  0  0  0
    3.3960   -0.1200   28.8230 S   0  0  0  0  0  0  0  0  0  0  0  0
    3.1490    1.2750   28.5150 O   0  0  0  0  0  0  0  0  0  0  0  0
    3.8620   -1.0420   27.8100 O   0  0  0  0  0  0  0  0  0  0  0  0
    1.9600   -0.7660   29.6030 C   0  0  0  0  0  0  0  0  0  0  0  0
    2.7110   -1.8050   29.9790 C   0  0  0  0  0  0  0  0  0  0  0  0
    1.9750   -2.7900   30.7570 C   0  0  0  0  0  0  0  0  0  0  0  0
    0.7550   -1.7410   30.5090 C   0  0  0  0  0  0  0  0  0  0  0  0
    0.4720   -0.4740   29.8660 N   0  0  0  0  0  0  0  0  0  0  0  0
    1.3830    0.2900   29.1670 C   0  0  0  0  0  0  0  0  0  0  0  0
    7.4590   -0.2780   28.2770 C   0  0  0  0  0  0  0  0  0  0  0  0
    9.2620   -1.1270   23.4910 N   0  0  0  0  0  0  0  0  0  0  0  0
    7.9660   -1.2740   23.8510 C   0  0  0  0  0  0  0  0  0  0  0  0
  1  2  1  0
  3  2  1  0
  3  4  2  0
  3  5  2  0
  3  6  1  0
  6  7  2  0
  7  8  1  0
  8  9  2  0
  9 10  1  0
 10 11  1  0
 11 12  1  0
 12 13  2  0
 13 14  1  0
 14 15  2  0
 15 16  1  0
 15 17  1  0
 17 18  1  0
 18 19  2  0
 19 20  1  0
 20 21  1  0
 21 22  1  0
 22 23  1  0
 20 24  2  0
 18 25  1  0
 24 25  1  0
 25 26  1  0
 26 27  2  0
 26 28  2  0
 26 29  1  0
 29 30  2  0
 30 31  1  0
 31 32  2  0
 32 33  1  0
 29 34  1  0
 33 34  2  0
 12 35  1  0
 17 35  2  0
  9 36  1  0
  6 37  1  0
 36 37  2  0
M  END
