MAK-UNK-ec98eaf6-37-vinylsulfonamide
     RDKit          3D

 24 26  0  0  0  0  0  0  0  0999 V2000
    8.2320   -3.6590   20.1520 C   0  0  0  0  0  0  0  0  0  0  0  0
    6.9080   -3.0000   20.0540 C   0  0  0  0  0  0  0  0  0  0  0  0
    6.4040   -3.1210   21.7120 S   0  0  0  0  0  0  0  0  0  0  0  0
    4.8480   -3.2110   21.5540 O   0  0  0  0  0  0  0  0  0  0  0  0
    7.0350   -4.3140   22.2310 O   0  0  0  0  0  0  0  0  0  0  0  0
    7.4680   -1.7400   22.2850 N   0  0  0  0  0  0  0  0  0  0  0  0
    7.3320   -0.9950   23.5660 C   0  0  0  0  0  0  0  0  0  0  0  0
    8.7830   -0.8280   24.0750 C   0  0  2  0  0  0  0  0  0  0  0  0
    9.3150   -0.2620   22.7640 C   0  0  0  0  0  0  0  0  0  0  0  0
    8.9900   -1.5080   21.9200 C   0  0  1  0  0  0  0  0  0  0  0  0
   10.1020   -2.2150   22.7390 C   0  0  0  0  0  0  0  0  0  0  0  0
    9.4820   -2.2180   24.1440 C   0  0  2  0  0  0  0  0  0  0  0  0
    8.5470   -3.4250   24.1850 C   0  0  0  0  0  0  0  0  0  0  0  0
    8.2050   -4.2790   25.4110 C   0  0  0  0  0  0  0  0  0  0  0  0
    7.8690   -4.7670   26.6340 C   0  0  0  0  0  0  0  0  0  0  0  0
    7.5990   -5.7480   27.5410 C   0  0  0  0  0  0  0  0  0  0  0  0
    7.2480   -6.2520   28.7820 C   0  0  0  0  0  0  0  0  0  0  0  0
    5.8640   -5.9610   29.1270 N   0  0  0  0  0  0  0  0  0  0  0  0
    7.4600   -4.5410   28.1800 C   0  0  0  0  0  0  0  0  0  0  0  0
    7.6600   -3.3420   27.5620 N   0  0  0  0  0  0  0  0  0  0  0  0
    8.0200   -3.1180   26.2450 C   0  0  0  0  0  0  0  0  0  0  0  0
    8.1750   -1.7370   25.8500 N   0  0  0  0  0  0  0  0  0  0  0  0
    8.7710   -0.8230   26.7020 C   0  0  0  0  0  0  0  0  0  0  0  0
    8.5270   -1.1050   28.0660 C   0  0  0  0  0  0  0  0  0  0  0  0
  1  2  1  0
  3  2  1  0
  3  4  2  0
  3  5  2  0
  3  6  1  0
  6  7  1  0
  8  7  1  6
  8  9  1  0
  6 10  1  0
  9 10  1  0
 10 11  1  1
  8 12  1  0
 11 12  1  0
 12 13  1  6
 13 14  1  0
 14 15  2  0
 15 16  1  0
 16 17  1  0
 17 18  3  0
 16 19  2  0
 19 20  1  0
 14 21  1  0
 20 21  2  0
 21 22  1  0
 22 23  1  0
 23 24  1  0
M  END
