MAK-UNK-8fdbca50-13-acrylamide
     RDKit          3D

 40 43  0  0  0  0  0  0  0  0999 V2000
    8.0930   -3.6750   19.9280 C   0  0  0  0  0  0  0  0  0  0  0  0
    7.3580   -4.2110   21.1380 C   0  0  0  0  0  0  0  0  0  0  0  0
    6.5160   -3.0800   21.6330 C   0  0  0  0  0  0  0  0  0  0  0  0
    5.0560   -3.3620   21.4100 O   0  0  0  0  0  0  0  0  0  0  0  0
    7.6280   -1.9800   22.1950 N   0  0  0  0  0  0  0  0  0  0  0  0
    8.1340   -1.4280   23.3990 C   0  0  0  0  0  0  0  0  0  0  0  0
    9.2630   -2.1150   24.1240 C   0  0  0  0  0  0  0  0  0  0  0  0
   10.5570   -1.9680   23.3700 C   0  0  0  0  0  0  0  0  0  0  0  0
   11.3840   -0.8240   24.0320 C   0  0  0  0  0  0  0  0  0  0  0  0
   11.7570    0.2590   24.4600 O   0  0  0  0  0  0  0  0  0  0  0  0
   10.3730    0.0110   23.7460 N   0  0  0  0  0  0  0  0  0  0  0  0
   10.9020    1.0640   23.0310 C   0  0  0  0  0  0  0  0  0  0  0  0
    9.6880    0.6040   24.8080 C   0  0  2  0  0  0  0  0  0  0  0  0
    9.3230    0.0220   25.9690 C   0  0  0  0  0  0  0  0  0  0  0  0
    8.2490    0.2740   25.1210 C   0  0  0  0  0  0  0  0  0  0  0  0
    7.8880   -0.4290   26.3660 C   0  0  0  0  0  0  0  0  0  0  0  0
    6.4760   -0.7510   26.5960 C   0  0  0  0  0  0  0  0  0  0  0  0
    5.5330   -0.3870   25.6620 C   0  0  0  0  0  0  0  0  0  0  0  0
    4.2570   -0.7830   26.0110 C   0  0  0  0  0  0  0  0  0  0  0  0
    3.1950    0.0900   26.0260 C   0  0  0  0  0  0  0  0  0  0  0  0
    2.0650   -0.5570   26.3990 C   0  0  0  0  0  0  0  0  0  0  0  0
    0.7550   -0.0910   26.5510 C   0  0  0  0  0  0  0  0  0  0  0  0
   -0.0700   -1.2700   26.8010 N   0  0  0  0  0  0  0  0  0  0  0  0
   -0.1970   -2.0540   25.6390 C   0  0  0  0  0  0  0  0  0  0  0  0
    2.3490   -1.8830   26.6460 C   0  0  0  0  0  0  0  0  0  0  0  0
    3.7220   -2.0430   26.4050 N   0  0  0  0  0  0  0  0  0  0  0  0
    4.5300   -3.5550   26.5830 S   0  0  0  0  0  0  0  0  0  0  0  0
    5.8160   -3.2700   27.1740 O   0  0  0  0  0  0  0  0  0  0  0  0
    4.3850   -4.2370   25.3230 O   0  0  0  0  0  0  0  0  0  0  0  0
    3.6230   -4.4550   27.7870 C   0  0  0  0  0  0  0  0  0  0  0  0
    3.4500   -3.9410   29.0810 C   0  0  0  0  0  0  0  0  0  0  0  0
    2.6700   -4.6670   30.2040 C   0  0  0  0  0  0  0  0  0  0  0  0
    2.1750   -5.9960   29.5730 C   0  0  0  0  0  0  0  0  0  0  0  0
    2.3750   -6.4350   28.3140 N   0  0  0  0  0  0  0  0  0  0  0  0
    3.0800   -5.6770   27.4570 C   0  0  0  0  0  0  0  0  0  0  0  0
    5.8820    0.3020   24.4980 C   0  0  0  0  0  0  0  0  0  0  0  0
    4.9410    0.6580   23.6090 F   0  0  0  0  0  0  0  0  0  0  0  0
    7.2000    0.6110   24.2540 C   0  0  0  0  0  0  0  0  0  0  0  0
   10.3330   -1.8620   21.8720 C   0  0  0  0  0  0  0  0  0  0  0  0
    8.8540   -1.5200   21.3870 C   0  0  0  0  0  0  0  0  0  0  0  0
  1  2  1  0
  2  3  1  0
  3  4  2  0
  3  5  1  0
  5  6  1  0
  6  7  1  0
  7  8  1  0
  8  9  1  0
  9 10  2  0
  9 11  1  0
 11 12  1  0
 11 13  1  0
 13 14  1  1
 13 15  1  0
 15 16  2  0
 16 17  1  0
 17 18  2  0
 18 19  1  0
 19 20  2  0
 20 21  1  0
 21 22  1  0
 22 23  1  0
 23 24  1  0
 21 25  2  0
 19 26  1  0
 25 26  1  0
 26 27  1  0
 27 28  2  0
 27 29  2  0
 27 30  1  0
 30 31  2  0
 31 32  1  0
 32 33  2  0
 33 34  1  0
 30 35  1  0
 34 35  2  0
 18 36  1  0
 36 37  1  0
 15 38  1  0
 36 38  2  0
  8 39  1  0
  5 40  1  0
 39 40  1  0
M  END
