MAK-UNK-849bee6c-18-nitrile
     RDKit          3D

 27 29  0  0  0  0  0  0  0  0999 V2000
    6.6670   -4.2250   20.2090 C   0  0  0  0  0  0  0  0  0  0  0  0
    5.9750   -3.5250   19.3830 N   0  0  0  0  0  0  0  0  0  0  0  0
    6.7790   -3.8620   21.5360 N   0  0  0  0  0  0  0  0  0  0  0  0
    5.9140   -4.4730   22.5690 C   0  0  0  0  0  0  0  0  0  0  0  0
    7.2550   -4.6970   23.0880 C   0  0  0  0  0  0  0  0  0  0  0  0
    8.0040   -3.5410   23.6210 N   0  0  0  0  0  0  0  0  0  0  0  0
    9.3590   -3.5470   23.3000 C   0  0  0  0  0  0  0  0  0  0  0  0
   10.1240   -2.2530   23.5340 C   0  0  0  0  0  0  0  0  0  0  0  0
    9.5220   -1.1400   24.2940 C   0  0  0  0  0  0  0  0  0  0  0  0
   10.2120    0.1440   24.5470 C   0  0  0  0  0  0  0  0  0  0  0  0
    9.4900    1.0830   25.2650 C   0  0  0  0  0  0  0  0  0  0  0  0
   11.5290    0.3080   24.0330 C   0  0  0  0  0  0  0  0  0  0  0  0
   12.2020   -0.7020   23.2840 C   0  0  0  0  0  0  0  0  0  0  0  0
   13.5780   -0.3570   22.8010 N   0  0  0  0  0  0  0  0  0  0  0  0
   13.7030    0.9930   22.4290 C   0  0  0  0  0  0  0  0  0  0  0  0
   13.0630    1.9100   23.3130 C   0  0  0  0  0  0  0  0  0  0  0  0
   13.0300    3.3650   23.0600 C   0  0  0  0  0  0  0  0  0  0  0  0
   13.6040    3.9950   21.9480 C   0  0  0  0  0  0  0  0  0  0  0  0
   13.9500    4.7210   21.1920 N   0  0  0  0  0  0  0  0  0  0  0  0
   14.5200    4.0400   20.1000 C   0  0  0  0  0  0  0  0  0  0  0  0
   14.2000    3.0320   21.1700 C   0  0  0  0  0  0  0  0  0  0  0  0
   14.2940    1.6890   21.2780 C   0  0  0  0  0  0  0  0  0  0  0  0
   14.9280    1.3410   20.1070 C   0  0  0  0  0  0  0  0  0  0  0  0
   15.3850    1.2120   19.0770 N   0  0  0  0  0  0  0  0  0  0  0  0
   11.5610   -1.9450   23.0240 C   0  0  0  0  0  0  0  0  0  0  0  0
    7.3920   -2.2800   23.2110 C   0  0  0  0  0  0  0  0  0  0  0  0
    6.9560   -2.4300   21.7870 C   0  0  0  0  0  0  0  0  0  0  0  0
  1  2  2  3
  1  3  1  0
  3  4  1  0
  4  5  1  0
  5  6  1  0
  6  7  1  0
  7  8  1  0
  8  9  2  0
  9 10  1  0
 10 11  1  0
 10 12  2  0
 12 13  1  0
 13 14  1  0
 14 15  1  0
 15 16  2  0
 16 17  1  0
 17 18  2  0
 18 19  1  0
 19 20  1  0
 18 21  1  0
 15 22  1  0
 21 22  2  0
 22 23  1  0
 23 24  3  0
  8 25  1  0
 13 25  2  0
  6 26  1  0
  3 27  1  0
 26 27  1  0
M  END
