MAK-UNK-2c1752f0-4
     RDKit          3D

 10 10  0  0  0  0  0  0  0  0999 V2000
    1.6320    2.9340   21.6090 C   0  0  0  0  0  0  0  0  0  0  0  0
    1.8800    1.6130   22.1050 C   0  0  0  0  0  0  0  0  0  0  0  0
    1.3430    1.2800   23.3530 C   0  0  0  0  0  0  0  0  0  0  0  0
    3.2370    1.3820   22.1750 N   0  0  0  0  0  0  0  0  0  0  0  0
    4.0390    1.2550   20.9830 C   0  0  0  0  0  0  0  0  0  0  0  0
    5.2620    0.5850   21.1530 C   0  0  0  0  0  0  0  0  0  0  0  0
    6.2680    0.3350   20.0160 C   0  0  0  0  0  0  0  0  0  0  0  0
    5.9840    0.8180   18.5960 C   0  0  0  0  0  0  0  0  0  0  0  0
    4.7470    1.5100   18.3740 N   0  0  0  0  0  0  0  0  0  0  0  0
    3.8180    1.7190   19.5160 C   0  0  0  0  0  0  0  0  0  0  0  0
  1  2  1  0
  2  3  1  0
  2  4  1  0
  4  5  1  0
  5  6  2  0
  6  7  1  0
  7  8  2  0
  8  9  1  0
  5 10  1  0
  9 10  2  0
M  END
