MAK-UNK-9a6be56d-1
     RDKit          3D

 38 42  0  0  0  0  0  0  0  0999 V2000
   11.3870    6.1710   23.2860 N   0  0  0  0  0  0  0  0  0  0  0  0
   10.2360    5.0230   23.7040 S   0  0  0  0  0  0  0  0  0  0  0  0
    9.9160    5.2080   25.0960 O   0  0  0  0  0  0  0  0  0  0  0  0
    9.1680    5.1440   22.7460 O   0  0  0  0  0  0  0  0  0  0  0  0
   11.0560    3.4360   23.4500 C   0  0  0  0  0  0  0  0  0  0  0  0
   12.4100    3.4250   22.8640 C   0  0  0  0  0  0  0  0  0  0  0  0
   13.0460    2.2260   22.6720 C   0  0  0  0  0  0  0  0  0  0  0  0
   12.4620    0.9690   23.0030 C   0  0  0  0  0  0  0  0  0  0  0  0
   11.1830    0.9920   23.5500 C   0  0  0  0  0  0  0  0  0  0  0  0
   10.4900    2.2060   23.7730 C   0  0  0  0  0  0  0  0  0  0  0  0
   10.5730   -0.2140   23.8830 N   0  0  0  0  0  0  0  0  0  0  0  0
    9.7970   -0.2960   25.0130 C   0  0  0  0  0  0  0  0  0  0  0  0
    8.9630   -1.3110   25.1050 N   0  0  0  0  0  0  0  0  0  0  0  0
    8.3960   -1.3660   26.3610 C   0  0  0  0  0  0  0  0  0  0  0  0
    7.4930   -2.4120   26.5060 C   0  0  0  0  0  0  0  0  0  0  0  0
    7.2300   -3.1670   27.7160 C   0  0  0  0  0  0  0  0  0  0  0  0
    6.2800   -4.1340   27.5390 C   0  0  0  0  0  0  0  0  0  0  0  0
    5.8650   -4.9750   28.5540 C   0  0  0  0  0  0  0  0  0  0  0  0
    6.4610   -6.2320   28.7330 C   0  0  0  0  0  0  0  0  0  0  0  0
    6.0600   -7.1100   29.7410 C   0  0  0  0  0  0  0  0  0  0  0  0
    5.0300   -6.7750   30.6380 C   0  0  0  0  0  0  0  0  0  0  0  0
    4.3800   -5.3830   30.4330 C   0  0  0  0  0  0  0  0  0  0  0  0
    4.8320   -4.5600   29.4060 C   0  0  0  0  0  0  0  0  0  0  0  0
    4.2570   -3.3550   29.2490 F   0  0  0  0  0  0  0  0  0  0  0  0
    5.9060   -4.0290   26.2050 N   0  0  0  0  0  0  0  0  0  0  0  0
    4.7510   -4.9500   25.3240 S   0  0  0  0  0  0  0  0  0  0  0  0
    3.8890   -3.9760   24.6830 O   0  0  0  0  0  0  0  0  0  0  0  0
    5.5130   -5.8860   24.5210 O   0  0  0  0  0  0  0  0  0  0  0  0
    3.8160   -5.8520   26.4970 C   0  0  0  0  0  0  0  0  0  0  0  0
    4.3900   -6.8270   27.3110 C   0  0  0  0  0  0  0  0  0  0  0  0
    3.5830   -7.4980   28.2210 C   0  0  0  0  0  0  0  0  0  0  0  0
    2.2320   -7.1800   28.2870 C   0  0  0  0  0  0  0  0  0  0  0  0
    1.6500   -6.2380   27.5030 N   0  0  0  0  0  0  0  0  0  0  0  0
    2.4560   -5.5910   26.6220 C   0  0  0  0  0  0  0  0  0  0  0  0
    6.6280   -3.0000   25.5820 C   0  0  0  0  0  0  0  0  0  0  0  0
   11.4840   -1.3430   23.7130 C   0  0  0  0  0  0  0  0  0  0  0  0
   12.2750   -1.3570   22.5730 C   0  0  0  0  0  0  0  0  0  0  0  0
   13.1870   -0.3280   22.7740 C   0  0  0  0  0  0  0  0  0  0  0  0
  2  1  1  0
  2  3  2  0
  2  4  2  0
  2  5  1  0
  5  6  2  0
  6  7  1  0
  7  8  2  0
  8  9  1  0
  5 10  1  0
  9 10  2  0
  9 11  1  0
 11 12  1  0
 12 13  1  0
 13 14  1  0
 14 15  1  0
 15 16  1  0
 16 17  2  0
 17 18  1  0
 18 19  2  0
 19 20  1  0
 20 21  2  0
 21 22  1  0
 18 23  1  0
 22 23  2  0
 23 24  1  0
 17 25  1  0
 25 26  1  0
 26 27  2  0
 26 28  2  0
 26 29  1  0
 29 30  2  0
 30 31  1  0
 31 32  2  0
 32 33  1  0
 29 34  1  0
 33 34  2  0
 15 35  2  0
 25 35  1  0
 11 36  1  0
 36 37  1  0
  8 38  1  0
 37 38  1  0
M  END
