MAK-UNK-516d8086-5-acrylamide
     RDKit          3D

 24 26  0  0  0  0  0  0  0  0999 V2000
    7.1550   -3.5220   20.0990 C   0  0  0  0  0  0  0  0  0  0  0  0
    7.5980   -3.2120   21.5940 C   0  0  0  0  0  0  0  0  0  0  0  0
    6.2170   -2.8440   22.2840 C   0  0  0  0  0  0  0  0  0  0  0  0
    5.0760   -3.7100   21.7060 O   0  0  0  0  0  0  0  0  0  0  0  0
    5.4890   -1.5830   22.7150 C   0  0  0  0  0  0  0  0  0  0  0  0
    6.1810   -0.5840   23.4820 C   0  0  0  0  0  0  0  0  0  0  0  0
    6.7780    0.2880   24.1470 N   0  0  0  0  0  0  0  0  0  0  0  0
    7.7930   -0.5910   24.0350 C   0  0  0  0  0  0  0  0  0  0  0  0
    9.0990   -0.4380   24.4980 N   0  0  0  0  0  0  0  0  0  0  0  0
   10.0490   -0.0670   23.2630 C   0  0  0  0  0  0  0  0  0  0  0  0
   10.7170   -1.3210   22.7110 C   0  0  0  0  0  0  0  0  0  0  0  0
    7.5860   -2.0330   23.2460 C   0  0  0  0  0  0  0  0  0  0  0  0
    9.1660   -2.4430   23.7520 C   0  0  0  0  0  0  0  0  0  0  0  0
   10.6700   -1.7790   23.3270 C   0  0  0  0  0  0  0  0  0  0  0  0
   11.6030   -2.6060   23.9780 C   0  0  0  0  0  0  0  0  0  0  0  0
   10.9680   -3.4360   24.7590 C   0  0  0  0  0  0  0  0  0  0  0  0
    9.7640   -2.7940   24.3570 C   0  0  0  0  0  0  0  0  0  0  0  0
    8.5080   -2.1260   23.9380 C   0  0  0  0  0  0  0  0  0  0  0  0
    9.4250   -1.3390   23.0650 C   0  0  0  0  0  0  0  0  0  0  0  0
    7.7540   -3.0450   24.9190 C   0  0  0  0  0  0  0  0  0  0  0  0
    6.4280   -2.7710   25.4650 O   0  0  0  0  0  0  0  0  0  0  0  0
    8.4340   -4.3090   25.2060 C   0  0  0  0  0  0  0  0  0  0  0  0
    9.5670   -3.8140   25.3790 C   0  0  0  0  0  0  0  0  0  0  0  0
    6.1240   -2.7200   22.3190 C   0  0  0  0  0  0  0  0  0  0  0  0
  1  2  1  0
  2  3  1  0
  3  4  2  0
  3  5  1  0
  5  6  2  0
  6  7  1  0
  7  8  2  0
  8  9  1  0
  9 10  1  0
 10 11  1  0
  8 12  1  0
 12 13  1  0
 13 14  1  0
 14 15  2  0
 15 16  1  0
 16 17  2  0
 17 18  1  0
 14 19  1  0
 18 19  2  0
 18 20  1  0
 20 21  2  0
 20 22  1  0
 17 23  1  0
 22 23  1  0
  5 24  1  0
 12 24  2  0
M  END
