MAK-UNK-6ca90168-21-chloroacetamide
     RDKit          3D

 16 17  0  0  0  0  0  0  0  0999 V2000
    7.1990   -2.9720   18.7510 C   0  0  0  0  0  0  0  0  0  0  0  0
    6.2510   -3.2730   19.8770 C   0  0  0  0  0  0  0  0  0  0  0  0
    5.3910   -4.1520   19.7700 O   0  0  0  0  0  0  0  0  0  0  0  0
    6.4060   -2.5280   21.0590 N   0  0  0  0  0  0  0  0  0  0  0  0
    6.1540   -3.0280   22.4120 C   0  0  0  0  0  0  0  0  0  0  0  0
    7.4760   -3.3600   23.1360 C   0  0  0  0  0  0  0  0  0  0  0  0
    8.4960   -2.2960   23.0770 N   0  0  0  0  0  0  0  0  0  0  0  0
    9.6760   -2.3650   23.8520 C   0  0  0  0  0  0  0  0  0  0  0  0
    9.7920   -3.3420   24.8060 O   0  0  0  0  0  0  0  0  0  0  0  0
   10.7000   -1.4400   23.6370 C   0  0  0  0  0  0  0  0  0  0  0  0
   11.7810   -1.8780   22.8540 C   0  0  0  0  0  0  0  0  0  0  0  0
   12.7190   -0.8510   22.7330 C   0  0  0  0  0  0  0  0  0  0  0  0
   12.2970    0.3270   23.4370 C   0  0  0  0  0  0  0  0  0  0  0  0
   10.7910    0.1450   24.2130 S   0  0  0  0  0  0  0  0  0  0  0  0
    8.5820   -1.5780   21.7900 C   0  0  0  0  0  0  0  0  0  0  0  0
    7.3420   -1.3610   21.0140 C   0  0  0  0  0  0  0  0  0  0  0  0
  1  2  1  0
  2  3  2  0
  2  4  1  0
  4  5  1  0
  5  6  1  0
  6  7  1  0
  7  8  1  0
  8  9  2  0
  8 10  1  0
 10 11  2  0
 11 12  1  0
 12 13  2  0
 10 14  1  0
 13 14  1  0
  7 15  1  0
  4 16  1  0
 15 16  1  0
M  END
