MAK-UNK-5d2caa6f-18-nitrile
     RDKit          3D

 27 31  0  0  0  0  0  0  0  0999 V2000
    7.1650   -3.7760   20.1160 C   0  0  0  0  0  0  0  0  0  0  0  0
    5.9390   -4.0600   19.8020 N   0  0  0  0  0  0  0  0  0  0  0  0
    7.5430   -3.1090   21.2830 N   0  0  0  0  0  0  0  0  0  0  0  0
    7.9640   -1.6920   21.3710 C   0  0  0  0  0  0  0  0  0  0  0  0
    9.3000   -1.7200   21.8560 C   0  0  2  0  0  0  0  0  0  0  0  0
    9.6650   -3.0100   21.8380 C   0  0  0  0  0  0  0  0  0  0  0  0
    8.5440   -3.6910   22.2510 C   0  0  1  0  0  0  0  0  0  0  0  0
    8.4660   -3.0060   23.6040 C   0  0  0  0  0  0  0  0  0  0  0  0
    9.3110   -1.7060   23.4090 C   0  0  1  0  0  0  0  0  0  0  0  0
   10.8080   -1.8040   23.8430 C   0  0  0  0  0  0  0  0  0  0  0  0
   11.0880   -1.5340   25.0060 O   0  0  0  0  0  0  0  0  0  0  0  0
   11.8140   -2.2030   22.7870 N   0  0  0  0  0  0  0  0  0  0  0  0
   12.5940   -1.1930   22.3620 C   0  0  0  0  0  0  0  0  0  0  0  0
   12.8050    0.1090   22.8310 C   0  0  0  0  0  0  0  0  0  0  0  0
   12.1960    0.6380   23.9240 C   0  0  0  0  0  0  0  0  0  0  0  0
   13.1490    1.3470   23.0600 C   0  0  0  0  0  0  0  0  0  0  0  0
   13.8330    0.6260   21.7440 C   0  0  0  0  0  0  0  0  0  0  0  0
   14.8020    1.3270   20.7750 C   0  0  0  0  0  0  0  0  0  0  0  0
   15.2550    2.7100   20.6970 N   0  0  0  0  0  0  0  0  0  0  0  0
   15.9800    2.9130   19.5030 N   0  0  0  0  0  0  0  0  0  0  0  0
   16.0890    1.7460   18.7570 C   0  0  0  0  0  0  0  0  0  0  0  0
   16.7320    1.3210   17.3960 C   0  0  0  0  0  0  0  0  0  0  0  0
   15.9110    0.3130   16.6870 C   0  0  0  0  0  0  0  0  0  0  0  0
   14.6930    0.6290   17.3310 C   0  0  0  0  0  0  0  0  0  0  0  0
   14.8340   -0.1140   18.4470 C   0  0  0  0  0  0  0  0  0  0  0  0
   15.5030    0.6800   19.4180 C   0  0  2  0  0  0  0  0  0  0  0  0
   13.4690   -0.8230   21.4390 C   0  0  0  0  0  0  0  0  0  0  0  0
  1  2  2  3
  1  3  1  0
  3  4  1  0
  5  4  1  1
  5  6  1  0
  3  7  1  0
  6  7  1  0
  7  8  1  1
  5  9  1  0
  8  9  1  0
  9 10  1  6
 10 11  2  0
 10 12  1  0
 12 13  1  0
 13 14  2  0
 14 15  1  0
 15 16  2  0
 16 17  1  0
 17 18  1  0
 18 19  2  0
 19 20  1  0
 20 21  2  0
 21 22  1  0
 22 23  1  0
 23 24  1  0
 24 25  1  0
 18 26  1  0
 21 26  1  0
 26 25  1  6
 13 27  1  0
 17 27  2  0
M  END
