MAK-UNK-516d8086-16-acrylamide
     RDKit          3D

 24 26  0  0  0  0  0  0  0  0999 V2000
    7.2130   -3.5280   19.8320 C   0  0  0  0  0  0  0  0  0  0  0  0
    6.4890   -4.4930   20.7670 C   0  0  0  0  0  0  0  0  0  0  0  0
    5.9020   -3.7510   21.9340 C   0  0  0  0  0  0  0  0  0  0  0  0
    4.6820   -3.8370   22.1520 O   0  0  0  0  0  0  0  0  0  0  0  0
    6.8740   -2.8730   22.8280 C   0  0  0  0  0  0  0  0  0  0  0  0
    6.2790   -2.0100   23.8720 C   0  0  0  0  0  0  0  0  0  0  0  0
    7.0140   -1.1950   24.7080 C   0  0  0  0  0  0  0  0  0  0  0  0
    8.4160   -1.1460   24.5990 C   0  0  0  0  0  0  0  0  0  0  0  0
    9.0860   -0.2900   25.4710 C   0  0  0  0  0  0  0  0  0  0  0  0
    8.4940    0.9600   25.5040 C   0  0  0  0  0  0  0  0  0  0  0  0
    8.1760    1.3060   26.8130 C   0  0  0  0  0  0  0  0  0  0  0  0
    9.1640   -1.9270   23.6370 C   0  0  0  0  0  0  0  0  0  0  0  0
   10.5990   -1.9420   23.4710 C   0  0  0  0  0  0  0  0  0  0  0  0
   10.9830   -3.1760   23.8860 C   0  0  0  0  0  0  0  0  0  0  0  0
   11.9590   -2.5330   24.5830 C   0  0  0  0  0  0  0  0  0  0  0  0
   12.0000   -1.1990   24.4160 C   0  0  0  0  0  0  0  0  0  0  0  0
   11.0570   -0.6920   23.5550 C   0  0  0  0  0  0  0  0  0  0  0  0
   10.0630   -1.4860   22.8630 C   0  0  0  0  0  0  0  0  0  0  0  0
    9.8100   -3.0940   22.9240 C   0  0  0  0  0  0  0  0  0  0  0  0
    9.2250   -0.5460   21.9760 C   0  0  0  0  0  0  0  0  0  0  0  0
    8.6090    0.3680   21.4550 O   0  0  0  0  0  0  0  0  0  0  0  0
    9.4920    0.3650   22.9980 N   0  0  0  0  0  0  0  0  0  0  0  0
   10.8970    0.6020   23.2210 C   0  0  0  0  0  0  0  0  0  0  0  0
    8.4330   -2.7910   22.7480 C   0  0  0  0  0  0  0  0  0  0  0  0
  1  2  1  0
  2  3  1  0
  3  4  2  0
  3  5  1  0
  5  6  2  0
  6  7  1  0
  7  8  2  0
  8  9  1  0
  9 10  1  0
 10 11  1  0
  8 12  1  0
 12 13  1  0
 13 14  1  0
 14 15  2  0
 15 16  1  0
 16 17  2  0
 17 18  1  0
 14 19  1  0
 18 19  2  0
 18 20  1  0
 20 21  2  0
 20 22  1  0
 17 23  1  0
 22 23  1  0
  5 24  1  0
 12 24  2  0
M  END
