MAK-UNK-a7992eb3-25
     RDKit          3D

 37 40  0  0  0  0  0  0  0  0999 V2000
   17.0910  -12.2210   22.9910 C   0  0  0  0  0  0  0  0  0  0  0  0
   15.9160  -13.0080   22.8580 C   0  0  0  0  0  0  0  0  0  0  0  0
   16.1120  -13.9750   23.5320 O   0  0  0  0  0  0  0  0  0  0  0  0
   14.6240  -12.9670   22.0050 N   0  0  0  0  0  0  0  0  0  0  0  0
   13.8530  -12.1330   21.0100 C   0  0  1  0  0  0  0  0  0  0  0  0
   13.0260  -10.7920   21.4190 C   0  0  0  0  0  0  0  0  0  0  0  0
   12.0490   -8.3740   21.1570 C   0  0  0  0  0  0  0  0  0  0  0  0
   10.8570   -7.9200   21.2060 C   0  0  0  0  0  0  0  0  0  0  0  0
   10.2760   -6.6610   20.9870 C   0  0  0  0  0  0  0  0  0  0  0  0
   10.5770   -5.2050   20.6280 C   0  0  0  0  0  0  0  0  0  0  0  0
    9.6700   -3.8570   20.4450 O   0  0  0  0  0  0  0  0  0  0  0  0
    8.1730   -3.1680   20.4910 C   0  0  0  0  0  0  0  0  0  0  0  0
    7.7530   -2.5220   19.1030 C   0  0  0  0  0  0  0  0  0  0  0  0
    6.4360   -1.7930   18.8050 C   0  0  0  0  0  0  0  0  0  0  0  0
    5.4050   -1.6450   19.8870 C   0  0  0  0  0  0  0  0  0  0  0  0
    5.7470   -2.2490   21.2250 C   0  0  0  0  0  0  0  0  0  0  0  0
    7.0760   -2.9810   21.5060 C   0  0  0  0  0  0  0  0  0  0  0  0
    6.9030   -3.3590   22.8520 C   0  0  0  0  0  0  0  0  0  0  0  0
    5.4860   -3.2880   23.1120 N   0  0  0  0  0  0  0  0  0  0  0  0
    4.8950   -4.3900   23.6740 C   0  0  0  0  0  0  0  0  0  0  0  0
    4.8820   -4.8210   24.9430 N   0  0  0  0  0  0  0  0  0  0  0  0
    4.1560   -5.9500   24.9680 C   0  0  0  0  0  0  0  0  0  0  0  0
    3.9110   -6.6920   26.1070 C   0  0  0  0  0  0  0  0  0  0  0  0
    3.1310   -7.8470   25.9840 C   0  0  0  0  0  0  0  0  0  0  0  0
    2.6260   -8.2240   24.7290 C   0  0  0  0  0  0  0  0  0  0  0  0
    2.8920   -7.4530   23.5850 C   0  0  0  0  0  0  0  0  0  0  0  0
    3.6680   -6.2990   23.7160 C   0  0  0  0  0  0  0  0  0  0  0  0
    4.1470   -5.2970   22.8870 N   0  0  0  0  0  0  0  0  0  0  0  0
   11.9500   -5.3110   20.5990 C   0  0  0  0  0  0  0  0  0  0  0  0
   12.6310   -6.6390   20.8540 C   0  0  0  0  0  0  0  0  0  0  0  0
   14.4230  -12.0630   19.7180 C   0  0  0  0  0  0  0  0  0  0  0  0
   13.9160  -12.7900   19.1000 O   0  0  0  0  0  0  0  0  0  0  0  0
   15.4730  -11.1190   19.1580 N   0  0  0  0  0  0  0  0  0  0  0  0
   15.5380   -9.0910   17.5980 C   0  0  0  0  0  0  0  0  0  0  0  0
   15.5370   -7.2220   17.3240 C   0  0  0  0  0  0  0  0  0  0  0  0
   15.4390   -6.1550   18.5110 C   0  0  0  0  0  0  0  0  0  0  0  0
   15.1210   -5.0420   19.9810 Br  0  0  0  0  0  0  0  0  0  0  0  0
  1  2  1  0
  2  3  2  0
  2  4  1  0
  4  5  1  0
  5  6  1  1
  6  7  1  0
  7  8  2  0
  8  9  1  0
  9 10  2  0
 10 11  1  0
 11 12  1  0
 12 13  2  0
 13 14  1  0
 14 15  2  0
 15 16  1  0
 12 17  1  0
 16 17  2  0
 17 18  1  0
 18 19  1  0
 19 20  1  0
 20 21  2  0
 21 22  1  0
 22 23  2  0
 23 24  1  0
 24 25  2  0
 25 26  1  0
 22 27  1  0
 26 27  2  0
 20 28  1  0
 27 28  1  0
 10 29  1  0
  7 30  1  0
 29 30  2  0
  5 31  1  0
 31 32  2  0
 31 33  1  0
 33 34  1  0
 34 35  1  0
 35 36  3  0
 36 37  1  0
M  END
