MAK-UNK-a7992eb3-9-vinylsulfonamide
     RDKit          3D

 33 36  0  0  0  0  0  0  0  0999 V2000
    6.2080   -4.2330   20.1150 C   0  0  0  0  0  0  0  0  0  0  0  0
    5.9750   -5.4840   20.9700 C   0  0  0  0  0  0  0  0  0  0  0  0
    4.9380   -5.0140   22.3340 S   0  0  0  0  0  0  0  0  0  0  0  0
    3.6830   -5.7150   22.2480 O   0  0  0  0  0  0  0  0  0  0  0  0
    4.8960   -3.5700   22.4000 O   0  0  0  0  0  0  0  0  0  0  0  0
    5.7660   -5.6240   23.6760 N   0  0  0  0  0  0  0  0  0  0  0  0
    7.1890   -5.4140   23.5850 C   0  0  0  0  0  0  0  0  0  0  0  0
    7.7230   -4.5580   24.4990 C   0  0  0  0  0  0  0  0  0  0  0  0
    6.8980   -3.4900   24.8120 C   0  0  0  0  0  0  0  0  0  0  0  0
    6.7200   -2.5270   23.8250 C   0  0  0  0  0  0  0  0  0  0  0  0
    6.7740   -2.8810   22.6600 O   0  0  0  0  0  0  0  0  0  0  0  0
    6.4950   -1.2060   24.1900 N   0  0  0  0  0  0  0  0  0  0  0  0
    7.1440   -0.1780   23.3540 C   0  0  0  0  0  0  0  0  0  0  0  0
    6.1970    0.9360   22.8300 C   0  0  0  0  0  0  0  0  0  0  0  0
    6.7730    2.0770   21.9510 C   0  0  0  0  0  0  0  0  0  0  0  0
    8.2590    2.0440   21.6480 C   0  0  0  0  0  0  0  0  0  0  0  0
    9.1290    0.9090   22.1960 C   0  0  0  0  0  0  0  0  0  0  0  0
    8.5270   -0.2140   23.0640 C   0  0  0  0  0  0  0  0  0  0  0  0
    9.2200   -1.1400   23.5220 O   0  0  0  0  0  0  0  0  0  0  0  0
    9.8520   -2.1430   22.6780 C   0  0  0  0  0  0  0  0  0  0  0  0
   11.3000   -1.6740   22.5450 C   0  0  0  0  0  0  0  0  0  0  0  0
   12.1850   -2.0000   23.4530 C   0  0  0  0  0  0  0  0  0  0  0  0
   12.2360   -1.3370   24.6150 C   0  0  0  0  0  0  0  0  0  0  0  0
   13.2280   -1.6250   25.5440 C   0  0  0  0  0  0  0  0  0  0  0  0
   14.0570   -2.5690   25.2350 C   0  0  0  0  0  0  0  0  0  0  0  0
   13.6870   -2.9710   24.0360 C   0  0  0  0  0  0  0  0  0  0  0  0
   13.0540   -2.9510   23.1550 N   0  0  0  0  0  0  0  0  0  0  0  0
   12.2190   -1.9260   21.3900 C   0  0  0  0  0  0  0  0  0  0  0  0
   13.2720   -1.0840   21.7500 C   0  0  0  0  0  0  0  0  0  0  0  0
   12.7900   -0.0790   22.5620 C   0  0  0  0  0  0  0  0  0  0  0  0
   11.4410   -0.2900   22.6900 C   0  0  0  0  0  0  0  0  0  0  0  0
    5.5090   -3.9450   25.3380 C   0  0  0  0  0  0  0  0  0  0  0  0
    5.1980   -5.2610   24.9790 C   0  0  0  0  0  0  0  0  0  0  0  0
  1  2  1  0
  3  2  1  0
  3  4  2  0
  3  5  2  0
  3  6  1  0
  6  7  1  0
  7  8  1  0
  8  9  1  0
  9 10  1  0
 10 11  2  0
 10 12  1  0
 12 13  1  0
 13 14  2  0
 14 15  1  0
 15 16  2  0
 16 17  1  0
 13 18  1  0
 17 18  2  0
 18 19  1  0
 19 20  1  0
 21 20  1  0
 21 22  1  0
 22 23  2  0
 23 24  1  0
 24 25  2  0
 25 26  1  0
 22 27  1  0
 26 27  2  0
 21 28  1  0
 28 29  1  0
 29 30  1  0
 21 31  1  0
 30 31  1  0
  9 32  1  0
  6 33  1  0
 32 33  1  0
M  END
