MAK-UNK-a7992eb3-28
     RDKit          3D

 26 27  0  0  0  0  0  0  0  0999 V2000
   -2.5530    1.1140   27.1110 C   0  0  0  0  0  0  0  0  0  0  0  0
   -3.2830    2.3160   26.5500 C   0  0  0  0  0  0  0  0  0  0  0  0
   -4.3210    2.7540   27.0540 O   0  0  0  0  0  0  0  0  0  0  0  0
   -2.6410    2.9030   25.3630 N   0  0  0  0  0  0  0  0  0  0  0  0
   -3.1120    2.3230   24.1040 C   0  0  2  0  0  0  0  0  0  0  0  0
   -3.5090    0.9910   24.1800 C   0  0  0  0  0  0  0  0  0  0  0  0
   -2.5110    0.0540   24.4110 C   0  0  0  0  0  0  0  0  0  0  0  0
   -2.8260   -1.3050   24.5470 C   0  0  0  0  0  0  0  0  0  0  0  0
   -1.8700   -2.2870   24.7700 C   0  0  0  0  0  0  0  0  0  0  0  0
   -0.3790   -1.9490   24.8830 C   0  0  0  0  0  0  0  0  0  0  0  0
    0.5230   -3.0530   25.0900 O   0  0  0  0  0  0  0  0  0  0  0  0
    1.6680   -2.8180   25.9050 C   0  0  0  0  0  0  0  0  0  0  0  0
    2.9170   -3.5960   25.5900 C   0  0  0  0  0  0  0  0  0  0  0  0
    3.8700   -2.2040   25.6390 S   0  0  0  0  0  0  0  0  0  0  0  0
    4.3780   -1.9230   24.3110 O   0  0  0  0  0  0  0  0  0  0  0  0
    4.6930   -2.1520   26.8270 O   0  0  0  0  0  0  0  0  0  0  0  0
    2.3390   -1.3880   25.8560 C   0  0  0  0  0  0  0  0  0  0  0  0
   -0.0500   -0.6020   24.7570 C   0  0  0  0  0  0  0  0  0  0  0  0
   -1.1580    0.4400   24.5110 C   0  0  0  0  0  0  0  0  0  0  0  0
   -2.3210    2.5960   22.9730 C   0  0  0  0  0  0  0  0  0  0  0  0
   -1.0600    3.1190   23.0760 O   0  0  0  0  0  0  0  0  0  0  0  0
   -2.9280    2.2970   21.6890 N   0  0  0  0  0  0  0  0  0  0  0  0
   -2.2770    2.7030   20.4530 C   0  0  0  0  0  0  0  0  0  0  0  0
   -3.1000    3.2890   19.4870 C   0  0  0  0  0  0  0  0  0  0  0  0
   -2.5510    3.9030   18.3620 C   0  0  0  0  0  0  0  0  0  0  0  0
   -1.8010    4.7230   16.8120 Br  0  0  0  0  0  0  0  0  0  0  0  0
  1  2  1  0
  2  3  2  0
  2  4  1  0
  4  5  1  0
  5  6  1  1
  6  7  1  0
  7  8  2  0
  8  9  1  0
  9 10  2  0
 10 11  1  0
 11 12  1  0
 12 13  1  0
 14 13  1  0
 14 15  2  0
 14 16  2  0
 12 17  1  0
 14 17  1  0
 10 18  1  0
  7 19  1  0
 18 19  2  0
  5 20  1  0
 20 21  2  0
 20 22  1  0
 22 23  1  0
 23 24  1  0
 24 25  3  0
 25 26  1  0
M  END
