MAK-UNK-e4a48a85-26-vinylsulfonamide
     RDKit          3D

 28 30  0  0  0  0  0  0  0  0999 V2000
    6.3720   -4.3790   19.9220 C   0  0  0  0  0  0  0  0  0  0  0  0
    6.9110   -3.1640   19.1600 C   0  0  0  0  0  0  0  0  0  0  0  0
    5.7120   -2.0930   19.7030 S   0  0  0  0  0  0  0  0  0  0  0  0
    4.6670   -3.0360   19.8860 O   0  0  0  0  0  0  0  0  0  0  0  0
    5.6180   -0.9340   18.8440 O   0  0  0  0  0  0  0  0  0  0  0  0
    6.4510   -1.7050   21.1430 N   0  0  0  0  0  0  0  0  0  0  0  0
    6.1840   -2.4110   22.4230 C   0  0  0  0  0  0  0  0  0  0  0  0
    7.4090   -3.2950   22.8040 C   0  0  0  0  0  0  0  0  0  0  0  0
    8.6500   -2.4680   22.9680 N   0  0  0  0  0  0  0  0  0  0  0  0
    9.4280   -2.3100   24.2020 C   0  0  0  0  0  0  0  0  0  0  0  0
   10.4500   -1.2190   23.8800 C   0  0  0  0  0  0  0  0  0  0  0  0
   11.7590   -1.9590   23.3670 C   0  0  0  0  0  0  0  0  0  0  0  0
   12.8830   -0.9820   22.9740 C   0  0  0  0  0  0  0  0  0  0  0  0
   12.6370    0.5290   23.1030 C   0  0  0  0  0  0  0  0  0  0  0  0
   11.3050    1.0720   23.6160 C   0  0  0  0  0  0  0  0  0  0  0  0
   11.2490    2.5860   23.6430 C   0  0  0  0  0  0  0  0  0  0  0  0
   10.2900    0.1860   23.9880 C   0  0  0  0  0  0  0  0  0  0  0  0
    8.9810    0.7810   24.5110 C   0  0  0  0  0  0  0  0  0  0  0  0
    8.4480    0.3000   25.5000 O   0  0  0  0  0  0  0  0  0  0  0  0
    8.4220    1.8470   23.8890 N   0  0  0  0  0  0  0  0  0  0  0  0
    7.3230    2.3880   24.4690 C   0  0  0  0  0  0  0  0  0  0  0  0
    7.2650    3.9060   24.2130 C   0  0  0  0  0  0  0  0  0  0  0  0
    8.1490    4.3460   23.0140 C   0  0  0  0  0  0  0  0  0  0  0  0
    8.2780    5.4710   22.5190 O   0  0  0  0  0  0  0  0  0  0  0  0
    7.9220    3.2740   21.9570 C   0  0  0  0  0  0  0  0  0  0  0  0
    8.4970    1.9460   22.4020 C   0  0  0  0  0  0  0  0  0  0  0  0
    8.6400   -1.2240   22.2440 C   0  0  0  0  0  0  0  0  0  0  0  0
    7.9050   -1.4190   20.9640 C   0  0  0  0  0  0  0  0  0  0  0  0
  1  2  1  0
  3  2  1  0
  3  4  2  0
  3  5  2  0
  3  6  1  0
  6  7  1  0
  7  8  1  0
  8  9  1  0
  9 10  1  0
 10 11  1  0
 11 12  2  0
 12 13  1  0
 13 14  2  0
 14 15  1  0
 15 16  1  0
 11 17  1  0
 15 17  2  0
 17 18  1  0
 18 19  2  0
 18 20  1  0
 20 21  1  0
 21 22  1  0
 22 23  1  0
 23 24  1  0
 23 25  1  0
 20 26  1  0
 25 26  1  0
  9 27  1  0
  6 28  1  0
 27 28  1  0
M  END
