MAK-UNK-ec98eaf6-36-chloroacetamide
     RDKit          3D

 25 28  0  0  0  0  0  0  0  0999 V2000
    7.4840   -3.1700   19.1500 C   0  0  0  0  0  0  0  0  0  0  0  0
    6.6060   -3.7730   20.2740 C   0  0  0  0  0  0  0  0  0  0  0  0
    5.7190   -4.6010   19.9790 O   0  0  0  0  0  0  0  0  0  0  0  0
    6.7870   -3.3460   21.6040 N   0  0  0  0  0  0  0  0  0  0  0  0
    6.8100   -4.1940   22.8410 C   0  0  0  0  0  0  0  0  0  0  0  0
    8.3300   -4.2470   23.2290 C   0  0  1  0  0  0  0  0  0  0  0  0
    8.3790   -3.7020   21.8870 C   0  0  0  0  0  0  0  0  0  0  0  0
    7.6610   -2.3450   22.1440 C   0  0  1  0  0  0  0  0  0  0  0  0
    9.1580   -2.2350   22.1490 C   0  0  0  0  0  0  0  0  0  0  0  0
    9.3150   -3.0470   23.4830 C   0  0  2  0  0  0  0  0  0  0  0  0
   10.7840   -3.3980   23.4680 N   0  0  0  0  0  0  0  0  0  0  0  0
   11.6350   -2.2370   23.1170 C   0  0  0  0  0  0  0  0  0  0  0  0
   11.6610   -1.1080   24.0600 C   0  0  0  0  0  0  0  0  0  0  0  0
   12.4070   -0.0230   23.7380 C   0  0  0  0  0  0  0  0  0  0  0  0
   13.1380    0.0390   22.5620 C   0  0  0  0  0  0  0  0  0  0  0  0
   13.7410    1.1470   22.4320 C   0  0  0  0  0  0  0  0  0  0  0  0
   14.4570    1.3810   21.3710 C   0  0  0  0  0  0  0  0  0  0  0  0
   14.6850    0.5280   20.2480 C   0  0  0  0  0  0  0  0  0  0  0  0
   15.7920    1.5510   19.0100 S   0  0  0  0  0  0  0  0  0  0  0  0
   15.7470    3.0920   19.6610 N   0  0  0  0  0  0  0  0  0  0  0  0
   15.0900    1.7710   17.7810 O   0  0  0  0  0  0  0  0  0  0  0  0
   17.1880    1.4580   18.8880 O   0  0  0  0  0  0  0  0  0  0  0  0
   14.0800   -0.8860   20.2100 C   0  0  0  0  0  0  0  0  0  0  0  0
   13.2790   -0.9250   21.5370 C   0  0  0  0  0  0  0  0  0  0  0  0
   12.5170   -2.0610   21.8260 C   0  0  0  0  0  0  0  0  0  0  0  0
  1  2  1  0
  2  3  2  0
  2  4  1  0
  4  5  1  0
  6  5  1  1
  6  7  1  0
  4  8  1  0
  7  8  1  0
  8  9  1  6
  6 10  1  0
  9 10  1  0
 10 11  1  6
 11 12  1  0
 12 13  2  0
 13 14  1  0
 14 15  2  0
 15 16  1  0
 16 17  2  0
 17 18  1  0
 18 19  1  0
 19 20  1  0
 19 21  2  0
 19 22  2  0
 18 23  2  0
 15 24  1  0
 23 24  1  0
 12 25  1  0
 24 25  2  0
M  END
