MAK-UNK-8fdbca50-30-vinylsulfonamide
     RDKit          3D

 41 44  0  0  0  0  0  0  0  0999 V2000
    8.7240   -3.9290   20.2180 C   0  0  0  0  0  0  0  0  0  0  0  0
    8.1560   -4.6770   21.4460 C   0  0  0  0  0  0  0  0  0  0  0  0
    6.3910   -4.8950   21.8010 S   0  0  0  0  0  0  0  0  0  0  0  0
    5.3120   -4.0830   21.0970 O   0  0  0  0  0  0  0  0  0  0  0  0
    6.2120   -6.3270   21.8180 O   0  0  0  0  0  0  0  0  0  0  0  0
    6.5450   -4.4670   23.4080 N   0  0  0  0  0  0  0  0  0  0  0  0
    6.6910   -3.1210   23.9740 C   0  0  0  0  0  0  0  0  0  0  0  0
    7.9960   -2.5190   23.3230 C   0  0  0  0  0  0  0  0  0  0  0  0
    9.2240   -3.4750   23.6310 C   0  0  0  0  0  0  0  0  0  0  0  0
   10.1280   -2.9140   24.8240 C   0  0  0  0  0  0  0  0  0  0  0  0
   10.7070   -2.1330   25.7910 O   0  0  0  0  0  0  0  0  0  0  0  0
    9.3800   -1.6210   24.6680 N   0  0  0  0  0  0  0  0  0  0  0  0
   10.1080   -0.3900   24.2890 C   0  0  0  0  0  0  0  0  0  0  0  0
   10.8420   -1.5700   23.6460 C   0  0  0  0  0  0  0  0  0  0  0  0
   12.0300   -1.2510   22.8200 C   0  0  0  0  0  0  0  0  0  0  0  0
   13.0490   -0.3790   22.1710 C   0  0  0  0  0  0  0  0  0  0  0  0
   13.4290   -1.6270   21.7610 F   0  0  0  0  0  0  0  0  0  0  0  0
   12.3010    0.6560   22.8220 C   0  0  0  0  0  0  0  0  0  0  0  0
   12.6540    2.0040   22.6940 C   0  0  0  0  0  0  0  0  0  0  0  0
   11.2400    1.7980   22.4160 C   0  0  0  0  0  0  0  0  0  0  0  0
   10.2840    2.7100   22.0740 C   0  0  0  0  0  0  0  0  0  0  0  0
    8.9380    2.3540   21.8490 C   0  0  0  0  0  0  0  0  0  0  0  0
    8.0340    2.9760   22.7250 N   0  0  0  0  0  0  0  0  0  0  0  0
    7.5010    2.3290   23.9390 C   0  0  0  0  0  0  0  0  0  0  0  0
   10.9150    3.8860   22.0250 C   0  0  0  0  0  0  0  0  0  0  0  0
   12.2740    3.4950   22.3870 N   0  0  0  0  0  0  0  0  0  0  0  0
   13.3500    4.8330   22.4330 S   0  0  0  0  0  0  0  0  0  0  0  0
   14.5670    4.3530   23.0240 O   0  0  0  0  0  0  0  0  0  0  0  0
   13.3630    5.4530   21.1080 O   0  0  0  0  0  0  0  0  0  0  0  0
   12.5530    5.9350   23.5590 C   0  0  0  0  0  0  0  0  0  0  0  0
   12.8450    7.4010   23.5790 C   0  0  0  0  0  0  0  0  0  0  0  0
   12.1020    8.0350   24.5610 C   0  0  0  0  0  0  0  0  0  0  0  0
   11.3930    6.8640   25.0610 C   0  0  0  0  0  0  0  0  0  0  0  0
   10.8860    6.0290   25.4190 N   0  0  0  0  0  0  0  0  0  0  0  0
   11.5920    5.2920   24.4790 C   0  0  0  0  0  0  0  0  0  0  0  0
   11.0390    0.5630   23.7320 C   0  0  0  0  0  0  0  0  0  0  0  0
    8.3760   -1.3710   25.7570 C   0  0  0  0  0  0  0  0  0  0  0  0
    8.8730   -0.4700   26.9060 C   0  0  0  0  0  0  0  0  0  0  0  0
    7.0250   -0.8030   25.3060 C   0  0  0  0  0  0  0  0  0  0  0  0
    8.9240   -4.9930   23.8370 C   0  0  0  0  0  0  0  0  0  0  0  0
    7.4490   -5.3980   24.0260 C   0  0  0  0  0  0  0  0  0  0  0  0
  1  2  1  0
  3  2  1  0
  3  4  2  0
  3  5  2  0
  3  6  1  0
  6  7  1  0
  7  8  1  0
  8  9  1  0
  9 10  1  0
 10 11  2  0
 10 12  1  0
 12 13  1  0
 13 14  2  0
 14 15  1  0
 15 16  2  0
 16 17  1  0
 16 18  1  0
 18 19  1  0
 19 20  2  0
 20 21  1  0
 21 22  1  0
 22 23  1  0
 23 24  1  0
 21 25  2  0
 19 26  1  0
 25 26  1  0
 26 27  1  0
 27 28  2  0
 27 29  2  0
 27 30  1  0
 30 31  2  0
 31 32  1  0
 32 33  2  0
 33 34  1  0
 30 35  1  0
 34 35  2  0
 13 36  1  0
 18 36  2  0
 12 37  1  0
 37 38  1  0
 37 39  1  0
  9 40  1  0
  6 41  1  0
 40 41  1  0
M  END
