MAK-UNK-516d8086-26-vinylsulfonamide
     RDKit          3D

 25 27  0  0  0  0  0  0  0  0999 V2000
    7.3900   -4.5430   20.8070 C   0  0  0  0  0  0  0  0  0  0  0  0
    6.1110   -3.7290   20.7120 C   0  0  0  0  0  0  0  0  0  0  0  0
    5.5570   -3.2910   22.3310 S   0  0  0  0  0  0  0  0  0  0  0  0
    4.1230   -3.3370   22.3250 O   0  0  0  0  0  0  0  0  0  0  0  0
    6.3130   -4.0770   23.2800 O   0  0  0  0  0  0  0  0  0  0  0  0
    6.1820   -1.6340   22.3820 C   0  0  0  0  0  0  0  0  0  0  0  0
    7.2400   -0.7670   22.9750 C   0  0  0  0  0  0  0  0  0  0  0  0
    8.1600    0.3020   23.4000 C   0  0  0  0  0  0  0  0  0  0  0  0
    8.9060   -0.6810   24.2700 C   0  0  0  0  0  0  0  0  0  0  0  0
   10.0230   -0.5250   25.0680 C   0  0  0  0  0  0  0  0  0  0  0  0
   11.2440   -0.0010   24.2170 C   0  0  0  0  0  0  0  0  0  0  0  0
   12.3460   -0.5960   24.7800 C   0  0  0  0  0  0  0  0  0  0  0  0
    8.2950   -1.9920   24.1980 C   0  0  0  0  0  0  0  0  0  0  0  0
    8.6410   -3.3400   24.8820 C   0  0  0  0  0  0  0  0  0  0  0  0
   10.0430   -3.2360   24.6710 C   0  0  0  0  0  0  0  0  0  0  0  0
   10.5240   -2.6760   23.4860 C   0  0  0  0  0  0  0  0  0  0  0  0
   11.8030   -2.3440   22.8800 C   0  0  0  0  0  0  0  0  0  0  0  0
   12.5650   -2.7970   23.9630 C   0  0  0  0  0  0  0  0  0  0  0  0
   12.1620   -3.4130   25.2440 C   0  0  0  0  0  0  0  0  0  0  0  0
   10.8150   -3.6610   25.6390 C   0  0  0  0  0  0  0  0  0  0  0  0
   13.3180   -3.7410   26.0510 C   0  0  0  0  0  0  0  0  0  0  0  0
   13.2790   -4.3110   27.0730 O   0  0  0  0  0  0  0  0  0  0  0  0
   14.3730   -3.2570   25.3080 C   0  0  0  0  0  0  0  0  0  0  0  0
   13.9080   -2.7500   24.0640 C   0  0  0  0  0  0  0  0  0  0  0  0
    7.0830   -2.1840   23.2770 C   0  0  0  0  0  0  0  0  0  0  0  0
  1  2  1  0
  3  2  1  0
  3  4  2  0
  3  5  2  0
  3  6  1  0
  6  7  2  0
  7  8  1  0
  8  9  2  0
  9 10  1  0
 10 11  1  0
 11 12  1  0
  9 13  1  0
 13 14  1  0
 14 15  1  0
 15 16  2  0
 16 17  1  0
 17 18  2  0
 18 19  1  0
 15 20  1  0
 19 20  2  0
 19 21  1  0
 21 22  2  0
 21 23  1  0
 18 24  1  0
 23 24  1  0
  6 25  1  0
 13 25  2  0
M  END
