MAK-UNK-516d8086-1-acrylamide
     RDKit          3D

 23 25  0  0  0  0  0  0  0  0999 V2000
    7.4810   -3.3200   19.7970 C   0  0  0  0  0  0  0  0  0  0  0  0
    6.2290   -2.5900   20.3380 C   0  0  0  0  0  0  0  0  0  0  0  0
    5.9640   -2.8250   21.8190 C   0  0  0  0  0  0  0  0  0  0  0  0
    4.9470   -3.3060   21.3460 O   0  0  0  0  0  0  0  0  0  0  0  0
    7.3000   -2.1650   21.9670 C   0  0  0  0  0  0  0  0  0  0  0  0
    7.7830   -0.9420   21.1820 C   0  0  0  0  0  0  0  0  0  0  0  0
    9.0610   -0.5090   21.4870 N   0  0  0  0  0  0  0  0  0  0  0  0
    9.9200   -1.1060   22.4420 C   0  0  0  0  0  0  0  0  0  0  0  0
   11.2450   -0.5800   22.6640 N   0  0  0  0  0  0  0  0  0  0  0  0
   12.4360   -1.3090   22.1290 C   0  0  0  0  0  0  0  0  0  0  0  0
    9.4590   -2.2310   23.1750 C   0  0  0  0  0  0  0  0  0  0  0  0
   10.2890   -2.9830   24.2660 C   0  0  0  0  0  0  0  0  0  0  0  0
   10.4690   -2.3410   25.5260 C   0  0  0  0  0  0  0  0  0  0  0  0
   11.2780   -2.0110   24.4130 C   0  0  0  0  0  0  0  0  0  0  0  0
   10.7370   -2.8780   23.4290 C   0  0  0  0  0  0  0  0  0  0  0  0
    9.5960   -3.7930   23.8140 C   0  0  0  0  0  0  0  0  0  0  0  0
    8.8680   -4.0740   24.8880 C   0  0  0  0  0  0  0  0  0  0  0  0
    9.4750   -3.2070   25.6870 C   0  0  0  0  0  0  0  0  0  0  0  0
    7.8480   -4.9690   25.0240 C   0  0  0  0  0  0  0  0  0  0  0  0
    6.9640   -5.4730   25.6930 O   0  0  0  0  0  0  0  0  0  0  0  0
    8.3630   -4.0910   25.8530 N   0  0  0  0  0  0  0  0  0  0  0  0
    9.5280   -3.3370   25.2170 C   0  0  0  0  0  0  0  0  0  0  0  0
    8.1580   -2.7230   22.9060 C   0  0  0  0  0  0  0  0  0  0  0  0
  1  2  1  0
  2  3  1  0
  3  4  2  0
  3  5  1  0
  5  6  2  0
  6  7  1  0
  7  8  2  0
  8  9  1  0
  9 10  1  0
  8 11  1  0
 11 12  1  0
 12 13  1  0
 13 14  2  0
 14 15  1  0
 15 16  2  0
 16 17  1  0
 13 18  1  0
 17 18  2  0
 17 19  1  0
 19 20  2  0
 19 21  1  0
 16 22  1  0
 21 22  1  0
  5 23  1  0
 11 23  2  0
M  END
