MAK-UNK-702fb7d3-14-acrylamide
     RDKit          3D

 43 48  0  0  0  0  0  0  0  0999 V2000
    7.4920   -3.4690   19.4500 C   0  0  0  0  0  0  0  0  0  0  0  0
    7.5560   -3.0900   20.9200 C   0  0  0  0  0  0  0  0  0  0  0  0
    6.1950   -3.1000   21.6140 C   0  0  0  0  0  0  0  0  0  0  0  0
    5.2130   -3.7430   21.1380 O   0  0  0  0  0  0  0  0  0  0  0  0
    6.1140   -2.3600   22.7810 N   0  0  0  0  0  0  0  0  0  0  0  0
    6.2790   -0.9120   22.7650 C   0  0  0  0  0  0  0  0  0  0  0  0
    7.8340   -0.8050   22.7680 C   0  0  0  0  0  0  0  0  0  0  0  0
    8.2870    0.3230   21.8440 C   0  0  0  0  0  0  0  0  0  0  0  0
    9.2950   -0.5260   22.6080 C   0  0  0  0  0  0  0  0  0  0  0  0
   10.8150   -0.6740   22.8080 C   0  0  0  0  0  0  0  0  0  0  0  0
   10.0880   -1.6830   23.6250 C   0  0  0  0  0  0  0  0  0  0  0  0
    8.5980   -1.7030   23.5630 C   0  0  0  0  0  0  0  0  0  0  0  0
    8.1140   -2.6870   24.3470 C   0  0  2  0  0  0  0  0  0  0  0  0
    8.6700   -3.9520   24.0060 C   0  0  0  0  0  0  0  0  0  0  0  0
    8.9840   -5.0110   24.7490 C   0  0  0  0  0  0  0  0  0  0  0  0
    9.5570   -6.3840   24.4600 C   0  0  0  0  0  0  0  0  0  0  0  0
    9.7310   -6.3570   23.0230 C   0  0  0  0  0  0  0  0  0  0  0  0
   10.2840   -7.6200   22.3490 N   0  0  0  0  0  0  0  0  0  0  0  0
   10.4880   -8.4040   20.8060 C   0  0  0  0  0  0  0  0  0  0  0  0
    9.9300   -9.3220   19.6180 C   0  0  0  0  0  0  0  0  0  0  0  0
    9.9910  -10.2320   20.1540 C   0  0  0  0  0  0  0  0  0  0  0  0
    9.7990  -11.5310   19.8260 C   0  0  0  0  0  0  0  0  0  0  0  0
    9.9180  -13.0930   20.6840 C   0  0  0  0  0  0  0  0  0  0  0  0
   10.9530  -14.5670   20.6770 C   0  0  0  0  0  0  0  0  0  0  0  0
   10.7080  -15.7670   21.5010 C   0  0  0  0  0  0  0  0  0  0  0  0
    9.5490  -15.6500   22.3520 C   0  0  0  0  0  0  0  0  0  0  0  0
    8.7500  -14.4130   22.3590 C   0  0  0  0  0  0  0  0  0  0  0  0
    8.8000  -13.2520   21.6880 C   0  0  0  0  0  0  0  0  0  0  0  0
    7.9110  -12.2380   21.9550 F   0  0  0  0  0  0  0  0  0  0  0  0
    9.4530  -11.2640   18.4120 N   0  0  0  0  0  0  0  0  0  0  0  0
    9.4470  -13.4390   16.7820 S   0  0  0  0  0  0  0  0  0  0  0  0
    8.3110  -13.8820   16.5690 O   0  0  0  0  0  0  0  0  0  0  0  0
   10.2990  -12.3230   15.6420 O   0  0  0  0  0  0  0  0  0  0  0  0
   11.3220  -15.1220   17.7760 C   0  0  0  0  0  0  0  0  0  0  0  0
   11.4690  -15.6600   19.1840 C   0  0  0  0  0  0  0  0  0  0  0  0
   12.6320  -16.1390   19.6340 C   0  0  0  0  0  0  0  0  0  0  0  0
   13.6430  -16.1460   18.7970 C   0  0  0  0  0  0  0  0  0  0  0  0
   13.6230  -15.8730   17.5590 N   0  0  0  0  0  0  0  0  0  0  0  0
   12.5330  -15.4070   17.0610 C   0  0  0  0  0  0  0  0  0  0  0  0
    9.3890   -9.9030   18.3820 C   0  0  0  0  0  0  0  0  0  0  0  0
    9.4110   -5.2550   22.3370 C   0  0  0  0  0  0  0  0  0  0  0  0
    8.9120   -4.0970   22.7390 C   0  0  0  0  0  0  0  0  0  0  0  0
    6.6060   -2.9450   24.0370 C   0  0  0  0  0  0  0  0  0  0  0  0
  1  2  1  0
  2  3  1  0
  3  4  2  0
  3  5  1  0
  5  6  1  0
  6  7  1  0
  7  8  1  0
  8  9  2  0
  9 10  1  0
 10 11  2  0
  7 12  2  0
 11 12  1  0
 12 13  1  0
 13 14  1  6
 14 15  2  0
 15 16  1  0
 16 17  2  0
 17 18  1  0
 18 19  1  0
 19 20  1  0
 20 21  1  0
 21 22  2  0
 22 23  1  0
 23 24  2  0
 24 25  1  0
 25 26  2  0
 26 27  1  0
 23 28  1  0
 27 28  2  0
 28 29  1  0
 22 30  1  0
 30 31  1  0
 31 32  2  0
 31 33  2  0
 31 34  1  0
 34 35  2  0
 35 36  1  0
 36 37  2  0
 37 38  1  0
 34 39  1  0
 38 39  2  0
 20 40  2  0
 30 40  1  0
 17 41  1  0
 14 42  1  0
 41 42  2  0
  5 43  1  0
 13 43  1  0
M  END
