MAK-UNK-8fdbca50-30-nitrile
     RDKit          3D

 38 41  0  0  0  0  0  0  0  0999 V2000
    6.4600   -4.5000   20.2580 C   0  0  0  0  0  0  0  0  0  0  0  0
    5.4830   -3.9350   19.6530 N   0  0  0  0  0  0  0  0  0  0  0  0
    6.1660   -4.9300   21.5290 N   0  0  0  0  0  0  0  0  0  0  0  0
    5.1550   -4.4540   22.3460 C   0  0  0  0  0  0  0  0  0  0  0  0
    5.4610   -4.6100   23.8390 C   0  0  0  0  0  0  0  0  0  0  0  0
    6.9700   -4.4300   24.0800 C   0  0  0  0  0  0  0  0  0  0  0  0
    7.2540   -2.9510   23.8720 C   0  0  0  0  0  0  0  0  0  0  0  0
    6.7770   -2.3660   22.9110 O   0  0  0  0  0  0  0  0  0  0  0  0
    8.0250   -2.2760   24.7700 N   0  0  0  0  0  0  0  0  0  0  0  0
    9.3810   -2.5610   24.8800 C   0  0  0  0  0  0  0  0  0  0  0  0
    9.9420   -3.6840   25.7590 C   0  0  0  0  0  0  0  0  0  0  0  0
   11.4500   -3.7070   25.6630 C   0  0  0  0  0  0  0  0  0  0  0  0
   12.2730   -2.8350   24.8840 C   0  0  0  0  0  0  0  0  0  0  0  0
   13.6260   -3.0090   24.9410 F   0  0  0  0  0  0  0  0  0  0  0  0
   11.6790   -1.8680   24.1210 C   0  0  0  0  0  0  0  0  0  0  0  0
   12.3430   -0.9110   23.2820 C   0  0  0  0  0  0  0  0  0  0  0  0
   12.2260    0.4360   23.8670 C   0  0  0  0  0  0  0  0  0  0  0  0
   12.8660    1.2290   22.8670 C   0  0  0  0  0  0  0  0  0  0  0  0
   13.0560    2.5930   22.6960 C   0  0  0  0  0  0  0  0  0  0  0  0
   14.2190    3.1830   22.1960 N   0  0  0  0  0  0  0  0  0  0  0  0
   14.1500    4.5750   21.7870 C   0  0  0  0  0  0  0  0  0  0  0  0
   13.3690    0.3240   21.8120 C   0  0  0  0  0  0  0  0  0  0  0  0
   12.9960   -0.9500   22.0500 N   0  0  0  0  0  0  0  0  0  0  0  0
   13.3500   -2.0530   20.7810 S   0  0  0  0  0  0  0  0  0  0  0  0
   12.0760   -2.3590   20.4430 O   0  0  0  0  0  0  0  0  0  0  0  0
   14.1300   -1.0980   20.0560 O   0  0  0  0  0  0  0  0  0  0  0  0
   14.2810   -3.5760   20.3830 C   0  0  0  0  0  0  0  0  0  0  0  0
   14.3470   -4.4480   21.1550 C   0  0  0  0  0  0  0  0  0  0  0  0
   15.0680   -5.5190   20.9470 C   0  0  0  0  0  0  0  0  0  0  0  0
   15.7450   -5.7110   19.9300 C   0  0  0  0  0  0  0  0  0  0  0  0
   15.8380   -4.8800   19.0820 N   0  0  0  0  0  0  0  0  0  0  0  0
   15.1000   -3.8570   19.3600 C   0  0  0  0  0  0  0  0  0  0  0  0
   10.2650   -1.7540   24.1370 C   0  0  0  0  0  0  0  0  0  0  0  0
    7.6780   -1.0040   25.2930 C   0  0  0  0  0  0  0  0  0  0  0  0
    6.6700   -0.2160   24.4430 C   0  0  0  0  0  0  0  0  0  0  0  0
    8.8800   -0.0620   25.4980 C   0  0  0  0  0  0  0  0  0  0  0  0
    7.8170   -5.2770   23.1200 C   0  0  0  0  0  0  0  0  0  0  0  0
    6.9950   -5.9200   22.2080 C   0  0  0  0  0  0  0  0  0  0  0  0
  1  2  2  3
  1  3  1  0
  3  4  1  0
  4  5  1  0
  5  6  1  0
  6  7  1  0
  7  8  2  0
  7  9  1  0
  9 10  1  0
 10 11  2  0
 11 12  1  0
 12 13  2  0
 13 14  1  0
 13 15  1  0
 15 16  1  0
 16 17  2  0
 17 18  1  0
 18 19  1  0
 19 20  1  0
 20 21  1  0
 18 22  2  0
 16 23  1  0
 22 23  1  0
 23 24  1  0
 24 25  2  0
 24 26  2  0
 24 27  1  0
 27 28  2  0
 28 29  1  0
 29 30  2  0
 30 31  1  0
 27 32  1  0
 31 32  2  0
 10 33  1  0
 15 33  2  0
  9 34  1  0
 34 35  1  0
 34 36  1  0
  6 37  1  0
  3 38  1  0
 37 38  1  0
M  END
