MAK-UNK-6ca90168-20-chloroacetamide
     RDKit          3D

 16 17  0  0  0  0  0  0  0  0999 V2000
    7.2260   -2.9910   18.7930 C   0  0  0  0  0  0  0  0  0  0  0  0
    6.2430   -3.2670   19.8910 C   0  0  0  0  0  0  0  0  0  0  0  0
    5.3750   -4.1380   19.7640 O   0  0  0  0  0  0  0  0  0  0  0  0
    6.3760   -2.5070   21.0650 N   0  0  0  0  0  0  0  0  0  0  0  0
    6.1580   -3.0060   22.4230 C   0  0  0  0  0  0  0  0  0  0  0  0
    7.5000   -3.2760   23.1460 C   0  0  0  0  0  0  0  0  0  0  0  0
    8.5020   -2.1990   23.0410 N   0  0  0  0  0  0  0  0  0  0  0  0
    9.7450   -2.3250   23.6990 C   0  0  0  0  0  0  0  0  0  0  0  0
    9.9960   -3.4760   24.3820 O   0  0  0  0  0  0  0  0  0  0  0  0
   10.6810   -1.2890   23.6200 C   0  0  0  0  0  0  0  0  0  0  0  0
   10.1190   -0.1200   24.1960 C   0  0  0  0  0  0  0  0  0  0  0  0
   11.0230    0.8600   24.1090 C   0  0  0  0  0  0  0  0  0  0  0  0
   12.4080    0.2700   23.3660 S   0  0  0  0  0  0  0  0  0  0  0  0
   11.9830   -1.3910   23.0540 C   0  0  0  0  0  0  0  0  0  0  0  0
    8.5370   -1.5010   21.7440 C   0  0  0  0  0  0  0  0  0  0  0  0
    7.2750   -1.3160   20.9960 C   0  0  0  0  0  0  0  0  0  0  0  0
  1  2  1  0
  2  3  2  0
  2  4  1  0
  4  5  1  0
  5  6  1  0
  6  7  1  0
  7  8  1  0
  8  9  2  0
  8 10  1  0
 10 11  1  0
 11 12  2  0
 12 13  1  0
 10 14  2  0
 13 14  1  0
  7 15  1  0
  4 16  1  0
 15 16  1  0
M  END
