MAK-UNK-10799360-16-vinylsulfonamide
     RDKit          3D

 27 30  0  0  0  0  0  0  0  0999 V2000
    7.0200   -3.6720   19.8860 C   0  0  0  0  0  0  0  0  0  0  0  0
    5.5870   -3.3650   20.2460 C   0  0  0  0  0  0  0  0  0  0  0  0
    5.2500   -3.9510   21.9000 S   0  0  0  0  0  0  0  0  0  0  0  0
    4.0290   -3.3710   22.3950 O   0  0  0  0  0  0  0  0  0  0  0  0
    5.4300   -5.3820   21.9880 O   0  0  0  0  0  0  0  0  0  0  0  0
    6.4780   -3.1900   22.6920 N   0  0  0  0  0  0  0  0  0  0  0  0
    6.4810   -3.3010   24.1830 C   0  0  0  0  0  0  0  0  0  0  0  0
    7.5160   -2.1990   24.4120 C   0  0  1  0  0  0  0  0  0  0  0  0
    7.8700   -2.0030   22.9380 C   0  0  0  0  0  0  0  0  0  0  0  0
    6.4230   -1.6890   22.4700 C   0  0  2  0  0  0  0  0  0  0  0  0
    6.8030   -0.4370   23.3020 C   0  0  0  0  0  0  0  0  0  0  0  0
    6.8300   -0.9410   24.6940 N   0  0  0  0  0  0  0  0  0  0  0  0
    7.5580   -0.0400   25.5660 C   0  0  0  0  0  0  0  0  0  0  0  0
    8.8210    0.3980   24.9100 C   0  0  0  0  0  0  0  0  0  0  0  0
    8.8590    1.5020   24.0480 C   0  0  0  0  0  0  0  0  0  0  0  0
   10.0510    1.8570   23.4250 C   0  0  0  0  0  0  0  0  0  0  0  0
   11.1820    1.0950   23.6810 C   0  0  0  0  0  0  0  0  0  0  0  0
   11.1440    0.0260   24.5390 C   0  0  0  0  0  0  0  0  0  0  0  0
    9.9790   -0.3240   25.1480 C   0  0  0  0  0  0  0  0  0  0  0  0
   12.3750   -0.7520   24.7960 C   0  0  0  0  0  0  0  0  0  0  0  0
   13.1290   -0.8920   23.5680 N   0  0  0  0  0  0  0  0  0  0  0  0
   12.9090   -2.3890   22.9220 S   0  0  0  0  0  0  0  0  0  0  0  0
   12.9980   -2.2010   21.1590 C   0  0  0  0  0  0  0  0  0  0  0  0
   11.5530   -2.7390   23.2400 O   0  0  0  0  0  0  0  0  0  0  0  0
   14.0140   -3.1710   23.3850 O   0  0  0  0  0  0  0  0  0  0  0  0
   13.2260    0.3170   22.7050 C   0  0  0  0  0  0  0  0  0  0  0  0
   12.3900    1.3820   23.0770 C   0  0  0  0  0  0  0  0  0  0  0  0
  1  2  1  0
  3  2  1  0
  3  4  2  0
  3  5  2  0
  3  6  1  0
  6  7  1  0
  8  7  1  6
  8  9  1  0
  6 10  1  0
  9 10  1  0
 10 11  1  1
  8 12  1  0
 11 12  1  0
 12 13  1  0
 13 14  1  0
 14 15  2  0
 15 16  1  0
 16 17  2  0
 17 18  1  0
 14 19  1  0
 18 19  2  0
 18 20  1  0
 20 21  1  0
 21 22  1  0
 22 23  1  0
 22 24  2  0
 22 25  2  0
 21 26  1  0
 17 27  1  0
 26 27  1  0
M  END
