MAK-UNK-8fdbca50-13-acrylamide
     RDKit          3D

 40 43  0  0  0  0  0  0  0  0999 V2000
    5.7410   -5.6420   21.1220 C   0  0  0  0  0  0  0  0  0  0  0  0
    5.5920   -5.4210   22.6320 C   0  0  0  0  0  0  0  0  0  0  0  0
    5.1920   -3.9890   22.9070 C   0  0  0  0  0  0  0  0  0  0  0  0
    4.3230   -3.4360   22.2580 O   0  0  0  0  0  0  0  0  0  0  0  0
    5.8360   -3.3300   23.9210 N   0  0  0  0  0  0  0  0  0  0  0  0
    5.2050   -2.2380   24.6550 C   0  0  0  0  0  0  0  0  0  0  0  0
    5.2530   -1.0940   23.6000 C   0  0  0  0  0  0  0  0  0  0  0  0
    6.7200   -0.6480   23.6470 C   0  0  0  0  0  0  0  0  0  0  0  0
    6.7290   -0.2820   22.1500 C   0  0  0  0  0  0  0  0  0  0  0  0
    5.9650    0.5650   21.6730 O   0  0  0  0  0  0  0  0  0  0  0  0
    7.7640   -1.0680   21.4040 N   0  0  0  0  0  0  0  0  0  0  0  0
    9.1470   -0.8130   21.8380 C   0  0  0  0  0  0  0  0  0  0  0  0
    7.4540   -2.4290   20.8870 C   0  0  1  0  0  0  0  0  0  0  0  0
    6.3530   -2.3310   19.8320 C   0  0  0  0  0  0  0  0  0  0  0  0
    8.6320   -3.0990   20.4880 C   0  0  0  0  0  0  0  0  0  0  0  0
    8.7360   -3.8000   19.2950 C   0  0  0  0  0  0  0  0  0  0  0  0
    9.9340   -4.4990   18.7980 C   0  0  0  0  0  0  0  0  0  0  0  0
   11.2020   -4.4900   19.4640 C   0  0  0  0  0  0  0  0  0  0  0  0
   12.6030   -4.8840   18.8740 C   0  0  0  0  0  0  0  0  0  0  0  0
   13.0580   -5.1620   17.3470 C   0  0  0  0  0  0  0  0  0  0  0  0
   14.4690   -5.4380   16.9670 C   0  0  0  0  0  0  0  0  0  0  0  0
   14.7320   -5.6350   15.6400 C   0  0  0  0  0  0  0  0  0  0  0  0
   13.5570   -5.5550   14.9470 N   0  0  0  0  0  0  0  0  0  0  0  0
   12.5690   -6.5830   15.2310 C   0  0  0  0  0  0  0  0  0  0  0  0
   15.0160   -5.3790   18.2260 C   0  0  0  0  0  0  0  0  0  0  0  0
   13.9620   -5.0600   19.3390 N   0  0  0  0  0  0  0  0  0  0  0  0
   14.8680   -5.0320   20.6400 S   0  0  0  0  0  0  0  0  0  0  0  0
   15.0740   -6.3740   21.0240 O   0  0  0  0  0  0  0  0  0  0  0  0
   13.8900   -4.1450   21.1620 O   0  0  0  0  0  0  0  0  0  0  0  0
   15.2400   -5.2420   19.0850 C   0  0  0  0  0  0  0  0  0  0  0  0
   16.1850   -5.4260   18.7870 C   0  0  0  0  0  0  0  0  0  0  0  0
   16.4150   -5.6790   17.2340 C   0  0  0  0  0  0  0  0  0  0  0  0
   15.4100   -5.6500   16.2870 C   0  0  0  0  0  0  0  0  0  0  0  0
   14.3580   -5.4140   16.7850 N   0  0  0  0  0  0  0  0  0  0  0  0
   14.3790   -5.2300   18.2260 C   0  0  0  0  0  0  0  0  0  0  0  0
   11.1000   -3.9120   20.6550 C   0  0  0  0  0  0  0  0  0  0  0  0
   12.2290   -3.9880   21.3380 F   0  0  0  0  0  0  0  0  0  0  0  0
    9.7970   -3.1720   21.1800 C   0  0  0  0  0  0  0  0  0  0  0  0
    7.7390   -1.7360   24.0480 C   0  0  0  0  0  0  0  0  0  0  0  0
    7.2680   -3.1840   23.7850 C   0  0  0  0  0  0  0  0  0  0  0  0
  1  2  1  0
  2  3  1  0
  3  4  2  0
  3  5  1  0
  5  6  1  0
  6  7  1  0
  7  8  1  0
  8  9  1  0
  9 10  2  0
  9 11  1  0
 11 12  1  0
 11 13  1  0
 13 14  1  6
 13 15  1  0
 15 16  2  0
 16 17  1  0
 17 18  2  0
 18 19  1  0
 19 20  2  0
 20 21  1  0
 21 22  1  0
 22 23  1  0
 23 24  1  0
 21 25  2  0
 19 26  1  0
 25 26  1  0
 26 27  1  0
 27 28  2  0
 27 29  2  0
 27 30  1  0
 30 31  2  0
 31 32  1  0
 32 33  2  0
 33 34  1  0
 30 35  1  0
 34 35  2  0
 18 36  1  0
 36 37  1  0
 15 38  1  0
 36 38  2  0
  8 39  1  0
  5 40  1  0
 39 40  1  0
M  END
