MAK-UNK-ec98eaf6-25-chloroacetamide
     RDKit          3D

 29 32  0  0  0  0  0  0  0  0999 V2000
    7.3300   -3.1120   19.0200 C   0  0  0  0  0  0  0  0  0  0  0  0
    6.1030   -3.1580   19.9150 C   0  0  0  0  0  0  0  0  0  0  0  0
    5.2650   -4.0670   19.7500 O   0  0  0  0  0  0  0  0  0  0  0  0
    5.9970   -2.1240   20.8560 N   0  0  0  0  0  0  0  0  0  0  0  0
    6.8480   -0.9220   20.6610 C   0  0  0  0  0  0  0  0  0  0  0  0
    7.8970   -1.5270   21.5980 C   0  0  2  0  0  0  0  0  0  0  0  0
    7.1970   -2.7210   22.2180 C   0  0  0  0  0  0  0  0  0  0  0  0
    5.8180   -2.1460   22.3810 C   0  0  1  0  0  0  0  0  0  0  0  0
    6.6420   -1.2750   23.3710 C   0  0  0  0  0  0  0  0  0  0  0  0
    7.8520   -0.7740   22.8610 N   0  0  0  0  0  0  0  0  0  0  0  0
    9.0360   -1.1650   23.6650 C   0  0  0  0  0  0  0  0  0  0  0  0
   10.3190   -0.3630   23.3190 C   0  0  0  0  0  0  0  0  0  0  0  0
   10.0470    1.1380   23.6050 C   0  0  0  0  0  0  0  0  0  0  0  0
   11.1850    2.1310   23.3480 C   0  0  0  0  0  0  0  0  0  0  0  0
   10.9740    3.6040   23.5860 C   0  0  0  0  0  0  0  0  0  0  0  0
   10.8100    4.7400   23.7420 N   0  0  0  0  0  0  0  0  0  0  0  0
   12.4140    1.6550   22.8900 C   0  0  0  0  0  0  0  0  0  0  0  0
   12.6930    0.1930   22.6020 C   0  0  0  0  0  0  0  0  0  0  0  0
   11.6430   -0.8940   22.7910 C   0  0  0  0  0  0  0  0  0  0  0  0
   12.0180   -2.3460   22.4500 C   0  0  0  0  0  0  0  0  0  0  0  0
   12.7420   -2.6540   21.2070 N   0  0  0  0  0  0  0  0  0  0  0  0
   12.3460   -3.7130   20.3660 C   0  0  0  0  0  0  0  0  0  0  0  0
   11.2120   -3.9410   20.1550 O   0  0  0  0  0  0  0  0  0  0  0  0
   13.3740   -4.5410   19.7410 N   0  0  0  0  0  0  0  0  0  0  0  0
   13.8940   -5.4640   20.4450 C   0  0  0  0  0  0  0  0  0  0  0  0
   15.2310   -6.0360   20.2660 C   0  0  0  0  0  0  0  0  0  0  0  0
   16.0480   -5.4290   20.7770 O   0  0  0  0  0  0  0  0  0  0  0  0
   15.8300   -4.7440   19.7250 C   0  0  0  0  0  0  0  0  0  0  0  0
   14.5430   -3.9840   20.0570 C   0  0  0  0  0  0  0  0  0  0  0  0
  1  2  1  0
  2  3  2  0
  2  4  1  0
  4  5  1  0
  6  5  1  6
  6  7  1  0
  4  8  1  0
  7  8  1  0
  8  9  1  1
  6 10  1  0
  9 10  1  0
 10 11  1  0
 11 12  1  0
 12 13  2  0
 13 14  1  0
 14 15  1  0
 15 16  3  0
 14 17  2  0
 17 18  1  0
 12 19  1  0
 18 19  2  0
 19 20  1  0
 20 21  1  0
 21 22  1  0
 22 23  2  0
 22 24  1  0
 24 25  1  0
 25 26  1  0
 26 27  1  0
 27 28  1  0
 24 29  1  0
 28 29  1  0
M  END
