MAK-UNK-704ed37c-13-vinylsulfonamide
     RDKit          3D

 20 21  0  0  0  0  0  0  0  0999 V2000
    7.3680   -2.9010   18.5200 C   0  0  0  0  0  0  0  0  0  0  0  0
    6.7080   -2.4290   19.7820 C   0  0  0  0  0  0  0  0  0  0  0  0
    5.8380   -3.7430   20.5940 S   0  0  0  0  0  0  0  0  0  0  0  0
    4.8160   -3.1550   21.4110 O   0  0  0  0  0  0  0  0  0  0  0  0
    5.4690   -4.8190   19.7120 O   0  0  0  0  0  0  0  0  0  0  0  0
    6.9780   -4.2100   21.7040 N   0  0  0  0  0  0  0  0  0  0  0  0
    7.6380   -3.1480   22.3990 C   0  0  0  0  0  0  0  0  0  0  0  0
    7.1160   -2.7790   23.6200 C   0  0  0  0  0  0  0  0  0  0  0  0
    6.5570   -3.8920   24.4150 N   0  0  0  0  0  0  0  0  0  0  0  0
    5.8390   -3.3500   25.5800 C   0  0  0  0  0  0  0  0  0  0  0  0
    4.6310   -2.5940   25.4200 O   0  0  0  0  0  0  0  0  0  0  0  0
    6.3740   -3.5930   26.7900 N   0  0  0  0  0  0  0  0  0  0  0  0
    7.7200   -3.7120   26.9000 C   0  0  0  0  0  0  0  0  0  0  0  0
    8.1960   -4.9020   27.4400 C   0  0  0  0  0  0  0  0  0  0  0  0
    7.1670   -5.8680   27.9330 C   0  0  0  0  0  0  0  0  0  0  0  0
    6.3790   -5.2680   29.0800 C   0  0  0  0  0  0  0  0  0  0  0  0
    5.2130   -4.3700   28.8240 C   0  0  0  0  0  0  0  0  0  0  0  0
    5.6040   -3.1850   27.9540 C   0  0  0  0  0  0  0  0  0  0  0  0
    5.8370   -4.9200   23.6410 C   0  0  0  0  0  0  0  0  0  0  0  0
    6.5830   -5.3560   22.5010 C   0  0  0  0  0  0  0  0  0  0  0  0
  1  2  1  0
  3  2  1  0
  3  4  2  0
  3  5  2  0
  3  6  1  0
  6  7  1  0
  7  8  1  0
  8  9  1  0
  9 10  1  0
 10 11  2  0
 10 12  1  0
 12 13  1  0
 13 14  1  0
 14 15  1  0
 15 16  1  0
 16 17  1  0
 12 18  1  0
 17 18  1  0
  9 19  1  0
  6 20  1  0
 19 20  1  0
M  END
