MAK-UNK-8fdbca50-26-nitrile
     RDKit          3D

 38 41  0  0  0  0  0  0  0  0999 V2000
    8.9670   -3.7410   20.0170 C   0  0  0  0  0  0  0  0  0  0  0  0
    7.6590   -3.7280   19.4090 N   0  0  0  0  0  0  0  0  0  0  0  0
    9.0600   -2.8290   21.0990 N   0  0  0  0  0  0  0  0  0  0  0  0
    8.0600   -1.9030   21.3480 C   0  0  0  0  0  0  0  0  0  0  0  0
    8.3000   -1.0840   22.6170 C   0  0  0  0  0  0  0  0  0  0  0  0
    9.0810   -1.9510   23.6040 C   0  0  0  0  0  0  0  0  0  0  0  0
    8.2920   -3.2240   23.7820 C   0  0  0  0  0  0  0  0  0  0  0  0
    8.8940   -4.2670   23.6190 O   0  0  0  0  0  0  0  0  0  0  0  0
    6.9620   -3.2260   24.1180 N   0  0  0  0  0  0  0  0  0  0  0  0
    6.6490   -4.0290   25.1920 C   0  0  0  0  0  0  0  0  0  0  0  0
    6.4610   -5.4140   24.6800 C   0  0  0  0  0  0  0  0  0  0  0  0
    7.7180   -6.0090   24.0590 C   0  0  0  0  0  0  0  0  0  0  0  0
    7.7700   -7.2950   23.4740 C   0  0  0  0  0  0  0  0  0  0  0  0
    6.5850   -7.9470   23.5160 C   0  0  0  0  0  0  0  0  0  0  0  0
    5.3430   -7.4590   24.0990 C   0  0  0  0  0  0  0  0  0  0  0  0
    5.2960   -6.1560   24.7050 C   0  0  0  0  0  0  0  0  0  0  0  0
    3.9490   -5.8800   25.2500 C   0  0  0  0  0  0  0  0  0  0  0  0
    3.1920   -7.0320   25.5310 C   0  0  0  0  0  0  0  0  0  0  0  0
    1.9960   -6.6210   26.0270 C   0  0  0  0  0  0  0  0  0  0  0  0
    0.9710   -7.4560   26.4290 C   0  0  0  0  0  0  0  0  0  0  0  0
    0.6740   -8.3940   25.3380 N   0  0  0  0  0  0  0  0  0  0  0  0
    1.6820   -9.2780   25.1500 C   0  0  0  0  0  0  0  0  0  0  0  0
    1.8870   -5.1350   26.1040 C   0  0  0  0  0  0  0  0  0  0  0  0
    3.1750   -4.6900   25.5930 N   0  0  0  0  0  0  0  0  0  0  0  0
    3.5340   -3.0230   25.5000 S   0  0  0  0  0  0  0  0  0  0  0  0
    2.2830   -2.3150   25.4630 O   0  0  0  0  0  0  0  0  0  0  0  0
    4.5400   -2.8640   24.4980 O   0  0  0  0  0  0  0  0  0  0  0  0
    4.2730   -2.7180   27.0640 C   0  0  0  0  0  0  0  0  0  0  0  0
    4.7110   -3.7640   27.8570 C   0  0  0  0  0  0  0  0  0  0  0  0
    5.2900   -3.5210   29.0920 C   0  0  0  0  0  0  0  0  0  0  0  0
    5.4110   -2.1870   29.4980 C   0  0  0  0  0  0  0  0  0  0  0  0
    4.9930   -1.1410   28.7440 N   0  0  0  0  0  0  0  0  0  0  0  0
    4.4300   -1.4260   27.5360 C   0  0  0  0  0  0  0  0  0  0  0  0
    6.0580   -3.4980   22.9390 C   0  0  0  0  0  0  0  0  0  0  0  0
    6.6230   -4.2480   21.9100 C   0  0  0  0  0  0  0  0  0  0  0  0
    5.2750   -2.2940   22.3930 C   0  0  0  0  0  0  0  0  0  0  0  0
   10.4710   -2.3180   23.0750 C   0  0  0  0  0  0  0  0  0  0  0  0
   10.3300   -2.2030   21.5690 C   0  0  0  0  0  0  0  0  0  0  0  0
  1  2  2  3
  1  3  1  0
  3  4  1  0
  4  5  1  0
  5  6  1  0
  6  7  1  0
  7  8  2  0
  7  9  1  0
  9 10  1  0
 10 11  1  0
 11 12  2  0
 12 13  1  0
 13 14  2  0
 14 15  1  0
 11 16  1  0
 15 16  2  0
 16 17  1  0
 17 18  2  0
 18 19  1  0
 19 20  1  0
 20 21  1  0
 21 22  1  0
 19 23  2  0
 17 24  1  0
 23 24  1  0
 24 25  1  0
 25 26  2  0
 25 27  2  0
 25 28  1  0
 28 29  2  0
 29 30  1  0
 30 31  2  0
 31 32  1  0
 28 33  1  0
 32 33  2  0
  9 34  1  0
 34 35  1  0
 34 36  1  0
  6 37  1  0
  3 38  1  0
 37 38  1  0
M  END
