MAK-UNK-6ca90168-26-vinylsulfonamide
     RDKit          3D

 13 13  0  0  0  0  0  0  0  0999 V2000
    7.8890   -3.2830   19.5910 C   0  0  0  0  0  0  0  0  0  0  0  0
    6.7870   -2.3230   19.9420 C   0  0  0  0  0  0  0  0  0  0  0  0
    6.3600   -2.6490   21.6140 S   0  0  0  0  0  0  0  0  0  0  0  0
    5.1430   -3.6900   21.4900 O   0  0  0  0  0  0  0  0  0  0  0  0
    6.1300   -1.3230   22.1050 O   0  0  0  0  0  0  0  0  0  0  0  0
    7.9780   -2.9760   22.4230 N   0  0  0  0  0  0  0  0  0  0  0  0
    9.3620   -2.2260   22.0920 C   0  0  0  0  0  0  0  0  0  0  0  0
   10.7270   -1.3580   22.0130 C   0  0  0  0  0  0  0  0  0  0  0  0
   11.4420   -0.4080   22.8960 N   0  0  0  0  0  0  0  0  0  0  0  0
   10.9390   -0.1200   24.1050 C   0  0  0  0  0  0  0  0  0  0  0  0
    9.7970   -0.7890   24.3910 C   0  0  0  0  0  0  0  0  0  0  0  0
    9.1630   -1.7040   23.4510 C   0  0  0  0  0  0  0  0  0  0  0  0
    8.0990   -2.1260   24.1620 C   0  0  0  0  0  0  0  0  0  0  0  0
  1  2  1  0
  2  3  1  0
  3  4  2  0
  3  5  2  0
  3  6  1  0
  6  7  1  0
  7  8  2  0
  8  9  1  0
  9 10  2  0
 10 11  1  0
  7 12  1  0
 11 12  2  0
 12 13  1  0
M  END
