MAK-UNK-516d8086-6-chloroacetamide
     RDKit          3D

 23 25  0  0  0  0  0  0  0  0999 V2000
    8.5670   -3.5810   19.8600 C   0  0  0  0  0  0  0  0  0  0  0  0
    7.2830   -3.9090   20.7090 C   0  0  0  0  0  0  0  0  0  0  0  0
    6.8520   -4.4080   19.6780 O   0  0  0  0  0  0  0  0  0  0  0  0
    8.1940   -3.1500   21.7060 C   0  0  0  0  0  0  0  0  0  0  0  0
    8.9760   -4.0340   22.6500 C   0  0  0  0  0  0  0  0  0  0  0  0
    9.8030   -3.1650   23.5700 C   0  0  0  0  0  0  0  0  0  0  0  0
   10.1990   -3.7920   24.9200 C   0  0  0  0  0  0  0  0  0  0  0  0
   11.6790   -3.7040   25.2290 C   0  0  0  0  0  0  0  0  0  0  0  0
   11.1690   -3.1000   24.0770 C   0  0  0  0  0  0  0  0  0  0  0  0
    9.7140   -3.5530   24.3580 C   0  0  0  0  0  0  0  0  0  0  0  0
    9.3110   -4.3590   25.5520 C   0  0  0  0  0  0  0  0  0  0  0  0
   10.0760   -5.0000   26.8640 C   0  0  0  0  0  0  0  0  0  0  0  0
   11.1150   -4.4130   26.2180 C   0  0  0  0  0  0  0  0  0  0  0  0
    8.8320   -5.5560   27.3990 C   0  0  0  0  0  0  0  0  0  0  0  0
    7.6100   -6.1360   27.6500 O   0  0  0  0  0  0  0  0  0  0  0  0
    8.5400   -5.8690   26.1170 N   0  0  0  0  0  0  0  0  0  0  0  0
    8.0020   -4.6620   25.5550 C   0  0  0  0  0  0  0  0  0  0  0  0
   10.1350   -1.7150   23.0970 C   0  0  0  0  0  0  0  0  0  0  0  0
   10.8860   -0.8190   23.9050 N   0  0  0  0  0  0  0  0  0  0  0  0
   11.7950    0.0150   23.2220 C   0  0  0  0  0  0  0  0  0  0  0  0
   12.8620   -0.6950   22.8120 C   0  0  0  0  0  0  0  0  0  0  0  0
    9.6380   -1.3360   21.8790 N   0  0  0  0  0  0  0  0  0  0  0  0
    8.2850   -1.7360   21.7450 C   0  0  0  0  0  0  0  0  0  0  0  0
  1  2  1  0
  2  3  2  0
  2  4  1  0
  4  5  2  0
  5  6  1  0
  6  7  1  0
  7  8  1  0
  8  9  2  0
  9 10  1  0
 10 11  2  0
 11 12  1  0
  8 13  1  0
 12 13  2  0
 12 14  1  0
 14 15  2  0
 14 16  1  0
 11 17  1  0
 16 17  1  0
  6 18  2  0
 18 19  1  0
 19 20  1  0
 20 21  1  0
 18 22  1  0
  4 23  1  0
 22 23  1  0
M  END
