MAK-UNK-516d8086-3-nitrile
     RDKit          3D

 22 24  0  0  0  0  0  0  0  0999 V2000
    7.5380   -4.3460   20.0360 C   0  0  0  0  0  0  0  0  0  0  0  0
    6.4250   -3.8850   19.6270 N   0  0  0  0  0  0  0  0  0  0  0  0
    8.3030   -3.6240   21.3330 C   0  0  0  0  0  0  0  0  0  0  0  0
    7.3810   -3.1460   22.4270 C   0  0  0  0  0  0  0  0  0  0  0  0
    7.7070   -2.5240   23.6030 N   0  0  0  0  0  0  0  0  0  0  0  0
    9.0220   -2.2640   23.9420 C   0  0  0  0  0  0  0  0  0  0  0  0
    9.2390   -1.6670   25.1090 N   0  0  0  0  0  0  0  0  0  0  0  0
    8.1500   -1.9730   26.0590 C   0  0  0  0  0  0  0  0  0  0  0  0
    8.4680   -2.9800   26.9990 C   0  0  0  0  0  0  0  0  0  0  0  0
   10.1970   -2.5920   23.1520 C   0  0  0  0  0  0  0  0  0  0  0  0
   11.5900   -2.2790   23.7070 C   0  0  0  0  0  0  0  0  0  0  0  0
   12.2450   -1.3540   22.9180 C   0  0  0  0  0  0  0  0  0  0  0  0
   13.0000   -1.2280   23.9860 C   0  0  0  0  0  0  0  0  0  0  0  0
   12.6270   -2.1130   25.0390 C   0  0  0  0  0  0  0  0  0  0  0  0
   11.5790   -3.1560   25.1990 C   0  0  0  0  0  0  0  0  0  0  0  0
   10.8670   -3.0880   23.7740 C   0  0  0  0  0  0  0  0  0  0  0  0
   11.3240   -2.1770   22.8870 C   0  0  0  0  0  0  0  0  0  0  0  0
    9.7760   -4.0710   23.6280 C   0  0  0  0  0  0  0  0  0  0  0  0
    9.3370   -4.7740   22.7500 O   0  0  0  0  0  0  0  0  0  0  0  0
    9.4230   -3.9960   24.7930 N   0  0  0  0  0  0  0  0  0  0  0  0
   10.5890   -4.1420   25.3500 C   0  0  0  0  0  0  0  0  0  0  0  0
    9.8300   -3.3000   21.7560 C   0  0  0  0  0  0  0  0  0  0  0  0
  1  2  2  3
  1  3  1  0
  3  4  2  0
  4  5  1  0
  5  6  2  0
  6  7  1  0
  7  8  1  0
  8  9  1  0
  6 10  1  0
 10 11  1  0
 11 12  1  0
 12 13  2  0
 13 14  1  0
 14 15  2  0
 15 16  1  0
 12 17  1  0
 16 17  2  0
 16 18  1  0
 18 19  2  0
 18 20  1  0
 15 21  1  0
 20 21  1  0
  3 22  1  0
 10 22  2  0
M  END
