MAK-UNK-8fdbca50-23-acrylamide
     RDKit          3D

 40 43  0  0  0  0  0  0  0  0999 V2000
    7.8390   -3.4000   19.8020 C   0  0  0  0  0  0  0  0  0  0  0  0
    6.7350   -2.6380   19.1290 C   0  0  0  0  0  0  0  0  0  0  0  0
    5.5190   -3.0880   19.8520 C   0  0  0  0  0  0  0  0  0  0  0  0
    4.9890   -4.1480   19.5590 O   0  0  0  0  0  0  0  0  0  0  0  0
    5.1400   -2.2360   20.8490 N   0  0  0  0  0  0  0  0  0  0  0  0
    5.2870   -0.8580   20.9020 C   0  0  0  0  0  0  0  0  0  0  0  0
    5.7830   -0.2930   22.2150 C   0  0  0  0  0  0  0  0  0  0  0  0
    6.8130   -1.3220   22.6260 C   0  0  0  0  0  0  0  0  0  0  0  0
    7.5920   -0.7530   23.7910 C   0  0  0  0  0  0  0  0  0  0  0  0
    7.3560    0.4030   24.1510 O   0  0  0  0  0  0  0  0  0  0  0  0
    8.4900   -1.4910   24.3810 N   0  0  0  0  0  0  0  0  0  0  0  0
    9.6160   -1.4590   23.6010 C   0  0  0  0  0  0  0  0  0  0  0  0
    9.7760   -2.1400   22.3310 C   0  0  0  0  0  0  0  0  0  0  0  0
   11.0070   -1.9310   21.7530 C   0  0  0  0  0  0  0  0  0  0  0  0
   12.0110   -1.1270   22.3380 C   0  0  0  0  0  0  0  0  0  0  0  0
   13.5290   -0.8750   21.5910 S   0  0  0  0  0  0  0  0  0  0  0  0
   13.6620   -2.1370   20.9250 O   0  0  0  0  0  0  0  0  0  0  0  0
   14.0280   -0.4550   22.8360 O   0  0  0  0  0  0  0  0  0  0  0  0
   14.2440    0.3880   20.3470 N   0  0  0  0  0  0  0  0  0  0  0  0
   14.7700   -0.1710   19.1110 C   0  0  0  0  0  0  0  0  0  0  0  0
   15.2360    0.7060   18.1600 C   0  0  0  0  0  0  0  0  0  0  0  0
   15.7080    0.4330   16.9260 C   0  0  0  0  0  0  0  0  0  0  0  0
   16.9270    0.9170   16.8400 N   0  0  0  0  0  0  0  0  0  0  0  0
   17.4000    0.7400   18.1620 C   0  0  0  0  0  0  0  0  0  0  0  0
   15.1390    2.0750   18.7540 C   0  0  0  0  0  0  0  0  0  0  0  0
   14.5830    1.9580   20.0410 C   0  0  0  0  0  0  0  0  0  0  0  0
   14.4120    3.1910   20.6980 C   0  0  0  0  0  0  0  0  0  0  0  0
   14.6710    3.3690   21.9730 C   0  0  0  0  0  0  0  0  0  0  0  0
   14.4090    4.5550   22.6760 C   0  0  0  0  0  0  0  0  0  0  0  0
   13.8690    5.6290   22.0930 C   0  0  0  0  0  0  0  0  0  0  0  0
   13.6020    5.5540   20.7570 C   0  0  0  0  0  0  0  0  0  0  0  0
   13.9010    4.2550   19.9980 C   0  0  0  0  0  0  0  0  0  0  0  0
   13.6730    4.0760   18.7240 F   0  0  0  0  0  0  0  0  0  0  0  0
   11.7120   -0.5600   23.5850 C   0  0  0  0  0  0  0  0  0  0  0  0
   10.5520   -0.7040   24.2050 N   0  0  0  0  0  0  0  0  0  0  0  0
    8.7800   -1.2740   25.8070 C   0  0  0  0  0  0  0  0  0  0  0  0
    7.8910   -1.8680   26.6820 C   0  0  0  0  0  0  0  0  0  0  0  0
    9.0310    0.1870   26.1430 C   0  0  0  0  0  0  0  0  0  0  0  0
    6.1100   -2.6000   23.0700 C   0  0  0  0  0  0  0  0  0  0  0  0
    4.9480   -2.8790   22.1550 C   0  0  0  0  0  0  0  0  0  0  0  0
  1  2  1  0
  2  3  1  0
  3  4  2  0
  3  5  1  0
  5  6  1  0
  6  7  1  0
  7  8  1  0
  8  9  1  0
  9 10  2  0
  9 11  1  0
 11 12  1  0
 12 13  2  0
 13 14  1  0
 14 15  2  0
 16 15  1  0
 16 17  2  0
 16 18  2  0
 16 19  1  0
 19 20  1  0
 20 21  2  0
 21 22  1  0
 22 23  1  0
 23 24  1  0
 21 25  1  0
 19 26  1  0
 25 26  2  0
 26 27  1  0
 27 28  2  0
 28 29  1  0
 29 30  2  0
 30 31  1  0
 27 32  1  0
 31 32  2  0
 32 33  1  0
 15 34  1  0
 12 35  1  0
 34 35  2  0
 11 36  1  0
 36 37  1  0
 36 38  1  0
  8 39  1  0
  5 40  1  0
 39 40  1  0
M  END
