MAK-UNK-6ca90168-18-nitrile
     RDKit          3D

 13 13  0  0  0  0  0  0  0  0999 V2000
    6.9950   -4.4520   20.4070 C   0  0  0  0  0  0  0  0  0  0  0  0
    5.9200   -5.0900   20.0750 N   0  0  0  0  0  0  0  0  0  0  0  0
    7.1910   -3.9340   21.6850 N   0  0  0  0  0  0  0  0  0  0  0  0
    5.9880   -3.9570   22.5260 C   0  0  0  0  0  0  0  0  0  0  0  0
    5.2910   -2.6040   22.3690 C   0  0  0  0  0  0  0  0  0  0  0  0
    5.9650   -1.8340   21.3040 N   0  0  0  0  0  0  0  0  0  0  0  0
    5.4770   -1.9530   19.9870 C   0  0  0  0  0  0  0  0  0  0  0  0
    4.8640   -2.9730   19.6650 O   0  0  0  0  0  0  0  0  0  0  0  0
    5.7060   -0.8930   19.0000 C   0  0  0  0  0  0  0  0  0  0  0  0
    6.1400    0.3460   19.4500 C   0  0  0  0  0  0  0  0  0  0  0  0
    6.5290    1.3460   19.8930 N   0  0  0  0  0  0  0  0  0  0  0  0
    7.3880   -1.5880   21.5770 C   0  0  0  0  0  0  0  0  0  0  0  0
    8.0400   -2.7420   21.9790 C   0  0  0  0  0  0  0  0  0  0  0  0
  1  2  2  3
  1  3  1  0
  3  4  1  0
  4  5  1  0
  5  6  1  0
  6  7  1  0
  7  8  2  0
  7  9  1  0
  9 10  1  0
 10 11  3  0
  6 12  1  0
  3 13  1  0
 12 13  1  0
M  END
