MAK-UNK-516d8086-19-acrylamide
     RDKit          3D

 24 26  0  0  0  0  0  0  0  0999 V2000
    7.0440   -3.3550   19.6190 C   0  0  0  0  0  0  0  0  0  0  0  0
    6.9330   -3.4400   21.1340 C   0  0  0  0  0  0  0  0  0  0  0  0
    5.7180   -2.6610   21.6040 C   0  0  0  0  0  0  0  0  0  0  0  0
    5.1740   -3.7110   21.2150 O   0  0  0  0  0  0  0  0  0  0  0  0
    6.8570   -1.6020   21.9350 C   0  0  0  0  0  0  0  0  0  0  0  0
    7.1440   -0.5320   20.9200 C   0  0  0  0  0  0  0  0  0  0  0  0
    8.0890    0.4060   21.1060 N   0  0  0  0  0  0  0  0  0  0  0  0
    8.8110    0.3740   22.2600 C   0  0  0  0  0  0  0  0  0  0  0  0
    9.8060    1.2820   22.5160 N   0  0  0  0  0  0  0  0  0  0  0  0
    9.5180    2.7120   22.4170 C   0  0  0  0  0  0  0  0  0  0  0  0
   10.6960    3.4000   22.7240 C   0  0  0  0  0  0  0  0  0  0  0  0
    8.5850   -0.6750   23.3600 C   0  0  0  0  0  0  0  0  0  0  0  0
    9.2550   -0.8010   24.5860 C   0  0  0  0  0  0  0  0  0  0  0  0
   10.6640   -0.5480   24.5490 C   0  0  0  0  0  0  0  0  0  0  0  0
   12.2180   -0.6250   24.4460 C   0  0  0  0  0  0  0  0  0  0  0  0
   13.0730   -1.8200   24.1860 C   0  0  0  0  0  0  0  0  0  0  0  0
   12.2500   -2.8150   24.0450 C   0  0  0  0  0  0  0  0  0  0  0  0
   11.9000   -1.6290   24.2800 C   0  0  0  0  0  0  0  0  0  0  0  0
   10.7090   -1.8900   24.3020 N   0  0  0  0  0  0  0  0  0  0  0  0
   10.9520   -0.7560   24.4880 C   0  0  0  0  0  0  0  0  0  0  0  0
   10.9730    0.4880   24.4980 O   0  0  0  0  0  0  0  0  0  0  0  0
   10.0010   -1.9460   24.6610 N   0  0  0  0  0  0  0  0  0  0  0  0
   10.7910   -3.1370   24.0540 C   0  0  0  0  0  0  0  0  0  0  0  0
    7.5830   -1.6410   23.1250 C   0  0  0  0  0  0  0  0  0  0  0  0
  1  2  1  0
  2  3  1  0
  3  4  2  0
  3  5  1  0
  5  6  2  0
  6  7  1  0
  7  8  2  0
  8  9  1  0
  9 10  1  0
 10 11  1  0
  8 12  1  0
 12 13  1  0
 13 14  1  0
 14 15  2  0
 15 16  1  0
 16 17  2  0
 17 18  1  0
 14 19  1  0
 18 19  2  0
 18 20  1  0
 20 21  2  0
 20 22  1  0
 17 23  1  0
 22 23  1  0
  5 24  1  0
 12 24  2  0
M  END
