MAK-UNK-176ca439-1-acrylamide
     RDKit          3D

 25 25  0  0  0  0  0  0  0  0999 V2000
    7.7990   -3.1290   19.2180 C   0  0  0  0  0  0  0  0  0  0  0  0
    6.5670   -2.2820   18.9950 C   0  0  0  0  0  0  0  0  0  0  0  0
    5.4270   -2.7500   19.8320 C   0  0  0  0  0  0  0  0  0  0  0  0
    4.7050   -3.6350   19.3960 O   0  0  0  0  0  0  0  0  0  0  0  0
    5.2740   -2.1820   21.0910 N   0  0  0  0  0  0  0  0  0  0  0  0
    5.7150   -0.8200   21.4210 C   0  0  0  0  0  0  0  0  0  0  0  0
    6.9400   -0.9170   22.0810 C   0  0  0  0  0  0  0  0  0  0  0  0
    7.0280   -1.6380   23.2530 N   0  0  0  0  0  0  0  0  0  0  0  0
    8.1300   -1.4470   24.2110 C   0  0  0  0  0  0  0  0  0  0  0  0
    9.3410   -1.5890   23.6210 N   0  0  0  0  0  0  0  0  0  0  0  0
   10.3080   -0.6030   23.7590 C   0  0  0  0  0  0  0  0  0  0  0  0
   10.1660    0.5320   23.3170 O   0  0  0  0  0  0  0  0  0  0  0  0
   11.5700   -1.0650   24.5090 C   0  0  0  0  0  0  0  0  0  0  0  0
   12.7430   -1.0450   23.6610 N   0  0  0  0  0  0  0  0  0  0  0  0
   13.0170   -2.1220   22.8560 C   0  0  0  0  0  0  0  0  0  0  0  0
   13.3220   -2.7800   21.8850 O   0  0  0  0  0  0  0  0  0  0  0  0
   13.2990   -0.9140   21.9680 C   0  0  0  0  0  0  0  0  0  0  0  0
   13.6670   -1.2110   20.5990 C   0  0  0  0  0  0  0  0  0  0  0  0
   14.3870   -0.3710   19.5880 C   0  0  0  0  0  0  0  0  0  0  0  0
   14.8220    1.0050   19.8210 N   0  0  0  0  0  0  0  0  0  0  0  0
   15.3810    1.7460   18.8040 C   0  0  0  0  0  0  0  0  0  0  0  0
   16.1370    0.9930   17.9070 C   0  0  0  0  0  0  0  0  0  0  0  0
   15.2400    2.9580   18.6870 O   0  0  0  0  0  0  0  0  0  0  0  0
    6.5840   -2.9380   23.0860 C   0  0  0  0  0  0  0  0  0  0  0  0
    5.3260   -3.1040   22.2330 C   0  0  0  0  0  0  0  0  0  0  0  0
  1  2  1  0
  2  3  1  0
  3  4  2  0
  3  5  1  0
  5  6  1  0
  6  7  1  0
  7  8  1  0
  8  9  1  0
  9 10  1  0
 10 11  1  0
 11 12  2  0
 11 13  1  0
 13 14  1  0
 14 15  1  0
 15 16  2  0
 15 17  1  0
 17 18  1  0
 18 19  1  0
 19 20  1  0
 20 21  1  0
 21 22  1  0
 21 23  2  0
  8 24  1  0
  5 25  1  0
 24 25  1  0
M  END
