MAK-UNK-1bb0b7ee-15
     RDKit          3D

 32 36  0  0  0  0  0  0  0  0999 V2000
    5.7150   -2.6250   22.7750 C   0  0  0  0  0  0  0  0  0  0  0  0
    6.5700   -3.8470   23.0600 C   0  0  1  0  0  0  0  0  0  0  0  0
    6.0570   -4.3980   24.3870 C   0  0  1  0  0  0  0  0  0  0  0  0
    5.6110   -3.3430   25.2470 O   0  0  0  0  0  0  0  0  0  0  0  0
    6.5090   -3.0320   26.2140 C   0  0  0  0  0  0  0  0  0  0  0  0
    6.8390   -1.6660   26.4050 C   0  0  0  0  0  0  0  0  0  0  0  0
    7.7530   -1.2810   27.4010 C   0  0  0  0  0  0  0  0  0  0  0  0
    8.3870   -2.1630   28.2490 C   0  0  0  0  0  0  0  0  0  0  0  0
    8.1190   -3.6500   28.1350 C   0  0  0  0  0  0  0  0  0  0  0  0
    7.1120   -4.0290   27.0360 C   0  0  0  0  0  0  0  0  0  0  0  0
    6.8720   -5.5420   26.9690 C   0  0  0  0  0  0  0  0  0  0  0  0
    5.4510   -5.8120   27.0810 N   0  0  0  0  0  0  0  0  0  0  0  0
    4.8860   -6.3880   28.2070 C   0  0  0  0  0  0  0  0  0  0  0  0
    3.5820   -6.9460   28.3920 N   0  0  0  0  0  0  0  0  0  0  0  0
    3.5520   -7.3940   29.7810 C   0  0  0  0  0  0  0  0  0  0  0  0
    2.4480   -8.0680   30.5850 C   0  0  0  0  0  0  0  0  0  0  0  0
    2.8120   -8.3840   32.0440 C   0  0  0  0  0  0  0  0  0  0  0  0
    4.0970   -8.0380   32.5140 C   0  0  0  0  0  0  0  0  0  0  0  0
    5.0660   -7.4120   31.6940 C   0  0  0  0  0  0  0  0  0  0  0  0
    4.7830   -7.1070   30.3700 C   0  0  0  0  0  0  0  0  0  0  0  0
    5.5950   -6.4810   29.3600 N   0  0  0  0  0  0  0  0  0  0  0  0
    4.8220   -5.2640   24.2470 C   0  0  0  0  0  0  0  0  0  0  0  0
    4.6230   -5.8230   22.9990 C   0  0  0  0  0  0  0  0  0  0  0  0
    5.8540   -6.0540   22.4060 C   0  0  0  0  0  0  0  0  0  0  0  0
    6.3630   -4.8550   22.0040 N   0  0  0  0  0  0  0  0  0  0  0  0
    6.0040   -4.3480   20.7020 C   0  0  0  0  0  0  0  0  0  0  0  0
    6.4430   -3.0780   20.3330 C   0  0  0  0  0  0  0  0  0  0  0  0
    7.5830   -2.4930   20.8560 C   0  0  0  0  0  0  0  0  0  0  0  0
    7.9260   -1.2240   20.4300 C   0  0  0  0  0  0  0  0  0  0  0  0
    7.1420   -0.5510   19.4850 C   0  0  0  0  0  0  0  0  0  0  0  0
    5.9880   -1.1200   18.9360 C   0  0  0  0  0  0  0  0  0  0  0  0
    5.6430   -2.4060   19.3780 C   0  0  0  0  0  0  0  0  0  0  0  0
  2  1  1  6
  2  3  1  0
  3  4  1  1
  4  5  1  0
  5  6  2  0
  6  7  1  0
  7  8  2  0
  8  9  1  0
  5 10  1  0
  9 10  2  0
 10 11  1  0
 11 12  1  0
 12 13  1  0
 13 14  2  0
 14 15  1  0
 15 16  2  0
 16 17  1  0
 17 18  2  0
 18 19  1  0
 15 20  1  0
 19 20  2  0
 13 21  1  0
 20 21  1  0
  3 22  1  0
 22 23  1  0
 23 24  1  0
  2 25  1  0
 24 25  1  0
 25 26  1  0
 26 27  1  0
 27 28  2  0
 28 29  1  0
 29 30  2  0
 30 31  1  0
 27 32  1  0
 31 32  2  0
M  END
