MAK-UNK-8fdbca50-5-acrylamide
     RDKit          3D

 40 43  0  0  0  0  0  0  0  0999 V2000
    7.8290   -3.6060   19.8220 C   0  0  0  0  0  0  0  0  0  0  0  0
    7.1220   -4.3030   20.9770 C   0  0  0  0  0  0  0  0  0  0  0  0
    6.3370   -3.2580   21.6800 C   0  0  0  0  0  0  0  0  0  0  0  0
    4.9680   -3.3690   21.5310 O   0  0  0  0  0  0  0  0  0  0  0  0
    7.3010   -2.3160   22.3960 N   0  0  0  0  0  0  0  0  0  0  0  0
    7.8700   -2.4640   23.7770 C   0  0  0  0  0  0  0  0  0  0  0  0
    9.1170   -3.3350   23.5670 C   0  0  0  0  0  0  0  0  0  0  0  0
   10.0880   -2.1760   23.3790 C   0  0  0  0  0  0  0  0  0  0  0  0
    9.7860   -1.0850   24.4770 C   0  0  0  0  0  0  0  0  0  0  0  0
   10.6760   -0.6180   25.1940 O   0  0  0  0  0  0  0  0  0  0  0  0
    8.3400   -0.6770   24.5460 N   0  0  0  0  0  0  0  0  0  0  0  0
    8.0410    0.4930   23.6940 C   0  0  0  0  0  0  0  0  0  0  0  0
    7.5040   -0.5460   25.7810 C   0  0  2  0  0  0  0  0  0  0  0  0
    8.2520   -0.0410   26.8530 C   0  0  0  0  0  0  0  0  0  0  0  0
    6.5990   -1.7400   26.1320 C   0  0  0  0  0  0  0  0  0  0  0  0
    6.2290   -2.6310   27.5690 S   0  0  2  0  0  0  0  0  0  0  0  0
    7.1480   -1.6560   28.0960 O   0  0  0  0  0  0  0  0  0  0  0  0
    5.4480   -3.0820   26.0920 C   0  0  0  0  0  0  0  0  0  0  0  0
    5.0830   -2.1240   25.1260 C   0  0  0  0  0  0  0  0  0  0  0  0
    4.4830   -3.0640   24.1580 C   0  0  0  0  0  0  0  0  0  0  0  0
    4.2780   -4.4990   24.1030 C   0  0  0  0  0  0  0  0  0  0  0  0
    4.6790   -5.3100   25.1080 N   0  0  0  0  0  0  0  0  0  0  0  0
    5.1720   -4.3540   25.8560 C   0  0  0  0  0  0  0  0  0  0  0  0
    5.4740   -3.8320   28.4720 N   0  0  0  0  0  0  0  0  0  0  0  0
    4.7420   -4.6120   29.2910 C   0  0  0  0  0  0  0  0  0  0  0  0
    3.7450   -4.3860   30.2170 C   0  0  0  0  0  0  0  0  0  0  0  0
    3.1000   -5.3700   30.9910 C   0  0  0  0  0  0  0  0  0  0  0  0
    2.7060   -6.3540   30.1680 N   0  0  0  0  0  0  0  0  0  0  0  0
    3.5250   -7.4570   30.2720 C   0  0  0  0  0  0  0  0  0  0  0  0
    3.6210   -3.0230   30.1290 C   0  0  0  0  0  0  0  0  0  0  0  0
    4.6640   -2.6800   29.0740 C   0  0  0  0  0  0  0  0  0  0  0  0
    4.7890   -1.3230   28.7430 C   0  0  0  0  0  0  0  0  0  0  0  0
    4.2640   -0.8460   27.3870 C   0  0  0  0  0  0  0  0  0  0  0  0
    4.3480    0.4960   26.9680 C   0  0  0  0  0  0  0  0  0  0  0  0
    4.9810    1.5160   27.8960 C   0  0  0  0  0  0  0  0  0  0  0  0
    5.4920    1.0460   29.2300 C   0  0  0  0  0  0  0  0  0  0  0  0
    5.3810   -0.4080   29.6370 C   0  0  0  0  0  0  0  0  0  0  0  0
    5.8460   -0.7880   30.8360 F   0  0  0  0  0  0  0  0  0  0  0  0
    9.8410   -1.6930   21.9630 C   0  0  0  0  0  0  0  0  0  0  0  0
    8.3230   -1.4870   21.6220 C   0  0  0  0  0  0  0  0  0  0  0  0
  1  2  1  0
  2  3  1  0
  3  4  2  0
  3  5  1  0
  5  6  1  0
  6  7  1  0
  7  8  1  0
  8  9  1  0
  9 10  2  0
  9 11  1  0
 11 12  1  0
 11 13  1  0
 13 14  1  1
 13 15  1  0
 15 16  2  0
 16 17  2  0
 16 18  1  1
 18 19  2  0
 19 20  1  0
 20 21  2  0
 21 22  1  0
 18 23  1  0
 22 23  2  0
 16 24  1  0
 24 25  1  0
 25 26  2  0
 26 27  1  0
 27 28  1  0
 28 29  1  0
 26 30  1  0
 24 31  1  0
 30 31  2  0
 31 32  1  0
 32 33  2  0
 33 34  1  0
 34 35  2  0
 35 36  1  0
 32 37  1  0
 36 37  2  0
 37 38  1  0
  8 39  1  0
  5 40  1  0
 39 40  1  0
M  END
