MAK-UNK-849bee6c-9-nitrile
     RDKit          3D

 25 27  0  0  0  0  0  0  0  0999 V2000
    6.6080   -4.3720   20.4170 C   0  0  0  0  0  0  0  0  0  0  0  0
    5.6880   -5.1560   20.0290 N   0  0  0  0  0  0  0  0  0  0  0  0
    6.6410   -4.0340   21.7470 N   0  0  0  0  0  0  0  0  0  0  0  0
    5.7660   -2.9370   22.1940 C   0  0  0  0  0  0  0  0  0  0  0  0
    7.0940   -2.5780   22.6310 C   0  0  0  0  0  0  0  0  0  0  0  0
    7.6570   -3.2710   23.8150 N   0  0  0  0  0  0  0  0  0  0  0  0
    9.0140   -3.5170   23.6950 C   0  0  0  0  0  0  0  0  0  0  0  0
    9.9800   -2.3550   23.9390 C   0  0  0  0  0  0  0  0  0  0  0  0
   11.4300   -2.6370   24.2720 C   0  0  0  0  0  0  0  0  0  0  0  0
   12.3880   -1.4980   24.4990 C   0  0  0  0  0  0  0  0  0  0  0  0
   11.9130   -0.1880   24.3990 C   0  0  0  0  0  0  0  0  0  0  0  0
   10.5420    0.0380   24.0890 C   0  0  0  0  0  0  0  0  0  0  0  0
   10.0570    1.3280   23.9870 C   0  0  0  0  0  0  0  0  0  0  0  0
   10.5230    1.9140   22.8290 C   0  0  0  0  0  0  0  0  0  0  0  0
   10.7370    3.2580   23.0790 C   0  0  0  0  0  0  0  0  0  0  0  0
   11.9190    3.9040   22.6750 C   0  0  0  0  0  0  0  0  0  0  0  0
   12.1140    5.2380   22.9460 N   0  0  0  0  0  0  0  0  0  0  0  0
   11.0410    5.9160   23.6660 C   0  0  0  0  0  0  0  0  0  0  0  0
   11.2820    7.2500   23.9370 C   0  0  0  0  0  0  0  0  0  0  0  0
   12.6740    7.6430   23.6980 N   0  0  0  0  0  0  0  0  0  0  0  0
    9.9000    5.3560   24.0610 N   0  0  0  0  0  0  0  0  0  0  0  0
    9.7820    4.0440   23.7560 C   0  0  0  0  0  0  0  0  0  0  0  0
    9.6150   -1.0120   23.8690 C   0  0  0  0  0  0  0  0  0  0  0  0
    6.9950   -4.5510   24.0400 C   0  0  0  0  0  0  0  0  0  0  0  0
    6.5610   -5.1430   22.7190 C   0  0  0  0  0  0  0  0  0  0  0  0
  1  2  2  3
  1  3  1  0
  3  4  1  0
  4  5  1  0
  5  6  1  0
  6  7  1  0
  7  8  1  0
  8  9  2  0
  9 10  1  0
 10 11  2  0
 11 12  1  0
 12 13  1  0
 13 14  1  0
 14 15  1  0
 15 16  2  0
 16 17  1  0
 17 18  2  0
 18 19  1  0
 19 20  3  0
 18 21  1  0
 15 22  1  0
 21 22  2  0
  8 23  1  0
 12 23  2  0
  6 24  1  0
  3 25  1  0
 24 25  1  0
M  END
