MAK-UNK-8fdbca50-27-nitrile
     RDKit          3D

 38 41  0  0  0  0  0  0  0  0999 V2000
    7.8980   -3.3570   19.3960 C   0  0  0  0  0  0  0  0  0  0  0  0
    6.6510   -3.6620   19.2320 N   0  0  0  0  0  0  0  0  0  0  0  0
    7.9770   -2.0920   19.8950 N   0  0  0  0  0  0  0  0  0  0  0  0
    8.5360   -1.8250   21.1140 C   0  0  0  0  0  0  0  0  0  0  0  0
    7.5390   -1.1170   21.9660 C   0  0  0  0  0  0  0  0  0  0  0  0
    7.5670    0.2300   21.3120 C   0  0  0  0  0  0  0  0  0  0  0  0
    7.2030    1.2260   22.4150 C   0  0  0  0  0  0  0  0  0  0  0  0
    6.2460    1.9840   22.3560 O   0  0  0  0  0  0  0  0  0  0  0  0
    8.0850    1.1640   23.4670 N   0  0  0  0  0  0  0  0  0  0  0  0
    9.0560    0.2050   23.2360 C   0  0  0  0  0  0  0  0  0  0  0  0
   10.4820    0.4970   22.7690 C   0  0  0  0  0  0  0  0  0  0  0  0
   11.2490   -0.8000   22.5840 C   0  0  0  0  0  0  0  0  0  0  0  0
   10.7940   -2.1480   22.7900 C   0  0  0  0  0  0  0  0  0  0  0  0
    9.4810   -2.2720   23.2190 C   0  0  0  0  0  0  0  0  0  0  0  0
    8.8470   -3.5430   23.4630 C   0  0  0  0  0  0  0  0  0  0  0  0
    7.9260   -3.9040   22.3860 C   0  0  0  0  0  0  0  0  0  0  0  0
    7.4460   -5.1560   22.8460 C   0  0  0  0  0  0  0  0  0  0  0  0
    6.5360   -5.9600   22.2030 C   0  0  0  0  0  0  0  0  0  0  0  0
    5.8370   -6.9750   22.8410 N   0  0  0  0  0  0  0  0  0  0  0  0
    4.6270   -6.6790   23.5830 C   0  0  0  0  0  0  0  0  0  0  0  0
    8.1220   -5.4440   24.1830 C   0  0  0  0  0  0  0  0  0  0  0  0
    8.9560   -4.4360   24.5020 N   0  0  0  0  0  0  0  0  0  0  0  0
    9.9190   -4.3090   25.8750 S   0  0  0  0  0  0  0  0  0  0  0  0
    9.0870   -3.9000   26.9690 O   0  0  0  0  0  0  0  0  0  0  0  0
   10.6310   -5.5350   25.8670 O   0  0  0  0  0  0  0  0  0  0  0  0
   11.0070   -2.9860   25.4120 C   0  0  0  0  0  0  0  0  0  0  0  0
   10.5240   -1.7020   25.2030 C   0  0  0  0  0  0  0  0  0  0  0  0
   11.4020   -0.7140   24.8450 C   0  0  0  0  0  0  0  0  0  0  0  0
   12.7380   -0.9950   24.6880 C   0  0  0  0  0  0  0  0  0  0  0  0
   13.2410   -2.2380   24.8880 N   0  0  0  0  0  0  0  0  0  0  0  0
   12.3640   -3.2100   25.2510 C   0  0  0  0  0  0  0  0  0  0  0  0
    8.6730   -1.1320   23.4300 C   0  0  0  0  0  0  0  0  0  0  0  0
    7.4170   -1.3990   23.8510 F   0  0  0  0  0  0  0  0  0  0  0  0
    7.8140    1.3820   24.8410 C   0  0  0  0  0  0  0  0  0  0  0  0
    7.1370    2.7110   25.1880 C   0  0  0  0  0  0  0  0  0  0  0  0
    6.9770    0.2760   25.4930 C   0  0  0  0  0  0  0  0  0  0  0  0
    6.7170    0.0910   20.0500 C   0  0  0  0  0  0  0  0  0  0  0  0
    7.1950   -0.9840   19.2300 C   0  0  0  0  0  0  0  0  0  0  0  0
  1  2  2  3
  1  3  1  0
  3  4  1  0
  4  5  1  0
  5  6  1  0
  6  7  1  0
  7  8  2  0
  7  9  1  0
  9 10  1  0
 10 11  2  0
 11 12  1  0
 12 13  2  0
 13 14  1  0
 14 15  1  0
 15 16  2  0
 16 17  1  0
 17 18  1  0
 18 19  1  0
 19 20  1  0
 17 21  2  0
 15 22  1  0
 21 22  1  0
 22 23  1  0
 23 24  2  0
 23 25  2  0
 23 26  1  0
 26 27  2  0
 27 28  1  0
 28 29  2  0
 29 30  1  0
 26 31  1  0
 30 31  2  0
 10 32  1  0
 14 32  2  0
 32 33  1  0
  9 34  1  0
 34 35  1  0
 34 36  1  0
  6 37  1  0
  3 38  1  0
 37 38  1  0
M  END
