MAK-UNK-8145c7a0-7
     RDKit          3D

 26 28  0  0  0  0  0  0  0  0999 V2000
    9.4420   -5.2080   26.5560 C   0  0  0  0  0  0  0  0  0  0  0  0
    9.0010   -4.0890   25.6820 C   0  0  0  0  0  0  0  0  0  0  0  0
    7.9820   -3.2880   25.9100 N   0  0  0  0  0  0  0  0  0  0  0  0
    7.8090   -2.3440   24.9040 N   0  0  0  0  0  0  0  0  0  0  0  0
    8.7010   -2.4440   23.9280 C   0  0  0  0  0  0  0  0  0  0  0  0
    8.7900   -1.6450   22.7750 C   0  0  0  0  0  0  0  0  0  0  0  0
   10.0750   -0.9480   22.5540 N   0  0  0  0  0  0  0  0  0  0  0  0
   11.2060   -1.8940   22.3090 C   0  0  0  0  0  0  0  0  0  0  0  0
   12.4430   -1.2700   22.1360 C   0  0  0  0  0  0  0  0  0  0  0  0
   13.3880   -1.8000   21.3440 F   0  0  0  0  0  0  0  0  0  0  0  0
   12.7140    0.0170   22.8560 C   0  0  0  0  0  0  0  0  0  0  0  0
   11.6690    0.6270   23.7260 C   0  0  0  0  0  0  0  0  0  0  0  0
   10.2570    0.0750   23.5910 C   0  0  2  0  0  0  0  0  0  0  0  0
    9.5720   -0.4680   25.2760 S   0  0  0  0  0  0  0  0  0  0  0  0
   10.0420    0.3270   26.3310 O   0  0  0  0  0  0  0  0  0  0  0  0
    9.6950   -1.8880   25.4520 O   0  0  0  0  0  0  0  0  0  0  0  0
    7.9280   -0.0810   25.1720 N   0  0  0  0  0  0  0  0  0  0  0  0
    7.4490    0.9570   25.9500 C   0  0  0  0  0  0  0  0  0  0  0  0
    6.0850    0.8220   26.3040 C   0  0  0  0  0  0  0  0  0  0  0  0
    5.6840    1.1280   27.6000 C   0  0  0  0  0  0  0  0  0  0  0  0
    4.7390    0.4100   28.3260 C   0  0  0  0  0  0  0  0  0  0  0  0
    4.3460    0.7260   29.6340 C   0  0  0  0  0  0  0  0  0  0  0  0
    4.8800    1.8180   30.3480 C   0  0  0  0  0  0  0  0  0  0  0  0
    5.9260    2.7150   29.7110 C   0  0  0  0  0  0  0  0  0  0  0  0
    6.3550    2.3640   28.2700 C   0  0  0  0  0  0  0  0  0  0  0  0
    9.8110   -3.7120   24.2200 S   0  0  0  0  0  0  0  0  0  0  0  0
  1  2  1  0
  2  3  2  0
  3  4  1  0
  4  5  2  0
  5  6  1  0
  6  7  1  0
  7  8  1  0
  8  9  1  0
  9 10  1  0
  9 11  2  0
 11 12  1  0
  7 13  1  0
 12 13  1  0
 13 14  1  1
 14 15  2  0
 14 16  2  0
 14 17  1  0
 17 18  1  0
 18 19  1  0
 19 20  1  0
 20 21  2  0
 21 22  1  0
 22 23  2  0
 23 24  1  0
 20 25  1  0
 24 25  2  0
  2 26  1  0
  5 26  1  0
M  END
