MAK-UNK-987948f6-1-nitrile
     RDKit          3D

 25 27  0  0  0  0  0  0  0  0999 V2000
    7.4150   -3.3950   19.6430 C   0  0  0  0  0  0  0  0  0  0  0  0
    6.2840   -3.3900   19.0190 N   0  0  0  0  0  0  0  0  0  0  0  0
    7.5270   -3.0300   20.9630 N   0  0  0  0  0  0  0  0  0  0  0  0
    8.0520   -1.6710   21.2520 C   0  0  0  0  0  0  0  0  0  0  0  0
    7.3380   -0.5570   20.4610 C   0  0  0  0  0  0  0  0  0  0  0  0
    6.6360   -0.5890   19.1460 C   0  0  0  0  0  0  0  0  0  0  0  0
    6.1380    0.7210   18.8690 C   0  0  0  0  0  0  0  0  0  0  0  0
    5.4190    1.2330   17.8090 C   0  0  0  0  0  0  0  0  0  0  0  0
    6.5120    1.5300   19.9420 O   0  0  0  0  0  0  0  0  0  0  0  0
    7.2410    0.8300   20.9470 N   0  0  0  0  0  0  0  0  0  0  0  0
    7.6870   -3.9850   22.0700 C   0  0  0  0  0  0  0  0  0  0  0  0
    6.6020   -3.8000   22.8780 C   0  0  2  0  0  0  0  0  0  0  0  0
    7.2250   -4.0050   24.1680 C   0  0  2  0  0  0  0  0  0  0  0  0
    7.5340   -5.1890   24.2870 O   0  0  0  0  0  0  0  0  0  0  0  0
    6.0710   -3.8260   25.2290 C   0  0  0  0  0  0  0  0  0  0  0  0
    5.1890   -5.0130   25.1840 C   0  0  0  0  0  0  0  0  0  0  0  0
    5.2510   -5.1560   23.6930 C   0  0  0  0  0  0  0  0  0  0  0  0
    5.6450   -4.7930   22.7100 N   0  0  0  0  0  0  0  0  0  0  0  0
    5.9810   -5.8520   21.7250 C   0  0  0  0  0  0  0  0  0  0  0  0
    4.8360   -6.7210   21.4450 C   0  0  0  0  0  0  0  0  0  0  0  0
    3.6480   -6.8910   22.5310 C   0  0  0  0  0  0  0  0  0  0  0  0
    2.3550   -7.8210   22.2960 C   0  0  0  0  0  0  0  0  0  0  0  0
    2.0740   -8.6420   21.1040 C   0  0  0  0  0  0  0  0  0  0  0  0
    3.0150   -8.6500   19.9670 C   0  0  0  0  0  0  0  0  0  0  0  0
    4.5390   -7.5690   20.1020 C   0  0  0  0  0  0  0  0  0  0  0  0
  1  2  2  3
  1  3  1  0
  3  4  1  0
  4  5  1  0
  5  6  1  0
  6  7  2  0
  7  8  1  0
  7  9  1  0
  5 10  2  0
  9 10  1  0
  3 11  1  0
 12 11  1  6
 12 13  1  0
 13 14  1  6
 13 15  1  0
 15 16  1  0
 16 17  1  0
 12 18  1  0
 17 18  1  0
 18 19  1  0
 19 20  1  0
 20 21  2  0
 21 22  1  0
 22 23  2  0
 23 24  1  0
 20 25  1  0
 24 25  2  0
M  END
