MAK-UNK-9159f8ed-5
     RDKit          3D

 29 31  0  0  0  0  0  0  0  0999 V2000
   13.1020   -0.9070   22.0380 C   0  0  0  0  0  0  0  0  0  0  0  0
   12.8540    0.4350   23.1910 S   0  0  0  0  0  0  0  0  0  0  0  0
   13.0540   -0.2160   24.4390 O   0  0  0  0  0  0  0  0  0  0  0  0
   13.6490    1.5400   22.7870 O   0  0  0  0  0  0  0  0  0  0  0  0
   11.2700    1.0380   22.9960 N   0  0  0  0  0  0  0  0  0  0  0  0
   10.5090    0.0700   22.4330 C   0  0  0  0  0  0  0  0  0  0  0  0
   11.2900   -1.1520   22.1170 C   0  0  0  0  0  0  0  0  0  0  0  0
   10.6090   -2.2510   21.4870 C   0  0  0  0  0  0  0  0  0  0  0  0
    9.1420   -2.1430   21.1900 C   0  0  0  0  0  0  0  0  0  0  0  0
    8.4370   -0.8860   21.5440 C   0  0  0  0  0  0  0  0  0  0  0  0
    6.9970   -1.0660   21.1090 C   0  0  0  0  0  0  0  0  0  0  0  0
    6.0370   -0.2300   21.7330 O   0  0  0  0  0  0  0  0  0  0  0  0
    6.9350   -2.0650   20.1240 O   0  0  0  0  0  0  0  0  0  0  0  0
    6.2440   -3.2390   20.4560 C   0  0  0  0  0  0  0  0  0  0  0  0
    5.5380   -3.9070   19.7000 O   0  0  0  0  0  0  0  0  0  0  0  0
    6.5080   -3.5460   21.7950 N   0  0  0  0  0  0  0  0  0  0  0  0
    5.6310   -4.1640   22.6680 C   0  0  0  0  0  0  0  0  0  0  0  0
    5.3600   -5.5160   22.3920 C   0  0  0  0  0  0  0  0  0  0  0  0
    4.4030   -6.2830   23.2950 C   0  0  0  0  0  0  0  0  0  0  0  0
    3.8780   -5.5410   24.3390 C   0  0  0  0  0  0  0  0  0  0  0  0
    4.1640   -4.1980   24.5940 C   0  0  0  0  0  0  0  0  0  0  0  0
    3.6190   -3.5430   25.6330 N   0  0  0  0  0  0  0  0  0  0  0  0
    2.2710   -3.6000   25.7610 C   0  0  0  0  0  0  0  0  0  0  0  0
    1.9770   -2.5810   26.6730 C   0  0  0  0  0  0  0  0  0  0  0  0
    3.2610   -1.9590   27.1460 C   0  0  0  0  0  0  0  0  0  0  0  0
    4.1740   -2.4290   26.2860 C   0  0  0  0  0  0  0  0  0  0  0  0
    5.2760   -1.9190   26.1520 O   0  0  0  0  0  0  0  0  0  0  0  0
    5.0400   -3.5260   23.7490 C   0  0  0  0  0  0  0  0  0  0  0  0
    9.1180    0.1950   22.1540 C   0  0  0  0  0  0  0  0  0  0  0  0
  1  2  1  0
  2  3  2  0
  2  4  2  0
  2  5  1  0
  5  6  1  0
  6  7  2  0
  7  8  1  0
  8  9  2  0
  9 10  1  0
 10 11  1  0
 11 12  2  0
 11 13  1  0
 13 14  1  0
 14 15  2  0
 14 16  1  0
 16 17  1  0
 17 18  2  0
 18 19  1  0
 19 20  2  0
 20 21  1  0
 21 22  1  0
 22 23  1  0
 23 24  1  0
 24 25  1  0
 22 26  1  0
 25 26  1  0
 26 27  2  0
 17 28  1  0
 21 28  2  0
  6 29  1  0
 10 29  2  0
M  END
