MAK-UNK-af83ef51-31-chloroacetamide
     RDKit          3D

 25 26  0  0  0  0  0  0  0  0999 V2000
    6.5440   -3.3260   19.3860 C   0  0  0  0  0  0  0  0  0  0  0  0
    5.7270   -4.1800   20.3400 C   0  0  0  0  0  0  0  0  0  0  0  0
    5.4290   -5.3140   20.0200 O   0  0  0  0  0  0  0  0  0  0  0  0
    5.3460   -3.5860   21.5310 N   0  0  0  0  0  0  0  0  0  0  0  0
    5.0760   -4.2560   22.7620 C   0  0  0  0  0  0  0  0  0  0  0  0
    5.4210   -3.5450   23.9050 C   0  0  0  0  0  0  0  0  0  0  0  0
    6.7040   -2.8100   23.7460 N   0  0  0  0  0  0  0  0  0  0  0  0
    7.8230   -3.7560   23.5390 C   0  0  0  0  0  0  0  0  0  0  0  0
    9.0740   -3.1490   23.5350 C   0  0  0  0  0  0  0  0  0  0  0  0
    9.2680   -1.9180   24.1170 C   0  0  0  0  0  0  0  0  0  0  0  0
   10.6960   -1.6210   24.5240 C   0  0  0  0  0  0  0  0  0  0  0  0
   11.0800   -0.9840   25.4930 O   0  0  0  0  0  0  0  0  0  0  0  0
   11.6110   -2.2150   23.5660 N   0  0  0  0  0  0  0  0  0  0  0  0
   11.4170   -1.3780   22.3840 C   0  0  0  0  0  0  0  0  0  0  0  0
   11.2580    0.1330   22.5780 C   0  0  0  0  0  0  0  0  0  0  0  0
   12.6490    0.8400   22.9330 C   0  0  0  0  0  0  0  0  0  0  0  0
   12.2210    2.1940   23.0280 C   0  0  0  0  0  0  0  0  0  0  0  0
   10.9310    2.6710   22.8500 C   0  0  0  0  0  0  0  0  0  0  0  0
   11.0550    1.3280   22.7560 N   0  0  0  0  0  0  0  0  0  0  0  0
   10.8410    0.5810   23.9770 C   0  0  0  0  0  0  0  0  0  0  0  0
    9.5970    1.0440   24.7470 C   0  0  0  0  0  0  0  0  0  0  0  0
    9.6690    2.1170   22.5490 N   0  0  0  0  0  0  0  0  0  0  0  0
    9.9560    0.7590   22.4210 C   0  0  0  0  0  0  0  0  0  0  0  0
    6.6510   -1.8180   22.6610 C   0  0  0  0  0  0  0  0  0  0  0  0
    5.5490   -2.1430   21.6980 C   0  0  0  0  0  0  0  0  0  0  0  0
  1  2  1  0
  2  3  2  0
  2  4  1  0
  4  5  1  0
  5  6  1  0
  6  7  1  0
  7  8  1  0
  8  9  1  0
  9 10  1  0
 10 11  1  0
 11 12  2  0
 11 13  1  0
 13 14  1  0
 14 15  1  0
 15 16  2  0
 16 17  1  0
 17 18  2  0
 18 19  1  0
 19 20  1  0
 20 21  1  0
 18 22  1  0
 15 23  1  0
 22 23  2  0
  7 24  1  0
  4 25  1  0
 24 25  1  0
M  END
