MAK-UNK-8fdbca50-37-chloroacetamide
     RDKit          3D

 39 42  0  0  0  0  0  0  0  0999 V2000
    9.3740   -3.8890   20.6190 C   0  0  0  0  0  0  0  0  0  0  0  0
    8.2410   -2.7990   20.4600 C   0  0  0  0  0  0  0  0  0  0  0  0
    7.5310   -3.5130   19.5280 O   0  0  0  0  0  0  0  0  0  0  0  0
    9.2380   -2.1080   21.5870 N   0  0  0  0  0  0  0  0  0  0  0  0
   10.7210   -1.8350   21.5320 C   0  0  0  0  0  0  0  0  0  0  0  0
   11.3260   -1.8460   22.7840 C   0  0  0  0  0  0  0  0  0  0  0  0
   10.7530   -2.8730   23.5710 C   0  0  1  0  0  0  0  0  0  0  0  0
   11.4030   -3.5020   24.7220 C   0  0  0  0  0  0  0  0  0  0  0  0
   12.5220   -3.1580   25.1090 O   0  0  0  0  0  0  0  0  0  0  0  0
   10.6090   -4.5200   25.2890 N   0  0  0  0  0  0  0  0  0  0  0  0
    9.7100   -5.0550   24.4030 C   0  0  0  0  0  0  0  0  0  0  0  0
   10.1210   -4.5300   26.5900 C   0  0  0  0  0  0  0  0  0  0  0  0
    9.2740   -3.5150   27.0120 C   0  0  0  0  0  0  0  0  0  0  0  0
    9.4020   -5.8360   26.9150 C   0  0  0  0  0  0  0  0  0  0  0  0
    9.4560   -2.2760   24.0530 C   0  0  1  0  0  0  0  0  0  0  0  0
    9.7100   -1.4360   25.1160 N   0  0  0  0  0  0  0  0  0  0  0  0
    8.7730   -0.5190   25.5710 C   0  0  0  0  0  0  0  0  0  0  0  0
    7.5870   -1.0720   26.3620 C   0  0  0  0  0  0  0  0  0  0  0  0
    7.4110   -2.3770   26.7350 C   0  0  0  0  0  0  0  0  0  0  0  0
    6.1880   -2.5850   27.4890 C   0  0  0  0  0  0  0  0  0  0  0  0
    5.7850   -3.8390   27.9970 C   0  0  0  0  0  0  0  0  0  0  0  0
    5.2800   -3.9100   29.2950 C   0  0  0  0  0  0  0  0  0  0  0  0
    4.8680   -5.1210   29.8700 C   0  0  0  0  0  0  0  0  0  0  0  0
    4.9370   -6.3290   29.1780 C   0  0  0  0  0  0  0  0  0  0  0  0
    5.4230   -6.3450   27.8800 C   0  0  0  0  0  0  0  0  0  0  0  0
    5.8700   -5.0230   27.2530 C   0  0  0  0  0  0  0  0  0  0  0  0
    6.3390   -5.0250   25.9960 F   0  0  0  0  0  0  0  0  0  0  0  0
    5.5870   -1.3570   27.5750 N   0  0  0  0  0  0  0  0  0  0  0  0
    4.1130   -0.9230   28.3360 S   0  0  0  0  0  0  0  0  0  0  0  0
    3.6910    0.3540   27.8000 O   0  0  0  0  0  0  0  0  0  0  0  0
    3.2550   -2.0860   28.2540 O   0  0  0  0  0  0  0  0  0  0  0  0
    4.5700   -0.6640   30.0140 C   0  0  0  0  0  0  0  0  0  0  0  0
    3.9960   -1.4370   31.0150 C   0  0  0  0  0  0  0  0  0  0  0  0
    4.4260   -1.1660   32.4450 C   0  0  0  0  0  0  0  0  0  0  0  0
    5.4540   -0.0630   32.6150 C   0  0  0  0  0  0  0  0  0  0  0  0
    5.9460    0.6260   31.5650 N   0  0  0  0  0  0  0  0  0  0  0  0
    5.5080    0.3250   30.3040 C   0  0  0  0  0  0  0  0  0  0  0  0
    6.4280   -0.4270   26.8940 C   0  0  0  0  0  0  0  0  0  0  0  0
    8.8940   -1.4650   22.9030 C   0  0  0  0  0  0  0  0  0  0  0  0
  1  2  1  0
  2  3  2  0
  2  4  1  0
  4  5  1  0
  5  6  1  0
  6  7  1  0
  7  8  1  1
  8  9  2  0
  8 10  1  0
 10 11  1  0
 10 12  1  0
 12 13  1  0
 12 14  1  0
  7 15  1  0
 15 16  1  1
 16 17  1  0
 17 18  1  0
 18 19  1  0
 19 20  2  0
 20 21  1  0
 21 22  2  0
 22 23  1  0
 23 24  2  0
 24 25  1  0
 21 26  1  0
 25 26  2  0
 26 27  1  0
 20 28  1  0
 28 29  1  0
 29 30  2  0
 29 31  2  0
 29 32  1  0
 32 33  2  0
 33 34  1  0
 34 35  2  0
 35 36  1  0
 32 37  1  0
 36 37  2  0
 18 38  2  0
 28 38  1  0
  4 39  1  0
 15 39  1  0
M  END
