MAK-UNK-750cfbcc-5-vinylsulfonamide
     RDKit          3D

 20 21  0  0  0  0  0  0  0  0999 V2000
    7.1610   -2.9000   18.6620 C   0  0  0  0  0  0  0  0  0  0  0  0
    6.4110   -2.3440   19.8590 C   0  0  0  0  0  0  0  0  0  0  0  0
    5.6400   -3.6510   20.8130 S   0  0  0  0  0  0  0  0  0  0  0  0
    4.6280   -3.0920   21.6600 O   0  0  0  0  0  0  0  0  0  0  0  0
    5.2400   -4.7590   19.9520 O   0  0  0  0  0  0  0  0  0  0  0  0
    6.8510   -4.2060   21.8760 N   0  0  0  0  0  0  0  0  0  0  0  0
    7.7420   -3.2300   22.5040 C   0  0  0  0  0  0  0  0  0  0  0  0
    7.4200   -3.0190   23.8480 C   0  0  0  0  0  0  0  0  0  0  0  0
    6.1940   -3.5320   24.2700 C   0  0  0  0  0  0  0  0  0  0  0  0
    5.6690   -3.3110   25.6240 C   0  0  0  0  0  0  0  0  0  0  0  0
    4.4480   -3.2140   25.7640 O   0  0  0  0  0  0  0  0  0  0  0  0
    6.5480   -3.1820   26.6940 N   0  0  0  0  0  0  0  0  0  0  0  0
    7.7150   -3.8990   26.6240 C   0  0  0  0  0  0  0  0  0  0  0  0
    7.5370   -5.2720   26.5790 C   0  0  0  0  0  0  0  0  0  0  0  0
    7.1780   -5.9040   27.7610 C   0  0  0  0  0  0  0  0  0  0  0  0
    6.8790   -5.0470   28.9390 C   0  0  0  0  0  0  0  0  0  0  0  0
    5.6310   -4.1960   28.7560 C   0  0  0  0  0  0  0  0  0  0  0  0
    5.9850   -2.9350   27.9670 C   0  0  0  0  0  0  0  0  0  0  0  0
    6.1230   -4.9890   23.8530 C   0  0  0  0  0  0  0  0  0  0  0  0
    6.5690   -5.3830   22.6080 C   0  0  0  0  0  0  0  0  0  0  0  0
  1  2  1  0
  3  2  1  0
  3  4  2  0
  3  5  2  0
  3  6  1  0
  6  7  1  0
  7  8  1  0
  8  9  1  0
  9 10  1  0
 10 11  2  0
 10 12  1  0
 12 13  1  0
 13 14  1  0
 14 15  1  0
 15 16  1  0
 16 17  1  0
 12 18  1  0
 17 18  1  0
  9 19  1  0
  6 20  1  0
 19 20  1  0
M  END
