MAK-UNK-8fdbca50-28-vinylsulfonamide
     RDKit          3D

 41 44  0  0  0  0  0  0  0  0999 V2000
    7.8630   -3.5860   20.3350 C   0  0  0  0  0  0  0  0  0  0  0  0
    7.1340   -2.4110   19.6940 C   0  0  0  0  0  0  0  0  0  0  0  0
    5.6000   -2.0900   20.5370 S   0  0  0  0  0  0  0  0  0  0  0  0
    5.0840   -3.3790   20.8980 O   0  0  0  0  0  0  0  0  0  0  0  0
    4.8620   -1.1550   19.7230 O   0  0  0  0  0  0  0  0  0  0  0  0
    5.8540   -1.3410   21.9950 N   0  0  0  0  0  0  0  0  0  0  0  0
    5.7170    0.1180   22.1500 C   0  0  0  0  0  0  0  0  0  0  0  0
    6.3180    0.3920   23.5600 C   0  0  0  0  0  0  0  0  0  0  0  0
    5.1370   -0.0520   24.4710 C   0  0  0  0  0  0  0  0  0  0  0  0
    5.6540    0.3880   25.8570 C   0  0  0  0  0  0  0  0  0  0  0  0
    5.0300    1.3700   26.5920 O   0  0  0  0  0  0  0  0  0  0  0  0
    6.8560   -0.3400   26.2920 N   0  0  0  0  0  0  0  0  0  0  0  0
    7.8970   -0.6610   25.3150 C   0  0  0  0  0  0  0  0  0  0  0  0
    9.0870    0.2910   25.4600 C   0  0  0  0  0  0  0  0  0  0  0  0
   10.2400    0.0670   24.5290 C   0  0  0  0  0  0  0  0  0  0  0  0
   10.1250   -1.0700   23.5360 C   0  0  0  0  0  0  0  0  0  0  0  0
   11.2350   -1.2640   22.7540 C   0  0  0  0  0  0  0  0  0  0  0  0
   11.5270   -2.4100   22.0780 C   0  0  0  0  0  0  0  0  0  0  0  0
   12.7680   -2.3830   21.4510 C   0  0  0  0  0  0  0  0  0  0  0  0
   13.5220   -3.3070   20.7410 C   0  0  0  0  0  0  0  0  0  0  0  0
   13.3660   -4.3870   19.9340 N   0  0  0  0  0  0  0  0  0  0  0  0
   14.6810   -5.1280   19.9280 C   0  0  0  0  0  0  0  0  0  0  0  0
   13.1720   -1.1230   21.7540 C   0  0  0  0  0  0  0  0  0  0  0  0
   12.2820   -0.4430   22.5270 N   0  0  0  0  0  0  0  0  0  0  0  0
   12.5440    1.1060   23.1060 S   0  0  0  0  0  0  0  0  0  0  0  0
   12.6050    0.7920   24.4940 O   0  0  0  0  0  0  0  0  0  0  0  0
   13.6830    1.6060   22.3580 O   0  0  0  0  0  0  0  0  0  0  0  0
   11.2210    2.2160   22.8380 C   0  0  0  0  0  0  0  0  0  0  0  0
   11.5140    3.5930   22.9010 C   0  0  0  0  0  0  0  0  0  0  0  0
   10.4240    4.3780   22.6740 C   0  0  0  0  0  0  0  0  0  0  0  0
    9.2960    3.6460   22.4320 C   0  0  0  0  0  0  0  0  0  0  0  0
    8.7240    2.6960   22.3080 N   0  0  0  0  0  0  0  0  0  0  0  0
    9.8820    1.7700   22.5560 C   0  0  0  0  0  0  0  0  0  0  0  0
    9.0180   -1.8860   23.4450 C   0  0  0  0  0  0  0  0  0  0  0  0
    8.9680   -2.8640   22.5540 F   0  0  0  0  0  0  0  0  0  0  0  0
    7.8350   -1.6880   24.3770 C   0  0  0  0  0  0  0  0  0  0  0  0
    7.2220   -0.3300   27.7210 C   0  0  0  0  0  0  0  0  0  0  0  0
    8.3820    0.6270   28.0800 C   0  0  0  0  0  0  0  0  0  0  0  0
    7.5200   -1.7250   28.3000 C   0  0  0  0  0  0  0  0  0  0  0  0
    4.8950   -1.5610   24.4080 C   0  0  0  0  0  0  0  0  0  0  0  0
    5.2680   -2.2030   23.0380 C   0  0  0  0  0  0  0  0  0  0  0  0
  1  2  1  0
  3  2  1  0
  3  4  2  0
  3  5  2  0
  3  6  1  0
  6  7  1  0
  7  8  1  0
  8  9  1  0
  9 10  1  0
 10 11  2  0
 10 12  1  0
 12 13  1  0
 13 14  2  0
 14 15  1  0
 15 16  2  0
 16 17  1  0
 17 18  2  0
 18 19  1  0
 19 20  1  0
 20 21  1  0
 21 22  1  0
 19 23  2  0
 17 24  1  0
 23 24  1  0
 24 25  1  0
 25 26  2  0
 25 27  2  0
 25 28  1  0
 28 29  2  0
 29 30  1  0
 30 31  2  0
 31 32  1  0
 28 33  1  0
 32 33  2  0
 16 34  1  0
 34 35  1  0
 13 36  1  0
 34 36  2  0
 12 37  1  0
 37 38  1  0
 37 39  1  0
  9 40  1  0
  6 41  1  0
 40 41  1  0
M  END
