MAK-UNK-ec98eaf6-8-vinylsulfonamide
     RDKit          3D

 34 38  0  0  0  0  0  0  0  0999 V2000
    8.5300   -3.7970   20.1360 C   0  0  0  0  0  0  0  0  0  0  0  0
    7.5750   -2.8700   19.3310 C   0  0  0  0  0  0  0  0  0  0  0  0
    5.8280   -2.7940   19.7720 S   0  0  0  0  0  0  0  0  0  0  0  0
    5.2850   -3.8240   20.6940 O   0  0  0  0  0  0  0  0  0  0  0  0
    5.1520   -2.6380   18.5160 O   0  0  0  0  0  0  0  0  0  0  0  0
    5.7850   -1.2670   20.5280 N   0  0  0  0  0  0  0  0  0  0  0  0
    6.7980   -0.2640   20.1750 C   0  0  0  0  0  0  0  0  0  0  0  0
    7.8700   -0.4420   21.3270 C   0  0  1  0  0  0  0  0  0  0  0  0
    6.5830    0.1470   22.0290 C   0  0  0  0  0  0  0  0  0  0  0  0
    5.7690   -1.1480   21.9720 C   0  0  2  0  0  0  0  0  0  0  0  0
    6.8320   -2.0110   22.6370 C   0  0  0  0  0  0  0  0  0  0  0  0
    7.8510   -0.9410   22.7330 N   0  0  0  0  0  0  0  0  0  0  0  0
    9.0450   -1.3780   23.5010 C   0  0  2  0  0  0  0  0  0  0  0  0
   10.4600   -0.8810   23.1770 C   0  0  0  0  0  0  0  0  0  0  0  0
   11.4030   -1.6990   22.5090 C   0  0  0  0  0  0  0  0  0  0  0  0
   12.6910   -1.2330   22.2460 C   0  0  0  0  0  0  0  0  0  0  0  0
   13.0530    0.0540   22.6430 C   0  0  0  0  0  0  0  0  0  0  0  0
   12.1390    0.8730   23.2950 C   0  0  0  0  0  0  0  0  0  0  0  0
   10.8530    0.4100   23.5610 C   0  0  0  0  0  0  0  0  0  0  0  0
    9.0390   -2.8950   23.7080 C   0  0  0  0  0  0  0  0  0  0  0  0
    9.2450   -3.7520   22.6110 C   0  0  0  0  0  0  0  0  0  0  0  0
    9.2450   -5.1310   22.7300 C   0  0  0  0  0  0  0  0  0  0  0  0
    9.0480   -5.7280   23.9490 C   0  0  0  0  0  0  0  0  0  0  0  0
    8.8370   -4.9200   25.0760 C   0  0  0  0  0  0  0  0  0  0  0  0
    8.5990   -5.1810   26.4530 C   0  0  0  0  0  0  0  0  0  0  0  0
    8.5060   -6.5010   27.0570 C   0  0  0  0  0  0  0  0  0  0  0  0
    9.6820   -7.4010   26.5500 C   0  0  0  0  0  0  0  0  0  0  0  0
    9.9170   -9.2850   26.7130 N   0  0  0  0  0  0  0  0  0  0  0  0
    9.7290  -10.7120   27.9800 C   0  0  0  0  0  0  0  0  0  0  0  0
    8.6640  -10.8130   29.0780 C   0  0  0  0  0  0  0  0  0  0  0  0
   10.3990  -11.7230   28.1550 O   0  0  0  0  0  0  0  0  0  0  0  0
    8.4620   -3.9870   27.0940 C   0  0  0  0  0  0  0  0  0  0  0  0
    8.6050   -3.0260   26.1490 N   0  0  0  0  0  0  0  0  0  0  0  0
    8.8370   -3.5520   24.9180 C   0  0  0  0  0  0  0  0  0  0  0  0
  1  2  1  0
  3  2  1  0
  3  4  2  0
  3  5  2  0
  3  6  1  0
  6  7  1  0
  8  7  1  6
  8  9  1  0
  6 10  1  0
  9 10  1  0
 10 11  1  1
  8 12  1  0
 11 12  1  0
 12 13  1  0
 13 14  1  6
 14 15  2  0
 15 16  1  0
 16 17  2  0
 17 18  1  0
 14 19  1  0
 18 19  2  0
 13 20  1  0
 20 21  1  0
 21 22  2  0
 22 23  1  0
 23 24  2  0
 24 25  1  0
 25 26  1  0
 26 27  1  0
 27 28  1  0
 28 29  1  0
 29 30  1  0
 29 31  2  0
 25 32  2  0
 32 33  1  0
 20 34  2  0
 24 34  1  0
 33 34  1  0
M  END
