MAK-UNK-849bee6c-22-nitrile
     RDKit          3D

 28 30  0  0  0  0  0  0  0  0999 V2000
    6.3870   -4.3360   20.0920 C   0  0  0  0  0  0  0  0  0  0  0  0
    6.2580   -3.4600   19.1590 N   0  0  0  0  0  0  0  0  0  0  0  0
    5.9280   -4.1660   21.3760 N   0  0  0  0  0  0  0  0  0  0  0  0
    5.0750   -5.2140   21.9980 C   0  0  0  0  0  0  0  0  0  0  0  0
    6.0400   -4.8210   22.9640 C   0  0  0  0  0  0  0  0  0  0  0  0
    5.4060   -3.9510   23.9460 N   0  0  0  0  0  0  0  0  0  0  0  0
    6.1210   -3.5800   25.0580 C   0  0  0  0  0  0  0  0  0  0  0  0
    7.3940   -2.7520   24.7770 C   0  0  0  0  0  0  0  0  0  0  0  0
    7.3920   -1.3120   25.2160 C   0  0  0  0  0  0  0  0  0  0  0  0
    8.5750   -0.3970   25.0120 C   0  0  0  0  0  0  0  0  0  0  0  0
    8.5510    0.9360   25.4250 C   0  0  0  0  0  0  0  0  0  0  0  0
    9.6890   -0.9740   24.3870 C   0  0  0  0  0  0  0  0  0  0  0  0
    9.6980   -2.3240   23.9710 C   0  0  0  0  0  0  0  0  0  0  0  0
   10.9510   -2.7740   23.3370 N   0  0  0  0  0  0  0  0  0  0  0  0
   11.8120   -1.8130   22.8100 C   0  0  0  0  0  0  0  0  0  0  0  0
   12.6360   -2.1030   21.7370 C   0  0  0  0  0  0  0  0  0  0  0  0
   13.3530   -0.9980   21.4340 C   0  0  0  0  0  0  0  0  0  0  0  0
   14.1840   -1.2460   20.2740 N   0  0  0  0  0  0  0  0  0  0  0  0
   14.7540   -0.4080   19.2250 C   0  0  0  0  0  0  0  0  0  0  0  0
   15.8090   -0.7690   18.4190 C   0  0  0  0  0  0  0  0  0  0  0  0
   13.5720    0.0870   21.7020 N   0  0  0  0  0  0  0  0  0  0  0  0
   12.7380    0.3560   22.7390 C   0  0  0  0  0  0  0  0  0  0  0  0
   12.6710    1.6080   23.3060 C   0  0  0  0  0  0  0  0  0  0  0  0
   11.4620    2.3140   23.5350 N   0  0  0  0  0  0  0  0  0  0  0  0
   11.8800   -0.5480   23.3030 N   0  0  0  0  0  0  0  0  0  0  0  0
    8.5780   -3.2040   24.1510 C   0  0  0  0  0  0  0  0  0  0  0  0
    4.9150   -2.8070   23.1870 C   0  0  0  0  0  0  0  0  0  0  0  0
    5.5720   -2.7880   21.7960 C   0  0  0  0  0  0  0  0  0  0  0  0
  1  2  2  3
  1  3  1  0
  3  4  1  0
  4  5  1  0
  5  6  1  0
  6  7  1  0
  7  8  1  0
  8  9  2  0
  9 10  1  0
 10 11  1  0
 10 12  2  0
 12 13  1  0
 13 14  1  0
 14 15  1  0
 15 16  2  0
 16 17  1  0
 17 18  1  0
 18 19  1  0
 19 20  1  0
 17 21  2  0
 21 22  1  0
 22 23  1  0
 23 24  3  0
 15 25  1  0
 22 25  2  0
  8 26  1  0
 13 26  2  0
  6 27  1  0
  3 28  1  0
 27 28  1  0
M  END
