MAK-UNK-a7992eb3-2-vinylsulfonamide
     RDKit          3D

 35 38  0  0  0  0  0  0  0  0999 V2000
    6.1940   -5.0980   20.7560 C   0  0  0  0  0  0  0  0  0  0  0  0
    5.6150   -3.9970   21.6610 C   0  0  0  0  0  0  0  0  0  0  0  0
    4.5430   -4.6360   22.9110 S   0  0  0  0  0  0  0  0  0  0  0  0
    3.7260   -5.6470   22.2990 O   0  0  0  0  0  0  0  0  0  0  0  0
    3.9060   -3.5390   23.6190 O   0  0  0  0  0  0  0  0  0  0  0  0
    5.6540   -5.2960   23.9960 N   0  0  0  0  0  0  0  0  0  0  0  0
    7.0140   -5.4140   23.4940 C   0  0  0  0  0  0  0  0  0  0  0  0
    7.8030   -4.2860   23.4120 C   0  0  0  0  0  0  0  0  0  0  0  0
    7.1880   -3.0690   23.6730 C   0  0  0  0  0  0  0  0  0  0  0  0
    6.6650   -2.3070   22.5880 C   0  0  0  0  0  0  0  0  0  0  0  0
    5.4450   -2.1900   22.4950 O   0  0  0  0  0  0  0  0  0  0  0  0
    7.4970   -1.6770   21.6450 N   0  0  0  0  0  0  0  0  0  0  0  0
    6.8610   -0.6000   20.8220 C   0  0  0  0  0  0  0  0  0  0  0  0
    6.1650   -1.0500   19.4990 C   0  0  0  0  0  0  0  0  0  0  0  0
    5.4780    0.0010   18.5850 C   0  0  0  0  0  0  0  0  0  0  0  0
    5.5120    1.4520   19.0280 C   0  0  0  0  0  0  0  0  0  0  0  0
    6.2110    1.8290   20.3380 C   0  0  0  0  0  0  0  0  0  0  0  0
    6.8850    0.7590   21.2210 C   0  0  0  0  0  0  0  0  0  0  0  0
    7.4450    1.0790   22.2750 O   0  0  0  0  0  0  0  0  0  0  0  0
    8.1650    2.3220   22.3490 C   0  0  0  0  0  0  0  0  0  0  0  0
    7.6080    3.1150   23.5440 C   0  0  2  0  0  0  0  0  0  0  0  0
    8.3120    4.3420   23.6690 C   0  0  0  0  0  0  0  0  0  0  0  0
    9.1090    4.4610   24.7720 N   0  0  0  0  0  0  0  0  0  0  0  0
   10.1970    5.3420   24.9700 C   0  0  0  0  0  0  0  0  0  0  0  0
   11.1800    5.3130   23.9910 C   0  0  0  0  0  0  0  0  0  0  0  0
   11.4140    4.1440   23.2830 C   0  0  0  0  0  0  0  0  0  0  0  0
   12.3990    4.1110   22.2950 C   0  0  0  0  0  0  0  0  0  0  0  0
   13.1560    5.2480   22.0100 C   0  0  0  0  0  0  0  0  0  0  0  0
   12.9250    6.4280   22.7190 C   0  0  0  0  0  0  0  0  0  0  0  0
   11.9380    6.4490   23.7040 C   0  0  0  0  0  0  0  0  0  0  0  0
    8.3310    4.1840   25.9330 C   0  0  0  0  0  0  0  0  0  0  0  0
    7.3130    3.2650   25.8770 C   0  0  0  0  0  0  0  0  0  0  0  0
    7.5880    2.4230   24.7440 O   0  0  0  0  0  0  0  0  0  0  0  0
    6.1060   -3.2370   24.8470 C   0  0  0  0  0  0  0  0  0  0  0  0
    5.6030   -4.5300   25.0990 C   0  0  0  0  0  0  0  0  0  0  0  0
  1  2  1  0
  3  2  1  0
  3  4  2  0
  3  5  2  0
  3  6  1  0
  6  7  1  0
  7  8  1  0
  8  9  1  0
  9 10  1  0
 10 11  2  0
 10 12  1  0
 12 13  1  0
 13 14  2  0
 14 15  1  0
 15 16  2  0
 16 17  1  0
 13 18  1  0
 17 18  2  0
 18 19  1  0
 19 20  1  0
 21 20  1  6
 21 22  1  0
 22 23  1  0
 23 24  1  0
 24 25  1  0
 25 26  2  0
 26 27  1  0
 27 28  2  0
 28 29  1  0
 25 30  1  0
 29 30  2  0
 23 31  1  0
 31 32  1  0
 21 33  1  0
 32 33  1  0
  9 34  1  0
  6 35  1  0
 34 35  1  0
M  END
