MAK-UNK-e4a48a85-21-nitrile
     RDKit          3D

 20 22  0  0  0  0  0  0  0  0999 V2000
    6.7810   -3.4490   19.7210 C   0  0  0  0  0  0  0  0  0  0  0  0
    5.8390   -3.1690   18.9090 N   0  0  0  0  0  0  0  0  0  0  0  0
    6.8930   -2.7900   20.9380 N   0  0  0  0  0  0  0  0  0  0  0  0
    6.5980   -3.3870   22.2370 C   0  0  0  0  0  0  0  0  0  0  0  0
    7.7260   -3.3240   23.0750 C   0  0  0  0  0  0  0  0  0  0  0  0
    8.5450   -2.1840   23.0300 N   0  0  0  0  0  0  0  0  0  0  0  0
    9.8000   -2.3740   23.6070 C   0  0  0  0  0  0  0  0  0  0  0  0
   10.5200   -1.1940   23.5520 C   0  0  0  0  0  0  0  0  0  0  0  0
   11.9230   -1.0790   23.2090 C   0  0  0  0  0  0  0  0  0  0  0  0
   11.9660    0.2780   23.3050 N   0  0  0  0  0  0  0  0  0  0  0  0
   10.8300    1.0470   23.6480 C   0  0  0  0  0  0  0  0  0  0  0  0
   10.4770    2.5340   23.8180 C   0  0  0  0  0  0  0  0  0  0  0  0
   11.3000    3.5310   23.3070 C   0  0  0  0  0  0  0  0  0  0  0  0
   12.5750    3.3760   22.6150 C   0  0  0  0  0  0  0  0  0  0  0  0
   13.1850    4.5440   22.1960 C   0  0  0  0  0  0  0  0  0  0  0  0
   12.1890    5.9630   22.6580 S   0  0  0  0  0  0  0  0  0  0  0  0
   10.9760    4.9080   23.3980 C   0  0  0  0  0  0  0  0  0  0  0  0
    9.5030    0.1180   23.9340 S   0  0  0  0  0  0  0  0  0  0  0  0
    8.6900   -1.6840   21.7710 C   0  0  0  0  0  0  0  0  0  0  0  0
    7.5380   -1.4950   21.0070 C   0  0  0  0  0  0  0  0  0  0  0  0
  1  2  2  3
  1  3  1  0
  3  4  1  0
  4  5  1  0
  5  6  1  0
  6  7  1  0
  7  8  1  0
  8  9  2  0
  9 10  1  0
 10 11  2  0
 11 12  1  0
 12 13  1  0
 13 14  1  0
 14 15  2  0
 15 16  1  0
 13 17  2  0
 16 17  1  0
  8 18  1  0
 11 18  1  0
  6 19  1  0
  3 20  1  0
 19 20  1  0
M  END
