MAK-UNK-516d8086-9-vinylsulfonamide
     RDKit          3D

 25 27  0  0  0  0  0  0  0  0999 V2000
    7.2800   -3.9670   20.3990 C   0  0  0  0  0  0  0  0  0  0  0  0
    7.0800   -3.9660   21.9150 C   0  0  0  0  0  0  0  0  0  0  0  0
    5.8720   -2.7520   22.3220 S   0  0  0  0  0  0  0  0  0  0  0  0
    4.7650   -3.0360   21.3690 O   0  0  0  0  0  0  0  0  0  0  0  0
    5.5910   -2.9480   23.7340 O   0  0  0  0  0  0  0  0  0  0  0  0
    6.8910   -1.1700   22.1410 C   0  0  0  0  0  0  0  0  0  0  0  0
    7.7870   -0.3210   22.6990 C   0  0  0  0  0  0  0  0  0  0  0  0
    7.8430    0.5970   21.5610 N   0  0  0  0  0  0  0  0  0  0  0  0
    8.6290    1.4950   21.7840 C   0  0  0  0  0  0  0  0  0  0  0  0
    9.5470    2.0090   22.7460 N   0  0  0  0  0  0  0  0  0  0  0  0
   10.2010    3.2570   22.3730 C   0  0  0  0  0  0  0  0  0  0  0  0
   11.5570    3.2310   22.7100 C   0  0  0  0  0  0  0  0  0  0  0  0
    8.2510    0.4030   22.5520 C   0  0  0  0  0  0  0  0  0  0  0  0
    9.1920    0.9970   23.4880 C   0  0  0  0  0  0  0  0  0  0  0  0
   10.2050    0.0890   23.8600 C   0  0  0  0  0  0  0  0  0  0  0  0
   11.5870    0.4920   24.0820 C   0  0  0  0  0  0  0  0  0  0  0  0
   12.0830   -0.8080   24.3980 C   0  0  0  0  0  0  0  0  0  0  0  0
   11.5050   -2.0470   24.4810 C   0  0  0  0  0  0  0  0  0  0  0  0
   10.2330   -2.2140   24.2510 C   0  0  0  0  0  0  0  0  0  0  0  0
    9.6040   -1.1330   23.9410 C   0  0  0  0  0  0  0  0  0  0  0  0
    9.6130   -3.5600   24.3540 C   0  0  0  0  0  0  0  0  0  0  0  0
    9.0990   -5.1080   24.5250 S   0  0  0  0  0  0  0  0  0  0  0  0
   10.8680   -4.0160   24.7550 N   0  0  0  0  0  0  0  0  0  0  0  0
   11.9420   -3.1960   24.7480 C   0  0  0  0  0  0  0  0  0  0  0  0
    7.2770    0.0510   21.2350 C   0  0  0  0  0  0  0  0  0  0  0  0
  1  2  1  0
  3  2  1  0
  3  4  2  0
  3  5  2  0
  3  6  1  0
  6  7  2  0
  7  8  1  0
  8  9  2  0
  9 10  1  0
 10 11  1  0
 11 12  1  0
  9 13  1  0
 13 14  1  0
 14 15  1  0
 15 16  2  0
 16 17  1  0
 17 18  2  0
 18 19  1  0
 15 20  1  0
 19 20  2  0
 19 21  1  0
 21 22  2  0
 21 23  1  0
 18 24  1  0
 23 24  1  0
  6 25  1  0
 13 25  2  0
M  END
