MAK-UNK-0d6072ac-36
     RDKit          3D

 19 21  0  0  0  0  0  0  0  0999 V2000
    4.6010   -3.2880   22.8060 C   0  0  0  0  0  0  0  0  0  0  0  0
    5.7490   -3.9840   22.1270 C   0  0  2  0  0  0  0  0  0  0  0  0
    6.0210   -5.4430   22.5410 C   0  0  0  0  0  0  0  0  0  0  0  0
    5.2590   -5.9320   23.6450 O   0  0  0  0  0  0  0  0  0  0  0  0
    6.9510   -6.1810   21.8450 O   0  0  0  0  0  0  0  0  0  0  0  0
    7.0100   -3.1880   22.3480 C   0  0  0  0  0  0  0  0  0  0  0  0
    8.1500   -3.6410   23.2070 C   0  0  0  0  0  0  0  0  0  0  0  0
    9.3260   -2.8300   23.3500 C   0  0  0  0  0  0  0  0  0  0  0  0
    9.5560   -1.5560   22.7250 C   0  0  0  0  0  0  0  0  0  0  0  0
    8.4780   -2.2470   22.5760 C   0  0  0  0  0  0  0  0  0  0  0  0
    7.2860   -2.0200   21.8300 N   0  0  0  0  0  0  0  0  0  0  0  0
    8.5240   -3.5510   23.3670 N   0  0  0  0  0  0  0  0  0  0  0  0
    9.9590   -3.1480   23.8680 C   0  0  0  0  0  0  0  0  0  0  0  0
   10.6310   -3.9320   24.6760 N   0  0  0  0  0  0  0  0  0  0  0  0
   11.3940   -2.9500   24.4910 C   0  0  0  0  0  0  0  0  0  0  0  0
   12.5750   -2.2860   24.7150 C   0  0  0  0  0  0  0  0  0  0  0  0
   13.9690   -2.5960   25.6310 Cl  0  0  0  0  0  0  0  0  0  0  0  0
   11.9880   -1.3630   23.8630 C   0  0  0  0  0  0  0  0  0  0  0  0
   10.6220   -1.8280   23.4320 C   0  0  0  0  0  0  0  0  0  0  0  0
  2  1  1  1
  2  3  1  0
  3  4  2  0
  3  5  1  0
  2  6  1  0
  6  7  2  0
  7  8  1  0
  8  9  2  0
  9 10  1  0
  6 11  1  0
 10 11  2  0
 10 12  1  0
 12 13  1  0
 13 14  1  0
 14 15  2  0
 15 16  1  0
 16 17  1  0
 16 18  2  0
  9 19  1  0
 13 19  2  0
 18 19  1  0
M  END
