MAK-UNK-3e0761f8-10-nitrile
     RDKit          3D

 30 34  0  0  0  0  0  0  0  0999 V2000
    6.6620   -4.4160   20.1250 C   0  0  0  0  0  0  0  0  0  0  0  0
    5.9910   -5.5090   20.0090 N   0  0  0  0  0  0  0  0  0  0  0  0
    6.3440   -3.4740   21.0530 N   0  0  0  0  0  0  0  0  0  0  0  0
    7.2640   -2.5250   21.7320 C   0  0  0  0  0  0  0  0  0  0  0  0
    6.8230   -2.8870   23.1590 C   0  0  2  0  0  0  0  0  0  0  0  0
    6.0530   -4.1400   22.7040 C   0  0  0  0  0  0  0  0  0  0  0  0
    5.0380   -3.3940   21.7570 C   0  0  1  0  0  0  0  0  0  0  0  0
    4.6260   -3.2460   23.2360 C   0  0  0  0  0  0  0  0  0  0  0  0
    5.6090   -2.2010   23.6180 N   0  0  0  0  0  0  0  0  0  0  0  0
    5.5880   -1.7570   25.0220 C   0  0  0  0  0  0  0  0  0  0  0  0
    6.3750   -0.4320   25.1230 C   0  0  0  0  0  0  0  0  0  0  0  0
    5.4320    0.6180   25.5640 C   0  0  0  0  0  0  0  0  0  0  0  0
    6.0380    1.9630   25.7090 C   0  0  0  0  0  0  0  0  0  0  0  0
    7.3420    2.0850   25.4390 C   0  0  0  0  0  0  0  0  0  0  0  0
    8.2300    1.0360   25.0160 C   0  0  0  0  0  0  0  0  0  0  0  0
    9.5300    1.2180   24.7760 C   0  0  0  0  0  0  0  0  0  0  0  0
   10.4000    0.1330   24.3530 C   0  0  0  0  0  0  0  0  0  0  0  0
   11.7490    0.3070   24.1370 C   0  0  0  0  0  0  0  0  0  0  0  0
   12.5570   -0.0260   24.9870 O   0  0  0  0  0  0  0  0  0  0  0  0
   12.1430    0.8260   22.9460 N   0  0  0  0  0  0  0  0  0  0  0  0
   13.4470    0.3750   22.5970 C   0  0  0  0  0  0  0  0  0  0  0  0
    9.8530   -1.1130   24.1690 C   0  0  0  0  0  0  0  0  0  0  0  0
   10.6550   -2.1890   23.7100 N   0  0  0  0  0  0  0  0  0  0  0  0
   10.8920   -2.0290   22.2330 C   0  0  0  0  0  0  0  0  0  0  0  0
   12.2260   -2.0900   21.7770 C   0  0  0  0  0  0  0  0  0  0  0  0
   13.1250   -2.8880   22.5510 O   0  0  0  0  0  0  0  0  0  0  0  0
   13.1610   -2.4800   23.9120 C   0  0  0  0  0  0  0  0  0  0  0  0
   11.7940   -2.5840   24.5790 C   0  0  0  0  0  0  0  0  0  0  0  0
    8.5220   -1.2930   24.4260 N   0  0  0  0  0  0  0  0  0  0  0  0
    7.7330   -0.2620   24.8430 C   0  0  0  0  0  0  0  0  0  0  0  0
  1  2  2  3
  1  3  1  0
  3  4  1  0
  5  4  1  6
  5  6  1  0
  3  7  1  0
  6  7  1  0
  7  8  1  1
  5  9  1  0
  8  9  1  0
  9 10  1  0
 10 11  1  0
 11 12  2  0
 12 13  1  0
 13 14  2  0
 14 15  1  0
 15 16  1  0
 16 17  2  0
 17 18  1  0
 18 19  2  0
 18 20  1  0
 20 21  1  0
 17 22  1  0
 22 23  1  0
 23 24  1  0
 24 25  1  0
 25 26  1  0
 26 27  1  0
 23 28  1  0
 27 28  1  0
 22 29  2  0
 11 30  1  0
 15 30  2  0
 29 30  1  0
M  END
