MAK-UNK-3e0761f8-4-chloroacetamide
     RDKit          3D

 24 26  0  0  0  0  0  0  0  0999 V2000
    7.1860   -2.9650   18.7540 C   0  0  0  0  0  0  0  0  0  0  0  0
    6.2790   -3.2380   19.9140 C   0  0  0  0  0  0  0  0  0  0  0  0
    5.4570   -4.1770   19.7970 O   0  0  0  0  0  0  0  0  0  0  0  0
    6.4230   -2.4170   21.0400 N   0  0  0  0  0  0  0  0  0  0  0  0
    7.3690   -1.2750   21.1210 C   0  0  0  0  0  0  0  0  0  0  0  0
    8.2080   -1.5020   22.4050 C   0  0  1  0  0  0  0  0  0  0  0  0
    6.8030   -1.7080   22.8910 C   0  0  0  0  0  0  0  0  0  0  0  0
    6.4650   -2.8670   22.3130 C   0  0  2  0  0  0  0  0  0  0  0  0
    7.5010   -3.6530   22.7890 C   0  0  0  0  0  0  0  0  0  0  0  0
    8.4150   -2.6290   23.1660 N   0  0  0  0  0  0  0  0  0  0  0  0
    9.4470   -2.6820   24.1550 C   0  0  2  0  0  0  0  0  0  0  0  0
    9.0340   -2.7320   25.4890 C   0  0  0  0  0  0  0  0  0  0  0  0
    8.1210   -3.7780   25.6370 N   0  0  0  0  0  0  0  0  0  0  0  0
    7.9020   -4.5000   27.1810 S   0  0  0  0  0  0  0  0  0  0  0  0
    9.4200   -5.0210   27.7540 C   0  0  0  0  0  0  0  0  0  0  0  0
    7.4060   -3.4930   28.0980 O   0  0  0  0  0  0  0  0  0  0  0  0
    7.1050   -5.6800   26.9150 O   0  0  0  0  0  0  0  0  0  0  0  0
   10.4610   -1.7770   23.8140 C   0  0  0  0  0  0  0  0  0  0  0  0
   10.7230   -0.5010   24.4160 C   0  0  0  0  0  0  0  0  0  0  0  0
   11.7530    0.4140   24.0790 C   0  0  0  0  0  0  0  0  0  0  0  0
   12.6490    0.1500   23.0930 C   0  0  0  0  0  0  0  0  0  0  0  0
   12.5020   -1.0320   22.4460 C   0  0  0  0  0  0  0  0  0  0  0  0
   13.1230   -1.7140   21.4270 C   0  0  0  0  0  0  0  0  0  0  0  0
   11.3980   -2.0610   22.7700 C   0  0  0  0  0  0  0  0  0  0  0  0
  1  2  1  0
  2  3  2  0
  2  4  1  0
  4  5  1  0
  6  5  1  6
  6  7  1  0
  4  8  1  0
  7  8  1  0
  8  9  1  6
  6 10  1  0
  9 10  1  0
 10 11  1  0
 11 12  1  1
 12 13  1  0
 14 13  1  0
 14 15  1  0
 14 16  2  0
 14 17  2  0
 11 18  1  0
 18 19  2  0
 19 20  1  0
 20 21  2  0
 21 22  1  0
 22 23  1  0
 18 24  1  0
 22 24  2  0
M  END
