MAK-UNK-72659d64-17-acrylamide
     RDKit          3D

 23 23  0  0  0  0  0  0  0  0999 V2000
    7.1050   -3.4120   19.6540 C   0  0  0  0  0  0  0  0  0  0  0  0
    6.9470   -2.8640   21.0680 C   0  0  0  0  0  0  0  0  0  0  0  0
    5.5150   -3.0990   21.5090 C   0  0  0  0  0  0  0  0  0  0  0  0
    4.5180   -3.4700   22.1320 O   0  0  0  0  0  0  0  0  0  0  0  0
    6.1760   -3.8030   22.5530 N   0  0  0  0  0  0  0  0  0  0  0  0
    6.7210   -3.2180   23.8730 C   0  0  0  0  0  0  0  0  0  0  0  0
    7.9070   -2.5730   24.1720 N   0  0  0  0  0  0  0  0  0  0  0  0
    6.8360   -2.9630   24.6680 C   0  0  0  0  0  0  0  0  0  0  0  0
    7.0490   -3.2320   23.3310 C   0  0  0  0  0  0  0  0  0  0  0  0
    8.4160   -3.1610   22.9620 N   0  0  0  0  0  0  0  0  0  0  0  0
    5.6960   -3.6470   24.1320 N   0  0  0  0  0  0  0  0  0  0  0  0
    4.8140   -3.8520   25.0340 C   0  0  0  0  0  0  0  0  0  0  0  0
    3.9920   -4.4370   24.1020 N   0  0  0  0  0  0  0  0  0  0  0  0
    4.3000   -5.5380   23.3290 C   0  0  0  0  0  0  0  0  0  0  0  0
    4.4790   -5.5120   21.9800 O   0  0  0  0  0  0  0  0  0  0  0  0
    4.3840   -6.7250   24.0590 C   0  0  0  0  0  0  0  0  0  0  0  0
    2.7810   -7.4910   24.1820 Cl  0  0  0  0  0  0  0  0  0  0  0  0
    6.0000   -3.2140   25.4160 C   0  0  0  0  0  0  0  0  0  0  0  0
    5.2290   -3.3080   26.6370 N   0  0  0  0  0  0  0  0  0  0  0  0
    5.7820   -4.0300   27.7190 C   0  0  0  0  0  0  0  0  0  0  0  0
    6.4450   -3.5250   28.6220 O   0  0  0  0  0  0  0  0  0  0  0  0
    5.5430   -5.4100   27.7550 C   0  0  0  0  0  0  0  0  0  0  0  0
    5.7060   -6.0100   29.4260 Cl  0  0  0  0  0  0  0  0  0  0  0  0
  1  2  1  0
  2  3  1  0
  3  4  2  0
  3  5  1  0
  5  6  1  0
  6  7  2  0
  7  8  1  0
  8  9  1  0
  9 10  3  0
  8 11  2  0
 11 12  1  0
 12 13  1  0
 13 14  1  0
 14 15  2  0
 14 16  1  0
 16 17  1  0
  6 18  1  0
 12 18  2  0
 18 19  1  0
 19 20  1  0
 20 21  2  0
 20 22  1  0
 22 23  1  0
M  END
