MAK-UNK-516d8086-5-nitrile
     RDKit          3D

 22 24  0  0  0  0  0  0  0  0999 V2000
    8.0320   -3.9150   19.9170 C   0  0  0  0  0  0  0  0  0  0  0  0
    6.7820   -3.8520   19.4830 N   0  0  0  0  0  0  0  0  0  0  0  0
    8.3990   -4.0840   21.3450 C   0  0  0  0  0  0  0  0  0  0  0  0
    7.8870   -5.2450   22.1940 C   0  0  0  0  0  0  0  0  0  0  0  0
    8.3120   -5.3430   23.5680 N   0  0  0  0  0  0  0  0  0  0  0  0
    9.1700   -4.3660   24.0460 C   0  0  0  0  0  0  0  0  0  0  0  0
    9.6020   -4.4380   25.3850 N   0  0  0  0  0  0  0  0  0  0  0  0
    9.1750   -5.5920   26.1800 C   0  0  0  0  0  0  0  0  0  0  0  0
    9.2510   -5.2170   27.6580 C   0  0  0  0  0  0  0  0  0  0  0  0
    9.6890   -3.1880   23.1950 C   0  0  0  0  0  0  0  0  0  0  0  0
   10.6520   -2.0650   23.6890 C   0  0  0  0  0  0  0  0  0  0  0  0
   11.6090   -2.8050   24.5760 C   0  0  0  0  0  0  0  0  0  0  0  0
   12.1720   -2.6190   23.3570 C   0  0  0  0  0  0  0  0  0  0  0  0
   11.2560   -1.8290   22.4590 C   0  0  0  0  0  0  0  0  0  0  0  0
   10.0150   -1.4390   23.0550 C   0  0  0  0  0  0  0  0  0  0  0  0
    9.5910   -1.7430   24.3920 C   0  0  0  0  0  0  0  0  0  0  0  0
   10.4600   -2.5000   25.2490 C   0  0  0  0  0  0  0  0  0  0  0  0
    8.3530   -1.2150   24.6230 C   0  0  0  0  0  0  0  0  0  0  0  0
    7.6250   -1.3720   25.5840 O   0  0  0  0  0  0  0  0  0  0  0  0
    8.0670   -0.3770   23.3820 C   0  0  0  0  0  0  0  0  0  0  0  0
    8.9980   -0.6800   22.4200 C   0  0  0  0  0  0  0  0  0  0  0  0
    9.2580   -3.1350   21.8790 C   0  0  0  0  0  0  0  0  0  0  0  0
  1  2  2  3
  1  3  1  0
  3  4  2  0
  4  5  1  0
  5  6  2  0
  6  7  1  0
  7  8  1  0
  8  9  1  0
  6 10  1  0
 10 11  1  0
 11 12  1  0
 12 13  2  0
 13 14  1  0
 14 15  2  0
 15 16  1  0
 12 17  1  0
 16 17  2  0
 16 18  1  0
 18 19  2  0
 18 20  1  0
 15 21  1  0
 20 21  1  0
  3 22  1  0
 10 22  2  0
M  END
