MAK-UNK-8145c7a0-6
     RDKit          3D

 26 28  0  0  0  0  0  0  0  0999 V2000
    9.0990   -5.4840   26.2380 C   0  0  0  0  0  0  0  0  0  0  0  0
    8.8170   -4.1580   25.6310 C   0  0  0  0  0  0  0  0  0  0  0  0
    8.1440   -3.1760   26.2080 N   0  0  0  0  0  0  0  0  0  0  0  0
    8.0450   -2.0540   25.4050 N   0  0  0  0  0  0  0  0  0  0  0  0
    8.6400   -2.2230   24.2420 C   0  0  0  0  0  0  0  0  0  0  0  0
    8.7180   -1.3060   23.2130 C   0  0  0  0  0  0  0  0  0  0  0  0
   10.0320   -0.6850   23.0550 N   0  0  0  0  0  0  0  0  0  0  0  0
   11.1630   -1.4800   22.4680 C   0  0  0  0  0  0  0  0  0  0  0  0
   12.3860   -0.7750   22.4440 C   0  0  0  0  0  0  0  0  0  0  0  0
   13.5240   -1.4320   22.1660 F   0  0  0  0  0  0  0  0  0  0  0  0
   12.3960    0.7300   22.7260 C   0  0  0  0  0  0  0  0  0  0  0  0
   11.0720    1.4010   23.0010 C   0  0  2  0  0  0  0  0  0  0  0  0
   11.0150    3.1950   23.2710 S   0  0  0  0  0  0  0  0  0  0  0  0
   12.1750    3.7690   22.6180 O   0  0  0  0  0  0  0  0  0  0  0  0
   10.7130    3.4510   24.6480 O   0  0  0  0  0  0  0  0  0  0  0  0
    9.6650    3.7610   22.4170 N   0  0  0  0  0  0  0  0  0  0  0  0
    8.5580    4.2800   23.0530 C   0  0  0  0  0  0  0  0  0  0  0  0
    8.4510    5.8080   22.9730 C   0  0  0  0  0  0  0  0  0  0  0  0
    9.5230    6.4810   23.5970 C   0  0  0  0  0  0  0  0  0  0  0  0
    9.3110    7.2720   24.7460 C   0  0  0  0  0  0  0  0  0  0  0  0
   10.3780    7.9260   25.3580 C   0  0  0  0  0  0  0  0  0  0  0  0
   11.6780    7.8490   24.8980 C   0  0  0  0  0  0  0  0  0  0  0  0
   11.9600    7.0900   23.7710 C   0  0  0  0  0  0  0  0  0  0  0  0
   10.8320    6.3670   23.0770 C   0  0  0  0  0  0  0  0  0  0  0  0
   10.3260    0.4730   23.9160 C   0  0  0  0  0  0  0  0  0  0  0  0
    9.3630   -3.7530   24.0630 S   0  0  0  0  0  0  0  0  0  0  0  0
  1  2  1  0
  2  3  2  0
  3  4  1  0
  4  5  2  0
  5  6  1  0
  6  7  1  0
  7  8  1  0
  8  9  1  0
  9 10  1  0
  9 11  2  0
 11 12  1  0
 12 13  1  1
 13 14  2  0
 13 15  2  0
 13 16  1  0
 16 17  1  0
 17 18  1  0
 18 19  1  0
 19 20  2  0
 20 21  1  0
 21 22  2  0
 22 23  1  0
 19 24  1  0
 23 24  2  0
  7 25  1  0
 12 25  1  0
  2 26  1  0
  5 26  1  0
M  END
