MAK-UNK-f983951f-1-nitrile
     RDKit          3D

 13 15  0  0  0  0  0  0  0  0999 V2000
    6.3570   -4.5170   20.6010 C   0  0  0  0  0  0  0  0  0  0  0  0
    5.9000   -3.6970   19.7440 N   0  0  0  0  0  0  0  0  0  0  0  0
    5.7130   -4.8010   21.8640 N   0  0  0  0  0  0  0  0  0  0  0  0
    5.3240   -4.0090   23.0980 C   0  0  2  0  0  0  0  0  0  0  0  0
    4.8940   -4.9510   24.2660 C   0  0  0  0  0  0  0  0  0  0  0  0
    4.3590   -4.3270   25.4340 C   0  0  1  0  0  0  0  0  0  0  0  0
    5.3900   -3.4810   25.9430 C   0  0  0  0  0  0  0  0  0  0  0  0
    5.8210   -2.4770   25.0180 C   0  0  2  0  0  0  0  0  0  0  0  0
    4.6530   -1.7250   24.6520 C   0  0  0  0  0  0  0  0  0  0  0  0
    4.0230   -2.8120   24.1960 C   0  0  0  0  0  0  0  0  0  0  0  0
    3.2810   -3.5210   25.0500 C   0  0  0  0  0  0  0  0  0  0  0  0
    4.1030   -3.1210   22.8940 C   0  0  0  0  0  0  0  0  0  0  0  0
    6.3920   -3.0920   23.8210 C   0  0  0  0  0  0  0  0  0  0  0  0
  1  2  2  3
  1  3  1  0
  4  3  1  6
  4  5  1  0
  6  5  1  6
  6  7  1  0
  8  7  1  1
  8  9  1  0
  9 10  1  0
  6 11  1  0
 10 11  1  0
  4 12  1  0
 10 12  1  0
  4 13  1  0
  8 13  1  0
M  END
