MAK-UNK-516d8086-25-chloroacetamide
     RDKit          3D

 24 26  0  0  0  0  0  0  0  0999 V2000
    7.3860   -4.7760   20.8250 C   0  0  0  0  0  0  0  0  0  0  0  0
    7.1110   -3.4080   20.2720 C   0  0  0  0  0  0  0  0  0  0  0  0
    6.2700   -3.2530   19.3330 O   0  0  0  0  0  0  0  0  0  0  0  0
    7.9640   -2.3350   20.9480 C   0  0  0  0  0  0  0  0  0  0  0  0
    7.9060   -0.7990   20.7930 C   0  0  0  0  0  0  0  0  0  0  0  0
    8.7730    0.0370   21.4810 N   0  0  0  0  0  0  0  0  0  0  0  0
    9.7400   -0.4990   22.3380 C   0  0  0  0  0  0  0  0  0  0  0  0
   10.6540    0.4680   23.0260 N   0  0  0  0  0  0  0  0  0  0  0  0
   12.1350    0.3760   22.8790 C   0  0  0  0  0  0  0  0  0  0  0  0
   12.6160   -0.8040   22.3070 C   0  0  0  0  0  0  0  0  0  0  0  0
    9.8550   -1.8670   22.5500 C   0  0  0  0  0  0  0  0  0  0  0  0
   10.7620   -2.5380   23.3730 C   0  0  0  0  0  0  0  0  0  0  0  0
   11.0160   -2.0590   24.8610 C   0  0  0  0  0  0  0  0  0  0  0  0
   12.5730   -2.2600   25.0380 C   0  0  0  0  0  0  0  0  0  0  0  0
   11.8960   -0.9840   24.8120 C   0  0  0  0  0  0  0  0  0  0  0  0
   10.4700   -1.0290   24.7800 C   0  0  0  0  0  0  0  0  0  0  0  0
    9.7290   -2.3280   24.9720 C   0  0  0  0  0  0  0  0  0  0  0  0
   10.3320   -3.5500   25.1880 C   0  0  0  0  0  0  0  0  0  0  0  0
   11.8240   -3.3490   25.1970 C   0  0  0  0  0  0  0  0  0  0  0  0
    9.4090   -4.7020   25.3630 C   0  0  0  0  0  0  0  0  0  0  0  0
    9.6620   -5.8740   25.5080 O   0  0  0  0  0  0  0  0  0  0  0  0
    8.1530   -4.0510   25.3200 N   0  0  0  0  0  0  0  0  0  0  0  0
    8.2090   -2.5720   24.9780 C   0  0  0  0  0  0  0  0  0  0  0  0
    8.9900   -2.7360   21.8700 C   0  0  0  0  0  0  0  0  0  0  0  0
  1  2  1  0
  2  3  2  0
  2  4  1  0
  4  5  2  0
  5  6  1  0
  6  7  2  0
  7  8  1  0
  8  9  1  0
  9 10  1  0
  7 11  1  0
 11 12  1  0
 12 13  1  0
 13 14  1  0
 14 15  2  0
 15 16  1  0
 16 17  2  0
 17 18  1  0
 14 19  1  0
 18 19  2  0
 18 20  1  0
 20 21  2  0
 20 22  1  0
 17 23  1  0
 22 23  1  0
  4 24  1  0
 11 24  2  0
M  END
