MAK-UNK-a7992eb3-4-vinylsulfonamide
     RDKit          3D

 38 42  0  0  0  0  0  0  0  0999 V2000
    6.4090   -4.8270   20.4670 C   0  0  0  0  0  0  0  0  0  0  0  0
    5.7250   -3.6190   21.0860 C   0  0  0  0  0  0  0  0  0  0  0  0
    4.7550   -4.1240   22.4790 S   0  0  0  0  0  0  0  0  0  0  0  0
    4.2960   -5.4550   22.1600 O   0  0  0  0  0  0  0  0  0  0  0  0
    3.7740   -3.1060   22.7490 O   0  0  0  0  0  0  0  0  0  0  0  0
    5.8240   -4.0900   23.8050 N   0  0  0  0  0  0  0  0  0  0  0  0
    7.1310   -3.5520   23.4720 C   0  0  0  0  0  0  0  0  0  0  0  0
    7.1830   -2.2090   23.1520 C   0  0  0  0  0  0  0  0  0  0  0  0
    5.9300   -1.6000   23.0480 C   0  0  0  0  0  0  0  0  0  0  0  0
    5.8660   -0.2720   22.5950 C   0  0  0  0  0  0  0  0  0  0  0  0
    5.1680    0.5230   23.2180 O   0  0  0  0  0  0  0  0  0  0  0  0
    6.6080    0.1020   21.4610 N   0  0  0  0  0  0  0  0  0  0  0  0
    8.0240   -0.2220   21.6680 C   0  0  0  0  0  0  0  0  0  0  0  0
    7.4610    1.1500   22.2580 C   0  0  0  0  0  0  0  0  0  0  0  0
    8.1300    2.2870   23.0690 C   0  0  0  0  0  0  0  0  0  0  0  0
    9.5440    2.1410   23.4020 C   0  0  0  0  0  0  0  0  0  0  0  0
   10.1740    0.8890   22.8980 C   0  0  0  0  0  0  0  0  0  0  0  0
    9.3980   -0.1580   22.0880 C   0  0  0  0  0  0  0  0  0  0  0  0
   10.0740   -1.1220   21.7350 O   0  0  0  0  0  0  0  0  0  0  0  0
   11.0160   -1.5990   22.6870 C   0  0  0  0  0  0  0  0  0  0  0  0
   10.5760   -1.5630   24.0390 C   0  0  0  0  0  0  0  0  0  0  0  0
   11.4990   -2.0080   24.9510 C   0  0  0  0  0  0  0  0  0  0  0  0
   12.8480   -2.5310   24.9130 C   0  0  0  0  0  0  0  0  0  0  0  0
   13.0580   -2.4820   23.5510 C   0  0  0  0  0  0  0  0  0  0  0  0
   12.2560   -2.0680   22.5370 C   0  0  0  0  0  0  0  0  0  0  0  0
   12.8420   -2.1590   21.3780 C   0  0  0  0  0  0  0  0  0  0  0  0
   13.6010   -1.8560   20.6770 N   0  0  0  0  0  0  0  0  0  0  0  0
   13.9210   -0.5600   20.5650 C   0  0  0  0  0  0  0  0  0  0  0  0
   14.5130   -0.7450   19.4380 N   0  0  0  0  0  0  0  0  0  0  0  0
   15.0850    0.2530   18.6460 C   0  0  0  0  0  0  0  0  0  0  0  0
   15.5870   -0.1960   17.4730 C   0  0  0  0  0  0  0  0  0  0  0  0
   16.0890    0.6680   16.7080 C   0  0  0  0  0  0  0  0  0  0  0  0
   16.0670    1.8610   17.1800 C   0  0  0  0  0  0  0  0  0  0  0  0
   15.5730    2.2960   18.4030 C   0  0  0  0  0  0  0  0  0  0  0  0
   14.9750    1.4960   19.3000 C   0  0  0  0  0  0  0  0  0  0  0  0
   14.4900    0.3840   19.8250 N   0  0  0  0  0  0  0  0  0  0  0  0
    5.1970   -1.7900   24.4020 C   0  0  0  0  0  0  0  0  0  0  0  0
    5.2520   -3.2630   24.8700 C   0  0  0  0  0  0  0  0  0  0  0  0
  1  2  1  0
  3  2  1  0
  3  4  2  0
  3  5  2  0
  3  6  1  0
  6  7  1  0
  7  8  1  0
  8  9  1  0
  9 10  1  0
 10 11  2  0
 10 12  1  0
 12 13  1  0
 13 14  2  0
 14 15  1  0
 15 16  2  0
 16 17  1  0
 13 18  1  0
 17 18  2  0
 18 19  1  0
 19 20  1  0
 20 21  2  0
 21 22  1  0
 22 23  2  0
 23 24  1  0
 20 25  1  0
 24 25  2  0
 25 26  1  0
 26 27  1  0
 27 28  1  0
 28 29  2  0
 29 30  1  0
 30 31  2  0
 31 32  1  0
 32 33  2  0
 33 34  1  0
 30 35  1  0
 34 35  2  0
 28 36  1  0
 35 36  1  0
  9 37  1  0
  6 38  1  0
 37 38  1  0
M  END
