MAK-UNK-902cc841-10
     RDKit          3D

 34 37  0  0  0  0  0  0  0  0999 V2000
    5.8820   -1.4690   18.6570 C   0  0  0  0  0  0  0  0  0  0  0  0
    5.6950   -2.2710   19.9200 C   0  0  0  0  0  0  0  0  0  0  0  0
    5.2630   -3.4460   19.8580 O   0  0  0  0  0  0  0  0  0  0  0  0
    6.0720   -1.6250   21.1100 N   0  0  0  0  0  0  0  0  0  0  0  0
    7.1010   -2.1360   22.0190 C   0  0  0  0  0  0  0  0  0  0  0  0
    8.3450   -1.5360   21.8300 C   0  0  0  0  0  0  0  0  0  0  0  0
    8.4040   -0.1840   21.9930 N   0  0  0  0  0  0  0  0  0  0  0  0
    9.0970    0.3520   23.2390 C   0  0  1  0  0  0  0  0  0  0  0  0
    9.5810   -0.6630   24.1030 C   0  0  0  0  0  0  0  0  0  0  0  0
    8.9360   -0.9980   25.1000 O   0  0  0  0  0  0  0  0  0  0  0  0
   10.7970   -1.3150   23.8140 N   0  0  0  0  0  0  0  0  0  0  0  0
   12.0830   -0.8410   24.3310 C   0  0  0  0  0  0  0  0  0  0  0  0
   13.1720   -1.8920   24.0740 C   0  0  0  0  0  0  0  0  0  0  0  0
   12.9860   -3.1600   24.7820 N   0  0  0  0  0  0  0  0  0  0  0  0
   14.1110   -3.5920   26.0200 S   0  0  0  0  0  0  0  0  0  0  0  0
   14.8700   -2.4230   26.3140 O   0  0  0  0  0  0  0  0  0  0  0  0
   13.3660   -4.2060   27.0070 O   0  0  0  0  0  0  0  0  0  0  0  0
   15.3140   -4.9120   25.7260 C   0  0  0  0  0  0  0  0  0  0  0  0
   15.7800   -6.0440   26.6970 C   0  0  0  0  0  0  0  0  0  0  0  0
   15.3790   -6.1910   27.9410 F   0  0  0  0  0  0  0  0  0  0  0  0
   16.7770   -7.0280   26.1720 C   0  0  0  0  0  0  0  0  0  0  0  0
   17.2480   -6.8820   24.9470 C   0  0  0  0  0  0  0  0  0  0  0  0
   16.8040   -5.7680   24.0850 C   0  0  0  0  0  0  0  0  0  0  0  0
   15.8640   -4.8930   24.5480 C   0  0  0  0  0  0  0  0  0  0  0  0
   15.5250   -4.0010   23.6220 F   0  0  0  0  0  0  0  0  0  0  0  0
   11.5860   -3.3550   24.9820 C   0  0  0  0  0  0  0  0  0  0  0  0
   10.7700   -2.7650   23.8160 C   0  0  0  0  0  0  0  0  0  0  0  0
   10.1720    1.4150   22.9790 C   0  0  0  0  0  0  0  0  0  0  0  0
   11.5350    1.2470   23.1430 C   0  0  0  0  0  0  0  0  0  0  0  0
   12.2690    2.3660   22.8500 C   0  0  0  0  0  0  0  0  0  0  0  0
   11.3060    3.6720   22.3590 S   0  0  0  0  0  0  0  0  0  0  0  0
    9.9010    2.7130   22.5450 C   0  0  0  0  0  0  0  0  0  0  0  0
    7.2860    0.6000   21.3980 C   0  0  0  0  0  0  0  0  0  0  0  0
    5.9510   -0.1680   21.1600 C   0  0  0  0  0  0  0  0  0  0  0  0
  1  2  1  0
  2  3  2  0
  2  4  1  0
  4  5  1  0
  5  6  1  0
  6  7  1  0
  7  8  1  0
  8  9  1  6
  9 10  2  0
  9 11  1  0
 11 12  1  0
 12 13  1  0
 13 14  1  0
 14 15  1  0
 15 16  2  0
 15 17  2  0
 15 18  1  0
 18 19  2  0
 19 20  1  0
 19 21  1  0
 21 22  2  0
 22 23  1  0
 18 24  1  0
 23 24  2  0
 24 25  1  0
 14 26  1  0
 11 27  1  0
 26 27  1  0
  8 28  1  0
 28 29  1  0
 29 30  2  0
 30 31  1  0
 28 32  2  0
 31 32  1  0
  7 33  1  0
  4 34  1  0
 33 34  1  0
M  END
