MAK-UNK-e4a48a85-8-vinylsulfonamide
     RDKit          3D

 32 35  0  0  0  0  0  0  0  0999 V2000
    7.3720   -3.2750   19.0170 C   0  0  0  0  0  0  0  0  0  0  0  0
    6.4030   -3.8900   20.0170 C   0  0  0  0  0  0  0  0  0  0  0  0
    5.6030   -2.4880   20.5750 S   0  0  0  0  0  0  0  0  0  0  0  0
    4.5910   -2.9460   21.4730 O   0  0  0  0  0  0  0  0  0  0  0  0
    5.4380   -1.6370   19.4210 O   0  0  0  0  0  0  0  0  0  0  0  0
    6.6400   -1.8260   21.6510 N   0  0  0  0  0  0  0  0  0  0  0  0
    7.7540   -0.9910   21.2640 C   0  0  0  0  0  0  0  0  0  0  0  0
    8.9630   -1.8740   21.6070 C   0  0  0  0  0  0  0  0  0  0  0  0
    8.7900   -2.6030   22.9080 N   0  0  0  0  0  0  0  0  0  0  0  0
    9.4000   -2.0730   24.0990 C   0  0  0  0  0  0  0  0  0  0  0  0
   10.5340   -1.1570   23.6670 C   0  0  0  0  0  0  0  0  0  0  0  0
   11.8070   -1.8280   23.0240 C   0  0  0  0  0  0  0  0  0  0  0  0
   12.8880   -0.8010   22.6620 C   0  0  0  0  0  0  0  0  0  0  0  0
   12.6890    0.7110   22.9120 C   0  0  0  0  0  0  0  0  0  0  0  0
   11.4400    1.3630   23.5160 C   0  0  0  0  0  0  0  0  0  0  0  0
   11.2670    2.6530   23.7190 N   0  0  0  0  0  0  0  0  0  0  0  0
    9.9580    2.9250   24.0420 C   0  0  0  0  0  0  0  0  0  0  0  0
    8.8600    2.3070   23.5540 O   0  0  0  0  0  0  0  0  0  0  0  0
    9.7030    4.0500   25.0300 C   0  0  0  0  0  0  0  0  0  0  0  0
   10.5370    5.2900   24.9760 C   0  0  0  0  0  0  0  0  0  0  0  0
   10.2620    6.2130   25.8900 N   0  0  0  0  0  0  0  0  0  0  0  0
    9.2480    5.7860   26.6880 C   0  0  0  0  0  0  0  0  0  0  0  0
    8.7020    6.6090   27.8580 C   0  0  0  0  0  0  0  0  0  0  0  0
    9.7440    6.3880   28.9920 C   0  0  0  0  0  0  0  0  0  0  0  0
   11.2000    6.6620   28.7170 C   0  0  0  0  0  0  0  0  0  0  0  0
   12.0290    6.3920   29.9250 C   0  0  0  0  0  0  0  0  0  0  0  0
   11.0620    5.8560   31.2300 S   0  0  0  0  0  0  0  0  0  0  0  0
    9.5760    5.9490   30.3220 C   0  0  0  0  0  0  0  0  0  0  0  0
    8.5800    4.2110   26.3180 S   0  0  0  0  0  0  0  0  0  0  0  0
   10.3270    0.3750   23.9070 C   0  0  0  0  0  0  0  0  0  0  0  0
    7.5140   -3.2600   23.1880 C   0  0  0  0  0  0  0  0  0  0  0  0
    6.5280   -2.3290   23.0030 C   0  0  0  0  0  0  0  0  0  0  0  0
  1  2  1  0
  3  2  1  0
  3  4  2  0
  3  5  2  0
  3  6  1  0
  6  7  1  0
  7  8  1  0
  8  9  1  0
  9 10  1  0
 10 11  1  0
 11 12  2  0
 12 13  1  0
 13 14  2  0
 14 15  1  0
 15 16  1  0
 16 17  1  0
 17 18  2  0
 17 19  1  0
 19 20  2  0
 20 21  1  0
 21 22  2  0
 22 23  1  0
 23 24  1  0
 24 25  1  0
 25 26  2  0
 26 27  1  0
 24 28  2  0
 27 28  1  0
 19 29  1  0
 22 29  1  0
 11 30  1  0
 15 30  2  0
  9 31  1  0
  6 32  1  0
 31 32  1  0
M  END
