MAK-UNK-e4a48a85-24-chloroacetamide
     RDKit          3D

 24 26  0  0  0  0  0  0  0  0999 V2000
    8.5330   -3.5970   19.5880 C   0  0  0  0  0  0  0  0  0  0  0  0
    7.0880   -3.8050   20.1650 C   0  0  0  0  0  0  0  0  0  0  0  0
    6.2330   -4.6840   19.9730 O   0  0  0  0  0  0  0  0  0  0  0  0
    6.7360   -2.7120   20.9790 N   0  0  0  0  0  0  0  0  0  0  0  0
    6.1270   -2.9250   22.2780 C   0  0  0  0  0  0  0  0  0  0  0  0
    7.3860   -3.1130   23.1280 C   0  0  0  0  0  0  0  0  0  0  0  0
    8.0640   -1.7660   23.2720 N   0  0  0  0  0  0  0  0  0  0  0  0
    9.0000   -1.6090   24.4400 C   0  0  0  0  0  0  0  0  0  0  0  0
   10.2310   -0.6490   24.2940 C   0  0  2  0  0  0  0  0  0  0  0  0
    9.5770    0.6140   23.5840 C   0  0  0  0  0  0  0  0  0  0  0  0
   10.7370    1.6350   23.7380 C   0  0  2  0  0  0  0  0  0  0  0  0
   10.3860    3.0380   23.2100 C   0  0  0  0  0  0  0  0  0  0  0  0
   12.0350    1.1550   23.1630 C   0  0  0  0  0  0  0  0  0  0  0  0
   12.0090   -0.2670   22.6740 C   0  0  0  0  0  0  0  0  0  0  0  0
   11.4700   -1.1200   23.7780 C   0  0  1  0  0  0  0  0  0  0  0  0
   12.3780   -1.1430   24.5960 O   0  0  0  0  0  0  0  0  0  0  0  0
   12.9340   -2.4020   24.3010 C   0  0  0  0  0  0  0  0  0  0  0  0
   11.6780   -3.0760   23.7890 C   0  0  0  0  0  0  0  0  0  0  0  0
   11.0740   -2.7900   22.4420 C   0  0  0  0  0  0  0  0  0  0  0  0
    9.8220   -3.6380   22.2990 C   0  0  0  0  0  0  0  0  0  0  0  0
    9.5190   -4.6240   23.6520 S   0  0  0  0  0  0  0  0  0  0  0  0
   10.9170   -4.0140   24.4690 C   0  0  0  0  0  0  0  0  0  0  0  0
    8.5270   -1.2890   21.9420 C   0  0  0  0  0  0  0  0  0  0  0  0
    7.4250   -1.4190   20.8900 C   0  0  0  0  0  0  0  0  0  0  0  0
  1  2  1  0
  2  3  2  0
  2  4  1  0
  4  5  1  0
  5  6  1  0
  6  7  1  0
  7  8  1  0
  9  8  1  6
  9 10  1  0
 10 11  1  0
 11 12  1  6
 11 13  1  0
 13 14  1  0
  9 15  1  0
 14 15  1  0
 15 16  1  1
 16 17  1  0
 17 18  1  0
 18 19  1  0
 19 20  2  0
 20 21  1  0
 18 22  2  0
 21 22  1  0
  7 23  1  0
  4 24  1  0
 23 24  1  0
M  END
