MAK-UNK-a7992eb3-17
     RDKit          3D

 25 28  0  0  0  0  0  0  0  0999 V2000
   -1.0380   -1.7900   25.2020 C   0  0  0  0  0  0  0  0  0  0  0  0
   -0.0500   -0.7680   24.7390 C   0  0  0  0  0  0  0  0  0  0  0  0
    1.3960   -1.0030   25.1150 C   0  0  0  0  0  0  0  0  0  0  0  0
    1.8540   -2.0890   25.8530 C   0  0  0  0  0  0  0  0  0  0  0  0
    3.1960   -2.2620   26.1840 C   0  0  0  0  0  0  0  0  0  0  0  0
    4.0500   -2.4970   25.0900 C   0  0  0  0  0  0  0  0  0  0  0  0
    4.3540   -3.8860   24.8480 O   0  0  0  0  0  0  0  0  0  0  0  0
    5.1310   -4.1610   23.6610 C   0  0  0  0  0  0  0  0  0  0  0  0
    6.6440   -4.0500   23.9170 C   0  0  0  0  0  0  0  0  0  0  0  0
    7.4600   -4.6040   22.7260 C   0  0  0  0  0  0  0  0  0  0  0  0
    6.6160   -5.0710   21.6560 N   0  0  0  0  0  0  0  0  0  0  0  0
    5.9670   -4.2290   20.7700 C   0  0  0  0  0  0  0  0  0  0  0  0
    6.5940   -2.8450   20.5230 C   0  0  0  0  0  0  0  0  0  0  0  0
    6.5630   -2.2060   19.1390 C   0  0  0  0  0  0  0  0  0  0  0  0
    7.2320   -0.8640   19.2520 C   0  0  0  0  0  0  0  0  0  0  0  0
    7.7980   -0.4770   20.8130 S   0  0  0  0  0  0  0  0  0  0  0  0
    7.2290   -1.9920   21.4350 C   0  0  0  0  0  0  0  0  0  0  0  0
    5.7150   -5.9770   22.1530 C   0  0  0  0  0  0  0  0  0  0  0  0
    4.8300   -5.5810   23.1760 C   0  0  0  0  0  0  0  0  0  0  0  0
    3.2570   -3.5670   27.0640 C   0  0  0  0  0  0  0  0  0  0  0  0
    3.1990   -3.0970   28.3880 C   0  0  0  0  0  0  0  0  0  0  0  0
    3.6760   -1.7920   28.4410 C   0  0  0  0  0  0  0  0  0  0  0  0
    3.7150   -1.3230   27.1450 C   0  0  0  0  0  0  0  0  0  0  0  0
    0.8320   -3.0780   26.2920 N   0  0  0  0  0  0  0  0  0  0  0  0
   -0.5060   -2.9330   25.9850 C   0  0  0  0  0  0  0  0  0  0  0  0
  1  2  2  0
  2  3  1  0
  3  4  2  0
  4  5  1  0
  5  6  1  0
  6  7  1  0
  7  8  1  0
  8  9  1  0
  9 10  1  0
 10 11  1  0
 11 12  1  0
 12 13  1  0
 13 14  1  0
 14 15  2  0
 15 16  1  0
 13 17  2  0
 16 17  1  0
 11 18  1  0
  8 19  1  0
 18 19  1  0
  5 20  1  0
 20 21  1  0
 21 22  1  0
  5 23  1  0
 22 23  1  0
  4 24  1  0
  1 25  1  0
 24 25  2  0
M  END
