MAK-UNK-9a6be56d-26
     RDKit          3D

 38 42  0  0  0  0  0  0  0  0999 V2000
    9.0760    0.7450   24.9340 C   0  0  0  0  0  0  0  0  0  0  0  0
   10.2960    0.8190   24.2980 N   0  0  0  0  0  0  0  0  0  0  0  0
   11.1040   -0.2860   24.1860 C   0  0  0  0  0  0  0  0  0  0  0  0
   11.8250   -0.1330   23.0070 C   0  0  0  0  0  0  0  0  0  0  0  0
   12.7030    0.9780   22.9270 C   0  0  0  0  0  0  0  0  0  0  0  0
   12.0020    2.1580   23.0460 C   0  0  0  0  0  0  0  0  0  0  0  0
   12.4800    3.3310   22.5010 C   0  0  0  0  0  0  0  0  0  0  0  0
   11.7390    4.5340   22.5720 C   0  0  0  0  0  0  0  0  0  0  0  0
   12.1790    5.7870   21.9120 N   0  0  0  0  0  0  0  0  0  0  0  0
   13.4710    6.1800   21.3360 C   0  0  0  0  0  0  0  0  0  0  0  0
   14.0930    6.9900   20.1240 C   0  0  0  0  0  0  0  0  0  0  0  0
   13.8400    8.0620   19.9410 C   0  0  0  0  0  0  0  0  0  0  0  0
   14.1160    9.1240   18.8450 C   0  0  0  0  0  0  0  0  0  0  0  0
   13.5010   10.6670   18.4530 C   0  0  0  0  0  0  0  0  0  0  0  0
   13.5710   10.9740   17.0530 C   0  0  0  0  0  0  0  0  0  0  0  0
   13.5250   12.2620   16.5180 C   0  0  0  0  0  0  0  0  0  0  0  0
   13.3390   13.3580   17.2750 C   0  0  0  0  0  0  0  0  0  0  0  0
   13.0850   13.1220   18.7510 C   0  0  0  0  0  0  0  0  0  0  0  0
   13.1390   11.9040   19.3250 C   0  0  0  0  0  0  0  0  0  0  0  0
   12.9950   12.0880   20.6060 F   0  0  0  0  0  0  0  0  0  0  0  0
   15.1470    8.2650   18.3280 N   0  0  0  0  0  0  0  0  0  0  0  0
   16.5220    8.0370   17.2020 S   0  0  0  0  0  0  0  0  0  0  0  0
   16.0240    8.8860   16.2900 O   0  0  0  0  0  0  0  0  0  0  0  0
   17.7340    8.1770   17.9740 O   0  0  0  0  0  0  0  0  0  0  0  0
   16.8930    7.1270   15.8120 C   0  0  0  0  0  0  0  0  0  0  0  0
   16.2280    6.0700   15.3170 C   0  0  0  0  0  0  0  0  0  0  0  0
   16.6480    5.4590   14.1620 C   0  0  0  0  0  0  0  0  0  0  0  0
   17.7280    5.9360   13.5250 C   0  0  0  0  0  0  0  0  0  0  0  0
   18.4360    6.9770   13.9580 N   0  0  0  0  0  0  0  0  0  0  0  0
   18.0080    7.5500   15.1030 C   0  0  0  0  0  0  0  0  0  0  0  0
   14.9550    7.1430   19.0620 C   0  0  0  0  0  0  0  0  0  0  0  0
   10.5240    4.4400   23.2990 C   0  0  0  0  0  0  0  0  0  0  0  0
    9.4420    5.8200   23.5890 S   0  0  0  0  0  0  0  0  0  0  0  0
   10.5020    7.1090   23.7340 N   0  0  0  0  0  0  0  0  0  0  0  0
    8.8230    5.6380   24.9090 O   0  0  0  0  0  0  0  0  0  0  0  0
    8.6240    6.0890   22.4260 O   0  0  0  0  0  0  0  0  0  0  0  0
   10.0290    3.2430   23.8790 C   0  0  0  0  0  0  0  0  0  0  0  0
   10.8050    2.0870   23.7220 C   0  0  0  0  0  0  0  0  0  0  0  0
  1  2  1  0
  2  3  1  0
  3  4  1  0
  4  5  1  0
  5  6  1  0
  6  7  1  0
  7  8  2  0
  8  9  1  0
  9 10  1  0
 10 11  1  0
 11 12  1  0
 12 13  2  0
 13 14  1  0
 14 15  2  0
 15 16  1  0
 16 17  2  0
 17 18  1  0
 14 19  1  0
 18 19  2  0
 19 20  1  0
 13 21  1  0
 21 22  1  0
 22 23  2  0
 22 24  2  0
 22 25  1  0
 25 26  2  0
 26 27  1  0
 27 28  2  0
 28 29  1  0
 25 30  1  0
 29 30  2  0
 11 31  2  0
 21 31  1  0
  8 32  1  0
 32 33  1  0
 33 34  1  0
 33 35  2  0
 33 36  2  0
 32 37  2  0
  2 38  1  0
  6 38  2  0
 37 38  1  0
M  END
