MAK-UNK-10799360-4-nitrile
     RDKit          3D

 24 27  0  0  0  0  0  0  0  0999 V2000
    6.8170   -3.6750   20.0470 C   0  0  0  0  0  0  0  0  0  0  0  0
    5.6840   -3.8640   19.5150 N   0  0  0  0  0  0  0  0  0  0  0  0
    7.0090   -3.1360   21.2720 N   0  0  0  0  0  0  0  0  0  0  0  0
    6.3430   -3.6190   22.4900 C   0  0  0  0  0  0  0  0  0  0  0  0
    7.0510   -2.7820   23.6310 C   0  0  2  0  0  0  0  0  0  0  0  0
    6.1450   -1.7800   22.8040 C   0  0  0  0  0  0  0  0  0  0  0  0
    6.9620   -1.7130   21.5160 C   0  0  1  0  0  0  0  0  0  0  0  0
    8.2000   -1.2680   22.2530 C   0  0  0  0  0  0  0  0  0  0  0  0
    7.6960   -1.4250   23.6440 N   0  0  0  0  0  0  0  0  0  0  0  0
    8.7310   -1.2550   24.6660 C   0  0  0  0  0  0  0  0  0  0  0  0
    9.7610   -0.2130   24.2860 C   0  0  0  0  0  0  0  0  0  0  0  0
    9.5340    1.2590   24.3860 C   0  0  0  0  0  0  0  0  0  0  0  0
   10.5570    2.1390   23.9870 C   0  0  0  0  0  0  0  0  0  0  0  0
   11.7730    1.6550   23.5070 C   0  0  0  0  0  0  0  0  0  0  0  0
   11.9760    0.2930   23.4210 C   0  0  0  0  0  0  0  0  0  0  0  0
   13.0570   -0.3810   22.9870 N   0  0  0  0  0  0  0  0  0  0  0  0
   12.6750   -1.6140   23.1300 C   0  0  0  0  0  0  0  0  0  0  0  0
   13.3450   -2.6700   22.8190 C   0  0  0  0  0  0  0  0  0  0  0  0
   13.1570   -2.7010   21.0700 S   0  0  0  0  0  0  0  0  0  0  0  0
   13.9190   -4.0850   20.5000 N   0  0  0  0  0  0  0  0  0  0  0  0
   13.8350   -1.5400   20.5360 O   0  0  0  0  0  0  0  0  0  0  0  0
   11.7590   -2.8670   20.8430 O   0  0  0  0  0  0  0  0  0  0  0  0
   11.4490   -1.7760   23.6210 N   0  0  0  0  0  0  0  0  0  0  0  0
   10.9640   -0.5730   23.8160 C   0  0  0  0  0  0  0  0  0  0  0  0
  1  2  2  3
  1  3  1  0
  3  4  1  0
  5  4  1  6
  5  6  1  0
  3  7  1  0
  6  7  1  0
  7  8  1  1
  5  9  1  0
  8  9  1  0
  9 10  1  0
 10 11  1  0
 11 12  1  0
 12 13  2  0
 13 14  1  0
 14 15  2  0
 15 16  1  0
 16 17  2  0
 17 18  1  0
 18 19  1  0
 19 20  1  0
 19 21  2  0
 19 22  2  0
 17 23  1  0
 11 24  2  0
 15 24  1  0
 23 24  1  0
M  END
