MAK-UNK-af83ef51-31-nitrile
     RDKit          3D

 24 25  0  0  0  0  0  0  0  0999 V2000
    6.7180   -4.2670   20.2640 C   0  0  0  0  0  0  0  0  0  0  0  0
    6.1250   -3.5690   19.3620 N   0  0  0  0  0  0  0  0  0  0  0  0
    6.4140   -4.2730   21.5990 N   0  0  0  0  0  0  0  0  0  0  0  0
    5.3860   -3.5080   22.1460 C   0  0  0  0  0  0  0  0  0  0  0  0
    5.6850   -2.2670   22.6820 C   0  0  0  0  0  0  0  0  0  0  0  0
    7.1200   -2.1460   22.9480 N   0  0  0  0  0  0  0  0  0  0  0  0
    7.9110   -1.9300   21.7180 C   0  0  0  0  0  0  0  0  0  0  0  0
    9.1550   -2.5770   21.7530 C   0  0  0  0  0  0  0  0  0  0  0  0
   10.2790   -1.8330   22.0880 C   0  0  0  0  0  0  0  0  0  0  0  0
   11.3130   -2.4630   22.7680 C   0  0  0  0  0  0  0  0  0  0  0  0
   11.2230   -3.3270   23.6360 O   0  0  0  0  0  0  0  0  0  0  0  0
   12.5840   -1.9030   22.3080 N   0  0  0  0  0  0  0  0  0  0  0  0
   13.0960   -0.6960   22.9080 C   0  0  0  0  0  0  0  0  0  0  0  0
   11.9100   -0.0740   23.5940 C   0  0  0  0  0  0  0  0  0  0  0  0
   11.1830   -0.8970   24.6100 C   0  0  0  0  0  0  0  0  0  0  0  0
   10.0090   -0.1880   25.1930 C   0  0  0  0  0  0  0  0  0  0  0  0
    9.5420    1.0850   24.9190 C   0  0  0  0  0  0  0  0  0  0  0  0
    8.4530    1.6590   25.4930 N   0  0  0  0  0  0  0  0  0  0  0  0
    7.4810    0.8310   26.1830 C   0  0  0  0  0  0  0  0  0  0  0  0
    8.1080    0.1020   27.3310 C   0  0  0  0  0  0  0  0  0  0  0  0
   10.3480    1.8130   23.9100 N   0  0  0  0  0  0  0  0  0  0  0  0
   11.4400    1.2160   23.3300 C   0  0  0  0  0  0  0  0  0  0  0  0
    7.5450   -3.3700   23.5690 C   0  0  0  0  0  0  0  0  0  0  0  0
    7.4750   -4.5240   22.6050 C   0  0  0  0  0  0  0  0  0  0  0  0
  1  2  2  3
  1  3  1  0
  3  4  1  0
  4  5  1  0
  5  6  1  0
  6  7  1  0
  7  8  1  0
  8  9  1  0
  9 10  1  0
 10 11  2  0
 10 12  1  0
 12 13  1  0
 13 14  1  0
 14 15  2  0
 15 16  1  0
 16 17  2  0
 17 18  1  0
 18 19  1  0
 19 20  1  0
 17 21  1  0
 14 22  1  0
 21 22  2  0
  6 23  1  0
  3 24  1  0
 23 24  1  0
M  END
