MAK-UNK-516d8086-3-chloroacetamide
     RDKit          3D

 23 25  0  0  0  0  0  0  0  0999 V2000
    8.6000   -4.3670   20.2770 C   0  0  0  0  0  0  0  0  0  0  0  0
    8.4130   -2.9550   19.8080 C   0  0  0  0  0  0  0  0  0  0  0  0
    7.5280   -3.6010   18.9780 O   0  0  0  0  0  0  0  0  0  0  0  0
    9.4880   -2.9110   21.0520 C   0  0  0  0  0  0  0  0  0  0  0  0
    9.4490   -4.3120   21.6460 C   0  0  0  0  0  0  0  0  0  0  0  0
   10.1480   -4.7390   22.6810 N   0  0  0  0  0  0  0  0  0  0  0  0
   10.9520   -3.8590   23.2950 C   0  0  0  0  0  0  0  0  0  0  0  0
   11.8010   -4.0760   24.4790 N   0  0  0  0  0  0  0  0  0  0  0  0
   11.3070   -4.9270   25.3590 C   0  0  0  0  0  0  0  0  0  0  0  0
   10.2150   -5.7950   24.6970 C   0  0  0  0  0  0  0  0  0  0  0  0
   11.1680   -2.4030   22.8810 C   0  0  0  0  0  0  0  0  0  0  0  0
   12.2240   -1.7400   23.9040 C   0  0  0  0  0  0  0  0  0  0  0  0
   12.4650   -0.3670   24.1630 C   0  0  0  0  0  0  0  0  0  0  0  0
   13.4160   -1.2170   23.8450 C   0  0  0  0  0  0  0  0  0  0  0  0
   12.6730   -2.3990   23.7640 C   0  0  0  0  0  0  0  0  0  0  0  0
   11.2510   -2.8150   23.9430 C   0  0  0  0  0  0  0  0  0  0  0  0
   10.2450   -1.3720   24.3320 C   0  0  0  0  0  0  0  0  0  0  0  0
   11.2840   -0.5970   24.3310 C   0  0  0  0  0  0  0  0  0  0  0  0
    9.0870   -2.2350   24.3330 C   0  0  0  0  0  0  0  0  0  0  0  0
    8.2870   -2.5480   25.2050 O   0  0  0  0  0  0  0  0  0  0  0  0
    9.1350   -2.6090   23.2590 N   0  0  0  0  0  0  0  0  0  0  0  0
    9.9020   -3.2410   24.1080 C   0  0  0  0  0  0  0  0  0  0  0  0
   10.3850   -1.9500   21.7040 C   0  0  0  0  0  0  0  0  0  0  0  0
  1  2  1  0
  2  3  2  0
  2  4  1  0
  4  5  2  0
  5  6  1  0
  6  7  2  0
  7  8  1  0
  8  9  1  0
  9 10  1  0
  7 11  1  0
 11 12  1  0
 12 13  1  0
 13 14  2  0
 14 15  1  0
 15 16  2  0
 16 17  1  0
 13 18  1  0
 17 18  2  0
 17 19  1  0
 19 20  2  0
 19 21  1  0
 16 22  1  0
 21 22  1  0
  4 23  1  0
 11 23  2  0
M  END
