MAK-UNK-5e88aa6a-12
     RDKit          3D

 12 12  0  0  0  0  0  0  0  0999 V2000
   11.8590    0.3480   24.4530 C   0  0  0  0  0  0  0  0  0  0  0  0
   11.9810   -0.7180   23.4360 C   0  0  0  0  0  0  0  0  0  0  0  0
   13.2100   -0.7170   22.8170 C   0  0  0  0  0  0  0  0  0  0  0  0
   10.9760   -1.5650   23.1970 C   0  0  0  0  0  0  0  0  0  0  0  0
    9.7130   -1.6170   23.7990 C   0  0  0  0  0  0  0  0  0  0  0  0
    9.4990   -2.9430   24.4090 N   0  0  0  0  0  0  0  0  0  0  0  0
   10.6590   -3.3210   25.2300 C   0  0  0  0  0  0  0  0  0  0  0  0
   10.3970   -4.5270   25.9100 C   0  0  0  0  0  0  0  0  0  0  0  0
    9.1220   -4.7900   26.4070 C   0  0  0  0  0  0  0  0  0  0  0  0
    9.1000   -4.4060   27.7810 O   0  0  0  0  0  0  0  0  0  0  0  0
    8.0210   -4.2140   25.7860 C   0  0  0  0  0  0  0  0  0  0  0  0
    8.2060   -3.0100   25.1130 C   0  0  0  0  0  0  0  0  0  0  0  0
  1  2  1  0
  2  3  1  0
  2  4  2  3
  4  5  1  0
  5  6  1  0
  6  7  1  0
  7  8  1  0
  8  9  1  0
  9 10  1  0
  9 11  1  0
  6 12  1  0
 11 12  1  0
M  END
