MAK-UNK-9b4e5ff2-1
     RDKit          3D

  6  6  0  0  0  0  0  0  0  0999 V2000
    3.0190   -1.2270   26.9760 C   0  0  0  0  0  0  0  0  0  0  0  0
    2.4130   -1.7310   25.7120 C   0  0  2  0  0  0  0  0  0  0  0  0
    1.5450   -2.8430   25.7140 C   0  0  0  0  0  0  0  0  0  0  0  0
    2.7640   -3.2700   25.1730 C   0  0  2  0  0  0  0  0  0  0  0  0
    3.7850   -3.9530   25.8870 C   0  0  0  0  0  0  0  0  0  0  0  0
    4.6470   -4.4740   26.4480 N   0  0  0  0  0  0  0  0  0  0  0  0
  2  1  1  1
  2  3  1  0
  2  4  1  0
  3  4  1  0
  4  5  1  1
  5  6  3  0
M  END
