MAK-UNK-5d2caa6f-10-vinylsulfonamide
     RDKit          3D

 22 25  0  0  0  0  0  0  0  0999 V2000
    7.7700   -3.0810   18.6440 C   0  0  0  0  0  0  0  0  0  0  0  0
    7.5390   -2.6890   20.0350 C   0  0  0  0  0  0  0  0  0  0  0  0
    5.8270   -2.6600   20.2710 S   0  0  0  0  0  0  0  0  0  0  0  0
    5.2890   -3.9950   20.4190 O   0  0  0  0  0  0  0  0  0  0  0  0
    5.3250   -1.7090   19.3150 O   0  0  0  0  0  0  0  0  0  0  0  0
    5.9700   -1.9810   21.7850 N   0  0  0  0  0  0  0  0  0  0  0  0
    5.8240   -0.5350   21.6460 C   0  0  0  0  0  0  0  0  0  0  0  0
    6.8590    0.1280   22.2970 C   0  0  2  0  0  0  0  0  0  0  0  0
    8.1140    0.0520   21.7590 C   0  0  0  0  0  0  0  0  0  0  0  0
    8.2340   -1.4120   21.4100 C   0  0  1  0  0  0  0  0  0  0  0  0
    9.5420   -2.0540   21.7600 C   0  0  0  0  0  0  0  0  0  0  0  0
    9.2890   -2.6830   22.9990 N   0  0  0  0  0  0  0  0  0  0  0  0
   10.3150   -2.4890   24.0610 C   0  0  0  0  0  0  0  0  0  0  0  0
   10.6130   -3.2400   24.9500 O   0  0  0  0  0  0  0  0  0  0  0  0
   11.0730   -1.2180   23.8610 C   0  0  0  0  0  0  0  0  0  0  0  0
   10.7400    0.0970   24.4680 C   0  0  0  0  0  0  0  0  0  0  0  0
   11.7860    1.0410   23.9540 C   0  0  0  0  0  0  0  0  0  0  0  0
   12.6820    0.2950   23.0990 C   0  0  0  0  0  0  0  0  0  0  0  0
   12.2660   -1.0420   23.0340 N   0  0  0  0  0  0  0  0  0  0  0  0
    7.8890   -3.1090   23.0980 C   0  0  0  0  0  0  0  0  0  0  0  0
    7.2520   -2.0040   22.5030 C   0  0  2  0  0  0  0  0  0  0  0  0
    7.0290   -0.8240   23.4450 C   0  0  0  0  0  0  0  0  0  0  0  0
  1  2  1  0
  3  2  1  0
  3  4  2  0
  3  5  2  0
  3  6  1  0
  6  7  1  0
  8  7  1  6
  8  9  1  0
 10  9  1  1
 10 11  1  0
 11 12  1  0
 12 13  1  0
 13 14  2  0
 13 15  1  0
 15 16  2  0
 16 17  1  0
 17 18  2  0
 15 19  1  0
 18 19  1  0
 12 20  1  0
 21  6  1  0
 10 21  1  0
 21 20  1  1
  8 22  1  0
 21 22  1  0
M  END
