MAK-UNK-0d6072ac-3
     RDKit          3D

 19 21  0  0  0  0  0  0  0  0999 V2000
    7.2740   -6.3200   22.5790 C   0  0  0  0  0  0  0  0  0  0  0  0
    6.8990   -5.1390   23.4290 C   0  0  2  0  0  0  0  0  0  0  0  0
    5.5030   -4.5280   23.1940 C   0  0  0  0  0  0  0  0  0  0  0  0
    4.3770   -4.1370   22.3960 O   0  0  0  0  0  0  0  0  0  0  0  0
    5.9370   -4.9370   21.9720 O   0  0  0  0  0  0  0  0  0  0  0  0
    7.9830   -4.0710   23.3340 C   0  0  0  0  0  0  0  0  0  0  0  0
    9.3040   -4.2180   24.0500 C   0  0  0  0  0  0  0  0  0  0  0  0
   10.3570   -3.2660   24.0130 C   0  0  0  0  0  0  0  0  0  0  0  0
   10.3300   -2.0320   23.2970 C   0  0  0  0  0  0  0  0  0  0  0  0
    8.9520   -1.9100   22.5670 C   0  0  0  0  0  0  0  0  0  0  0  0
    7.8270   -2.9010   22.5930 C   0  0  0  0  0  0  0  0  0  0  0  0
    9.2260   -0.6790   21.9970 N   0  0  0  0  0  0  0  0  0  0  0  0
   10.2180   -1.1940   22.7660 C   0  0  0  0  0  0  0  0  0  0  0  0
   10.0240   -2.5680   23.4570 C   0  0  0  0  0  0  0  0  0  0  0  0
   11.0770   -3.0980   24.2730 C   0  0  0  0  0  0  0  0  0  0  0  0
   12.2660   -2.4110   24.4550 C   0  0  0  0  0  0  0  0  0  0  0  0
   13.5270   -3.0320   25.4320 Cl  0  0  0  0  0  0  0  0  0  0  0  0
   12.4100   -1.2180   23.8370 C   0  0  0  0  0  0  0  0  0  0  0  0
   11.3140   -0.8260   23.0830 C   0  0  0  0  0  0  0  0  0  0  0  0
  2  1  1  6
  2  3  1  0
  3  4  2  0
  3  5  1  0
  2  6  1  0
  6  7  2  0
  7  8  1  0
  8  9  2  0
  9 10  1  0
  6 11  1  0
 10 11  2  0
 10 12  1  0
 12 13  1  0
 13 14  1  0
 14 15  2  0
 15 16  1  0
 16 17  1  0
 16 18  2  0
  9 19  1  0
 13 19  2  0
 18 19  1  0
M  END
