MAK-UNK-702fb7d3-3
     RDKit          3D

 43 48  0  0  0  0  0  0  0  0999 V2000
    7.5360    2.9650   25.2810 O   0  0  0  0  0  0  0  0  0  0  0  0
    6.7160    3.3630   24.1570 S   0  0  0  0  0  0  0  0  0  0  0  0
    5.2780    3.4280   24.3050 O   0  0  0  0  0  0  0  0  0  0  0  0
    7.2570    4.9360   23.6160 C   0  0  0  0  0  0  0  0  0  0  0  0
    7.3270    5.3370   22.1650 C   0  0  0  0  0  0  0  0  0  0  0  0
    7.8090    6.7460   21.6930 C   0  0  0  0  0  0  0  0  0  0  0  0
    8.1780    7.5850   22.9590 C   0  0  0  0  0  0  0  0  0  0  0  0
    8.1030    7.1960   24.2600 N   0  0  0  0  0  0  0  0  0  0  0  0
    7.6330    5.8480   24.5760 C   0  0  0  0  0  0  0  0  0  0  0  0
    6.9970    2.2280   22.9240 N   0  0  0  0  0  0  0  0  0  0  0  0
    5.9100    1.5140   22.3030 C   0  0  0  0  0  0  0  0  0  0  0  0
    6.4440    0.5930   21.2810 C   0  0  0  0  0  0  0  0  0  0  0  0
    5.3860   -0.2440   20.5460 C   0  0  0  0  0  0  0  0  0  0  0  0
    5.1660   -1.4310   21.1890 N   0  0  0  0  0  0  0  0  0  0  0  0
    6.1990   -2.2420   21.7260 C   0  0  0  0  0  0  0  0  0  0  0  0
    6.5390   -2.2450   23.1670 C   0  0  0  0  0  0  0  0  0  0  0  0
    7.3850   -3.0920   22.5710 C   0  0  0  0  0  0  0  0  0  0  0  0
    8.9320   -2.5850   22.0110 Cl  0  0  0  0  0  0  0  0  0  0  0  0
    7.1700   -2.5600   24.3540 N   0  0  0  0  0  0  0  0  0  0  0  0
    6.5590   -3.5290   25.2790 C   0  0  0  0  0  0  0  0  0  0  0  0
    7.4560   -4.1060   26.1000 C   0  0  0  0  0  0  0  0  0  0  0  0
    7.0430   -4.7060   27.3710 C   0  0  0  0  0  0  0  0  0  0  0  0
    7.9220   -5.3060   28.2400 C   0  0  0  0  0  0  0  0  0  0  0  0
    9.2610   -5.3540   27.9170 C   0  0  0  0  0  0  0  0  0  0  0  0
    9.7410   -4.8160   26.7400 C   0  0  0  0  0  0  0  0  0  0  0  0
    8.8460   -4.1840   25.8140 C   0  0  0  0  0  0  0  0  0  0  0  0
    9.3050   -3.6280   24.6220 C   0  0  2  0  0  0  0  0  0  0  0  0
   10.6690   -3.2820   24.6800 C   0  0  0  0  0  0  0  0  0  0  0  0
   11.2620   -2.2960   23.6630 C   0  0  0  0  0  0  0  0  0  0  0  0
   12.7510   -1.9740   23.7930 C   0  0  0  0  0  0  0  0  0  0  0  0
   13.5150   -2.6660   24.9220 C   0  0  0  0  0  0  0  0  0  0  0  0
   12.8690   -3.5380   25.7720 C   0  0  0  0  0  0  0  0  0  0  0  0
   11.5030   -3.8330   25.6600 C   0  0  0  0  0  0  0  0  0  0  0  0
    8.4910   -2.3090   24.5600 C   0  0  0  0  0  0  0  0  0  0  0  0
    7.8390    0.7620   21.2960 C   0  0  0  0  0  0  0  0  0  0  0  0
    8.1810    1.7410   22.2710 C   0  0  0  0  0  0  0  0  0  0  0  0
    9.5370    2.0300   22.4050 C   0  0  0  0  0  0  0  0  0  0  0  0
    9.9480    3.3090   22.1060 C   0  0  0  0  0  0  0  0  0  0  0  0
   11.3160    3.6590   22.2120 C   0  0  0  0  0  0  0  0  0  0  0  0
   12.2560    2.7070   22.6280 C   0  0  0  0  0  0  0  0  0  0  0  0
   11.8460    1.4060   22.9350 C   0  0  0  0  0  0  0  0  0  0  0  0
   10.4920    1.0800   22.8180 C   0  0  0  0  0  0  0  0  0  0  0  0
   10.1150   -0.1640   23.1110 F   0  0  0  0  0  0  0  0  0  0  0  0
  1  2  2  0
  2  3  2  0
  2  4  1  0
  4  5  2  0
  5  6  1  0
  6  7  2  0
  7  8  1  0
  4  9  1  0
  8  9  2  0
  2 10  1  0
 10 11  1  0
 11 12  2  0
 12 13  1  0
 13 14  1  0
 14 15  1  0
 15 16  2  3
 16 17  1  0
 17 18  1  0
 16 19  1  0
 19 20  1  0
 20 21  1  0
 21 22  2  0
 22 23  1  0
 23 24  2  0
 24 25  1  0
 21 26  1  0
 25 26  2  0
 26 27  1  0
 27 28  1  1
 28 29  2  0
 29 30  1  0
 30 31  2  0
 31 32  1  0
 28 33  1  0
 32 33  2  0
 19 34  1  0
 27 34  1  0
 12 35  1  0
 10 36  1  0
 35 36  2  0
 36 37  1  0
 37 38  2  0
 38 39  1  0
 39 40  2  0
 40 41  1  0
 37 42  1  0
 41 42  2  0
 42 43  1  0
M  END
