MAK-UNK-10799360-21-chloroacetamide
     RDKit          3D

 23 26  0  0  0  0  0  0  0  0999 V2000
    7.1110   -2.9830   18.8240 C   0  0  0  0  0  0  0  0  0  0  0  0
    6.1830   -3.3440   19.9730 C   0  0  0  0  0  0  0  0  0  0  0  0
    5.3760   -4.2730   19.8170 O   0  0  0  0  0  0  0  0  0  0  0  0
    6.2910   -2.6170   21.1480 N   0  0  0  0  0  0  0  0  0  0  0  0
    6.6890   -1.2080   21.2120 C   0  0  0  0  0  0  0  0  0  0  0  0
    7.7260   -1.2690   22.3890 C   0  0  1  0  0  0  0  0  0  0  0  0
    6.3050   -1.5130   23.0370 C   0  0  0  0  0  0  0  0  0  0  0  0
    6.1710   -2.9600   22.5620 C   0  0  2  0  0  0  0  0  0  0  0  0
    7.4970   -3.4030   23.2120 C   0  0  0  0  0  0  0  0  0  0  0  0
    7.8890   -2.0370   23.6540 N   0  0  0  0  0  0  0  0  0  0  0  0
    9.0570   -1.9010   24.5770 C   0  0  0  0  0  0  0  0  0  0  0  0
   10.2060   -0.9610   24.1450 C   0  0  0  0  0  0  0  0  0  0  0  0
   10.2370    0.3960   24.4150 C   0  0  0  0  0  0  0  0  0  0  0  0
   11.3370    1.1490   23.9530 C   0  0  0  0  0  0  0  0  0  0  0  0
   12.3500    0.6150   23.2720 C   0  0  0  0  0  0  0  0  0  0  0  0
   12.3490   -0.6930   22.9960 C   0  0  0  0  0  0  0  0  0  0  0  0
   11.2840   -1.4540   23.4400 C   0  0  0  0  0  0  0  0  0  0  0  0
   11.3110   -2.7210   23.1390 C   0  0  0  0  0  0  0  0  0  0  0  0
   11.0700   -2.6260   21.7910 C   0  0  0  0  0  0  0  0  0  0  0  0
    9.6740   -2.9610   21.7270 O   0  0  0  0  0  0  0  0  0  0  0  0
   11.9420   -2.2820   20.8490 N   0  0  0  0  0  0  0  0  0  0  0  0
   13.1740   -2.2370   21.4050 C   0  0  0  0  0  0  0  0  0  0  0  0
   13.3970   -1.2080   22.2910 C   0  0  0  0  0  0  0  0  0  0  0  0
  1  2  1  0
  2  3  2  0
  2  4  1  0
  4  5  1  0
  6  5  1  6
  6  7  1  0
  4  8  1  0
  7  8  1  0
  8  9  1  1
  6 10  1  0
  9 10  1  0
 10 11  1  0
 11 12  1  0
 12 13  2  0
 13 14  1  0
 14 15  2  0
 15 16  1  0
 12 17  1  0
 16 17  2  0
 17 18  1  0
 18 19  1  0
 19 20  2  0
 19 21  1  0
 21 22  1  0
 16 23  1  0
 22 23  1  0
M  END
