MAK-UNK-af83ef51-24-vinylsulfonamide
     RDKit          3D

 31 33  0  0  0  0  0  0  0  0999 V2000
    6.1480   -5.1620   20.3230 C   0  0  0  0  0  0  0  0  0  0  0  0
    6.3350   -5.3770   21.8140 C   0  0  0  0  0  0  0  0  0  0  0  0
    5.6110   -3.9750   22.6430 S   0  0  0  0  0  0  0  0  0  0  0  0
    4.1800   -4.1050   22.5710 O   0  0  0  0  0  0  0  0  0  0  0  0
    6.2260   -2.7840   22.1130 O   0  0  0  0  0  0  0  0  0  0  0  0
    6.0160   -4.1320   24.2760 N   0  0  0  0  0  0  0  0  0  0  0  0
    6.3530   -2.9690   25.0230 C   0  0  0  0  0  0  0  0  0  0  0  0
    7.6620   -2.5090   24.8830 C   0  0  0  0  0  0  0  0  0  0  0  0
    8.6580   -3.5730   24.6050 N   0  0  0  0  0  0  0  0  0  0  0  0
   10.0430   -3.2170   25.0030 C   0  0  0  0  0  0  0  0  0  0  0  0
   10.8110   -2.7980   23.9330 C   0  0  2  0  0  0  0  0  0  0  0  0
   12.0010   -2.1720   24.2570 C   0  0  0  0  0  0  0  0  0  0  0  0
   12.4250   -1.0330   23.3870 C   0  0  1  0  0  0  0  0  0  0  0  0
   13.0090   -1.6000   22.0940 C   0  0  0  0  0  0  0  0  0  0  0  0
   11.4040   -0.1020   23.2460 C   0  0  0  0  0  0  0  0  0  0  0  0
    9.9860   -0.6270   23.0090 C   0  0  1  0  0  0  0  0  0  0  0  0
    9.0580   -0.2460   22.0110 C   0  0  0  0  0  0  0  0  0  0  0  0
    8.2050    0.8930   22.3890 N   0  0  0  0  0  0  0  0  0  0  0  0
    8.5560    2.1680   21.9690 C   0  0  0  0  0  0  0  0  0  0  0  0
    9.3510    2.9110   22.8470 N   0  0  0  0  0  0  0  0  0  0  0  0
    9.8070    2.2320   24.0520 C   0  0  0  0  0  0  0  0  0  0  0  0
   11.2020    2.4330   23.3290 C   0  0  0  0  0  0  0  0  0  0  0  0
   10.1590    3.0070   22.6770 C   0  0  0  0  0  0  0  0  0  0  0  0
    9.9900    2.2120   24.0520 C   0  0  0  0  0  0  0  0  0  0  0  0
    8.5860    2.7230   23.6980 C   0  0  0  0  0  0  0  0  0  0  0  0
    8.0410    3.8370   24.3530 N   0  0  0  0  0  0  0  0  0  0  0  0
    9.1540    1.7450   25.0660 C   0  0  0  0  0  0  0  0  0  0  0  0
    8.4410    2.1760   24.5080 N   0  0  0  0  0  0  0  0  0  0  0  0
   10.1670   -2.1510   22.8500 C   0  0  0  0  0  0  0  0  0  0  0  0
    8.2300   -4.8780   25.1280 C   0  0  0  0  0  0  0  0  0  0  0  0
    6.8310   -5.3040   24.6160 C   0  0  0  0  0  0  0  0  0  0  0  0
  1  2  1  0
  3  2  1  0
  3  4  2  0
  3  5  2  0
  3  6  1  0
  6  7  1  0
  7  8  1  0
  8  9  1  0
  9 10  1  0
 11 10  1  1
 11 12  1  0
 12 13  1  0
 13 14  1  6
 13 15  1  0
 15 16  1  0
 16 17  1  6
 17 18  1  0
 18 19  1  0
 19 20  1  0
 20 21  1  0
 21 22  2  0
 22 23  1  0
 23 24  2  0
 24 25  1  0
 25 26  3  0
 24 27  1  0
 21 28  1  0
 27 28  2  0
 11 29  1  0
 16 29  1  0
  9 30  1  0
  6 31  1  0
 30 31  1  0
M  END
