MAK-UNK-10dfa458-19-acrylamide
     RDKit          3D

 30 32  0  0  0  0  0  0  0  0999 V2000
    8.0970   -3.7010   20.1870 C   0  0  0  0  0  0  0  0  0  0  0  0
    6.7830   -3.0960   19.9260 C   0  0  0  0  0  0  0  0  0  0  0  0
    5.8880   -4.1780   20.4470 C   0  0  0  0  0  0  0  0  0  0  0  0
    5.0660   -4.6440   19.7130 O   0  0  0  0  0  0  0  0  0  0  0  0
    6.0680   -4.6660   21.7370 N   0  0  0  0  0  0  0  0  0  0  0  0
    6.9990   -4.1630   22.7410 C   0  0  0  0  0  0  0  0  0  0  0  0
    6.0410   -3.7670   23.9060 C   0  0  0  0  0  0  0  0  0  0  0  0
    5.3630   -5.0020   24.4420 N   0  0  0  0  0  0  0  0  0  0  0  0
    4.5550   -4.8010   25.6830 C   0  0  0  0  0  0  0  0  0  0  0  0
    3.5700   -3.6150   25.6000 C   0  0  0  0  0  0  0  0  0  0  0  0
    2.1760   -4.1280   25.7790 C   0  0  0  0  0  0  0  0  0  0  0  0
    1.1140   -3.0900   25.7250 C   0  0  0  0  0  0  0  0  0  0  0  0
   -0.3240   -3.5380   25.9000 C   0  0  0  0  0  0  0  0  0  0  0  0
    1.4720   -1.7450   25.5130 C   0  0  0  0  0  0  0  0  0  0  0  0
    2.7760   -1.1970   25.3310 C   0  0  0  0  0  0  0  0  0  0  0  0
    3.5090   -0.3040   25.1420 N   0  0  0  0  0  0  0  0  0  0  0  0
    3.6050    0.5040   23.9750 C   0  0  0  0  0  0  0  0  0  0  0  0
    2.4870    0.6560   23.1330 C   0  0  0  0  0  0  0  0  0  0  0  0
    2.5300    1.4250   21.9550 C   0  0  0  0  0  0  0  0  0  0  0  0
    3.7090    2.0820   21.5790 C   0  0  0  0  0  0  0  0  0  0  0  0
    3.7240    2.8330   20.4030 N   0  0  0  0  0  0  0  0  0  0  0  0
    3.9170    2.2200   19.0930 C   0  0  0  0  0  0  0  0  0  0  0  0
    4.3010    0.8960   19.2580 C   0  0  0  0  0  0  0  0  0  0  0  0
    4.8050    1.9390   22.4220 C   0  0  0  0  0  0  0  0  0  0  0  0
    4.7890    1.1750   23.6060 C   0  0  0  0  0  0  0  0  0  0  0  0
    6.0720    1.1290   24.4220 C   0  0  0  0  0  0  0  0  0  0  0  0
    6.7090    2.2460   24.8080 C   0  0  0  0  0  0  0  0  0  0  0  0
    3.7910   -2.2310   25.3930 C   0  0  0  0  0  0  0  0  0  0  0  0
    4.7520   -5.8710   23.4140 C   0  0  0  0  0  0  0  0  0  0  0  0
    5.5550   -5.9790   22.1050 C   0  0  0  0  0  0  0  0  0  0  0  0
  1  2  1  0
  2  3  1  0
  3  4  2  0
  3  5  1  0
  5  6  1  0
  6  7  1  0
  7  8  1  0
  8  9  1  0
  9 10  1  0
 10 11  2  0
 11 12  1  0
 12 13  1  0
 12 14  2  0
 14 15  1  0
 15 16  1  0
 16 17  1  0
 17 18  2  0
 18 19  1  0
 19 20  2  0
 20 21  1  0
 21 22  1  0
 22 23  1  0
 20 24  1  0
 17 25  1  0
 24 25  2  0
 25 26  1  0
 26 27  2  3
 10 28  1  0
 15 28  2  0
  8 29  1  0
  5 30  1  0
 29 30  1  0
M  END
