MAK-UNK-ec98eaf6-26-chloroacetamide
     RDKit          3D

 27 31  0  0  0  0  0  0  0  0999 V2000
    7.3270   -3.0450   18.9530 C   0  0  0  0  0  0  0  0  0  0  0  0
    6.3280   -3.4330   20.0360 C   0  0  0  0  0  0  0  0  0  0  0  0
    5.3710   -4.1720   19.7690 O   0  0  0  0  0  0  0  0  0  0  0  0
    6.4870   -3.0000   21.3470 N   0  0  0  0  0  0  0  0  0  0  0  0
    6.6970   -3.8900   22.5170 C   0  0  1  0  0  0  0  0  0  0  0  0
    8.1510   -3.5450   22.7360 C   0  0  0  0  0  0  0  0  0  0  0  0
    8.1290   -2.0280   22.8670 C   0  0  2  0  0  0  0  0  0  0  0  0
    9.5310   -1.4180   23.0150 C   0  0  0  0  0  0  0  0  0  0  0  0
   10.5580   -2.4330   23.4600 C   0  0  0  0  0  0  0  0  0  0  0  0
   12.0200   -1.9360   23.6420 C   0  0  0  0  0  0  0  0  0  0  0  0
   12.3810   -0.4470   23.3680 C   0  0  0  0  0  0  0  0  0  0  0  0
   11.2280    0.4970   22.9150 C   0  0  0  0  0  0  0  0  0  0  0  0
    9.8470   -0.0980   22.7730 C   0  0  0  0  0  0  0  0  0  0  0  0
    7.1590   -2.1130   24.0590 C   0  0  0  0  0  0  0  0  0  0  0  0
    7.0000   -1.2750   25.2810 C   0  0  0  0  0  0  0  0  0  0  0  0
    5.9340   -1.6320   26.2700 C   0  0  0  0  0  0  0  0  0  0  0  0
    4.9930   -2.8190   26.0800 C   0  0  0  0  0  0  0  0  0  0  0  0
    5.1800   -3.6580   24.8070 C   0  0  0  0  0  0  0  0  0  0  0  0
    6.2900   -3.2430   23.8340 C   0  0  0  0  0  0  0  0  0  0  0  0
    7.0910   -1.6550   21.7080 C   0  0  1  0  0  0  0  0  0  0  0  0
    7.6330   -0.8150   20.5950 C   0  0  0  0  0  0  0  0  0  0  0  0
    6.6880    0.1810   19.9930 C   0  0  0  0  0  0  0  0  0  0  0  0
    6.1070   -0.0660   18.6440 C   0  0  0  0  0  0  0  0  0  0  0  0
    5.2280    0.8760   18.1200 C   0  0  0  0  0  0  0  0  0  0  0  0
    4.9400    1.9980   18.8800 C   0  0  0  0  0  0  0  0  0  0  0  0
    5.4540    2.2540   20.1130 N   0  0  0  0  0  0  0  0  0  0  0  0
    6.3090    1.3490   20.6380 C   0  0  0  0  0  0  0  0  0  0  0  0
  1  2  1  0
  2  3  2  0
  2  4  1  0
  5  4  1  6
  5  6  1  0
  6  7  1  0
  7  8  1  1
  8  9  2  0
  9 10  1  0
 10 11  2  0
 11 12  1  0
  8 13  1  0
 12 13  2  0
  7 14  1  0
 14 15  1  0
 15 16  2  0
 16 17  1  0
 17 18  2  0
  5 19  1  0
 14 19  2  0
 18 19  1  0
  4 20  1  0
  7 20  1  0
 20 21  1  6
 21 22  1  0
 22 23  2  0
 23 24  1  0
 24 25  2  0
 25 26  1  0
 22 27  1  0
 26 27  2  0
M  END
