MAK-UNK-af83ef51-27-acrylamide
     RDKit          3D

 29 31  0  0  0  0  0  0  0  0999 V2000
    7.9930   -3.4030   19.7080 C   0  0  0  0  0  0  0  0  0  0  0  0
    6.8860   -2.6590   19.0680 C   0  0  0  0  0  0  0  0  0  0  0  0
    5.8620   -3.0510   20.0430 C   0  0  0  0  0  0  0  0  0  0  0  0
    5.0450   -3.9160   19.7370 O   0  0  0  0  0  0  0  0  0  0  0  0
    6.0620   -2.3900   21.2440 N   0  0  0  0  0  0  0  0  0  0  0  0
    6.1370   -3.0130   22.5100 C   0  0  0  0  0  0  0  0  0  0  0  0
    7.3860   -3.2840   23.1020 C   0  0  0  0  0  0  0  0  0  0  0  0
    8.2660   -2.0850   23.1970 N   0  0  0  0  0  0  0  0  0  0  0  0
    9.6360   -2.3920   23.6730 C   0  0  0  0  0  0  0  0  0  0  0  0
   10.4870   -1.2920   23.6650 C   0  0  0  0  0  0  0  0  0  0  0  0
    9.8920    0.0750   23.6810 C   0  0  0  0  0  0  0  0  0  0  0  0
   10.8640    1.2390   23.6470 C   0  0  0  0  0  0  0  0  0  0  0  0
   10.2700    2.6310   23.6490 C   0  0  0  0  0  0  0  0  0  0  0  0
   11.1130    3.7810   23.9950 N   0  0  0  0  0  0  0  0  0  0  0  0
   12.1100    4.1680   23.0100 C   0  0  0  0  0  0  0  0  0  0  0  0
   11.8560    3.9970   21.6840 C   0  0  0  0  0  0  0  0  0  0  0  0
   12.7330    4.3280   20.6470 C   0  0  0  0  0  0  0  0  0  0  0  0
   14.0530    4.9020   20.9280 C   0  0  0  0  0  0  0  0  0  0  0  0
   14.9440    5.2240   19.9680 N   0  0  0  0  0  0  0  0  0  0  0  0
   15.1900    4.3070   18.9360 C   0  0  0  0  0  0  0  0  0  0  0  0
   15.8890    3.1890   19.5550 C   0  0  0  0  0  0  0  0  0  0  0  0
   14.2960    5.0770   22.3490 N   0  0  0  0  0  0  0  0  0  0  0  0
   13.3530    4.7220   23.2770 C   0  0  0  0  0  0  0  0  0  0  0  0
   12.2100    0.9510   23.6070 C   0  0  0  0  0  0  0  0  0  0  0  0
   12.7570   -0.3030   23.6050 N   0  0  0  0  0  0  0  0  0  0  0  0
   11.8850   -1.3700   23.6370 C   0  0  0  0  0  0  0  0  0  0  0  0
   12.6330   -2.6960   23.6410 C   0  0  0  0  0  0  0  0  0  0  0  0
    8.3440   -1.4830   21.8560 C   0  0  0  0  0  0  0  0  0  0  0  0
    6.9730   -1.2200   21.1840 C   0  0  0  0  0  0  0  0  0  0  0  0
  1  2  1  0
  2  3  1  0
  3  4  2  0
  3  5  1  0
  5  6  1  0
  6  7  1  0
  7  8  1  0
  8  9  1  0
  9 10  1  0
 10 11  2  0
 11 12  1  0
 12 13  1  0
 13 14  1  0
 14 15  1  0
 15 16  2  0
 16 17  1  0
 17 18  2  0
 18 19  1  0
 19 20  1  0
 20 21  1  0
 18 22  1  0
 15 23  1  0
 22 23  2  0
 12 24  2  0
 24 25  1  0
 10 26  1  0
 25 26  2  0
 26 27  1  0
  8 28  1  0
  5 29  1  0
 28 29  1  0
M  END
