MAK-UNK-8fdbca50-17-acrylamide
     RDKit          3D

 40 43  0  0  0  0  0  0  0  0999 V2000
    7.4770   -3.0810   19.0300 C   0  0  0  0  0  0  0  0  0  0  0  0
    7.0110   -3.1550   20.5100 C   0  0  0  0  0  0  0  0  0  0  0  0
    5.5790   -2.6900   20.8060 C   0  0  0  0  0  0  0  0  0  0  0  0
    5.1790   -3.6930   20.2020 O   0  0  0  0  0  0  0  0  0  0  0  0
    6.3170   -1.6780   21.4240 N   0  0  0  0  0  0  0  0  0  0  0  0
    6.0520   -1.2360   22.7120 C   0  0  0  0  0  0  0  0  0  0  0  0
    6.9300   -1.7950   23.8350 C   0  0  0  0  0  0  0  0  0  0  0  0
    8.0140   -2.5790   23.1100 C   0  0  0  0  0  0  0  0  0  0  0  0
    8.9110   -3.1960   24.1920 C   0  0  0  0  0  0  0  0  0  0  0  0
    9.2630   -2.4600   25.1060 O   0  0  0  0  0  0  0  0  0  0  0  0
    9.3020   -4.4640   24.1510 N   0  0  0  0  0  0  0  0  0  0  0  0
   10.0590   -4.8790   25.2190 C   0  0  0  0  0  0  0  0  0  0  0  0
   10.5000   -4.1580   26.3310 C   0  0  0  0  0  0  0  0  0  0  0  0
    9.4310   -5.1680   26.5600 C   0  0  0  0  0  0  0  0  0  0  0  0
    8.4150   -5.3850   23.8430 C   0  0  1  0  0  0  0  0  0  0  0  0
    8.0090   -5.8870   22.6010 C   0  0  0  0  0  0  0  0  0  0  0  0
    9.0940   -6.7590   23.5390 C   0  0  0  0  0  0  0  0  0  0  0  0
    9.5990   -7.5830   22.4690 C   0  0  0  0  0  0  0  0  0  0  0  0
    8.8200   -8.4600   22.0530 C   0  0  0  0  0  0  0  0  0  0  0  0
    9.6260   -8.9770   21.1070 C   0  0  0  0  0  0  0  0  0  0  0  0
    9.6870   -9.8460   20.1870 C   0  0  0  0  0  0  0  0  0  0  0  0
    9.0950   -9.3270   21.6220 C   0  0  0  0  0  0  0  0  0  0  0  0
    8.1710  -10.1050   22.3080 C   0  0  0  0  0  0  0  0  0  0  0  0
    7.8140  -11.3030   21.7200 C   0  0  0  0  0  0  0  0  0  0  0  0
    8.2790  -11.7700   20.5890 C   0  0  0  0  0  0  0  0  0  0  0  0
    9.1490  -11.1750   19.8060 C   0  0  0  0  0  0  0  0  0  0  0  0
    9.3520  -11.8740   18.7850 F   0  0  0  0  0  0  0  0  0  0  0  0
   10.4360   -8.8550   20.8280 N   0  0  0  0  0  0  0  0  0  0  0  0
   10.4950  -10.0890   19.6280 S   0  0  0  0  0  0  0  0  0  0  0  0
   11.2030   -9.4500   19.2540 O   0  0  0  0  0  0  0  0  0  0  0  0
    9.3530  -10.3380   18.8410 O   0  0  0  0  0  0  0  0  0  0  0  0
   11.3700  -11.6530   19.8210 C   0  0  0  0  0  0  0  0  0  0  0  0
   13.1690  -12.4750   19.8130 C   0  0  0  0  0  0  0  0  0  0  0  0
   13.1410  -13.8760   19.9720 C   0  0  0  0  0  0  0  0  0  0  0  0
   11.9210  -14.3150   20.1480 C   0  0  0  0  0  0  0  0  0  0  0  0
   10.7030  -13.6930   20.1510 N   0  0  0  0  0  0  0  0  0  0  0  0
   10.3620  -12.5090   19.9860 C   0  0  0  0  0  0  0  0  0  0  0  0
   10.7430   -7.9720   21.5320 C   0  0  0  0  0  0  0  0  0  0  0  0
    8.6990   -1.7760   21.9930 C   0  0  0  0  0  0  0  0  0  0  0  0
    7.6610   -1.2540   21.0030 C   0  0  0  0  0  0  0  0  0  0  0  0
  1  2  1  0
  2  3  1  0
  3  4  2  0
  3  5  1  0
  5  6  1  0
  6  7  1  0
  7  8  1  0
  8  9  1  0
  9 10  2  0
  9 11  1  0
 11 12  1  0
 12 13  1  0
 12 14  1  0
 11 15  1  0
 15 16  1  6
 15 17  1  0
 17 18  1  0
 18 19  1  0
 19 20  2  0
 20 21  1  0
 21 22  2  0
 22 23  1  0
 23 24  2  0
 24 25  1  0
 21 26  1  0
 25 26  2  0
 26 27  1  0
 20 28  1  0
 28 29  1  0
 29 30  2  0
 29 31  2  0
 29 32  1  0
 32 33  2  0
 33 34  1  0
 34 35  2  0
 35 36  1  0
 32 37  1  0
 36 37  2  0
 18 38  2  0
 28 38  1  0
  8 39  1  0
  5 40  1  0
 39 40  1  0
M  END
