MAK-UNK-5d2caa6f-5-nitrile
     RDKit          3D

 22 25  0  0  0  0  0  0  0  0999 V2000
    6.7110   -3.7910   19.9310 C   0  0  0  0  0  0  0  0  0  0  0  0
    5.8780   -4.7580   19.9730 N   0  0  0  0  0  0  0  0  0  0  0  0
    6.6560   -2.8440   20.9350 N   0  0  0  0  0  0  0  0  0  0  0  0
    7.5620   -1.7280   21.1160 C   0  0  0  0  0  0  0  0  0  0  0  0
    8.4690   -2.5370   22.0580 C   0  0  2  0  0  0  0  0  0  0  0  0
    7.6240   -3.7900   22.3230 C   0  0  0  0  0  0  0  0  0  0  0  0
    6.2410   -3.1240   22.3470 C   0  0  1  0  0  0  0  0  0  0  0  0
    7.0900   -3.1260   23.6640 C   0  0  0  0  0  0  0  0  0  0  0  0
    8.2870   -2.2050   23.4390 N   0  0  0  0  0  0  0  0  0  0  0  0
    9.5240   -2.7360   23.9920 C   0  0  1  0  0  0  0  0  0  0  0  0
   10.6050   -1.6310   23.7370 C   0  0  0  0  0  0  0  0  0  0  0  0
   10.5300   -0.2240   24.3700 C   0  0  0  0  0  0  0  0  0  0  0  0
   11.6310    0.7890   24.0400 C   0  0  0  0  0  0  0  0  0  0  0  0
   12.7780    0.4100   23.1080 C   0  0  0  0  0  0  0  0  0  0  0  0
   12.8440   -0.9820   22.4850 C   0  0  0  0  0  0  0  0  0  0  0  0
   11.7610   -2.0100   22.7920 C   0  0  0  0  0  0  0  0  0  0  0  0
    9.3840   -3.4420   25.4090 C   0  0  0  0  0  0  0  0  0  0  0  0
    8.9760   -4.9200   25.3160 C   0  0  0  0  0  0  0  0  0  0  0  0
    8.8970   -5.4970   26.7670 C   0  0  0  0  0  0  0  0  0  0  0  0
    9.2750   -4.5180   27.7380 O   0  0  0  0  0  0  0  0  0  0  0  0
    8.4870   -3.3300   27.6720 C   0  0  0  0  0  0  0  0  0  0  0  0
    8.5590   -2.7070   26.2920 C   0  0  0  0  0  0  0  0  0  0  0  0
  1  2  2  3
  1  3  1  0
  3  4  1  0
  5  4  1  6
  5  6  1  0
  3  7  1  0
  6  7  1  0
  7  8  1  1
  5  9  1  0
  8  9  1  0
  9 10  1  0
 10 11  1  1
 11 12  2  0
 12 13  1  0
 13 14  2  0
 14 15  1  0
 11 16  1  0
 15 16  2  0
 10 17  1  0
 17 18  1  0
 18 19  1  0
 19 20  1  0
 20 21  1  0
 17 22  1  0
 21 22  1  0
M  END
