MAK-UNK-af83ef51-23-nitrile
     RDKit          3D

 28 30  0  0  0  0  0  0  0  0999 V2000
    6.6770   -4.8970   20.6150 C   0  0  0  0  0  0  0  0  0  0  0  0
    5.6500   -5.4580   20.0950 N   0  0  0  0  0  0  0  0  0  0  0  0
    6.8810   -4.4600   21.9190 N   0  0  0  0  0  0  0  0  0  0  0  0
    6.4150   -3.2930   22.5450 C   0  0  0  0  0  0  0  0  0  0  0  0
    6.7150   -2.9960   23.8850 C   0  0  0  0  0  0  0  0  0  0  0  0
    8.1130   -3.2360   24.3100 N   0  0  0  0  0  0  0  0  0  0  0  0
    8.9680   -2.0210   24.2990 C   0  0  0  0  0  0  0  0  0  0  0  0
   10.3490   -2.2540   24.1320 C   0  0  2  0  0  0  0  0  0  0  0  0
   11.1680   -1.3310   24.7820 C   0  0  0  0  0  0  0  0  0  0  0  0
   12.5420   -1.3340   24.5120 C   0  0  1  0  0  0  0  0  0  0  0  0
   13.2530   -2.5710   25.0020 C   0  0  0  0  0  0  0  0  0  0  0  0
   12.6910   -1.1490   23.1400 C   0  0  0  0  0  0  0  0  0  0  0  0
   11.4010   -1.0400   22.3960 C   0  0  1  0  0  0  0  0  0  0  0  0
   10.5740   -0.8700   21.6210 N   0  0  0  0  0  0  0  0  0  0  0  0
    9.4600   -0.1270   22.0010 C   0  0  0  0  0  0  0  0  0  0  0  0
    9.5870    1.1430   22.6130 C   0  0  0  0  0  0  0  0  0  0  0  0
   10.7730    1.5830   23.1600 N   0  0  0  0  0  0  0  0  0  0  0  0
   11.0700    3.0050   23.1860 C   0  0  0  0  0  0  0  0  0  0  0  0
   12.6070    3.1900   22.8150 C   0  0  0  0  0  0  0  0  0  0  0  0
   11.5100    2.3740   23.0360 C   0  0  0  0  0  0  0  0  0  0  0  0
   11.4580    3.9920   23.1510 C   0  0  0  0  0  0  0  0  0  0  0  0
   12.8310    4.5540   22.8410 C   0  0  0  0  0  0  0  0  0  0  0  0
   12.9660    5.6360   22.0140 N   0  0  0  0  0  0  0  0  0  0  0  0
   10.4420    4.9290   23.4670 C   0  0  0  0  0  0  0  0  0  0  0  0
   10.0150    3.7590   23.5000 N   0  0  0  0  0  0  0  0  0  0  0  0
   10.8560   -2.3880   22.8420 C   0  0  0  0  0  0  0  0  0  0  0  0
    8.7060   -4.3630   23.5750 C   0  0  0  0  0  0  0  0  0  0  0  0
    7.6560   -5.2660   22.8860 C   0  0  0  0  0  0  0  0  0  0  0  0
  1  2  2  3
  1  3  1  0
  3  4  1  0
  4  5  1  0
  5  6  1  0
  6  7  1  0
  8  7  1  6
  8  9  1  0
  9 10  1  0
 10 11  1  6
 10 12  1  0
 12 13  1  0
 13 14  1  6
 14 15  1  0
 15 16  1  0
 16 17  1  0
 17 18  1  0
 18 19  2  0
 19 20  1  0
 20 21  2  0
 21 22  1  0
 22 23  3  0
 21 24  1  0
 18 25  1  0
 24 25  2  0
  8 26  1  0
 13 26  1  0
  6 27  1  0
  3 28  1  0
 27 28  1  0
M  END
