MAK-UNK-f983951f-17-vinylsulfonamide
     RDKit          3D

 12 12  0  0  0  0  0  0  0  0999 V2000
    6.3930   -3.9410   20.5610 C   0  0  0  0  0  0  0  0  0  0  0  0
    6.7340   -3.8200   22.0830 C   0  0  0  0  0  0  0  0  0  0  0  0
    5.3140   -4.2790   23.1060 S   0  0  0  0  0  0  0  0  0  0  0  0
    4.4460   -5.0600   22.2700 O   0  0  0  0  0  0  0  0  0  0  0  0
    5.8260   -4.8630   24.3290 O   0  0  0  0  0  0  0  0  0  0  0  0
    4.4840   -2.8420   23.5650 N   0  0  0  0  0  0  0  0  0  0  0  0
    3.9440   -2.6490   24.9370 C   0  0  0  0  0  0  0  0  0  0  0  0
    4.7690   -1.7930   25.6810 C   0  0  0  0  0  0  0  0  0  0  0  0
    5.5540   -0.9660   26.4290 N   0  0  0  0  0  0  0  0  0  0  0  0
    3.6890   -3.9690   25.6530 C   0  0  0  0  0  0  0  0  0  0  0  0
    2.3620   -3.7750   25.7470 C   0  0  0  0  0  0  0  0  0  0  0  0
    2.3660   -2.4440   25.2440 C   0  0  0  0  0  0  0  0  0  0  0  0
  1  2  1  0
  2  3  1  0
  3  4  2  0
  3  5  2  0
  3  6  1  0
  6  7  1  0
  7  8  1  0
  8  9  3  0
  7 10  1  0
 10 11  1  0
  7 12  1  0
 11 12  1  0
M  END
