MAK-UNK-60abb798-6
     RDKit          3D

 22 24  0  0  0  0  0  0  0  0999 V2000
    6.6070   -2.5180   19.5720 C   0  0  0  0  0  0  0  0  0  0  0  0
    5.9990   -3.5900   20.3270 N   0  0  0  0  0  0  0  0  0  0  0  0
    6.3060   -3.9740   21.7150 C   0  0  1  0  0  0  0  0  0  0  0  0
    5.7390   -5.3760   22.0030 C   0  0  0  0  0  0  0  0  0  0  0  0
    6.7230   -6.2860   22.7130 C   0  0  0  0  0  0  0  0  0  0  0  0
    7.6040   -5.4980   23.6050 C   0  0  0  0  0  0  0  0  0  0  0  0
    8.2880   -4.3900   23.1670 C   0  0  2  0  0  0  0  0  0  0  0  0
    8.7880   -3.5180   24.1140 C   0  0  2  0  0  0  0  0  0  0  0  0
    9.2800   -2.2180   23.7260 C   0  0  0  0  0  0  0  0  0  0  0  0
   10.7330   -1.9240   23.9360 C   0  0  0  0  0  0  0  0  0  0  0  0
   11.2580   -2.8050   24.9810 C   0  0  0  0  0  0  0  0  0  0  0  0
   12.5270   -2.7490   25.2930 C   0  0  0  0  0  0  0  0  0  0  0  0
   13.3820   -1.8900   24.6980 C   0  0  0  0  0  0  0  0  0  0  0  0
   12.9190   -1.0030   23.7110 C   0  0  0  0  0  0  0  0  0  0  0  0
   13.7550   -0.1220   23.0970 O   0  0  0  0  0  0  0  0  0  0  0  0
   11.5860   -1.0100   23.3170 C   0  0  0  0  0  0  0  0  0  0  0  0
   11.1980   -0.1330   22.3440 O   0  0  0  0  0  0  0  0  0  0  0  0
   10.3590   -3.6310   25.5490 C   0  0  2  0  0  0  0  0  0  0  0  0
   10.9780   -4.6010   26.2030 C   0  0  0  0  0  0  0  0  0  0  0  0
   12.3040   -4.3930   26.3760 N   0  0  0  0  0  0  0  0  0  0  0  0
    9.7050   -4.2130   24.5540 O   0  0  0  0  0  0  0  0  0  0  0  0
    7.6730   -3.6990   21.9260 C   0  0  0  0  0  0  0  0  0  0  0  0
  1  2  1  0
  3  2  1  6
  3  4  1  0
  4  5  1  0
  5  6  1  0
  7  6  1  1
  7  8  1  0
  8  9  1  6
  9 10  1  0
 10 11  2  0
 11 12  1  0
 12 13  2  0
 13 14  1  0
 14 15  1  0
 10 16  1  0
 14 16  2  0
 16 17  1  0
 11 18  1  0
 18 19  1  6
 19 20  1  0
  8 21  1  0
 18 21  1  0
  3 22  1  0
  7 22  1  0
M  END
