MAK-UNK-6ca90168-27-chloroacetamide
     RDKit          3D

 11 11  0  0  0  0  0  0  0  0999 V2000
    6.7160   -3.0340   19.1150 C   0  0  0  0  0  0  0  0  0  0  0  0
    5.7680   -3.2790   20.3640 C   0  0  0  0  0  0  0  0  0  0  0  0
    5.6090   -4.3920   19.8490 O   0  0  0  0  0  0  0  0  0  0  0  0
    6.1080   -1.9210   20.7660 N   0  0  0  0  0  0  0  0  0  0  0  0
    6.9690   -0.8700   20.1740 C   0  0  0  0  0  0  0  0  0  0  0  0
    8.2300   -0.8570   20.9380 C   0  0  0  0  0  0  0  0  0  0  0  0
    7.1430   -1.7520   21.3420 N   0  0  0  0  0  0  0  0  0  0  0  0
    5.8710   -1.7320   20.5770 C   0  0  0  0  0  0  0  0  0  0  0  0
    5.5060   -0.9280   19.4260 C   0  0  0  0  0  0  0  0  0  0  0  0
    6.6010   -0.1060   19.1190 C   0  0  0  0  0  0  0  0  0  0  0  0
    5.6780    0.2640   18.1610 C   0  0  0  0  0  0  0  0  0  0  0  0
  1  2  1  0
  2  3  2  0
  2  4  1  0
  4  5  1  0
  5  6  2  0
  6  7  1  0
  7  8  2  0
  8  9  1  0
  5 10  1  0
  9 10  2  0
 10 11  1  0
M  END
