MAK-UNK-849bee6c-17-nitrile
     RDKit          3D

 24 26  0  0  0  0  0  0  0  0999 V2000
    6.8700   -3.6510   19.8610 C   0  0  0  0  0  0  0  0  0  0  0  0
    6.2600   -3.1120   18.8660 N   0  0  0  0  0  0  0  0  0  0  0  0
    7.0580   -2.9720   21.0600 N   0  0  0  0  0  0  0  0  0  0  0  0
    6.1450   -3.1570   22.2020 C   0  0  0  0  0  0  0  0  0  0  0  0
    7.4610   -3.4640   22.7270 C   0  0  0  0  0  0  0  0  0  0  0  0
    8.3190   -2.3300   23.0920 N   0  0  0  0  0  0  0  0  0  0  0  0
    9.5730   -2.6390   23.6170 C   0  0  0  0  0  0  0  0  0  0  0  0
   10.5190   -1.4460   23.5370 C   0  0  0  0  0  0  0  0  0  0  0  0
   11.9600   -1.5410   23.0980 C   0  0  0  0  0  0  0  0  0  0  0  0
   12.7930   -0.2770   23.0430 C   0  0  0  0  0  0  0  0  0  0  0  0
   12.2100    0.9600   23.4000 C   0  0  0  0  0  0  0  0  0  0  0  0
   10.8430    0.9650   23.8050 C   0  0  0  0  0  0  0  0  0  0  0  0
    9.8270    2.3270   24.3040 S   0  0  0  0  0  0  0  0  0  0  0  0
   10.3690    3.8900   23.6960 C   0  0  0  0  0  0  0  0  0  0  0  0
    9.6220    5.0130   23.9320 C   0  0  0  0  0  0  0  0  0  0  0  0
   10.2880    6.0160   23.3680 C   0  0  0  0  0  0  0  0  0  0  0  0
   11.1780    6.3270   22.7960 N   0  0  0  0  0  0  0  0  0  0  0  0
   11.8350    5.1400   22.6130 C   0  0  0  0  0  0  0  0  0  0  0  0
   13.0030    5.2040   21.9090 C   0  0  0  0  0  0  0  0  0  0  0  0
   13.9740    5.1850   21.3370 N   0  0  0  0  0  0  0  0  0  0  0  0
   11.5210    4.0330   22.9930 N   0  0  0  0  0  0  0  0  0  0  0  0
   10.0620   -0.1900   23.8650 C   0  0  0  0  0  0  0  0  0  0  0  0
    8.4660   -1.3780   21.9650 C   0  0  0  0  0  0  0  0  0  0  0  0
    7.5370   -1.5940   20.9700 C   0  0  0  0  0  0  0  0  0  0  0  0
  1  2  2  3
  1  3  1  0
  3  4  1  0
  4  5  1  0
  5  6  1  0
  6  7  1  0
  7  8  1  0
  8  9  2  0
  9 10  1  0
 10 11  2  0
 11 12  1  0
 12 13  1  0
 13 14  1  0
 14 15  2  0
 15 16  1  0
 16 17  2  0
 17 18  1  0
 18 19  1  0
 19 20  3  0
 14 21  1  0
 18 21  2  0
  8 22  1  0
 12 22  2  0
  6 23  1  0
  3 24  1  0
 23 24  1  0
M  END
