MAK-UNK-ec98eaf6-35-vinylsulfonamide
     RDKit          3D

 27 30  0  0  0  0  0  0  0  0999 V2000
    6.8310   -3.2550   19.2460 C   0  0  0  0  0  0  0  0  0  0  0  0
    7.1370   -2.2670   20.3720 C   0  0  0  0  0  0  0  0  0  0  0  0
    5.8370   -2.2050   21.5970 S   0  0  0  0  0  0  0  0  0  0  0  0
    4.9350   -3.3120   21.3800 O   0  0  0  0  0  0  0  0  0  0  0  0
    5.3750   -0.8420   21.7160 O   0  0  0  0  0  0  0  0  0  0  0  0
    6.7390   -2.6150   22.9520 N   0  0  0  0  0  0  0  0  0  0  0  0
    6.3450   -2.4180   24.3340 C   0  0  0  0  0  0  0  0  0  0  0  0
    7.4660   -3.2350   25.0400 C   0  0  2  0  0  0  0  0  0  0  0  0
    8.0710   -1.8940   24.5590 C   0  0  0  0  0  0  0  0  0  0  0  0
    8.0600   -2.1020   23.0330 C   0  0  1  0  0  0  0  0  0  0  0  0
    8.9500   -3.2950   23.0250 C   0  0  0  0  0  0  0  0  0  0  0  0
    8.8770   -3.7210   24.5120 C   0  0  1  0  0  0  0  0  0  0  0  0
   10.1340   -3.3310   25.2960 C   0  0  0  0  0  0  0  0  0  0  0  0
   10.8610   -2.1790   24.6330 C   0  0  0  0  0  0  0  0  0  0  0  0
   10.7740   -0.8920   25.1140 C   0  0  0  0  0  0  0  0  0  0  0  0
   11.4170    0.1620   24.5480 C   0  0  0  0  0  0  0  0  0  0  0  0
   12.1820    0.0170   23.4860 C   0  0  0  0  0  0  0  0  0  0  0  0
   12.7740    1.1360   23.0610 C   0  0  0  0  0  0  0  0  0  0  0  0
   13.4990    0.9960   21.9770 C   0  0  0  0  0  0  0  0  0  0  0  0
   13.5620   -0.2470   21.3850 C   0  0  0  0  0  0  0  0  0  0  0  0
   14.3890   -0.4360   19.7630 S   0  0  0  0  0  0  0  0  0  0  0  0
   14.0280   -1.9210   20.4660 N   0  0  0  0  0  0  0  0  0  0  0  0
   15.4910    0.5500   19.6430 O   0  0  0  0  0  0  0  0  0  0  0  0
   13.8360   -0.2950   18.5570 O   0  0  0  0  0  0  0  0  0  0  0  0
   13.0270   -1.5580   21.7330 C   0  0  0  0  0  0  0  0  0  0  0  0
   12.3230   -1.2220   22.8860 C   0  0  0  0  0  0  0  0  0  0  0  0
   11.6590   -2.3090   23.4870 C   0  0  0  0  0  0  0  0  0  0  0  0
  1  2  1  0
  3  2  1  0
  3  4  2  0
  3  5  2  0
  3  6  1  0
  6  7  1  0
  8  7  1  6
  8  9  1  0
  6 10  1  0
  9 10  1  0
 10 11  1  1
  8 12  1  0
 11 12  1  0
 12 13  1  1
 13 14  1  0
 14 15  2  0
 15 16  1  0
 16 17  2  0
 17 18  1  0
 18 19  2  0
 19 20  1  0
 20 21  1  0
 21 22  1  0
 21 23  2  0
 21 24  2  0
 20 25  2  0
 17 26  1  0
 25 26  1  0
 14 27  1  0
 26 27  2  0
M  END
