MAK-UNK-0d6072ac-4
     RDKit          3D

 19 21  0  0  0  0  0  0  0  0999 V2000
    7.5550   -6.1630   22.9230 C   0  0  0  0  0  0  0  0  0  0  0  0
    6.9840   -4.8480   23.3460 C   0  0  2  0  0  0  0  0  0  0  0  0
    5.7710   -4.3810   22.5370 C   0  0  0  0  0  0  0  0  0  0  0  0
    4.3900   -4.3850   22.1960 O   0  0  0  0  0  0  0  0  0  0  0  0
    5.3280   -5.3240   23.4090 O   0  0  0  0  0  0  0  0  0  0  0  0
    8.0870   -3.8060   23.2870 C   0  0  0  0  0  0  0  0  0  0  0  0
    9.3950   -4.0020   24.0160 C   0  0  0  0  0  0  0  0  0  0  0  0
   10.4650   -3.0780   24.0050 C   0  0  0  0  0  0  0  0  0  0  0  0
   10.4730   -1.8350   23.3100 C   0  0  0  0  0  0  0  0  0  0  0  0
    9.1070   -1.6590   22.5660 C   0  0  0  0  0  0  0  0  0  0  0  0
    7.9610   -2.6200   22.5640 C   0  0  0  0  0  0  0  0  0  0  0  0
    9.4230   -0.4210   22.0200 N   0  0  0  0  0  0  0  0  0  0  0  0
   10.3890   -0.9830   22.7910 C   0  0  0  0  0  0  0  0  0  0  0  0
   10.1260   -2.3640   23.4480 C   0  0  0  0  0  0  0  0  0  0  0  0
   11.1410   -2.9510   24.2680 C   0  0  0  0  0  0  0  0  0  0  0  0
   12.3530   -2.3170   24.4850 C   0  0  0  0  0  0  0  0  0  0  0  0
   13.5600   -3.0210   25.4700 Cl  0  0  0  0  0  0  0  0  0  0  0  0
   12.5580   -1.1150   23.8930 C   0  0  0  0  0  0  0  0  0  0  0  0
   11.4920   -0.6630   23.1310 C   0  0  0  0  0  0  0  0  0  0  0  0
  2  1  1  6
  2  3  1  0
  3  4  2  0
  3  5  1  0
  2  6  1  0
  6  7  2  0
  7  8  1  0
  8  9  2  0
  9 10  1  0
  6 11  1  0
 10 11  2  0
 10 12  1  0
 12 13  1  0
 13 14  1  0
 14 15  2  0
 15 16  1  0
 16 17  1  0
 16 18  2  0
  9 19  1  0
 13 19  2  0
 18 19  1  0
M  END
