MAK-UNK-af83ef51-25-nitrile
     RDKit          3D

 29 31  0  0  0  0  0  0  0  0999 V2000
    6.5690   -3.1850   19.7250 C   0  0  0  0  0  0  0  0  0  0  0  0
    5.6190   -3.0790   18.9040 N   0  0  0  0  0  0  0  0  0  0  0  0
    6.5970   -2.6740   20.9110 N   0  0  0  0  0  0  0  0  0  0  0  0
    7.1880   -1.4310   21.2300 C   0  0  0  0  0  0  0  0  0  0  0  0
    8.2210   -1.3810   22.1470 C   0  0  0  0  0  0  0  0  0  0  0  0
    7.9860   -2.1060   23.4110 N   0  0  0  0  0  0  0  0  0  0  0  0
    9.2190   -2.5440   24.0100 C   0  0  0  0  0  0  0  0  0  0  0  0
   10.2780   -2.1270   23.2710 C   0  0  1  0  0  0  0  0  0  0  0  0
   10.4160   -0.9400   23.4190 O   0  0  0  0  0  0  0  0  0  0  0  0
   11.7500   -0.7000   23.8280 C   0  0  1  0  0  0  0  0  0  0  0  0
   11.8450   -0.6210   25.1550 C   0  0  0  0  0  0  0  0  0  0  0  0
   12.4650   -1.7680   22.9820 C   0  0  1  0  0  0  0  0  0  0  0  0
   13.6620   -1.8350   23.1720 O   0  0  0  0  0  0  0  0  0  0  0  0
   13.8320   -0.4970   22.9800 C   0  0  0  0  0  0  0  0  0  0  0  0
   12.7650    0.3310   23.4140 C   0  0  0  0  0  0  0  0  0  0  0  0
   11.5600    0.6260   22.4780 C   0  0  0  0  0  0  0  0  0  0  0  0
   10.7060    0.7440   23.7850 N   0  0  0  0  0  0  0  0  0  0  0  0
   11.3360    1.7710   23.6770 C   0  0  0  0  0  0  0  0  0  0  0  0
   11.7880    1.2460   23.5550 C   0  0  0  0  0  0  0  0  0  0  0  0
   13.0210    2.3020   23.2500 C   0  0  0  0  0  0  0  0  0  0  0  0
   12.0360    3.7320   22.9860 C   0  0  0  0  0  0  0  0  0  0  0  0
   12.8420    4.8260   22.4690 C   0  0  0  0  0  0  0  0  0  0  0  0
   12.5790    5.2890   21.2750 N   0  0  0  0  0  0  0  0  0  0  0  0
   10.5600    3.9290   23.2030 C   0  0  0  0  0  0  0  0  0  0  0  0
   10.3240    2.9430   23.9500 N   0  0  0  0  0  0  0  0  0  0  0  0
   11.5060   -2.8410   23.1530 C   0  0  2  0  0  0  0  0  0  0  0  0
   11.5800   -3.4710   22.1100 O   0  0  0  0  0  0  0  0  0  0  0  0
    7.0120   -3.2150   23.3200 C   0  0  0  0  0  0  0  0  0  0  0  0
    6.0920   -3.3000   22.1500 C   0  0  0  0  0  0  0  0  0  0  0  0
  1  2  2  3
  1  3  1  0
  3  4  1  0
  4  5  1  0
  5  6  1  0
  6  7  1  0
  8  7  1  1
  8  9  1  0
  9 10  1  0
 10 11  1  1
 10 12  1  0
 12 13  1  1
 13 14  1  0
 14 15  1  0
 15 16  1  0
 16 17  1  0
 17 18  1  0
 18 19  2  0
 19 20  1  0
 20 21  2  0
 21 22  1  0
 22 23  3  0
 21 24  1  0
 18 25  1  0
 24 25  2  0
  8 26  1  0
 12 26  1  0
 26 27  1  6
  6 28  1  0
  3 29  1  0
 28 29  1  0
M  END
