MAK-UNK-72659d64-18-acrylamide
     RDKit          3D

 26 26  0  0  0  0  0  0  0  0999 V2000
    7.4490   -3.2110   19.2860 C   0  0  0  0  0  0  0  0  0  0  0  0
    6.7230   -3.5340   20.6020 C   0  0  0  0  0  0  0  0  0  0  0  0
    5.5800   -4.5460   20.4560 C   0  0  0  0  0  0  0  0  0  0  0  0
    5.0250   -3.6220   19.8570 O   0  0  0  0  0  0  0  0  0  0  0  0
    6.4820   -5.3030   21.1590 N   0  0  0  0  0  0  0  0  0  0  0  0
    5.9550   -6.1990   22.1900 C   0  0  0  0  0  0  0  0  0  0  0  0
    6.4200   -5.8240   23.5480 C   0  0  0  0  0  0  0  0  0  0  0  0
    7.8020   -5.5520   23.7270 N   0  0  0  0  0  0  0  0  0  0  0  0
    8.1840   -5.2020   25.0710 C   0  0  0  0  0  0  0  0  0  0  0  0
    9.5470   -4.9600   25.1470 C   0  0  0  0  0  0  0  0  0  0  0  0
    9.9180   -4.3880   23.9560 N   0  0  0  0  0  0  0  0  0  0  0  0
    7.3560   -5.1070   26.1610 N   0  0  0  0  0  0  0  0  0  0  0  0
    6.0340   -5.3880   25.8960 C   0  0  0  0  0  0  0  0  0  0  0  0
    5.0730   -5.3430   26.9070 C   0  0  0  0  0  0  0  0  0  0  0  0
    5.5250   -4.6200   28.0330 N   0  0  0  0  0  0  0  0  0  0  0  0
    6.7000   -5.1780   28.7250 C   0  0  0  0  0  0  0  0  0  0  0  0
    6.6250   -6.0490   29.5900 O   0  0  0  0  0  0  0  0  0  0  0  0
    7.9100   -4.6070   28.3110 C   0  0  0  0  0  0  0  0  0  0  0  0
    7.5980   -2.8650   28.1300 Cl  0  0  0  0  0  0  0  0  0  0  0  0
    5.5270   -5.7430   24.6370 C   0  0  0  0  0  0  0  0  0  0  0  0
    4.1710   -6.0280   24.4250 C   0  0  0  0  0  0  0  0  0  0  0  0
    3.4070   -4.7970   24.3130 N   0  0  0  0  0  0  0  0  0  0  0  0
    3.8610   -3.6740   23.6570 C   0  0  0  0  0  0  0  0  0  0  0  0
    4.1190   -3.5860   22.3130 O   0  0  0  0  0  0  0  0  0  0  0  0
    4.0650   -2.5080   24.4040 C   0  0  0  0  0  0  0  0  0  0  0  0
    2.7220   -2.3710   25.5680 Cl  0  0  0  0  0  0  0  0  0  0  0  0
  1  2  1  0
  2  3  1  0
  3  4  2  0
  3  5  1  0
  5  6  1  0
  6  7  1  0
  7  8  2  0
  8  9  1  0
  9 10  1  0
 10 11  3  0
  9 12  2  0
 12 13  1  0
 13 14  1  0
 14 15  1  0
 15 16  1  0
 16 17  2  0
 16 18  1  0
 18 19  1  0
  7 20  1  0
 13 20  2  0
 20 21  1  0
 21 22  1  0
 22 23  1  0
 23 24  2  0
 23 25  1  0
 25 26  1  0
M  END
