MAK-UNK-0d6072ac-12
     RDKit          3D

 19 21  0  0  0  0  0  0  0  0999 V2000
    8.5470   -5.5800   27.1480 C   0  0  0  0  0  0  0  0  0  0  0  0
    7.6210   -4.6290   26.4220 C   0  0  2  0  0  0  0  0  0  0  0  0
    6.3650   -5.2210   25.7670 C   0  0  0  0  0  0  0  0  0  0  0  0
    5.2780   -5.5680   26.6280 O   0  0  0  0  0  0  0  0  0  0  0  0
    6.3660   -5.3660   24.4160 O   0  0  0  0  0  0  0  0  0  0  0  0
    8.4510   -3.8380   25.4210 C   0  0  0  0  0  0  0  0  0  0  0  0
    9.9180   -3.6520   25.6620 C   0  0  0  0  0  0  0  0  0  0  0  0
   10.8000   -2.9780   24.8860 N   0  0  0  0  0  0  0  0  0  0  0  0
   10.3640   -2.3790   23.7370 C   0  0  0  0  0  0  0  0  0  0  0  0
    8.8700   -2.4730   23.3310 C   0  0  0  0  0  0  0  0  0  0  0  0
    7.9430   -3.1740   24.1350 C   0  0  0  0  0  0  0  0  0  0  0  0
    8.8930   -1.7850   22.2090 N   0  0  0  0  0  0  0  0  0  0  0  0
   10.0940   -1.8870   22.8270 C   0  0  0  0  0  0  0  0  0  0  0  0
    9.9400   -2.6990   24.1070 C   0  0  0  0  0  0  0  0  0  0  0  0
   11.2320   -2.9210   24.9530 C   0  0  0  0  0  0  0  0  0  0  0  0
   12.4360   -2.3660   24.4920 C   0  0  0  0  0  0  0  0  0  0  0  0
   13.8200   -2.6330   25.4460 Cl  0  0  0  0  0  0  0  0  0  0  0  0
   12.4670   -1.6390   23.3110 C   0  0  0  0  0  0  0  0  0  0  0  0
   11.2380   -1.5570   22.7140 C   0  0  0  0  0  0  0  0  0  0  0  0
  2  1  1  6
  2  3  1  0
  3  4  2  0
  3  5  1  0
  2  6  1  0
  6  7  2  0
  7  8  1  0
  8  9  2  0
  9 10  1  0
  6 11  1  0
 10 11  2  0
 10 12  1  0
 12 13  1  0
 13 14  1  0
 14 15  2  0
 15 16  1  0
 16 17  1  0
 16 18  2  0
  9 19  1  0
 13 19  2  0
 18 19  1  0
M  END
