MAK-UNK-148caf23-11-acrylamide
     RDKit          3D

 36 39  0  0  0  0  0  0  0  0999 V2000
    7.6650   -3.1140   18.9360 C   0  0  0  0  0  0  0  0  0  0  0  0
    7.8520   -2.4770   20.2670 C   0  0  0  0  0  0  0  0  0  0  0  0
    6.8020   -2.9260   21.3500 C   0  0  0  0  0  0  0  0  0  0  0  0
    5.2800   -3.5530   21.1210 O   0  0  0  0  0  0  0  0  0  0  0  0
    7.7440   -2.5100   22.6980 C   0  0  0  0  0  0  0  0  0  0  0  0
    8.7580   -1.7300   22.1590 C   0  0  0  0  0  0  0  0  0  0  0  0
    9.1720   -1.6570   23.6450 C   0  0  0  0  0  0  0  0  0  0  0  0
   10.4270   -0.8230   24.0980 C   0  0  0  0  0  0  0  0  0  0  0  0
   10.3070   -1.1070   25.4840 N   0  0  0  0  0  0  0  0  0  0  0  0
    9.3140   -0.4660   26.3710 C   0  0  0  0  0  0  0  0  0  0  0  0
    8.6640    0.7130   25.6940 C   0  0  0  0  0  0  0  0  0  0  0  0
    8.1210    0.5920   27.0920 C   0  0  0  0  0  0  0  0  0  0  0  0
    7.1240    1.3000   28.0180 C   0  0  0  0  0  0  0  0  0  0  0  0
    6.9860    0.1960   28.8460 N   0  0  0  0  0  0  0  0  0  0  0  0
    5.9930   -0.7240   28.6310 C   0  0  0  0  0  0  0  0  0  0  0  0
    7.8760    1.4030   26.2110 C   0  0  0  0  0  0  0  0  0  0  0  0
    7.1210    2.2120   26.4920 N   0  0  0  0  0  0  0  0  0  0  0  0
    6.1050    3.5550   26.4280 S   0  0  0  0  0  0  0  0  0  0  0  0
    5.8590    3.8750   27.8190 O   0  0  0  0  0  0  0  0  0  0  0  0
    6.7790    4.5500   25.6400 O   0  0  0  0  0  0  0  0  0  0  0  0
    4.5530    3.0000   25.7370 C   0  0  0  0  0  0  0  0  0  0  0  0
    3.4620    2.4890   26.6760 C   0  0  0  0  0  0  0  0  0  0  0  0
    2.1510    2.0250   26.0350 C   0  0  0  0  0  0  0  0  0  0  0  0
    1.9740    2.0910   24.5960 C   0  0  0  0  0  0  0  0  0  0  0  0
    3.0220    2.5710   23.8010 N   0  0  0  0  0  0  0  0  0  0  0  0
    4.2160    2.9920   24.2940 C   0  0  0  0  0  0  0  0  0  0  0  0
    7.8130    2.0460   25.1900 C   0  0  0  0  0  0  0  0  0  0  0  0
    7.1050    3.1550   24.7700 C   0  0  0  0  0  0  0  0  0  0  0  0
    5.7220    4.1490   24.9780 C   0  0  0  0  0  0  0  0  0  0  0  0
    5.1480    5.6870   24.4850 C   0  0  0  0  0  0  0  0  0  0  0  0
    6.3950    5.7960   24.5430 C   0  0  0  0  0  0  0  0  0  0  0  0
    6.7330    4.6110   24.0230 C   0  0  0  0  0  0  0  0  0  0  0  0
    6.9880    3.5410   23.4950 C   0  0  0  0  0  0  0  0  0  0  0  0
    6.3880    4.3670   22.6100 F   0  0  0  0  0  0  0  0  0  0  0  0
    9.8920   -1.0290   22.8580 N   0  0  0  0  0  0  0  0  0  0  0  0
    8.8450   -1.8580   23.3780 C   0  0  0  0  0  0  0  0  0  0  0  0
  1  2  1  0
  2  3  1  0
  3  4  2  0
  3  5  1  0
  5  6  2  0
  6  7  1  0
  7  8  2  0
  8  9  1  0
  9 10  1  0
 10 11  1  0
 11 12  1  0
 12 13  1  0
 13 14  1  0
 14 15  1  0
 12 16  2  0
 16 17  1  0
 17 18  1  0
 18 19  2  0
 18 20  2  0
 18 21  1  0
 21 22  2  0
 22 23  1  0
 23 24  2  0
 24 25  1  0
 21 26  1  0
 25 26  2  0
 11 27  2  0
 17 27  1  0
 27 28  1  0
 28 29  2  0
 29 30  1  0
 30 31  2  0
 31 32  1  0
 28 33  1  0
 32 33  2  0
 33 34  1  0
  8 35  1  0
  5 36  1  0
 35 36  2  0
M  END
