MAK-UNK-8fdbca50-16-vinylsulfonamide
     RDKit          3D

 41 44  0  0  0  0  0  0  0  0999 V2000
    7.3350   -5.3340   20.2170 C   0  0  0  0  0  0  0  0  0  0  0  0
    7.3070   -3.8540   20.6120 C   0  0  0  0  0  0  0  0  0  0  0  0
    5.6330   -3.2750   20.6270 S   0  0  0  0  0  0  0  0  0  0  0  0
    4.8980   -3.8390   19.5210 O   0  0  0  0  0  0  0  0  0  0  0  0
    5.6070   -1.8500   20.9010 O   0  0  0  0  0  0  0  0  0  0  0  0
    5.0330   -3.9750   22.0130 N   0  0  0  0  0  0  0  0  0  0  0  0
    4.7470   -3.3510   23.2130 C   0  0  0  0  0  0  0  0  0  0  0  0
    5.1530   -4.1560   24.4880 C   0  0  0  0  0  0  0  0  0  0  0  0
    4.6900   -5.6130   24.3780 C   0  0  0  0  0  0  0  0  0  0  0  0
    5.9430   -6.4800   24.2980 C   0  0  0  0  0  0  0  0  0  0  0  0
    5.8590   -7.7180   24.3070 O   0  0  0  0  0  0  0  0  0  0  0  0
    7.1870   -5.8280   24.1920 N   0  0  0  0  0  0  0  0  0  0  0  0
    7.3560   -5.0130   22.9760 C   0  0  0  0  0  0  0  0  0  0  0  0
    8.6490   -5.1880   22.5730 N   0  0  0  0  0  0  0  0  0  0  0  0
    9.3890   -4.0340   22.6710 C   0  0  0  0  0  0  0  0  0  0  0  0
    9.0920   -3.1430   23.7210 C   0  0  0  0  0  0  0  0  0  0  0  0
    8.4630   -3.5850   24.7950 C   0  0  0  0  0  0  0  0  0  0  0  0
    8.2060   -2.6660   25.7770 C   0  0  0  0  0  0  0  0  0  0  0  0
    7.5050   -3.1840   26.9540 C   0  0  0  0  0  0  0  0  0  0  0  0
    8.0750   -4.4930   27.3070 C   0  0  0  0  0  0  0  0  0  0  0  0
    7.5200   -5.1550   28.3930 C   0  0  0  0  0  0  0  0  0  0  0  0
    6.4770   -4.5450   29.0640 C   0  0  0  0  0  0  0  0  0  0  0  0
    5.9570   -3.3150   28.7270 C   0  0  0  0  0  0  0  0  0  0  0  0
    6.4560   -2.5980   27.6600 C   0  0  0  0  0  0  0  0  0  0  0  0
    5.9510   -1.3980   27.3210 F   0  0  0  0  0  0  0  0  0  0  0  0
    8.7470   -1.5020   25.2530 N   0  0  0  0  0  0  0  0  0  0  0  0
    8.8470    0.0300   25.8420 S   0  0  0  0  0  0  0  0  0  0  0  0
    7.5940    0.7020   25.5800 O   0  0  0  0  0  0  0  0  0  0  0  0
    9.3630   -0.1570   27.1710 O   0  0  0  0  0  0  0  0  0  0  0  0
   10.1210    0.6180   24.7800 C   0  0  0  0  0  0  0  0  0  0  0  0
   11.1920   -0.1820   24.5090 C   0  0  0  0  0  0  0  0  0  0  0  0
   12.2250    0.2190   23.6890 C   0  0  0  0  0  0  0  0  0  0  0  0
   12.1610    1.4740   23.1360 C   0  0  0  0  0  0  0  0  0  0  0  0
   11.1030    2.3200   23.3750 N   0  0  0  0  0  0  0  0  0  0  0  0
   10.0920    1.8610   24.2030 C   0  0  0  0  0  0  0  0  0  0  0  0
    9.2910   -1.7980   23.9780 C   0  0  0  0  0  0  0  0  0  0  0  0
    8.3900   -6.6210   24.4240 C   0  0  0  0  0  0  0  0  0  0  0  0
    8.6480   -7.4300   23.3490 C   0  0  0  0  0  0  0  0  0  0  0  0
    9.6040   -5.7810   24.8020 C   0  0  0  0  0  0  0  0  0  0  0  0
    3.9930   -5.8720   23.0480 C   0  0  0  0  0  0  0  0  0  0  0  0
    5.0300   -5.4190   22.0430 C   0  0  0  0  0  0  0  0  0  0  0  0
  1  2  1  0
  3  2  1  0
  3  4  2  0
  3  5  2  0
  3  6  1  0
  6  7  1  0
  7  8  1  0
  8  9  1  0
  9 10  1  0
 10 11  2  0
 10 12  1  0
 12 13  1  0
 13 14  1  0
 14 15  1  0
 15 16  1  0
 16 17  1  0
 17 18  2  0
 18 19  1  0
 19 20  2  0
 20 21  1  0
 21 22  2  0
 22 23  1  0
 19 24  1  0
 23 24  2  0
 24 25  1  0
 18 26  1  0
 26 27  1  0
 27 28  2  0
 27 29  2  0
 27 30  1  0
 30 31  2  0
 31 32  1  0
 32 33  2  0
 33 34  1  0
 30 35  1  0
 34 35  2  0
 16 36  2  0
 26 36  1  0
 12 37  1  0
 37 38  1  0
 37 39  1  0
  9 40  1  0
  6 41  1  0
 40 41  1  0
M  END
