MAK-UNK-ec98eaf6-4-acrylamide
     RDKit          3D

 21 24  0  0  0  0  0  0  0  0999 V2000
    7.9570   -3.3510   19.1870 C   0  0  0  0  0  0  0  0  0  0  0  0
    6.7930   -2.4320   18.9110 C   0  0  0  0  0  0  0  0  0  0  0  0
    5.8560   -2.7710   20.0070 C   0  0  0  0  0  0  0  0  0  0  0  0
    4.9580   -3.5740   19.7980 O   0  0  0  0  0  0  0  0  0  0  0  0
    6.1550   -2.1740   21.2000 N   0  0  0  0  0  0  0  0  0  0  0  0
    6.9140   -0.9300   21.4470 C   0  0  0  0  0  0  0  0  0  0  0  0
    8.0690   -1.3990   22.3870 C   0  0  1  0  0  0  0  0  0  0  0  0
    6.6670   -1.4210   23.0800 C   0  0  0  0  0  0  0  0  0  0  0  0
    6.1740   -2.7650   22.5250 C   0  0  2  0  0  0  0  0  0  0  0  0
    7.4230   -3.5030   22.9820 C   0  0  0  0  0  0  0  0  0  0  0  0
    8.1150   -2.3110   23.5740 N   0  0  0  0  0  0  0  0  0  0  0  0
    9.4630   -2.5820   24.1280 C   0  0  0  0  0  0  0  0  0  0  0  0
   10.5070   -1.6780   23.8270 C   0  0  0  0  0  0  0  0  0  0  0  0
   10.7150   -0.4640   24.5020 C   0  0  0  0  0  0  0  0  0  0  0  0
   11.7760    0.3750   24.1290 C   0  0  0  0  0  0  0  0  0  0  0  0
   12.6310    0.0230   23.1030 C   0  0  0  0  0  0  0  0  0  0  0  0
   12.4160   -1.1760   22.4450 C   0  0  0  0  0  0  0  0  0  0  0  0
   13.4030   -1.6830   21.1730 Cl  0  0  0  0  0  0  0  0  0  0  0  0
   11.3820   -2.0030   22.7990 C   0  0  0  0  0  0  0  0  0  0  0  0
    9.4810   -3.0040   25.4700 C   0  0  0  0  0  0  0  0  0  0  0  0
    9.8580   -4.0620   24.8340 C   0  0  0  0  0  0  0  0  0  0  0  0
  1  2  1  0
  2  3  1  0
  3  4  2  0
  3  5  1  0
  5  6  1  0
  7  6  1  6
  7  8  1  0
  5  9  1  0
  8  9  1  0
  9 10  1  6
  7 11  1  0
 10 11  1  0
 11 12  1  0
 12 13  1  0
 13 14  2  0
 14 15  1  0
 15 16  2  0
 16 17  1  0
 17 18  1  0
 13 19  1  0
 17 19  2  0
 12 20  1  0
 12 21  1  0
 20 21  1  0
M  END
